data_PCOD9430710
_publ_section_title
;
Structure prediction by ZEFSAII (Michael W. Deem and Ramdas Pophale) SiO2 
 PCOD9430710
Probable space group: P C C N
;
_chemical_formula_sum "Si O2"
_cell_formula_units_Z 60
_cell_length_a 8.795235
_cell_length_b 20.375261
_cell_length_c 18.203926
_cell_angle_alpha 90.000000
_cell_angle_beta 90.000000
_cell_angle_gamma 90.000000
_cell_volume 3262.238358
_symmetry_space_group_name_H-M "P C C N"
_symmetry_group_IT_number 56
_symmetry_cell_setting 'orthorhombic'
loop_
_space_group_symop_operation_xyz
x,y,z
1/2-x,1/2-y,z
1/2+x,-y,1/2-z
-x,1/2+y,1/2-z
-x,-y,-z
1/2+x,1/2+y,-z
1/2-x,y,1/2+z
x,1/2-y,1/2+z
loop_
_atom_site_type_symbol
_atom_site_label
_atom_site_fract_x
_atom_site_fract_y
_atom_site_fract_z
Si Si1 0.959174 0.131337 0.288913
Si Si2 0.874445 0.944704 0.018540
Si Si3 0.489119 0.855148 0.641654
Si Si4 0.682675 0.930833 0.880440
Si Si5 0.918374 0.522272 0.114489
Si Si6 0.750000 0.250000 0.839462
Si Si7 0.700545 0.461470 0.765600
Si Si8 0.219393 0.176034 0.730562
O O1 0.862072 0.198287 0.298107
O O2 0.850712 0.080448 0.246535
O O3 0.116906 0.145418 0.249481
O O4 0.002255 0.092431 0.365029
O O5 0.946338 0.889109 0.069697
O O6 0.730830 0.971538 0.065334
O O7 0.805093 0.917558 0.943072
O O8 0.000000 0.000000 0.000000
O O9 0.366695 0.799443 0.621605
O O10 0.408801 0.911689 0.690843
O O11 0.618641 0.826477 0.695399
O O12 0.540039 0.969727 0.914798
O O13 0.642634 0.866782 0.833415
O O14 0.750764 0.982166 0.821821
O O15 0.870224 0.493050 0.193749
O O16 0.250000 0.250000 0.707511
#
# Coordination Sequence:
#
# PCOD9430710 Si02
#       8
#     8   8   8   8   8   4   8   8
#     4  10  21  34  62  93 122 154 206 261 311 364
#     4  12  25  39  63  95 130 169 205 256 326 395
#     4  11  21  41  64  96 119 168 214 263 315 372
#     4  11  23  39  58  90 135 162 200 261 319 381
#     4  11  22  39  64  98 124 164 209 261 321 372
#     4  10  22  40  62  92 122 162 212 268 306 372
#     4  10  20  36  64  94 122 155 205 266 320 356
#     4  12  22  39  65  92 121 166 216 263 308 371
#
# _framework density 18.39228
#
# number of rings (size 3 to 8) (size 9 to 14) (size 15 to 20)
#    0.000    1.067    6.667    0.400    3.733    0.000 
#    0.000    2.000    0.000    0.000    0.000    0.000 
#    0.000    0.000    0.000    0.000    0.000    0.000 
#
# Total GULP energy -334791.941689 kJ/mol
# GULP energy per Si atom -5579.865695 kJ/mol
# Density = 1.835042 g / cm^3
# Si number density = 18.392280 Si / 1000 Ang^3
#
#
#
# Elastic Constant Matrix: (Units=GPa)
#
#
# Indices 1 2 3 4 5 6 
#
# 1 92.8878 35.9493 24.4708 0.0000 0.0000 0.0000
# 2 35.9493 112.1277 32.2902 0.0000 0.0000 0.0000
# 3 24.4708 32.2902 65.6377 0.0000 0.0000 0.0000
# 4 0.0000 0.0000 0.0000 9.5615 0.0000 0.0000
# 5 0.0000 0.0000 0.0000 0.0000 36.7242 0.0000
# 6 0.0000 0.0000 0.0000 0.0000 0.0000 37.1433
#
#
#
# Elastic Compliance Matrix: (Units=1/GPa)
#
#
# Indices 1 2 3 4 5 6 
#
# 1 0.012849 -0.003192 -0.003220 0.000000 0.000000 0.000000
# 2 -0.003192 0.011184 -0.004312 0.000000 0.000000 0.000000
# 3 -0.003220 -0.004312 0.018557 0.000000 0.000000 0.000000
# 4 0.000000 0.000000 0.000000 0.104586 0.000000 0.000000
# 5 0.000000 0.000000 0.000000 0.000000 0.027230 0.000000
# 6 0.000000 0.000000 0.000000 0.000000 0.000000 0.026923
#
#
# Mechanical properties :
#
#
# Convention : Reuss Voigt Hill
#
# Bulk Modulus (GPa) = 47.29958 50.67486 48.98722
# Shear Modulus (GPa) = 21.75580 28.54864 25.15222
#
# Velocity S-wave (km/s) = 3.44303 3.94408 3.70204
# Velocity P-wave (km/s) = 6.44817 6.95364 6.70567
#
# Compressibility (1/GPa) = 0.02114184
#
# Stress axis : x y z
#
# Youngs Moduli (GPa) = 77.82414 89.41708 53.88897
#
# Poissons Ratio (x) = 0.28545 0.17352
# Poissons Ratio (y) = 0.24845 0.23234
# Poissons Ratio (z) = 0.25059 0.38552
#
# Static dielectric constant tensor:
#      x y z
#    x 1.673490 0.000000 0.000000 
#    y 0.000000 1.647470 0.000000 
#    z 0.000000 0.000000 1.603290 
# 
# From -- ./inp_files/15107.got.cif
#   From: 2010.05.17/outbox.cif.g08.bks.cpg/sg56_8_cif.got.tgz:15107.got - 2010.06.03 13:42:01.
