data_PCOD9430505
_publ_section_title
;
Structure prediction by ZEFSAII (Michael W. Deem and Ramdas Pophale) SiO2 
 PCOD9430505
Probable space group: P C C N
;
_chemical_formula_sum "Si O2"
_cell_formula_units_Z 60
_cell_length_a 27.381517
_cell_length_b 8.619868
_cell_length_c 10.917999
_cell_angle_alpha 90.000000
_cell_angle_beta 90.000000
_cell_angle_gamma 90.000000
_cell_volume 2576.921393
_symmetry_space_group_name_H-M "P C C N"
_symmetry_group_IT_number 56
_symmetry_cell_setting 'orthorhombic'
loop_
_space_group_symop_operation_xyz
x,y,z
1/2-x,1/2-y,z
1/2+x,-y,1/2-z
-x,1/2+y,1/2-z
-x,-y,-z
1/2+x,1/2+y,-z
1/2-x,y,1/2+z
x,1/2-y,1/2+z
loop_
_atom_site_type_symbol
_atom_site_label
_atom_site_fract_x
_atom_site_fract_y
_atom_site_fract_z
Si Si1 0.404719 0.736118 0.305466
Si Si2 0.680328 0.484239 0.751625
Si Si3 0.574402 0.506391 0.338091
Si Si4 0.858438 0.802603 0.176207
Si Si5 0.048287 0.270672 0.502792
Si Si6 0.017437 0.952858 0.175407
Si Si7 0.161002 0.913858 0.970538
Si Si8 0.250000 0.750000 0.859833
O O1 0.362830 0.609058 0.314469
O O2 0.452662 0.636275 0.280043
O O3 0.391028 0.845963 0.420834
O O4 0.398757 0.841926 0.181221
O O5 0.675287 0.657701 0.703949
O O6 0.729736 0.391158 0.723113
O O7 0.664619 0.472410 0.892624
O O8 0.613994 0.634293 0.296431
O O9 0.548596 0.594006 0.449347
O O10 0.532023 0.484444 0.236366
O O11 0.903154 0.777879 0.080399
O O12 0.828809 0.942839 0.119027
O O13 0.045544 0.403660 0.610267
O O14 0.001784 0.324138 0.421521
O O15 0.204928 0.797281 0.944814
#
# Coordination Sequence:
#
# PCOD9430505 Si02
#       8
#     8   8   8   8   8   8   8   4
#     4  10  22  36  58  88 119 161 210 254 309 372
#     4  11  23  43  68  91 125 163 203 257 317 386
#     4  10  20  34  54  85 124 165 215 262 308 367
#     4  10  21  38  62  91 122 165 212 254 311 379
#     4  10  21  37  57  86 129 172 219 275 316 359
#     4  10  20  36  57  85 127 175 218 265 315 364
#     4  10  22  43  66  92 127 159 198 258 317 374
#     4  10  24  44  68 100 126 156 200 246 318 400
#
# _framework density 23.283597
#
# number of rings (size 3 to 8) (size 9 to 14) (size 15 to 20)
#    0.000    1.867    0.000    3.600    0.000    7.467 
#    0.000    6.667    0.000    2.400    0.000    0.000 
#    0.000    0.000    0.000    0.000    0.000    0.000 
#
# Total GULP energy -334834.886201 kJ/mol
# GULP energy per Si atom -5580.581437 kJ/mol
# Density = 2.323060 g / cm^3
# Si number density = 23.283597 Si / 1000 Ang^3
#
#
#
# Elastic Constant Matrix: (Units=GPa)
#
#
# Indices 1 2 3 4 5 6 
#
# 1 60.0007 0.1814 -0.2226 0.0000 0.0000 0.0000
# 2 0.1814 48.4889 7.8050 0.0000 0.0000 0.0000
# 3 -0.2226 7.8050 47.6762 0.0000 0.0000 0.0000
# 4 0.0000 0.0000 0.0000 32.3566 0.0000 0.0000
# 5 0.0000 0.0000 0.0000 0.0000 20.2467 0.0000
# 6 0.0000 0.0000 0.0000 0.0000 0.0000 46.0504
#
#
#
# Elastic Compliance Matrix: (Units=1/GPa)
#
#
# Indices 1 2 3 4 5 6 
#
# 1 0.016667 -0.000077 0.000090 0.000000 0.000000 0.000000
# 2 -0.000077 0.021182 -0.003468 0.000000 0.000000 0.000000
# 3 0.000090 -0.003468 0.021543 0.000000 0.000000 0.000000
# 4 0.000000 0.000000 0.000000 0.030906 0.000000 0.000000
# 5 0.000000 0.000000 0.000000 0.000000 0.049391 0.000000
# 6 0.000000 0.000000 0.000000 0.000000 0.000000 0.021715
#
#
# Mechanical properties :
#
#
# Convention : Reuss Voigt Hill
#
# Bulk Modulus (GPa) = 19.05387 19.07706 19.06546
# Shear Modulus (GPa) = 26.90965 29.62418 28.26692
#
# Velocity S-wave (km/s) = 3.40330 3.57083 3.48807
# Velocity P-wave (km/s) = 4.86255 5.02118 4.94250
#
# Compressibility (1/GPa) = 0.05248278
#
# Stress axis : x y z
#
# Youngs Moduli (GPa) = 59.99864 47.21034 46.41881
#
# Poissons Ratio (x) = 0.00363 -0.00420
# Poissons Ratio (y) = 0.00461 0.16098
# Poissons Ratio (z) = -0.00542 0.16373
#
# Static dielectric constant tensor:
#      x y z
#    x 1.893160 0.000000 0.000000 
#    y 0.000000 1.942850 0.000000 
#    z 0.000000 0.000000 1.937050 
# 
# From -- ./inp_files/9080.got.cif
#   From: 2010.05.17/outbox.cif.g08.bks.cpg/sg56_5_cif.got.tgz:9080.got - 2010.06.03 13:42:01.
