data_PCOD9430465
_publ_section_title
;
Structure prediction by ZEFSAII (Michael W. Deem and Ramdas Pophale) SiO2 
 PCOD9430465
Probable space group: P C C N
;
_chemical_formula_sum "Si O2"
_cell_formula_units_Z 40
_cell_length_a 19.146373
_cell_length_b 10.129514
_cell_length_c 8.992393
_cell_angle_alpha 90.000000
_cell_angle_beta 90.000000
_cell_angle_gamma 90.000000
_cell_volume 1744.015752
_symmetry_space_group_name_H-M "P C C N"
_symmetry_group_IT_number 56
_symmetry_cell_setting 'orthorhombic'
loop_
_space_group_symop_operation_xyz
x,y,z
1/2-x,1/2-y,z
1/2+x,-y,1/2-z
-x,1/2+y,1/2-z
-x,-y,-z
1/2+x,1/2+y,-z
1/2-x,y,1/2+z
x,1/2-y,1/2+z
loop_
_atom_site_type_symbol
_atom_site_label
_atom_site_fract_x
_atom_site_fract_y
_atom_site_fract_z
Si Si1 0.796983 0.421897 0.309075
Si Si2 0.250000 0.250000 0.949143
Si Si3 0.069794 0.419726 0.673173
Si Si4 0.327244 0.089704 0.195577
Si Si5 0.466033 0.152771 0.333158
Si Si6 0.250000 0.750000 0.446455
O O1 0.847654 0.548099 0.307806
O O2 0.714984 0.457008 0.323991
O O3 0.797803 0.341406 0.158190
O O4 0.804566 0.333425 0.454441
O O5 0.304882 0.175648 0.054153
O O6 0.207759 0.153237 0.842281
O O7 0.053712 0.368700 0.506306
O O8 0.040260 0.306298 0.783331
O O9 0.035070 0.564790 0.691669
O O10 0.407841 0.083708 0.228969
#
# Coordination Sequence:
#
# PCOD9430465 Si02
#       6
#     8   4   8   8   8   4
#     4  11  23  41  65  94 129 171 216 268 324 388
#     4  10  20  32  60  94 120 148 204 272 318 362
#     4  11  26  45  67  95 133 174 219 269 326 388
#     4  11  20  37  62  91 123 161 211 264 318 376
#     4  11  25  44  65  97 133 173 219 270 326 388
#     4  10  24  40  62  96 132 168 214 268 330 386
#
# _framework density 22.935572000000001
#
# number of rings (size 3 to 8) (size 9 to 14) (size 15 to 20)
#    0.000    1.200    0.000    7.200    0.000    8.800 
#    0.000    0.000    0.000    0.000    0.000    0.000 
#    0.000    0.000    0.000    0.000    0.000    0.000 
#
# Total GULP energy -223566.200801 kJ/mol
# GULP energy per Si atom -5589.155020 kJ/mol
# Density = 2.288337 g / cm^3
# Si number density = 22.935572 Si / 1000 Ang^3
#
#
#
# Elastic Constant Matrix: (Units=GPa)
#
#
# Indices 1 2 3 4 5 6 
#
# 1 46.9431 3.9120 1.2890 0.0000 0.0000 0.0000
# 2 3.9120 105.7223 41.6732 0.0000 0.0000 0.0000
# 3 1.2890 41.6732 119.7101 0.0000 0.0000 0.0000
# 4 0.0000 0.0000 0.0000 10.3483 0.0000 0.0000
# 5 0.0000 0.0000 0.0000 0.0000 7.9773 0.0000
# 6 0.0000 0.0000 0.0000 0.0000 0.0000 42.8067
#
#
#
# Elastic Compliance Matrix: (Units=1/GPa)
#
#
# Indices 1 2 3 4 5 6 
#
# 1 0.021369 -0.000811 0.000052 0.000000 0.000000 0.000000
# 2 -0.000811 0.010994 -0.003818 0.000000 0.000000 0.000000
# 3 0.000052 -0.003818 0.009682 0.000000 0.000000 0.000000
# 4 0.000000 0.000000 0.000000 0.096634 0.000000 0.000000
# 5 0.000000 0.000000 0.000000 0.000000 0.125356 0.000000
# 6 0.000000 0.000000 0.000000 0.000000 0.000000 0.023361
#
#
# Mechanical properties :
#
#
# Convention : Reuss Voigt Hill
#
# Bulk Modulus (GPa) = 30.40450 40.68041 35.54246
# Shear Modulus (GPa) = 16.25944 27.25989 21.75966
#
# Velocity S-wave (km/s) = 2.66544 3.45126 3.08349
# Velocity P-wave (km/s) = 4.77054 5.80146 5.31107
#
# Compressibility (1/GPa) = 0.03288987
#
# Stress axis : x y z
#
# Youngs Moduli (GPa) = 46.79772 90.95955 103.28213
#
# Poissons Ratio (x) = 0.07380 -0.00541
# Poissons Ratio (y) = 0.03797 0.39438
# Poissons Ratio (z) = -0.00245 0.34732
#
# Static dielectric constant tensor:
#      x y z
#    x 1.893820 0.000000 0.000000 
#    y 0.000000 1.935240 0.000000 
#    z 0.000000 0.000000 1.869020 
# 
# From -- ./inp_files/2599.got.cif
#   From: 2010.05.17/outbox.cif.g08.bks.cpg/sg56_2_cif.got.tgz:2599.got - 2010.06.03 13:42:01.
