data_PCOD9430565
_publ_section_title
;
Structure prediction by ZEFSAII (Michael W. Deem and Ramdas Pophale) SiO2 
 PCOD9430565
Probable space group: P C C N
;
_chemical_formula_sum "Si O2"
_cell_formula_units_Z 48
_cell_length_a 13.612558
_cell_length_b 13.886998
_cell_length_c 14.176778
_cell_angle_alpha 90.000000
_cell_angle_beta 90.000000
_cell_angle_gamma 90.000000
_cell_volume 2679.943603
_symmetry_space_group_name_H-M "P C C N"
_symmetry_group_IT_number 56
_symmetry_cell_setting 'orthorhombic'
loop_
_space_group_symop_operation_xyz
x,y,z
1/2-x,1/2-y,z
1/2+x,-y,1/2-z
-x,1/2+y,1/2-z
-x,-y,-z
1/2+x,1/2+y,-z
1/2-x,y,1/2+z
x,1/2-y,1/2+z
loop_
_atom_site_type_symbol
_atom_site_label
_atom_site_fract_x
_atom_site_fract_y
_atom_site_fract_z
Si Si1 0.767513 0.364303 0.946671
Si Si2 0.540356 0.193969 0.660260
Si Si3 0.959130 0.865012 0.244280
Si Si4 0.161121 0.541577 0.240169
Si Si5 0.348354 0.621982 0.347142
Si Si6 0.960034 0.397885 0.464396
O O1 0.750000 0.250000 0.932928
O O2 0.826440 0.411838 0.861863
O O3 0.825274 0.384128 0.042941
O O4 0.657334 0.405801 0.952285
O O5 0.458709 0.256347 0.714674
O O6 0.571023 0.093850 0.706134
O O7 0.636354 0.263306 0.671886
O O8 0.521079 0.177108 0.549940
O O9 0.046698 0.913399 0.307455
O O10 0.863158 0.928964 0.258601
O O11 0.993074 0.867115 0.135285
O O12 0.260708 0.570056 0.293714
O O13 0.000000 0.500000 0.500000
#
# Coordination Sequence:
#
# PCOD9430565 Si02
#       6
#     8   8   8   8   8   8
#     4  12  19  33  60  87 115 155 197 257 308 345
#     4  10  21  35  56  87 120 149 200 248 301 361
#     4  10  23  36  53  92 120 155 197 249 311 362
#     4  12  20  35  59  82 124 156 191 256 303 357
#     4  10  20  35  55  89 120 147 204 249 302 354
#     4  12  20  36  61  88 121 160 199 252 312 371
#
# _framework density 17.910824999999999
#
# number of rings (size 3 to 8) (size 9 to 14) (size 15 to 20)
#    1.000    0.000    6.667    2.500    0.000    0.667 
#    0.000    0.000    0.000    4.000    0.000    9.333 
#    0.000    0.000    0.000    0.000    0.000    0.000 
#
# Total GULP energy -267414.110833 kJ/mol
# GULP energy per Si atom -5571.127309 kJ/mol
# Density = 1.787006 g / cm^3
# Si number density = 17.910825 Si / 1000 Ang^3
#
#
#
# Elastic Constant Matrix: (Units=GPa)
#
#
# Indices 1 2 3 4 5 6 
#
# 1 26.9524 18.5916 -2.1416 0.0000 0.0000 0.0000
# 2 18.5916 36.5469 2.2238 0.0000 0.0000 0.0000
# 3 -2.1416 2.2238 90.2393 0.0000 0.0000 0.0000
# 4 0.0000 0.0000 0.0000 22.8718 0.0000 0.0000
# 5 0.0000 0.0000 0.0000 0.0000 13.3289 0.0000
# 6 0.0000 0.0000 0.0000 0.0000 0.0000 32.1714
#
#
#
# Elastic Compliance Matrix: (Units=1/GPa)
#
#
# Indices 1 2 3 4 5 6 
#
# 1 0.057551 -0.029404 0.002090 0.000000 0.000000 0.000000
# 2 -0.029404 0.042426 -0.001743 0.000000 0.000000 0.000000
# 3 0.002090 -0.001743 0.011174 0.000000 0.000000 0.000000
# 4 0.000000 0.000000 0.000000 0.043722 0.000000 0.000000
# 5 0.000000 0.000000 0.000000 0.000000 0.075025 0.000000
# 6 0.000000 0.000000 0.000000 0.000000 0.000000 0.031083
#
#
# Mechanical properties :
#
#
# Convention : Reuss Voigt Hill
#
# Bulk Modulus (GPa) = 18.85441 21.23182 20.04311
# Shear Modulus (GPa) = 14.84672 22.67875 18.76273
#
# Velocity S-wave (km/s) = 2.88223 3.56224 3.24012
# Velocity P-wave (km/s) = 4.65038 5.36650 5.02122
#
# Compressibility (1/GPa) = 0.05303799
#
# Stress axis : x y z
#
# Youngs Moduli (GPa) = 17.37582 23.57038 89.49175
#
# Poissons Ratio (x) = 0.69306 -0.18708
# Poissons Ratio (y) = 0.51092 0.15602
# Poissons Ratio (z) = -0.03632 0.04109
#
# Static dielectric constant tensor:
#      x y z
#    x 1.635250 0.000000 0.000000 
#    y 0.000000 1.622460 0.000000 
#    z 0.000000 0.000000 1.636300 
# 
# From -- ./inp_files/11618.got.cif
#   From: 2010.05.17/outbox.cif.g08.bks.cpg/sg56_6_cif.got.tgz:11618.got - 2010.06.03 13:42:01.
