data_PCOD9430646
_publ_section_title
;
Structure prediction by ZEFSAII (Michael W. Deem and Ramdas Pophale) SiO2 
 PCOD9430646
Probable space group: P C C N
;
_chemical_formula_sum "Si O2"
_cell_formula_units_Z 48
_cell_length_a 10.531920
_cell_length_b 9.653497
_cell_length_c 22.645770
_cell_angle_alpha 90.000000
_cell_angle_beta 90.000000
_cell_angle_gamma 90.000000
_cell_volume 2302.392223
_symmetry_space_group_name_H-M "P C C N"
_symmetry_group_IT_number 56
_symmetry_cell_setting 'orthorhombic'
loop_
_space_group_symop_operation_xyz
x,y,z
1/2-x,1/2-y,z
1/2+x,-y,1/2-z
-x,1/2+y,1/2-z
-x,-y,-z
1/2+x,1/2+y,-z
1/2-x,y,1/2+z
x,1/2-y,1/2+z
loop_
_atom_site_type_symbol
_atom_site_label
_atom_site_fract_x
_atom_site_fract_y
_atom_site_fract_z
Si Si1 0.379431 0.894321 0.221357
Si Si2 0.383005 0.906336 0.773333
Si Si3 0.103148 0.796643 0.468767
Si Si4 0.176754 0.464876 0.897821
Si Si5 0.031491 0.755414 0.604685
Si Si6 0.536127 0.479401 0.068669
O O1 0.237508 0.947190 0.232930
O O2 0.401474 0.757095 0.261624
O O3 0.392056 0.836802 0.154595
O O4 0.487601 0.007310 0.234800
O O5 0.334518 0.944978 0.838567
O O6 0.250000 0.750000 0.463237
O O7 0.092893 0.950628 0.444958
O O8 0.028573 0.686440 0.427298
O O9 0.070146 0.784876 0.537404
O O10 0.110644 0.317626 0.887666
O O11 0.319424 0.471229 0.921038
O O12 0.039456 0.588374 0.609021
O O13 0.500000 0.500000 0.000000
#
# Coordination Sequence:
#
# PCOD9430646 Si02
#       6
#     8   8   8   8   8   8
#     4  10  24  41  62  91 123 167 212 267 311 372
#     4  10  24  41  63  90 123 165 216 263 314 372
#     4   9  19  32  57  84 112 149 187 241 303 373
#     4  10  20  36  58  83 116 158 196 247 306 372
#     4  10  20  36  57  85 118 154 197 248 308 364
#     4   9  19  34  55  89 114 147 195 240 300 370
#
# _framework density 20.847882999999999
#
# number of rings (size 3 to 8) (size 9 to 14) (size 15 to 20)
#    0.000    2.333    0.000    1.000   11.667    0.667 
#    0.000    0.000    0.000    0.000    0.000    0.000 
#    0.000    0.000    0.000    0.000    0.000    0.000 
#
# Total GULP energy -267514.296879 kJ/mol
# GULP energy per Si atom -5573.214518 kJ/mol
# Density = 2.080043 g / cm^3
# Si number density = 20.847883 Si / 1000 Ang^3
#
#
#
# Elastic Constant Matrix: (Units=GPa)
#
#
# Indices 1 2 3 4 5 6 
#
# 1 61.9663 0.8125 11.5530 0.0000 0.0000 0.0000
# 2 0.8125 64.7567 12.8482 0.0000 0.0000 0.0000
# 3 11.5530 12.8482 80.3259 0.0000 0.0000 0.0000
# 4 0.0000 0.0000 0.0000 -6.1011 0.0000 0.0000
# 5 0.0000 0.0000 0.0000 0.0000 27.5485 0.0000
# 6 0.0000 0.0000 0.0000 0.0000 0.0000 28.0633
#
#
#
# Elastic Compliance Matrix: (Units=1/GPa)
#
#
# Indices 1 2 3 4 5 6 
#
# 1 0.016587 0.000274 -0.002429 0.000000 0.000000 0.000000
# 2 0.000274 0.015953 -0.002591 0.000000 0.000000 0.000000
# 3 -0.002429 -0.002591 0.013213 0.000000 0.000000 0.000000
# 4 0.000000 0.000000 0.000000 -0.163905 0.000000 0.000000
# 5 0.000000 0.000000 0.000000 0.000000 0.036300 0.000000
# 6 0.000000 0.000000 0.000000 0.000000 0.000000 0.035634
#
#
# Mechanical properties :
#
#
# Convention : Reuss Voigt Hill
#
# Bulk Modulus (GPa) = 27.57855 28.60846 28.09350
# Shear Modulus (GPa) = -202.93568 22.02450 -90.45559
#
# Velocity S-wave (km/s) = -9.87687 3.25382 -6.59413
# Velocity P-wave (km/s) = 10.80800 5.27908 6.66874
#
# Compressibility (1/GPa) = 0.03626006
#
# Stress axis : x y z
#
# Youngs Moduli (GPa) = 60.28758 62.68379 75.68213
#
# Poissons Ratio (x) = -0.01717 0.18387
# Poissons Ratio (y) = -0.01651 0.19610
# Poissons Ratio (z) = 0.14647 0.16242
#
# Static dielectric constant tensor:
#      x y z
#    x 1.763300 0.000000 0.000000 
#    y 0.000000 1.747640 0.000000 
#    z 0.000000 0.000000 1.760190 
# 
# From -- ./inp_files/20897.got.cif
#   From: 2010.05.17/outbox.cif.g08.bks.cpg/sg56_11_cif.got.tgz:20897.got - 2010.06.03 13:42:01.
