data_PCOD9430051
_publ_section_title
;
Structure prediction by ZEFSAII (Michael W. Deem and Ramdas Pophale) SiO2 
 PCOD9430051
Probable space group: P C C N
;
_chemical_formula_sum "Si O2"
_cell_formula_units_Z 32
_cell_length_a 8.293732
_cell_length_b 37.366997
_cell_length_c 5.145064
_cell_angle_alpha 90.000000
_cell_angle_beta 90.000000
_cell_angle_gamma 90.000000
_cell_volume 1594.516348
_symmetry_space_group_name_H-M "P C C N"
_symmetry_group_IT_number 56
_symmetry_cell_setting 'orthorhombic'
loop_
_space_group_symop_operation_xyz
x,y,z
1/2-x,1/2-y,z
1/2+x,-y,1/2-z
-x,1/2+y,1/2-z
-x,-y,-z
1/2+x,1/2+y,-z
1/2-x,y,1/2+z
x,1/2-y,1/2+z
loop_
_atom_site_type_symbol
_atom_site_label
_atom_site_fract_x
_atom_site_fract_y
_atom_site_fract_z
Si Si1 0.142323 0.313839 0.531266
Si Si2 0.363619 0.470433 0.034803
Si Si3 0.854374 0.607168 0.565991
Si Si4 0.815738 0.289765 0.349338
O O1 0.217750 0.309508 0.815306
O O2 0.072198 0.354195 0.495622
O O3 0.995316 0.288483 0.458512
O O4 0.227871 0.473465 0.809640
O O5 0.500000 0.500000 0.000000
O O6 0.437180 0.430355 0.000847
O O7 0.798595 0.606858 0.865905
O O8 0.750000 0.250000 0.296277
O O9 0.796823 0.307596 0.068189
#
# Coordination Sequence:
#
# PCOD9430051 Si02
#       4
#     8   8   8   8
#     4  10  19  35  58  79  96 131 182 214 238 300
#     4  10  19  33  51  74 105 138 170 210 254 300
#     4   8  16  30  50  73  99 130 168 212 252 286
#     4  10  21  38  53  74 109 137 156 202 271 310
#
# _framework density 20.068781999999999
#
# number of rings (size 3 to 8) (size 9 to 14) (size 15 to 20)
#    0.000    2.500    0.000    2.250    0.000    0.000 
#    0.000   17.500    0.000    0.000    0.000    0.000 
#    0.000    0.000    0.000    0.000    0.000    0.000 
#
# Total GULP energy -178253.492832 kJ/mol
# GULP energy per Si atom -5570.421651 kJ/mol
# Density = 2.002310 g / cm^3
# Si number density = 20.068782 Si / 1000 Ang^3
#
#
#
# Elastic Constant Matrix: (Units=GPa)
#
#
# Indices 1 2 3 4 5 6 
#
# 1 39.7707 29.5196 -10.4204 0.0000 0.0000 0.0000
# 2 29.5196 78.2713 -16.5182 0.0000 0.0000 0.0000
# 3 -10.4204 -16.5182 102.4431 0.0000 0.0000 0.0000
# 4 0.0000 0.0000 0.0000 17.3434 0.0000 0.0000
# 5 0.0000 0.0000 0.0000 0.0000 23.6773 0.0000
# 6 0.0000 0.0000 0.0000 0.0000 0.0000 24.6625
#
#
#
# Elastic Compliance Matrix: (Units=1/GPa)
#
#
# Indices 1 2 3 4 5 6 
#
# 1 0.035137 -0.012938 0.001488 0.000000 0.000000 0.000000
# 2 -0.012938 0.017990 0.001585 0.000000 0.000000 0.000000
# 3 0.001488 0.001585 0.010168 0.000000 0.000000 0.000000
# 4 0.000000 0.000000 0.000000 0.057659 0.000000 0.000000
# 5 0.000000 0.000000 0.000000 0.000000 0.042234 0.000000
# 6 0.000000 0.000000 0.000000 0.000000 0.000000 0.040547
#
#
# Mechanical properties :
#
#
# Convention : Reuss Voigt Hill
#
# Bulk Modulus (GPa) = 22.95406 25.07189 24.01297
# Shear Modulus (GPa) = 21.00952 27.66360 24.33656
#
# Velocity S-wave (km/s) = 3.23906 3.71676 3.48610
# Velocity P-wave (km/s) = 5.04491 5.56230 5.30991
#
# Compressibility (1/GPa) = 0.04356528
#
# Stress axis : x y z
#
# Youngs Moduli (GPa) = 28.46014 55.58686 98.34390
#
# Poissons Ratio (x) = 0.71916 -0.14633
# Poissons Ratio (y) = 0.36821 -0.15585
# Poissons Ratio (z) = -0.04235 -0.08809
#
# Static dielectric constant tensor:
#      x y z
#    x 1.680310 0.000000 0.000000 
#    y 0.000000 1.818910 0.000000 
#    z 0.000000 0.000000 1.807310 
# 
# From -- ./inp_files/130.got.cif
#   From: 2010.05.17/outbox.cif.g08.bks.cpg/sg56_1_cif.got.tgz:130.got - 2010.06.03 13:42:01.
