data_PCOD9430697
_publ_section_title
;
Structure prediction by ZEFSAII (Michael W. Deem and Ramdas Pophale) SiO2 
 PCOD9430697
Probable space group: P C C N
;
_chemical_formula_sum "Si O2"
_cell_formula_units_Z 64
_cell_length_a 12.060405
_cell_length_b 7.997218
_cell_length_c 29.475094
_cell_angle_alpha 90.000000
_cell_angle_beta 90.000000
_cell_angle_gamma 90.000000
_cell_volume 2842.863619
_symmetry_space_group_name_H-M "P C C N"
_symmetry_group_IT_number 56
_symmetry_cell_setting 'orthorhombic'
loop_
_space_group_symop_operation_xyz
x,y,z
1/2-x,1/2-y,z
1/2+x,-y,1/2-z
-x,1/2+y,1/2-z
-x,-y,-z
1/2+x,1/2+y,-z
1/2-x,y,1/2+z
x,1/2-y,1/2+z
loop_
_atom_site_type_symbol
_atom_site_label
_atom_site_fract_x
_atom_site_fract_y
_atom_site_fract_z
Si Si1 0.793745 0.084194 0.309986
Si Si2 0.724300 0.449427 0.073588
Si Si3 0.355644 0.376596 0.604214
Si Si4 0.478635 0.560904 0.098432
Si Si5 0.437309 0.430720 0.374629
Si Si6 0.724898 0.055209 0.469594
Si Si7 0.520009 0.714662 0.720488
Si Si8 0.070032 0.448714 0.695244
O O1 0.750000 0.250000 0.335920
O O2 0.894392 0.146344 0.280627
O O3 0.687887 0.011445 0.285642
O O4 0.829995 0.956855 0.347304
O O5 0.750000 0.250000 0.076286
O O6 0.600454 0.488662 0.090315
O O7 0.818112 0.546941 0.102157
O O8 0.724834 0.507259 0.021040
O O9 0.250000 0.250000 0.600577
O O10 0.490126 0.406881 0.609032
O O11 0.324995 0.479415 0.559260
O O12 0.497173 0.758921 0.110013
O O13 0.392032 0.534323 0.057334
O O14 0.427664 0.454776 0.141008
O O15 0.425480 0.396913 0.319917
O O16 0.750000 0.250000 0.471791
O O17 0.518775 0.906535 0.705567
O O18 0.551323 0.708201 0.773186
#
# Coordination Sequence:
#
# PCOD9430697 Si02
#       8
#     8   8   8   8   8   8   8   8
#     4   9  18  37  58  80 117 162 209 251 316 378
#     4  11  27  42  62  97 131 168 213 267 322 380
#     4  11  22  35  64  97 122 157 211 274 311 363
#     4  11  22  43  71  87 128 178 214 256 325 396
#     4  10  23  44  63  90 133 174 211 257 329 392
#     4  11  22  44  67  94 123 167 213 263 322 389
#     4   9  21  36  59  92 117 163 210 258 315 378
#     4  10  20  36  63  88 121 163 209 259 314 376
#
# _framework density 22.512511
#
# number of rings (size 3 to 8) (size 9 to 14) (size 15 to 20)
#    0.000    1.750    2.500    1.875    1.750    5.500 
#    0.000    2.500    0.000    0.000    0.000    0.000 
#    0.000    0.000    0.000    0.000    0.000    0.000 
#
# Total GULP energy -356289.872055 kJ/mol
# GULP energy per Si atom -5567.029251 kJ/mol
# Density = 2.246127 g / cm^3
# Si number density = 22.512511 Si / 1000 Ang^3
#
#
#
# Elastic Constant Matrix: (Units=GPa)
#
#
# Indices 1 2 3 4 5 6 
#
# 1 105.5700 11.5764 50.6148 0.0000 0.0000 0.0000
# 2 11.5764 18.4048 13.4192 0.0000 0.0000 0.0000
# 3 50.6148 13.4192 98.8855 0.0000 0.0000 0.0000
# 4 0.0000 0.0000 0.0000 -0.5347 0.0000 0.0000
# 5 0.0000 0.0000 0.0000 0.0000 16.4701 0.0000
# 6 0.0000 0.0000 0.0000 0.0000 0.0000 30.9083
#
#
#
# Elastic Compliance Matrix: (Units=1/GPa)
#
#
# Indices 1 2 3 4 5 6 
#
# 1 0.012767 -0.003624 -0.006043 0.000000 0.000000 0.000000
# 2 -0.003624 0.061329 -0.006467 0.000000 0.000000 0.000000
# 3 -0.006043 -0.006467 0.014084 0.000000 0.000000 0.000000
# 4 0.000000 0.000000 0.000000 -1.870166 0.000000 0.000000
# 5 0.000000 0.000000 0.000000 0.000000 0.060716 0.000000
# 6 0.000000 0.000000 0.000000 0.000000 0.000000 0.032354
#
#
# Mechanical properties :
#
#
# Convention : Reuss Voigt Hill
#
# Bulk Modulus (GPa) = 17.88596 41.56458 29.72527
# Shear Modulus (GPa) = -3.05248 19.18539 8.06646
#
# Velocity S-wave (km/s) = -1.16570 2.92243 1.89496
# Velocity P-wave (km/s) = 2.47999 5.46721 4.24504
#
# Compressibility (1/GPa) = 0.05590978
#
# Stress axis : x y z
#
# Youngs Moduli (GPa) = 78.32626 16.30555 71.00498
#
# Poissons Ratio (x) = 0.05910 0.42909
# Poissons Ratio (y) = 0.28388 0.45922
# Poissons Ratio (z) = 0.47333 0.10546
#
# Static dielectric constant tensor:
#      x y z
#    x 1.899390 0.000000 0.000000 
#    y 0.000000 1.976580 0.000000 
#    z 0.000000 0.000000 1.827560 
# 
# From -- ./inp_files/23525.got.cif
#   From: 2010.05.17/outbox.cif.g08.bks.cpg/sg56_12_cif.got.tgz:23525.got - 2010.06.03 13:42:01.
