data_PCOD9430764
_publ_section_title
;
Structure prediction by ZEFSAII (Michael W. Deem and Ramdas Pophale) SiO2 
 PCOD9430764
Probable space group: P C C N
;
_chemical_formula_sum "Si O2"
_cell_formula_units_Z 48
_cell_length_a 9.994430
_cell_length_b 11.574910
_cell_length_c 18.419687
_cell_angle_alpha 90.000000
_cell_angle_beta 90.000000
_cell_angle_gamma 90.000000
_cell_volume 2130.874634
_symmetry_space_group_name_H-M "P C C N"
_symmetry_group_IT_number 56
_symmetry_cell_setting 'orthorhombic'
loop_
_space_group_symop_operation_xyz
x,y,z
1/2-x,1/2-y,z
1/2+x,-y,1/2-z
-x,1/2+y,1/2-z
-x,-y,-z
1/2+x,1/2+y,-z
1/2-x,y,1/2+z
x,1/2-y,1/2+z
loop_
_atom_site_type_symbol
_atom_site_label
_atom_site_fract_x
_atom_site_fract_y
_atom_site_fract_z
Si Si1 0.750000 0.750000 0.370143
Si Si2 0.106939 0.859444 0.260512
Si Si3 0.595096 0.665554 0.495669
Si Si4 0.250000 0.250000 0.374904
Si Si5 0.805614 0.930857 0.249357
Si Si6 0.793340 0.418207 0.991230
Si Si7 0.750000 0.250000 0.610544
Si Si8 0.750000 0.250000 0.361373
O O1 0.627217 0.740710 0.425521
O O2 0.747882 0.859360 0.317428
O O3 0.133406 0.791065 0.334929
O O4 0.125490 0.772177 0.192885
O O5 0.966171 0.925636 0.258701
O O6 0.230910 0.948087 0.254435
O O7 0.627208 0.729967 0.570271
O O8 0.445515 0.621866 0.494836
O O9 0.696796 0.555742 0.492086
O O10 0.270405 0.140853 0.322989
O O11 0.755938 0.360123 0.914821
O O12 0.714062 0.356149 0.056615
#
# Coordination Sequence:
#
# PCOD9430764 Si02
#       8
#     4   8   8   4   8   8   4   4
#     4  10  22  38  60  90 124 162 206 256 312 372
#     4  11  24  41  63  91 125 166 211 260 314 374
#     4  10  20  37  61  88 120 160 203 250 308 373
#     4  10  22  38  58  88 124 158 200 254 310 366
#     4  11  24  41  63  91 125 166 211 260 314 374
#     4  10  20  37  61  88 120 160 203 250 308 373
#     4  10  22  38  60  90 124 162 206 256 312 372
#     4  10  22  38  58  88 124 158 200 254 310 366
#
# _framework density 22.525963999999998
#
# number of rings (size 3 to 8) (size 9 to 14) (size 15 to 20)
#    0.000    1.667    0.000    4.000    0.000   10.667 
#    0.000    0.000    0.000   14.000    0.000    0.000 
#    0.000    0.000    0.000    0.000    0.000    0.000 
#
# Total GULP energy -268293.755779 kJ/mol
# GULP energy per Si atom -5589.453245 kJ/mol
# Density = 2.247469 g / cm^3
# Si number density = 22.525964 Si / 1000 Ang^3
#
#
#
# Elastic Constant Matrix: (Units=GPa)
#
#
# Indices 1 2 3 4 5 6 
#
# 1 81.5707 32.7739 38.2244 0.0000 0.0000 0.0000
# 2 32.7739 69.5587 46.8148 0.0000 0.0000 0.0000
# 3 38.2244 46.8148 179.0931 0.0000 0.0000 0.0000
# 4 0.0000 0.0000 0.0000 12.0604 0.0000 0.0000
# 5 0.0000 0.0000 0.0000 0.0000 -13.8049 0.0000
# 6 0.0000 0.0000 0.0000 0.0000 0.0000 30.2934
#
#
#
# Elastic Compliance Matrix: (Units=1/GPa)
#
#
# Indices 1 2 3 4 5 6 
#
# 1 0.015538 -0.006176 -0.001702 0.000000 0.000000 0.000000
# 2 -0.006176 0.019900 -0.003884 0.000000 0.000000 0.000000
# 3 -0.001702 -0.003884 0.006962 0.000000 0.000000 0.000000
# 4 0.000000 0.000000 0.000000 0.082916 0.000000 0.000000
# 5 0.000000 0.000000 0.000000 0.000000 -0.072438 0.000000
# 6 0.000000 0.000000 0.000000 0.000000 0.000000 0.033011
#
#
# Mechanical properties :
#
#
# Convention : Reuss Voigt Hill
#
# Bulk Modulus (GPa) = 52.97313 62.87209 57.92261
# Shear Modulus (GPa) = 43.21362 19.87039 31.54201
#
# Velocity S-wave (km/s) = 4.38470 2.97326 3.74605
# Velocity P-wave (km/s) = 7.01439 6.30544 6.66934
#
# Compressibility (1/GPa) = 0.01887749
#
# Stress axis : x y z
#
# Youngs Moduli (GPa) = 64.35767 50.25141 143.63322
#
# Poissons Ratio (x) = 0.31033 0.24447
# Poissons Ratio (y) = 0.39744 0.55784
# Poissons Ratio (z) = 0.10954 0.19516
#
# Static dielectric constant tensor:
#      x y z
#    x 1.846280 0.000000 0.000000 
#    y 0.000000 1.844970 0.000000 
#    z 0.000000 0.000000 1.826960 
# 
# From -- ./inp_files/15658.got.cif
#   From: 2010.05.17/outbox.cif.g08.bks.cpg/sg56_8_cif.got.tgz:15658.got - 2010.06.03 13:42:01.
