data_PCOD9430006
_publ_section_title
;
Structure prediction by ZEFSAII (Michael W. Deem and Ramdas Pophale) SiO2 
 PCOD9430006
Probable space group: P C C N
;
_chemical_formula_sum "Si O2"
_cell_formula_units_Z 52
_cell_length_a 19.991741
_cell_length_b 5.737864
_cell_length_c 19.911053
_cell_angle_alpha 90.000000
_cell_angle_beta 90.000000
_cell_angle_gamma 90.000000
_cell_volume 2283.994719
_symmetry_space_group_name_H-M "P C C N"
_symmetry_group_IT_number 56
_symmetry_cell_setting 'orthorhombic'
loop_
_space_group_symop_operation_xyz
x,y,z
1/2-x,1/2-y,z
1/2+x,-y,1/2-z
-x,1/2+y,1/2-z
-x,-y,-z
1/2+x,1/2+y,-z
1/2-x,y,1/2+z
x,1/2-y,1/2+z
loop_
_atom_site_type_symbol
_atom_site_label
_atom_site_fract_x
_atom_site_fract_y
_atom_site_fract_z
Si Si1 0.385818 0.777473 0.834150
Si Si2 0.865558 0.470520 0.908206
Si Si3 0.045534 0.264682 0.693838
Si Si4 0.018613 0.751524 0.033634
Si Si5 0.413284 0.283057 0.851149
Si Si6 0.159234 0.894609 0.193669
Si Si7 0.250000 0.250000 0.114993
O O1 0.465929 0.758208 0.814597
O O2 0.374944 0.524531 0.866941
O O3 0.339515 0.805385 0.769089
O O4 0.379158 0.033381 0.866643
O O5 0.921580 0.607972 0.864788
O O6 0.902565 0.289747 0.956239
O O7 0.827685 0.321109 0.853047
O O8 0.807392 0.639084 0.932426
O O9 0.068386 0.207299 0.770809
O O10 0.083164 0.510488 0.684009
O O11 0.978525 0.771526 0.102947
O O12 0.000000 0.500000 0.000000
O O13 0.000000 0.000000 0.000000
O O14 0.206095 0.096980 0.166895
#
# Coordination Sequence:
#
# PCOD9430006 Si02
#       7
#     8   8   8   8   8   8   4
#     4  11  19  31  57  92 125 166 198 252 330 409
#     4  11  21  41  62  92 135 171 224 272 348 429
#     4  10  19  31  59  94 125 168 199 265 334 421
#     4  12  27  42  61  94 138 181 224 290 342 403
#     4  11  20  35  55  88 126 167 208 250 336 402
#     4  10  21  34  59  95 134 166 218 261 341 417
#     4  10  24  38  62  92 136 182 218 284 344 414
#
# _framework density 22.767126000000001
#
# number of rings (size 3 to 8) (size 9 to 14) (size 15 to 20)
#    0.000    1.231    3.077    5.077    4.308    0.000 
#    0.000    0.000    0.000    0.000    0.000   23.692 
#    0.000    0.000    0.000    0.000    0.000    0.000 
#
# Total GULP energy -289669.095006 kJ/mol
# GULP energy per Si atom -5570.559519 kJ/mol
# Density = 2.271531 g / cm^3
# Si number density = 22.767126 Si / 1000 Ang^3
#
#
#
# Elastic Constant Matrix: (Units=GPa)
#
#
# Indices 1 2 3 4 5 6 
#
# 1 63.2366 27.5788 17.3491 0.0000 0.0000 0.0000
# 2 27.5788 163.6007 21.6467 0.0000 0.0000 0.0000
# 3 17.3491 21.6467 32.9797 0.0000 0.0000 0.0000
# 4 0.0000 0.0000 0.0000 32.9049 0.0000 0.0000
# 5 0.0000 0.0000 0.0000 0.0000 -29.1482 0.0000
# 6 0.0000 0.0000 0.0000 0.0000 0.0000 21.4759
#
#
#
# Elastic Compliance Matrix: (Units=1/GPa)
#
#
# Indices 1 2 3 4 5 6 
#
# 1 0.019100 -0.002070 -0.008689 0.000000 0.000000 0.000000
# 2 -0.002070 0.006918 -0.003452 0.000000 0.000000 0.000000
# 3 -0.008689 -0.003452 0.037158 0.000000 0.000000 0.000000
# 4 0.000000 0.000000 0.000000 0.030391 0.000000 0.000000
# 5 0.000000 0.000000 0.000000 0.000000 -0.034307 0.000000
# 6 0.000000 0.000000 0.000000 0.000000 0.000000 0.046564
#
#
# Mechanical properties :
#
#
# Convention : Reuss Voigt Hill
#
# Bulk Modulus (GPa) = 28.77305 43.66290 36.21797
# Shear Modulus (GPa) = 34.28639 17.92935 26.10787
#
# Velocity S-wave (km/s) = 3.88488 2.80931 3.39002
# Velocity P-wave (km/s) = 5.72612 5.45368 5.59156
#
# Compressibility (1/GPa) = 0.03475474
#
# Stress axis : x y z
#
# Youngs Moduli (GPa) = 52.35520 144.54761 26.91196
#
# Poissons Ratio (x) = 0.29923 0.23384
# Poissons Ratio (y) = 0.10838 0.09289
# Poissons Ratio (z) = 0.45491 0.49895
#
# Static dielectric constant tensor:
#      x y z
#    x 1.888430 0.000000 0.000000 
#    y 0.000000 2.021560 0.000000 
#    z 0.000000 0.000000 1.564280 
# 
# From -- ./inp_files/19467.got.cif
#   From: 2010.05.17/outbox.cif.g08.bks.cpg/sg56_10_cif.got.tgz:19467.got - 2010.06.03 13:42:01.
