data_PCOD9430955
_publ_section_title
;
Structure prediction by ZEFSAII (Michael W. Deem and Ramdas Pophale) SiO2 
 PCOD9430955
Probable space group: P C C N
;
_chemical_formula_sum "Si O2"
_cell_formula_units_Z 56
_cell_length_a 19.906957
_cell_length_b 7.405216
_cell_length_c 15.525260
_cell_angle_alpha 90.000000
_cell_angle_beta 90.000000
_cell_angle_gamma 90.000000
_cell_volume 2288.661116
_symmetry_space_group_name_H-M "P C C N"
_symmetry_group_IT_number 56
_symmetry_cell_setting 'orthorhombic'
loop_
_space_group_symop_operation_xyz
x,y,z
1/2-x,1/2-y,z
1/2+x,-y,1/2-z
-x,1/2+y,1/2-z
-x,-y,-z
1/2+x,1/2+y,-z
1/2-x,y,1/2+z
x,1/2-y,1/2+z
loop_
_atom_site_type_symbol
_atom_site_label
_atom_site_fract_x
_atom_site_fract_y
_atom_site_fract_z
Si Si1 0.425448 0.424644 0.583191
Si Si2 0.750000 0.750000 0.563368
Si Si3 0.598646 0.832977 0.575298
Si Si4 0.750000 0.250000 0.774140
Si Si5 0.603670 0.197211 0.205971
Si Si6 0.890832 0.246934 0.013314
Si Si7 0.517242 0.941744 0.734955
Si Si8 0.717732 0.461009 0.426134
O O1 0.426806 0.289872 0.503118
O O2 0.436720 0.630540 0.549394
O O3 0.533464 0.620596 0.332504
O O4 0.346832 0.426517 0.607207
O O5 0.674985 0.771677 0.603776
O O6 0.748623 0.576614 0.501471
O O7 0.549742 0.828625 0.657430
O O8 0.597958 0.038513 0.536072
O O9 0.818682 0.285615 0.969385
O O10 0.743552 0.417014 0.839812
O O11 0.604753 0.152548 0.105114
O O12 0.564099 0.052788 0.265115
O O13 0.558169 0.372503 0.225762
O O14 0.680362 0.250242 0.224837
#
# Coordination Sequence:
#
# PCOD9430955 Si02
#       8
#     8   4   8   4   8   8   8   8
#     4   9  21  47  70 103 146 196 247 308 377 449
#     4  10  20  38  72 104 142 196 250 320 372 448
#     4  10  22  43  71 110 148 194 256 309 382 449
#     4  12  22  46  72 108 142 200 254 314 370 464
#     4  11  26  46  73 107 153 197 254 310 386 442
#     4   9  21  44  71 100 142 200 240 312 367 458
#     4  11  25  50  68 109 155 189 252 317 371 466
#     4   9  20  40  67 103 137 187 254 299 370 450
#
# _framework density 24.468454999999999
#
# number of rings (size 3 to 8) (size 9 to 14) (size 15 to 20)
#    0.857    1.143    1.429    0.857    2.000    3.429 
#   12.857    4.286    0.000    0.000    0.000    0.000 
#    0.000    0.000    0.000    0.000    0.000    0.000 
#
# Total GULP energy -312347.812206 kJ/mol
# GULP energy per Si atom -5577.639504 kJ/mol
# Density = 2.441276 g / cm^3
# Si number density = 24.468455 Si / 1000 Ang^3
#
#
#
# Elastic Constant Matrix: (Units=GPa)
#
#
# Indices 1 2 3 4 5 6 
#
# 1 114.7745 23.3314 47.9464 0.0000 0.0000 0.0000
# 2 23.3314 89.4617 29.5186 0.0000 0.0000 0.0000
# 3 47.9464 29.5186 128.9442 0.0000 0.0000 0.0000
# 4 0.0000 0.0000 0.0000 -40.7560 0.0000 0.0000
# 5 0.0000 0.0000 0.0000 0.0000 25.0977 0.0000
# 6 0.0000 0.0000 0.0000 0.0000 0.0000 25.6433
#
#
#
# Elastic Compliance Matrix: (Units=1/GPa)
#
#
# Indices 1 2 3 4 5 6 
#
# 1 0.010515 -0.001571 -0.003550 0.000000 0.000000 0.000000
# 2 -0.001571 0.012326 -0.002238 0.000000 0.000000 0.000000
# 3 -0.003550 -0.002238 0.009588 0.000000 0.000000 0.000000
# 4 0.000000 0.000000 0.000000 -0.024536 0.000000 0.000000
# 5 0.000000 0.000000 0.000000 0.000000 0.039844 0.000000
# 6 0.000000 0.000000 0.000000 0.000000 0.000000 0.038997
#
#
# Mechanical properties :
#
#
# Convention : Reuss Voigt Hill
#
# Bulk Modulus (GPa) = 56.46147 59.41925 57.94036
# Shear Modulus (GPa) = 46.57448 17.48925 32.03186
#
# Velocity S-wave (km/s) = 4.36759 2.67641 3.62209
# Velocity P-wave (km/s) = 6.96848 5.82131 6.42057
#
# Compressibility (1/GPa) = 0.01771119
#
# Stress axis : x y z
#
# Youngs Moduli (GPa) = 95.10036 81.12956 104.30030
#
# Poissons Ratio (x) = 0.12744 0.37030
# Poissons Ratio (y) = 0.14939 0.23338
# Poissons Ratio (z) = 0.33764 0.18154
#
# Static dielectric constant tensor:
#      x y z
#    x 2.101200 0.000000 0.000000 
#    y 0.000000 1.596050 0.000000 
#    z 0.000000 0.000000 1.885810 
# 
# From -- ./inp_files/13110.got.cif
#   From: 2010.05.17/outbox.cif.g08.bks.cpg/sg56_7_cif.got.tgz:13110.got - 2010.06.03 13:42:01.
