data_PCOD9430001
_publ_section_title
;
Structure prediction by ZEFSAII (Michael W. Deem and Ramdas Pophale) SiO2 
 PCOD9430001
Probable space group: P C C N
;
_chemical_formula_sum "Si O2"
_cell_formula_units_Z 64
_cell_length_a 19.726046
_cell_length_b 12.187464
_cell_length_c 15.141769
_cell_angle_alpha 90.000000
_cell_angle_beta 90.000000
_cell_angle_gamma 90.000000
_cell_volume 3640.239885
_symmetry_space_group_name_H-M "P C C N"
_symmetry_group_IT_number 56
_symmetry_cell_setting 'orthorhombic'
loop_
_space_group_symop_operation_xyz
x,y,z
1/2-x,1/2-y,z
1/2+x,-y,1/2-z
-x,1/2+y,1/2-z
-x,-y,-z
1/2+x,1/2+y,-z
1/2-x,y,1/2+z
x,1/2-y,1/2+z
loop_
_atom_site_type_symbol
_atom_site_label
_atom_site_fract_x
_atom_site_fract_y
_atom_site_fract_z
Si Si1 0.069518 0.502577 0.443573
Si Si2 0.605750 0.724543 0.008244
Si Si3 0.433711 0.713036 0.690477
Si Si4 0.907637 0.850927 0.686393
Si Si5 0.915331 0.971414 0.261336
Si Si6 0.557652 0.242662 0.511570
Si Si7 0.940232 0.400897 0.168743
Si Si8 0.171643 0.278316 0.172876
O O1 0.116849 0.406546 0.482051
O O2 0.060859 0.470099 0.341001
O O3 0.088847 0.629943 0.450464
O O4 0.000000 0.500000 0.500000
O O5 0.524816 0.735530 0.989584
O O6 0.647244 0.774676 0.928068
O O7 0.619027 0.787205 0.099989
O O8 0.514222 0.686603 0.697698
O O9 0.399963 0.597506 0.715733
O O10 0.420077 0.742113 0.589064
O O11 0.419661 0.813875 0.755711
O O12 0.869127 0.813885 0.773298
O O13 0.905644 0.981097 0.675069
O O14 0.852976 0.891534 0.281908
O O15 0.979483 0.926818 0.317513
O O16 0.573276 0.343520 0.575441
O O17 0.250000 0.250000 0.179726
#
# Coordination Sequence:
#
# PCOD9430001 Si02
#       8
#     8   8   8   8   8   8   8   8
#     4  10  19  32  55  83 119 149 179 226 295 354
#     4  10  20  36  52  81 115 149 187 226 278 340
#     4  10  20  32  56  89 119 147 173 229 300 342
#     4  10  22  35  56  82 117 149 184 235 284 342
#     4  11  20  36  55  80 122 154 185 236 279 348
#     4  10  19  31  53  89 116 144 172 219 296 361
#     4  11  19  32  56  86 119 143 175 229 301 342
#     4  12  25  40  57  79 113 161 201 234 274 327
#
# _framework density 17.58126
#
# number of rings (size 3 to 8) (size 9 to 14) (size 15 to 20)
#    0.000    1.500    5.000    1.500    8.750    2.000 
#    0.000    0.000    0.000    0.750    0.000    1.750 
#    0.000    0.000    0.000    0.000    0.000    0.000 
#
# Total GULP energy -357008.113451 kJ/mol
# GULP energy per Si atom -5578.251773 kJ/mol
# Density = 1.754124 g / cm^3
# Si number density = 17.581260 Si / 1000 Ang^3
#
#
#
# Elastic Constant Matrix: (Units=GPa)
#
#
# Indices 1 2 3 4 5 6 
#
# 1 26.7503 12.2185 12.1594 0.0000 0.0000 0.0000
# 2 12.2185 114.8942 11.2744 0.0000 0.0000 0.0000
# 3 12.1594 11.2744 61.9741 0.0000 0.0000 0.0000
# 4 0.0000 0.0000 0.0000 33.9036 0.0000 0.0000
# 5 0.0000 0.0000 0.0000 0.0000 8.4579 0.0000
# 6 0.0000 0.0000 0.0000 0.0000 0.0000 9.5571
#
#
#
# Elastic Compliance Matrix: (Units=1/GPa)
#
#
# Indices 1 2 3 4 5 6 
#
# 1 0.042594 -0.003777 -0.007670 0.000000 0.000000 0.000000
# 2 -0.003777 0.009197 -0.000932 0.000000 0.000000 0.000000
# 3 -0.007670 -0.000932 0.017810 0.000000 0.000000 0.000000
# 4 0.000000 0.000000 0.000000 0.029495 0.000000 0.000000
# 5 0.000000 0.000000 0.000000 0.000000 0.118233 0.000000
# 6 0.000000 0.000000 0.000000 0.000000 0.000000 0.104634
#
#
# Mechanical properties :
#
#
# Convention : Reuss Voigt Hill
#
# Bulk Modulus (GPa) = 22.29989 30.54701 26.42345
# Shear Modulus (GPa) = 13.82478 21.58148 17.70313
#
# Velocity S-wave (km/s) = 2.80721 3.50741 3.17666
# Velocity P-wave (km/s) = 4.81858 5.81507 5.34012
#
# Compressibility (1/GPa) = 0.04484326
#
# Stress axis : x y z
#
# Youngs Moduli (GPa) = 23.47730 108.73356 56.14770
#
# Poissons Ratio (x) = 0.41069 0.43065
# Poissons Ratio (y) = 0.08868 0.05233
# Poissons Ratio (z) = 0.18007 0.10134
#
# Static dielectric constant tensor:
#      x y z
#    x 1.622660 0.000000 0.000000 
#    y 0.000000 1.632750 0.000000 
#    z 0.000000 0.000000 1.741080 
# 
# From -- ./inp_files/12845.got.cif
#   From: 2010.05.17/outbox.cif.g08.bks.cpg/sg56_7_cif.got.tgz:12845.got - 2010.06.03 13:42:01.
