data_PCOD9430428
_publ_section_title
;
Structure prediction by ZEFSAII (Michael W. Deem and Ramdas Pophale) SiO2 
 PCOD9430428
Probable space group: P C C N
;
_chemical_formula_sum "Si O2"
_cell_formula_units_Z 48
_cell_length_a 7.855203
_cell_length_b 14.461436
_cell_length_c 19.560757
_cell_angle_alpha 90.000000
_cell_angle_beta 90.000000
_cell_angle_gamma 90.000000
_cell_volume 2222.053396
_symmetry_space_group_name_H-M "P C C N"
_symmetry_group_IT_number 56
_symmetry_cell_setting 'orthorhombic'
loop_
_space_group_symop_operation_xyz
x,y,z
1/2-x,1/2-y,z
1/2+x,-y,1/2-z
-x,1/2+y,1/2-z
-x,-y,-z
1/2+x,1/2+y,-z
1/2-x,y,1/2+z
x,1/2-y,1/2+z
loop_
_atom_site_type_symbol
_atom_site_label
_atom_site_fract_x
_atom_site_fract_y
_atom_site_fract_z
Si Si1 0.806517 0.018289 0.479005
Si Si2 0.792766 0.980927 0.128424
Si Si3 0.120048 0.165792 0.056402
Si Si4 0.921764 0.688803 0.172901
Si Si5 0.620964 0.164467 0.687992
Si Si6 0.075522 0.846629 0.088014
O O1 0.714859 0.023730 0.552627
O O2 0.727483 0.928925 0.442226
O O3 0.752810 0.107187 0.434959
O O4 0.000000 0.000000 0.500000
O O5 0.643419 0.905605 0.137548
O O6 0.969087 0.924074 0.130161
O O7 0.786300 0.065238 0.180912
O O8 0.250000 0.250000 0.058276
O O9 0.994591 0.172902 0.120321
O O10 0.024426 0.168934 0.983492
O O11 0.750000 0.750000 0.180749
O O12 0.004423 0.666352 0.245249
O O13 0.051387 0.753437 0.130639
O O14 0.750000 0.250000 0.690518
#
# Coordination Sequence:
#
# PCOD9430428 Si02
#       6
#     8   8   8   8   8   8
#     4  11  22  39  70 111 137 179 239 299 372 436
#     4  10  21  45  66  98 139 186 239 297 358 436
#     4  11  22  41  70 102 143 184 229 302 366 428
#     4  10  24  45  71  99 139 196 246 301 370 443
#     4  12  26  43  65 100 146 192 245 299 365 442
#     4  10  19  44  73  99 141 179 239 303 365 433
#
# _framework density 21.601641999999998
#
# number of rings (size 3 to 8) (size 9 to 14) (size 15 to 20)
#    0.000    1.333    3.333    4.000    2.333    4.000 
#    3.000    2.500    0.000    0.000    0.000    0.000 
#    0.000    0.000    0.000    0.000    0.000    0.000 
#
# Total GULP energy -268389.075977 kJ/mol
# GULP energy per Si atom -5591.439083 kJ/mol
# Density = 2.155248 g / cm^3
# Si number density = 21.601642 Si / 1000 Ang^3
#
#
#
# Elastic Constant Matrix: (Units=GPa)
#
#
# Indices 1 2 3 4 5 6 
#
# 1 93.8084 56.6468 18.7065 0.0000 0.0000 0.0000
# 2 56.6468 152.2233 60.4483 0.0000 0.0000 0.0000
# 3 18.7065 60.4483 81.9575 0.0000 0.0000 0.0000
# 4 0.0000 0.0000 0.0000 27.5280 0.0000 0.0000
# 5 0.0000 0.0000 0.0000 0.0000 20.1524 0.0000
# 6 0.0000 0.0000 0.0000 0.0000 0.0000 42.9232
#
#
#
# Elastic Compliance Matrix: (Units=1/GPa)
#
#
# Indices 1 2 3 4 5 6 
#
# 1 0.013797 -0.005492 0.000902 0.000000 0.000000 0.000000
# 2 -0.005492 0.011477 -0.007211 0.000000 0.000000 0.000000
# 3 0.000902 -0.007211 0.017314 0.000000 0.000000 0.000000
# 4 0.000000 0.000000 0.000000 0.036327 0.000000 0.000000
# 5 0.000000 0.000000 0.000000 0.000000 0.049622 0.000000
# 6 0.000000 0.000000 0.000000 0.000000 0.000000 0.023297
#
#
# Mechanical properties :
#
#
# Convention : Reuss Voigt Hill
#
# Bulk Modulus (GPa) = 52.67462 66.62136 59.64799
# Shear Modulus (GPa) = 27.50803 30.93321 29.22062
#
# Velocity S-wave (km/s) = 3.57238 3.78826 3.68190
# Velocity P-wave (km/s) = 6.43842 7.07407 6.76372
#
# Compressibility (1/GPa) = 0.01898448
#
# Stress axis : x y z
#
# Youngs Moduli (GPa) = 72.48090 87.13312 57.75601
#
# Poissons Ratio (x) = 0.47856 -0.05209
# Poissons Ratio (y) = 0.39809 0.41649
# Poissons Ratio (z) = -0.06536 0.62833
#
# Static dielectric constant tensor:
#      x y z
#    x 1.845050 0.000000 0.000000 
#    y 0.000000 1.802630 0.000000 
#    z 0.000000 0.000000 1.747390 
# 
# From -- ./inp_files/14776.got.cif
#   From: 2010.05.17/outbox.cif.g08.bks.cpg/sg56_8_cif.got.tgz:14776.got - 2010.06.03 13:42:01.
