data_PCOD9430876
_publ_section_title
;
Structure prediction by ZEFSAII (Michael W. Deem and Ramdas Pophale) SiO2 
 PCOD9430876
Probable space group: P C C N
;
_chemical_formula_sum "Si O2"
_cell_formula_units_Z 32
_cell_length_a 5.598975
_cell_length_b 12.373154
_cell_length_c 16.374895
_cell_angle_alpha 90.000000
_cell_angle_beta 90.000000
_cell_angle_gamma 90.000000
_cell_volume 1134.403272
_symmetry_space_group_name_H-M "P C C N"
_symmetry_group_IT_number 56
_symmetry_cell_setting 'orthorhombic'
loop_
_space_group_symop_operation_xyz
x,y,z
1/2-x,1/2-y,z
1/2+x,-y,1/2-z
-x,1/2+y,1/2-z
-x,-y,-z
1/2+x,1/2+y,-z
1/2-x,y,1/2+z
x,1/2-y,1/2+z
loop_
_atom_site_type_symbol
_atom_site_label
_atom_site_fract_x
_atom_site_fract_y
_atom_site_fract_z
Si Si1 0.253612 0.985819 0.202722
Si Si2 0.754070 0.514133 0.047771
Si Si3 0.750000 0.250000 0.274111
Si Si4 0.499302 0.163969 0.624779
Si Si5 0.250000 0.250000 0.975276
O O1 0.234281 0.860389 0.175350
O O2 0.509318 0.997903 0.245315
O O3 0.220678 0.081796 0.138082
O O4 0.719576 0.418274 0.112350
O O5 0.500000 0.500000 0.000000
O O6 0.763445 0.639629 0.075255
O O7 0.000000 0.500000 0.000000
O O8 0.961429 0.230563 0.207582
O O9 0.461171 0.230720 0.542007
#
# Coordination Sequence:
#
# PCOD9430876 Si02
#       5
#     8   8   4   8   4
#     4  10  22  38  60  92 120 156 209 249 298 373
#     4  10  22  38  60  90 117 152 205 245 295 370
#     4  10  20  38  64  88 122 162 198 248 304 354
#     4  10  20  38  63  89 122 161 200 253 305 356
#     4  10  20  38  62  86 120 160 196 250 306 352
#
# _framework density 28.208666000000001
#
# number of rings (size 3 to 8) (size 9 to 14) (size 15 to 20)
#    0.000    2.000    0.000    3.000    0.000   12.000 
#    0.000   15.000    0.000    0.000    0.000    0.000 
#    0.000    0.000    0.000    0.000    0.000    0.000 
#
# Total GULP energy -178774.663105 kJ/mol
# GULP energy per Si atom -5586.708222 kJ/mol
# Density = 2.814446 g / cm^3
# Si number density = 28.208666 Si / 1000 Ang^3
#
#
#
# Elastic Constant Matrix: (Units=GPa)
#
#
# Indices 1 2 3 4 5 6 
#
# 1 200.3624 34.2884 51.4785 0.0000 0.0000 0.0000
# 2 34.2884 197.6089 -5.6313 0.0000 0.0000 0.0000
# 3 51.4785 -5.6313 48.8679 0.0000 0.0000 0.0000
# 4 0.0000 0.0000 0.0000 19.2037 0.0000 0.0000
# 5 0.0000 0.0000 0.0000 0.0000 68.2196 0.0000
# 6 0.0000 0.0000 0.0000 0.0000 0.0000 50.6783
#
#
#
# Elastic Compliance Matrix: (Units=1/GPa)
#
#
# Indices 1 2 3 4 5 6 
#
# 1 0.007251 -0.001481 -0.007809 0.000000 0.000000 0.000000
# 2 -0.001481 0.005380 0.002180 0.000000 0.000000 0.000000
# 3 -0.007809 0.002180 0.028940 0.000000 0.000000 0.000000
# 4 0.000000 0.000000 0.000000 0.052073 0.000000 0.000000
# 5 0.000000 0.000000 0.000000 0.000000 0.014659 0.000000
# 6 0.000000 0.000000 0.000000 0.000000 0.000000 0.019732
#
#
# Mechanical properties :
#
#
# Convention : Reuss Voigt Hill
#
# Bulk Modulus (GPa) = 36.56143 67.45672 52.00908
# Shear Modulus (GPa) = 33.03158 52.06724 42.54941
#
# Velocity S-wave (km/s) = 3.42566 4.30093 3.88800
# Velocity P-wave (km/s) = 5.35127 6.97347 6.21552
#
# Compressibility (1/GPa) = 0.02735122
#
# Stress axis : x y z
#
# Youngs Moduli (GPa) = 137.92054 185.89004 34.55409
#
# Poissons Ratio (x) = 0.27523 0.26982
# Poissons Ratio (y) = 0.20421 -0.07531
# Poissons Ratio (z) = 1.07695 -0.40517
#
# Static dielectric constant tensor:
#      x y z
#    x 2.228810 0.000000 0.000000 
#    y 0.000000 2.239340 0.000000 
#    z 0.000000 0.000000 2.329400 
# 
# From -- ./inp_files/19828.got.cif
#   From: 2010.05.17/outbox.cif.g08.bks.cpg/sg56_10_cif.got.tgz:19828.got - 2010.06.03 13:42:01.
