data_PCOD9430538
_publ_section_title
;
Structure prediction by ZEFSAII (Michael W. Deem and Ramdas Pophale) SiO2 
 PCOD9430538
Probable space group: P C C N
;
_chemical_formula_sum "Si O2"
_cell_formula_units_Z 52
_cell_length_a 8.175803
_cell_length_b 24.226703
_cell_length_c 9.940207
_cell_angle_alpha 90.000000
_cell_angle_beta 90.000000
_cell_angle_gamma 90.000000
_cell_volume 1968.884147
_symmetry_space_group_name_H-M "P C C N"
_symmetry_group_IT_number 56
_symmetry_cell_setting 'orthorhombic'
loop_
_space_group_symop_operation_xyz
x,y,z
1/2-x,1/2-y,z
1/2+x,-y,1/2-z
-x,1/2+y,1/2-z
-x,-y,-z
1/2+x,1/2+y,-z
1/2-x,y,1/2+z
x,1/2-y,1/2+z
loop_
_atom_site_type_symbol
_atom_site_label
_atom_site_fract_x
_atom_site_fract_y
_atom_site_fract_z
Si Si1 0.075801 0.872781 0.955395
Si Si2 0.126543 0.365709 0.308297
Si Si3 0.441264 0.866839 0.961924
Si Si4 0.250000 0.250000 0.812908
Si Si5 0.071071 0.749625 0.867118
Si Si6 0.372394 0.474975 0.106236
Si Si7 0.874187 0.957258 0.607869
O O1 0.260623 0.885915 0.916657
O O2 0.045947 0.809568 0.924031
O O3 0.045709 0.872383 0.114938
O O4 0.939929 0.911728 0.889321
O O5 0.233948 0.313466 0.367216
O O6 0.222166 0.420460 0.343727
O O7 0.080365 0.367197 0.152439
O O8 0.424093 0.799913 0.977181
O O9 0.492147 0.910347 0.074981
O O10 0.417586 0.255128 0.729994
O O11 0.250000 0.750000 0.799307
O O12 0.194885 0.481986 0.033700
O O13 0.500000 0.500000 0.000000
O O14 0.396297 0.495104 0.260006
#
# Coordination Sequence:
#
# PCOD9430538 Si02
#       7
#     8   8   8   4   8   8   8
#     4  10  23  41  65  96 141 177 231 291 347 417
#     4  10  22  38  62 100 131 182 234 273 346 427
#     4  10  22  41  64  99 142 181 225 284 350 413
#     4  10  20  34  62  90 140 188 228 282 350 404
#     4   9  20  38  59  99 139 187 235 280 343 427
#     4  11  26  48  73 101 135 177 236 293 355 415
#     4  11  23  46  70  99 136 179 229 287 343 434
#
# _framework density 26.410900000000002
#
# number of rings (size 3 to 8) (size 9 to 14) (size 15 to 20)
#    0.000    1.846    1.538    0.923   10.769    1.231 
#    5.538    3.846    0.000    0.000    0.000    0.000 
#    0.000    0.000    0.000    0.000    0.000    0.000 
#
# Total GULP energy -290116.259989 kJ/mol
# GULP energy per Si atom -5579.158846 kJ/mol
# Density = 2.635079 g / cm^3
# Si number density = 26.410900 Si / 1000 Ang^3
#
#
#
# Elastic Constant Matrix: (Units=GPa)
#
#
# Indices 1 2 3 4 5 6 
#
# 1 100.6893 14.1762 20.5656 0.0000 0.0000 0.0000
# 2 14.1762 103.0903 20.6502 0.0000 0.0000 0.0000
# 3 20.5656 20.6502 95.5735 0.0000 0.0000 0.0000
# 4 0.0000 0.0000 0.0000 29.4013 0.0000 0.0000
# 5 0.0000 0.0000 0.0000 0.0000 36.1931 0.0000
# 6 0.0000 0.0000 0.0000 0.0000 0.0000 34.2407
#
#
#
# Elastic Compliance Matrix: (Units=1/GPa)
#
#
# Indices 1 2 3 4 5 6 
#
# 1 0.010493 -0.001035 -0.002034 0.000000 0.000000 0.000000
# 2 -0.001035 0.010241 -0.001990 0.000000 0.000000 0.000000
# 3 -0.002034 -0.001990 0.011331 0.000000 0.000000 0.000000
# 4 0.000000 0.000000 0.000000 0.034012 0.000000 0.000000
# 5 0.000000 0.000000 0.000000 0.000000 0.027630 0.000000
# 6 0.000000 0.000000 0.000000 0.000000 0.000000 0.029205
#
#
# Mechanical properties :
#
#
# Convention : Reuss Voigt Hill
#
# Bulk Modulus (GPa) = 45.56686 45.57079 45.56882
# Shear Modulus (GPa) = 35.62624 36.23107 35.92865
#
# Velocity S-wave (km/s) = 3.67675 3.70783 3.69232
# Velocity P-wave (km/s) = 5.94266 5.96847 5.95558
#
# Compressibility (1/GPa) = 0.02194577
#
# Stress axis : x y z
#
# Youngs Moduli (GPa) = 95.30354 97.64446 88.25485
#
# Poissons Ratio (x) = 0.10110 0.17952
# Poissons Ratio (y) = 0.09868 0.17563
# Poissons Ratio (z) = 0.19386 0.19431
#
# Static dielectric constant tensor:
#      x y z
#    x 2.004260 0.000000 0.000000 
#    y 0.000000 1.965990 0.000000 
#    z 0.000000 0.000000 2.284810 
# 
# From -- ./inp_files/6499.got.cif
#   From: 2010.05.17/outbox.cif.g08.bks.cpg/sg56_4_cif.got.tgz:6499.got - 2010.06.03 13:42:01.
