data_PCOD9430798
_publ_section_title
;
Structure prediction by ZEFSAII (Michael W. Deem and Ramdas Pophale) SiO2 
 PCOD9430798
Probable space group: P C C N
;
_chemical_formula_sum "Si O2"
_cell_formula_units_Z 60
_cell_length_a 5.031439
_cell_length_b 18.033635
_cell_length_c 31.004065
_cell_angle_alpha 90.000000
_cell_angle_beta 90.000000
_cell_angle_gamma 90.000000
_cell_volume 2813.158006
_symmetry_space_group_name_H-M "P C C N"
_symmetry_group_IT_number 56
_symmetry_cell_setting 'orthorhombic'
loop_
_space_group_symop_operation_xyz
x,y,z
1/2-x,1/2-y,z
1/2+x,-y,1/2-z
-x,1/2+y,1/2-z
-x,-y,-z
1/2+x,1/2+y,-z
1/2-x,y,1/2+z
x,1/2-y,1/2+z
loop_
_atom_site_type_symbol
_atom_site_label
_atom_site_fract_x
_atom_site_fract_y
_atom_site_fract_z
Si Si1 0.345960 0.175828 0.726288
Si Si2 0.783066 0.833567 0.622848
Si Si3 0.243306 0.882475 0.073912
Si Si4 0.460275 0.393307 0.801585
Si Si5 0.750000 0.250000 0.793072
Si Si6 0.745554 0.051178 0.012262
Si Si7 0.975398 0.462683 0.104462
Si Si8 0.462398 0.449716 0.163669
O O1 0.250000 0.250000 0.701409
O O2 0.129696 0.126985 0.753173
O O3 0.526237 0.215015 0.762373
O O4 0.497053 0.117928 0.696524
O O5 0.750000 0.750000 0.637987
O O6 0.545095 0.868321 0.594066
O O7 0.788013 0.883823 0.665689
O O8 0.042563 0.827768 0.593482
O O9 0.377960 0.960779 0.089294
O O10 0.235490 0.882942 0.022268
O O11 0.642050 0.323516 0.816308
O O12 0.587919 0.473199 0.810060
O O13 0.669365 0.070377 0.061469
O O14 0.500000 0.000000 0.000000
O O15 0.000000 0.000000 0.000000
O O16 0.727406 0.465471 0.136725
O O17 0.219005 0.428237 0.131799
#
# Coordination Sequence:
#
# PCOD9430798 Si02
#       8
#     8   8   8   8   4   8   8   8
#     4  10  26  46  65  93 131 182 229 280 342 409
#     4  12  24  37  60  92 134 179 214 262 330 399
#     4  11  21  40  59  93 131 169 214 266 316 405
#     4  11  25  41  63  95 134 171 226 270 339 391
#     4  10  24  44  64  90 128 180 226 264 340 408
#     4  10  20  37  65  91 128 167 203 261 337 386
#     4  11  22  41  63 104 126 164 217 286 330 388
#     4  12  26  40  71  98 135 167 231 281 336 388
#
# _framework density 21.328341999999999
#
# number of rings (size 3 to 8) (size 9 to 14) (size 15 to 20)
#    0.000    1.067    2.667    4.800   11.200    0.000 
#    0.000    0.000    0.000    4.800    0.000    0.000 
#    0.000    0.000    0.000    0.000    0.000    0.000 
#
# Total GULP energy -334378.392194 kJ/mol
# GULP energy per Si atom -5572.973203 kJ/mol
# Density = 2.127980 g / cm^3
# Si number density = 21.328342 Si / 1000 Ang^3
#
#
#
# Elastic Constant Matrix: (Units=GPa)
#
#
# Indices 1 2 3 4 5 6 
#
# 1 116.4413 9.3376 20.0906 0.0000 0.0000 0.0000
# 2 9.3376 89.4423 42.1909 0.0000 0.0000 0.0000
# 3 20.0906 42.1909 80.8512 0.0000 0.0000 0.0000
# 4 0.0000 0.0000 0.0000 13.4642 0.0000 0.0000
# 5 0.0000 0.0000 0.0000 0.0000 23.6247 0.0000
# 6 0.0000 0.0000 0.0000 0.0000 0.0000 18.4199
#
#
#
# Elastic Compliance Matrix: (Units=1/GPa)
#
#
# Indices 1 2 3 4 5 6 
#
# 1 0.008974 0.000153 -0.002310 0.000000 0.000000 0.000000
# 2 0.000153 0.014834 -0.007779 0.000000 0.000000 0.000000
# 3 -0.002310 -0.007779 0.017001 0.000000 0.000000 0.000000
# 4 0.000000 0.000000 0.000000 0.074271 0.000000 0.000000
# 5 0.000000 0.000000 0.000000 0.000000 0.042329 0.000000
# 6 0.000000 0.000000 0.000000 0.000000 0.000000 0.054289
#
#
# Mechanical properties :
#
#
# Convention : Reuss Voigt Hill
#
# Bulk Modulus (GPa) = 47.75984 47.77476 47.76730
# Shear Modulus (GPa) = 20.96004 25.44279 23.20141
#
# Velocity S-wave (km/s) = 3.13826 3.45760 3.30179
# Velocity P-wave (km/s) = 5.96429 6.19583 6.08116
#
# Compressibility (1/GPa) = 0.02093809
#
# Stress axis : x y z
#
# Youngs Moduli (GPa) = 111.42948 67.41386 58.81839
#
# Poissons Ratio (x) = -0.01029 0.13585
# Poissons Ratio (y) = -0.01700 0.45753
# Poissons Ratio (z) = 0.25736 0.52439
#
# Static dielectric constant tensor:
#      x y z
#    x 1.915080 0.000000 0.000000 
#    y 0.000000 1.806940 0.000000 
#    z 0.000000 0.000000 1.837600 
# 
# From -- ./inp_files/21790.got.cif
#   From: 2010.05.17/outbox.cif.g08.bks.cpg/sg56_11_cif.got.tgz:21790.got - 2010.06.03 13:42:01.
