data_PCOD9430679
_publ_section_title
;
Structure prediction by ZEFSAII (Michael W. Deem and Ramdas Pophale) SiO2 
 PCOD9430679
Probable space group: P C C N
;
_chemical_formula_sum "Si O2"
_cell_formula_units_Z 40
_cell_length_a 15.933264
_cell_length_b 6.821534
_cell_length_c 18.374461
_cell_angle_alpha 90.000000
_cell_angle_beta 90.000000
_cell_angle_gamma 90.000000
_cell_volume 1997.107343
_symmetry_space_group_name_H-M "P C C N"
_symmetry_group_IT_number 56
_symmetry_cell_setting 'orthorhombic'
loop_
_space_group_symop_operation_xyz
x,y,z
1/2-x,1/2-y,z
1/2+x,-y,1/2-z
-x,1/2+y,1/2-z
-x,-y,-z
1/2+x,1/2+y,-z
1/2-x,y,1/2+z
x,1/2-y,1/2+z
loop_
_atom_site_type_symbol
_atom_site_label
_atom_site_fract_x
_atom_site_fract_y
_atom_site_fract_z
Si Si1 0.047190 0.064619 0.096156
Si Si2 0.250000 0.750000 0.008934
Si Si3 0.546457 0.814813 0.037872
Si Si4 0.723334 0.530823 0.858508
Si Si5 0.384587 0.834165 0.886693
Si Si6 0.250000 0.750000 0.764737
O O1 0.122669 0.025363 0.150853
O O2 0.969074 0.202906 0.119027
O O3 0.086458 0.187080 0.027555
O O4 0.012850 0.851267 0.072736
O O5 0.253616 0.571177 0.065265
O O6 0.330644 0.760045 0.956519
O O7 0.599589 0.934471 0.097381
O O8 0.500000 0.000000 0.000000
O O9 0.750000 0.750000 0.860724
O O10 0.767824 0.424790 0.791331
O O11 0.327329 0.800512 0.816761
#
# Coordination Sequence:
#
# PCOD9430679 Si02
#       6
#     8   4   8   8   8   4
#     4  10  20  36  61  94 117 155 211 250 308 382
#     4  10  20  36  64  90 124 158 204 266 314 374
#     4   9  17  32  60  93 121 143 194 257 305 359
#     4  11  23  41  60  87 125 165 204 258 320 378
#     4  10  21  40  62  89 124 163 206 263 317 369
#     4  10  26  44  54  88 130 164 212 256 314 394
#
# _framework density 20.028969
#
# number of rings (size 3 to 8) (size 9 to 14) (size 15 to 20)
#    0.000    2.000    0.000    4.800    0.000    6.400 
#    7.200    4.000    0.000    0.000    0.000    0.000 
#    0.000    0.000    0.000    0.000    0.000    0.000 
#
# Total GULP energy -223009.099550 kJ/mol
# GULP energy per Si atom -5575.227489 kJ/mol
# Density = 1.998338 g / cm^3
# Si number density = 20.028969 Si / 1000 Ang^3
#
#
#
# Elastic Constant Matrix: (Units=GPa)
#
#
# Indices 1 2 3 4 5 6 
#
# 1 33.9154 -3.2025 18.4977 0.0000 0.0000 0.0000
# 2 -3.2025 143.6076 41.8025 0.0000 0.0000 0.0000
# 3 18.4977 41.8025 96.6429 0.0000 0.0000 0.0000
# 4 0.0000 0.0000 0.0000 -29.7108 0.0000 0.0000
# 5 0.0000 0.0000 0.0000 0.0000 27.5636 0.0000
# 6 0.0000 0.0000 0.0000 0.0000 0.0000 29.0018
#
#
#
# Elastic Compliance Matrix: (Units=1/GPa)
#
#
# Indices 1 2 3 4 5 6 
#
# 1 0.034043 0.003038 -0.007830 0.000000 0.000000 0.000000
# 2 0.003038 0.008238 -0.004145 0.000000 0.000000 0.000000
# 3 -0.007830 -0.004145 0.013639 0.000000 0.000000 0.000000
# 4 0.000000 0.000000 0.000000 -0.033658 0.000000 0.000000
# 5 0.000000 0.000000 0.000000 0.000000 0.036280 0.000000
# 6 0.000000 0.000000 0.000000 0.000000 0.000000 0.034481
#
#
# Mechanical properties :
#
#
# Convention : Reuss Voigt Hill
#
# Bulk Modulus (GPa) = 26.28375 43.15127 34.71751
# Shear Modulus (GPa) = 40.46075 19.84215 30.15145
#
# Velocity S-wave (km/s) = 4.49944 3.15091 3.88415
# Velocity P-wave (km/s) = 6.33598 5.90160 6.12264
#
# Compressibility (1/GPa) = 0.03804632
#
# Stress axis : x y z
#
# Youngs Moduli (GPa) = 29.37493 121.39379 73.31997
#
# Poissons Ratio (x) = -0.36884 0.57410
# Poissons Ratio (y) = -0.08925 0.30389
# Poissons Ratio (z) = 0.23001 0.50314
#
# Static dielectric constant tensor:
#      x y z
#    x 1.774740 0.000000 0.000000 
#    y 0.000000 1.695230 0.000000 
#    z 0.000000 0.000000 1.723720 
# 
# From -- ./inp_files/13877.got.cif
#   From: 2010.05.17/outbox.cif.g08.bks.cpg/sg56_7_cif.got.tgz:13877.got - 2010.06.03 13:42:01.
