data_PCOD9430314
_publ_section_title
;
Structure prediction by ZEFSAII (Michael W. Deem and Ramdas Pophale) SiO2 
 PCOD9430314
Probable space group: P C C N
;
_chemical_formula_sum "Si O2"
_cell_formula_units_Z 48
_cell_length_a 8.944087
_cell_length_b 12.825265
_cell_length_c 18.523168
_cell_angle_alpha 90.000000
_cell_angle_beta 90.000000
_cell_angle_gamma 90.000000
_cell_volume 2124.797898
_symmetry_space_group_name_H-M "P C C N"
_symmetry_group_IT_number 56
_symmetry_cell_setting 'orthorhombic'
loop_
_space_group_symop_operation_xyz
x,y,z
1/2-x,1/2-y,z
1/2+x,-y,1/2-z
-x,1/2+y,1/2-z
-x,-y,-z
1/2+x,1/2+y,-z
1/2-x,y,1/2+z
x,1/2-y,1/2+z
loop_
_atom_site_type_symbol
_atom_site_label
_atom_site_fract_x
_atom_site_fract_y
_atom_site_fract_z
Si Si1 0.627480 0.587091 0.483015
Si Si2 0.350918 0.948824 0.795260
Si Si3 0.575231 0.278693 0.987096
Si Si4 0.164725 0.992836 0.663413
Si Si5 0.637326 0.475005 0.081573
Si Si6 0.423071 0.635822 0.156539
O O1 0.500000 0.500000 0.500000
O O2 0.541117 0.695829 0.482636
O O3 0.687164 0.570611 0.402170
O O4 0.759424 0.559098 0.538984
O O5 0.490195 0.014790 0.822740
O O6 0.250162 0.013732 0.738487
O O7 0.420515 0.858195 0.743256
O O8 0.248991 0.916985 0.862074
O O9 0.750000 0.250000 0.996032
O O10 0.568332 0.391838 0.025953
O O11 0.530557 0.281996 0.902355
O O12 0.248907 0.888197 0.639366
O O13 0.516501 0.533965 0.131324
#
# Coordination Sequence:
#
# PCOD9430314 Si02
#       6
#     8   8   8   8   8   8
#     4  12  23  40  71  95 138 179 233 290 334 413
#     4  10  19  37  71  92 133 183 218 270 357 408
#     4  12  24  41  67 104 129 182 232 275 349 410
#     4  10  19  39  65  98 128 184 218 277 349 408
#     4  12  22  43  70 100 136 178 230 289 343 412
#     4  10  22  41  66  98 135 172 224 280 346 409
#
# _framework density 22.590384
#
# number of rings (size 3 to 8) (size 9 to 14) (size 15 to 20)
#    1.000    0.000    6.667    0.500    0.000    0.667 
#    0.000    2.500    0.000    0.000    0.000    0.000 
#    0.000    0.000    0.000    0.000    0.000    0.000 
#
# Total GULP energy -267504.489496 kJ/mol
# GULP energy per Si atom -5573.010198 kJ/mol
# Density = 2.253897 g / cm^3
# Si number density = 22.590384 Si / 1000 Ang^3
#
#
#
# Elastic Constant Matrix: (Units=GPa)
#
#
# Indices 1 2 3 4 5 6 
#
# 1 75.4977 7.8369 30.0857 0.0000 0.0000 0.0000
# 2 7.8369 33.4549 7.2832 0.0000 0.0000 0.0000
# 3 30.0857 7.2832 125.3785 0.0000 0.0000 0.0000
# 4 0.0000 0.0000 0.0000 13.4048 0.0000 0.0000
# 5 0.0000 0.0000 0.0000 0.0000 51.2264 0.0000
# 6 0.0000 0.0000 0.0000 0.0000 0.0000 25.5092
#
#
#
# Elastic Compliance Matrix: (Units=1/GPa)
#
#
# Indices 1 2 3 4 5 6 
#
# 1 0.014891 -0.002745 -0.003414 0.000000 0.000000 0.000000
# 2 -0.002745 0.030780 -0.001129 0.000000 0.000000 0.000000
# 3 -0.003414 -0.001129 0.008861 0.000000 0.000000 0.000000
# 4 0.000000 0.000000 0.000000 0.074600 0.000000 0.000000
# 5 0.000000 0.000000 0.000000 0.000000 0.019521 0.000000
# 6 0.000000 0.000000 0.000000 0.000000 0.000000 0.039202
#
#
# Mechanical properties :
#
#
# Convention : Reuss Voigt Hill
#
# Bulk Modulus (GPa) = 25.02805 36.08251 30.55528
# Shear Modulus (GPa) = 23.17511 30.63642 26.90577
#
# Velocity S-wave (km/s) = 3.20642 3.68662 3.45487
# Velocity P-wave (km/s) = 4.98109 5.84198 5.42863
#
# Compressibility (1/GPa) = 0.03995516
#
# Stress axis : x y z
#
# Youngs Moduli (GPa) = 67.15582 32.48873 112.85917
#
# Poissons Ratio (x) = 0.08918 0.38527
# Poissons Ratio (y) = 0.18435 0.12745
# Poissons Ratio (z) = 0.22925 0.03669
#
# Static dielectric constant tensor:
#      x y z
#    x 1.859100 0.000000 0.000000 
#    y 0.000000 1.902220 0.000000 
#    z 0.000000 0.000000 1.887260 
# 
# From -- ./inp_files/20476.got.cif
#   From: 2010.05.17/outbox.cif.g08.bks.cpg/sg56_11_cif.got.tgz:20476.got - 2010.06.03 13:42:01.
