data_PCOD9430243
_publ_section_title
;
Structure prediction by ZEFSAII (Michael W. Deem and Ramdas Pophale) SiO2 
 PCOD9430243
Probable space group: P C C N
;
_chemical_formula_sum "Si O2"
_cell_formula_units_Z 64
_cell_length_a 18.188437
_cell_length_b 19.155991
_cell_length_c 8.970789
_cell_angle_alpha 90.000000
_cell_angle_beta 90.000000
_cell_angle_gamma 90.000000
_cell_volume 3125.580195
_symmetry_space_group_name_H-M "P C C N"
_symmetry_group_IT_number 56
_symmetry_cell_setting 'orthorhombic'
loop_
_space_group_symop_operation_xyz
x,y,z
1/2-x,1/2-y,z
1/2+x,-y,1/2-z
-x,1/2+y,1/2-z
-x,-y,-z
1/2+x,1/2+y,-z
1/2-x,y,1/2+z
x,1/2-y,1/2+z
loop_
_atom_site_type_symbol
_atom_site_label
_atom_site_fract_x
_atom_site_fract_y
_atom_site_fract_z
Si Si1 0.690234 0.665671 0.162803
Si Si2 0.718394 0.177654 0.325480
Si Si3 0.171462 0.183683 0.187498
Si Si4 0.454383 0.371793 0.682862
Si Si5 0.845904 0.379905 0.609053
Si Si6 0.472392 0.358695 0.345907
Si Si7 0.928683 0.248262 0.223806
Si Si8 0.032686 0.988100 0.834573
O O1 0.679593 0.738242 0.250997
O O2 0.768761 0.638881 0.220108
O O3 0.619250 0.625772 0.218153
O O4 0.687721 0.677920 0.986895
O O5 0.750000 0.250000 0.396295
O O6 0.692164 0.123734 0.449209
O O7 0.782806 0.143722 0.226203
O O8 0.645403 0.206548 0.243012
O O9 0.089000 0.165943 0.229822
O O10 0.438068 0.371221 0.507413
O O11 0.506415 0.304551 0.703456
O O12 0.488809 0.442797 0.742280
O O13 0.905734 0.315238 0.611201
O O14 0.885526 0.453706 0.640592
O O15 0.538012 0.301263 0.355943
O O16 0.500871 0.428248 0.271451
O O17 0.000000 0.000000 0.000000
#
# Coordination Sequence:
#
# PCOD9430243 Si02
#       8
#     8   8   8   8   8   8   8   8
#     4  11  22  36  61  88 124 158 203 255 317 370
#     4  10  19  36  62  94 126 158 203 258 317 384
#     4  11  21  38  59  90 122 159 202 260 313 377
#     4  12  23  40  64  94 126 168 213 268 322 394
#     4  10  22  40  62  94 126 167 208 261 318 385
#     4  11  23  40  65  94 126 163 214 264 326 392
#     4  10  21  36  67  98 129 159 208 259 327 389
#     4  11  25  44  62  86 129 173 220 268 324 387
#
# _framework density 20.476199000000001
#
# number of rings (size 3 to 8) (size 9 to 14) (size 15 to 20)
#    0.000    1.250    1.250    6.750    0.000    4.000 
#    0.000    6.250    0.000    0.000    0.000    0.000 
#    0.000    0.000    0.000    0.000    0.000    0.000 
#
# Total GULP energy -356441.627121 kJ/mol
# GULP energy per Si atom -5569.400424 kJ/mol
# Density = 2.042959 g / cm^3
# Si number density = 20.476199 Si / 1000 Ang^3
#
#
#
# Elastic Constant Matrix: (Units=GPa)
#
#
# Indices 1 2 3 4 5 6 
#
# 1 64.5099 12.9543 12.8979 0.0000 0.0000 0.0000
# 2 12.9543 71.2205 29.3248 0.0000 0.0000 0.0000
# 3 12.8979 29.3248 110.9516 0.0000 0.0000 0.0000
# 4 0.0000 0.0000 0.0000 59.0753 0.0000 0.0000
# 5 0.0000 0.0000 0.0000 0.0000 31.3415 0.0000
# 6 0.0000 0.0000 0.0000 0.0000 0.0000 20.4592
#
#
#
# Elastic Compliance Matrix: (Units=1/GPa)
#
#
# Indices 1 2 3 4 5 6 
#
# 1 0.016240 -0.002442 -0.001242 0.000000 0.000000 0.000000
# 2 -0.002442 0.016123 -0.003977 0.000000 0.000000 0.000000
# 3 -0.001242 -0.003977 0.010209 0.000000 0.000000 0.000000
# 4 0.000000 0.000000 0.000000 0.016928 0.000000 0.000000
# 5 0.000000 0.000000 0.000000 0.000000 0.031907 0.000000
# 6 0.000000 0.000000 0.000000 0.000000 0.000000 0.048878
#
#
# Mechanical properties :
#
#
# Convention : Reuss Voigt Hill
#
# Bulk Modulus (GPa) = 36.70068 39.67065 38.18567
# Shear Modulus (GPa) = 30.35999 34.94221 32.65110
#
# Velocity S-wave (km/s) = 3.85476 4.13544 3.99756
# Velocity P-wave (km/s) = 6.14611 6.49758 6.32429
#
# Compressibility (1/GPa) = 0.02724745
#
# Stress axis : x y z
#
# Youngs Moduli (GPa) = 61.57500 62.02393 97.95671
#
# Poissons Ratio (x) = 0.15149 0.12170
# Poissons Ratio (y) = 0.15039 0.38961
# Poissons Ratio (z) = 0.07650 0.24669
#
# Static dielectric constant tensor:
#      x y z
#    x 1.715510 0.000000 0.000000 
#    y 0.000000 1.862430 0.000000 
#    z 0.000000 0.000000 1.738270 
# 
# From -- ./inp_files/4215.got.cif
#   From: 2010.05.17/outbox.cif.g08.bks.cpg/sg56_3_cif.got.tgz:4215.got - 2010.06.03 13:42:01.
