data_PCOD9430440
_publ_section_title
;
Structure prediction by ZEFSAII (Michael W. Deem and Ramdas Pophale) SiO2 
 PCOD9430440
Probable space group: P C C N
;
_chemical_formula_sum "Si O2"
_cell_formula_units_Z 40
_cell_length_a 17.334353
_cell_length_b 7.424851
_cell_length_c 13.019223
_cell_angle_alpha 90.000000
_cell_angle_beta 90.000000
_cell_angle_gamma 90.000000
_cell_volume 1675.638943
_symmetry_space_group_name_H-M "P C C N"
_symmetry_group_IT_number 56
_symmetry_cell_setting 'orthorhombic'
loop_
_space_group_symop_operation_xyz
x,y,z
1/2-x,1/2-y,z
1/2+x,-y,1/2-z
-x,1/2+y,1/2-z
-x,-y,-z
1/2+x,1/2+y,-z
1/2-x,y,1/2+z
x,1/2-y,1/2+z
loop_
_atom_site_type_symbol
_atom_site_label
_atom_site_fract_x
_atom_site_fract_y
_atom_site_fract_z
Si Si1 0.620424 0.951208 0.508671
Si Si2 0.750000 0.750000 0.631141
Si Si3 0.630694 0.549051 0.766500
Si Si4 0.826523 0.336214 0.008156
Si Si5 0.750000 0.250000 0.308130
Si Si6 0.445892 0.104297 0.920910
O O1 0.702453 0.887655 0.557597
O O2 0.619361 0.919138 0.386466
O O3 0.558390 0.817561 0.560048
O O4 0.614961 0.167092 0.519456
O O5 0.683230 0.698233 0.712974
O O6 0.684763 0.370573 0.755479
O O7 0.552001 0.550741 0.699179
O O8 0.750000 0.250000 0.056813
O O9 0.863205 0.516360 0.048725
O O10 0.800437 0.366884 0.889871
O O11 0.500000 0.000000 0.000000
#
# Coordination Sequence:
#
# PCOD9430440 Si02
#       6
#     8   4   8   8   4   8
#     4  10  21  40  56  92 126 155 206 261 307 392
#     4  10  20  30  66  90 122 146 192 262 320 370
#     4  10  21  36  63  92 117 162 202 259 334 367
#     4   9  19  38  65  87 122 156 198 272 320 364
#     4   8  20  34  62  94 116 150 206 262 316 378
#     4  11  25  42  61  89 129 172 216 261 324 395
#
# _framework density 23.871492
#
# number of rings (size 3 to 8) (size 9 to 14) (size 15 to 20)
#    0.600    1.600    0.000    3.000    7.000    0.800 
#    7.200    0.000    0.000    0.000    0.000    0.000 
#    0.000    0.000    0.000    0.000    0.000    0.000 
#
# Total GULP energy -222723.222329 kJ/mol
# GULP energy per Si atom -5568.080558 kJ/mol
# Density = 2.381716 g / cm^3
# Si number density = 23.871492 Si / 1000 Ang^3
#
#
#
# Elastic Constant Matrix: (Units=GPa)
#
#
# Indices 1 2 3 4 5 6 
#
# 1 20.7581 -2.9384 -28.2228 0.0000 0.0000 0.0000
# 2 -2.9384 80.9339 13.0240 0.0000 0.0000 0.0000
# 3 -28.2228 13.0240 84.2821 0.0000 0.0000 0.0000
# 4 0.0000 0.0000 0.0000 35.1269 0.0000 0.0000
# 5 0.0000 0.0000 0.0000 0.0000 -6.2007 0.0000
# 6 0.0000 0.0000 0.0000 0.0000 0.0000 18.9773
#
#
#
# Elastic Compliance Matrix: (Units=1/GPa)
#
#
# Indices 1 2 3 4 5 6 
#
# 1 0.088639 -0.001598 0.029929 0.000000 0.000000 0.000000
# 2 -0.001598 0.012700 -0.002498 0.000000 0.000000 0.000000
# 3 0.029929 -0.002498 0.022273 0.000000 0.000000 0.000000
# 4 0.000000 0.000000 0.000000 0.028468 0.000000 0.000000
# 5 0.000000 0.000000 0.000000 0.000000 -0.161272 0.000000
# 6 0.000000 0.000000 0.000000 0.000000 0.000000 0.052695
#
#
# Mechanical properties :
#
#
# Convention : Reuss Voigt Hill
#
# Bulk Modulus (GPa) = 5.70524 16.63331 11.16927
# Shear Modulus (GPa) = 99.47787 23.18810 61.33298
#
# Velocity S-wave (km/s) = 6.46241 3.12007 5.07432
# Velocity P-wave (km/s) = 7.62094 4.46797 6.24666
#
# Compressibility (1/GPa) = 0.17527754
#
# Stress axis : x y z
#
# Youngs Moduli (GPa) = 11.28171 78.74224 44.89779
#
# Poissons Ratio (x) = 0.12584 -1.34373
# Poissons Ratio (y) = 0.01803 0.11214
# Poissons Ratio (z) = -0.33765 0.19667
#
# Static dielectric constant tensor:
#      x y z
#    x 2.138210 0.000000 0.000000 
#    y 0.000000 2.011150 0.000000 
#    z 0.000000 0.000000 2.032080 
# 
# From -- ./inp_files/8604.got.cif
#   From: 2010.05.17/outbox.cif.g08.bks.cpg/sg56_5_cif.got.tgz:8604.got - 2010.06.03 13:42:01.
