data_PCOD9430962
_publ_section_title
;
Structure prediction by ZEFSAII (Michael W. Deem and Ramdas Pophale) SiO2 
 PCOD9430962
Probable space group: P C C N
;
_chemical_formula_sum "Si O2"
_cell_formula_units_Z 40
_cell_length_a 5.240002
_cell_length_b 25.886187
_cell_length_c 15.490035
_cell_angle_alpha 90.000000
_cell_angle_beta 90.000000
_cell_angle_gamma 90.000000
_cell_volume 2101.125221
_symmetry_space_group_name_H-M "P C C N"
_symmetry_group_IT_number 56
_symmetry_cell_setting 'orthorhombic'
loop_
_space_group_symop_operation_xyz
x,y,z
1/2-x,1/2-y,z
1/2+x,-y,1/2-z
-x,1/2+y,1/2-z
-x,-y,-z
1/2+x,1/2+y,-z
1/2-x,y,1/2+z
x,1/2-y,1/2+z
loop_
_atom_site_type_symbol
_atom_site_label
_atom_site_fract_x
_atom_site_fract_y
_atom_site_fract_z
Si Si1 0.278689 0.873810 0.870213
Si Si2 0.781755 0.385680 0.824565
Si Si3 0.413211 0.943132 0.522779
Si Si4 0.722155 0.808750 0.410923
Si Si5 0.209690 0.147676 0.908503
O O1 0.244356 0.897636 0.775531
O O2 0.547006 0.844420 0.877452
O O3 0.049227 0.832873 0.884550
O O4 0.242158 0.915951 0.945566
O O5 0.741928 0.434895 0.887908
O O6 0.549599 0.348012 0.853648
O O7 0.046892 0.359003 0.848685
O O8 0.658238 0.906354 0.540216
O O9 0.500000 0.000000 0.500000
O O10 0.750000 0.750000 0.381337
O O11 0.738808 0.811466 0.515484
#
# Coordination Sequence:
#
# PCOD9430962 Si02
#       5
#     8   8   8   8   8
#     4  11  22  40  63  87 128 160 199 263 305 357
#     4  10  20  39  59  86 124 155 200 249 302 358
#     4   9  21  40  61  91 121 165 199 244 308 368
#     4  11  21  40  64  87 118 164 207 251 318 372
#     4   9  19  39  58  84 121 154 195 255 298 357
#
# _framework density 19.037417999999999
#
# number of rings (size 3 to 8) (size 9 to 14) (size 15 to 20)
#    1.200    0.800    2.000    1.800    0.000    0.800 
#    3.600    6.000    0.000    0.000    0.000    0.000 
#    0.000    0.000    0.000    0.000    0.000    0.000 
#
# Total GULP energy -222832.784721 kJ/mol
# GULP energy per Si atom -5570.819618 kJ/mol
# Density = 1.899409 g / cm^3
# Si number density = 19.037418 Si / 1000 Ang^3
#
#
#
# Elastic Constant Matrix: (Units=GPa)
#
#
# Indices 1 2 3 4 5 6 
#
# 1 87.2213 -16.9375 1.7122 0.0000 0.0000 0.0000
# 2 -16.9375 60.1885 8.1468 0.0000 0.0000 0.0000
# 3 1.7122 8.1468 107.9441 0.0000 0.0000 0.0000
# 4 0.0000 0.0000 0.0000 4.0864 0.0000 0.0000
# 5 0.0000 0.0000 0.0000 0.0000 24.9656 0.0000
# 6 0.0000 0.0000 0.0000 0.0000 0.0000 12.9280
#
#
#
# Elastic Compliance Matrix: (Units=1/GPa)
#
#
# Indices 1 2 3 4 5 6 
#
# 1 0.012150 0.003481 -0.000455 0.000000 0.000000 0.000000
# 2 0.003481 0.017783 -0.001397 0.000000 0.000000 0.000000
# 3 -0.000455 -0.001397 0.009377 0.000000 0.000000 0.000000
# 4 0.000000 0.000000 0.000000 0.244716 0.000000 0.000000
# 5 0.000000 0.000000 0.000000 0.000000 0.040055 0.000000
# 6 0.000000 0.000000 0.000000 0.000000 0.000000 0.077351
#
#
# Mechanical properties :
#
#
# Convention : Reuss Voigt Hill
#
# Bulk Modulus (GPa) = 23.49309 26.79967 25.14638
# Shear Modulus (GPa) = 12.12518 25.89149 19.00833
#
# Velocity S-wave (km/s) = 2.52645 3.69186 3.16329
# Velocity P-wave (km/s) = 4.56923 5.68164 5.15553
#
# Compressibility (1/GPa) = 0.04256570
#
# Stress axis : x y z
#
# Youngs Moduli (GPa) = 82.30485 56.23315 106.64693
#
# Poissons Ratio (x) = -0.19573 0.04857
# Poissons Ratio (y) = -0.28648 0.14902
# Poissons Ratio (z) = 0.03748 0.07858
#
# Static dielectric constant tensor:
#      x y z
#    x 1.668160 0.000000 0.000000 
#    y 0.000000 1.642110 0.000000 
#    z 0.000000 0.000000 1.681090 
# 
# From -- ./inp_files/9603.got.cif
#   From: 2010.05.17/outbox.cif.g08.bks.cpg/sg56_5_cif.got.tgz:9603.got - 2010.06.03 13:42:01.
