data_PCOD9430176
_publ_section_title
;
Structure prediction by ZEFSAII (Michael W. Deem and Ramdas Pophale) SiO2 
 PCOD9430176
Probable space group: P C C N
;
_chemical_formula_sum "Si O2"
_cell_formula_units_Z 60
_cell_length_a 18.733990
_cell_length_b 9.271933
_cell_length_c 17.520481
_cell_angle_alpha 90.000000
_cell_angle_beta 90.000000
_cell_angle_gamma 90.000000
_cell_volume 3043.312808
_symmetry_space_group_name_H-M "P C C N"
_symmetry_group_IT_number 56
_symmetry_cell_setting 'orthorhombic'
loop_
_space_group_symop_operation_xyz
x,y,z
1/2-x,1/2-y,z
1/2+x,-y,1/2-z
-x,1/2+y,1/2-z
-x,-y,-z
1/2+x,1/2+y,-z
1/2-x,y,1/2+z
x,1/2-y,1/2+z
loop_
_atom_site_type_symbol
_atom_site_label
_atom_site_fract_x
_atom_site_fract_y
_atom_site_fract_z
Si Si1 0.937957 0.502454 0.435849
Si Si2 0.434381 0.334961 0.565840
Si Si3 0.250000 0.750000 0.711011
Si Si4 0.060322 0.068071 0.395602
Si Si5 0.834150 0.208562 0.016814
Si Si6 0.874945 0.320807 0.172630
Si Si7 0.849207 0.076257 0.384510
Si Si8 0.032913 0.764864 0.192903
O O1 0.935755 0.668895 0.411631
O O2 0.865877 0.432679 0.473911
O O3 0.956786 0.399416 0.364299
O O4 0.000000 0.500000 0.500000
O O5 0.430807 0.345895 0.473936
O O6 0.500325 0.442729 0.587269
O O7 0.365274 0.411544 0.601628
O O8 0.187522 0.697879 0.766283
O O9 0.224236 0.875876 0.653889
O O10 0.037995 0.180551 0.330102
O O11 0.127047 0.976609 0.366885
O O12 0.750000 0.250000 0.021592
O O13 0.865531 0.211911 0.102163
O O14 0.862812 0.339663 0.964065
O O15 0.947873 0.306541 0.221275
O O16 0.907731 0.145442 0.328921
#
# Coordination Sequence:
#
# PCOD9430176 Si02
#       8
#     8   8   4   8   8   8   8   8
#     4  11  21  37  65  95 119 154 214 264 297 371
#     4  10  19  35  61  91 119 150 204 258 308 352
#     4  10  20  36  60  90 114 162 214 246 294 370
#     4  10  19  35  58  89 122 158 192 251 316 371
#     4  11  21  37  62  87 115 166 208 243 302 374
#     4  11  21  35  61  87 123 159 202 245 304 373
#     4   9  18  36  63  83 114 159 203 250 291 366
#     4   9  21  36  55  90 123 154 195 251 314 359
#
# _framework density 19.715357999999998
#
# number of rings (size 3 to 8) (size 9 to 14) (size 15 to 20)
#    0.000    1.867    4.000    0.800    0.000    2.133 
#    0.000    0.667    2.933    1.600    0.000    0.000 
#    0.000    0.000    0.000    0.000    0.000    0.000 
#
# Total GULP energy -334269.438275 kJ/mol
# GULP energy per Si atom -5571.157305 kJ/mol
# Density = 1.967048 g / cm^3
# Si number density = 19.715358 Si / 1000 Ang^3
#
#
#
# Elastic Constant Matrix: (Units=GPa)
#
#
# Indices 1 2 3 4 5 6 
#
# 1 43.4752 21.1492 15.4113 0.0000 0.0000 0.0000
# 2 21.1492 114.6279 11.2825 0.0000 0.0000 0.0000
# 3 15.4113 11.2825 86.6026 0.0000 0.0000 0.0000
# 4 0.0000 0.0000 0.0000 8.2886 0.0000 0.0000
# 5 0.0000 0.0000 0.0000 0.0000 27.6956 0.0000
# 6 0.0000 0.0000 0.0000 0.0000 0.0000 25.3935
#
#
#
# Elastic Compliance Matrix: (Units=1/GPa)
#
#
# Indices 1 2 3 4 5 6 
#
# 1 0.026670 -0.004511 -0.004158 0.000000 0.000000 0.000000
# 2 -0.004511 0.009600 -0.000448 0.000000 0.000000 0.000000
# 3 -0.004158 -0.000448 0.012345 0.000000 0.000000 0.000000
# 4 0.000000 0.000000 0.000000 0.120648 0.000000 0.000000
# 5 0.000000 0.000000 0.000000 0.000000 0.036107 0.000000
# 6 0.000000 0.000000 0.000000 0.000000 0.000000 0.039380
#
#
# Mechanical properties :
#
#
# Convention : Reuss Voigt Hill
#
# Bulk Modulus (GPa) = 32.91570 37.82129 35.36850
# Shear Modulus (GPa) = 18.30741 25.39971 21.85356
#
# Velocity S-wave (km/s) = 3.05058 3.59321 3.33296
# Velocity P-wave (km/s) = 5.39812 6.03657 5.72625
#
# Compressibility (1/GPa) = 0.03038063
#
# Stress axis : x y z
#
# Youngs Moduli (GPa) = 37.49477 104.16293 81.00218
#
# Poissons Ratio (x) = 0.46993 0.33684
# Poissons Ratio (y) = 0.16916 0.03628
# Poissons Ratio (z) = 0.15592 0.04665
#
# Static dielectric constant tensor:
#      x y z
#    x 1.793860 0.000000 0.000000 
#    y 0.000000 1.691810 0.000000 
#    z 0.000000 0.000000 1.722910 
# 
# From -- ./inp_files/16650.got.cif
#   From: 2010.05.17/outbox.cif.g08.bks.cpg/sg56_9_cif.got.tgz:16650.got - 2010.06.03 13:42:01.
