data_PCOD9430118
_publ_section_title
;
Structure prediction by ZEFSAII (Michael W. Deem and Ramdas Pophale) SiO2 
 PCOD9430118
Probable space group: P C C N
;
_chemical_formula_sum "Si O2"
_cell_formula_units_Z 44
_cell_length_a 5.008616
_cell_length_b 25.642604
_cell_length_c 14.069172
_cell_angle_alpha 90.000000
_cell_angle_beta 90.000000
_cell_angle_gamma 90.000000
_cell_volume 1806.959427
_symmetry_space_group_name_H-M "P C C N"
_symmetry_group_IT_number 56
_symmetry_cell_setting 'orthorhombic'
loop_
_space_group_symop_operation_xyz
x,y,z
1/2-x,1/2-y,z
1/2+x,-y,1/2-z
-x,1/2+y,1/2-z
-x,-y,-z
1/2+x,1/2+y,-z
1/2-x,y,1/2+z
x,1/2-y,1/2+z
loop_
_atom_site_type_symbol
_atom_site_label
_atom_site_fract_x
_atom_site_fract_y
_atom_site_fract_z
Si Si1 0.737000 0.519200 0.698280
Si Si2 0.750000 0.250000 0.415496
Si Si3 0.594209 0.820385 0.187893
Si Si4 0.652889 0.431317 0.070662
Si Si5 0.350556 0.388551 0.678864
Si Si6 0.394286 0.642865 0.089660
O O1 0.431488 0.513856 0.731056
O O2 0.780400 0.491220 0.597278
O O3 0.836330 0.576598 0.724076
O O4 0.509571 0.263763 0.343202
O O5 0.797972 0.304385 0.468279
O O6 0.739012 0.832951 0.286917
O O7 0.311831 0.851937 0.177991
O O8 0.800429 0.842259 0.109365
O O9 0.364026 0.415828 0.110165
O O10 0.660192 0.410304 0.964376
O O11 0.870048 0.397411 0.128862
#
# Coordination Sequence:
#
# PCOD9430118 Si02
#       6
#     8   4   8   8   8   8
#     4   8  16  30  50  76 111 147 171 211 282 329
#     4   8  22  36  60  66 110 146 180 212 294 336
#     4  10  20  36  57  78 106 146 184 215 281 330
#     4  10  19  34  56  83 110 142 185 227 268 323
#     4  10  19  34  56  82 111 142 183 230 266 325
#     4  10  20  36  57  76 105 149 180 222 274 340
#
# _framework density 24.350299
#
# number of rings (size 3 to 8) (size 9 to 14) (size 15 to 20)
#    1.091    1.455    0.000    2.727    0.000    0.000 
#    0.000    2.727    0.000    0.000    0.000    0.000 
#    0.000    0.000    0.000    0.000    0.000    0.000 
#
# Total GULP energy -244981.593857 kJ/mol
# GULP energy per Si atom -5567.763497 kJ/mol
# Density = 2.429488 g / cm^3
# Si number density = 24.350299 Si / 1000 Ang^3
#
#
#
# Elastic Constant Matrix: (Units=GPa)
#
#
# Indices 1 2 3 4 5 6 
#
# 1 136.7359 11.5897 10.6001 0.0000 0.0000 0.0000
# 2 11.5897 57.7616 4.3388 0.0000 0.0000 0.0000
# 3 10.6001 4.3388 27.0386 0.0000 0.0000 0.0000
# 4 0.0000 0.0000 0.0000 27.0046 0.0000 0.0000
# 5 0.0000 0.0000 0.0000 0.0000 20.2311 0.0000
# 6 0.0000 0.0000 0.0000 0.0000 0.0000 28.6598
#
#
#
# Elastic Compliance Matrix: (Units=1/GPa)
#
#
# Indices 1 2 3 4 5 6 
#
# 1 0.007641 -0.001324 -0.002783 0.000000 0.000000 0.000000
# 2 -0.001324 0.017753 -0.002330 0.000000 0.000000 0.000000
# 3 -0.002783 -0.002330 0.038449 0.000000 0.000000 0.000000
# 4 0.000000 0.000000 0.000000 0.037031 0.000000 0.000000
# 5 0.000000 0.000000 0.000000 0.000000 0.049429 0.000000
# 6 0.000000 0.000000 0.000000 0.000000 0.000000 0.034892
#
#
# Mechanical properties :
#
#
# Convention : Reuss Voigt Hill
#
# Bulk Modulus (GPa) = 19.61955 30.51038 25.06497
# Shear Modulus (GPa) = 23.24941 28.17961 25.71451
#
# Velocity S-wave (km/s) = 3.09332 3.40554 3.25318
# Velocity P-wave (km/s) = 4.56430 5.29345 4.94234
#
# Compressibility (1/GPa) = 0.05096956
#
# Stress axis : x y z
#
# Youngs Moduli (GPa) = 130.86664 56.32784 26.00842
#
# Poissons Ratio (x) = 0.07459 0.07239
# Poissons Ratio (y) = 0.17329 0.06059
# Poissons Ratio (z) = 0.36423 0.13123
#
# Static dielectric constant tensor:
#      x y z
#    x 1.938660 0.000000 0.000000 
#    y 0.000000 2.074110 0.000000 
#    z 0.000000 0.000000 1.980860 
# 
# From -- ./inp_files/9750.got.cif
#   From: 2010.05.17/outbox.cif.g08.bks.cpg/sg56_5_cif.got.tgz:9750.got - 2010.06.03 13:42:01.
