data_PCOD9430717
_publ_section_title
;
Structure prediction by ZEFSAII (Michael W. Deem and Ramdas Pophale) SiO2 
 PCOD9430717
Probable space group: P C C N
;
_chemical_formula_sum "Si O2"
_cell_formula_units_Z 48
_cell_length_a 9.094791
_cell_length_b 17.430311
_cell_length_c 12.708931
_cell_angle_alpha 90.000000
_cell_angle_beta 90.000000
_cell_angle_gamma 90.000000
_cell_volume 2014.683739
_symmetry_space_group_name_H-M "P C C N"
_symmetry_group_IT_number 56
_symmetry_cell_setting 'orthorhombic'
loop_
_space_group_symop_operation_xyz
x,y,z
1/2-x,1/2-y,z
1/2+x,-y,1/2-z
-x,1/2+y,1/2-z
-x,-y,-z
1/2+x,1/2+y,-z
1/2-x,y,1/2+z
x,1/2-y,1/2+z
loop_
_atom_site_type_symbol
_atom_site_label
_atom_site_fract_x
_atom_site_fract_y
_atom_site_fract_z
Si Si1 0.250000 0.750000 0.308684
Si Si2 0.559475 0.463973 0.143539
Si Si3 0.197810 0.632960 0.132765
Si Si4 0.490718 0.367408 0.946933
Si Si5 0.867883 0.029657 0.713405
Si Si6 0.489328 0.847708 0.929214
Si Si7 0.250000 0.250000 0.490427
O O1 0.172134 0.687833 0.232758
O O2 0.127542 0.788858 0.379704
O O3 0.529387 0.553880 0.117641
O O4 0.460614 0.456911 0.249120
O O5 0.735379 0.466612 0.129777
O O6 0.498080 0.400722 0.064586
O O7 0.349032 0.665488 0.080406
O O8 0.261456 0.556196 0.188769
O O9 0.075114 0.627612 0.043484
O O10 0.364306 0.305299 0.929590
O O11 0.985583 0.085470 0.657745
O O12 0.644665 0.806771 0.944308
#
# Coordination Sequence:
#
# PCOD9430717 Si02
#       7
#     4   8   8   8   8   8   4
#     4  10  20  36  66  88 124 172 220 260 332 412
#     4  10  22  43  68  96 133 174 233 277 336 410
#     4  10  20  41  66  90 122 178 226 263 336 401
#     4  10  22  43  67  95 134 179 219 288 341 401
#     4  10  23  40  69  98 125 176 224 280 335 403
#     4  11  23  41  61  98 134 171 220 276 335 408
#     4  12  26  38  66  98 138 174 218 282 356 396
#
# _framework density 23.825078999999999
#
# number of rings (size 3 to 8) (size 9 to 14) (size 15 to 20)
#    0.000    1.667    1.667    2.500    4.667    1.333 
#    0.000   15.000    0.000    0.000    0.000    0.000 
#    0.000    0.000    0.000    0.000    0.000    0.000 
#
# Total GULP energy -267487.510001 kJ/mol
# GULP energy per Si atom -5572.656458 kJ/mol
# Density = 2.377085 g / cm^3
# Si number density = 23.825079 Si / 1000 Ang^3
#
#
#
# Elastic Constant Matrix: (Units=GPa)
#
#
# Indices 1 2 3 4 5 6 
#
# 1 73.8906 5.5532 10.0486 0.0000 0.0000 0.0000
# 2 5.5532 35.9982 3.2944 0.0000 0.0000 0.0000
# 3 10.0486 3.2944 81.0048 0.0000 0.0000 0.0000
# 4 0.0000 0.0000 0.0000 33.5657 0.0000 0.0000
# 5 0.0000 0.0000 0.0000 0.0000 -216.8769 0.0000
# 6 0.0000 0.0000 0.0000 0.0000 0.0000 37.7836
#
#
#
# Elastic Compliance Matrix: (Units=1/GPa)
#
#
# Indices 1 2 3 4 5 6 
#
# 1 0.013907 -0.001995 -0.001644 0.000000 0.000000 0.000000
# 2 -0.001995 0.028169 -0.000898 0.000000 0.000000 0.000000
# 3 -0.001644 -0.000898 0.012585 0.000000 0.000000 0.000000
# 4 0.000000 0.000000 0.000000 0.029792 0.000000 0.000000
# 5 0.000000 0.000000 0.000000 0.000000 -0.004611 0.000000
# 6 0.000000 0.000000 0.000000 0.000000 0.000000 0.026467
#
#
# Mechanical properties :
#
#
# Convention : Reuss Voigt Hill
#
# Bulk Modulus (GPa) = 21.93591 25.40958 23.67275
# Shear Modulus (GPa) = 38.29088 -17.63903 10.32593
#
# Velocity S-wave (km/s) = 4.01330 -2.72390 2.08410
# Velocity P-wave (km/s) = 5.54098 0.89184 3.96849
#
# Compressibility (1/GPa) = 0.04558735
#
# Stress axis : x y z
#
# Youngs Moduli (GPa) = 71.90614 35.49994 79.45708
#
# Poissons Ratio (x) = 0.07082 0.13063
# Poissons Ratio (y) = 0.14344 0.07136
# Poissons Ratio (z) = 0.11822 0.03188
#
# Static dielectric constant tensor:
#      x y z
#    x 2.395500 0.000000 0.000000 
#    y 0.000000 1.984600 0.000000 
#    z 0.000000 0.000000 2.104560 
# 
# From -- ./inp_files/10798.got.cif
#   From: 2010.05.17/outbox.cif.g08.bks.cpg/sg56_6_cif.got.tgz:10798.got - 2010.06.03 13:42:01.
