data_PCOD9430932
_publ_section_title
;
Structure prediction by ZEFSAII (Michael W. Deem and Ramdas Pophale) SiO2 
 PCOD9430932
Probable space group: P C C N
;
_chemical_formula_sum "Si O2"
_cell_formula_units_Z 36
_cell_length_a 20.826143
_cell_length_b 5.522058
_cell_length_c 14.312959
_cell_angle_alpha 90.000000
_cell_angle_beta 90.000000
_cell_angle_gamma 90.000000
_cell_volume 1646.035651
_symmetry_space_group_name_H-M "P C C N"
_symmetry_group_IT_number 56
_symmetry_cell_setting 'orthorhombic'
loop_
_space_group_symop_operation_xyz
x,y,z
1/2-x,1/2-y,z
1/2+x,-y,1/2-z
-x,1/2+y,1/2-z
-x,-y,-z
1/2+x,1/2+y,-z
1/2-x,y,1/2+z
x,1/2-y,1/2+z
loop_
_atom_site_type_symbol
_atom_site_label
_atom_site_fract_x
_atom_site_fract_y
_atom_site_fract_z
Si Si1 0.250000 0.750000 0.398014
Si Si2 0.813460 0.637265 0.960180
Si Si3 0.011504 0.168332 0.803198
Si Si4 0.062410 0.849706 0.531676
Si Si5 0.869134 0.491556 0.606521
O O1 0.283646 0.554273 0.465772
O O2 0.192811 0.620520 0.342965
O O3 0.750000 0.750000 0.908207
O O4 0.877652 0.500392 0.923526
O O5 0.842780 0.857833 0.019058
O O6 0.999055 0.425493 0.755343
O O7 0.964762 0.161943 0.892839
O O8 0.085446 0.160150 0.834072
O O9 0.088235 0.719580 0.438810
O O10 0.000000 0.000000 0.500000
#
# Coordination Sequence:
#
# PCOD9430932 Si02
#       5
#     4   8   8   8   8
#     4   8  18  34  62  98 114 156 216 282 302 376
#     4   9  18  34  63  97 118 154 219 279 313 369
#     4  12  27  40  60  99 140 172 207 272 336 393
#     4  11  21  38  66  96 123 167 224 272 321 386
#     4  10  20  38  66  93 122 163 225 264 322 378
#
# _framework density 21.870729999999998
#
# number of rings (size 3 to 8) (size 9 to 14) (size 15 to 20)
#    0.000    1.778    2.222    2.000    6.222    0.000 
#    0.000    0.000    0.000   12.000    0.000    0.000 
#    0.000    0.000    0.000    0.000    0.000    0.000 
#
# Total GULP energy -200692.070131 kJ/mol
# GULP energy per Si atom -5574.779726 kJ/mol
# Density = 2.182095 g / cm^3
# Si number density = 21.870730 Si / 1000 Ang^3
#
#
#
# Elastic Constant Matrix: (Units=GPa)
#
#
# Indices 1 2 3 4 5 6 
#
# 1 167.0156 36.3106 17.2276 0.0000 0.0000 0.0000
# 2 36.3106 70.2411 -0.7929 0.0000 0.0000 0.0000
# 3 17.2276 -0.7929 18.7026 0.0000 0.0000 0.0000
# 4 0.0000 0.0000 0.0000 6.2072 0.0000 0.0000
# 5 0.0000 0.0000 0.0000 0.0000 0.7141 0.0000
# 6 0.0000 0.0000 0.0000 0.0000 0.0000 55.9014
#
#
#
# Elastic Compliance Matrix: (Units=1/GPa)
#
#
# Indices 1 2 3 4 5 6 
#
# 1 0.007599 -0.004009 -0.007169 0.000000 0.000000 0.000000
# 2 -0.004009 0.016359 0.004386 0.000000 0.000000 0.000000
# 3 -0.007169 0.004386 0.060258 0.000000 0.000000 0.000000
# 4 0.000000 0.000000 0.000000 0.161104 0.000000 0.000000
# 5 0.000000 0.000000 0.000000 0.000000 1.400277 0.000000
# 6 0.000000 0.000000 0.000000 0.000000 0.000000 0.017889
#
#
# Mechanical properties :
#
#
# Convention : Reuss Voigt Hill
#
# Bulk Modulus (GPa) = 14.15798 40.16110 27.15954
# Shear Modulus (GPa) = 2.94012 26.11213 14.52612
#
# Velocity S-wave (km/s) = 1.16070 3.45908 2.57997
# Velocity P-wave (km/s) = 2.87817 5.86144 4.61737
#
# Compressibility (1/GPa) = 0.07063155
#
# Stress axis : x y z
#
# Youngs Moduli (GPa) = 131.60415 61.13000 16.59525
#
# Poissons Ratio (x) = 0.24507 0.11898
# Poissons Ratio (y) = 0.52759 -0.07279
# Poissons Ratio (z) = 0.94350 -0.26813
#
# Static dielectric constant tensor:
#      x y z
#    x 1.900830 0.000000 0.000000 
#    y 0.000000 1.592020 0.000000 
#    z 0.000000 0.000000 1.806680 
# 
# From -- ./inp_files/9484.got.cif
#   From: 2010.05.17/outbox.cif.g08.bks.cpg/sg56_5_cif.got.tgz:9484.got - 2010.06.03 13:42:01.
