data_PCOD9430733
_publ_section_title
;
Structure prediction by ZEFSAII (Michael W. Deem and Ramdas Pophale) SiO2 
 PCOD9430733
Probable space group: P C C N
;
_chemical_formula_sum "Si O2"
_cell_formula_units_Z 64
_cell_length_a 8.788965
_cell_length_b 15.248887
_cell_length_c 23.981358
_cell_angle_alpha 90.000000
_cell_angle_beta 90.000000
_cell_angle_gamma 90.000000
_cell_volume 3214.027982
_symmetry_space_group_name_H-M "P C C N"
_symmetry_group_IT_number 56
_symmetry_cell_setting 'orthorhombic'
loop_
_space_group_symop_operation_xyz
x,y,z
1/2-x,1/2-y,z
1/2+x,-y,1/2-z
-x,1/2+y,1/2-z
-x,-y,-z
1/2+x,1/2+y,-z
1/2-x,y,1/2+z
x,1/2-y,1/2+z
loop_
_atom_site_type_symbol
_atom_site_label
_atom_site_fract_x
_atom_site_fract_y
_atom_site_fract_z
Si Si1 0.167042 0.658240 0.268029
Si Si2 0.799382 0.648007 0.643239
Si Si3 0.182255 0.845925 0.377127
Si Si4 0.643955 0.910553 0.252839
Si Si5 0.655099 0.531077 0.927113
Si Si6 0.803926 0.493901 0.553924
Si Si7 0.331245 0.342099 0.651334
Si Si8 0.384685 0.920220 0.680713
O O1 0.250000 0.750000 0.273992
O O2 0.218690 0.613736 0.325831
O O3 0.240671 0.618748 0.212790
O O4 0.987233 0.660674 0.264130
O O5 0.750000 0.750000 0.635376
O O6 0.693247 0.600911 0.689539
O O7 0.793524 0.585232 0.588621
O O8 0.970758 0.641530 0.668763
O O9 0.250000 0.750000 0.392859
O O10 0.191075 0.919201 0.424444
O O11 0.009747 0.834681 0.357534
O O12 0.787940 0.894584 0.292671
O O13 0.570816 0.999871 0.277262
O O14 0.473784 0.544857 0.934671
O O15 0.747932 0.610238 0.900136
O O16 0.664430 0.456790 0.879460
O O17 0.714008 0.508502 0.988272
O O18 0.250000 0.250000 0.657223
#
# Coordination Sequence:
#
# PCOD9430733 Si02
#       8
#     8   8   8   8   8   8   8   8
#     4  11  21  35  55  82 115 146 183 233 292 351
#     4  11  22  36  57  88 122 158 201 246 302 368
#     4  11  22  37  60  89 119 155 198 247 303 360
#     4  11  21  35  57  85 116 154 194 238 295 356
#     4   9  21  39  61  82 111 155 203 247 298 355
#     4  10  21  41  61  83 118 157 201 252 300 356
#     4  11  21  36  59  86 117 150 194 246 299 362
#     4  10  20  37  57  82 115 154 195 242 298 354
#
# _framework density 19.912709
#
# number of rings (size 3 to 8) (size 9 to 14) (size 15 to 20)
#    0.000    1.500    0.000    7.875    0.000    4.000 
#    0.000    1.875    0.000    0.000    0.000    0.000 
#    0.000    0.000    0.000    0.000    0.000    0.000 
#
# Total GULP energy -357206.780090 kJ/mol
# GULP energy per Si atom -5581.355939 kJ/mol
# Density = 1.986739 g / cm^3
# Si number density = 19.912709 Si / 1000 Ang^3
#
#
#
# Elastic Constant Matrix: (Units=GPa)
#
#
# Indices 1 2 3 4 5 6 
#
# 1 74.9841 31.1715 20.3698 0.0000 0.0000 0.0000
# 2 31.1715 79.5158 22.5311 0.0000 0.0000 0.0000
# 3 20.3698 22.5311 117.7679 0.0000 0.0000 0.0000
# 4 0.0000 0.0000 0.0000 52.0834 0.0000 0.0000
# 5 0.0000 0.0000 0.0000 0.0000 25.2406 0.0000
# 6 0.0000 0.0000 0.0000 0.0000 0.0000 32.6860
#
#
#
# Elastic Compliance Matrix: (Units=1/GPa)
#
#
# Indices 1 2 3 4 5 6 
#
# 1 0.016242 -0.005890 -0.001682 0.000000 0.000000 0.000000
# 2 -0.005890 0.015433 -0.001934 0.000000 0.000000 0.000000
# 3 -0.001682 -0.001934 0.009152 0.000000 0.000000 0.000000
# 4 0.000000 0.000000 0.000000 0.019200 0.000000 0.000000
# 5 0.000000 0.000000 0.000000 0.000000 0.039619 0.000000
# 6 0.000000 0.000000 0.000000 0.000000 0.000000 0.030594
#
#
# Mechanical properties :
#
#
# Convention : Reuss Voigt Hill
#
# Bulk Modulus (GPa) = 45.84169 46.71253 46.27711
# Shear Modulus (GPa) = 31.94387 35.21504 33.57946
#
# Velocity S-wave (km/s) = 4.00959 4.20988 4.11095
# Velocity P-wave (km/s) = 6.67136 6.86589 6.76932
#
# Compressibility (1/GPa) = 0.02181421
#
# Stress axis : x y z
#
# Youngs Moduli (GPa) = 61.56934 64.79535 109.26292
#
# Poissons Ratio (x) = 0.38167 0.18382
# Poissons Ratio (y) = 0.36267 0.21129
# Poissons Ratio (z) = 0.10358 0.12530
#
# Static dielectric constant tensor:
#      x y z
#    x 1.723980 0.000000 0.000000 
#    y 0.000000 1.767970 0.000000 
#    z 0.000000 0.000000 1.708370 
# 
# From -- ./inp_files/20683.got.cif
#   From: 2010.05.17/outbox.cif.g08.bks.cpg/sg56_11_cif.got.tgz:20683.got - 2010.06.03 13:42:01.
