data_PCOD9430150
_publ_section_title
;
Structure prediction by ZEFSAII (Michael W. Deem and Ramdas Pophale) SiO2 
 PCOD9430150
Probable space group: P C C N
;
_chemical_formula_sum "Si O2"
_cell_formula_units_Z 64
_cell_length_a 16.724482
_cell_length_b 24.863514
_cell_length_c 8.902793
_cell_angle_alpha 90.000000
_cell_angle_beta 90.000000
_cell_angle_gamma 90.000000
_cell_volume 3702.043003
_symmetry_space_group_name_H-M "P C C N"
_symmetry_group_IT_number 56
_symmetry_cell_setting 'orthorhombic'
loop_
_space_group_symop_operation_xyz
x,y,z
1/2-x,1/2-y,z
1/2+x,-y,1/2-z
-x,1/2+y,1/2-z
-x,-y,-z
1/2+x,1/2+y,-z
1/2-x,y,1/2+z
x,1/2-y,1/2+z
loop_
_atom_site_type_symbol
_atom_site_label
_atom_site_fract_x
_atom_site_fract_y
_atom_site_fract_z
Si Si1 0.138582 0.928419 0.101140
Si Si2 0.142101 0.211777 0.015957
Si Si3 0.943867 0.533548 0.336123
Si Si4 0.690411 0.812346 0.133493
Si Si5 0.912789 0.970091 0.292822
Si Si6 0.266366 0.966410 0.343445
Si Si7 0.166460 0.436353 0.917705
Si Si8 0.523442 0.619694 0.073384
O O1 0.194889 0.940845 0.244487
O O2 0.069562 0.883836 0.124929
O O3 0.088184 0.983580 0.065780
O O4 0.196061 0.923345 0.958112
O O5 0.166629 0.198865 0.190548
O O6 0.216848 0.199128 0.905429
O O7 0.135838 0.275236 0.976970
O O8 0.067344 0.175591 0.962640
O O9 0.867594 0.552578 0.245942
O O10 0.975890 0.585039 0.420789
O O11 0.009226 0.506183 0.230444
O O12 0.685610 0.874136 0.084008
O O13 0.899753 0.948563 0.458683
O O14 0.924264 0.917861 0.185812
O O15 0.837015 0.007424 0.254320
O O16 0.234546 0.018592 0.435812
#
# Coordination Sequence:
#
# PCOD9430150 Si02
#       8
#     8   8   8   8   8   8   8   8
#     4  10  20  33  50  77 110 150 182 220 267 331
#     4  11  24  40  57  77 109 141 186 236 272 317
#     4  10  19  35  48  75 107 149 182 216 272 324
#     4  11  24  38  56  79 104 144 189 229 270 317
#     4  11  20  31  51  74 112 146 179 224 257 333
#     4  11  19  31  50  77 109 144 184 218 263 324
#     4  11  23  31  51  77 106 144 182 220 270 321
#     4  11  20  36  55  73 109 154 186 224 280 323
#
# _framework density 17.287752000000001
#
# number of rings (size 3 to 8) (size 9 to 14) (size 15 to 20)
#    0.000    1.250    5.000    3.375    5.250    0.000 
#    0.000    0.000    0.000    0.000    0.000    0.000 
#    0.000    8.000    0.000    0.000    0.000    0.000 
#
# Total GULP energy -356337.356905 kJ/mol
# GULP energy per Si atom -5567.771202 kJ/mol
# Density = 1.724840 g / cm^3
# Si number density = 17.287752 Si / 1000 Ang^3
#
#
#
# Elastic Constant Matrix: (Units=GPa)
#
#
# Indices 1 2 3 4 5 6 
#
# 1 80.6132 26.6432 19.8595 0.0000 0.0000 0.0000
# 2 26.6432 44.5509 16.3986 0.0000 0.0000 0.0000
# 3 19.8595 16.3986 50.0964 0.0000 0.0000 0.0000
# 4 0.0000 0.0000 0.0000 15.7750 0.0000 0.0000
# 5 0.0000 0.0000 0.0000 0.0000 28.2617 0.0000
# 6 0.0000 0.0000 0.0000 0.0000 0.0000 27.1403
#
#
#
# Elastic Compliance Matrix: (Units=1/GPa)
#
#
# Indices 1 2 3 4 5 6 
#
# 1 0.016029 -0.008240 -0.003657 0.000000 0.000000 0.000000
# 2 -0.008240 0.029757 -0.006474 0.000000 0.000000 0.000000
# 3 -0.003657 -0.006474 0.023531 0.000000 0.000000 0.000000
# 4 0.000000 0.000000 0.000000 0.063391 0.000000 0.000000
# 5 0.000000 0.000000 0.000000 0.000000 0.035384 0.000000
# 6 0.000000 0.000000 0.000000 0.000000 0.000000 0.036846
#
#
# Mechanical properties :
#
#
# Convention : Reuss Voigt Hill
#
# Bulk Modulus (GPa) = 30.69903 33.45148 32.07525
# Shear Modulus (GPa) = 19.79899 21.72602 20.76250
#
# Velocity S-wave (km/s) = 3.38784 3.54888 3.46930
# Velocity P-wave (km/s) = 5.75322 6.01536 5.88575
#
# Compressibility (1/GPa) = 0.03257432
#
# Stress axis : x y z
#
# Youngs Moduli (GPa) = 62.38596 33.60541 42.49790
#
# Poissons Ratio (x) = 0.27691 0.15542
# Poissons Ratio (y) = 0.51406 0.27514
# Poissons Ratio (z) = 0.22815 0.21757
#
# Static dielectric constant tensor:
#      x y z
#    x 1.629870 0.000000 0.000000 
#    y 0.000000 1.651130 0.000000 
#    z 0.000000 0.000000 1.648200 
# 
# From -- ./inp_files/4269.got.cif
#   From: 2010.05.17/outbox.cif.g08.bks.cpg/sg56_3_cif.got.tgz:4269.got - 2010.06.03 13:42:01.
