data_PCOD9430906
_publ_section_title
;
Structure prediction by ZEFSAII (Michael W. Deem and Ramdas Pophale) SiO2 
 PCOD9430906
Probable space group: P C C N
;
_chemical_formula_sum "Si O2"
_cell_formula_units_Z 28
_cell_length_a 8.921841
_cell_length_b 11.527257
_cell_length_c 13.532406
_cell_angle_alpha 90.000000
_cell_angle_beta 90.000000
_cell_angle_gamma 90.000000
_cell_volume 1391.731555
_symmetry_space_group_name_H-M "P C C N"
_symmetry_group_IT_number 56
_symmetry_cell_setting 'orthorhombic'
loop_
_space_group_symop_operation_xyz
x,y,z
1/2-x,1/2-y,z
1/2+x,-y,1/2-z
-x,1/2+y,1/2-z
-x,-y,-z
1/2+x,1/2+y,-z
1/2-x,y,1/2+z
x,1/2-y,1/2+z
loop_
_atom_site_type_symbol
_atom_site_label
_atom_site_fract_x
_atom_site_fract_y
_atom_site_fract_z
Si Si1 0.090920 0.069132 0.721222
Si Si2 0.833231 0.951690 0.494502
Si Si3 0.748786 0.387919 0.653445
Si Si4 0.750000 0.750000 0.138896
O O1 0.131068 0.948132 0.774767
O O2 0.732690 0.050375 0.546505
O O3 0.188595 0.076016 0.620295
O O4 0.915887 0.077616 0.694943
O O5 0.827071 0.841012 0.565381
O O6 0.000000 0.000000 0.500000
O O7 0.750000 0.250000 0.647200
O O8 0.859322 0.673779 0.707341
#
# Coordination Sequence:
#
# PCOD9430906 Si02
#       4
#     8   8   8   4
#     4  10  22  40  63  86 127 155 207 249 302 359
#     4   9  20  39  58  87 122 154 199 250 298 355
#     4  10  23  39  62  91 121 162 204 246 310 361
#     4  10  20  38  64  90 116 166 198 246 306 362
#
# _framework density 20.118822000000002
#
# number of rings (size 3 to 8) (size 9 to 14) (size 15 to 20)
#    0.000    2.286    0.000    0.857   12.000    1.143 
#    5.143    2.857    0.000    0.000    0.000    0.000 
#    0.000    0.000    0.000    0.000    0.000    0.000 
#
# Total GULP energy -156188.413367 kJ/mol
# GULP energy per Si atom -5578.157620 kJ/mol
# Density = 2.007303 g / cm^3
# Si number density = 20.118822 Si / 1000 Ang^3
#
#
#
# Elastic Constant Matrix: (Units=GPa)
#
#
# Indices 1 2 3 4 5 6 
#
# 1 42.1596 21.8861 11.2977 0.0000 0.0000 0.0000
# 2 21.8861 166.8174 57.2893 0.0000 0.0000 0.0000
# 3 11.2977 57.2893 119.0719 0.0000 0.0000 0.0000
# 4 0.0000 0.0000 0.0000 -2.6532 0.0000 0.0000
# 5 0.0000 0.0000 0.0000 0.0000 8.8090 0.0000
# 6 0.0000 0.0000 0.0000 0.0000 0.0000 25.2972
#
#
#
# Elastic Compliance Matrix: (Units=1/GPa)
#
#
# Indices 1 2 3 4 5 6 
#
# 1 0.025546 -0.003018 -0.000972 0.000000 0.000000 0.000000
# 2 -0.003018 0.007538 -0.003340 0.000000 0.000000 0.000000
# 3 -0.000972 -0.003340 0.010098 0.000000 0.000000 0.000000
# 4 0.000000 0.000000 0.000000 -0.376906 0.000000 0.000000
# 5 0.000000 0.000000 0.000000 0.000000 0.113520 0.000000
# 6 0.000000 0.000000 0.000000 0.000000 0.000000 0.039530
#
#
# Mechanical properties :
#
#
# Convention : Reuss Voigt Hill
#
# Bulk Modulus (GPa) = 35.06101 56.55498 45.80800
# Shear Modulus (GPa) = -31.94736 22.12900 -4.90918
#
# Velocity S-wave (km/s) = -3.98921 3.32010 -1.56377
# Velocity P-wave (km/s) = 1.93742 6.54743 4.42240
#
# Compressibility (1/GPa) = 0.02852171
#
# Stress axis : x y z
#
# Youngs Moduli (GPa) = 39.14432 132.66739 99.03336
#
# Poissons Ratio (x) = 0.40037 0.09625
# Poissons Ratio (y) = 0.11813 0.33080
# Poissons Ratio (z) = 0.03804 0.44314
#
# Static dielectric constant tensor:
#      x y z
#    x 1.696230 0.000000 0.000000 
#    y 0.000000 1.712620 0.000000 
#    z 0.000000 0.000000 1.773030 
# 
# From -- ./inp_files/17754.got.cif
#   From: 2010.05.17/outbox.cif.g08.bks.cpg/sg56_9_cif.got.tgz:17754.got - 2010.06.03 13:42:01.
