data_PCOD9430883
_publ_section_title
;
Structure prediction by ZEFSAII (Michael W. Deem and Ramdas Pophale) SiO2 
 PCOD9430883
Probable space group: P C C N
;
_chemical_formula_sum "Si O2"
_cell_formula_units_Z 44
_cell_length_a 7.874513
_cell_length_b 8.500066
_cell_length_c 31.879954
_cell_angle_alpha 90.000000
_cell_angle_beta 90.000000
_cell_angle_gamma 90.000000
_cell_volume 2133.849022
_symmetry_space_group_name_H-M "P C C N"
_symmetry_group_IT_number 56
_symmetry_cell_setting 'orthorhombic'
loop_
_space_group_symop_operation_xyz
x,y,z
1/2-x,1/2-y,z
1/2+x,-y,1/2-z
-x,1/2+y,1/2-z
-x,-y,-z
1/2+x,1/2+y,-z
1/2-x,y,1/2+z
x,1/2-y,1/2+z
loop_
_atom_site_type_symbol
_atom_site_label
_atom_site_fract_x
_atom_site_fract_y
_atom_site_fract_z
Si Si1 0.419219 0.658322 0.285277
Si Si2 0.173512 0.503122 0.077379
Si Si3 0.250000 0.750000 0.509595
Si Si4 0.070709 0.286662 0.793322
Si Si5 0.250000 0.750000 0.865990
Si Si6 0.521674 0.181272 0.566415
Si Si7 0.250000 0.750000 0.649829
O O1 0.250000 0.750000 0.268547
O O2 0.561435 0.711844 0.253045
O O3 0.428520 0.472180 0.285948
O O4 0.401599 0.703362 0.334174
O O5 0.035820 0.362916 0.075684
O O6 0.354457 0.420841 0.069542
O O7 0.194476 0.604297 0.119999
O O8 0.153965 0.627207 0.039630
O O9 0.386382 0.827111 0.478210
O O10 0.250000 0.250000 0.814486
O O11 0.913821 0.222845 0.820634
O O12 0.342125 0.632227 0.898017
#
# Coordination Sequence:
#
# PCOD9430883 Si02
#       7
#     8   8   4   8   4   8   4
#     4  10  23  44  63  94 129 165 228 268 328 390
#     4  10  22  38  60  94 126 167 205 266 325 374
#     4  10  20  38  62  90 130 156 216 260 310 398
#     4  12  25  43  69  93 131 178 219 277 336 389
#     4   9  21  39  61  88 124 158 221 253 319 383
#     4  10  20  38  64  88 123 172 208 257 321 389
#     4  11  25  43  63  96 140 160 225 277 321 393
#
# _framework density 20.620016
#
# number of rings (size 3 to 8) (size 9 to 14) (size 15 to 20)
#    0.545    1.091    0.909    3.273    2.545    0.000 
#    3.273    0.000    8.000    0.000    0.000    0.000 
#    0.000    0.000    0.000    0.000    0.000    0.000 
#
# Total GULP energy -245071.939747 kJ/mol
# GULP energy per Si atom -5569.816812 kJ/mol
# Density = 2.057308 g / cm^3
# Si number density = 20.620016 Si / 1000 Ang^3
#
#
#
# Elastic Constant Matrix: (Units=GPa)
#
#
# Indices 1 2 3 4 5 6 
#
# 1 89.1011 -21.0221 30.3671 0.0000 0.0000 0.0000
# 2 -21.0221 47.5154 23.4963 0.0000 0.0000 0.0000
# 3 30.3671 23.4963 128.0271 0.0000 0.0000 0.0000
# 4 0.0000 0.0000 0.0000 -21.7467 0.0000 0.0000
# 5 0.0000 0.0000 0.0000 0.0000 11.7412 0.0000
# 6 0.0000 0.0000 0.0000 0.0000 0.0000 21.6384
#
#
#
# Elastic Compliance Matrix: (Units=1/GPa)
#
#
# Indices 1 2 3 4 5 6 
#
# 1 0.015261 0.009394 -0.005344 0.000000 0.000000 0.000000
# 2 0.009394 0.028930 -0.007538 0.000000 0.000000 0.000000
# 3 -0.005344 -0.007538 0.010462 0.000000 0.000000 0.000000
# 4 0.000000 0.000000 0.000000 -0.045984 0.000000 0.000000
# 5 0.000000 0.000000 0.000000 0.000000 0.085170 0.000000
# 6 0.000000 0.000000 0.000000 0.000000 0.000000 0.046214
#
#
# Mechanical properties :
#
#
# Convention : Reuss Voigt Hill
#
# Bulk Modulus (GPa) = 20.97400 36.70291 28.83845
# Shear Modulus (GPa) = 30.68997 17.78005 24.23501
#
# Velocity S-wave (km/s) = 3.86211 2.93963 3.43201
# Velocity P-wave (km/s) = 5.48467 5.41851 5.45169
#
# Compressibility (1/GPa) = 0.04767808
#
# Stress axis : x y z
#
# Youngs Moduli (GPa) = 65.52651 34.56675 95.58640
#
# Poissons Ratio (x) = -0.32474 0.51081
# Poissons Ratio (y) = -0.61559 0.72049
# Poissons Ratio (z) = 0.35017 0.26055
#
# Static dielectric constant tensor:
#      x y z
#    x 1.755560 0.000000 0.000000 
#    y 0.000000 1.078980 0.000000 
#    z 0.000000 0.000000 1.740320 
# 
# From -- ./inp_files/23173.got.cif
#   From: 2010.05.17/outbox.cif.g08.bks.cpg/sg56_12_cif.got.tgz:23173.got - 2010.06.03 13:42:01.
