data_PCOD9430611
_publ_section_title
;
Structure prediction by ZEFSAII (Michael W. Deem and Ramdas Pophale) SiO2 
 PCOD9430611
Probable space group: P C C N
;
_chemical_formula_sum "Si O2"
_cell_formula_units_Z 64
_cell_length_a 7.998516
_cell_length_b 18.124242
_cell_length_c 20.921313
_cell_angle_alpha 90.000000
_cell_angle_beta 90.000000
_cell_angle_gamma 90.000000
_cell_volume 3032.900811
_symmetry_space_group_name_H-M "P C C N"
_symmetry_group_IT_number 56
_symmetry_cell_setting 'orthorhombic'
loop_
_space_group_symop_operation_xyz
x,y,z
1/2-x,1/2-y,z
1/2+x,-y,1/2-z
-x,1/2+y,1/2-z
-x,-y,-z
1/2+x,1/2+y,-z
1/2-x,y,1/2+z
x,1/2-y,1/2+z
loop_
_atom_site_type_symbol
_atom_site_label
_atom_site_fract_x
_atom_site_fract_y
_atom_site_fract_z
Si Si1 0.411000 0.935402 0.282594
Si Si2 0.242823 0.901931 0.586490
Si Si3 0.799325 0.667088 0.300118
Si Si4 0.185535 0.827402 0.208485
Si Si5 0.057732 0.033443 0.660345
Si Si6 0.612341 0.540974 0.095862
Si Si7 0.366537 0.552050 0.465032
Si Si8 0.700137 0.674960 0.160284
O O1 0.523962 0.871004 0.314367
O O2 0.246841 0.894266 0.254048
O O3 0.487020 0.982898 0.222490
O O4 0.396654 0.994794 0.338636
O O5 0.222005 0.840544 0.640683
O O6 0.438364 0.920719 0.580003
O O7 0.164790 0.885044 0.517522
O O8 0.168291 0.976294 0.618495
O O9 0.750000 0.750000 0.322623
O O10 0.663471 0.604684 0.317801
O O11 0.811074 0.671997 0.223422
O O12 0.250000 0.750000 0.235624
O O13 0.989152 0.827280 0.189824
O O14 0.924548 0.062930 0.607989
O O15 0.692745 0.491737 0.041671
O O16 0.735143 0.607533 0.114111
O O17 0.500000 0.500000 0.500000
O O18 0.750000 0.750000 0.126371
#
# Coordination Sequence:
#
# PCOD9430611 Si02
#       8
#     8   8   8   8   8   8   8   8
#     4  11  22  36  60  94 120 159 203 249 316 385
#     4   9  20  38  58  83 109 158 210 250 294 352
#     4  11  21  35  55  85 128 159 191 243 314 384
#     4  10  21  37  58  85 123 158 198 251 306 362
#     4  10  20  35  60  86 123 152 201 253 308 373
#     4  11  20  36  63  85 121 151 203 258 305 366
#     4  10  22  36  58  87 113 155 206 260 298 351
#     4  10  21  33  55  90 120 155 190 241 307 371
#
# _framework density 21.101911000000001
#
# number of rings (size 3 to 8) (size 9 to 14) (size 15 to 20)
#    0.000    1.750    2.500    2.625    1.750    2.000 
#    0.000    0.000    2.750    3.000    0.000    0.875 
#    0.000    0.000    0.000    0.000    0.000    0.000 
#
# Total GULP energy -356599.234284 kJ/mol
# GULP energy per Si atom -5571.863036 kJ/mol
# Density = 2.105388 g / cm^3
# Si number density = 21.101911 Si / 1000 Ang^3
#
#
#
# Elastic Constant Matrix: (Units=GPa)
#
#
# Indices 1 2 3 4 5 6 
#
# 1 39.8782 7.2865 4.0903 0.0000 0.0000 0.0000
# 2 7.2865 109.0874 14.9710 0.0000 0.0000 0.0000
# 3 4.0903 14.9710 75.5166 0.0000 0.0000 0.0000
# 4 0.0000 0.0000 0.0000 19.4726 0.0000 0.0000
# 5 0.0000 0.0000 0.0000 0.0000 24.5435 0.0000
# 6 0.0000 0.0000 0.0000 0.0000 0.0000 30.0059
#
#
#
# Elastic Compliance Matrix: (Units=1/GPa)
#
#
# Indices 1 2 3 4 5 6 
#
# 1 0.025470 -0.001554 -0.001071 0.000000 0.000000 0.000000
# 2 -0.001554 0.009518 -0.001803 0.000000 0.000000 0.000000
# 3 -0.001071 -0.001803 0.013658 0.000000 0.000000 0.000000
# 4 0.000000 0.000000 0.000000 0.051354 0.000000 0.000000
# 5 0.000000 0.000000 0.000000 0.000000 0.040744 0.000000
# 6 0.000000 0.000000 0.000000 0.000000 0.000000 0.033327
#
#
# Mechanical properties :
#
#
# Convention : Reuss Voigt Hill
#
# Bulk Modulus (GPa) = 25.13257 30.79754 27.96505
# Shear Modulus (GPa) = 25.48540 28.01337 26.74939
#
# Velocity S-wave (km/s) = 3.47901 3.64748 3.56424
# Velocity P-wave (km/s) = 5.29849 5.68904 5.49723
#
# Compressibility (1/GPa) = 0.03978901
#
# Stress axis : x y z
#
# Youngs Moduli (GPa) = 39.26152 105.06198 73.21957
#
# Poissons Ratio (x) = 0.16329 0.07845
# Poissons Ratio (y) = 0.06102 0.13200
# Poissons Ratio (z) = 0.04207 0.18940
#
# Static dielectric constant tensor:
#      x y z
#    x 1.888850 0.000000 0.000000 
#    y 0.000000 1.788990 0.000000 
#    z 0.000000 0.000000 1.755060 
# 
# From -- ./inp_files/18371.got.cif
#   From: 2010.05.17/outbox.cif.g08.bks.cpg/sg56_10_cif.got.tgz:18371.got - 2010.06.03 13:42:01.
