data_PCOD9430865
_publ_section_title
;
Structure prediction by ZEFSAII (Michael W. Deem and Ramdas Pophale) SiO2 
 PCOD9430865
Probable space group: P C C N
;
_chemical_formula_sum "Si O2"
_cell_formula_units_Z 48
_cell_length_a 9.946410
_cell_length_b 26.564210
_cell_length_c 9.096422
_cell_angle_alpha 90.000000
_cell_angle_beta 90.000000
_cell_angle_gamma 90.000000
_cell_volume 2403.443194
_symmetry_space_group_name_H-M "P C C N"
_symmetry_group_IT_number 56
_symmetry_cell_setting 'orthorhombic'
loop_
_space_group_symop_operation_xyz
x,y,z
1/2-x,1/2-y,z
1/2+x,-y,1/2-z
-x,1/2+y,1/2-z
-x,-y,-z
1/2+x,1/2+y,-z
1/2-x,y,1/2+z
x,1/2-y,1/2+z
loop_
_atom_site_type_symbol
_atom_site_label
_atom_site_fract_x
_atom_site_fract_y
_atom_site_fract_z
Si Si1 0.214231 0.033648 0.803779
Si Si2 0.394509 0.304427 0.941906
Si Si3 0.695689 0.035585 0.957746
Si Si4 0.473424 0.587132 0.038363
Si Si5 0.473225 0.404338 0.305201
Si Si6 0.898758 0.703751 0.206414
O O1 0.077520 0.048971 0.884446
O O2 0.318320 0.079225 0.814496
O O3 0.193760 0.015324 0.638931
O O4 0.282768 0.985457 0.880336
O O5 0.477234 0.356240 0.922791
O O6 0.245835 0.306695 0.870085
O O7 0.454667 0.255476 0.860621
O O8 0.382142 0.294285 0.116937
O O9 0.561438 0.065139 0.920293
O O10 0.822799 0.071141 0.921344
O O11 0.484598 0.582456 0.861534
O O12 0.487469 0.345011 0.327166
#
# Coordination Sequence:
#
# PCOD9430865 Si02
#       6
#     8   8   8   8   8   8
#     4  12  22  41  64  86 122 163 205 247 291 353
#     4  10  20  38  62  88 119 151 194 252 298 351
#     4  12  24  41  60  88 126 163 199 249 294 354
#     4  11  23  42  61  89 127 157 199 252 300 351
#     4  11  23  41  62  91 121 160 203 246 300 358
#     4  10  20  38  61  89 119 149 197 249 297 357
#
# _framework density 19.971347000000002
#
# number of rings (size 3 to 8) (size 9 to 14) (size 15 to 20)
#    0.000    1.000    5.000    4.000    0.000    0.000 
#    9.000    0.833    0.000    4.000    0.000    0.000 
#    0.000    0.000    0.000    0.000    0.000    0.000 
#
# Total GULP energy -268169.358890 kJ/mol
# GULP energy per Si atom -5586.861644 kJ/mol
# Density = 1.992589 g / cm^3
# Si number density = 19.971347 Si / 1000 Ang^3
#
#
#
# Elastic Constant Matrix: (Units=GPa)
#
#
# Indices 1 2 3 4 5 6 
#
# 1 23.2395 8.1056 4.0317 0.0000 0.0000 0.0000
# 2 8.1056 95.2804 22.5340 0.0000 0.0000 0.0000
# 3 4.0317 22.5340 64.9916 0.0000 0.0000 0.0000
# 4 0.0000 0.0000 0.0000 30.3190 0.0000 0.0000
# 5 0.0000 0.0000 0.0000 0.0000 15.1055 0.0000
# 6 0.0000 0.0000 0.0000 0.0000 0.0000 9.9328
#
#
#
# Elastic Compliance Matrix: (Units=1/GPa)
#
#
# Indices 1 2 3 4 5 6 
#
# 1 0.044494 -0.003412 -0.001577 0.000000 0.000000 0.000000
# 2 -0.003412 0.011695 -0.003843 0.000000 0.000000 0.000000
# 3 -0.001577 -0.003843 0.016817 0.000000 0.000000 0.000000
# 4 0.000000 0.000000 0.000000 0.032983 0.000000 0.000000
# 5 0.000000 0.000000 0.000000 0.000000 0.066201 0.000000
# 6 0.000000 0.000000 0.000000 0.000000 0.000000 0.100677
#
#
# Mechanical properties :
#
#
# Convention : Reuss Voigt Hill
#
# Bulk Modulus (GPa) = 18.06987 28.09487 23.08237
# Shear Modulus (GPa) = 16.18243 20.99415 18.58829
#
# Velocity S-wave (km/s) = 2.84963 3.24576 3.05413
# Velocity P-wave (km/s) = 4.46035 5.30516 4.90099
#
# Compressibility (1/GPa) = 0.05534075
#
# Stress axis : x y z
#
# Youngs Moduli (GPa) = 22.47502 85.51025 59.46397
#
# Poissons Ratio (x) = 0.29177 0.09378
# Poissons Ratio (y) = 0.07669 0.22852
# Poissons Ratio (z) = 0.03544 0.32862
#
# Static dielectric constant tensor:
#      x y z
#    x 1.698330 0.000000 0.000000 
#    y 0.000000 1.733240 0.000000 
#    z 0.000000 0.000000 1.685240 
# 
# From -- ./inp_files/2232.got.cif
#   From: 2010.05.17/outbox.cif.g08.bks.cpg/sg56_2_cif.got.tgz:2232.got - 2010.06.03 13:42:01.
