data_PCOD9430919
_publ_section_title
;
Structure prediction by ZEFSAII (Michael W. Deem and Ramdas Pophale) SiO2 
 PCOD9430919
Probable space group: P C C N
;
_chemical_formula_sum "Si O2"
_cell_formula_units_Z 60
_cell_length_a 15.108886
_cell_length_b 16.480054
_cell_length_c 12.786931
_cell_angle_alpha 90.000000
_cell_angle_beta 90.000000
_cell_angle_gamma 90.000000
_cell_volume 3183.885173
_symmetry_space_group_name_H-M "P C C N"
_symmetry_group_IT_number 56
_symmetry_cell_setting 'orthorhombic'
loop_
_space_group_symop_operation_xyz
x,y,z
1/2-x,1/2-y,z
1/2+x,-y,1/2-z
-x,1/2+y,1/2-z
-x,-y,-z
1/2+x,1/2+y,-z
1/2-x,y,1/2+z
x,1/2-y,1/2+z
loop_
_atom_site_type_symbol
_atom_site_label
_atom_site_fract_x
_atom_site_fract_y
_atom_site_fract_z
Si Si1 0.136861 0.030468 0.561431
Si Si2 0.017143 0.659437 0.910047
Si Si3 0.337905 0.609142 0.964447
Si Si4 0.985901 0.663103 0.346243
Si Si5 0.329777 0.552867 0.342577
Si Si6 0.909390 0.354130 0.859428
Si Si7 0.750000 0.250000 0.894374
Si Si8 0.329695 0.461120 0.122887
O O1 0.230589 0.067388 0.595149
O O2 0.056030 0.089425 0.583199
O O3 0.140602 0.004553 0.439648
O O4 0.124503 0.945782 0.623314
O O5 0.099368 0.625968 0.842231
O O6 0.976266 0.741449 0.865962
O O7 0.054790 0.672794 0.026992
O O8 0.429780 0.635392 0.914589
O O9 0.266105 0.585923 0.876090
O O10 0.294313 0.680680 0.033367
O O11 0.350800 0.530661 0.037697
O O12 0.901122 0.610130 0.375814
O O13 0.015011 0.648670 0.226765
O O14 0.329178 0.504700 0.235350
O O15 0.827456 0.295379 0.831530
#
# Coordination Sequence:
#
# PCOD9430919 Si02
#       8
#     8   8   8   8   8   8   4   8
#     4  10  21  41  62  82 119 162 204 246 295 360
#     4  11  22  38  61  88 119 159 201 247 298 363
#     4  11  22  39  60  92 126 154 193 261 317 362
#     4  12  25  37  59  90 125 161 204 247 302 363
#     4  10  20  38  65  86 114 158 200 247 317 365
#     4  11  22  41  62  93 123 153 199 254 315 378
#     4  12  20  40  64  94 122 146 192 260 322 364
#     4  11  23  40  59  87 123 166 204 248 297 363
#
# _framework density 18.844901
#
# number of rings (size 3 to 8) (size 9 to 14) (size 15 to 20)
#    0.000    1.067    5.333    4.400    1.867    1.067 
#    0.000    2.667    0.000    4.800    0.000    0.000 
#    0.000    0.000    0.000    0.000    0.000    0.000 
#
# Total GULP energy -335506.224845 kJ/mol
# GULP energy per Si atom -5591.770414 kJ/mol
# Density = 1.880201 g / cm^3
# Si number density = 18.844901 Si / 1000 Ang^3
#
#
#
# Elastic Constant Matrix: (Units=GPa)
#
#
# Indices 1 2 3 4 5 6 
#
# 1 78.3020 53.8521 13.3328 0.0000 0.0000 0.0000
# 2 53.8521 94.7696 19.3015 0.0000 0.0000 0.0000
# 3 13.3328 19.3015 38.6269 0.0000 0.0000 0.0000
# 4 0.0000 0.0000 0.0000 14.0543 0.0000 0.0000
# 5 0.0000 0.0000 0.0000 0.0000 22.6277 0.0000
# 6 0.0000 0.0000 0.0000 0.0000 0.0000 43.8361
#
#
#
# Elastic Compliance Matrix: (Units=1/GPa)
#
#
# Indices 1 2 3 4 5 6 
#
# 1 0.021035 -0.011661 -0.001434 0.000000 0.000000 0.000000
# 2 -0.011661 0.018212 -0.005075 0.000000 0.000000 0.000000
# 3 -0.001434 -0.005075 0.028920 0.000000 0.000000 0.000000
# 4 0.000000 0.000000 0.000000 0.071152 0.000000 0.000000
# 5 0.000000 0.000000 0.000000 0.000000 0.044194 0.000000
# 6 0.000000 0.000000 0.000000 0.000000 0.000000 0.022812
#
#
# Mechanical properties :
#
#
# Convention : Reuss Voigt Hill
#
# Bulk Modulus (GPa) = 31.42035 42.74124 37.08080
# Shear Modulus (GPa) = 19.74150 24.45112 22.09631
#
# Velocity S-wave (km/s) = 3.24014 3.60598 3.42794
# Velocity P-wave (km/s) = 5.54142 6.32987 5.94872
#
# Compressibility (1/GPa) = 0.03182651
#
# Stress axis : x y z
#
# Youngs Moduli (GPa) = 47.53983 54.90937 34.57855
#
# Poissons Ratio (x) = 0.64030 0.04958
# Poissons Ratio (y) = 0.55436 0.17550
# Poissons Ratio (z) = 0.06816 0.27868
#
# Static dielectric constant tensor:
#      x y z
#    x 1.645370 0.000000 0.000000 
#    y 0.000000 1.639020 0.000000 
#    z 0.000000 0.000000 1.652830 
# 
# From -- ./inp_files/8031.got.cif
#   From: 2010.05.17/outbox.cif.g08.bks.cpg/sg56_5_cif.got.tgz:8031.got - 2010.06.03 13:42:01.
