data_PCOD9430528
_publ_section_title
;
Structure prediction by ZEFSAII (Michael W. Deem and Ramdas Pophale) SiO2 
 PCOD9430528
Probable space group: P C C N
;
_chemical_formula_sum "Si O2"
_cell_formula_units_Z 52
_cell_length_a 4.989640
_cell_length_b 22.726155
_cell_length_c 17.531296
_cell_angle_alpha 90.000000
_cell_angle_beta 90.000000
_cell_angle_gamma 90.000000
_cell_volume 1987.967131
_symmetry_space_group_name_H-M "P C C N"
_symmetry_group_IT_number 56
_symmetry_cell_setting 'orthorhombic'
loop_
_space_group_symop_operation_xyz
x,y,z
1/2-x,1/2-y,z
1/2+x,-y,1/2-z
-x,1/2+y,1/2-z
-x,-y,-z
1/2+x,1/2+y,-z
1/2-x,y,1/2+z
x,1/2-y,1/2+z
loop_
_atom_site_type_symbol
_atom_site_label
_atom_site_fract_x
_atom_site_fract_y
_atom_site_fract_z
Si Si1 0.250000 0.750000 0.945676
Si Si2 0.475322 0.332729 0.656069
Si Si3 0.369113 0.005536 0.151510
Si Si4 0.864754 0.071200 0.214072
Si Si5 0.013915 0.289356 0.313434
Si Si6 0.696100 0.135415 0.448807
Si Si7 0.301091 0.081859 0.020123
O O1 0.027386 0.727589 0.887609
O O2 0.189773 0.806001 0.997874
O O3 0.751178 0.367136 0.682653
O O4 0.353716 0.317899 0.738096
O O5 0.343318 0.372836 0.591139
O O6 0.671037 0.025633 0.169230
O O7 0.326810 0.019574 0.062960
O O8 0.163562 0.050676 0.194218
O O9 0.323177 0.944779 0.196645
O O10 0.250000 0.250000 0.350323
O O11 0.750000 0.250000 0.295168
O O12 0.908638 0.339207 0.369676
O O13 0.485936 0.090226 0.483978
O O14 0.984728 0.105334 0.458556
#
# Coordination Sequence:
#
# PCOD9430528 Si02
#       7
#     4   8   8   8   8   8   8
#     4  10  20  34  60  78 110 142 190 238 264 326
#     4  10  22  36  59  85 115 146 193 233 282 331
#     4   9  16  32  55  84 116 141 183 234 291 335
#     4   9  18  31  53  85 117 146 177 236 292 337
#     4  12  26  41  55  79 116 159 186 231 289 343
#     4  11  23  38  56  80 113 150 189 232 282 336
#     4  10  21  36  61  84 108 145 193 238 275 330
#
# _framework density 26.157374999999998
#
# number of rings (size 3 to 8) (size 9 to 14) (size 15 to 20)
#    0.000    1.846    1.538    3.692    4.308    2.462 
#    0.000    0.000    0.000    1.846    0.000    0.000 
#    0.000    0.000    0.000    0.000    0.000    0.000 
#
# Total GULP energy -290726.573461 kJ/mol
# GULP energy per Si atom -5590.895643 kJ/mol
# Density = 2.609784 g / cm^3
# Si number density = 26.157375 Si / 1000 Ang^3
#
#
#
# Elastic Constant Matrix: (Units=GPa)
#
#
# Indices 1 2 3 4 5 6 
#
# 1 67.9083 5.3955 5.1197 0.0000 0.0000 0.0000
# 2 5.3955 90.5997 31.0020 0.0000 0.0000 0.0000
# 3 5.1197 31.0020 88.4777 0.0000 0.0000 0.0000
# 4 0.0000 0.0000 0.0000 187.0126 0.0000 0.0000
# 5 0.0000 0.0000 0.0000 0.0000 -29.6392 0.0000
# 6 0.0000 0.0000 0.0000 0.0000 0.0000 26.9356
#
#
#
# Elastic Compliance Matrix: (Units=1/GPa)
#
#
# Indices 1 2 3 4 5 6 
#
# 1 0.014826 -0.000670 -0.000623 0.000000 0.000000 0.000000
# 2 -0.000670 0.012572 -0.004366 0.000000 0.000000 0.000000
# 3 -0.000623 -0.004366 0.012868 0.000000 0.000000 0.000000
# 4 0.000000 0.000000 0.000000 0.005347 0.000000 0.000000
# 5 0.000000 0.000000 0.000000 0.000000 -0.033739 0.000000
# 6 0.000000 0.000000 0.000000 0.000000 0.000000 0.037126
#
#
# Mechanical properties :
#
#
# Convention : Reuss Voigt Hill
#
# Bulk Modulus (GPa) = 34.54539 36.66889 35.60714
# Shear Modulus (GPa) = 71.46241 50.55969 61.01105
#
# Velocity S-wave (km/s) = 5.23254 4.40125 4.83480
# Velocity P-wave (km/s) = 7.05276 6.31482 6.69397
#
# Compressibility (1/GPa) = 0.02894742
#
# Stress axis : x y z
#
# Youngs Moduli (GPa) = 67.44934 79.54492 77.71070
#
# Poissons Ratio (x) = 0.05327 0.04843
# Poissons Ratio (y) = 0.04517 0.33930
# Poissons Ratio (z) = 0.04204 0.34731
#
# Static dielectric constant tensor:
#      x y z
#    x 2.069110 0.000000 0.000000 
#    y 0.000000 2.401520 0.000000 
#    z 0.000000 0.000000 2.069460 
# 
# From -- ./inp_files/14063.got.cif
#   From: 2010.05.17/outbox.cif.g08.bks.cpg/sg56_8_cif.got.tgz:14063.got - 2010.06.03 13:42:01.
