data_PCOD9430382
_publ_section_title
;
Structure prediction by ZEFSAII (Michael W. Deem and Ramdas Pophale) SiO2 
 PCOD9430382
Probable space group: P C C N
;
_chemical_formula_sum "Si O2"
_cell_formula_units_Z 64
_cell_length_a 9.824848
_cell_length_b 17.308616
_cell_length_c 18.264423
_cell_angle_alpha 90.000000
_cell_angle_beta 90.000000
_cell_angle_gamma 90.000000
_cell_volume 3105.947710
_symmetry_space_group_name_H-M "P C C N"
_symmetry_group_IT_number 56
_symmetry_cell_setting 'orthorhombic'
loop_
_space_group_symop_operation_xyz
x,y,z
1/2-x,1/2-y,z
1/2+x,-y,1/2-z
-x,1/2+y,1/2-z
-x,-y,-z
1/2+x,1/2+y,-z
1/2-x,y,1/2+z
x,1/2-y,1/2+z
loop_
_atom_site_type_symbol
_atom_site_label
_atom_site_fract_x
_atom_site_fract_y
_atom_site_fract_z
Si Si1 0.905322 0.729219 0.241644
Si Si2 0.292625 0.516849 0.320394
Si Si3 0.353938 0.681401 0.287341
Si Si4 0.019468 0.785611 0.582519
Si Si5 0.387472 0.437672 0.470327
Si Si6 0.014968 0.061915 0.204103
Si Si7 0.620038 0.979234 0.444262
Si Si8 0.685542 0.146854 0.385650
O O1 0.750000 0.750000 0.255939
O O2 0.971233 0.646317 0.260899
O O3 0.993354 0.789061 0.288541
O O4 0.930354 0.732825 0.154364
O O5 0.328558 0.606187 0.335125
O O6 0.337125 0.464926 0.389237
O O7 0.381726 0.488975 0.251898
O O8 0.132920 0.521028 0.299183
O O9 0.250000 0.750000 0.305655
O O10 0.334683 0.661541 0.200890
O O11 0.158855 0.830264 0.601833
O O12 0.083936 0.700906 0.565771
O O13 0.941850 0.849220 0.533646
O O14 0.500000 0.500000 0.500000
O O15 0.252380 0.443570 0.518820
O O16 0.061680 0.071721 0.120936
O O17 0.500000 0.000000 0.500000
O O18 0.662535 0.059548 0.406835
#
# Coordination Sequence:
#
# PCOD9430382 Si02
#       8
#     8   8   8   8   8   8   8   8
#     4  11  24  40  67 105 138 168 227 299 350 403
#     4  12  26  42  71 105 135 178 235 286 349 409
#     4  11  20  40  69 100 134 172 226 287 349 411
#     4  10  20  40  68  99 130 172 236 279 341 416
#     4  12  26  43  68 103 142 185 234 285 342 422
#     4  12  26  44  71 102 138 177 233 288 348 413
#     4  12  26  45  66  99 147 185 226 281 355 413
#     4  10  19  39  70  96 129 182 224 281 341 422
#
# _framework density 20.605627999999999
#
# number of rings (size 3 to 8) (size 9 to 14) (size 15 to 20)
#    0.000    0.750    8.750    0.000    3.500    2.000 
#    0.000    3.750    0.000    0.000    0.000    0.000 
#    0.000    0.000    0.000    0.000    0.000    0.000 
#
# Total GULP energy -357130.279973 kJ/mol
# GULP energy per Si atom -5580.160625 kJ/mol
# Density = 2.055873 g / cm^3
# Si number density = 20.605628 Si / 1000 Ang^3
#
#
#
# Elastic Constant Matrix: (Units=GPa)
#
#
# Indices 1 2 3 4 5 6 
#
# 1 150.6401 -2.2070 34.4809 0.0000 0.0000 0.0000
# 2 -2.2070 40.1951 -8.4788 0.0000 0.0000 0.0000
# 3 34.4809 -8.4788 35.6599 0.0000 0.0000 0.0000
# 4 0.0000 0.0000 0.0000 10.1516 0.0000 0.0000
# 5 0.0000 0.0000 0.0000 0.0000 -7.6317 0.0000
# 6 0.0000 0.0000 0.0000 0.0000 0.0000 24.7295
#
#
#
# Elastic Compliance Matrix: (Units=1/GPa)
#
#
# Indices 1 2 3 4 5 6 
#
# 1 0.008594 -0.001349 -0.008631 0.000000 0.000000 0.000000
# 2 -0.001349 0.026404 0.007582 0.000000 0.000000 0.000000
# 3 -0.008631 0.007582 0.038191 0.000000 0.000000 0.000000
# 4 0.000000 0.000000 0.000000 0.098507 0.000000 0.000000
# 5 0.000000 0.000000 0.000000 0.000000 -0.131032 0.000000
# 6 0.000000 0.000000 0.000000 0.000000 0.000000 0.040437
#
#
# Mechanical properties :
#
#
# Convention : Reuss Voigt Hill
#
# Bulk Modulus (GPa) = 14.62106 30.45392 22.53749
# Shear Modulus (GPa) = 46.00113 18.96323 32.48218
#
# Velocity S-wave (km/s) = 4.73001 3.03693 3.97467
# Velocity P-wave (km/s) = 6.07797 5.20660 5.65908
#
# Compressibility (1/GPa) = 0.06839451
#
# Stress axis : x y z
#
# Youngs Moduli (GPa) = 116.35903 37.87310 26.18433
#
# Poissons Ratio (x) = 0.05108 0.22599
# Poissons Ratio (y) = 0.15693 -0.19853
# Poissons Ratio (z) = 1.00425 -0.28716
#
# Static dielectric constant tensor:
#      x y z
#    x 1.660890 0.000000 0.000000 
#    y 0.000000 1.805490 0.000000 
#    z 0.000000 0.000000 1.740970 
# 
# From -- ./inp_files/18400.got.cif
#   From: 2010.05.17/outbox.cif.g08.bks.cpg/sg56_10_cif.got.tgz:18400.got - 2010.06.03 13:42:01.
