data_PCOD9430641
_publ_section_title
;
Structure prediction by ZEFSAII (Michael W. Deem and Ramdas Pophale) SiO2 
 PCOD9430641
Probable space group: P C C N
;
_chemical_formula_sum "Si O2"
_cell_formula_units_Z 32
_cell_length_a 8.104175
_cell_length_b 7.696169
_cell_length_c 20.612649
_cell_angle_alpha 90.000000
_cell_angle_beta 90.000000
_cell_angle_gamma 90.000000
_cell_volume 1285.633600
_symmetry_space_group_name_H-M "P C C N"
_symmetry_group_IT_number 56
_symmetry_cell_setting 'orthorhombic'
loop_
_space_group_symop_operation_xyz
x,y,z
1/2-x,1/2-y,z
1/2+x,-y,1/2-z
-x,1/2+y,1/2-z
-x,-y,-z
1/2+x,1/2+y,-z
1/2-x,y,1/2+z
x,1/2-y,1/2+z
loop_
_atom_site_type_symbol
_atom_site_label
_atom_site_fract_x
_atom_site_fract_y
_atom_site_fract_z
Si Si1 0.554665 0.698172 0.022802
Si Si2 0.058779 0.928495 0.154065
Si Si3 0.354493 0.072945 0.217027
Si Si4 0.559256 0.210138 0.107114
O O1 0.750000 0.750000 0.024145
O O2 0.484485 0.703637 0.096267
O O3 0.500000 0.500000 0.000000
O O4 0.472772 0.823012 0.968752
O O5 0.925997 0.941556 0.211455
O O6 0.048788 0.117854 0.120521
O O7 0.231599 0.927110 0.191220
O O8 0.250000 0.250000 0.218744
O O9 0.498052 0.082824 0.163114
O O10 0.750000 0.250000 0.115518
#
# Coordination Sequence:
#
# PCOD9430641 Si02
#       4
#     8   8   8   8
#     4  10  20  38  60  84 119 165 211 262 327 403
#     4  10  20  36  58  84 116 158 205 258 321 399
#     4  10  20  36  58  84 116 157 202 258 324 389
#     4  10  20  36  56  82 116 156 201 260 324 389
#
# _framework density 24.890452
#
# number of rings (size 3 to 8) (size 9 to 14) (size 15 to 20)
#    0.000    2.000    0.000    6.000    0.000    0.000 
#    0.000   20.000    0.000    0.000    0.000    0.000 
#    0.000    0.000    0.000    0.000    0.000    0.000 
#
# Total GULP energy -178637.772447 kJ/mol
# GULP energy per Si atom -5582.430389 kJ/mol
# Density = 2.483380 g / cm^3
# Si number density = 24.890452 Si / 1000 Ang^3
#
#
#
# Elastic Constant Matrix: (Units=GPa)
#
#
# Indices 1 2 3 4 5 6 
#
# 1 123.0269 -2.8059 59.7076 0.0000 0.0000 0.0000
# 2 -2.8059 72.9240 24.2870 0.0000 0.0000 0.0000
# 3 59.7076 24.2870 212.6428 0.0000 0.0000 0.0000
# 4 0.0000 0.0000 0.0000 95.4023 0.0000 0.0000
# 5 0.0000 0.0000 0.0000 0.0000 34.2486 0.0000
# 6 0.0000 0.0000 0.0000 0.0000 0.0000 20.4889
#
#
#
# Elastic Compliance Matrix: (Units=1/GPa)
#
#
# Indices 1 2 3 4 5 6 
#
# 1 0.009529 0.001308 -0.002825 0.000000 0.000000 0.000000
# 2 0.001308 0.014435 -0.002016 0.000000 0.000000 0.000000
# 3 -0.002825 -0.002016 0.005726 0.000000 0.000000 0.000000
# 4 0.000000 0.000000 0.000000 0.010482 0.000000 0.000000
# 5 0.000000 0.000000 0.000000 0.000000 0.029198 0.000000
# 6 0.000000 0.000000 0.000000 0.000000 0.000000 0.048807
#
#
# Mechanical properties :
#
#
# Convention : Reuss Voigt Hill
#
# Bulk Modulus (GPa) = 44.20213 63.44125 53.82169
# Shear Modulus (GPa) = 37.65493 51.85496 44.75494
#
# Velocity S-wave (km/s) = 3.89373 4.56930 4.24497
# Velocity P-wave (km/s) = 6.16539 7.30627 6.75994
#
# Compressibility (1/GPa) = 0.02262334
#
# Stress axis : x y z
#
# Youngs Moduli (GPa) = 104.94099 69.27816 174.63626
#
# Poissons Ratio (x) = -0.09058 0.49335
# Poissons Ratio (y) = -0.13721 0.35203
# Poissons Ratio (z) = 0.29646 0.13965
#
# Static dielectric constant tensor:
#      x y z
#    x 2.090060 0.000000 0.000000 
#    y 0.000000 3.019290 0.000000 
#    z 0.000000 0.000000 2.019810 
# 
# From -- ./inp_files/17803.got.cif
#   From: 2010.05.17/outbox.cif.g08.bks.cpg/sg56_9_cif.got.tgz:17803.got - 2010.06.03 13:42:01.
