data_PCOD9430549
_publ_section_title
;
Structure prediction by ZEFSAII (Michael W. Deem and Ramdas Pophale) SiO2 
 PCOD9430549
Probable space group: P C C N
;
_chemical_formula_sum "Si O2"
_cell_formula_units_Z 44
_cell_length_a 26.731367
_cell_length_b 8.046357
_cell_length_c 9.280035
_cell_angle_alpha 90.000000
_cell_angle_beta 90.000000
_cell_angle_gamma 90.000000
_cell_volume 1996.043860
_symmetry_space_group_name_H-M "P C C N"
_symmetry_group_IT_number 56
_symmetry_cell_setting 'orthorhombic'
loop_
_space_group_symop_operation_xyz
x,y,z
1/2-x,1/2-y,z
1/2+x,-y,1/2-z
-x,1/2+y,1/2-z
-x,-y,-z
1/2+x,1/2+y,-z
1/2-x,y,1/2+z
x,1/2-y,1/2+z
loop_
_atom_site_type_symbol
_atom_site_label
_atom_site_fract_x
_atom_site_fract_y
_atom_site_fract_z
Si Si1 0.921341 0.965542 0.525602
Si Si2 0.953384 0.223617 0.855711
Si Si3 0.562906 0.776158 0.754775
Si Si4 0.681880 0.156468 0.023767
Si Si5 0.604872 0.415069 0.107231
Si Si6 0.250000 0.750000 0.234007
O O1 0.930027 0.904888 0.687267
O O2 0.930070 0.806849 0.422968
O O3 0.955576 0.109699 0.456602
O O4 0.864936 0.033762 0.515043
O O5 0.916977 0.285831 0.727408
O O6 0.006721 0.176229 0.792418
O O7 0.930604 0.094066 0.967817
O O8 0.601194 0.906723 0.681067
O O9 0.657100 0.338261 0.054682
O O10 0.718967 0.131292 0.158076
O O11 0.711736 0.160523 0.874706
#
# Coordination Sequence:
#
# PCOD9430549 Si02
#       6
#     8   8   8   8   8   4
#     4  10  23  37  55  82 120 151 196 238 282 335
#     4  10  20  35  53  82 118 161 199 229 266 329
#     4  11  21  35  55  83 118 161 193 230 277 331
#     4  10  21  40  62  91 109 144 186 243 295 347
#     4  10  21  35  56  83 118 147 194 239 280 334
#     4  10  20  38  70  86 108 138 192 238 296 364
#
# _framework density 22.043603999999998
#
# number of rings (size 3 to 8) (size 9 to 14) (size 15 to 20)
#    0.000    1.818    0.000    5.455    0.000   10.182 
#    0.000    0.000    0.000   18.545    0.000    0.000 
#    0.000    0.000    0.000    0.000    0.000    0.000 
#
# Total GULP energy -245960.394276 kJ/mol
# GULP energy per Si atom -5590.008961 kJ/mol
# Density = 2.199343 g / cm^3
# Si number density = 22.043604 Si / 1000 Ang^3
#
#
#
# Elastic Constant Matrix: (Units=GPa)
#
#
# Indices 1 2 3 4 5 6 
#
# 1 95.0478 7.6785 26.0591 0.0000 0.0000 0.0000
# 2 7.6785 52.3668 19.7450 0.0000 0.0000 0.0000
# 3 26.0591 19.7450 138.7061 0.0000 0.0000 0.0000
# 4 0.0000 0.0000 0.0000 43.7952 0.0000 0.0000
# 5 0.0000 0.0000 0.0000 0.0000 43.5059 0.0000
# 6 0.0000 0.0000 0.0000 0.0000 0.0000 13.6529
#
#
#
# Elastic Compliance Matrix: (Units=1/GPa)
#
#
# Indices 1 2 3 4 5 6 
#
# 1 0.011132 -0.000892 -0.001964 0.000000 0.000000 0.000000
# 2 -0.000892 0.020251 -0.002715 0.000000 0.000000 0.000000
# 3 -0.001964 -0.002715 0.007965 0.000000 0.000000 0.000000
# 4 0.000000 0.000000 0.000000 0.022834 0.000000 0.000000
# 5 0.000000 0.000000 0.000000 0.000000 0.022985 0.000000
# 6 0.000000 0.000000 0.000000 0.000000 0.000000 0.073244
#
#
# Mechanical properties :
#
#
# Convention : Reuss Voigt Hill
#
# Bulk Modulus (GPa) = 35.45478 43.67621 39.56550
# Shear Modulus (GPa) = 27.94004 35.70001 31.82003
#
# Velocity S-wave (km/s) = 3.56404 4.02869 3.80347
# Velocity P-wave (km/s) = 5.74938 6.44182 6.10542
#
# Compressibility (1/GPa) = 0.02820494
#
# Stress axis : x y z
#
# Youngs Moduli (GPa) = 89.83413 49.38139 125.54832
#
# Poissons Ratio (x) = 0.04402 0.24663
# Poissons Ratio (y) = 0.08009 0.34089
# Poissons Ratio (z) = 0.17647 0.13408
#
# Static dielectric constant tensor:
#      x y z
#    x 1.803240 0.000000 0.000000 
#    y 0.000000 1.856080 0.000000 
#    z 0.000000 0.000000 1.838190 
# 
# From -- ./inp_files/2171.got.cif
#   From: 2010.05.17/outbox.cif.g08.bks.cpg/sg56_2_cif.got.tgz:2171.got - 2010.06.03 13:42:01.
