data_PCOD9430803
_publ_section_title
;
Structure prediction by ZEFSAII (Michael W. Deem and Ramdas Pophale) SiO2 
 PCOD9430803
Probable space group: P C C N
;
_chemical_formula_sum "Si O2"
_cell_formula_units_Z 64
_cell_length_a 9.289509
_cell_length_b 14.808767
_cell_length_c 23.481812
_cell_angle_alpha 90.000000
_cell_angle_beta 90.000000
_cell_angle_gamma 90.000000
_cell_volume 3230.303043
_symmetry_space_group_name_H-M "P C C N"
_symmetry_group_IT_number 56
_symmetry_cell_setting 'orthorhombic'
loop_
_space_group_symop_operation_xyz
x,y,z
1/2-x,1/2-y,z
1/2+x,-y,1/2-z
-x,1/2+y,1/2-z
-x,-y,-z
1/2+x,1/2+y,-z
1/2-x,y,1/2+z
x,1/2-y,1/2+z
loop_
_atom_site_type_symbol
_atom_site_label
_atom_site_fract_x
_atom_site_fract_y
_atom_site_fract_z
Si Si1 0.926019 0.030778 0.218033
Si Si2 0.553916 0.360647 0.072343
Si Si3 0.612108 0.555300 0.096662
Si Si4 0.707238 0.153547 0.162167
Si Si5 0.844079 0.836320 0.827830
Si Si6 0.580390 0.763500 0.532325
Si Si7 0.052077 0.443524 0.943907
Si Si8 0.424047 0.051591 0.157278
O O1 0.924731 0.963389 0.163341
O O2 0.927391 0.985446 0.278747
O O3 0.777233 0.082270 0.205165
O O4 0.053909 0.105532 0.214234
O O5 0.531741 0.469192 0.067418
O O6 0.710171 0.353090 0.101634
O O7 0.450327 0.317437 0.120084
O O8 0.518209 0.306436 0.016498
O O9 0.575705 0.657978 0.080171
O O10 0.779425 0.545387 0.075495
O O11 0.750000 0.250000 0.185766
O O12 0.543483 0.129668 0.154172
O O13 0.750000 0.750000 0.807373
O O14 0.729554 0.905926 0.852919
O O15 0.750000 0.750000 0.515216
O O16 0.529464 0.663152 0.547138
O O17 0.963182 0.479196 0.890110
O O18 0.000000 0.500000 0.000000
#
# Coordination Sequence:
#
# PCOD9430803 Si02
#       8
#     8   8   8   8   8   8   8   8
#     4  10  22  42  65  89 126 169 209 259 329 375
#     4  10  20  37  66  90 126 162 214 262 320 371
#     4   9  20  44  63  90 121 170 209 258 329 382
#     4  10  21  38  65  93 120 166 210 262 317 370
#     4  10  22  36  62  98 117 159 219 264 305 378
#     4  10  22  37  63  91 125 166 209 261 319 394
#     4  11  25  40  62  94 128 168 211 263 325 380
#     4  12  22  42  65  89 132 162 211 267 317 381
#
# _framework density 19.812383000000001
#
# number of rings (size 3 to 8) (size 9 to 14) (size 15 to 20)
#    0.000    2.000    2.500    3.000    7.000    0.000 
#    4.500    0.000    0.000    0.000    0.000    0.000 
#    0.000    0.000    0.000    0.000    0.000    0.000 
#
# Total GULP energy -356607.847475 kJ/mol
# GULP energy per Si atom -5571.997617 kJ/mol
# Density = 1.976729 g / cm^3
# Si number density = 19.812383 Si / 1000 Ang^3
#
#
#
# Elastic Constant Matrix: (Units=GPa)
#
#
# Indices 1 2 3 4 5 6 
#
# 1 31.5631 24.8697 8.0637 0.0000 0.0000 0.0000
# 2 24.8697 156.8669 63.7060 0.0000 0.0000 0.0000
# 3 8.0637 63.7060 116.3002 0.0000 0.0000 0.0000
# 4 0.0000 0.0000 0.0000 -121.7426 0.0000 0.0000
# 5 0.0000 0.0000 0.0000 0.0000 -7.3644 0.0000
# 6 0.0000 0.0000 0.0000 0.0000 0.0000 20.5698
#
#
#
# Elastic Compliance Matrix: (Units=1/GPa)
#
#
# Indices 1 2 3 4 5 6 
#
# 1 0.036266 -0.006081 0.000817 0.000000 0.000000 0.000000
# 2 -0.006081 0.009218 -0.004628 0.000000 0.000000 0.000000
# 3 0.000817 -0.004628 0.011077 0.000000 0.000000 0.000000
# 4 0.000000 0.000000 0.000000 -0.008214 0.000000 0.000000
# 5 0.000000 0.000000 0.000000 0.000000 -0.135789 0.000000
# 6 0.000000 0.000000 0.000000 0.000000 0.000000 0.048615
#
#
# Mechanical properties :
#
#
# Convention : Reuss Voigt Hill
#
# Bulk Modulus (GPa) = 27.19178 55.33433 41.26305
# Shear Modulus (GPa) = -737.07475 -7.83473 -372.45474
#
# Velocity S-wave (km/s) = -19.30893 -1.99074 -13.72585
# Velocity P-wave (km/s) = 21.98542 4.76505 15.17651
#
# Compressibility (1/GPa) = 0.03677582
#
# Stress axis : x y z
#
# Youngs Moduli (GPa) = 27.57437 108.47836 90.27810
#
# Poissons Ratio (x) = 0.65968 -0.07372
# Poissons Ratio (y) = 0.16768 0.41780
# Poissons Ratio (z) = -0.02252 0.50203
#
# Static dielectric constant tensor:
#      x y z
#    x 1.699300 0.000000 0.000000 
#    y 0.000000 1.749190 0.000000 
#    z 0.000000 0.000000 1.683200 
# 
# From -- ./inp_files/20682.got.cif
#   From: 2010.05.17/outbox.cif.g08.bks.cpg/sg56_11_cif.got.tgz:20682.got - 2010.06.03 13:42:01.
