data_PCOD9430507
_publ_section_title
;
Structure prediction by ZEFSAII (Michael W. Deem and Ramdas Pophale) SiO2 
 PCOD9430507
Probable space group: P C C N
;
_chemical_formula_sum "Si O2"
_cell_formula_units_Z 60
_cell_length_a 29.474972
_cell_length_b 10.725233
_cell_length_c 8.992326
_cell_angle_alpha 90.000000
_cell_angle_beta 90.000000
_cell_angle_gamma 90.000000
_cell_volume 2842.707531
_symmetry_space_group_name_H-M "P C C N"
_symmetry_group_IT_number 56
_symmetry_cell_setting 'orthorhombic'
loop_
_space_group_symop_operation_xyz
x,y,z
1/2-x,1/2-y,z
1/2+x,-y,1/2-z
-x,1/2+y,1/2-z
-x,-y,-z
1/2+x,1/2+y,-z
1/2-x,y,1/2+z
x,1/2-y,1/2+z
loop_
_atom_site_type_symbol
_atom_site_label
_atom_site_fract_x
_atom_site_fract_y
_atom_site_fract_z
Si Si1 0.687522 0.341094 0.362771
Si Si2 0.525137 0.068455 0.807632
Si Si3 0.120284 0.073221 0.669212
Si Si4 0.116069 0.637450 0.717619
Si Si5 0.066650 0.085950 0.209712
Si Si6 0.555705 0.244140 0.540794
Si Si7 0.750000 0.250000 0.620381
Si Si8 0.902487 0.718223 0.563772
O O1 0.653289 0.457232 0.361354
O O2 0.659611 0.213560 0.331203
O O3 0.714940 0.322318 0.514308
O O4 0.723152 0.344572 0.227490
O O5 0.476669 0.009582 0.768583
O O6 0.532941 0.158538 0.665110
O O7 0.525497 0.154069 0.955303
O O8 0.568571 0.979831 0.824456
O O9 0.128845 0.132247 0.832169
O O10 0.121336 0.182068 0.545624
O O11 0.113508 0.489476 0.731294
O O12 0.078857 0.664248 0.589325
O O13 0.097248 0.691258 0.871648
O O14 0.068482 0.204343 0.317510
O O15 0.066501 0.132463 0.041373
#
# Coordination Sequence:
#
# PCOD9430507 Si02
#       8
#     8   8   8   8   8   8   4   8
#     4  11  23  45  71 108 135 159 207 267 359 393
#     4  11  22  36  58  90 127 180 218 288 312 369
#     4  11  23  43  67  88 135 174 225 260 324 395
#     4  11  22  36  65  93 122 170 209 263 321 398
#     4  11  24  38  57  91 130 175 237 265 320 365
#     4  10  20  34  54  91 118 168 216 269 324 363
#     4  10  26  42  74 116 132 154 192 288 342 408
#     4  10  25  42  57  91 122 190 214 276 298 386
#
# _framework density 21.106639000000001
#
# number of rings (size 3 to 8) (size 9 to 14) (size 15 to 20)
#    0.000    1.333    2.667    3.200    3.733    8.533 
#    0.000    0.000    0.000    2.400    0.000    0.000 
#    0.000    0.000    0.000    0.000    0.000    0.000 
#
# Total GULP energy -335291.959390 kJ/mol
# GULP energy per Si atom -5588.199323 kJ/mol
# Density = 2.105860 g / cm^3
# Si number density = 21.106639 Si / 1000 Ang^3
#
#
#
# Elastic Constant Matrix: (Units=GPa)
#
#
# Indices 1 2 3 4 5 6 
#
# 1 60.8841 24.3633 19.9810 0.0000 0.0000 0.0000
# 2 24.3633 72.8296 22.6673 0.0000 0.0000 0.0000
# 3 19.9810 22.6673 120.1160 0.0000 0.0000 0.0000
# 4 0.0000 0.0000 0.0000 31.9825 0.0000 0.0000
# 5 0.0000 0.0000 0.0000 0.0000 21.5860 0.0000
# 6 0.0000 0.0000 0.0000 0.0000 0.0000 12.9974
#
#
#
# Elastic Compliance Matrix: (Units=1/GPa)
#
#
# Indices 1 2 3 4 5 6 
#
# 1 0.019465 -0.005847 -0.002135 0.000000 0.000000 0.000000
# 2 -0.005847 0.016344 -0.002112 0.000000 0.000000 0.000000
# 3 -0.002135 -0.002112 0.009079 0.000000 0.000000 0.000000
# 4 0.000000 0.000000 0.000000 0.031267 0.000000 0.000000
# 5 0.000000 0.000000 0.000000 0.000000 0.046326 0.000000
# 6 0.000000 0.000000 0.000000 0.000000 0.000000 0.076938
#
#
# Mechanical properties :
#
#
# Convention : Reuss Voigt Hill
#
# Bulk Modulus (GPa) = 40.48405 43.09478 41.78941
# Shear Modulus (GPa) = 21.94524 25.76771 23.85647
#
# Velocity S-wave (km/s) = 3.22798 3.49783 3.36562
# Velocity P-wave (km/s) = 5.75461 6.06425 5.91146
#
# Compressibility (1/GPa) = 0.02470109
#
# Stress axis : x y z
#
# Youngs Moduli (GPa) = 51.37442 61.18488 110.14611
#
# Poissons Ratio (x) = 0.35776 0.23511
# Poissons Ratio (y) = 0.30039 0.23259
# Poissons Ratio (z) = 0.10966 0.12920
#
# Static dielectric constant tensor:
#      x y z
#    x 1.766580 0.000000 0.000000 
#    y 0.000000 1.823410 0.000000 
#    z 0.000000 0.000000 1.783240 
# 
# From -- ./inp_files/4987.got.cif
#   From: 2010.05.17/outbox.cif.g08.bks.cpg/sg56_3_cif.got.tgz:4987.got - 2010.06.03 13:42:01.
