data_PCOD9430377
_publ_section_title
;
Structure prediction by ZEFSAII (Michael W. Deem and Ramdas Pophale) SiO2 
 PCOD9430377
Probable space group: P C C N
;
_chemical_formula_sum "Si O2"
_cell_formula_units_Z 40
_cell_length_a 9.601102
_cell_length_b 12.195725
_cell_length_c 14.792995
_cell_angle_alpha 90.000000
_cell_angle_beta 90.000000
_cell_angle_gamma 90.000000
_cell_volume 1732.147283
_symmetry_space_group_name_H-M "P C C N"
_symmetry_group_IT_number 56
_symmetry_cell_setting 'orthorhombic'
loop_
_space_group_symop_operation_xyz
x,y,z
1/2-x,1/2-y,z
1/2+x,-y,1/2-z
-x,1/2+y,1/2-z
-x,-y,-z
1/2+x,1/2+y,-z
1/2-x,y,1/2+z
x,1/2-y,1/2+z
loop_
_atom_site_type_symbol
_atom_site_label
_atom_site_fract_x
_atom_site_fract_y
_atom_site_fract_z
Si Si1 0.593475 0.054194 0.663578
Si Si2 0.066105 0.903430 0.628930
Si Si3 0.595006 0.751659 0.377201
Si Si4 0.362796 0.912332 0.939835
Si Si5 0.897292 0.696740 0.666664
O O1 0.612669 0.061127 0.771787
O O2 0.459730 0.125194 0.636737
O O3 0.726174 0.109659 0.617029
O O4 0.586131 0.927593 0.635802
O O5 0.169603 0.923083 0.545919
O O6 0.019109 0.777625 0.635745
O O7 0.933143 0.977783 0.600566
O O8 0.750000 0.750000 0.416306
O O9 0.481721 0.679935 0.429744
O O10 0.601504 0.700070 0.276299
O O11 0.750000 0.750000 0.639369
#
# Coordination Sequence:
#
# PCOD9430377 Si02
#       5
#     8   8   8   8   8
#     4  11  22  43  76 101 141 186 240 291 357 431
#     4  10  23  40  71 103 143 185 228 299 356 422
#     4  10  23  41  68  98 139 185 235 288 350 420
#     4  11  22  44  69 105 142 182 235 290 363 420
#     4  10  19  39  67 102 137 183 230 283 362 423
#
# _framework density 23.092725000000002
#
# number of rings (size 3 to 8) (size 9 to 14) (size 15 to 20)
#    0.000    1.600    4.000    0.600    0.000    0.800 
#    0.000    9.000    4.400    0.000    0.000    0.000 
#    0.000    0.000    0.000    0.000    0.000    0.000 
#
# Total GULP energy -223856.680339 kJ/mol
# GULP energy per Si atom -5596.417008 kJ/mol
# Density = 2.304016 g / cm^3
# Si number density = 23.092725 Si / 1000 Ang^3
#
#
#
# Elastic Constant Matrix: (Units=GPa)
#
#
# Indices 1 2 3 4 5 6 
#
# 1 81.8830 46.2338 42.9243 0.0000 0.0000 0.0000
# 2 46.2338 158.2210 8.0004 0.0000 0.0000 0.0000
# 3 42.9243 8.0004 110.9530 0.0000 0.0000 0.0000
# 4 0.0000 0.0000 0.0000 -0.7592 0.0000 0.0000
# 5 0.0000 0.0000 0.0000 0.0000 6.6322 0.0000
# 6 0.0000 0.0000 0.0000 0.0000 0.0000 25.3003
#
#
#
# Elastic Compliance Matrix: (Units=1/GPa)
#
#
# Indices 1 2 3 4 5 6 
#
# 1 0.018701 -0.005118 -0.006866 0.000000 0.000000 0.000000
# 2 -0.005118 0.007744 0.001421 0.000000 0.000000 0.000000
# 3 -0.006866 0.001421 0.011567 0.000000 0.000000 0.000000
# 4 0.000000 0.000000 0.000000 -1.317191 0.000000 0.000000
# 5 0.000000 0.000000 0.000000 0.000000 0.150780 0.000000
# 6 0.000000 0.000000 0.000000 0.000000 0.000000 0.039525
#
#
# Mechanical properties :
#
#
# Convention : Reuss Voigt Hill
#
# Bulk Modulus (GPa) = 59.21517 60.59710 59.90613
# Shear Modulus (GPa) = -4.70756 23.16123 9.22683
#
# Velocity S-wave (km/s) = -1.42933 3.17040 2.00106
# Velocity P-wave (km/s) = 4.79313 6.30077 5.59793
#
# Compressibility (1/GPa) = 0.01688757
#
# Stress axis : x y z
#
# Youngs Moduli (GPa) = 53.47217 129.13568 86.45616
#
# Poissons Ratio (x) = 0.66086 0.59360
# Poissons Ratio (y) = 0.27365 -0.12289
# Poissons Ratio (z) = 0.36714 -0.18356
#
# Static dielectric constant tensor:
#      x y z
#    x 1.847580 0.000000 0.000000 
#    y 0.000000 1.852420 0.000000 
#    z 0.000000 0.000000 1.864050 
# 
# From -- ./inp_files/14472.got.cif
#   From: 2010.05.17/outbox.cif.g08.bks.cpg/sg56_8_cif.got.tgz:14472.got - 2010.06.03 13:42:01.
