data_PCOD9430547
_publ_section_title
;
Structure prediction by ZEFSAII (Michael W. Deem and Ramdas Pophale) SiO2 
 PCOD9430547
Probable space group: P C C N
;
_chemical_formula_sum "Si O2"
_cell_formula_units_Z 56
_cell_length_a 23.091827
_cell_length_b 15.152494
_cell_length_c 8.576868
_cell_angle_alpha 90.000000
_cell_angle_beta 90.000000
_cell_angle_gamma 90.000000
_cell_volume 3001.035564
_symmetry_space_group_name_H-M "P C C N"
_symmetry_group_IT_number 56
_symmetry_cell_setting 'orthorhombic'
loop_
_space_group_symop_operation_xyz
x,y,z
1/2-x,1/2-y,z
1/2+x,-y,1/2-z
-x,1/2+y,1/2-z
-x,-y,-z
1/2+x,1/2+y,-z
1/2-x,y,1/2+z
x,1/2-y,1/2+z
loop_
_atom_site_type_symbol
_atom_site_label
_atom_site_fract_x
_atom_site_fract_y
_atom_site_fract_z
Si Si1 0.039945 0.913466 0.009820
Si Si2 0.727912 0.850933 0.056339
Si Si3 0.471247 0.244890 0.580034
Si Si4 0.454406 0.909187 0.843891
Si Si5 0.887589 0.700715 0.163286
Si Si6 0.331979 0.388963 0.769273
Si Si7 0.570692 0.471377 0.318670
O O1 0.066357 0.908105 0.834662
O O2 0.999818 0.827502 0.030080
O O3 0.075288 0.919492 0.172923
O O4 0.000000 0.000000 0.000000
O O5 0.750000 0.750000 0.071415
O O6 0.670126 0.857206 0.162941
O O7 0.782533 0.909628 0.103356
O O8 0.705078 0.863903 0.882999
O O9 0.520295 0.310696 0.637852
O O10 0.423445 0.305763 0.495416
O O11 0.434955 0.188518 0.704486
O O12 0.510415 0.974004 0.831358
O O13 0.422395 0.931135 0.007163
O O14 0.866740 0.802340 0.174874
O O15 0.377048 0.463894 0.725999
#
# Coordination Sequence:
#
# PCOD9430547 Si02
#       7
#     8   8   8   8   8   8   8
#     4  10  21  35  50  80 112 148 189 233 276 349
#     4  10  21  33  50  75 107 144 197 239 273 339
#     4  12  19  33  55  81 113 152 189 221 282 341
#     4  10  20  35  53  81 108 148 193 230 277 353
#     4  11  19  30  52  76 108 152 186 221 270 329
#     4  11  21  37  48  75 109 150 193 237 281 329
#     4  10  20  37  54  73 114 149 190 237 286 327
#
# _framework density 18.660225000000001
#
# number of rings (size 3 to 8) (size 9 to 14) (size 15 to 20)
#    0.000    1.429    4.286    3.000    2.000    2.286 
#    2.571    0.000    0.000    0.000    0.000    0.000 
#    0.000    3.429    0.000    0.000    0.000    0.000 
#
# Total GULP energy -311989.858700 kJ/mol
# GULP energy per Si atom -5571.247477 kJ/mol
# Density = 1.861775 g / cm^3
# Si number density = 18.660225 Si / 1000 Ang^3
#
#
#
# Elastic Constant Matrix: (Units=GPa)
#
#
# Indices 1 2 3 4 5 6 
#
# 1 45.5439 13.1509 17.2362 0.0000 0.0000 0.0000
# 2 13.1509 29.7546 8.6685 0.0000 0.0000 0.0000
# 3 17.2362 8.6685 100.5981 0.0000 0.0000 0.0000
# 4 0.0000 0.0000 0.0000 19.3340 0.0000 0.0000
# 5 0.0000 0.0000 0.0000 0.0000 26.0925 0.0000
# 6 0.0000 0.0000 0.0000 0.0000 0.0000 20.7190
#
#
#
# Elastic Compliance Matrix: (Units=1/GPa)
#
#
# Indices 1 2 3 4 5 6 
#
# 1 0.026386 -0.010611 -0.003606 0.000000 0.000000 0.000000
# 2 -0.010611 0.038741 -0.001520 0.000000 0.000000 0.000000
# 3 -0.003606 -0.001520 0.010689 0.000000 0.000000 0.000000
# 4 0.000000 0.000000 0.000000 0.051722 0.000000 0.000000
# 5 0.000000 0.000000 0.000000 0.000000 0.038325 0.000000
# 6 0.000000 0.000000 0.000000 0.000000 0.000000 0.048265
#
#
# Mechanical properties :
#
#
# Convention : Reuss Voigt Hill
#
# Bulk Modulus (GPa) = 22.55277 28.22307 25.38792
# Shear Modulus (GPa) = 19.20235 22.35184 20.77709
#
# Velocity S-wave (km/s) = 3.21137 3.46473 3.34045
# Velocity P-wave (km/s) = 5.08554 5.58241 5.33976
#
# Compressibility (1/GPa) = 0.04434046
#
# Stress axis : x y z
#
# Youngs Moduli (GPa) = 37.89932 25.81237 93.55010
#
# Poissons Ratio (x) = 0.27390 0.33739
# Poissons Ratio (y) = 0.40216 0.14222
# Poissons Ratio (z) = 0.13668 0.03924
#
# Static dielectric constant tensor:
#      x y z
#    x 1.665690 0.000000 0.000000 
#    y 0.000000 1.649160 0.000000 
#    z 0.000000 0.000000 1.751040 
# 
# From -- ./inp_files/4250.got.cif
#   From: 2010.05.17/outbox.cif.g08.bks.cpg/sg56_3_cif.got.tgz:4250.got - 2010.06.03 13:42:01.
