data_PCOD9430846
_publ_section_title
;
Structure prediction by ZEFSAII (Michael W. Deem and Ramdas Pophale) SiO2 
 PCOD9430846
Probable space group: P C C N
;
_chemical_formula_sum "Si O2"
_cell_formula_units_Z 48
_cell_length_a 13.036148
_cell_length_b 14.482426
_cell_length_c 13.194090
_cell_angle_alpha 90.000000
_cell_angle_beta 90.000000
_cell_angle_gamma 90.000000
_cell_volume 2490.978865
_symmetry_space_group_name_H-M "P C C N"
_symmetry_group_IT_number 56
_symmetry_cell_setting 'orthorhombic'
loop_
_space_group_symop_operation_xyz
x,y,z
1/2-x,1/2-y,z
1/2+x,-y,1/2-z
-x,1/2+y,1/2-z
-x,-y,-z
1/2+x,1/2+y,-z
1/2-x,y,1/2+z
x,1/2-y,1/2+z
loop_
_atom_site_type_symbol
_atom_site_label
_atom_site_fract_x
_atom_site_fract_y
_atom_site_fract_z
Si Si1 0.750000 0.250000 0.849133
Si Si2 0.544176 0.685327 0.696616
Si Si3 0.908215 0.349015 0.219716
Si Si4 0.526229 0.977779 0.333304
Si Si5 0.058991 0.716361 0.007301
Si Si6 0.750000 0.750000 0.631610
Si Si7 0.907286 0.886964 0.023106
O O1 0.698704 0.323042 0.773134
O O2 0.839352 0.281523 0.924551
O O3 0.492758 0.783340 0.725089
O O4 0.494423 0.612681 0.772222
O O5 0.519229 0.661213 0.579964
O O6 0.666088 0.697616 0.700326
O O7 0.929820 0.453368 0.249556
O O8 0.917327 0.324902 0.101888
O O9 0.441642 0.036347 0.394895
O O10 0.606678 0.942429 0.418371
O O11 0.003892 0.817268 0.001044
O O12 0.684810 0.822970 0.563836
#
# Coordination Sequence:
#
# PCOD9430846 Si02
#       7
#     4   8   8   8   8   4   8
#     4  10  20  38  60  88 114 170 212 244 322 376
#     4  10  22  40  65  94 127 167 215 267 337 372
#     4  11  21  41  64  89 129 168 209 272 322 387
#     4  11  21  41  63  95 125 171 211 264 324 391
#     4  10  20  41  63  87 125 169 205 266 319 387
#     4  10  20  44  62  98 130 170 214 282 312 392
#     4  10  21  40  71  90 127 170 223 257 333 383
#
# _framework density 19.269535000000001
#
# number of rings (size 3 to 8) (size 9 to 14) (size 15 to 20)
#    0.000    1.667    6.667    0.500    0.000    1.333 
#    9.000    0.000    0.000    0.000    0.000    0.000 
#    0.000    0.000    0.000    0.000    0.000    0.000 
#
# Total GULP energy -267295.031287 kJ/mol
# GULP energy per Si atom -5568.646485 kJ/mol
# Density = 1.922568 g / cm^3
# Si number density = 19.269535 Si / 1000 Ang^3
#
#
#
# Elastic Constant Matrix: (Units=GPa)
#
#
# Indices 1 2 3 4 5 6 
#
# 1 80.1115 15.8404 18.3589 0.0000 0.0000 0.0000
# 2 15.8404 83.6738 31.1813 0.0000 0.0000 0.0000
# 3 18.3589 31.1813 141.0724 0.0000 0.0000 0.0000
# 4 0.0000 0.0000 0.0000 36.5165 0.0000 0.0000
# 5 0.0000 0.0000 0.0000 0.0000 24.5770 0.0000
# 6 0.0000 0.0000 0.0000 0.0000 0.0000 12.6969
#
#
#
# Elastic Compliance Matrix: (Units=1/GPa)
#
#
# Indices 1 2 3 4 5 6 
#
# 1 0.013173 -0.002021 -0.001267 0.000000 0.000000 0.000000
# 2 -0.002021 0.013334 -0.002684 0.000000 0.000000 0.000000
# 3 -0.001267 -0.002684 0.007847 0.000000 0.000000 0.000000
# 4 0.000000 0.000000 0.000000 0.027385 0.000000 0.000000
# 5 0.000000 0.000000 0.000000 0.000000 0.040688 0.000000
# 6 0.000000 0.000000 0.000000 0.000000 0.000000 0.078759
#
#
# Mechanical properties :
#
#
# Convention : Reuss Voigt Hill
#
# Bulk Modulus (GPa) = 44.62793 48.40211 46.51502
# Shear Modulus (GPa) = 24.92503 30.72322 27.82412
#
# Velocity S-wave (km/s) = 3.60042 3.99732 3.80405
# Velocity P-wave (km/s) = 6.36350 6.81746 6.59439
#
# Compressibility (1/GPa) = 0.02240749
#
# Stress axis : x y z
#
# Youngs Moduli (GPa) = 75.91425 74.99551 127.44053
#
# Poissons Ratio (x) = 0.15160 0.16153
# Poissons Ratio (y) = 0.15346 0.34207
# Poissons Ratio (z) = 0.09622 0.20130
#
# Static dielectric constant tensor:
#      x y z
#    x 1.715680 0.000000 0.000000 
#    y 0.000000 1.698550 0.000000 
#    z 0.000000 0.000000 1.708700 
# 
# From -- ./inp_files/11643.got.cif
#   From: 2010.05.17/outbox.cif.g08.bks.cpg/sg56_6_cif.got.tgz:11643.got - 2010.06.03 13:42:01.
