data_PCOD9430174
_publ_section_title
;
Structure prediction by ZEFSAII (Michael W. Deem and Ramdas Pophale) SiO2 
 PCOD9430174
Probable space group: P C C N
;
_chemical_formula_sum "Si O2"
_cell_formula_units_Z 56
_cell_length_a 19.709654
_cell_length_b 5.457225
_cell_length_c 20.809823
_cell_angle_alpha 90.000000
_cell_angle_beta 90.000000
_cell_angle_gamma 90.000000
_cell_volume 2238.304906
_symmetry_space_group_name_H-M "P C C N"
_symmetry_group_IT_number 56
_symmetry_cell_setting 'orthorhombic'
loop_
_space_group_symop_operation_xyz
x,y,z
1/2-x,1/2-y,z
1/2+x,-y,1/2-z
-x,1/2+y,1/2-z
-x,-y,-z
1/2+x,1/2+y,-z
1/2-x,y,1/2+z
x,1/2-y,1/2+z
loop_
_atom_site_type_symbol
_atom_site_label
_atom_site_fract_x
_atom_site_fract_y
_atom_site_fract_z
Si Si1 0.495901 0.407945 0.314357
Si Si2 0.639573 0.160989 0.872330
Si Si3 0.499907 0.085696 0.662585
Si Si4 0.150063 0.337584 0.667058
Si Si5 0.671528 0.731719 0.186195
Si Si6 0.831175 0.232360 0.606216
Si Si7 0.450963 0.752567 0.000843
O O1 0.576551 0.377178 0.322811
O O2 0.468613 0.652308 0.346041
O O3 0.533383 0.672705 0.149210
O O4 0.488793 0.439248 0.238972
O O5 0.680014 0.397059 0.848082
O O6 0.678098 0.903400 0.867190
O O7 0.597553 0.203463 0.937335
O O8 0.425029 0.124159 0.635572
O O9 0.609579 0.229575 0.552716
O O10 0.141109 0.286507 0.743080
O O11 0.750000 0.750000 0.203242
O O12 0.661498 0.458562 0.157300
O O13 0.662112 0.961526 0.137925
O O14 0.750000 0.250000 0.084196
O O15 0.500000 0.500000 0.000000
O O16 0.500000 0.000000 0.000000
#
# Coordination Sequence:
#
# PCOD9430174 Si02
#       7
#     8   8   8   8   8   8   8
#     4   8  14  25  39  62  95 135 177 219 273 349
#     4  10  21  37  57  87 131 171 209 265 340 410
#     4   8  14  23  39  62  95 136 173 212 272 355
#     4  10  19  35  58  88 126 163 207 267 341 413
#     4  10  21  40  68  99 131 173 231 292 349 421
#     4  10  23  45  71  98 132 181 240 291 344 421
#     4  12  26  45  69  98 138 187 243 302 353 411
#
# _framework density 25.018934000000002
#
# number of rings (size 3 to 8) (size 9 to 14) (size 15 to 20)
#    0.000    2.286    0.000    2.571    0.000    2.286 
#    0.000   12.857    0.000    0.000    0.000    0.000 
#    0.000    0.000    0.000    0.000    0.000    0.000 
#
# Total GULP energy -311859.233735 kJ/mol
# GULP energy per Si atom -5568.914888 kJ/mol
# Density = 2.496199 g / cm^3
# Si number density = 25.018934 Si / 1000 Ang^3
#
#
#
# Elastic Constant Matrix: (Units=GPa)
#
#
# Indices 1 2 3 4 5 6 
#
# 1 98.9966 24.3566 46.0870 0.0000 0.0000 0.0000
# 2 24.3566 244.7437 65.3829 0.0000 0.0000 0.0000
# 3 46.0870 65.3829 117.3097 0.0000 0.0000 0.0000
# 4 0.0000 0.0000 0.0000 29.9366 0.0000 0.0000
# 5 0.0000 0.0000 0.0000 0.0000 -16.6333 0.0000
# 6 0.0000 0.0000 0.0000 0.0000 0.0000 54.1367
#
#
#
# Elastic Compliance Matrix: (Units=1/GPa)
#
#
# Indices 1 2 3 4 5 6 
#
# 1 0.012364 0.000079 -0.004901 0.000000 0.000000 0.000000
# 2 0.000079 0.004801 -0.002707 0.000000 0.000000 0.000000
# 3 -0.004901 -0.002707 0.011959 0.000000 0.000000 0.000000
# 4 0.000000 0.000000 0.000000 0.033404 0.000000 0.000000
# 5 0.000000 0.000000 0.000000 0.000000 -0.060120 0.000000
# 6 0.000000 0.000000 0.000000 0.000000 0.000000 0.018472
#
#
# Mechanical properties :
#
#
# Convention : Reuss Voigt Hill
#
# Bulk Modulus (GPa) = 71.09844 81.41145 76.25494
# Shear Modulus (GPa) = 123.07404 35.16955 79.12180
#
# Velocity S-wave (km/s) = 7.02134 3.75336 5.62969
# Velocity P-wave (km/s) = 9.70627 7.16897 8.53246
#
# Compressibility (1/GPa) = 0.01406501
#
# Stress axis : x y z
#
# Youngs Moduli (GPa) = 80.88211 208.28053 83.62090
#
# Poissons Ratio (x) = -0.01644 0.40985
# Poissons Ratio (y) = -0.00639 0.22636
# Poissons Ratio (z) = 0.39642 0.56381
#
# Static dielectric constant tensor:
#      x y z
#    x 3.799950 0.000000 0.000000 
#    y 0.000000 2.082700 0.000000 
#    z 0.000000 0.000000 1.917900 
# 
# From -- ./inp_files/19572.got.cif
#   From: 2010.05.17/outbox.cif.g08.bks.cpg/sg56_10_cif.got.tgz:19572.got - 2010.06.03 13:42:01.
