data_PCOD9430322
_publ_section_title
;
Structure prediction by ZEFSAII (Michael W. Deem and Ramdas Pophale) SiO2 
 PCOD9430322
Probable space group: P C C N
;
_chemical_formula_sum "Si O2"
_cell_formula_units_Z 48
_cell_length_a 16.786537
_cell_length_b 11.894651
_cell_length_c 10.031997
_cell_angle_alpha 90.000000
_cell_angle_beta 90.000000
_cell_angle_gamma 90.000000
_cell_volume 2003.088832
_symmetry_space_group_name_H-M "P C C N"
_symmetry_group_IT_number 56
_symmetry_cell_setting 'orthorhombic'
loop_
_space_group_symop_operation_xyz
x,y,z
1/2-x,1/2-y,z
1/2+x,-y,1/2-z
-x,1/2+y,1/2-z
-x,-y,-z
1/2+x,1/2+y,-z
1/2-x,y,1/2+z
x,1/2-y,1/2+z
loop_
_atom_site_type_symbol
_atom_site_label
_atom_site_fract_x
_atom_site_fract_y
_atom_site_fract_z
Si Si1 0.259490 0.424509 0.658287
Si Si2 0.387372 0.859117 0.317681
Si Si3 0.661566 0.607992 0.089204
Si Si4 0.589321 0.029494 0.959159
Si Si5 0.512611 0.373525 0.944922
Si Si6 0.655684 0.125119 0.233957
O O1 0.198048 0.372139 0.555165
O O2 0.275528 0.364555 0.797098
O O3 0.920012 0.393734 0.826827
O O4 0.221334 0.547358 0.694084
O O5 0.351157 0.972013 0.384848
O O6 0.451658 0.813452 0.424859
O O7 0.329796 0.756390 0.289510
O O8 0.346910 0.062721 0.092731
O O9 0.574763 0.663318 0.101561
O O10 0.633848 0.076883 0.089067
O O11 0.500000 0.000000 0.000000
O O12 0.576953 0.377697 0.828033
O O13 0.500000 0.500000 0.000000
#
# Coordination Sequence:
#
# PCOD9430322 Si02
#       6
#     8   8   8   8   8   8
#     4  11  21  36  56  87 119 159 198 245 308 346
#     4  10  22  36  57  86 118 165 189 240 313 362
#     4  10  21  37  56  85 118 159 205 239 295 365
#     4  11  24  38  55  85 122 157 211 242 290 369
#     4  10  19  38  61  78 120 164 209 240 294 369
#     4  12  21  37  56  89 126 150 197 250 311 375
#
# _framework density 23.962990999999999
#
# number of rings (size 3 to 8) (size 9 to 14) (size 15 to 20)
#    0.000    1.333    5.000    4.000    0.000    2.667 
#    0.000    0.000    0.000    0.000    0.000   19.833 
#    0.000    0.000    0.000    0.000    0.000    0.000 
#
# Total GULP energy -268121.250107 kJ/mol
# GULP energy per Si atom -5585.859377 kJ/mol
# Density = 2.390845 g / cm^3
# Si number density = 23.962991 Si / 1000 Ang^3
#
#
#
# Elastic Constant Matrix: (Units=GPa)
#
#
# Indices 1 2 3 4 5 6 
#
# 1 135.4658 20.3167 38.4798 0.0000 0.0000 0.0000
# 2 20.3167 57.8071 1.7468 0.0000 0.0000 0.0000
# 3 38.4798 1.7468 159.0276 0.0000 0.0000 0.0000
# 4 0.0000 0.0000 0.0000 9.5813 0.0000 0.0000
# 5 0.0000 0.0000 0.0000 0.0000 29.2589 0.0000
# 6 0.0000 0.0000 0.0000 0.0000 0.0000 8.1132
#
#
#
# Elastic Compliance Matrix: (Units=1/GPa)
#
#
# Indices 1 2 3 4 5 6 
#
# 1 0.008382 -0.002886 -0.001996 0.000000 0.000000 0.000000
# 2 -0.002886 0.018298 0.000497 0.000000 0.000000 0.000000
# 3 -0.001996 0.000497 0.006766 0.000000 0.000000 0.000000
# 4 0.000000 0.000000 0.000000 0.104370 0.000000 0.000000
# 5 0.000000 0.000000 0.000000 0.000000 0.034178 0.000000
# 6 0.000000 0.000000 0.000000 0.000000 0.000000 0.123257
#
#
# Mechanical properties :
#
#
# Convention : Reuss Voigt Hill
#
# Bulk Modulus (GPa) = 40.52490 52.59854 46.56172
# Shear Modulus (GPa) = 16.01306 28.84116 22.42711
#
# Velocity S-wave (km/s) = 2.58784 3.47302 3.06258
# Velocity P-wave (km/s) = 5.08698 6.17090 5.65497
#
# Compressibility (1/GPa) = 0.02467619
#
# Stress axis : x y z
#
# Youngs Moduli (GPa) = 119.30621 54.65073 147.80151
#
# Poissons Ratio (x) = 0.15769 0.29508
# Poissons Ratio (y) = 0.34426 -0.07349
# Poissons Ratio (z) = 0.23819 -0.02717
#
# Static dielectric constant tensor:
#      x y z
#    x 1.958930 0.000000 0.000000 
#    y 0.000000 1.986540 0.000000 
#    z 0.000000 0.000000 1.916570 
# 
# From -- ./inp_files/4062.got.cif
#   From: 2010.05.17/outbox.cif.g08.bks.cpg/sg56_3_cif.got.tgz:4062.got - 2010.06.03 13:42:01.
