data_PCOD9430605
_publ_section_title
;
Structure prediction by ZEFSAII (Michael W. Deem and Ramdas Pophale) SiO2 
 PCOD9430605
Probable space group: P C C N
;
_chemical_formula_sum "Si O2"
_cell_formula_units_Z 60
_cell_length_a 25.036205
_cell_length_b 6.295355
_cell_length_c 18.403657
_cell_angle_alpha 90.000000
_cell_angle_beta 90.000000
_cell_angle_gamma 90.000000
_cell_volume 2900.633476
_symmetry_space_group_name_H-M "P C C N"
_symmetry_group_IT_number 56
_symmetry_cell_setting 'orthorhombic'
loop_
_space_group_symop_operation_xyz
x,y,z
1/2-x,1/2-y,z
1/2+x,-y,1/2-z
-x,1/2+y,1/2-z
-x,-y,-z
1/2+x,1/2+y,-z
1/2-x,y,1/2+z
x,1/2-y,1/2+z
loop_
_atom_site_type_symbol
_atom_site_label
_atom_site_fract_x
_atom_site_fract_y
_atom_site_fract_z
Si Si1 0.878867 0.659982 0.581128
Si Si2 0.114253 0.537923 0.809869
Si Si3 0.066671 0.308434 0.204322
Si Si4 0.304310 0.362819 0.043750
Si Si5 0.698067 0.378340 0.179041
Si Si6 0.680222 0.578430 0.325156
Si Si7 0.750000 0.250000 0.416084
Si Si8 0.467387 0.912944 0.340672
O O1 0.857603 0.689796 0.500002
O O2 0.836536 0.496764 0.618043
O O3 0.937107 0.558519 0.599285
O O4 0.874160 0.883892 0.622423
O O5 0.096319 0.379214 0.747475
O O6 0.163044 0.686395 0.787773
O O7 0.068680 0.705025 0.829955
O O8 0.115858 0.448424 0.175082
O O9 0.035760 0.448199 0.265761
O O10 0.026100 0.187540 0.150845
O O11 0.250000 0.250000 0.014906
O O12 0.310138 0.290858 0.127691
O O13 0.290434 0.608196 0.038608
O O14 0.750000 0.250000 0.154064
O O15 0.702072 0.553212 0.243300
O O16 0.712843 0.402236 0.368832
#
# Coordination Sequence:
#
# PCOD9430605 Si02
#       8
#     8   8   8   8   8   8   4   8
#     4  10  23  41  58  94 122 166 211 260 319 379
#     4  10  20  35  59  87 126 152 199 258 315 377
#     4  11  20  36  61  94 123 160 208 258 325 373
#     4  10  25  42  62  84 127 177 214 254 317 391
#     4  11  23  34  60  94 125 157 207 268 324 369
#     4  11  22  38  59  95 121 167 213 258 316 385
#     4  10  24  42  60  82 126 174 212 254 318 390
#     4  10  20  35  61  92 120 160 204 260 322 375
#
# _framework density 20.685136
#
# number of rings (size 3 to 8) (size 9 to 14) (size 15 to 20)
#    0.000    1.600    6.000    0.000    4.667    4.267 
#    0.000    0.667    0.000    1.600    0.000    0.000 
#    0.000    0.000    0.000    0.000    0.000    0.000 
#
# Total GULP energy -334387.402587 kJ/mol
# GULP energy per Si atom -5573.123376 kJ/mol
# Density = 2.063806 g / cm^3
# Si number density = 20.685136 Si / 1000 Ang^3
#
#
#
# Elastic Constant Matrix: (Units=GPa)
#
#
# Indices 1 2 3 4 5 6 
#
# 1 65.1837 10.3660 -3.6914 0.0000 0.0000 0.0000
# 2 10.3660 81.8259 9.7369 0.0000 0.0000 0.0000
# 3 -3.6914 9.7369 29.1168 0.0000 0.0000 0.0000
# 4 0.0000 0.0000 0.0000 6.7178 0.0000 0.0000
# 5 0.0000 0.0000 0.0000 0.0000 17.5393 0.0000
# 6 0.0000 0.0000 0.0000 0.0000 0.0000 32.7791
#
#
#
# Elastic Compliance Matrix: (Units=1/GPa)
#
#
# Indices 1 2 3 4 5 6 
#
# 1 0.015872 -0.002343 0.002796 0.000000 0.000000 0.000000
# 2 -0.002343 0.013074 -0.004669 0.000000 0.000000 0.000000
# 3 0.002796 -0.004669 0.036260 0.000000 0.000000 0.000000
# 4 0.000000 0.000000 0.000000 0.148857 0.000000 0.000000
# 5 0.000000 0.000000 0.000000 0.000000 0.057015 0.000000
# 6 0.000000 0.000000 0.000000 0.000000 0.000000 0.030507
#
#
# Mechanical properties :
#
#
# Convention : Reuss Voigt Hill
#
# Bulk Modulus (GPa) = 17.61400 23.21659 20.41530
# Shear Modulus (GPa) = 15.20021 22.05490 18.62756
#
# Velocity S-wave (km/s) = 2.71373 3.26884 3.00414
# Velocity P-wave (km/s) = 4.28403 5.04929 4.68232
#
# Compressibility (1/GPa) = 0.05677301
#
# Stress axis : x y z
#
# Youngs Moduli (GPa) = 63.00297 76.49039 27.57841
#
# Poissons Ratio (x) = 0.17925 -0.07711
# Poissons Ratio (y) = 0.14764 0.12876
# Poissons Ratio (z) = -0.17615 0.35713
#
# Static dielectric constant tensor:
#      x y z
#    x 1.817000 0.000000 0.000000 
#    y 0.000000 1.744270 0.000000 
#    z 0.000000 0.000000 1.764340 
# 
# From -- ./inp_files/19611.got.cif
#   From: 2010.05.17/outbox.cif.g08.bks.cpg/sg56_10_cif.got.tgz:19611.got - 2010.06.03 13:42:01.
