data_PCOD9430674
_publ_section_title
;
Structure prediction by ZEFSAII (Michael W. Deem and Ramdas Pophale) SiO2 
 PCOD9430674
Probable space group: P C C N
;
_chemical_formula_sum "Si O2"
_cell_formula_units_Z 64
_cell_length_a 17.973346
_cell_length_b 9.418263
_cell_length_c 19.425196
_cell_angle_alpha 90.000000
_cell_angle_beta 90.000000
_cell_angle_gamma 90.000000
_cell_volume 3288.252494
_symmetry_space_group_name_H-M "P C C N"
_symmetry_group_IT_number 56
_symmetry_cell_setting 'orthorhombic'
loop_
_space_group_symop_operation_xyz
x,y,z
1/2-x,1/2-y,z
1/2+x,-y,1/2-z
-x,1/2+y,1/2-z
-x,-y,-z
1/2+x,1/2+y,-z
1/2-x,y,1/2+z
x,1/2-y,1/2+z
loop_
_atom_site_type_symbol
_atom_site_label
_atom_site_fract_x
_atom_site_fract_y
_atom_site_fract_z
Si Si1 0.961125 0.908492 0.815713
Si Si2 0.666018 0.280527 0.883655
Si Si3 0.572051 0.964859 0.457444
Si Si4 0.144311 0.035973 0.650927
Si Si5 0.802216 0.500456 0.274682
Si Si6 0.949404 0.824752 0.226207
Si Si7 0.834814 0.794725 0.489460
Si Si8 0.824703 0.656180 0.140830
O O1 0.962316 0.873531 0.894702
O O2 0.996067 0.800519 0.762224
O O3 0.872970 0.907863 0.799282
O O4 0.997473 0.061851 0.808655
O O5 0.750000 0.250000 0.912696
O O6 0.619340 0.399265 0.927300
O O7 0.679881 0.348843 0.808050
O O8 0.629899 0.127382 0.871194
O O9 0.623725 0.855512 0.497468
O O10 0.500000 0.000000 0.500000
O O11 0.090194 0.095884 0.709636
O O12 0.142887 0.122419 0.579583
O O13 0.226079 0.045551 0.687678
O O14 0.805648 0.526498 0.192990
O O15 0.890648 0.751993 0.174213
O O16 0.750000 0.750000 0.479566
O O17 0.843160 0.878851 0.561597
O O18 0.750000 0.750000 0.140223
#
# Coordination Sequence:
#
# PCOD9430674 Si02
#       8
#     8   8   8   8   8   8   8   8
#     4  10  22  36  57  88 117 160 204 253 313 369
#     4   9  20  37  64  94 120 162 217 265 314 377
#     4  11  22  41  62  89 130 170 209 261 333 387
#     4  11  21  38  68  90 118 165 220 264 305 377
#     4   9  19  37  64  87 122 156 205 265 309 365
#     4  11  22  37  61  85 124 160 205 258 311 376
#     4  11  22  37  65  97 121 167 213 262 312 381
#     4  10  20  36  60  92 125 152 207 261 312 371
#
# _framework density 19.463225000000001
#
# number of rings (size 3 to 8) (size 9 to 14) (size 15 to 20)
#    0.000    1.750    2.500    3.000    5.250    0.000 
#    0.000    3.125    2.750    3.750    0.000    0.000 
#    0.000    0.000    0.000    0.000    0.000    0.000 
#
# Total GULP energy -356411.952914 kJ/mol
# GULP energy per Si atom -5568.936764 kJ/mol
# Density = 1.941893 g / cm^3
# Si number density = 19.463225 Si / 1000 Ang^3
#
#
#
# Elastic Constant Matrix: (Units=GPa)
#
#
# Indices 1 2 3 4 5 6 
#
# 1 62.7172 21.4580 21.7087 0.0000 0.0000 0.0000
# 2 21.4580 82.9614 21.1361 0.0000 0.0000 0.0000
# 3 21.7087 21.1361 111.7695 0.0000 0.0000 0.0000
# 4 0.0000 0.0000 0.0000 29.3413 0.0000 0.0000
# 5 0.0000 0.0000 0.0000 0.0000 22.9423 0.0000
# 6 0.0000 0.0000 0.0000 0.0000 0.0000 31.2832
#
#
#
# Elastic Compliance Matrix: (Units=1/GPa)
#
#
# Indices 1 2 3 4 5 6 
#
# 1 0.018286 -0.004018 -0.002792 0.000000 0.000000 0.000000
# 2 -0.004018 0.013547 -0.001781 0.000000 0.000000 0.000000
# 3 -0.002792 -0.001781 0.009826 0.000000 0.000000 0.000000
# 4 0.000000 0.000000 0.000000 0.034082 0.000000 0.000000
# 5 0.000000 0.000000 0.000000 0.000000 0.043588 0.000000
# 6 0.000000 0.000000 0.000000 0.000000 0.000000 0.031966
#
#
# Mechanical properties :
#
#
# Convention : Reuss Voigt Hill
#
# Bulk Modulus (GPa) = 40.85636 42.89488 41.87562
# Shear Modulus (GPa) = 28.30687 29.58971 28.94829
#
# Velocity S-wave (km/s) = 3.81777 3.90332 3.86078
# Velocity P-wave (km/s) = 6.36168 6.51163 6.43709
#
# Compressibility (1/GPa) = 0.02447600
#
# Stress axis : x y z
#
# Youngs Moduli (GPa) = 54.68743 73.81721 101.77010
#
# Poissons Ratio (x) = 0.29662 0.28411
# Poissons Ratio (y) = 0.21975 0.18128
# Poissons Ratio (z) = 0.15267 0.13149
#
# Static dielectric constant tensor:
#      x y z
#    x 1.699100 0.000000 0.000000 
#    y 0.000000 1.734360 0.000000 
#    z 0.000000 0.000000 1.717210 
# 
# From -- ./inp_files/19334.got.cif
#   From: 2010.05.17/outbox.cif.g08.bks.cpg/sg56_10_cif.got.tgz:19334.got - 2010.06.03 13:42:01.
