data_PCOD9430393
_publ_section_title
;
Structure prediction by ZEFSAII (Michael W. Deem and Ramdas Pophale) SiO2 
 PCOD9430393
Probable space group: P C C N
;
_chemical_formula_sum "Si O2"
_cell_formula_units_Z 48
_cell_length_a 9.650085
_cell_length_b 9.927108
_cell_length_c 27.369259
_cell_angle_alpha 90.000000
_cell_angle_beta 90.000000
_cell_angle_gamma 90.000000
_cell_volume 2621.904838
_symmetry_space_group_name_H-M "P C C N"
_symmetry_group_IT_number 56
_symmetry_cell_setting 'orthorhombic'
loop_
_space_group_symop_operation_xyz
x,y,z
1/2-x,1/2-y,z
1/2+x,-y,1/2-z
-x,1/2+y,1/2-z
-x,-y,-z
1/2+x,1/2+y,-z
1/2-x,y,1/2+z
x,1/2-y,1/2+z
loop_
_atom_site_type_symbol
_atom_site_label
_atom_site_fract_x
_atom_site_fract_y
_atom_site_fract_z
Si Si1 0.661363 0.528632 0.890867
Si Si2 0.133110 0.366421 0.234988
Si Si3 0.615976 0.394349 0.989312
Si Si4 0.330714 0.891316 0.714610
Si Si5 0.057895 0.317999 0.121153
Si Si6 0.593267 0.101136 0.030724
O O1 0.646715 0.417061 0.932422
O O2 0.657672 0.454858 0.839236
O O3 0.805750 0.606880 0.899439
O O4 0.557993 0.657299 0.888883
O O5 0.250000 0.250000 0.244712
O O6 0.225555 0.502065 0.240601
O O7 0.077399 0.342653 0.179116
O O8 0.988204 0.374169 0.264953
O O9 0.500000 0.500000 0.000000
O O10 0.573328 0.246062 0.005016
O O11 0.748580 0.433546 0.021072
O O12 0.250000 0.750000 0.714271
O O13 0.938682 0.383714 0.088186
O O14 0.500000 0.000000 0.000000
#
# Coordination Sequence:
#
# PCOD9430393 Si02
#       6
#     8   8   8   8   8   8
#     4  10  20  39  65  85 122 171 210 249 320 390
#     4  11  22  44  66  95 131 172 218 269 334 396
#     4  11  23  38  60  91 127 158 203 262 312 366
#     4  11  24  39  68  96 125 170 219 273 325 386
#     4  10  19  40  66  86 120 173 211 248 321 390
#     4  11  23  37  63  93 121 160 212 256 301 385
#
# _framework density 18.307300999999999
#
# number of rings (size 3 to 8) (size 9 to 14) (size 15 to 20)
#    0.000    1.333    6.667    1.000    2.333    0.667 
#    6.000    0.000    0.000    0.000    0.000    0.000 
#    0.000    0.000    0.000    0.000    0.000    0.000 
#
# Total GULP energy -267270.963778 kJ/mol
# GULP energy per Si atom -5568.145079 kJ/mol
# Density = 1.826563 g / cm^3
# Si number density = 18.307301 Si / 1000 Ang^3
#
#
#
# Elastic Constant Matrix: (Units=GPa)
#
#
# Indices 1 2 3 4 5 6 
#
# 1 136.9384 81.0163 50.5639 0.0000 0.0000 0.0000
# 2 81.0163 87.6248 20.7442 0.0000 0.0000 0.0000
# 3 50.5639 20.7442 67.8511 0.0000 0.0000 0.0000
# 4 0.0000 0.0000 0.0000 20.5337 0.0000 0.0000
# 5 0.0000 0.0000 0.0000 0.0000 32.2333 0.0000
# 6 0.0000 0.0000 0.0000 0.0000 0.0000 32.8933
#
#
#
# Elastic Compliance Matrix: (Units=1/GPa)
#
#
# Indices 1 2 3 4 5 6 
#
# 1 0.021560 -0.017389 -0.010750 0.000000 0.000000 0.000000
# 2 -0.017389 0.026327 0.004909 0.000000 0.000000 0.000000
# 3 -0.010750 0.004909 0.021249 0.000000 0.000000 0.000000
# 4 0.000000 0.000000 0.000000 0.048700 0.000000 0.000000
# 5 0.000000 0.000000 0.000000 0.000000 0.031024 0.000000
# 6 0.000000 0.000000 0.000000 0.000000 0.000000 0.030401
#
#
# Mechanical properties :
#
#
# Convention : Reuss Voigt Hill
#
# Bulk Modulus (GPa) = 44.09949 66.34033 55.21991
# Shear Modulus (GPa) = 21.43356 26.47141 23.95249
#
# Velocity S-wave (km/s) = 3.42536 3.80669 3.62105
# Velocity P-wave (km/s) = 6.30752 7.45902 6.90731
#
# Compressibility (1/GPa) = 0.02267600
#
# Stress axis : x y z
#
# Youngs Moduli (GPa) = 46.38305 37.98346 47.06189
#
# Poissons Ratio (x) = 0.66048 0.50593
# Poissons Ratio (y) = 0.80654 -0.23104
# Poissons Ratio (z) = 0.49863 -0.18647
#
# Static dielectric constant tensor:
#      x y z
#    x 1.664950 0.000000 0.000000 
#    y 0.000000 1.675990 0.000000 
#    z 0.000000 0.000000 1.681910 
# 
# From -- ./inp_files/23219.got.cif
#   From: 2010.05.17/outbox.cif.g08.bks.cpg/sg56_12_cif.got.tgz:23219.got - 2010.06.03 13:42:01.
