data_PCOD9430408
_publ_section_title
;
Structure prediction by ZEFSAII (Michael W. Deem and Ramdas Pophale) SiO2 
 PCOD9430408
Probable space group: P C C N
;
_chemical_formula_sum "Si O2"
_cell_formula_units_Z 64
_cell_length_a 7.986211
_cell_length_b 22.608281
_cell_length_c 15.051900
_cell_angle_alpha 90.000000
_cell_angle_beta 90.000000
_cell_angle_gamma 90.000000
_cell_volume 2717.688315
_symmetry_space_group_name_H-M "P C C N"
_symmetry_group_IT_number 56
_symmetry_cell_setting 'orthorhombic'
loop_
_space_group_symop_operation_xyz
x,y,z
1/2-x,1/2-y,z
1/2+x,-y,1/2-z
-x,1/2+y,1/2-z
-x,-y,-z
1/2+x,1/2+y,-z
1/2-x,y,1/2+z
x,1/2-y,1/2+z
loop_
_atom_site_type_symbol
_atom_site_label
_atom_site_fract_x
_atom_site_fract_y
_atom_site_fract_z
Si Si1 0.445075 0.770636 0.338991
Si Si2 0.512177 0.159616 0.242862
Si Si3 0.290258 0.617167 0.885060
Si Si4 0.148553 0.497069 0.836120
Si Si5 0.911258 0.341551 0.429413
Si Si6 0.723359 0.893843 0.025910
Si Si7 0.571107 0.771241 0.024347
Si Si8 0.296848 0.063899 0.173329
O O1 0.250000 0.750000 0.351779
O O2 0.510814 0.730177 0.259418
O O3 0.431615 0.841434 0.338354
O O4 0.554303 0.750143 0.422325
O O5 0.617563 0.141160 0.156366
O O6 0.623542 0.142230 0.327869
O O7 0.345749 0.121866 0.231745
O O8 0.282866 0.548346 0.862315
O O9 0.305334 0.632537 0.989359
O O10 0.169930 0.445693 0.908230
O O11 0.177558 0.473977 0.736368
O O12 0.965453 0.525482 0.839626
O O13 0.098283 0.366946 0.445085
O O14 0.928132 0.270263 0.434553
O O15 0.584882 0.841539 0.028836
O O16 0.752005 0.916635 0.925401
O O17 0.750000 0.750000 0.060515
#
# Coordination Sequence:
#
# PCOD9430408 Si02
#       8
#     8   8   8   8   8   8   8   8
#     4   9  17  37  64  87 127 168 209 264 342 385
#     4  10  19  41  66  93 131 179 217 280 341 400
#     4   9  22  39  63  95 135 173 223 274 339 401
#     4  11  25  43  66  98 133 184 231 276 333 417
#     4  10  21  40  69 101 131 173 232 280 342 414
#     4  11  22  42  71  94 135 181 224 282 350 397
#     4   9  19  37  62  96 127 162 217 273 329 399
#     4  11  24  43  67  95 138 173 227 284 333 407
#
# _framework density 23.549426
#
# number of rings (size 3 to 8) (size 9 to 14) (size 15 to 20)
#    0.000    2.000    2.500    0.375    1.750    2.500 
#    2.250   16.875    0.000    0.000    0.000    0.000 
#    0.000    0.000    0.000    0.000    0.000    0.000 
#
# Total GULP energy -357188.670050 kJ/mol
# GULP energy per Si atom -5581.072970 kJ/mol
# Density = 2.349583 g / cm^3
# Si number density = 23.549426 Si / 1000 Ang^3
#
#
#
# Elastic Constant Matrix: (Units=GPa)
#
#
# Indices 1 2 3 4 5 6 
#
# 1 61.0550 16.6194 0.2357 0.0000 0.0000 0.0000
# 2 16.6194 139.2953 16.0851 0.0000 0.0000 0.0000
# 3 0.2357 16.0851 95.7765 0.0000 0.0000 0.0000
# 4 0.0000 0.0000 0.0000 42.7131 0.0000 0.0000
# 5 0.0000 0.0000 0.0000 0.0000 28.2083 0.0000
# 6 0.0000 0.0000 0.0000 0.0000 0.0000 10.6003
#
#
#
# Elastic Compliance Matrix: (Units=1/GPa)
#
#
# Indices 1 2 3 4 5 6 
#
# 1 0.016937 -0.002056 0.000304 0.000000 0.000000 0.000000
# 2 -0.002056 0.007571 -0.001266 0.000000 0.000000 0.000000
# 3 0.000304 -0.001266 0.010653 0.000000 0.000000 0.000000
# 4 0.000000 0.000000 0.000000 0.023412 0.000000 0.000000
# 5 0.000000 0.000000 0.000000 0.000000 0.035451 0.000000
# 6 0.000000 0.000000 0.000000 0.000000 0.000000 0.094337
#
#
# Mechanical properties :
#
#
# Convention : Reuss Voigt Hill
#
# Bulk Modulus (GPa) = 34.33679 40.22304 37.27991
# Shear Modulus (GPa) = 24.49714 33.85011 29.17362
#
# Velocity S-wave (km/s) = 3.22878 3.79543 3.52351
# Velocity P-wave (km/s) = 5.33970 6.02697 5.69372
#
# Compressibility (1/GPa) = 0.02912328
#
# Stress axis : x y z
#
# Youngs Moduli (GPa) = 59.04197 132.09149 93.87106
#
# Poissons Ratio (x) = 0.27156 -0.02850
# Poissons Ratio (y) = 0.12138 0.11888
# Poissons Ratio (z) = -0.01792 0.16728
#
# Static dielectric constant tensor:
#      x y z
#    x 1.942190 0.000000 0.000000 
#    y 0.000000 1.991290 0.000000 
#    z 0.000000 0.000000 1.877190 
# 
# From -- ./inp_files/11030.got.cif
#   From: 2010.05.17/outbox.cif.g08.bks.cpg/sg56_6_cif.got.tgz:11030.got - 2010.06.03 13:42:01.
