data_PCOD9430392
_publ_section_title
;
Structure prediction by ZEFSAII (Michael W. Deem and Ramdas Pophale) SiO2 
 PCOD9430392
Probable space group: P C C N
;
_chemical_formula_sum "Si O2"
_cell_formula_units_Z 48
_cell_length_a 19.770816
_cell_length_b 10.812537
_cell_length_c 8.221673
_cell_angle_alpha 90.000000
_cell_angle_beta 90.000000
_cell_angle_gamma 90.000000
_cell_volume 1757.569067
_symmetry_space_group_name_H-M "P C C N"
_symmetry_group_IT_number 56
_symmetry_cell_setting 'orthorhombic'
loop_
_space_group_symop_operation_xyz
x,y,z
1/2-x,1/2-y,z
1/2+x,-y,1/2-z
-x,1/2+y,1/2-z
-x,-y,-z
1/2+x,1/2+y,-z
1/2-x,y,1/2+z
x,1/2-y,1/2+z
loop_
_atom_site_type_symbol
_atom_site_label
_atom_site_fract_x
_atom_site_fract_y
_atom_site_fract_z
Si Si1 0.543895 0.938300 0.816331
Si Si2 0.751353 0.003416 0.787416
Si Si3 0.250000 0.750000 0.993626
Si Si4 0.368364 0.611496 0.871858
Si Si5 0.900980 0.774812 0.022789
Si Si6 0.598575 0.003084 0.289007
Si Si7 0.750000 0.750000 0.483559
O O1 0.570972 0.857481 0.965977
O O2 0.560823 0.850876 0.661257
O O3 0.463751 0.954879 0.818394
O O4 0.579014 0.070716 0.768495
O O5 0.691016 0.011330 0.659608
O O6 0.826609 0.010321 0.716713
O O7 0.745472 0.874986 0.879308
O O8 0.742817 0.126716 0.897693
O O9 0.319789 0.730720 0.891398
O O10 0.401056 0.588840 0.047386
O O11 0.822540 0.756341 0.069548
O O12 0.907557 0.866077 0.866001
#
# Coordination Sequence:
#
# PCOD9430392 Si02
#       7
#     8   8   4   8   8   8   4
#     4  11  22  45  68  99 139 188 231 293 360 429
#     4  10  20  41  65  97 136 172 240 283 349 421
#     4  10  22  38  58 102 132 178 224 284 346 420
#     4  10  19  40  65  91 135 180 226 282 352 418
#     4  10  21  40  69  96 137 180 236 285 363 413
#     4   9  22  43  64  97 133 185 227 284 367 413
#     4  10  20  40  66 106 128 182 230 312 338 414
#
# _framework density 27.310448999999998
#
# number of rings (size 3 to 8) (size 9 to 14) (size 15 to 20)
#    0.000    2.000    1.667    3.500    0.000    0.667 
#   36.000    0.833    0.000    0.000    0.000    3.500 
#    0.000    0.000    0.000    0.000    0.000    0.000 
#
# Total GULP energy -268721.048648 kJ/mol
# GULP energy per Si atom -5598.355180 kJ/mol
# Density = 2.724829 g / cm^3
# Si number density = 27.310449 Si / 1000 Ang^3
#
#
#
# Elastic Constant Matrix: (Units=GPa)
#
#
# Indices 1 2 3 4 5 6 
#
# 1 172.4956 32.3802 17.6260 0.0000 0.0000 0.0000
# 2 32.3802 176.1649 48.9540 0.0000 0.0000 0.0000
# 3 17.6260 48.9540 50.9384 0.0000 0.0000 0.0000
# 4 0.0000 0.0000 0.0000 62.2142 0.0000 0.0000
# 5 0.0000 0.0000 0.0000 0.0000 34.0472 0.0000
# 6 0.0000 0.0000 0.0000 0.0000 0.0000 43.6649
#
#
#
# Elastic Compliance Matrix: (Units=1/GPa)
#
#
# Indices 1 2 3 4 5 6 
#
# 1 0.006077 -0.000727 -0.001404 0.000000 0.000000 0.000000
# 2 -0.000727 0.007832 -0.007275 0.000000 0.000000 0.000000
# 3 -0.001404 -0.007275 0.027109 0.000000 0.000000 0.000000
# 4 0.000000 0.000000 0.000000 0.016073 0.000000 0.000000
# 5 0.000000 0.000000 0.000000 0.000000 0.029371 0.000000
# 6 0.000000 0.000000 0.000000 0.000000 0.000000 0.022902
#
#
# Mechanical properties :
#
#
# Convention : Reuss Voigt Hill
#
# Bulk Modulus (GPa) = 45.03384 66.39104 55.71244
# Shear Modulus (GPa) = 36.87886 48.02785 42.45335
#
# Velocity S-wave (km/s) = 3.67871 4.19810 3.94696
# Velocity P-wave (km/s) = 5.87956 6.91819 6.41991
#
# Compressibility (1/GPa) = 0.02220552
#
# Stress axis : x y z
#
# Youngs Moduli (GPa) = 164.55004 127.68503 36.88767
#
# Poissons Ratio (x) = 0.09280 0.05181
# Poissons Ratio (y) = 0.11959 0.26837
# Poissons Ratio (z) = 0.23110 0.92893
#
# Static dielectric constant tensor:
#      x y z
#    x 2.062380 0.000000 0.000000 
#    y 0.000000 2.157050 0.000000 
#    z 0.000000 0.000000 2.227950 
# 
# From -- ./inp_files/8326.got.cif
#   From: 2010.05.17/outbox.cif.g08.bks.cpg/sg56_5_cif.got.tgz:8326.got - 2010.06.03 13:42:01.
