data_PCOD9430041
_publ_section_title
;
Structure prediction by ZEFSAII (Michael W. Deem and Ramdas Pophale) SiO2 
 PCOD9430041
Probable space group: P C C N
;
_chemical_formula_sum "Si O2"
_cell_formula_units_Z 56
_cell_length_a 14.222626
_cell_length_b 9.727245
_cell_length_c 18.238838
_cell_angle_alpha 90.000000
_cell_angle_beta 90.000000
_cell_angle_gamma 90.000000
_cell_volume 2523.287931
_symmetry_space_group_name_H-M "P C C N"
_symmetry_group_IT_number 56
_symmetry_cell_setting 'orthorhombic'
loop_
_space_group_symop_operation_xyz
x,y,z
1/2-x,1/2-y,z
1/2+x,-y,1/2-z
-x,1/2+y,1/2-z
-x,-y,-z
1/2+x,1/2+y,-z
1/2-x,y,1/2+z
x,1/2-y,1/2+z
loop_
_atom_site_type_symbol
_atom_site_label
_atom_site_fract_x
_atom_site_fract_y
_atom_site_fract_z
Si Si1 0.772185 0.048158 0.227840
Si Si2 0.760573 0.455791 0.394540
Si Si3 0.427307 0.938684 0.828254
Si Si4 0.094534 0.765269 0.586359
Si Si5 0.031990 0.675861 0.252816
Si Si6 0.401315 0.155104 0.943435
Si Si7 0.750000 0.750000 0.940483
Si Si8 0.250000 0.250000 0.825066
O O1 0.746555 0.087173 0.310171
O O2 0.683104 0.096753 0.180582
O O3 0.875719 0.103993 0.212835
O O4 0.773737 0.884241 0.220421
O O5 0.842665 0.366669 0.430117
O O6 0.661368 0.398167 0.425485
O O7 0.782538 0.616267 0.397198
O O8 0.488569 0.805673 0.805525
O O9 0.457050 0.057758 0.769008
O O10 0.434122 0.008205 0.908547
O O11 0.062525 0.767128 0.672228
O O12 0.998554 0.768680 0.542322
O O13 0.339197 0.217475 0.876621
O O14 0.331399 0.181500 0.009983
#
# Coordination Sequence:
#
# PCOD9430041 Si02
#       8
#     8   8   8   8   8   8   4   4
#     4  10  19  32  57  84 120 146 190 233 290 335
#     4  10  20  36  61  84 107 149 195 245 284 333
#     4  10  20  35  57  84 119 153 183 225 293 352
#     4   9  19  38  59  80 115 148 187 233 294 337
#     4  10  20  33  57  88 120 151 183 234 283 355
#     4   9  21  39  57  78 120 155 183 234 292 342
#     4  11  23  40  60  82 113 147 202 246 290 339
#     4   9  19  32  56  84 117 159 180 226 290 355
#
# _framework density 22.193268
#
# number of rings (size 3 to 8) (size 9 to 14) (size 15 to 20)
#    0.000    2.286    1.429    0.857    6.000    1.143 
#    2.571    0.000   18.857    0.000    0.000    0.000 
#    0.000    0.000    0.000    0.000    0.000    0.000 
#
# Total GULP energy -312253.930042 kJ/mol
# GULP energy per Si atom -5575.963036 kJ/mol
# Density = 2.214275 g / cm^3
# Si number density = 22.193268 Si / 1000 Ang^3
#
#
#
# Elastic Constant Matrix: (Units=GPa)
#
#
# Indices 1 2 3 4 5 6 
#
# 1 90.7632 6.7534 0.1276 0.0000 0.0000 0.0000
# 2 6.7534 128.7017 8.2347 0.0000 0.0000 0.0000
# 3 0.1276 8.2347 17.9638 0.0000 0.0000 0.0000
# 4 0.0000 0.0000 0.0000 20.3151 0.0000 0.0000
# 5 0.0000 0.0000 0.0000 0.0000 -54.9130 0.0000
# 6 0.0000 0.0000 0.0000 0.0000 0.0000 22.1618
#
#
#
# Elastic Compliance Matrix: (Units=1/GPa)
#
#
# Indices 1 2 3 4 5 6 
#
# 1 0.011062 -0.000593 0.000193 0.000000 0.000000 0.000000
# 2 -0.000593 0.008036 -0.003680 0.000000 0.000000 0.000000
# 3 0.000193 -0.003680 0.057353 0.000000 0.000000 0.000000
# 4 0.000000 0.000000 0.000000 0.049225 0.000000 0.000000
# 5 0.000000 0.000000 0.000000 0.000000 -0.018211 0.000000
# 6 0.000000 0.000000 0.000000 0.000000 0.000000 0.045123
#
#
# Mechanical properties :
#
#
# Convention : Reuss Voigt Hill
#
# Bulk Modulus (GPa) = 14.64299 29.74003 22.19151
# Shear Modulus (GPa) = 27.24644 12.33363 19.79004
#
# Velocity S-wave (km/s) = 3.50764 2.35997 2.98940
# Velocity P-wave (km/s) = 4.79760 4.56678 4.68361
#
# Compressibility (1/GPa) = 0.06829204
#
# Stress axis : x y z
#
# Youngs Moduli (GPa) = 90.40349 124.43299 17.43593
#
# Poissons Ratio (x) = 0.07376 -0.00337
# Poissons Ratio (y) = 0.05359 0.06416
# Poissons Ratio (z) = -0.01746 0.45788
#
# Static dielectric constant tensor:
#      x y z
#    x 1.846490 0.000000 0.000000 
#    y 0.000000 1.869890 0.000000 
#    z 0.000000 0.000000 1.804080 
# 
# From -- ./inp_files/19158.got.cif
#   From: 2010.05.17/outbox.cif.g08.bks.cpg/sg56_10_cif.got.tgz:19158.got - 2010.06.03 13:42:01.
