data_PCOD9430293
_publ_section_title
;
Structure prediction by ZEFSAII (Michael W. Deem and Ramdas Pophale) SiO2 
 PCOD9430293
Probable space group: P C C N
;
_chemical_formula_sum "Si O2"
_cell_formula_units_Z 52
_cell_length_a 17.147142
_cell_length_b 8.474499
_cell_length_c 16.180815
_cell_angle_alpha 90.000000
_cell_angle_beta 90.000000
_cell_angle_gamma 90.000000
_cell_volume 2351.289853
_symmetry_space_group_name_H-M "P C C N"
_symmetry_group_IT_number 56
_symmetry_cell_setting 'orthorhombic'
loop_
_space_group_symop_operation_xyz
x,y,z
1/2-x,1/2-y,z
1/2+x,-y,1/2-z
-x,1/2+y,1/2-z
-x,-y,-z
1/2+x,1/2+y,-z
1/2-x,y,1/2+z
x,1/2-y,1/2+z
loop_
_atom_site_type_symbol
_atom_site_label
_atom_site_fract_x
_atom_site_fract_y
_atom_site_fract_z
Si Si1 0.676521 0.898372 0.884393
Si Si2 0.834332 0.322455 0.774437
Si Si3 0.643942 0.578799 0.940449
Si Si4 0.451790 0.539803 0.211324
Si Si5 0.250000 0.250000 0.899171
Si Si6 0.393496 0.228445 0.281237
Si Si7 0.204777 0.913506 0.913324
O O1 0.641751 0.771559 0.950892
O O2 0.767745 0.932391 0.901904
O O3 0.658389 0.800649 0.800493
O O4 0.643113 0.065496 0.852060
O O5 0.750000 0.250000 0.795275
O O6 0.896708 0.185115 0.764061
O O7 0.820204 0.399866 0.683238
O O8 0.579056 0.522442 0.876607
O O9 0.639498 0.462446 0.019409
O O10 0.436593 0.395234 0.272535
O O11 0.539763 0.598169 0.211193
O O12 0.168813 0.231113 0.852413
O O13 0.241814 0.431871 0.929139
O O14 0.250000 0.750000 0.932248
#
# Coordination Sequence:
#
# PCOD9430293 Si02
#       7
#     8   8   8   8   4   8   8
#     4  10  19  37  63  91 126 174 222 275 322 396
#     4  11  20  37  67  97 129 176 226 279 336 411
#     4  10  22  40  63  99 136 171 223 281 340 399
#     4  11  23  39  65 101 133 170 228 288 340 402
#     4  12  22  44  68  94 136 190 226 282 340 420
#     4  11  22  39  66  99 132 172 236 285 338 398
#     4  11  25  40  67 103 138 180 228 277 344 421
#
# _framework density 22.11552
#
# number of rings (size 3 to 8) (size 9 to 14) (size 15 to 20)
#    0.000    1.231    3.077    5.538    2.154    0.000 
#    0.000    0.769    3.385    1.846    0.000    0.000 
#    0.000    0.000    0.000    0.000    0.000    0.000 
#
# Total GULP energy -289499.750670 kJ/mol
# GULP energy per Si atom -5567.302897 kJ/mol
# Density = 2.206518 g / cm^3
# Si number density = 22.115520 Si / 1000 Ang^3
#
#
#
# Elastic Constant Matrix: (Units=GPa)
#
#
# Indices 1 2 3 4 5 6 
#
# 1 106.3840 38.4522 25.3075 0.0000 0.0000 0.0000
# 2 38.4522 159.3672 44.9769 0.0000 0.0000 0.0000
# 3 25.3075 44.9769 55.3367 0.0000 0.0000 0.0000
# 4 0.0000 0.0000 0.0000 53.1680 0.0000 0.0000
# 5 0.0000 0.0000 0.0000 0.0000 -3.2849 0.0000
# 6 0.0000 0.0000 0.0000 0.0000 0.0000 46.1572
#
#
#
# Elastic Compliance Matrix: (Units=1/GPa)
#
#
# Indices 1 2 3 4 5 6 
#
# 1 0.010845 -0.001579 -0.003676 0.000000 0.000000 0.000000
# 2 -0.001579 0.008373 -0.006083 0.000000 0.000000 0.000000
# 3 -0.003676 -0.006083 0.024697 0.000000 0.000000 0.000000
# 4 0.000000 0.000000 0.000000 0.018808 0.000000 0.000000
# 5 0.000000 0.000000 0.000000 0.000000 -0.304424 0.000000
# 6 0.000000 0.000000 0.000000 0.000000 0.000000 0.021665
#
#
# Mechanical properties :
#
#
# Convention : Reuss Voigt Hill
#
# Bulk Modulus (GPa) = 47.08649 59.84012 53.46331
# Shear Modulus (GPa) = -26.27700 33.36481 3.54390
#
# Velocity S-wave (km/s) = -3.45072 3.88836 1.26725
# Velocity P-wave (km/s) = 2.33682 6.87574 5.13501
#
# Compressibility (1/GPa) = 0.02123751
#
# Stress axis : x y z
#
# Youngs Moduli (GPa) = 92.20600 119.43771 40.49139
#
# Poissons Ratio (x) = 0.18862 0.14886
# Poissons Ratio (y) = 0.14561 0.24630
# Poissons Ratio (z) = 0.33899 0.72652
#
# Static dielectric constant tensor:
#      x y z
#    x 1.784040 0.000000 0.000000 
#    y 0.000000 1.961360 0.000000 
#    z 0.000000 0.000000 1.937780 
# 
# From -- ./inp_files/16598.got.cif
#   From: 2010.05.17/outbox.cif.g08.bks.cpg/sg56_9_cif.got.tgz:16598.got - 2010.06.03 13:42:01.
