data_PCOD9430653
_publ_section_title
;
Structure prediction by ZEFSAII (Michael W. Deem and Ramdas Pophale) SiO2 
 PCOD9430653
Probable space group: P C C N
;
_chemical_formula_sum "Si O2"
_cell_formula_units_Z 56
_cell_length_a 22.448667
_cell_length_b 5.848067
_cell_length_c 20.967366
_cell_angle_alpha 90.000000
_cell_angle_beta 90.000000
_cell_angle_gamma 90.000000
_cell_volume 2752.623248
_symmetry_space_group_name_H-M "P C C N"
_symmetry_group_IT_number 56
_symmetry_cell_setting 'orthorhombic'
loop_
_space_group_symop_operation_xyz
x,y,z
1/2-x,1/2-y,z
1/2+x,-y,1/2-z
-x,1/2+y,1/2-z
-x,-y,-z
1/2+x,1/2+y,-z
1/2-x,y,1/2+z
x,1/2-y,1/2+z
loop_
_atom_site_type_symbol
_atom_site_label
_atom_site_fract_x
_atom_site_fract_y
_atom_site_fract_z
Si Si1 0.688906 0.639059 0.990001
Si Si2 0.498359 0.279836 0.595362
Si Si3 0.591020 0.413261 0.927267
Si Si4 0.187673 0.850156 0.881672
Si Si5 0.604098 0.037952 0.038101
Si Si6 0.031726 0.652568 0.187296
Si Si7 0.076593 0.475921 0.317993
O O1 0.750000 0.750000 0.969713
O O2 0.701234 0.484032 0.052280
O O3 0.641214 0.825941 0.013255
O O4 0.657847 0.506233 0.932242
O O5 0.537110 0.483744 0.564530
O O6 0.466350 0.404888 0.653838
O O7 0.545430 0.096864 0.621625
O O8 0.452766 0.125363 0.556273
O O9 0.568338 0.317798 0.860059
O O10 0.592428 0.217718 0.980920
O O11 0.250000 0.750000 0.855885
O O12 0.145579 0.643458 0.906127
O O13 0.146526 0.010304 0.835998
O O14 0.061626 0.628516 0.256080
O O15 0.963508 0.747277 0.192213
#
# Coordination Sequence:
#
# PCOD9430653 Si02
#       7
#     8   8   8   8   8   8   8
#     4  11  21  37  59  86 115 156 194 242 306 363
#     4  10  20  36  58  87 118 151 192 237 302 350
#     4  10  23  34  56  85 119 154 194 236 292 368
#     4  10  20  37  59  87 114 146 198 249 295 357
#     4  10  20  36  58  87 118 152 182 242 297 361
#     4  11  20  38  57  85 116 156 194 247 292 361
#     4  10  21  35  61  84 115 154 200 243 302 352
#
# _framework density 20.34423
#
# number of rings (size 3 to 8) (size 9 to 14) (size 15 to 20)
#    0.000    1.714    2.857    2.143    0.000    4.571 
#    0.000    0.000    6.286    0.000    0.000    0.000 
#    0.000    0.000    0.000    0.000    0.000    0.000 
#
# Total GULP energy -312144.196110 kJ/mol
# GULP energy per Si atom -5574.003502 kJ/mol
# Density = 2.029793 g / cm^3
# Si number density = 20.344230 Si / 1000 Ang^3
#
#
#
# Elastic Constant Matrix: (Units=GPa)
#
#
# Indices 1 2 3 4 5 6 
#
# 1 98.3131 10.2654 30.0093 0.0000 0.0000 0.0000
# 2 10.2654 39.2340 2.4669 0.0000 0.0000 0.0000
# 3 30.0093 2.4669 48.1312 0.0000 0.0000 0.0000
# 4 0.0000 0.0000 0.0000 15.6292 0.0000 0.0000
# 5 0.0000 0.0000 0.0000 0.0000 10.3327 0.0000
# 6 0.0000 0.0000 0.0000 0.0000 0.0000 28.9635
#
#
#
# Elastic Compliance Matrix: (Units=1/GPa)
#
#
# Indices 1 2 3 4 5 6 
#
# 1 0.012877 -0.002874 -0.007882 0.000000 0.000000 0.000000
# 2 -0.002874 0.026212 0.000448 0.000000 0.000000 0.000000
# 3 -0.007882 0.000448 0.025668 0.000000 0.000000 0.000000
# 4 0.000000 0.000000 0.000000 0.063983 0.000000 0.000000
# 5 0.000000 0.000000 0.000000 0.000000 0.096780 0.000000
# 6 0.000000 0.000000 0.000000 0.000000 0.000000 0.034526
#
#
# Mechanical properties :
#
#
# Convention : Reuss Voigt Hill
#
# Bulk Modulus (GPa) = 22.65379 30.12906 26.39142
# Shear Modulus (GPa) = 16.92766 20.51419 18.72093
#
# Velocity S-wave (km/s) = 2.88768 3.17890 3.03678
# Velocity P-wave (km/s) = 4.71992 5.32125 5.02958
#
# Compressibility (1/GPa) = 0.04414273
#
# Stress axis : x y z
#
# Youngs Moduli (GPa) = 77.65496 38.15072 38.95943
#
# Poissons Ratio (x) = 0.10964 0.30707
# Poissons Ratio (y) = 0.22316 -0.01747
# Poissons Ratio (z) = 0.61205 -0.01710
#
# Static dielectric constant tensor:
#      x y z
#    x 1.738750 0.000000 0.000000 
#    y 0.000000 1.802670 0.000000 
#    z 0.000000 0.000000 1.726200 
# 
# From -- ./inp_files/21316.got.cif
#   From: 2010.05.17/outbox.cif.g08.bks.cpg/sg56_11_cif.got.tgz:21316.got - 2010.06.03 13:42:01.
