data_PCOD9430248
_publ_section_title
;
Structure prediction by ZEFSAII (Michael W. Deem and Ramdas Pophale) SiO2 
 PCOD9430248
Probable space group: P C C N
;
_chemical_formula_sum "Si O2"
_cell_formula_units_Z 48
_cell_length_a 7.037426
_cell_length_b 10.108831
_cell_length_c 26.712291
_cell_angle_alpha 90.000000
_cell_angle_beta 90.000000
_cell_angle_gamma 90.000000
_cell_volume 1900.316391
_symmetry_space_group_name_H-M "P C C N"
_symmetry_group_IT_number 56
_symmetry_cell_setting 'orthorhombic'
loop_
_space_group_symop_operation_xyz
x,y,z
1/2-x,1/2-y,z
1/2+x,-y,1/2-z
-x,1/2+y,1/2-z
-x,-y,-z
1/2+x,1/2+y,-z
1/2-x,y,1/2+z
x,1/2-y,1/2+z
loop_
_atom_site_type_symbol
_atom_site_label
_atom_site_fract_x
_atom_site_fract_y
_atom_site_fract_z
Si Si1 0.750000 0.250000 0.405039
Si Si2 0.339474 0.518940 0.337016
Si Si3 0.232501 0.028481 0.544485
Si Si4 0.518389 0.846014 0.679978
Si Si5 0.774565 0.903796 0.847208
Si Si6 0.250000 0.750000 0.261539
Si Si7 0.200804 0.597707 0.949206
O O1 0.790866 0.122479 0.437598
O O2 0.569948 0.218241 0.369923
O O3 0.738613 0.616500 0.178127
O O4 0.566563 0.530187 0.340477
O O5 0.267789 0.625810 0.297524
O O6 0.266983 0.555406 0.392284
O O7 0.297856 0.007234 0.487278
O O8 0.329020 0.096044 0.593040
O O9 0.025281 0.092090 0.541702
O O10 0.432337 0.763193 0.725647
O O11 0.413015 0.992910 0.680410
O O12 0.750000 0.750000 0.831574
O O13 0.250000 0.750000 0.956195
#
# Coordination Sequence:
#
# PCOD9430248 Si02
#       7
#     4   8   8   8   8   4   8
#     4   9  18  43  62  90 136 175 220 285 342 412
#     4  11  23  43  67  98 135 177 232 287 354 421
#     4   9  19  36  65  97 137 180 225 286 348 416
#     4  10  24  43  65  95 135 178 230 294 356 417
#     4  10  22  42  69 100 138 183 230 290 353 422
#     4  11  24  43  68  98 130 177 238 295 354 424
#     4  10  19  36  64 100 137 179 234 283 345 430
#
# _framework density 25.258952000000001
#
# number of rings (size 3 to 8) (size 9 to 14) (size 15 to 20)
#    0.000    2.000    1.667    1.000    4.667    0.000 
#    0.000   21.667    0.000    0.000    0.000    0.000 
#    0.000    0.000    0.000    0.000    0.000    0.000 
#
# Total GULP energy -268569.658845 kJ/mol
# GULP energy per Si atom -5595.201226 kJ/mol
# Density = 2.520146 g / cm^3
# Si number density = 25.258952 Si / 1000 Ang^3
#
#
#
# Elastic Constant Matrix: (Units=GPa)
#
#
# Indices 1 2 3 4 5 6 
#
# 1 120.4040 5.5564 27.0356 0.0000 0.0000 0.0000
# 2 5.5564 108.2093 15.5823 0.0000 0.0000 0.0000
# 3 27.0356 15.5823 139.6277 0.0000 0.0000 0.0000
# 4 0.0000 0.0000 0.0000 35.9065 0.0000 0.0000
# 5 0.0000 0.0000 0.0000 0.0000 42.3900 0.0000
# 6 0.0000 0.0000 0.0000 0.0000 0.0000 39.9200
#
#
#
# Elastic Compliance Matrix: (Units=1/GPa)
#
#
# Indices 1 2 3 4 5 6 
#
# 1 0.008687 -0.000207 -0.001659 0.000000 0.000000 0.000000
# 2 -0.000207 0.009397 -0.001009 0.000000 0.000000 0.000000
# 3 -0.001659 -0.001009 0.007596 0.000000 0.000000 0.000000
# 4 0.000000 0.000000 0.000000 0.027850 0.000000 0.000000
# 5 0.000000 0.000000 0.000000 0.000000 0.023590 0.000000
# 6 0.000000 0.000000 0.000000 0.000000 0.000000 0.025050
#
#
# Mechanical properties :
#
#
# Convention : Reuss Voigt Hill
#
# Bulk Modulus (GPa) = 50.17365 51.62107 50.89736
# Shear Modulus (GPa) = 43.64366 44.98110 44.31238
#
# Velocity S-wave (km/s) = 4.16125 4.22453 4.19301
# Velocity P-wave (km/s) = 6.55704 6.65407 6.60573
#
# Compressibility (1/GPa) = 0.01993078
#
# Stress axis : x y z
#
# Youngs Moduli (GPa) = 115.10870 106.41437 131.65368
#
# Poissons Ratio (x) = 0.02205 0.21841
# Poissons Ratio (y) = 0.02385 0.13279
# Poissons Ratio (z) = 0.19096 0.10733
#
# Static dielectric constant tensor:
#      x y z
#    x 7.092150 0.000000 0.000000 
#    y 0.000000 1.998570 0.000000 
#    z 0.000000 0.000000 2.024900 
# 
# From -- ./inp_files/23326.got.cif
#   From: 2010.05.17/outbox.cif.g08.bks.cpg/sg56_12_cif.got.tgz:23326.got - 2010.06.03 13:42:01.
