data_PCOD9430890
_publ_section_title
;
Structure prediction by ZEFSAII (Michael W. Deem and Ramdas Pophale) SiO2 
 PCOD9430890
Probable space group: P C C N
;
_chemical_formula_sum "Si O2"
_cell_formula_units_Z 48
_cell_length_a 23.590924
_cell_length_b 8.584977
_cell_length_c 9.991029
_cell_angle_alpha 90.000000
_cell_angle_beta 90.000000
_cell_angle_gamma 90.000000
_cell_volume 2023.458525
_symmetry_space_group_name_H-M "P C C N"
_symmetry_group_IT_number 56
_symmetry_cell_setting 'orthorhombic'
loop_
_space_group_symop_operation_xyz
x,y,z
1/2-x,1/2-y,z
1/2+x,-y,1/2-z
-x,1/2+y,1/2-z
-x,-y,-z
1/2+x,1/2+y,-z
1/2-x,y,1/2+z
x,1/2-y,1/2+z
loop_
_atom_site_type_symbol
_atom_site_label
_atom_site_fract_x
_atom_site_fract_y
_atom_site_fract_z
Si Si1 0.467036 0.903010 0.798837
Si Si2 0.855835 0.811097 0.114984
Si Si3 0.022573 0.239489 0.443593
Si Si4 0.250000 0.250000 0.553193
Si Si5 0.151944 0.539184 0.862703
Si Si6 0.250000 0.750000 0.279971
Si Si7 0.331846 0.513196 0.656313
O O1 0.494738 0.864020 0.656776
O O2 0.399259 0.880241 0.786394
O O3 0.476054 0.078318 0.856213
O O4 0.491537 0.793808 0.917116
O O5 0.912450 0.789390 0.029068
O O6 0.844708 0.640844 0.181509
O O7 0.867095 0.946322 0.220939
O O8 0.798203 0.837739 0.033570
O O9 0.285037 0.378332 0.632194
O O10 0.212422 0.623434 0.858157
O O11 0.134844 0.534579 0.019389
O O12 0.203236 0.663757 0.192999
#
# Coordination Sequence:
#
# PCOD9430890 Si02
#       7
#     8   8   8   4   8   4   8
#     4  10  24  45  67  99 132 174 219 277 325 395
#     4  10  22  40  65  94 122 171 219 266 317 390
#     4  10  24  43  71  97 134 172 223 271 331 387
#     4  10  20  38  62  96 122 166 214 270 322 388
#     4  10  24  42  62  94 130 169 215 266 332 391
#     4  12  24  40  60 100 128 170 206 266 340 396
#     4  11  22  38  66  91 131 166 212 269 327 388
#
# _framework density 23.721761000000001
#
# number of rings (size 3 to 8) (size 9 to 14) (size 15 to 20)
#    0.000    1.667    0.000    4.000   11.667    0.667 
#    0.000    0.000    0.000    0.000    0.000    0.000 
#    0.000    0.000    0.000    0.000    0.000    0.000 
#
# Total GULP energy -268491.092680 kJ/mol
# GULP energy per Si atom -5593.564431 kJ/mol
# Density = 2.366777 g / cm^3
# Si number density = 23.721761 Si / 1000 Ang^3
#
#
#
# Elastic Constant Matrix: (Units=GPa)
#
#
# Indices 1 2 3 4 5 6 
#
# 1 103.4641 6.9356 -7.9164 0.0000 0.0000 0.0000
# 2 6.9356 43.7424 4.5102 0.0000 0.0000 0.0000
# 3 -7.9164 4.5102 35.1821 0.0000 0.0000 0.0000
# 4 0.0000 0.0000 0.0000 25.2090 0.0000 0.0000
# 5 0.0000 0.0000 0.0000 0.0000 18.3881 0.0000
# 6 0.0000 0.0000 0.0000 0.0000 0.0000 26.9136
#
#
#
# Elastic Compliance Matrix: (Units=1/GPa)
#
#
# Indices 1 2 3 4 5 6 
#
# 1 0.009978 -0.001838 0.002481 0.000000 0.000000 0.000000
# 2 -0.001838 0.023506 -0.003427 0.000000 0.000000 0.000000
# 3 0.002481 -0.003427 0.029421 0.000000 0.000000 0.000000
# 4 0.000000 0.000000 0.000000 0.039668 0.000000 0.000000
# 5 0.000000 0.000000 0.000000 0.000000 0.054383 0.000000
# 6 0.000000 0.000000 0.000000 0.000000 0.000000 0.037156
#
#
# Mechanical properties :
#
#
# Convention : Reuss Voigt Hill
#
# Bulk Modulus (GPa) = 17.44068 21.04971 19.24519
# Shear Modulus (GPa) = 22.85269 26.02610 24.43939
#
# Velocity S-wave (km/s) = 3.10718 3.31590 3.21324
# Velocity P-wave (km/s) = 4.49899 4.85316 4.67942
#
# Compressibility (1/GPa) = 0.05733722
#
# Stress axis : x y z
#
# Youngs Moduli (GPa) = 100.21842 42.54260 33.98922
#
# Poissons Ratio (x) = 0.07819 -0.08432
# Poissons Ratio (y) = 0.18419 0.11648
# Poissons Ratio (z) = -0.24862 0.14579
#
# Static dielectric constant tensor:
#      x y z
#    x 1.925820 0.000000 0.000000 
#    y 0.000000 1.944330 0.000000 
#    z 0.000000 0.000000 1.914410 
# 
# From -- ./inp_files/6449.got.cif
#   From: 2010.05.17/outbox.cif.g08.bks.cpg/sg56_4_cif.got.tgz:6449.got - 2010.06.03 13:42:01.
