data_PCOD9430961
_publ_section_title
;
Structure prediction by ZEFSAII (Michael W. Deem and Ramdas Pophale) SiO2 
 PCOD9430961
Probable space group: P C C N
;
_chemical_formula_sum "Si O2"
_cell_formula_units_Z 64
_cell_length_a 19.435537
_cell_length_b 7.233853
_cell_length_c 20.018066
_cell_angle_alpha 90.000000
_cell_angle_beta 90.000000
_cell_angle_gamma 90.000000
_cell_volume 2814.416321
_symmetry_space_group_name_H-M "P C C N"
_symmetry_group_IT_number 56
_symmetry_cell_setting 'orthorhombic'
loop_
_space_group_symop_operation_xyz
x,y,z
1/2-x,1/2-y,z
1/2+x,-y,1/2-z
-x,1/2+y,1/2-z
-x,-y,-z
1/2+x,1/2+y,-z
1/2-x,y,1/2+z
x,1/2-y,1/2+z
loop_
_atom_site_type_symbol
_atom_site_label
_atom_site_fract_x
_atom_site_fract_y
_atom_site_fract_z
Si Si1 0.700191 0.521006 0.717919
Si Si2 0.015264 0.453942 0.923362
Si Si3 0.916871 0.965660 0.807701
Si Si4 0.172468 0.409099 0.927099
Si Si5 0.654001 0.400940 0.191267
Si Si6 0.178345 0.505989 0.461098
Si Si7 0.035984 0.609977 0.212776
Si Si8 0.445430 0.568668 0.053210
O O1 0.660096 0.577205 0.783964
O O2 0.687981 0.635345 0.650445
O O3 0.780895 0.498824 0.725300
O O4 0.670465 0.317306 0.698660
O O5 0.096561 0.491648 0.922060
O O6 0.979390 0.514149 0.853213
O O7 0.987364 0.244960 0.920404
O O8 0.000000 0.500000 0.000000
O O9 0.931364 0.187617 0.801223
O O10 0.932967 0.930979 0.884946
O O11 0.964711 0.873146 0.752238
O O12 0.237656 0.525074 0.956083
O O13 0.168046 0.216143 0.966721
O O14 0.651549 0.439542 0.112447
O O15 0.587683 0.465960 0.231157
O O16 0.128819 0.598284 0.516663
O O17 0.500000 0.500000 0.000000
#
# Coordination Sequence:
#
# PCOD9430961 Si02
#       8
#     8   8   8   8   8   8   8   8
#     4   9  18  36  58  82 112 144 190 239 288 340
#     4  11  24  39  57  84 122 151 194 247 298 346
#     4  10  21  36  58  82 114 146 187 239 286 348
#     4  10  20  39  59  83 117 153 193 240 289 345
#     4   9  19  34  60  85 109 147 193 233 283 357
#     4  10  21  37  62  85 116 156 197 236 288 352
#     4  10  21  36  57  84 111 148 186 234 292 341
#     4  11  22  38  57  86 115 157 198 241 294 357
#
# _framework density 22.740062999999999
#
# number of rings (size 3 to 8) (size 9 to 14) (size 15 to 20)
#    0.000    2.000    2.500    0.750    3.500    1.000 
#    2.250    0.000    0.000    1.500    0.000    0.000 
#    0.000    0.000    0.000    0.000    0.000    0.000 
#
# Total GULP energy -356665.087881 kJ/mol
# GULP energy per Si atom -5572.891998 kJ/mol
# Density = 2.268831 g / cm^3
# Si number density = 22.740063 Si / 1000 Ang^3
#
#
#
# Elastic Constant Matrix: (Units=GPa)
#
#
# Indices 1 2 3 4 5 6 
#
# 1 101.2678 0.2711 20.8663 0.0000 0.0000 0.0000
# 2 0.2711 28.7473 -3.7575 0.0000 0.0000 0.0000
# 3 20.8663 -3.7575 82.4229 0.0000 0.0000 0.0000
# 4 0.0000 0.0000 0.0000 6.6418 0.0000 0.0000
# 5 0.0000 0.0000 0.0000 0.0000 37.0083 0.0000
# 6 0.0000 0.0000 0.0000 0.0000 0.0000 14.1926
#
#
#
# Elastic Compliance Matrix: (Units=1/GPa)
#
#
# Indices 1 2 3 4 5 6 
#
# 1 0.010424 -0.000446 -0.002659 0.000000 0.000000 0.000000
# 2 -0.000446 0.035013 0.001709 0.000000 0.000000 0.000000
# 3 -0.002659 0.001709 0.012884 0.000000 0.000000 0.000000
# 4 0.000000 0.000000 0.000000 0.150561 0.000000 0.000000
# 5 0.000000 0.000000 0.000000 0.000000 0.027021 0.000000
# 6 0.000000 0.000000 0.000000 0.000000 0.000000 0.070459
#
#
# Mechanical properties :
#
#
# Convention : Reuss Voigt Hill
#
# Bulk Modulus (GPa) = 18.00861 27.46642 22.73752
# Shear Modulus (GPa) = 15.25951 24.57241 19.91596
#
# Velocity S-wave (km/s) = 2.59326 3.29078 2.96262
# Velocity P-wave (km/s) = 4.11135 5.15205 4.66084
#
# Compressibility (1/GPa) = 0.05552898
#
# Stress axis : x y z
#
# Youngs Moduli (GPa) = 95.93300 28.56042 77.61748
#
# Poissons Ratio (x) = 0.01274 0.20641
# Poissons Ratio (y) = 0.04278 -0.13266
# Poissons Ratio (z) = 0.25511 -0.04881
#
# Static dielectric constant tensor:
#      x y z
#    x 1.859560 0.000000 0.000000 
#    y 0.000000 1.968780 0.000000 
#    z 0.000000 0.000000 1.950790 
# 
# From -- ./inp_files/16869.got.cif
#   From: 2010.05.17/outbox.cif.g08.bks.cpg/sg56_9_cif.got.tgz:16869.got - 2010.06.03 13:42:01.
