data_PCOD9430677
_publ_section_title
;
Structure prediction by ZEFSAII (Michael W. Deem and Ramdas Pophale) SiO2 
 PCOD9430677
Probable space group: P C C N
;
_chemical_formula_sum "Si O2"
_cell_formula_units_Z 56
_cell_length_a 10.684892
_cell_length_b 11.793534
_cell_length_c 20.660152
_cell_angle_alpha 90.000000
_cell_angle_beta 90.000000
_cell_angle_gamma 90.000000
_cell_volume 2603.440236
_symmetry_space_group_name_H-M "P C C N"
_symmetry_group_IT_number 56
_symmetry_cell_setting 'orthorhombic'
loop_
_space_group_symop_operation_xyz
x,y,z
1/2-x,1/2-y,z
1/2+x,-y,1/2-z
-x,1/2+y,1/2-z
-x,-y,-z
1/2+x,1/2+y,-z
1/2-x,y,1/2+z
x,1/2-y,1/2+z
loop_
_atom_site_type_symbol
_atom_site_label
_atom_site_fract_x
_atom_site_fract_y
_atom_site_fract_z
Si Si1 0.027723 0.769749 0.087032
Si Si2 0.068255 0.575379 0.293761
Si Si3 0.335765 0.985446 0.621506
Si Si4 0.622212 0.691903 0.960871
Si Si5 0.487187 0.802777 0.839733
Si Si6 0.360079 0.337128 0.792617
Si Si7 0.446974 0.963103 0.147370
O O1 0.140673 0.853358 0.106800
O O2 0.046820 0.636361 0.095508
O O3 0.922157 0.802543 0.139628
O O4 0.981675 0.796760 0.015457
O O5 0.166414 0.471998 0.298220
O O6 0.037425 0.591313 0.218264
O O7 0.942213 0.527690 0.328280
O O8 0.102761 0.695158 0.326325
O O9 0.196066 0.007655 0.645622
O O10 0.356090 0.061727 0.558136
O O11 0.750000 0.750000 0.983950
O O12 0.580162 0.754770 0.894844
O O13 0.549021 0.824568 0.769320
O O14 0.459317 0.931258 0.861847
O O15 0.250000 0.250000 0.779935
#
# Coordination Sequence:
#
# PCOD9430677 Si02
#       7
#     8   8   8   8   8   8   8
#     4  11  23  38  59  94 126 163 218 269 321 378
#     4   9  21  34  61  94 123 157 214 271 320 383
#     4  10  22  41  61  94 127 171 214 270 329 389
#     4  11  21  39  63  91 118 168 221 265 318 387
#     4  10  20  37  59  91 125 159 213 254 332 387
#     4  10  20  36  61  89 123 165 215 267 321 387
#     4  11  21  37  64  92 128 174 210 260 328 405
#
# _framework density 21.509999000000001
#
# number of rings (size 3 to 8) (size 9 to 14) (size 15 to 20)
#    0.000    1.714    2.857    1.714    6.000    0.571 
#    0.000    0.000    0.000    0.000   22.286    0.000 
#    0.000    0.000    0.000    0.000    0.000    0.000 
#
# Total GULP energy -312387.277039 kJ/mol
# GULP energy per Si atom -5578.344233 kJ/mol
# Density = 2.146104 g / cm^3
# Si number density = 21.509999 Si / 1000 Ang^3
#
#
#
# Elastic Constant Matrix: (Units=GPa)
#
#
# Indices 1 2 3 4 5 6 
#
# 1 18.0738 18.9775 15.3170 0.0000 0.0000 0.0000
# 2 18.9775 168.2879 29.7881 0.0000 0.0000 0.0000
# 3 15.3170 29.7881 57.9683 0.0000 0.0000 0.0000
# 4 0.0000 0.0000 0.0000 26.2962 0.0000 0.0000
# 5 0.0000 0.0000 0.0000 0.0000 13.0158 0.0000
# 6 0.0000 0.0000 0.0000 0.0000 0.0000 26.6996
#
#
#
# Elastic Compliance Matrix: (Units=1/GPa)
#
#
# Indices 1 2 3 4 5 6 
#
# 1 0.075641 -0.005492 -0.017165 0.000000 0.000000 0.000000
# 2 -0.005492 0.006935 -0.002113 0.000000 0.000000 0.000000
# 3 -0.017165 -0.002113 0.022872 0.000000 0.000000 0.000000
# 4 0.000000 0.000000 0.000000 0.038028 0.000000 0.000000
# 5 0.000000 0.000000 0.000000 0.000000 0.076830 0.000000
# 6 0.000000 0.000000 0.000000 0.000000 0.000000 0.037454
#
#
# Mechanical properties :
#
#
# Convention : Reuss Voigt Hill
#
# Bulk Modulus (GPa) = 17.88579 41.38836 29.63708
# Shear Modulus (GPa) = 15.34042 25.21879 20.27961
#
# Velocity S-wave (km/s) = 2.67343 3.42778 3.07383
# Velocity P-wave (km/s) = 4.22644 5.91181 5.13869
#
# Compressibility (1/GPa) = 0.05591030
#
# Stress axis : x y z
#
# Youngs Moduli (GPa) = 13.22027 144.18617 43.72156
#
# Poissons Ratio (x) = 0.79182 0.75047
# Poissons Ratio (y) = 0.07260 0.09238
# Poissons Ratio (z) = 0.22692 0.30465
#
# Static dielectric constant tensor:
#      x y z
#    x 1.796310 0.000000 0.000000 
#    y 0.000000 1.868640 0.000000 
#    z 0.000000 0.000000 1.721850 
# 
# From -- ./inp_files/18731.got.cif
#   From: 2010.05.17/outbox.cif.g08.bks.cpg/sg56_10_cif.got.tgz:18731.got - 2010.06.03 13:42:01.
