data_PCOD9430773
_publ_section_title
;
Structure prediction by ZEFSAII (Michael W. Deem and Ramdas Pophale) SiO2 
 PCOD9430773
Probable space group: P C C N
;
_chemical_formula_sum "Si O2"
_cell_formula_units_Z 48
_cell_length_a 28.216577
_cell_length_b 5.006178
_cell_length_c 14.975850
_cell_angle_alpha 90.000000
_cell_angle_beta 90.000000
_cell_angle_gamma 90.000000
_cell_volume 2115.446744
_symmetry_space_group_name_H-M "P C C N"
_symmetry_group_IT_number 56
_symmetry_cell_setting 'orthorhombic'
loop_
_space_group_symop_operation_xyz
x,y,z
1/2-x,1/2-y,z
1/2+x,-y,1/2-z
-x,1/2+y,1/2-z
-x,-y,-z
1/2+x,1/2+y,-z
1/2-x,y,1/2+z
x,1/2-y,1/2+z
loop_
_atom_site_type_symbol
_atom_site_label
_atom_site_fract_x
_atom_site_fract_y
_atom_site_fract_z
Si Si1 0.215579 0.998873 0.302178
Si Si2 0.528716 0.789270 0.059012
Si Si3 0.530368 0.717481 0.244569
Si Si4 0.431528 0.016045 0.594458
Si Si5 0.197116 0.131788 0.498292
Si Si6 0.333138 0.868700 0.612349
O O1 0.250000 0.750000 0.324296
O O2 0.186808 0.923898 0.211849
O O3 0.250000 0.250000 0.281560
O O4 0.186564 0.066017 0.393626
O O5 0.550788 0.847825 0.154519
O O6 0.484443 0.604559 0.087902
O O7 0.569321 0.660322 0.000322
O O8 0.500000 0.000000 0.000000
O O9 0.516389 0.406544 0.242196
O O10 0.565164 0.774371 0.325693
O O11 0.389514 0.813729 0.612424
O O12 0.250000 0.250000 0.495265
O O13 0.170086 0.363149 0.552493
O O14 0.192933 0.867654 0.559351
#
# Coordination Sequence:
#
# PCOD9430773 Si02
#       6
#     8   8   8   8   8   8
#     4  11  23  43  69  94 126 170 214 257 324 401
#     4  10  20  41  65  83 125 180 216 258 318 383
#     4  10  20  37  62  86 117 165 217 261 309 372
#     4  10  24  39  59  98 127 165 220 267 321 380
#     4  11  24  44  70  96 131 174 217 259 331 409
#     4  12  25  41  66 102 135 165 215 281 326 380
#
# _framework density 22.690244
#
# number of rings (size 3 to 8) (size 9 to 14) (size 15 to 20)
#    0.000    1.333    1.667    5.000    2.333    1.333 
#    0.000    0.000    0.000    0.000    0.000    0.000 
#    0.000    0.000    0.000    0.000    0.000    0.000 
#
# Total GULP energy -267589.215416 kJ/mol
# GULP energy per Si atom -5574.775321 kJ/mol
# Density = 2.263860 g / cm^3
# Si number density = 22.690244 Si / 1000 Ang^3
#
#
#
# Elastic Constant Matrix: (Units=GPa)
#
#
# Indices 1 2 3 4 5 6 
#
# 1 47.1966 4.2879 24.9777 0.0000 0.0000 0.0000
# 2 4.2879 111.1972 40.7593 0.0000 0.0000 0.0000
# 3 24.9777 40.7593 195.1102 0.0000 0.0000 0.0000
# 4 0.0000 0.0000 0.0000 37.4444 0.0000 0.0000
# 5 0.0000 0.0000 0.0000 0.0000 7.4344 0.0000
# 6 0.0000 0.0000 0.0000 0.0000 0.0000 17.6837
#
#
#
# Elastic Compliance Matrix: (Units=1/GPa)
#
#
# Indices 1 2 3 4 5 6 
#
# 1 0.022732 0.000206 -0.002953 0.000000 0.000000 0.000000
# 2 0.000206 0.009741 -0.002061 0.000000 0.000000 0.000000
# 3 -0.002953 -0.002061 0.005934 0.000000 0.000000 0.000000
# 4 0.000000 0.000000 0.000000 0.026706 0.000000 0.000000
# 5 0.000000 0.000000 0.000000 0.000000 0.134510 0.000000
# 6 0.000000 0.000000 0.000000 0.000000 0.000000 0.056549
#
#
# Mechanical properties :
#
#
# Convention : Reuss Voigt Hill
#
# Bulk Modulus (GPa) = 34.73450 54.83932 44.78691
# Shear Modulus (GPa) = 18.15634 31.41110 24.78372
#
# Velocity S-wave (km/s) = 2.83182 3.72471 3.30853
# Velocity P-wave (km/s) = 5.10231 6.53599 5.86314
#
# Compressibility (1/GPa) = 0.02878982
#
# Stress axis : x y z
#
# Youngs Moduli (GPa) = 43.99052 102.66272 168.52146
#
# Poissons Ratio (x) = -0.02114 0.49767
# Poissons Ratio (y) = -0.00906 0.34736
# Poissons Ratio (z) = 0.12991 0.21161
#
# Static dielectric constant tensor:
#      x y z
#    x 1.835570 0.000000 0.000000 
#    y 0.000000 1.958590 0.000000 
#    z 0.000000 0.000000 2.226140 
# 
# From -- ./inp_files/13373.got.cif
#   From: 2010.05.17/outbox.cif.g08.bks.cpg/sg56_7_cif.got.tgz:13373.got - 2010.06.03 13:42:01.
