data_PCOD9430381
_publ_section_title
;
Structure prediction by ZEFSAII (Michael W. Deem and Ramdas Pophale) SiO2 
 PCOD9430381
Probable space group: P C C N
;
_chemical_formula_sum "Si O2"
_cell_formula_units_Z 64
_cell_length_a 18.029323
_cell_length_b 14.152632
_cell_length_c 12.100042
_cell_angle_alpha 90.000000
_cell_angle_beta 90.000000
_cell_angle_gamma 90.000000
_cell_volume 3087.475438
_symmetry_space_group_name_H-M "P C C N"
_symmetry_group_IT_number 56
_symmetry_cell_setting 'orthorhombic'
loop_
_space_group_symop_operation_xyz
x,y,z
1/2-x,1/2-y,z
1/2+x,-y,1/2-z
-x,1/2+y,1/2-z
-x,-y,-z
1/2+x,1/2+y,-z
1/2-x,y,1/2+z
x,1/2-y,1/2+z
loop_
_atom_site_type_symbol
_atom_site_label
_atom_site_fract_x
_atom_site_fract_y
_atom_site_fract_z
Si Si1 0.280239 0.987249 0.526159
Si Si2 0.375533 0.940420 0.925955
Si Si3 0.905096 0.350159 0.850631
Si Si4 0.779571 0.645262 0.298377
Si Si5 0.990997 0.045856 0.881029
Si Si6 0.352456 0.846845 0.686877
Si Si7 0.937162 0.604069 0.203079
Si Si8 0.354640 0.477064 0.802673
O O1 0.198186 0.983919 0.478649
O O2 0.293033 0.903980 0.614691
O O3 0.294944 0.084852 0.590648
O O4 0.331958 0.976120 0.419260
O O5 0.355728 0.888028 0.810954
O O6 0.428616 0.027806 0.895804
O O7 0.405003 0.869650 0.018602
O O8 0.850998 0.265258 0.816943
O O9 0.876916 0.444032 0.786972
O O10 0.990671 0.332426 0.815725
O O11 0.750000 0.750000 0.320097
O O12 0.856174 0.646916 0.228277
O O13 0.713998 0.586617 0.237173
O O14 0.958037 0.961557 0.806721
O O15 0.929891 0.126350 0.873087
O O16 0.069260 0.077616 0.829815
O O17 0.000000 0.000000 0.000000
#
# Coordination Sequence:
#
# PCOD9430381 Si02
#       8
#     8   8   8   8   8   8   8   8
#     4  12  22  47  68  96 143 184 226 288 349 405
#     4  11  23  46  69  96 145 184 225 290 347 412
#     4  11  26  42  72 104 137 189 230 284 352 415
#     4  12  25  44  69 104 134 177 231 287 350 421
#     4  10  19  39  69  91 134 184 221 275 335 399
#     4  11  25  43  68 107 139 184 239 285 341 418
#     4  10  22  45  66  99 141 177 227 285 343 407
#     4  11  23  43  68  95 136 180 228 278 352 408
#
# _framework density 20.728909999999999
#
# number of rings (size 3 to 8) (size 9 to 14) (size 15 to 20)
#    0.000    1.000    6.250    0.375    3.500    1.000 
#    0.000    1.250    0.000    0.000    0.000    0.000 
#    0.000    0.000    0.000    0.000    0.000    0.000 
#
# Total GULP energy -357443.154753 kJ/mol
# GULP energy per Si atom -5585.049293 kJ/mol
# Density = 2.068173 g / cm^3
# Si number density = 20.728910 Si / 1000 Ang^3
#
#
#
# Elastic Constant Matrix: (Units=GPa)
#
#
# Indices 1 2 3 4 5 6 
#
# 1 85.1949 12.6937 31.8226 0.0000 0.0000 0.0000
# 2 12.6937 76.3401 29.2561 0.0000 0.0000 0.0000
# 3 31.8226 29.2561 107.3896 0.0000 0.0000 0.0000
# 4 0.0000 0.0000 0.0000 11.8541 0.0000 0.0000
# 5 0.0000 0.0000 0.0000 0.0000 37.9144 0.0000
# 6 0.0000 0.0000 0.0000 0.0000 0.0000 30.5382
#
#
#
# Elastic Compliance Matrix: (Units=1/GPa)
#
#
# Indices 1 2 3 4 5 6 
#
# 1 0.013240 -0.000779 -0.003711 0.000000 0.000000 0.000000
# 2 -0.000779 0.014672 -0.003766 0.000000 0.000000 0.000000
# 3 -0.003711 -0.003766 0.011438 0.000000 0.000000 0.000000
# 4 0.000000 0.000000 0.000000 0.084359 0.000000 0.000000
# 5 0.000000 0.000000 0.000000 0.000000 0.026375 0.000000
# 6 0.000000 0.000000 0.000000 0.000000 0.000000 0.032746
#
#
# Mechanical properties :
#
#
# Convention : Reuss Voigt Hill
#
# Bulk Modulus (GPa) = 43.78925 46.27438 45.03181
# Shear Modulus (GPa) = 24.15974 29.07147 26.61561
#
# Velocity S-wave (km/s) = 3.41766 3.74901 3.58716
# Velocity P-wave (km/s) = 6.06172 6.41187 6.23925
#
# Compressibility (1/GPa) = 0.02283666
#
# Stress axis : x y z
#
# Youngs Moduli (GPa) = 75.52813 68.15609 87.43072
#
# Poissons Ratio (x) = 0.05311 0.32447
# Poissons Ratio (y) = 0.05886 0.32928
# Poissons Ratio (z) = 0.28029 0.25669
#
# Static dielectric constant tensor:
#      x y z
#    x 1.799370 0.000000 0.000000 
#    y 0.000000 1.740620 0.000000 
#    z 0.000000 0.000000 1.730860 
# 
# From -- ./inp_files/8414.got.cif
#   From: 2010.05.17/outbox.cif.g08.bks.cpg/sg56_5_cif.got.tgz:8414.got - 2010.06.03 13:42:01.
