data_PCOD9430132
_publ_section_title
;
Structure prediction by ZEFSAII (Michael W. Deem and Ramdas Pophale) SiO2 
 PCOD9430132
Probable space group: P C C N
;
_chemical_formula_sum "Si O2"
_cell_formula_units_Z 64
_cell_length_a 12.579917
_cell_length_b 8.835298
_cell_length_c 29.717683
_cell_angle_alpha 90.000000
_cell_angle_beta 90.000000
_cell_angle_gamma 90.000000
_cell_volume 3303.040689
_symmetry_space_group_name_H-M "P C C N"
_symmetry_group_IT_number 56
_symmetry_cell_setting 'orthorhombic'
loop_
_space_group_symop_operation_xyz
x,y,z
1/2-x,1/2-y,z
1/2+x,-y,1/2-z
-x,1/2+y,1/2-z
-x,-y,-z
1/2+x,1/2+y,-z
1/2-x,y,1/2+z
x,1/2-y,1/2+z
loop_
_atom_site_type_symbol
_atom_site_label
_atom_site_fract_x
_atom_site_fract_y
_atom_site_fract_z
Si Si1 0.530134 0.441193 0.431036
Si Si2 0.409578 0.842309 0.276974
Si Si3 0.484577 0.336957 0.652137
Si Si4 0.644010 0.853410 0.417048
Si Si5 0.408652 0.575809 0.204472
Si Si6 0.630428 0.687483 0.497951
Si Si7 0.355038 0.677565 0.117026
Si Si8 0.298950 0.413274 0.723812
O O1 0.497845 0.534919 0.385891
O O2 0.602346 0.547951 0.463492
O O3 0.431504 0.369117 0.458270
O O4 0.600046 0.301503 0.415868
O O5 0.416322 0.740600 0.322114
O O6 0.405604 0.717846 0.237743
O O7 0.516706 0.942764 0.277519
O O8 0.324961 0.973665 0.265242
O O9 0.427730 0.205470 0.623568
O O10 0.401147 0.392134 0.691005
O O11 0.750000 0.750000 0.415491
O O12 0.589550 0.823520 0.465391
O O13 0.671494 0.025405 0.409102
O O14 0.439528 0.639232 0.155862
O O15 0.294376 0.498687 0.197648
O O16 0.750000 0.750000 0.508349
O O17 0.250000 0.750000 0.138435
O O18 0.250000 0.250000 0.736706
#
# Coordination Sequence:
#
# PCOD9430132 Si02
#       8
#     8   8   8   8   8   8   8   8
#     4  10  22  36  62  95 123 158 205 258 312 382
#     4  12  23  37  59  86 122 163 207 259 305 371
#     4  11  20  37  59  83 124 156 199 260 314 352
#     4  10  19  34  59  89 121 152 191 249 315 365
#     4  12  23  38  58  88 121 163 209 259 312 360
#     4   9  19  40  64  87 124 164 198 247 321 386
#     4  12  21  33  58  95 122 148 204 261 314 368
#     4  12  22  40  62  88 120 165 209 261 317 361
#
# _framework density 19.376086999999998
#
# number of rings (size 3 to 8) (size 9 to 14) (size 15 to 20)
#    0.000    1.000    3.750    6.000    0.000    1.000 
#    0.000    0.000    5.500    0.000    0.000    0.000 
#    0.000    0.000    0.000    0.000    0.000    0.125 
#
# Total GULP energy -356447.336186 kJ/mol
# GULP energy per Si atom -5569.489628 kJ/mol
# Density = 1.933199 g / cm^3
# Si number density = 19.376087 Si / 1000 Ang^3
#
#
#
# Elastic Constant Matrix: (Units=GPa)
#
#
# Indices 1 2 3 4 5 6 
#
# 1 46.5026 30.5754 29.7059 0.0000 0.0000 0.0000
# 2 30.5754 153.7514 52.8307 0.0000 0.0000 0.0000
# 3 29.7059 52.8307 83.0180 0.0000 0.0000 0.0000
# 4 0.0000 0.0000 0.0000 9.9818 0.0000 0.0000
# 5 0.0000 0.0000 0.0000 0.0000 10.1853 0.0000
# 6 0.0000 0.0000 0.0000 0.0000 0.0000 37.1494
#
#
#
# Elastic Compliance Matrix: (Units=1/GPa)
#
#
# Indices 1 2 3 4 5 6 
#
# 1 0.028786 -0.002797 -0.008521 0.000000 0.000000 0.000000
# 2 -0.002797 0.008596 -0.004470 0.000000 0.000000 0.000000
# 3 -0.008521 -0.004470 0.017939 0.000000 0.000000 0.000000
# 4 0.000000 0.000000 0.000000 0.100182 0.000000 0.000000
# 5 0.000000 0.000000 0.000000 0.000000 0.098180 0.000000
# 6 0.000000 0.000000 0.000000 0.000000 0.000000 0.026918
#
#
# Mechanical properties :
#
#
# Convention : Reuss Voigt Hill
#
# Bulk Modulus (GPa) = 42.11048 56.61067 49.36057
# Shear Modulus (GPa) = 15.62056 22.80731 19.21393
#
# Velocity S-wave (km/s) = 2.84241 3.43459 3.15243
# Velocity P-wave (km/s) = 5.70550 6.70886 6.22742
#
# Compressibility (1/GPa) = 0.02374706
#
# Stress axis : x y z
#
# Youngs Moduli (GPa) = 34.73919 116.33402 55.74521
#
# Poissons Ratio (x) = 0.32535 0.47498
# Poissons Ratio (y) = 0.09715 0.24916
# Poissons Ratio (z) = 0.29600 0.51996
#
# Static dielectric constant tensor:
#      x y z
#    x 1.738920 0.000000 0.000000 
#    y 0.000000 1.694910 0.000000 
#    z 0.000000 0.000000 1.726260 
# 
# From -- ./inp_files/23528.got.cif
#   From: 2010.05.17/outbox.cif.g08.bks.cpg/sg56_12_cif.got.tgz:23528.got - 2010.06.03 13:42:01.
