data_PCOD9430775
_publ_section_title
;
Structure prediction by ZEFSAII (Michael W. Deem and Ramdas Pophale) SiO2 
 PCOD9430775
Probable space group: P C C N
;
_chemical_formula_sum "Si O2"
_cell_formula_units_Z 64
_cell_length_a 19.122773
_cell_length_b 8.358350
_cell_length_c 19.523686
_cell_angle_alpha 90.000000
_cell_angle_beta 90.000000
_cell_angle_gamma 90.000000
_cell_volume 3120.565027
_symmetry_space_group_name_H-M "P C C N"
_symmetry_group_IT_number 56
_symmetry_cell_setting 'orthorhombic'
loop_
_space_group_symop_operation_xyz
x,y,z
1/2-x,1/2-y,z
1/2+x,-y,1/2-z
-x,1/2+y,1/2-z
-x,-y,-z
1/2+x,1/2+y,-z
1/2-x,y,1/2+z
x,1/2-y,1/2+z
loop_
_atom_site_type_symbol
_atom_site_label
_atom_site_fract_x
_atom_site_fract_y
_atom_site_fract_z
Si Si1 0.311911 0.033656 0.982960
Si Si2 0.178852 0.648968 0.843478
Si Si3 0.586463 0.046591 0.653115
Si Si4 0.031532 0.865804 0.709176
Si Si5 0.562642 0.604636 0.909686
Si Si6 0.658424 0.910148 0.529074
Si Si7 0.054376 0.018080 0.562809
Si Si8 0.400042 0.515425 0.225625
O O1 0.229698 0.004234 0.994760
O O2 0.327309 0.222916 0.981649
O O3 0.324071 0.967024 0.907522
O O4 0.369082 0.966248 0.035326
O O5 0.250000 0.750000 0.841775
O O6 0.115974 0.774197 0.854111
O O7 0.165211 0.554927 0.773460
O O8 0.576312 0.029769 0.734992
O O9 0.511254 0.036992 0.616456
O O10 0.639107 0.941034 0.608173
O O11 0.059313 0.685168 0.716092
O O12 0.035897 0.921580 0.631143
O O13 0.952702 0.894657 0.735408
O O14 0.555353 0.795076 0.916743
O O15 0.615022 0.557838 0.848361
O O16 0.593969 0.540896 0.980608
O O17 0.000000 0.000000 0.500000
#
# Coordination Sequence:
#
# PCOD9430775 Si02
#       8
#     8   8   8   8   8   8   8   8
#     4  10  22  38  58  84 121 160 204 252 305 377
#     4  11  21  39  61  86 121 161 205 251 307 373
#     4  10  20  37  62  87 118 156 204 257 302 370
#     4  10  21  38  59  89 123 153 206 253 311 361
#     4  10  22  38  60  92 123 157 204 259 313 375
#     4  10  21  39  57  87 121 159 202 253 311 366
#     4  11  22  39  63  90 126 163 203 255 314 375
#     4  10  22  39  61  90 123 159 203 263 312 369
#
# _framework density 20.509105000000002
#
# number of rings (size 3 to 8) (size 9 to 14) (size 15 to 20)
#    0.000    1.750    1.250    4.125    0.000    9.000 
#    4.500    0.000    0.000    0.000    0.000    0.000 
#    0.000    0.000    0.000    0.000    0.000    0.000 
#
# Total GULP energy -357132.263103 kJ/mol
# GULP energy per Si atom -5580.191611 kJ/mol
# Density = 2.046242 g / cm^3
# Si number density = 20.509105 Si / 1000 Ang^3
#
#
#
# Elastic Constant Matrix: (Units=GPa)
#
#
# Indices 1 2 3 4 5 6 
#
# 1 62.8636 -4.9099 31.2115 0.0000 0.0000 0.0000
# 2 -4.9099 23.6806 26.2263 0.0000 0.0000 0.0000
# 3 31.2115 26.2263 136.2111 0.0000 0.0000 0.0000
# 4 0.0000 0.0000 0.0000 33.6247 0.0000 0.0000
# 5 0.0000 0.0000 0.0000 0.0000 23.5365 0.0000
# 6 0.0000 0.0000 0.0000 0.0000 0.0000 21.6611
#
#
#
# Elastic Compliance Matrix: (Units=1/GPa)
#
#
# Indices 1 2 3 4 5 6 
#
# 1 0.020279 0.011885 -0.006935 0.000000 0.000000 0.000000
# 2 0.011885 0.060640 -0.014399 0.000000 0.000000 0.000000
# 3 -0.006935 -0.014399 0.011703 0.000000 0.000000 0.000000
# 4 0.000000 0.000000 0.000000 0.029740 0.000000 0.000000
# 5 0.000000 0.000000 0.000000 0.000000 0.042487 0.000000
# 6 0.000000 0.000000 0.000000 0.000000 0.000000 0.046166
#
#
# Mechanical properties :
#
#
# Convention : Reuss Voigt Hill
#
# Bulk Modulus (GPa) = 13.56407 36.42347 24.99377
# Shear Modulus (GPa) = 19.64732 27.11297 23.38014
#
# Velocity S-wave (km/s) = 3.09848 3.63987 3.38003
# Velocity P-wave (km/s) = 4.40782 5.95509 5.23889
#
# Compressibility (1/GPa) = 0.07372417
#
# Stress axis : x y z
#
# Youngs Moduli (GPa) = 49.31204 16.49077 85.44744
#
# Poissons Ratio (x) = -0.19600 0.59259
# Poissons Ratio (y) = -0.58609 1.23037
# Poissons Ratio (z) = 0.34199 0.23745
#
# Static dielectric constant tensor:
#      x y z
#    x 1.779730 0.000000 0.000000 
#    y 0.000000 1.732440 0.000000 
#    z 0.000000 0.000000 1.736210 
# 
# From -- ./inp_files/16853.got.cif
#   From: 2010.05.17/outbox.cif.g08.bks.cpg/sg56_9_cif.got.tgz:16853.got - 2010.06.03 13:42:01.
