data_PCOD9430324
_publ_section_title
;
Structure prediction by ZEFSAII (Michael W. Deem and Ramdas Pophale) SiO2 
 PCOD9430324
Probable space group: P C C N
;
_chemical_formula_sum "Si O2"
_cell_formula_units_Z 64
_cell_length_a 17.173590
_cell_length_b 12.120563
_cell_length_c 15.115313
_cell_angle_alpha 90.000000
_cell_angle_beta 90.000000
_cell_angle_gamma 90.000000
_cell_volume 3146.306507
_symmetry_space_group_name_H-M "P C C N"
_symmetry_group_IT_number 56
_symmetry_cell_setting 'orthorhombic'
loop_
_space_group_symop_operation_xyz
x,y,z
1/2-x,1/2-y,z
1/2+x,-y,1/2-z
-x,1/2+y,1/2-z
-x,-y,-z
1/2+x,1/2+y,-z
1/2-x,y,1/2+z
x,1/2-y,1/2+z
loop_
_atom_site_type_symbol
_atom_site_label
_atom_site_fract_x
_atom_site_fract_y
_atom_site_fract_z
Si Si1 0.389890 0.418442 0.296942
Si Si2 0.671747 0.319117 0.287938
Si Si3 0.975264 0.978131 0.878700
Si Si4 0.571499 0.332734 0.654664
Si Si5 0.622388 0.466114 0.031048
Si Si6 0.158704 0.739016 0.021003
Si Si7 0.290760 0.046825 0.311840
Si Si8 0.444956 0.314912 0.789690
O O1 0.422975 0.431038 0.198191
O O2 0.411237 0.536153 0.339272
O O3 0.296399 0.410136 0.299074
O O4 0.432973 0.307305 0.329227
O O5 0.750000 0.250000 0.297964
O O6 0.618884 0.241642 0.226145
O O7 0.643561 0.328041 0.389370
O O8 0.693209 0.435426 0.243934
O O9 0.001127 0.102469 0.848390
O O10 0.928455 0.955840 0.969034
O O11 0.060412 0.926139 0.894635
O O12 0.604421 0.300281 0.558852
O O13 0.484067 0.315502 0.692063
O O14 0.693725 0.514742 0.085004
O O15 0.641229 0.367993 0.964960
O O16 0.250000 0.750000 0.993289
O O17 0.359177 0.131496 0.287416
#
# Coordination Sequence:
#
# PCOD9430324 Si02
#       8
#     8   8   8   8   8   8   8   8
#     4  11  21  38  62  89 126 161 204 253 316 379
#     4  11  22  38  60  92 121 155 202 258 312 373
#     4   9  21  38  65  89 114 166 217 259 293 373
#     4  11  21  38  61  88 117 162 205 257 315 360
#     4  10  19  38  61  90 114 159 214 252 301 372
#     4  11  21  32  58  89 119 151 194 260 313 361
#     4  11  22  39  63  88 127 163 207 252 320 380
#     4  10  23  38  63  89 123 166 203 258 311 374
#
# _framework density 20.341311999999999
#
# number of rings (size 3 to 8) (size 9 to 14) (size 15 to 20)
#    0.000    1.500    2.500    3.750    5.250    0.000 
#    0.000    0.625    8.250    4.500    0.000    0.000 
#    0.000    0.000    0.000    0.000    0.000    0.000 
#
# Total GULP energy -356576.986683 kJ/mol
# GULP energy per Si atom -5571.515417 kJ/mol
# Density = 2.029501 g / cm^3
# Si number density = 20.341312 Si / 1000 Ang^3
#
#
#
# Elastic Constant Matrix: (Units=GPa)
#
#
# Indices 1 2 3 4 5 6 
#
# 1 86.1015 26.6504 12.1085 0.0000 0.0000 0.0000
# 2 26.6504 93.8773 27.7569 0.0000 0.0000 0.0000
# 3 12.1085 27.7569 79.6688 0.0000 0.0000 0.0000
# 4 0.0000 0.0000 0.0000 10.7574 0.0000 0.0000
# 5 0.0000 0.0000 0.0000 0.0000 37.2425 0.0000
# 6 0.0000 0.0000 0.0000 0.0000 0.0000 28.9529
#
#
#
# Elastic Compliance Matrix: (Units=1/GPa)
#
#
# Indices 1 2 3 4 5 6 
#
# 1 0.012774 -0.003403 -0.000756 0.000000 0.000000 0.000000
# 2 -0.003403 0.012782 -0.003936 0.000000 0.000000 0.000000
# 3 -0.000756 -0.003936 0.014038 0.000000 0.000000 0.000000
# 4 0.000000 0.000000 0.000000 0.092960 0.000000 0.000000
# 5 0.000000 0.000000 0.000000 0.000000 0.026851 0.000000
# 6 0.000000 0.000000 0.000000 0.000000 0.000000 0.034539
#
#
# Mechanical properties :
#
#
# Convention : Reuss Voigt Hill
#
# Bulk Modulus (GPa) = 42.72708 43.63105 43.17906
# Shear Modulus (GPa) = 22.94268 28.26600 25.60434
#
# Velocity S-wave (km/s) = 3.36204 3.73176 3.55172
# Velocity P-wave (km/s) = 6.01014 6.32962 6.17195
#
# Compressibility (1/GPa) = 0.02340436
#
# Stress axis : x y z
#
# Youngs Moduli (GPa) = 78.28563 78.23490 71.23414
#
# Poissons Ratio (x) = 0.26622 0.05384
# Poissons Ratio (y) = 0.26639 0.28039
# Poissons Ratio (z) = 0.05917 0.30794
#
# Static dielectric constant tensor:
#      x y z
#    x 1.791930 0.000000 0.000000 
#    y 0.000000 1.779970 0.000000 
#    z 0.000000 0.000000 1.757430 
# 
# From -- ./inp_files/12855.got.cif
#   From: 2010.05.17/outbox.cif.g08.bks.cpg/sg56_7_cif.got.tgz:12855.got - 2010.06.03 13:42:01.
