data_PCOD9430824
_publ_section_title
;
Structure prediction by ZEFSAII (Michael W. Deem and Ramdas Pophale) SiO2 
 PCOD9430824
Probable space group: P C C N
;
_chemical_formula_sum "Si O2"
_cell_formula_units_Z 60
_cell_length_a 5.660891
_cell_length_b 25.947399
_cell_length_c 16.113292
_cell_angle_alpha 90.000000
_cell_angle_beta 90.000000
_cell_angle_gamma 90.000000
_cell_volume 2366.807300
_symmetry_space_group_name_H-M "P C C N"
_symmetry_group_IT_number 56
_symmetry_cell_setting 'orthorhombic'
loop_
_space_group_symop_operation_xyz
x,y,z
1/2-x,1/2-y,z
1/2+x,-y,1/2-z
-x,1/2+y,1/2-z
-x,-y,-z
1/2+x,1/2+y,-z
1/2-x,y,1/2+z
x,1/2-y,1/2+z
loop_
_atom_site_type_symbol
_atom_site_label
_atom_site_fract_x
_atom_site_fract_y
_atom_site_fract_z
Si Si1 0.214730 0.688317 0.990941
Si Si2 0.619678 0.195781 0.343396
Si Si3 0.392271 0.948375 0.749848
Si Si4 0.750000 0.750000 0.260235
Si Si5 0.354523 0.691123 0.817243
Si Si6 0.086539 0.105492 0.453548
Si Si7 0.108300 0.068763 0.267595
Si Si8 0.077770 0.553287 0.544346
O O1 0.250000 0.750000 0.981169
O O2 0.272766 0.666497 0.901117
O O3 0.377393 0.670318 0.067949
O O4 0.966167 0.664321 0.019092
O O5 0.750000 0.250000 0.358868
O O6 0.379421 0.212098 0.303301
O O7 0.766530 0.169493 0.270287
O O8 0.140801 0.925882 0.778889
O O9 0.405495 0.950162 0.647231
O O10 0.638539 0.921241 0.774994
O O11 0.392756 0.006862 0.783810
O O12 0.624924 0.792469 0.317260
O O13 0.250000 0.750000 0.811853
O O14 0.098792 0.098862 0.353937
O O15 0.845202 0.073282 0.479358
O O16 0.342169 0.085683 0.480932
O O17 0.000000 0.500000 0.500000
#
# Coordination Sequence:
#
# PCOD9430824 Si02
#       8
#     8   8   8   4   8   8   8   8
#     4  10  20  38  58  88 126 175 220 269 335 397
#     4   8  16  32  52  78 111 152 212 263 328 384
#     4   8  14  26  50  79 100 140 181 225 307 372
#     4   8  14  30  52  78 106 150 220 274 312 394
#     4   8  16  32  52  78 112 156 216 265 321 380
#     4  10  21  38  56  91 122 158 216 266 312 404
#     4   8  14  27  49  74 108 138 181 242 290 357
#     4  10  20  38  61  84 122 159 202 267 336 389
#
# _framework density 25.350605999999999
#
# number of rings (size 3 to 8) (size 9 to 14) (size 15 to 20)
#    0.000    3.467    0.000    0.400    0.000    0.533 
#   14.400    1.333    0.000    6.400    0.000    0.000 
#    0.000    0.000    0.000    0.000    0.000    0.000 
#
# Total GULP energy -334070.532133 kJ/mol
# GULP energy per Si atom -5567.842202 kJ/mol
# Density = 2.529291 g / cm^3
# Si number density = 25.350606 Si / 1000 Ang^3
#
#
#
# Elastic Constant Matrix: (Units=GPa)
#
#
# Indices 1 2 3 4 5 6 
#
# 1 162.8815 36.8192 6.5614 0.0000 0.0000 0.0000
# 2 36.8192 86.4072 0.0987 0.0000 0.0000 0.0000
# 3 6.5614 0.0987 92.1997 0.0000 0.0000 0.0000
# 4 0.0000 0.0000 0.0000 -69.1951 0.0000 0.0000
# 5 0.0000 0.0000 0.0000 0.0000 -46.9846 0.0000
# 6 0.0000 0.0000 0.0000 0.0000 0.0000 19.2158
#
#
#
# Elastic Compliance Matrix: (Units=1/GPa)
#
#
# Indices 1 2 3 4 5 6 
#
# 1 0.006815 -0.002903 -0.000482 0.000000 0.000000 0.000000
# 2 -0.002903 0.012810 0.000193 0.000000 0.000000 0.000000
# 3 -0.000482 0.000193 0.010880 0.000000 0.000000 0.000000
# 4 0.000000 0.000000 0.000000 -0.014452 0.000000 0.000000
# 5 0.000000 0.000000 0.000000 0.000000 -0.021284 0.000000
# 6 0.000000 0.000000 0.000000 0.000000 0.000000 0.052041
#
#
# Mechanical properties :
#
#
# Convention : Reuss Voigt Hill
#
# Bulk Modulus (GPa) = 41.45858 47.60522 44.53190
# Shear Modulus (GPa) = 81.65182 0.47449 41.06315
#
# Velocity S-wave (km/s) = 5.68146 0.43310 4.02905
# Velocity P-wave (km/s) = 7.70897 4.36688 6.26489
#
# Compressibility (1/GPa) = 0.02412046
#
# Stress axis : x y z
#
# Youngs Moduli (GPa) = 146.73141 78.06337 91.91089
#
# Poissons Ratio (x) = 0.22666 0.04429
# Poissons Ratio (y) = 0.42603 -0.01773
# Poissons Ratio (z) = 0.07071 -0.01506
#
# Static dielectric constant tensor:
#      x y z
#    x 3.978910 0.000000 0.000000 
#    y 0.000000 1.953740 0.000000 
#    z 0.000000 0.000000 1.980660 
# 
# From -- ./inp_files/14097.got.cif
#   From: 2010.05.17/outbox.cif.g08.bks.cpg/sg56_8_cif.got.tgz:14097.got - 2010.06.03 13:42:01.
