data_PCOD9430187
_publ_section_title
;
Structure prediction by ZEFSAII (Michael W. Deem and Ramdas Pophale) SiO2 
 PCOD9430187
Probable space group: P C C N
;
_chemical_formula_sum "Si O2"
_cell_formula_units_Z 60
_cell_length_a 30.117362
_cell_length_b 11.237785
_cell_length_c 9.151206
_cell_angle_alpha 90.000000
_cell_angle_beta 90.000000
_cell_angle_gamma 90.000000
_cell_volume 3097.247990
_symmetry_space_group_name_H-M "P C C N"
_symmetry_group_IT_number 56
_symmetry_cell_setting 'orthorhombic'
loop_
_space_group_symop_operation_xyz
x,y,z
1/2-x,1/2-y,z
1/2+x,-y,1/2-z
-x,1/2+y,1/2-z
-x,-y,-z
1/2+x,1/2+y,-z
1/2-x,y,1/2+z
x,1/2-y,1/2+z
loop_
_atom_site_type_symbol
_atom_site_label
_atom_site_fract_x
_atom_site_fract_y
_atom_site_fract_z
Si Si1 0.307560 0.859966 0.524257
Si Si2 0.750000 0.250000 0.719422
Si Si3 0.932895 0.138031 0.836773
Si Si4 0.437554 0.231171 0.009708
Si Si5 0.888336 0.309854 0.041413
Si Si6 0.616658 0.546833 0.004494
Si Si7 0.996729 0.809408 0.757656
Si Si8 0.076196 0.508599 0.183932
O O1 0.282673 0.823299 0.672981
O O2 0.273999 0.844718 0.388119
O O3 0.342870 0.755502 0.491032
O O4 0.336184 0.982612 0.529467
O O5 0.897239 0.170143 0.710821
O O6 0.978609 0.181895 0.768120
O O7 0.925093 0.219284 0.978562
O O8 0.919033 0.009676 0.891457
O O9 0.477210 0.309366 0.080571
O O10 0.433064 0.120334 0.117938
O O11 0.393567 0.312459 0.999552
O O12 0.455908 0.185408 0.855530
O O13 0.895876 0.424280 0.941483
O O14 0.603224 0.504097 0.166614
O O15 0.032385 0.912057 0.719168
#
# Coordination Sequence:
#
# PCOD9430187 Si02
#       8
#     8   4   8   8   8   8   8   8
#     4  10  19  37  61  95 122 141 174 228 287 366
#     4  10  20  34  64 102 122 136 170 220 298 364
#     4  10  20  34  57  81 110 160 199 243 296 329
#     4  12  25  37  53  80 113 158 214 249 298 331
#     4  10  19  35  59  85 118 154 192 229 288 352
#     4  11  23  39  57  81 118 157 195 237 301 357
#     4  11  22  37  54  77 114 150 212 267 286 321
#     4  11  23  39  55  79 114 163 209 253 292 327
#
# _framework density 19.372036000000001
#
# number of rings (size 3 to 8) (size 9 to 14) (size 15 to 20)
#    0.000    1.333    1.333    8.400    3.733    1.067 
#    0.000    0.000    0.000    0.000    0.000   15.867 
#    0.000    0.000    0.000    0.000    0.000    0.000 
#
# Total GULP energy -334801.323672 kJ/mol
# GULP energy per Si atom -5580.022061 kJ/mol
# Density = 1.932794 g / cm^3
# Si number density = 19.372036 Si / 1000 Ang^3
#
#
#
# Elastic Constant Matrix: (Units=GPa)
#
#
# Indices 1 2 3 4 5 6 
#
# 1 68.8062 29.5938 14.9221 0.0000 0.0000 0.0000
# 2 29.5938 65.0455 16.1505 0.0000 0.0000 0.0000
# 3 14.9221 16.1505 82.8266 0.0000 0.0000 0.0000
# 4 0.0000 0.0000 0.0000 23.1554 0.0000 0.0000
# 5 0.0000 0.0000 0.0000 0.0000 34.8116 0.0000
# 6 0.0000 0.0000 0.0000 0.0000 0.0000 21.3694
#
#
#
# Elastic Compliance Matrix: (Units=1/GPa)
#
#
# Indices 1 2 3 4 5 6 
#
# 1 0.018310 -0.007894 -0.001760 0.000000 0.000000 0.000000
# 2 -0.007894 0.019559 -0.002392 0.000000 0.000000 0.000000
# 3 -0.001760 -0.002392 0.012857 0.000000 0.000000 0.000000
# 4 0.000000 0.000000 0.000000 0.043186 0.000000 0.000000
# 5 0.000000 0.000000 0.000000 0.000000 0.028726 0.000000
# 6 0.000000 0.000000 0.000000 0.000000 0.000000 0.046796
#
#
# Mechanical properties :
#
#
# Convention : Reuss Voigt Hill
#
# Bulk Modulus (GPa) = 37.54304 37.55681 37.54993
# Shear Modulus (GPa) = 24.70313 26.26808 25.48561
#
# Velocity S-wave (km/s) = 3.57486 3.68636 3.63104
# Velocity P-wave (km/s) = 6.03834 6.12766 6.08317
#
# Compressibility (1/GPa) = 0.02663609
#
# Stress axis : x y z
#
# Youngs Moduli (GPa) = 54.61401 51.12699 77.77987
#
# Poissons Ratio (x) = 0.40358 0.13686
# Poissons Ratio (y) = 0.43111 0.18603
# Poissons Ratio (z) = 0.09610 0.12228
#
# Static dielectric constant tensor:
#      x y z
#    x 1.707410 0.000000 0.000000 
#    y 0.000000 1.723390 0.000000 
#    z 0.000000 0.000000 1.692240 
# 
# From -- ./inp_files/5191.got.cif
#   From: 2010.05.17/outbox.cif.g08.bks.cpg/sg56_3_cif.got.tgz:5191.got - 2010.06.03 13:42:01.
