data_PCOD9430914
_publ_section_title
;
Structure prediction by ZEFSAII (Michael W. Deem and Ramdas Pophale) SiO2 
 PCOD9430914
Probable space group: P C C N
;
_chemical_formula_sum "Si O2"
_cell_formula_units_Z 36
_cell_length_a 12.354465
_cell_length_b 9.585351
_cell_length_c 12.530205
_cell_angle_alpha 90.000000
_cell_angle_beta 90.000000
_cell_angle_gamma 90.000000
_cell_volume 1483.850476
_symmetry_space_group_name_H-M "P C C N"
_symmetry_group_IT_number 56
_symmetry_cell_setting 'orthorhombic'
loop_
_space_group_symop_operation_xyz
x,y,z
1/2-x,1/2-y,z
1/2+x,-y,1/2-z
-x,1/2+y,1/2-z
-x,-y,-z
1/2+x,1/2+y,-z
1/2-x,y,1/2+z
x,1/2-y,1/2+z
loop_
_atom_site_type_symbol
_atom_site_label
_atom_site_fract_x
_atom_site_fract_y
_atom_site_fract_z
Si Si1 0.859966 0.189193 0.073473
Si Si2 0.906498 0.998780 0.905895
Si Si3 0.913605 0.815080 0.446759
Si Si4 0.250000 0.250000 0.376735
Si Si5 0.915526 0.540991 0.737377
O O1 0.750000 0.250000 0.112860
O O2 0.958602 0.287500 0.035555
O O3 0.901275 0.104612 0.177451
O O4 0.825126 0.094524 0.970786
O O5 0.961425 0.070865 0.804090
O O6 0.875421 0.836643 0.895509
O O7 0.000000 0.000000 0.000000
O O8 0.838113 0.829055 0.549103
O O9 0.905214 0.937738 0.361924
O O10 0.175392 0.357661 0.312670
#
# Coordination Sequence:
#
# PCOD9430914 Si02
#       5
#     8   8   8   4   8
#     4  10  20  44  65  90 132 173 205 269 327 379
#     4   8  16  40  61  80 124 168 206 259 310 362
#     4  10  20  38  66  91 123 168 218 260 316 377
#     4  12  18  38  64  90 122 166 216 264 308 376
#     4  10  20  38  64  93 122 165 220 264 315 375
#
# _framework density 24.261205
#
# number of rings (size 3 to 8) (size 9 to 14) (size 15 to 20)
#    0.000    2.667    6.667    0.667    0.000    0.000 
#   16.000    6.667    0.000    0.000    0.000    0.000 
#    0.000    0.000    0.000    0.000    0.000    0.000 
#
# Total GULP energy -200605.829630 kJ/mol
# GULP energy per Si atom -5572.384156 kJ/mol
# Density = 2.420599 g / cm^3
# Si number density = 24.261205 Si / 1000 Ang^3
#
#
#
# Elastic Constant Matrix: (Units=GPa)
#
#
# Indices 1 2 3 4 5 6 
#
# 1 60.3159 19.5542 8.8426 0.0000 0.0000 0.0000
# 2 19.5542 23.1226 13.0310 0.0000 0.0000 0.0000
# 3 8.8426 13.0310 34.9188 0.0000 0.0000 0.0000
# 4 0.0000 0.0000 0.0000 31.3876 0.0000 0.0000
# 5 0.0000 0.0000 0.0000 0.0000 -14.3991 0.0000
# 6 0.0000 0.0000 0.0000 0.0000 0.0000 32.8923
#
#
#
# Elastic Compliance Matrix: (Units=1/GPa)
#
#
# Indices 1 2 3 4 5 6 
#
# 1 0.022932 -0.020413 0.001811 0.000000 0.000000 0.000000
# 2 -0.020413 0.072937 -0.022049 0.000000 0.000000 0.000000
# 3 0.001811 -0.022049 0.036408 0.000000 0.000000 0.000000
# 4 0.000000 0.000000 0.000000 0.031860 0.000000 0.000000
# 5 0.000000 0.000000 0.000000 0.000000 -0.069449 0.000000
# 6 0.000000 0.000000 0.000000 0.000000 0.000000 0.030402
#
#
# Mechanical properties :
#
#
# Convention : Reuss Voigt Hill
#
# Bulk Modulus (GPa) = 19.61834 22.35699 20.98767
# Shear Modulus (GPa) = 22.38298 15.10481 18.74390
#
# Velocity S-wave (km/s) = 3.04070 2.49788 2.78256
# Velocity P-wave (km/s) = 4.52014 4.18979 4.35810
#
# Compressibility (1/GPa) = 0.05097272
#
# Stress axis : x y z
#
# Youngs Moduli (GPa) = 43.60744 13.71048 27.46684
#
# Poissons Ratio (x) = 0.27988 -0.04974
# Poissons Ratio (y) = 0.89018 0.60562
# Poissons Ratio (z) = -0.07896 0.30230
#
# Static dielectric constant tensor:
#      x y z
#    x 2.102690 0.000000 0.000000 
#    y 0.000000 2.147220 0.000000 
#    z 0.000000 0.000000 1.948570 
# 
# From -- ./inp_files/11358.got.cif
#   From: 2010.05.17/outbox.cif.g08.bks.cpg/sg56_6_cif.got.tgz:11358.got - 2010.06.03 13:42:01.
