data_PCOD9430595
_publ_section_title
;
Structure prediction by ZEFSAII (Michael W. Deem and Ramdas Pophale) SiO2 
 PCOD9430595
Probable space group: P C C N
;
_chemical_formula_sum "Si O2"
_cell_formula_units_Z 60
_cell_length_a 12.950964
_cell_length_b 21.851489
_cell_length_c 9.589341
_cell_angle_alpha 90.000000
_cell_angle_beta 90.000000
_cell_angle_gamma 90.000000
_cell_volume 2713.762861
_symmetry_space_group_name_H-M "P C C N"
_symmetry_group_IT_number 56
_symmetry_cell_setting 'orthorhombic'
loop_
_space_group_symop_operation_xyz
x,y,z
1/2-x,1/2-y,z
1/2+x,-y,1/2-z
-x,1/2+y,1/2-z
-x,-y,-z
1/2+x,1/2+y,-z
1/2-x,y,1/2+z
x,1/2-y,1/2+z
loop_
_atom_site_type_symbol
_atom_site_label
_atom_site_fract_x
_atom_site_fract_y
_atom_site_fract_z
Si Si1 0.980059 0.802743 0.400311
Si Si2 0.332136 0.459328 0.771017
Si Si3 0.293934 0.971979 0.988612
Si Si4 0.057439 0.575497 0.795306
Si Si5 0.905760 0.262987 0.846774
Si Si6 0.275907 0.647291 0.109294
Si Si7 0.752752 0.829970 0.808528
Si Si8 0.250000 0.250000 0.946311
O O1 0.021661 0.871643 0.400067
O O2 0.999140 0.777972 0.553322
O O3 0.051038 0.763633 0.296360
O O4 0.865533 0.809002 0.340474
O O5 0.292373 0.487009 0.915296
O O6 0.320300 0.507256 0.644190
O O7 0.452671 0.441945 0.783538
O O8 0.261987 0.401453 0.722083
O O9 0.391952 0.977636 0.886315
O O10 0.259647 0.900766 0.992367
O O11 0.147080 0.605325 0.701249
O O12 0.827781 0.320389 0.829423
O O13 0.843700 0.207440 0.921820
O O14 0.794016 0.798059 0.668630
O O15 0.804216 0.799860 0.947306
#
# Coordination Sequence:
#
# PCOD9430595 Si02
#       8
#     8   8   8   8   8   8   8   4
#     4  10  20  35  58  87 125 153 205 252 316 374
#     4  11  25  40  67  88 130 163 217 256 319 369
#     4  12  22  42  64  89 124 176 210 260 311 377
#     4  10  22  42  60  90 122 166 213 266 303 375
#     4  10  21  34  60  91 124 165 196 253 317 383
#     4  10  22  37  63  90 129 161 209 252 316 376
#     4  10  21  39  60  92 116 160 202 266 306 379
#     4  10  20  38  68  82 122 150 208 258 328 356
#
# _framework density 22.109521999999998
#
# number of rings (size 3 to 8) (size 9 to 14) (size 15 to 20)
#    0.000    1.600    2.667    2.000    1.867    1.600 
#    0.000    0.000    2.933    0.000    0.000    0.000 
#    0.000    0.000    0.000    0.000    0.000    0.000 
#
# Total GULP energy -334195.350821 kJ/mol
# GULP energy per Si atom -5569.922514 kJ/mol
# Density = 2.205920 g / cm^3
# Si number density = 22.109522 Si / 1000 Ang^3
#
#
#
# Elastic Constant Matrix: (Units=GPa)
#
#
# Indices 1 2 3 4 5 6 
#
# 1 98.4202 39.1245 23.8838 0.0000 0.0000 0.0000
# 2 39.1245 69.4263 10.9440 0.0000 0.0000 0.0000
# 3 23.8838 10.9440 56.8637 0.0000 0.0000 0.0000
# 4 0.0000 0.0000 0.0000 30.9808 0.0000 0.0000
# 5 0.0000 0.0000 0.0000 0.0000 18.2665 0.0000
# 6 0.0000 0.0000 0.0000 0.0000 0.0000 34.8528
#
#
#
# Elastic Compliance Matrix: (Units=1/GPa)
#
#
# Indices 1 2 3 4 5 6 
#
# 1 0.014148 -0.007257 -0.004546 0.000000 0.000000 0.000000
# 2 -0.007257 0.018576 -0.000527 0.000000 0.000000 0.000000
# 3 -0.004546 -0.000527 0.019597 0.000000 0.000000 0.000000
# 4 0.000000 0.000000 0.000000 0.032278 0.000000 0.000000
# 5 0.000000 0.000000 0.000000 0.000000 0.054745 0.000000
# 6 0.000000 0.000000 0.000000 0.000000 0.000000 0.028692
#
#
# Mechanical properties :
#
#
# Convention : Reuss Voigt Hill
#
# Bulk Modulus (GPa) = 36.15104 41.40164 38.77634
# Shear Modulus (GPa) = 24.76268 26.87054 25.81661
#
# Velocity S-wave (km/s) = 3.35027 3.48995 3.42082
# Velocity P-wave (km/s) = 5.59930 5.91659 5.76013
#
# Compressibility (1/GPa) = 0.02766172
#
# Stress axis : x y z
#
# Youngs Moduli (GPa) = 70.67958 53.83220 51.02875
#
# Poissons Ratio (x) = 0.39064 0.23198
# Poissons Ratio (y) = 0.51289 0.02691
# Poissons Ratio (z) = 0.32131 0.02839
#
# Static dielectric constant tensor:
#      x y z
#    x 1.896710 0.000000 0.000000 
#    y 0.000000 1.846730 0.000000 
#    z 0.000000 0.000000 1.811750 
# 
# From -- ./inp_files/3680.got.cif
#   From: 2010.05.17/outbox.cif.g08.bks.cpg/sg56_2_cif.got.tgz:3680.got - 2010.06.03 13:42:01.
