data_PCOD9430782
_publ_section_title
;
Structure prediction by ZEFSAII (Michael W. Deem and Ramdas Pophale) SiO2 
 PCOD9430782
Probable space group: P C C N
;
_chemical_formula_sum "Si O2"
_cell_formula_units_Z 40
_cell_length_a 14.962414
_cell_length_b 7.318736
_cell_length_c 15.379569
_cell_angle_alpha 90.000000
_cell_angle_beta 90.000000
_cell_angle_gamma 90.000000
_cell_volume 1684.154437
_symmetry_space_group_name_H-M "P C C N"
_symmetry_group_IT_number 56
_symmetry_cell_setting 'orthorhombic'
loop_
_space_group_symop_operation_xyz
x,y,z
1/2-x,1/2-y,z
1/2+x,-y,1/2-z
-x,1/2+y,1/2-z
-x,-y,-z
1/2+x,1/2+y,-z
1/2-x,y,1/2+z
x,1/2-y,1/2+z
loop_
_atom_site_type_symbol
_atom_site_label
_atom_site_fract_x
_atom_site_fract_y
_atom_site_fract_z
Si Si1 0.147636 0.806693 0.749695
Si Si2 0.657792 0.244451 0.443078
Si Si3 0.956881 0.671117 0.717726
Si Si4 0.477867 0.284505 0.982363
Si Si5 0.348338 0.325873 0.124691
O O1 0.250000 0.750000 0.777757
O O2 0.160593 0.854865 0.647079
O O3 0.061139 0.668985 0.750270
O O4 0.101077 0.985068 0.790712
O O5 0.750000 0.250000 0.493255
O O6 0.574239 0.302280 0.499928
O O7 0.652432 0.037151 0.405308
O O8 0.960132 0.745109 0.619327
O O9 0.904016 0.788498 0.788609
O O10 0.500000 0.500000 0.000000
O O11 0.399840 0.228344 0.045529
O O12 0.250000 0.250000 0.135688
#
# Coordination Sequence:
#
# PCOD9430782 Si02
#       5
#     8   8   8   8   8
#     4  10  20  37  62  94 125 164 210 259 318 384
#     4   9  18  37  61  87 121 163 206 261 325 388
#     4  11  22  40  65  92 126 168 212 263 325 391
#     4   9  20  39  61  88 123 161 206 262 323 384
#     4  11  22  39  62  89 124 166 212 269 325 389
#
# _framework density 23.750789999999999
#
# number of rings (size 3 to 8) (size 9 to 14) (size 15 to 20)
#    0.000    2.000    0.000    6.000    0.000    0.800 
#    0.000   20.000    0.000    2.400    0.000    1.400 
#    0.000    0.000    0.000    0.000    0.000    0.000 
#
# Total GULP energy -222952.605656 kJ/mol
# GULP energy per Si atom -5573.815141 kJ/mol
# Density = 2.369673 g / cm^3
# Si number density = 23.750790 Si / 1000 Ang^3
#
#
#
# Elastic Constant Matrix: (Units=GPa)
#
#
# Indices 1 2 3 4 5 6 
#
# 1 257.8131 37.1503 69.7558 0.0000 0.0000 0.0000
# 2 37.1503 78.5080 15.3476 0.0000 0.0000 0.0000
# 3 69.7558 15.3476 91.7293 0.0000 0.0000 0.0000
# 4 0.0000 0.0000 0.0000 17.2733 0.0000 0.0000
# 5 0.0000 0.0000 0.0000 0.0000 34.9712 0.0000
# 6 0.0000 0.0000 0.0000 0.0000 0.0000 32.9769
#
#
#
# Elastic Compliance Matrix: (Units=1/GPa)
#
#
# Indices 1 2 3 4 5 6 
#
# 1 0.005096 -0.001710 -0.003589 0.000000 0.000000 0.000000
# 2 -0.001710 0.013742 -0.000999 0.000000 0.000000 0.000000
# 3 -0.003589 -0.000999 0.013798 0.000000 0.000000 0.000000
# 4 0.000000 0.000000 0.000000 0.057893 0.000000 0.000000
# 5 0.000000 0.000000 0.000000 0.000000 0.028595 0.000000
# 6 0.000000 0.000000 0.000000 0.000000 0.000000 0.030324
#
#
# Mechanical properties :
#
#
# Convention : Reuss Voigt Hill
#
# Bulk Modulus (GPa) = 49.89980 74.72864 62.31422
# Shear Modulus (GPa) = 29.63396 37.43074 33.53235
#
# Velocity S-wave (km/s) = 3.53612 3.97417 3.76152
# Velocity P-wave (km/s) = 6.14227 7.25194 6.72005
#
# Compressibility (1/GPa) = 0.02004016
#
# Stress axis : x y z
#
# Youngs Moduli (GPa) = 196.21842 72.76972 72.47227
#
# Poissons Ratio (x) = 0.12443 0.26014
# Poissons Ratio (y) = 0.33552 0.07239
# Poissons Ratio (z) = 0.70432 0.07269
#
# Static dielectric constant tensor:
#      x y z
#    x 1.995610 0.000000 0.000000 
#    y 0.000000 2.128680 0.000000 
#    z 0.000000 0.000000 1.850580 
# 
# From -- ./inp_files/12067.got.cif
#   From: 2010.05.17/outbox.cif.g08.bks.cpg/sg56_7_cif.got.tgz:12067.got - 2010.06.03 13:42:01.
