data_PCOD9430067
_publ_section_title
;
Structure prediction by ZEFSAII (Michael W. Deem and Ramdas Pophale) SiO2 
 PCOD9430067
Probable space group: P C C N
;
_chemical_formula_sum "Si O2"
_cell_formula_units_Z 64
_cell_length_a 20.504255
_cell_length_b 26.620891
_cell_length_c 5.541102
_cell_angle_alpha 90.000000
_cell_angle_beta 90.000000
_cell_angle_gamma 90.000000
_cell_volume 3024.563635
_symmetry_space_group_name_H-M "P C C N"
_symmetry_group_IT_number 56
_symmetry_cell_setting 'orthorhombic'
loop_
_space_group_symop_operation_xyz
x,y,z
1/2-x,1/2-y,z
1/2+x,-y,1/2-z
-x,1/2+y,1/2-z
-x,-y,-z
1/2+x,1/2+y,-z
1/2-x,y,1/2+z
x,1/2-y,1/2+z
loop_
_atom_site_type_symbol
_atom_site_label
_atom_site_fract_x
_atom_site_fract_y
_atom_site_fract_z
Si Si1 0.915549 0.048093 0.900413
Si Si2 0.961505 0.948430 0.736501
Si Si3 0.501657 0.225957 0.897539
Si Si4 0.605968 0.873742 0.583226
Si Si5 0.852315 0.736202 0.554030
Si Si6 0.222634 0.410020 0.112613
Si Si7 0.518007 0.124991 0.129780
Si Si8 0.228305 0.525650 0.544416
O O1 0.920227 0.101509 0.764840
O O2 0.847757 0.031694 0.015999
O O3 0.931190 0.003130 0.714283
O O4 0.974013 0.048698 0.094996
O O5 0.982519 0.922115 0.493538
O O6 0.909385 0.913944 0.877688
O O7 0.525462 0.253413 0.141579
O O8 0.422858 0.235279 0.908224
O O9 0.522688 0.168328 0.932950
O O10 0.638737 0.822524 0.500242
O O11 0.650172 0.899562 0.789716
O O12 0.535574 0.855743 0.680645
O O13 0.821356 0.739220 0.818899
O O14 0.264115 0.389558 0.343474
O O15 0.243717 0.468782 0.082303
O O16 0.264248 0.548327 0.312476
#
# Coordination Sequence:
#
# PCOD9430067 Si02
#       8
#     8   8   8   8   8   8   8   8
#     4  10  23  37  53  87 121 160 202 248 308 356
#     4  10  21  36  54  85 124 157 191 250 307 372
#     4  10  19  35  54  85 118 153 189 229 297 372
#     4  11  22  34  61  85 112 156 205 245 310 365
#     4  10  19  33  54  85 111 149 189 240 301 371
#     4  10  23  39  56  82 104 149 208 256 283 337
#     4  11  22  33  60  87 122 158 190 249 304 384
#     4  10  22  39  60  77 109 159 204 247 282 337
#
# _framework density 21.160077000000001
#
# number of rings (size 3 to 8) (size 9 to 14) (size 15 to 20)
#    0.000    1.750    2.500    3.375    8.750    0.000 
#    0.000    0.000    0.000    2.250    0.000    0.000 
#    0.000    3.000    0.000    0.000    0.000    0.000 
#
# Total GULP energy -357084.372685 kJ/mol
# GULP energy per Si atom -5579.443323 kJ/mol
# Density = 2.111192 g / cm^3
# Si number density = 21.160077 Si / 1000 Ang^3
#
#
#
# Elastic Constant Matrix: (Units=GPa)
#
#
# Indices 1 2 3 4 5 6 
#
# 1 55.1554 27.3622 3.1386 0.0000 0.0000 0.0000
# 2 27.3622 40.2852 -0.5622 0.0000 0.0000 0.0000
# 3 3.1386 -0.5622 111.9704 0.0000 0.0000 0.0000
# 4 0.0000 0.0000 0.0000 11.3960 0.0000 0.0000
# 5 0.0000 0.0000 0.0000 0.0000 15.9585 0.0000
# 6 0.0000 0.0000 0.0000 0.0000 0.0000 10.5430
#
#
#
# Elastic Compliance Matrix: (Units=1/GPa)
#
#
# Indices 1 2 3 4 5 6 
#
# 1 0.027427 -0.018641 -0.000862 0.000000 0.000000 0.000000
# 2 -0.018641 0.037494 0.000711 0.000000 0.000000 0.000000
# 3 -0.000862 0.000711 0.008959 0.000000 0.000000 0.000000
# 4 0.000000 0.000000 0.000000 0.087750 0.000000 0.000000
# 5 0.000000 0.000000 0.000000 0.000000 0.062663 0.000000
# 6 0.000000 0.000000 0.000000 0.000000 0.000000 0.094850
#
#
# Mechanical properties :
#
#
# Convention : Reuss Voigt Hill
#
# Bulk Modulus (GPa) = 27.55211 29.69869 28.62540
# Shear Modulus (GPa) = 13.55652 19.41098 16.48375
#
# Velocity S-wave (km/s) = 2.53388 3.03205 2.79409
# Velocity P-wave (km/s) = 4.64864 5.13064 4.89557
#
# Compressibility (1/GPa) = 0.03629486
#
# Stress axis : x y z
#
# Youngs Moduli (GPa) = 36.45996 26.67085 111.62366
#
# Poissons Ratio (x) = 0.49717 0.09626
# Poissons Ratio (y) = 0.67965 -0.07934
# Poissons Ratio (z) = 0.03144 -0.01896
#
# Static dielectric constant tensor:
#      x y z
#    x 1.787200 0.000000 0.000000 
#    y 0.000000 1.798480 0.000000 
#    z 0.000000 0.000000 1.860620 
# 
# From -- ./inp_files/973.got.cif
#   From: 2010.05.17/outbox.cif.g08.bks.cpg/sg56_1_cif.got.tgz:973.got - 2010.06.03 13:42:01.
