data_PCOD9430546
_publ_section_title
;
Structure prediction by ZEFSAII (Michael W. Deem and Ramdas Pophale) SiO2 
 PCOD9430546
Probable space group: P C C N
;
_chemical_formula_sum "Si O2"
_cell_formula_units_Z 64
_cell_length_a 10.040415
_cell_length_b 19.397155
_cell_length_c 16.224401
_cell_angle_alpha 90.000000
_cell_angle_beta 90.000000
_cell_angle_gamma 90.000000
_cell_volume 3159.791102
_symmetry_space_group_name_H-M "P C C N"
_symmetry_group_IT_number 56
_symmetry_cell_setting 'orthorhombic'
loop_
_space_group_symop_operation_xyz
x,y,z
1/2-x,1/2-y,z
1/2+x,-y,1/2-z
-x,1/2+y,1/2-z
-x,-y,-z
1/2+x,1/2+y,-z
1/2-x,y,1/2+z
x,1/2-y,1/2+z
loop_
_atom_site_type_symbol
_atom_site_label
_atom_site_fract_x
_atom_site_fract_y
_atom_site_fract_z
Si Si1 0.166172 0.040855 0.093362
Si Si2 0.449295 0.607653 0.561781
Si Si3 0.500184 0.857316 0.725686
Si Si4 0.245470 0.326325 0.678422
Si Si5 0.153605 0.986494 0.442349
Si Si6 0.726548 0.076261 0.792505
Si Si7 0.612045 0.779670 0.149792
Si Si8 0.594868 0.496711 0.159394
O O1 0.186047 0.119453 0.116463
O O2 0.212881 0.995287 0.172289
O O3 0.257664 0.018036 0.017457
O O4 0.008837 0.027220 0.090337
O O5 0.392975 0.589247 0.471467
O O6 0.531114 0.536545 0.577094
O O7 0.329300 0.613553 0.626225
O O8 0.544591 0.670208 0.584284
O O9 0.603666 0.848757 0.800382
O O10 0.347339 0.877847 0.743114
O O11 0.520168 0.785516 0.676056
O O12 0.558919 0.924483 0.678676
O O13 0.250000 0.250000 0.643388
O O14 0.161714 0.318514 0.765177
O O15 0.253257 0.988681 0.367302
O O16 0.599311 0.055101 0.737219
O O17 0.750000 0.750000 0.115489
#
# Coordination Sequence:
#
# PCOD9430546 Si02
#       8
#     8   8   8   8   8   8   8   8
#     4  10  20  35  52  83 111 149 186 236 289 341
#     4  10  21  37  54  82 111 150 189 235 287 347
#     4   9  19  32  53  89 114 144 187 244 285 338
#     4   9  17  33  56  80 110 145 189 239 281 333
#     4  10  22  35  55  80 117 149 186 238 295 338
#     4  10  21  31  58  86 110 144 189 236 291 326
#     4   9  18  34  58  81 111 147 193 240 286 335
#     4  11  20  33  57  83 118 145 188 244 282 346
#
# _framework density 20.254505000000002
#
# number of rings (size 3 to 8) (size 9 to 14) (size 15 to 20)
#    0.000    2.500    1.250    2.625    3.500    1.500 
#    0.000    1.875    0.000    1.500    0.000    7.000 
#    0.000    0.000    0.000    0.000    0.000    0.000 
#
# Total GULP energy -356555.650087 kJ/mol
# GULP energy per Si atom -5571.182033 kJ/mol
# Density = 2.020840 g / cm^3
# Si number density = 20.254505 Si / 1000 Ang^3
#
#
#
# Elastic Constant Matrix: (Units=GPa)
#
#
# Indices 1 2 3 4 5 6 
#
# 1 69.4078 13.9278 4.8194 0.0000 0.0000 0.0000
# 2 13.9278 85.2593 14.0943 0.0000 0.0000 0.0000
# 3 4.8194 14.0943 27.4569 0.0000 0.0000 0.0000
# 4 0.0000 0.0000 0.0000 14.0340 0.0000 0.0000
# 5 0.0000 0.0000 0.0000 0.0000 26.2712 0.0000
# 6 0.0000 0.0000 0.0000 0.0000 0.0000 32.4885
#
#
#
# Elastic Compliance Matrix: (Units=1/GPa)
#
#
# Indices 1 2 3 4 5 6 
#
# 1 0.014952 -0.002195 -0.001498 0.000000 0.000000 0.000000
# 2 -0.002195 0.013139 -0.006359 0.000000 0.000000 0.000000
# 3 -0.001498 -0.006359 0.039948 0.000000 0.000000 0.000000
# 4 0.000000 0.000000 0.000000 0.071256 0.000000 0.000000
# 5 0.000000 0.000000 0.000000 0.000000 0.038065 0.000000
# 6 0.000000 0.000000 0.000000 0.000000 0.000000 0.030780
#
#
# Mechanical properties :
#
#
# Convention : Reuss Voigt Hill
#
# Bulk Modulus (GPa) = 20.86160 27.53411 24.19786
# Shear Modulus (GPa) = 20.47325 24.51088 22.49207
#
# Velocity S-wave (km/s) = 3.18276 3.48249 3.33599
# Velocity P-wave (km/s) = 4.88146 5.45838 5.17796
#
# Compressibility (1/GPa) = 0.04793495
#
# Stress axis : x y z
#
# Youngs Moduli (GPa) = 66.88041 76.11083 25.03262
#
# Poissons Ratio (x) = 0.16706 0.03749
# Poissons Ratio (y) = 0.14680 0.15919
# Poissons Ratio (z) = 0.10017 0.48400
#
# Static dielectric constant tensor:
#      x y z
#    x 1.752920 0.000000 0.000000 
#    y 0.000000 1.708680 0.000000 
#    z 0.000000 0.000000 1.768620 
# 
# From -- ./inp_files/15219.got.cif
#   From: 2010.05.17/outbox.cif.g08.bks.cpg/sg56_8_cif.got.tgz:15219.got - 2010.06.03 13:42:01.
