data_PCOD9430512
_publ_section_title
;
Structure prediction by ZEFSAII (Michael W. Deem and Ramdas Pophale) SiO2 
 PCOD9430512
Probable space group: P C C N
;
_chemical_formula_sum "Si O2"
_cell_formula_units_Z 40
_cell_length_a 13.157953
_cell_length_b 5.202223
_cell_length_c 24.834669
_cell_angle_alpha 90.000000
_cell_angle_beta 90.000000
_cell_angle_gamma 90.000000
_cell_volume 1699.948136
_symmetry_space_group_name_H-M "P C C N"
_symmetry_group_IT_number 56
_symmetry_cell_setting 'orthorhombic'
loop_
_space_group_symop_operation_xyz
x,y,z
1/2-x,1/2-y,z
1/2+x,-y,1/2-z
-x,1/2+y,1/2-z
-x,-y,-z
1/2+x,1/2+y,-z
1/2-x,y,1/2+z
x,1/2-y,1/2+z
loop_
_atom_site_type_symbol
_atom_site_label
_atom_site_fract_x
_atom_site_fract_y
_atom_site_fract_z
Si Si1 0.178081 0.499448 0.021368
Si Si2 0.634050 0.204088 0.638960
Si Si3 0.179542 0.999682 0.639262
Si Si4 0.937572 0.408310 0.753016
Si Si5 0.126653 0.299011 0.911404
O O1 0.250000 0.250000 0.025489
O O2 0.127828 0.524291 0.080169
O O3 0.250000 0.750000 0.011942
O O4 0.111019 0.429422 0.969497
O O5 0.750000 0.250000 0.621683
O O6 0.632339 0.106461 0.699949
O O7 0.584152 0.983376 0.601901
O O8 0.909001 0.009905 0.631834
O O9 0.250000 0.250000 0.639269
O O10 0.250000 0.750000 0.643285
O O11 0.113583 0.005437 0.692720
O O12 0.022323 0.619750 0.738828
O O13 0.250000 0.250000 0.906912
#
# Coordination Sequence:
#
# PCOD9430512 Si02
#       5
#     8   8   8   8   8
#     4   9  16  29  52  83 112 136 173 229 280 321
#     4  10  20  34  56  81 108 142 184 226 269 328
#     4  10  21  38  61  85 110 146 192 232 271 331
#     4  12  25  40  57  80 116 153 188 234 285 330
#     4   9  16  29  52  83 110 133 171 228 279 319
#
# _framework density 23.530128999999999
#
# number of rings (size 3 to 8) (size 9 to 14) (size 15 to 20)
#    0.000    2.000    0.000    6.000    0.000    2.400 
#    0.000    0.000    0.000    7.200    0.000    0.000 
#    0.000    0.000    0.000    0.000    0.000    0.000 
#
# Total GULP energy -223315.474572 kJ/mol
# GULP energy per Si atom -5582.886864 kJ/mol
# Density = 2.347657 g / cm^3
# Si number density = 23.530129 Si / 1000 Ang^3
#
#
#
# Elastic Constant Matrix: (Units=GPa)
#
#
# Indices 1 2 3 4 5 6 
#
# 1 24.5734 18.7407 22.6869 0.0000 0.0000 0.0000
# 2 18.7407 162.7254 42.9590 0.0000 0.0000 0.0000
# 3 22.6869 42.9590 183.4607 0.0000 0.0000 0.0000
# 4 0.0000 0.0000 0.0000 40.5136 0.0000 0.0000
# 5 0.0000 0.0000 0.0000 0.0000 27.3443 0.0000
# 6 0.0000 0.0000 0.0000 0.0000 0.0000 15.8533
#
#
#
# Elastic Compliance Matrix: (Units=1/GPa)
#
#
# Indices 1 2 3 4 5 6 
#
# 1 0.048575 -0.004273 -0.005006 0.000000 0.000000 0.000000
# 2 -0.004273 0.006926 -0.001093 0.000000 0.000000 0.000000
# 3 -0.005006 -0.001093 0.006326 0.000000 0.000000 0.000000
# 4 0.000000 0.000000 0.000000 0.024683 0.000000 0.000000
# 5 0.000000 0.000000 0.000000 0.000000 0.036571 0.000000
# 6 0.000000 0.000000 0.000000 0.000000 0.000000 0.063078
#
#
# Mechanical properties :
#
#
# Convention : Reuss Voigt Hill
#
# Bulk Modulus (GPa) = 24.34153 59.94810 42.14481
# Shear Modulus (GPa) = 22.66569 35.83377 29.24973
#
# Velocity S-wave (km/s) = 3.10701 3.90665 3.52955
# Velocity P-wave (km/s) = 4.82065 6.77361 5.87879
#
# Compressibility (1/GPa) = 0.04108206
#
# Stress axis : x y z
#
# Youngs Moduli (GPa) = 20.58676 144.38230 158.08059
#
# Poissons Ratio (x) = 0.61689 0.79141
# Poissons Ratio (y) = 0.08796 0.17285
# Poissons Ratio (z) = 0.10306 0.15787
#
# Static dielectric constant tensor:
#      x y z
#    x 1.892310 0.000000 0.000000 
#    y 0.000000 1.883610 0.000000 
#    z 0.000000 0.000000 1.939790 
# 
# From -- ./inp_files/23451.got.cif
#   From: 2010.05.17/outbox.cif.g08.bks.cpg/sg56_12_cif.got.tgz:23451.got - 2010.06.03 13:42:01.
