data_PCOD9430335
_publ_section_title
;
Structure prediction by ZEFSAII (Michael W. Deem and Ramdas Pophale) SiO2 
 PCOD9430335
Probable space group: P C C N
;
_chemical_formula_sum "Si O2"
_cell_formula_units_Z 56
_cell_length_a 14.034115
_cell_length_b 12.483768
_cell_length_c 13.586833
_cell_angle_alpha 90.000000
_cell_angle_beta 90.000000
_cell_angle_gamma 90.000000
_cell_volume 2380.394606
_symmetry_space_group_name_H-M "P C C N"
_symmetry_group_IT_number 56
_symmetry_cell_setting 'orthorhombic'
loop_
_space_group_symop_operation_xyz
x,y,z
1/2-x,1/2-y,z
1/2+x,-y,1/2-z
-x,1/2+y,1/2-z
-x,-y,-z
1/2+x,1/2+y,-z
1/2-x,y,1/2+z
x,1/2-y,1/2+z
loop_
_atom_site_type_symbol
_atom_site_label
_atom_site_fract_x
_atom_site_fract_y
_atom_site_fract_z
Si Si1 0.385094 0.092420 0.345069
Si Si2 0.688543 0.353096 0.291252
Si Si3 0.678609 0.531028 0.564222
Si Si4 0.858548 0.294462 0.991856
Si Si5 0.286961 0.074547 0.155088
Si Si6 0.886962 0.828062 0.727912
Si Si7 0.047573 0.619295 0.381446
O O1 0.284785 0.059758 0.396068
O O2 0.377783 0.072316 0.227132
O O3 0.391556 0.220682 0.338706
O O4 0.460397 0.010253 0.393966
O O5 0.750000 0.250000 0.274677
O O6 0.616445 0.326263 0.379831
O O7 0.750341 0.452410 0.332018
O O8 0.639831 0.375364 0.188725
O O9 0.651296 0.406564 0.550204
O O10 0.680829 0.587113 0.456607
O O11 0.610297 0.578832 0.646946
O O12 0.750000 0.250000 0.989275
O O13 0.927756 0.202417 0.032525
O O14 0.209341 0.149905 0.206831
O O15 0.965132 0.835420 0.812472
#
# Coordination Sequence:
#
# PCOD9430335 Si02
#       7
#     8   8   8   8   8   8   8
#     4  10  22  40  58  88 120 158 212 241 299 383
#     4   9  20  36  64  90 119 162 214 244 296 381
#     4  10  20  40  66  87 113 163 213 247 295 368
#     4  10  19  38  64  90 118 164 210 249 299 368
#     4   9  20  40  62  86 115 162 212 250 291 369
#     4  11  25  38  60  92 125 158 203 256 319 364
#     4  11  23  39  58  93 130 159 192 266 320 356
#
# _framework density 23.525511000000002
#
# number of rings (size 3 to 8) (size 9 to 14) (size 15 to 20)
#    0.000    2.000    1.429    2.143    6.000    2.286 
#    5.143    2.857    0.000    0.000    0.000    0.000 
#    0.000    0.000    0.000    0.000    0.000    0.000 
#
# Total GULP energy -312140.331934 kJ/mol
# GULP energy per Si atom -5573.934499 kJ/mol
# Density = 2.347197 g / cm^3
# Si number density = 23.525511 Si / 1000 Ang^3
#
#
#
# Elastic Constant Matrix: (Units=GPa)
#
#
# Indices 1 2 3 4 5 6 
#
# 1 21.4094 17.1719 7.3217 0.0000 0.0000 0.0000
# 2 17.1719 125.2364 14.3299 0.0000 0.0000 0.0000
# 3 7.3217 14.3299 110.0858 0.0000 0.0000 0.0000
# 4 0.0000 0.0000 0.0000 21.0121 0.0000 0.0000
# 5 0.0000 0.0000 0.0000 0.0000 14.5432 0.0000
# 6 0.0000 0.0000 0.0000 0.0000 0.0000 14.8527
#
#
#
# Elastic Compliance Matrix: (Units=1/GPa)
#
#
# Indices 1 2 3 4 5 6 
#
# 1 0.053219 -0.006996 -0.002629 0.000000 0.000000 0.000000
# 2 -0.006996 0.009025 -0.000710 0.000000 0.000000 0.000000
# 3 -0.002629 -0.000710 0.009351 0.000000 0.000000 0.000000
# 4 0.000000 0.000000 0.000000 0.047592 0.000000 0.000000
# 5 0.000000 0.000000 0.000000 0.000000 0.068761 0.000000
# 6 0.000000 0.000000 0.000000 0.000000 0.000000 0.067328
#
#
# Mechanical properties :
#
#
# Convention : Reuss Voigt Hill
#
# Bulk Modulus (GPa) = 19.63631 37.15316 28.39473
# Shear Modulus (GPa) = 17.06948 24.60880 20.83914
#
# Velocity S-wave (km/s) = 2.69657 3.23777 2.97949
# Velocity P-wave (km/s) = 4.24973 5.45936 4.89208
#
# Compressibility (1/GPa) = 0.05092608
#
# Stress axis : x y z
#
# Youngs Moduli (GPa) = 18.79025 110.79841 106.94017
#
# Poissons Ratio (x) = 0.77519 0.28113
# Poissons Ratio (y) = 0.13146 0.07588
# Poissons Ratio (z) = 0.04940 0.07861
#
# Static dielectric constant tensor:
#      x y z
#    x 1.950780 0.000000 0.000000 
#    y 0.000000 2.088730 0.000000 
#    z 0.000000 0.000000 1.884670 
# 
# From -- ./inp_files/12273.got.cif
#   From: 2010.05.17/outbox.cif.g08.bks.cpg/sg56_7_cif.got.tgz:12273.got - 2010.06.03 13:42:01.
