data_PCOD9430597
_publ_section_title
;
Structure prediction by ZEFSAII (Michael W. Deem and Ramdas Pophale) SiO2 
 PCOD9430597
Probable space group: P C C N
;
_chemical_formula_sum "Si O2"
_cell_formula_units_Z 60
_cell_length_a 8.076603
_cell_length_b 28.283537
_cell_length_c 12.534941
_cell_angle_alpha 90.000000
_cell_angle_beta 90.000000
_cell_angle_gamma 90.000000
_cell_volume 2863.417991
_symmetry_space_group_name_H-M "P C C N"
_symmetry_group_IT_number 56
_symmetry_cell_setting 'orthorhombic'
loop_
_space_group_symop_operation_xyz
x,y,z
1/2-x,1/2-y,z
1/2+x,-y,1/2-z
-x,1/2+y,1/2-z
-x,-y,-z
1/2+x,1/2+y,-z
1/2-x,y,1/2+z
x,1/2-y,1/2+z
loop_
_atom_site_type_symbol
_atom_site_label
_atom_site_fract_x
_atom_site_fract_y
_atom_site_fract_z
Si Si1 0.397308 0.979357 0.377995
Si Si2 0.352095 0.592566 0.701698
Si Si3 0.398012 0.043811 0.956397
Si Si4 0.986293 0.189471 0.332746
Si Si5 0.087120 0.217738 0.107904
Si Si6 0.250000 0.750000 0.516867
Si Si7 0.752968 0.864658 0.021860
Si Si8 0.523453 0.069343 0.402145
O O1 0.323116 0.941204 0.300400
O O2 0.466973 0.949710 0.476603
O O3 0.262428 0.016732 0.416629
O O4 0.523393 0.019522 0.335015
O O5 0.499919 0.567547 0.637998
O O6 0.407220 0.644869 0.728522
O O7 0.193706 0.594244 0.626814
O O8 0.346618 0.089785 0.026547
O O9 0.500000 0.000000 0.000000
O O10 0.059956 0.220028 0.235862
O O11 0.127609 0.168679 0.411848
O O12 0.843946 0.213226 0.404565
O O13 0.250000 0.250000 0.081788
O O14 0.145463 0.166563 0.062293
O O15 0.908958 0.231177 0.052921
O O16 0.879561 0.891494 0.102448
#
# Coordination Sequence:
#
# PCOD9430597 Si02
#       8
#     8   8   8   8   8   4   8   8
#     4  10  20  35  58  88 130 179 230 274 332 401
#     4  11  21  38  60  94 130 173 229 284 338 413
#     4  10  20  39  60  90 134 181 231 283 340 403
#     4  11  26  46  71 106 138 177 236 292 358 439
#     4  12  26  49  78 108 140 189 236 296 379 438
#     4  12  26  52  80 106 140 182 234 308 366 444
#     4  10  23  45  66  98 140 184 225 297 351 425
#     4  10  20  37  60  89 132 181 224 279 341 395
#
# _framework density 20.953979
#
# number of rings (size 3 to 8) (size 9 to 14) (size 15 to 20)
#    0.000    1.333    2.667    2.800    1.867    0.000 
#   12.000    0.000    0.000    0.000    0.000    0.000 
#    0.000    0.000    0.000    0.000    0.000    0.000 
#
# Total GULP energy -334070.553678 kJ/mol
# GULP energy per Si atom -5567.842561 kJ/mol
# Density = 2.090629 g / cm^3
# Si number density = 20.953979 Si / 1000 Ang^3
#
#
#
# Elastic Constant Matrix: (Units=GPa)
#
#
# Indices 1 2 3 4 5 6 
#
# 1 126.0781 51.5419 39.3196 0.0000 0.0000 0.0000
# 2 51.5419 97.6203 33.0617 0.0000 0.0000 0.0000
# 3 39.3196 33.0617 46.6035 0.0000 0.0000 0.0000
# 4 0.0000 0.0000 0.0000 26.7675 0.0000 0.0000
# 5 0.0000 0.0000 0.0000 0.0000 22.4086 0.0000
# 6 0.0000 0.0000 0.0000 0.0000 0.0000 52.7756
#
#
#
# Elastic Compliance Matrix: (Units=1/GPa)
#
#
# Indices 1 2 3 4 5 6 
#
# 1 0.011715 -0.003735 -0.007234 0.000000 0.000000 0.000000
# 2 -0.003735 0.014674 -0.007259 0.000000 0.000000 0.000000
# 3 -0.007234 -0.007259 0.032711 0.000000 0.000000 0.000000
# 4 0.000000 0.000000 0.000000 0.037359 0.000000 0.000000
# 5 0.000000 0.000000 0.000000 0.000000 0.044626 0.000000
# 6 0.000000 0.000000 0.000000 0.000000 0.000000 0.018948
#
#
# Mechanical properties :
#
#
# Convention : Reuss Voigt Hill
#
# Bulk Modulus (GPa) = 44.16272 57.57204 50.86738
# Shear Modulus (GPa) = 24.50551 30.14891 27.32721
#
# Velocity S-wave (km/s) = 3.42349 3.79729 3.61522
# Velocity P-wave (km/s) = 6.06209 6.83820 6.46181
#
# Compressibility (1/GPa) = 0.02264353
#
# Stress axis : x y z
#
# Youngs Moduli (GPa) = 85.36389 68.14632 30.57119
#
# Poissons Ratio (x) = 0.25454 0.22115
# Poissons Ratio (y) = 0.31885 0.22191
# Poissons Ratio (z) = 0.61751 0.49467
#
# Static dielectric constant tensor:
#      x y z
#    x 2.356300 0.000000 0.000000 
#    y 0.000000 1.713950 0.000000 
#    z 0.000000 0.000000 1.759010 
# 
# From -- ./inp_files/6557.got.cif
#   From: 2010.05.17/outbox.cif.g08.bks.cpg/sg56_4_cif.got.tgz:6557.got - 2010.06.03 13:42:01.
