data_PCOD9430011
_publ_section_title
;
Structure prediction by ZEFSAII (Michael W. Deem and Ramdas Pophale) SiO2 
 PCOD9430011
Probable space group: P C C N
;
_chemical_formula_sum "Si O2"
_cell_formula_units_Z 44
_cell_length_a 10.327743
_cell_length_b 23.903876
_cell_length_c 8.857765
_cell_angle_alpha 90.000000
_cell_angle_beta 90.000000
_cell_angle_gamma 90.000000
_cell_volume 2186.743799
_symmetry_space_group_name_H-M "P C C N"
_symmetry_group_IT_number 56
_symmetry_cell_setting 'orthorhombic'
loop_
_space_group_symop_operation_xyz
x,y,z
1/2-x,1/2-y,z
1/2+x,-y,1/2-z
-x,1/2+y,1/2-z
-x,-y,-z
1/2+x,1/2+y,-z
1/2-x,y,1/2+z
x,1/2-y,1/2+z
loop_
_atom_site_type_symbol
_atom_site_label
_atom_site_fract_x
_atom_site_fract_y
_atom_site_fract_z
Si Si1 0.820697 0.420686 0.184880
Si Si2 0.829804 0.542704 0.029581
Si Si3 0.571731 0.951697 0.686269
Si Si4 0.035662 0.575539 0.265311
Si Si5 0.152450 0.671011 0.419784
Si Si6 0.750000 0.250000 0.831357
O O1 0.944555 0.414473 0.290748
O O2 0.838013 0.478415 0.091400
O O3 0.783664 0.367187 0.085174
O O4 0.137506 0.452888 0.146046
O O5 0.685704 0.562235 0.071386
O O6 0.935537 0.576434 0.128655
O O7 0.812001 0.073799 0.279769
O O8 0.520519 0.014890 0.658075
O O9 0.038199 0.627205 0.381364
O O10 0.162275 0.709683 0.565135
O O11 0.163265 0.711767 0.276448
#
# Coordination Sequence:
#
# PCOD9430011 Si02
#       6
#     8   8   8   8   8   4
#     4   8  17  32  53  75 103 142 169 217 264 307
#     4  10  19  32  49  79 112 147 175 201 255 340
#     4  10  19  32  49  79 112 147 175 201 255 340
#     4   8  17  32  53  75 103 142 169 217 264 307
#     4   9  20  32  54  74 108 130 174 229 274 302
#     4  10  20  34  48  82  98 130 184 230 270 308
#
# _framework density 20.121241000000001
#
# number of rings (size 3 to 8) (size 9 to 14) (size 15 to 20)
#    1.091    1.818    0.000    2.182    5.091    0.000 
#    3.273    7.273    0.000    0.000    0.000    7.636 
#    0.000    0.000    0.000    0.000    0.000    0.000 
#
# Total GULP energy -245269.310111 kJ/mol
# GULP energy per Si atom -5574.302503 kJ/mol
# Density = 2.007544 g / cm^3
# Si number density = 20.121241 Si / 1000 Ang^3
#
#
#
# Elastic Constant Matrix: (Units=GPa)
#
#
# Indices 1 2 3 4 5 6 
#
# 1 94.1953 9.2928 24.3106 0.0000 0.0000 0.0000
# 2 9.2928 59.9998 34.4169 0.0000 0.0000 0.0000
# 3 24.3106 34.4169 100.9133 0.0000 0.0000 0.0000
# 4 0.0000 0.0000 0.0000 26.0854 0.0000 0.0000
# 5 0.0000 0.0000 0.0000 0.0000 16.8988 0.0000
# 6 0.0000 0.0000 0.0000 0.0000 0.0000 18.7459
#
#
#
# Elastic Compliance Matrix: (Units=1/GPa)
#
#
# Indices 1 2 3 4 5 6 
#
# 1 0.011323 -0.000235 -0.002648 0.000000 0.000000 0.000000
# 2 -0.000235 0.020725 -0.007012 0.000000 0.000000 0.000000
# 3 -0.002648 -0.007012 0.012939 0.000000 0.000000 0.000000
# 4 0.000000 0.000000 0.000000 0.038336 0.000000 0.000000
# 5 0.000000 0.000000 0.000000 0.000000 0.059176 0.000000
# 6 0.000000 0.000000 0.000000 0.000000 0.000000 0.053345
#
#
# Mechanical properties :
#
#
# Convention : Reuss Voigt Hill
#
# Bulk Modulus (GPa) = 39.68578 43.46099 41.57338
# Shear Modulus (GPa) = 22.31831 24.81855 23.56843
#
# Velocity S-wave (km/s) = 3.33407 3.51586 3.42617
# Velocity P-wave (km/s) = 5.88111 6.17480 6.02974
#
# Compressibility (1/GPa) = 0.02519795
#
# Stress axis : x y z
#
# Youngs Moduli (GPa) = 88.31800 48.25042 77.28743
#
# Poissons Ratio (x) = 0.01134 0.20462
# Poissons Ratio (y) = 0.02075 0.54192
# Poissons Ratio (z) = 0.23383 0.33832
#
# Static dielectric constant tensor:
#      x y z
#    x 1.752180 0.000000 0.000000 
#    y 0.000000 1.739690 0.000000 
#    z 0.000000 0.000000 1.788530 
# 
# From -- ./inp_files/2742.got.cif
#   From: 2010.05.17/outbox.cif.g08.bks.cpg/sg56_2_cif.got.tgz:2742.got - 2010.06.03 13:42:01.
