data_PCOD9430154
_publ_section_title
;
Structure prediction by ZEFSAII (Michael W. Deem and Ramdas Pophale) SiO2 
 PCOD9430154
Probable space group: P C C N
;
_chemical_formula_sum "Si O2"
_cell_formula_units_Z 64
_cell_length_a 28.933945
_cell_length_b 17.645376
_cell_length_c 5.537526
_cell_angle_alpha 90.000000
_cell_angle_beta 90.000000
_cell_angle_gamma 90.000000
_cell_volume 2827.185775
_symmetry_space_group_name_H-M "P C C N"
_symmetry_group_IT_number 56
_symmetry_cell_setting 'orthorhombic'
loop_
_space_group_symop_operation_xyz
x,y,z
1/2-x,1/2-y,z
1/2+x,-y,1/2-z
-x,1/2+y,1/2-z
-x,-y,-z
1/2+x,1/2+y,-z
1/2-x,y,1/2+z
x,1/2-y,1/2+z
loop_
_atom_site_type_symbol
_atom_site_label
_atom_site_fract_x
_atom_site_fract_y
_atom_site_fract_z
Si Si1 0.234755 0.098241 0.713591
Si Si2 0.198303 0.720478 0.828446
Si Si3 0.304444 0.953559 0.700990
Si Si4 0.430554 0.544807 0.986985
Si Si5 0.462840 0.270569 0.418948
Si Si6 0.979455 0.940588 0.685299
Si Si7 0.347631 0.000678 0.200197
Si Si8 0.568396 0.211705 0.393469
O O1 0.251405 0.135458 0.961043
O O2 0.263198 0.016373 0.703800
O O3 0.180322 0.079577 0.722276
O O4 0.250000 0.750000 0.862641
O O5 0.176823 0.737654 0.093184
O O6 0.205753 0.632788 0.763380
O O7 0.336906 0.976198 0.927544
O O8 0.325376 0.956041 0.431288
O O9 0.436291 0.478838 0.182278
O O10 0.400705 0.510822 0.768507
O O11 0.415119 0.624752 0.099715
O O12 0.480717 0.567872 0.885908
O O13 0.438859 0.243695 0.662651
O O14 0.471568 0.359953 0.433558
O O15 0.512183 0.225774 0.396820
O O16 0.000000 0.000000 0.500000
O O17 0.583402 0.250714 0.642983
#
# Coordination Sequence:
#
# PCOD9430154 Si02
#       8
#     8   8   8   8   8   8   8   8
#     4   8  16  29  52  64  84 121 164 200 250 311
#     4  10  21  28  48  64  90 119 168 230 269 312
#     4  10  20  36  51  65  91 130 169 211 270 326
#     4  11  24  37  54  83 108 141 184 234 284 332
#     4  10  19  36  58  79 101 135 176 224 265 325
#     4  11  23  37  62  79 108 146 185 226 283 346
#     4  10  22  34  53  71  99 127 169 224 269 329
#     4  10  19  35  55  70 102 136 172 225 271 321
#
# _framework density 22.637350999999999
#
# number of rings (size 3 to 8) (size 9 to 14) (size 15 to 20)
#    0.000    2.000    2.500    2.250   14.000    0.000 
#    0.000    3.750    0.000    0.000    0.000    0.000 
#    0.000    0.000    0.000    0.000    0.000   33.750 
#
# Total GULP energy -357070.558295 kJ/mol
# GULP energy per Si atom -5579.227473 kJ/mol
# Density = 2.258583 g / cm^3
# Si number density = 22.637351 Si / 1000 Ang^3
#
#
#
# Elastic Constant Matrix: (Units=GPa)
#
#
# Indices 1 2 3 4 5 6 
#
# 1 38.2888 -4.5552 18.2368 0.0000 0.0000 0.0000
# 2 -4.5552 52.2509 17.8433 0.0000 0.0000 0.0000
# 3 18.2368 17.8433 149.1378 0.0000 0.0000 0.0000
# 4 0.0000 0.0000 0.0000 23.2728 0.0000 0.0000
# 5 0.0000 0.0000 0.0000 0.0000 30.5664 0.0000
# 6 0.0000 0.0000 0.0000 0.0000 0.0000 2.0010
#
#
#
# Elastic Compliance Matrix: (Units=1/GPa)
#
#
# Indices 1 2 3 4 5 6 
#
# 1 0.028447 0.003824 -0.003936 0.000000 0.000000 0.000000
# 2 0.003824 0.020468 -0.002916 0.000000 0.000000 0.000000
# 3 -0.003936 -0.002916 0.007535 0.000000 0.000000 0.000000
# 4 0.000000 0.000000 0.000000 0.042969 0.000000 0.000000
# 5 0.000000 0.000000 0.000000 0.000000 0.032716 0.000000
# 6 0.000000 0.000000 0.000000 0.000000 0.000000 0.499746
#
#
# Mechanical properties :
#
#
# Convention : Reuss Voigt Hill
#
# Bulk Modulus (GPa) = 19.84388 33.63639 26.74014
# Shear Modulus (GPa) = 7.63667 25.04488 16.34077
#
# Velocity S-wave (km/s) = 1.83870 3.32980 2.68964
# Velocity P-wave (km/s) = 3.64592 5.44743 4.63504
#
# Compressibility (1/GPa) = 0.05039336
#
# Stress axis : x y z
#
# Youngs Moduli (GPa) = 35.15313 48.85738 132.70608
#
# Poissons Ratio (x) = -0.18684 0.52234
# Poissons Ratio (y) = -0.13443 0.38703
# Poissons Ratio (z) = 0.13837 0.14249
#
# Static dielectric constant tensor:
#      x y z
#    x 1.849420 0.000000 0.000000 
#    y 0.000000 1.438960 0.000000 
#    z 0.000000 0.000000 1.925040 
# 
# From -- ./inp_files/1378.got.cif
#   From: 2010.05.17/outbox.cif.g08.bks.cpg/sg56_1_cif.got.tgz:1378.got - 2010.06.03 13:42:01.
