data_PCOD9430903
_publ_section_title
;
Structure prediction by ZEFSAII (Michael W. Deem and Ramdas Pophale) SiO2 
 PCOD9430903
Probable space group: P C C N
;
_chemical_formula_sum "Si O2"
_cell_formula_units_Z 36
_cell_length_a 9.259183
_cell_length_b 7.076010
_cell_length_c 23.205435
_cell_angle_alpha 90.000000
_cell_angle_beta 90.000000
_cell_angle_gamma 90.000000
_cell_volume 1520.375350
_symmetry_space_group_name_H-M "P C C N"
_symmetry_group_IT_number 56
_symmetry_cell_setting 'orthorhombic'
loop_
_space_group_symop_operation_xyz
x,y,z
1/2-x,1/2-y,z
1/2+x,-y,1/2-z
-x,1/2+y,1/2-z
-x,-y,-z
1/2+x,1/2+y,-z
1/2-x,y,1/2+z
x,1/2-y,1/2+z
loop_
_atom_site_type_symbol
_atom_site_label
_atom_site_fract_x
_atom_site_fract_y
_atom_site_fract_z
Si Si1 0.073610 0.565787 0.820896
Si Si2 0.250000 0.250000 0.534032
Si Si3 0.741753 0.476575 0.566784
Si Si4 0.744663 0.520758 0.289866
Si Si5 0.469642 0.437454 0.121292
O O1 0.134079 0.484239 0.880592
O O2 0.188507 0.541015 0.770375
O O3 0.922159 0.475680 0.801111
O O4 0.044681 0.785555 0.836043
O O5 0.295535 0.419130 0.491833
O O6 0.121083 0.318950 0.574615
O O7 0.750000 0.250000 0.558470
O O8 0.901248 0.539873 0.588302
O O9 0.750000 0.750000 0.291460
O O10 0.852245 0.453355 0.340553
#
# Coordination Sequence:
#
# PCOD9430903 Si02
#       5
#     8   4   8   8   8
#     4  10  20  38  63  97 129 175 219 282 341 413
#     4  12  22  44  74  94 142 188 224 294 326 402
#     4  10  24  40  69  99 138 178 235 272 342 406
#     4  10  20  38  67  89 136 173 222 281 354 401
#     4  10  21  44  65  96 137 181 223 286 343 402
#
# _framework density 23.678366
#
# number of rings (size 3 to 8) (size 9 to 14) (size 15 to 20)
#    0.000    1.778    3.333    2.000    1.556    5.333 
#    0.000    0.000    0.000    0.000    0.000    0.000 
#    0.000    0.000    0.000    0.000    0.000    0.000 
#
# Total GULP energy -201538.497784 kJ/mol
# GULP energy per Si atom -5598.291605 kJ/mol
# Density = 2.362447 g / cm^3
# Si number density = 23.678366 Si / 1000 Ang^3
#
#
#
# Elastic Constant Matrix: (Units=GPa)
#
#
# Indices 1 2 3 4 5 6 
#
# 1 137.7813 21.5555 60.6341 0.0000 0.0000 0.0000
# 2 21.5555 75.3645 39.9867 0.0000 0.0000 0.0000
# 3 60.6341 39.9867 160.7244 0.0000 0.0000 0.0000
# 4 0.0000 0.0000 0.0000 7.8924 0.0000 0.0000
# 5 0.0000 0.0000 0.0000 0.0000 97.6400 0.0000
# 6 0.0000 0.0000 0.0000 0.0000 0.0000 14.3157
#
#
#
# Elastic Compliance Matrix: (Units=1/GPa)
#
#
# Indices 1 2 3 4 5 6 
#
# 1 0.008751 -0.000866 -0.003086 0.000000 0.000000 0.000000
# 2 -0.000866 0.015372 -0.003498 0.000000 0.000000 0.000000
# 3 -0.003086 -0.003498 0.008256 0.000000 0.000000 0.000000
# 4 0.000000 0.000000 0.000000 0.126704 0.000000 0.000000
# 5 0.000000 0.000000 0.000000 0.000000 0.010242 0.000000
# 6 0.000000 0.000000 0.000000 0.000000 0.000000 0.069853
#
#
# Mechanical properties :
#
#
# Convention : Reuss Voigt Hill
#
# Bulk Modulus (GPa) = 57.20586 68.69140 62.94863
# Shear Modulus (GPa) = 19.23772 40.74921 29.99346
#
# Velocity S-wave (km/s) = 2.85346 4.15293 3.56294
# Velocity P-wave (km/s) = 5.92185 7.21588 6.60065
#
# Compressibility (1/GPa) = 0.01748073
#
# Stress axis : x y z
#
# Youngs Moduli (GPa) = 114.26679 65.05186 121.11872
#
# Poissons Ratio (x) = 0.05631 0.37379
# Poissons Ratio (y) = 0.09891 0.42367
# Poissons Ratio (z) = 0.35265 0.22755
#
# Static dielectric constant tensor:
#      x y z
#    x 1.957600 0.000000 0.000000 
#    y 0.000000 1.940600 0.000000 
#    z 0.000000 0.000000 1.838740 
# 
# From -- ./inp_files/17885.got.cif
#   From: 2010.05.17/outbox.cif.g08.bks.cpg/sg56_9_cif.got.tgz:17885.got - 2010.06.03 13:42:01.
