data_PCOD9430999
_publ_section_title
;
Structure prediction by ZEFSAII (Michael W. Deem and Ramdas Pophale) SiO2 
 PCOD9430999
Probable space group: P C C N
;
_chemical_formula_sum "Si O2"
_cell_formula_units_Z 60
_cell_length_a 8.279013
_cell_length_b 11.479622
_cell_length_c 28.018274
_cell_angle_alpha 90.000000
_cell_angle_beta 90.000000
_cell_angle_gamma 90.000000
_cell_volume 2662.855074
_symmetry_space_group_name_H-M "P C C N"
_symmetry_group_IT_number 56
_symmetry_cell_setting 'orthorhombic'
loop_
_space_group_symop_operation_xyz
x,y,z
1/2-x,1/2-y,z
1/2+x,-y,1/2-z
-x,1/2+y,1/2-z
-x,-y,-z
1/2+x,1/2+y,-z
1/2-x,y,1/2+z
x,1/2-y,1/2+z
loop_
_atom_site_type_symbol
_atom_site_label
_atom_site_fract_x
_atom_site_fract_y
_atom_site_fract_z
Si Si1 0.527609 0.308502 0.887611
Si Si2 0.750000 0.750000 0.689494
Si Si3 0.057091 0.260905 0.060647
Si Si4 0.714227 0.378493 0.799678
Si Si5 0.939909 0.968625 0.726661
Si Si6 0.612056 0.649236 0.538675
Si Si7 0.168925 0.636182 0.856240
Si Si8 0.878566 0.022329 0.066020
O O1 0.388605 0.294577 0.846998
O O2 0.674566 0.354830 0.855053
O O3 0.510208 0.188694 0.918789
O O4 0.493549 0.413023 0.924331
O O5 0.668586 0.648068 0.720994
O O6 0.250000 0.250000 0.069991
O O7 0.962897 0.319194 0.104951
O O8 0.976876 0.134765 0.048088
O O9 0.035874 0.337369 0.013137
O O10 0.750000 0.250000 0.779449
O O11 0.579929 0.459607 0.775403
O O12 0.877983 0.441175 0.786212
O O13 0.890268 0.055191 0.684920
O O14 0.750000 0.750000 0.542141
O O15 0.718074 0.531836 0.541734
O O16 0.250000 0.750000 0.834987
O O17 0.306822 0.566667 0.884156
#
# Coordination Sequence:
#
# PCOD9430999 Si02
#       8
#     8   4   8   8   8   8   8   8
#     4  11  20  41  67  99 127 178 224 280 339 415
#     4  12  20  44  76  94 134 176 230 270 344 412
#     4  10  23  39  60 100 137 177 236 283 341 421
#     4  12  28  45  70 105 138 171 235 283 348 419
#     4  12  26  47  70 104 137 181 225 290 346 416
#     4   9  19  37  65  95 133 178 229 281 348 410
#     4  10  22  43  67  92 138 182 225 278 346 413
#     4  10  20  39  66  88 129 185 220 278 356 400
#
# _framework density 22.532205999999999
#
# number of rings (size 3 to 8) (size 9 to 14) (size 15 to 20)
#    0.000    1.333    4.667    1.200    1.867    5.333 
#    0.000    2.000    0.000    0.000    0.000    0.000 
#    0.000    0.000    0.000    0.000    0.000    0.000 
#
# Total GULP energy -334790.194735 kJ/mol
# GULP energy per Si atom -5579.836579 kJ/mol
# Density = 2.248092 g / cm^3
# Si number density = 22.532206 Si / 1000 Ang^3
#
#
#
# Elastic Constant Matrix: (Units=GPa)
#
#
# Indices 1 2 3 4 5 6 
#
# 1 76.3602 39.0480 31.8284 0.0000 0.0000 0.0000
# 2 39.0480 107.7299 29.6665 0.0000 0.0000 0.0000
# 3 31.8284 29.6665 87.0505 0.0000 0.0000 0.0000
# 4 0.0000 0.0000 0.0000 -118.6555 0.0000 0.0000
# 5 0.0000 0.0000 0.0000 0.0000 27.8052 0.0000
# 6 0.0000 0.0000 0.0000 0.0000 0.0000 39.4543
#
#
#
# Elastic Compliance Matrix: (Units=1/GPa)
#
#
# Indices 1 2 3 4 5 6 
#
# 1 0.017675 -0.005106 -0.004723 0.000000 0.000000 0.000000
# 2 -0.005106 0.011719 -0.002127 0.000000 0.000000 0.000000
# 3 -0.004723 -0.002127 0.013939 0.000000 0.000000 0.000000
# 4 0.000000 0.000000 0.000000 -0.008428 0.000000 0.000000
# 5 0.000000 0.000000 0.000000 0.000000 0.035965 0.000000
# 6 0.000000 0.000000 0.000000 0.000000 0.000000 0.025346
#
#
# Mechanical properties :
#
#
# Convention : Reuss Voigt Hill
#
# Bulk Modulus (GPa) = 51.48681 52.46959 51.97820
# Shear Modulus (GPa) = 39.49414 1.09398 20.29406
#
# Velocity S-wave (km/s) = 4.19117 0.69755 3.00437
# Velocity P-wave (km/s) = 6.80596 4.89753 5.92904
#
# Compressibility (1/GPa) = 0.01942245
#
# Stress axis : x y z
#
# Youngs Moduli (GPa) = 56.57585 85.33198 71.74071
#
# Poissons Ratio (x) = 0.43572 0.33880
# Poissons Ratio (y) = 0.28889 0.15258
# Poissons Ratio (z) = 0.26718 0.18148
#
# Static dielectric constant tensor:
#      x y z
#    x 1.896800 0.000000 0.000000 
#    y 0.000000 1.847420 0.000000 
#    z 0.000000 0.000000 1.823980 
# 
# From -- ./inp_files/23347.got.cif
#   From: 2010.05.17/outbox.cif.g08.bks.cpg/sg56_12_cif.got.tgz:23347.got - 2010.06.03 13:42:01.
