data_PCOD9430536
_publ_section_title
;
Structure prediction by ZEFSAII (Michael W. Deem and Ramdas Pophale) SiO2 
 PCOD9430536
Probable space group: P C C N
;
_chemical_formula_sum "Si O2"
_cell_formula_units_Z 48
_cell_length_a 16.392167
_cell_length_b 12.403993
_cell_length_c 9.022339
_cell_angle_alpha 90.000000
_cell_angle_beta 90.000000
_cell_angle_gamma 90.000000
_cell_volume 1834.497074
_symmetry_space_group_name_H-M "P C C N"
_symmetry_group_IT_number 56
_symmetry_cell_setting 'orthorhombic'
loop_
_space_group_symop_operation_xyz
x,y,z
1/2-x,1/2-y,z
1/2+x,-y,1/2-z
-x,1/2+y,1/2-z
-x,-y,-z
1/2+x,1/2+y,-z
1/2-x,y,1/2+z
x,1/2-y,1/2+z
loop_
_atom_site_type_symbol
_atom_site_label
_atom_site_fract_x
_atom_site_fract_y
_atom_site_fract_z
Si Si1 0.500000 0.000000 0.500000
Si Si2 0.536645 0.808525 0.691147
Si Si3 0.647670 0.628654 0.686628
Si Si4 0.751796 0.104430 0.459202
Si Si5 0.750000 0.750000 0.935339
Si Si6 0.634161 0.369606 0.704918
Si Si7 0.356503 0.493976 0.794136
O O1 0.365165 0.000702 0.800643
O O2 0.556415 0.032037 0.644789
O O3 0.560736 0.686357 0.674613
O O4 0.516530 0.872963 0.540960
O O5 0.457614 0.829216 0.790562
O O6 0.620579 0.870016 0.740063
O O7 0.696840 0.675549 0.546567
O O8 0.695429 0.670825 0.832596
O O9 0.810820 0.168401 0.569911
O O10 0.683264 0.157398 0.354896
O O11 0.702092 0.022616 0.567182
O O12 0.814095 0.047923 0.345011
#
# Coordination Sequence:
#
# PCOD9430536 Si02
#       7
#     4   8   8   8   4   8   8
#     4   8  18  36  50  74 122 160 188 252 300 370
#     4  10  22  38  56  88 129 169 207 245 319 379
#     4  11  25  37  64  90 136 163 204 260 314 382
#     4  10  20  34  61  92 121 160 212 256 311 383
#     4  10  26  40  58 100 132 158 208 258 330 378
#     4  11  22  39  62  93 129 168 210 259 321 372
#     4   9  19  33  55  82 120 159 194 252 306 369
#
# _framework density 26.165208
#
# number of rings (size 3 to 8) (size 9 to 14) (size 15 to 20)
#    1.000    1.000    1.667    1.000   16.333    0.667 
#    0.000    0.000    0.000    0.000    0.000    9.333 
#    0.000    0.000    0.000    0.000    0.000    0.000 
#
# Total GULP energy -267573.919781 kJ/mol
# GULP energy per Si atom -5574.456662 kJ/mol
# Density = 2.610566 g / cm^3
# Si number density = 26.165208 Si / 1000 Ang^3
#
#
#
# Elastic Constant Matrix: (Units=GPa)
#
#
# Indices 1 2 3 4 5 6 
#
# 1 101.4348 49.7559 66.6255 0.0000 0.0000 0.0000
# 2 49.7559 121.6558 49.6155 0.0000 0.0000 0.0000
# 3 66.6255 49.6155 169.3498 0.0000 0.0000 0.0000
# 4 0.0000 0.0000 0.0000 32.7711 0.0000 0.0000
# 5 0.0000 0.0000 0.0000 0.0000 35.1392 0.0000
# 6 0.0000 0.0000 0.0000 0.0000 0.0000 43.1745
#
#
#
# Elastic Compliance Matrix: (Units=1/GPa)
#
#
# Indices 1 2 3 4 5 6 
#
# 1 0.014995 -0.004233 -0.004659 0.000000 0.000000 0.000000
# 2 -0.004233 0.010530 -0.001420 0.000000 0.000000 0.000000
# 3 -0.004659 -0.001420 0.008154 0.000000 0.000000 0.000000
# 4 0.000000 0.000000 0.000000 0.030515 0.000000 0.000000
# 5 0.000000 0.000000 0.000000 0.000000 0.028458 0.000000
# 6 0.000000 0.000000 0.000000 0.000000 0.000000 0.023162
#
#
# Mechanical properties :
#
#
# Convention : Reuss Voigt Hill
#
# Bulk Modulus (GPa) = 76.59551 80.49267 78.54409
# Shear Modulus (GPa) = 35.51403 37.31319 36.41361
#
# Velocity S-wave (km/s) = 3.68815 3.78042 3.73457
# Velocity P-wave (km/s) = 6.89014 7.06296 6.97708
#
# Compressibility (1/GPa) = 0.01305560
#
# Stress axis : x y z
#
# Youngs Moduli (GPa) = 66.68837 94.96603 122.63932
#
# Poissons Ratio (x) = 0.40195 0.57142
# Poissons Ratio (y) = 0.28227 0.17413
# Poissons Ratio (z) = 0.31072 0.13484
#
# Static dielectric constant tensor:
#      x y z
#    x 2.083020 0.000000 0.000000 
#    y 0.000000 2.158790 0.000000 
#    z 0.000000 0.000000 2.046570 
# 
# From -- ./inp_files/3641.got.cif
#   From: 2010.05.17/outbox.cif.g08.bks.cpg/sg56_2_cif.got.tgz:3641.got - 2010.06.03 13:42:01.
