data_PCOD9430937
_publ_section_title
;
Structure prediction by ZEFSAII (Michael W. Deem and Ramdas Pophale) SiO2 
 PCOD9430937
Probable space group: P C C N
;
_chemical_formula_sum "Si O2"
_cell_formula_units_Z 64
_cell_length_a 15.988037
_cell_length_b 11.858033
_cell_length_c 14.275990
_cell_angle_alpha 90.000000
_cell_angle_beta 90.000000
_cell_angle_gamma 90.000000
_cell_volume 2706.537410
_symmetry_space_group_name_H-M "P C C N"
_symmetry_group_IT_number 56
_symmetry_cell_setting 'orthorhombic'
loop_
_space_group_symop_operation_xyz
x,y,z
1/2-x,1/2-y,z
1/2+x,-y,1/2-z
-x,1/2+y,1/2-z
-x,-y,-z
1/2+x,1/2+y,-z
1/2-x,y,1/2+z
x,1/2-y,1/2+z
loop_
_atom_site_type_symbol
_atom_site_label
_atom_site_fract_x
_atom_site_fract_y
_atom_site_fract_z
Si Si1 0.391683 0.323199 0.159380
Si Si2 0.376695 0.431128 0.349747
Si Si3 0.571391 0.376896 0.158295
Si Si4 0.832548 0.324920 0.164291
Si Si5 0.573256 0.073867 0.862768
Si Si6 0.344395 0.796928 0.621069
Si Si7 0.824467 0.621853 0.962417
Si Si8 0.859770 0.520555 0.496945
O O1 0.348299 0.383145 0.248531
O O2 0.485818 0.318093 0.197025
O O3 0.344059 0.216751 0.116061
O O4 0.415004 0.402683 0.070949
O O5 0.328433 0.548321 0.371539
O O6 0.475817 0.459372 0.354743
O O7 0.360103 0.345954 0.435250
O O8 0.608660 0.263655 0.112325
O O9 0.611115 0.417156 0.257603
O O10 0.594040 0.483173 0.091863
O O11 0.750000 0.250000 0.165020
O O12 0.861117 0.336358 0.272184
O O13 0.590374 0.198345 0.902143
O O14 0.624061 0.984869 0.923943
O O15 0.250000 0.750000 0.616706
O O16 0.347199 0.904060 0.556338
O O17 0.728933 0.587074 0.985784
#
# Coordination Sequence:
#
# PCOD9430937 Si02
#       8
#     8   8   8   8   8   8   8   8
#     4  11  26  48  63  98 142 195 231 296 358 429
#     4  11  24  44  69 103 142 184 240 295 361 433
#     4  10  24  41  69 101 138 182 238 288 366 427
#     4  10  20  39  68 102 135 172 226 292 357 416
#     4  10  23  43  67 106 141 183 230 304 360 419
#     4  10  20  38  66  97 134 175 224 285 358 400
#     4  12  26  42  70 100 139 187 245 290 367 430
#     4  12  24  42  68  99 138 185 236 295 347 430
#
# _framework density 23.646449
#
# number of rings (size 3 to 8) (size 9 to 14) (size 15 to 20)
#    0.000    1.250    2.500    2.625    3.500    2.500 
#    0.000    1.250    0.000    0.000    0.000    0.000 
#    0.000    0.000    0.000    0.000    0.000    0.000 
#
# Total GULP energy -356591.058292 kJ/mol
# GULP energy per Si atom -5571.735286 kJ/mol
# Density = 2.359263 g / cm^3
# Si number density = 23.646449 Si / 1000 Ang^3
#
#
#
# Elastic Constant Matrix: (Units=GPa)
#
#
# Indices 1 2 3 4 5 6 
#
# 1 49.3819 13.7524 -10.7462 0.0000 0.0000 0.0000
# 2 13.7524 85.5689 28.2081 0.0000 0.0000 0.0000
# 3 -10.7462 28.2081 89.7508 0.0000 0.0000 0.0000
# 4 0.0000 0.0000 0.0000 25.3836 0.0000 0.0000
# 5 0.0000 0.0000 0.0000 0.0000 -8.1749 0.0000
# 6 0.0000 0.0000 0.0000 0.0000 0.0000 25.9056
#
#
#
# Elastic Compliance Matrix: (Units=1/GPa)
#
#
# Indices 1 2 3 4 5 6 
#
# 1 0.022589 -0.005045 0.004290 0.000000 0.000000 0.000000
# 2 -0.005045 0.014164 -0.005056 0.000000 0.000000 0.000000
# 3 0.004290 -0.005056 0.013245 0.000000 0.000000 0.000000
# 4 0.000000 0.000000 0.000000 0.039396 0.000000 0.000000
# 5 0.000000 0.000000 0.000000 0.000000 -0.122325 0.000000
# 6 0.000000 0.000000 0.000000 0.000000 0.000000 0.038602
#
#
# Mechanical properties :
#
#
# Convention : Reuss Voigt Hill
#
# Bulk Modulus (GPa) = 26.05728 31.90334 28.98031
# Shear Modulus (GPa) = 166.21446 21.52202 93.86824
#
# Velocity S-wave (km/s) = 8.39310 3.02016 6.30735
# Velocity P-wave (km/s) = 10.24543 5.06783 8.08244
#
# Compressibility (1/GPa) = 0.03837699
#
# Stress axis : x y z
#
# Youngs Moduli (GPa) = 44.26968 70.60216 75.50249
#
# Poissons Ratio (x) = 0.35617 -0.32392
# Poissons Ratio (y) = 0.22333 0.38171
# Poissons Ratio (z) = -0.18992 0.35694
#
# Static dielectric constant tensor:
#      x y z
#    x 2.272850 0.000000 0.000000 
#    y 0.000000 1.888240 0.000000 
#    z 0.000000 0.000000 1.987400 
# 
# From -- ./inp_files/12861.got.cif
#   From: 2010.05.17/outbox.cif.g08.bks.cpg/sg56_7_cif.got.tgz:12861.got - 2010.06.03 13:42:01.
