data_PCOD9430856
_publ_section_title
;
Structure prediction by ZEFSAII (Michael W. Deem and Ramdas Pophale) SiO2 
 PCOD9430856
Probable space group: P C C N
;
_chemical_formula_sum "Si O2"
_cell_formula_units_Z 56
_cell_length_a 20.164014
_cell_length_b 9.784772
_cell_length_c 10.929863
_cell_angle_alpha 90.000000
_cell_angle_beta 90.000000
_cell_angle_gamma 90.000000
_cell_volume 2156.465026
_symmetry_space_group_name_H-M "P C C N"
_symmetry_group_IT_number 56
_symmetry_cell_setting 'orthorhombic'
loop_
_space_group_symop_operation_xyz
x,y,z
1/2-x,1/2-y,z
1/2+x,-y,1/2-z
-x,1/2+y,1/2-z
-x,-y,-z
1/2+x,1/2+y,-z
1/2-x,y,1/2+z
x,1/2-y,1/2+z
loop_
_atom_site_type_symbol
_atom_site_label
_atom_site_fract_x
_atom_site_fract_y
_atom_site_fract_z
Si Si1 0.560562 0.955904 0.850881
Si Si2 0.328939 0.770733 0.523052
Si Si3 0.142850 0.276601 0.990835
Si Si4 0.317548 0.832889 0.776212
Si Si5 0.330592 0.364078 0.232112
Si Si6 0.403863 0.494817 0.900376
Si Si7 0.012994 0.336259 0.721280
O O1 0.600222 0.906777 0.967656
O O2 0.614511 0.970008 0.741309
O O3 0.515579 0.826128 0.804462
O O4 0.519529 0.095595 0.843117
O O5 0.250000 0.750000 0.539173
O O6 0.355986 0.764989 0.661683
O O7 0.351033 0.675258 0.409754
O O8 0.349587 0.918823 0.472024
O O9 0.181556 0.224189 0.110795
O O10 0.181785 0.302055 0.866115
O O11 0.092192 0.153571 0.958456
O O12 0.250000 0.750000 0.793640
O O13 0.300973 0.985294 0.734638
O O14 0.410727 0.380722 0.226277
O O15 0.470185 0.584460 0.882485
#
# Coordination Sequence:
#
# PCOD9430856 Si02
#       7
#     8   8   8   8   8   8   8
#     4   9  21  36  58  91 141 181 227 274 335 416
#     4  10  22  42  66  94 127 168 218 280 347 404
#     4  11  20  41  60  95 134 183 224 277 342 413
#     4  10  23  43  67  99 127 167 224 290 345 405
#     4  11  22  39  66  97 134 181 228 277 342 422
#     4  10  20  38  60  92 135 178 215 282 337 401
#     4   9  20  38  56  97 136 183 225 273 336 416
#
# _framework density 25.968423999999999
#
# number of rings (size 3 to 8) (size 9 to 14) (size 15 to 20)
#    0.857    1.143    4.286    0.000    2.000    4.000 
#    0.000    0.000    0.000    3.429   14.857    0.000 
#    0.000    0.000    0.000    0.000    0.000    0.000 
#
# Total GULP energy -312493.517094 kJ/mol
# GULP energy per Si atom -5580.241377 kJ/mol
# Density = 2.590932 g / cm^3
# Si number density = 25.968424 Si / 1000 Ang^3
#
#
#
# Elastic Constant Matrix: (Units=GPa)
#
#
# Indices 1 2 3 4 5 6 
#
# 1 92.5960 57.2140 7.1495 0.0000 0.0000 0.0000
# 2 57.2140 102.9754 72.7019 0.0000 0.0000 0.0000
# 3 7.1495 72.7019 194.6139 0.0000 0.0000 0.0000
# 4 0.0000 0.0000 0.0000 54.9846 0.0000 0.0000
# 5 0.0000 0.0000 0.0000 0.0000 -16.6525 0.0000
# 6 0.0000 0.0000 0.0000 0.0000 0.0000 31.0453
#
#
#
# Elastic Compliance Matrix: (Units=1/GPa)
#
#
# Indices 1 2 3 4 5 6 
#
# 1 0.018834 -0.013550 0.004370 0.000000 0.000000 0.000000
# 2 -0.013550 0.022938 -0.008071 0.000000 0.000000 0.000000
# 3 0.004370 -0.008071 0.007993 0.000000 0.000000 0.000000
# 4 0.000000 0.000000 0.000000 0.018187 0.000000 0.000000
# 5 0.000000 0.000000 0.000000 0.000000 -0.060051 0.000000
# 6 0.000000 0.000000 0.000000 0.000000 0.000000 0.032211
#
#
# Mechanical properties :
#
#
# Convention : Reuss Voigt Hill
#
# Bulk Modulus (GPa) = 65.51717 73.81291 69.66504
# Shear Modulus (GPa) = 62.73384 30.75012 46.74198
#
# Velocity S-wave (km/s) = 4.92038 3.44486 4.24719
# Velocity P-wave (km/s) = 7.58713 6.65647 7.13699
#
# Compressibility (1/GPa) = 0.01526318
#
# Stress axis : x y z
#
# Youngs Moduli (GPa) = 53.09423 43.59634 125.11020
#
# Poissons Ratio (x) = 0.59072 -0.54672
# Poissons Ratio (y) = 0.71941 1.00977
# Poissons Ratio (z) = -0.23202 0.35187
#
# Static dielectric constant tensor:
#      x y z
#    x 1.974580 0.000000 0.000000 
#    y 0.000000 2.053160 0.000000 
#    z 0.000000 0.000000 2.158920 
# 
# From -- ./inp_files/8937.got.cif
#   From: 2010.05.17/outbox.cif.g08.bks.cpg/sg56_5_cif.got.tgz:8937.got - 2010.06.03 13:42:01.
