data_PCOD9430301
_publ_section_title
;
Structure prediction by ZEFSAII (Michael W. Deem and Ramdas Pophale) SiO2 
 PCOD9430301
Probable space group: P C C N
;
_chemical_formula_sum "Si O2"
_cell_formula_units_Z 60
_cell_length_a 10.035444
_cell_length_b 15.157532
_cell_length_c 17.330379
_cell_angle_alpha 90.000000
_cell_angle_beta 90.000000
_cell_angle_gamma 90.000000
_cell_volume 2636.168377
_symmetry_space_group_name_H-M "P C C N"
_symmetry_group_IT_number 56
_symmetry_cell_setting 'orthorhombic'
loop_
_space_group_symop_operation_xyz
x,y,z
1/2-x,1/2-y,z
1/2+x,-y,1/2-z
-x,1/2+y,1/2-z
-x,-y,-z
1/2+x,1/2+y,-z
1/2-x,y,1/2+z
x,1/2-y,1/2+z
loop_
_atom_site_type_symbol
_atom_site_label
_atom_site_fract_x
_atom_site_fract_y
_atom_site_fract_z
Si Si1 0.574759 0.857436 0.293324
Si Si2 0.859422 0.068749 0.644260
Si Si3 0.634905 0.574793 0.110295
Si Si4 0.568709 0.410381 0.350442
Si Si5 0.307848 0.344764 0.043487
Si Si6 0.982758 0.895773 0.487160
Si Si7 0.850541 0.052432 0.810040
Si Si8 0.250000 0.250000 0.811392
O O1 0.449206 0.876781 0.238008
O O2 0.594953 0.836195 0.383298
O O3 0.634038 0.776546 0.246490
O O4 0.662194 0.948233 0.288214
O O5 0.905169 0.131569 0.574618
O O6 0.846210 0.105958 0.729918
O O7 0.731230 0.009398 0.622070
O O8 0.983610 0.000416 0.653079
O O9 0.493392 0.561167 0.150265
O O10 0.708908 0.661950 0.143461
O O11 0.618366 0.598631 0.020939
O O12 0.505280 0.359264 0.425142
O O13 0.725467 0.422127 0.362311
O O14 0.250000 0.250000 0.017905
O O15 0.162164 0.388430 0.051159
O O16 0.000000 0.000000 0.500000
#
# Coordination Sequence:
#
# PCOD9430301 Si02
#       8
#     8   8   8   8   8   8   8   4
#     4  11  23  39  68  94 139 173 231 282 340 414
#     4  10  19  37  66  93 131 168 231 278 330 412
#     4  12  24  41  68 104 132 182 229 294 338 425
#     4  10  20  40  59  94 133 174 214 283 341 409
#     4  12  24  40  65 106 133 175 238 292 354 423
#     4  10  19  37  64  91 130 174 220 276 350 404
#     4  11  24  39  65 104 135 174 233 283 349 409
#     4  12  22  42  68  96 132 182 228 282 346 410
#
# _framework density 22.760307000000001
#
# number of rings (size 3 to 8) (size 9 to 14) (size 15 to 20)
#    0.000    1.067    6.667    3.200    1.867    0.533 
#    2.400    0.667    0.000    1.600    0.000    0.000 
#    0.000    0.000    0.000    0.000    0.000    0.000 
#
# Total GULP energy -334171.844414 kJ/mol
# GULP energy per Si atom -5569.530740 kJ/mol
# Density = 2.270850 g / cm^3
# Si number density = 22.760307 Si / 1000 Ang^3
#
#
#
# Elastic Constant Matrix: (Units=GPa)
#
#
# Indices 1 2 3 4 5 6 
#
# 1 118.2939 6.2826 69.3694 0.0000 0.0000 0.0000
# 2 6.2826 18.6412 -2.8582 0.0000 0.0000 0.0000
# 3 69.3694 -2.8582 137.9364 0.0000 0.0000 0.0000
# 4 0.0000 0.0000 0.0000 11.7126 0.0000 0.0000
# 5 0.0000 0.0000 0.0000 0.0000 25.1636 0.0000
# 6 0.0000 0.0000 0.0000 0.0000 0.0000 12.7223
#
#
#
# Elastic Compliance Matrix: (Units=1/GPa)
#
#
# Indices 1 2 3 4 5 6 
#
# 1 0.012469 -0.005180 -0.006378 0.000000 0.000000 0.000000
# 2 -0.005180 0.055968 0.003765 0.000000 0.000000 0.000000
# 3 -0.006378 0.003765 0.010535 0.000000 0.000000 0.000000
# 4 0.000000 0.000000 0.000000 0.085378 0.000000 0.000000
# 5 0.000000 0.000000 0.000000 0.000000 0.039740 0.000000
# 6 0.000000 0.000000 0.000000 0.000000 0.000000 0.078602
#
#
# Mechanical properties :
#
#
# Convention : Reuss Voigt Hill
#
# Bulk Modulus (GPa) = 15.77656 46.71767 31.24711
# Shear Modulus (GPa) = 15.65400 23.39153 19.52276
#
# Velocity S-wave (km/s) = 2.62539 3.20931 2.93192
# Velocity P-wave (km/s) = 4.01708 5.85691 5.02197
#
# Compressibility (1/GPa) = 0.06338518
#
# Stress axis : x y z
#
# Youngs Moduli (GPa) = 80.20007 17.86741 94.91907
#
# Poissons Ratio (x) = 0.09256 0.60540
# Poissons Ratio (y) = 0.41546 -0.35736
# Poissons Ratio (z) = 0.51152 -0.06727
#
# Static dielectric constant tensor:
#      x y z
#    x 1.887830 0.000000 0.000000 
#    y 0.000000 2.064460 0.000000 
#    z 0.000000 0.000000 2.051130 
# 
# From -- ./inp_files/15127.got.cif
#   From: 2010.05.17/outbox.cif.g08.bks.cpg/sg56_8_cif.got.tgz:15127.got - 2010.06.03 13:42:01.
