data_PCOD9430296
_publ_section_title
;
Structure prediction by ZEFSAII (Michael W. Deem and Ramdas Pophale) SiO2 
 PCOD9430296
Probable space group: P C C N
;
_chemical_formula_sum "Si O2"
_cell_formula_units_Z 52
_cell_length_a 5.466050
_cell_length_b 15.827000
_cell_length_c 27.270514
_cell_angle_alpha 90.000000
_cell_angle_beta 90.000000
_cell_angle_gamma 90.000000
_cell_volume 2359.204164
_symmetry_space_group_name_H-M "P C C N"
_symmetry_group_IT_number 56
_symmetry_cell_setting 'orthorhombic'
loop_
_space_group_symop_operation_xyz
x,y,z
1/2-x,1/2-y,z
1/2+x,-y,1/2-z
-x,1/2+y,1/2-z
-x,-y,-z
1/2+x,1/2+y,-z
1/2-x,y,1/2+z
x,1/2-y,1/2+z
loop_
_atom_site_type_symbol
_atom_site_label
_atom_site_fract_x
_atom_site_fract_y
_atom_site_fract_z
Si Si1 0.137372 0.845998 0.483566
Si Si2 0.750000 0.750000 0.440746
Si Si3 0.250000 0.750000 0.808302
Si Si4 0.250000 0.250000 0.753274
Si Si5 0.303496 0.650144 0.593449
Si Si6 0.905707 0.130690 0.112163
Si Si7 0.905442 0.024004 0.838192
Si Si8 0.098649 0.410594 0.818106
O O1 0.250000 0.750000 0.485516
O O2 0.177135 0.880955 0.537606
O O3 0.249007 0.893315 0.436263
O O4 0.853709 0.825941 0.473305
O O5 0.546493 0.786518 0.405852
O O6 0.500907 0.759458 0.777848
O O7 0.240603 0.834165 0.841708
O O8 0.181142 0.331065 0.786106
O O9 0.250000 0.750000 0.594665
O O10 0.094535 0.600952 0.622896
O O11 0.536020 0.624104 0.626918
O O12 0.098117 0.061697 0.130735
O O13 0.662705 0.043752 0.806480
O O14 0.172522 0.026913 0.814724
#
# Coordination Sequence:
#
# PCOD9430296 Si02
#       8
#     8   4   4   4   8   8   8   8
#     4   9  19  35  62  97 135 180 231 276 323 398
#     4  10  19  37  64  86 134 190 221 285 318 382
#     4  12  26  42  74 100 118 184 230 286 342 414
#     4  12  25  45  76 100 126 170 241 279 350 420
#     4   9  20  38  65 102 131 183 222 266 339 405
#     4  11  23  42  64  97 140 175 234 274 336 403
#     4  10  24  40  69  98 143 178 210 282 347 393
#     4  10  23  43  65 101 132 172 214 283 341 402
#
# _framework density 22.041332000000001
#
# number of rings (size 3 to 8) (size 9 to 14) (size 15 to 20)
#    0.923    0.923    2.308    2.308    3.231    4.923 
#    0.000    4.615    0.000    0.000    0.000    0.000 
#    0.000    0.000    0.000    0.000    0.000    0.000 
#
# Total GULP energy -289527.475648 kJ/mol
# GULP energy per Si atom -5567.836070 kJ/mol
# Density = 2.199116 g / cm^3
# Si number density = 22.041332 Si / 1000 Ang^3
#
#
#
# Elastic Constant Matrix: (Units=GPa)
#
#
# Indices 1 2 3 4 5 6 
#
# 1 137.7849 2.5274 40.3800 0.0000 0.0000 0.0000
# 2 2.5274 40.5819 8.8427 0.0000 0.0000 0.0000
# 3 40.3800 8.8427 89.4188 0.0000 0.0000 0.0000
# 4 0.0000 0.0000 0.0000 -21.1536 0.0000 0.0000
# 5 0.0000 0.0000 0.0000 0.0000 -18.9894 0.0000
# 6 0.0000 0.0000 0.0000 0.0000 0.0000 20.8818
#
#
#
# Elastic Compliance Matrix: (Units=1/GPa)
#
#
# Indices 1 2 3 4 5 6 
#
# 1 0.008368 0.000309 -0.003810 0.000000 0.000000 0.000000
# 2 0.000309 0.025196 -0.002631 0.000000 0.000000 0.000000
# 3 -0.003810 -0.002631 0.013164 0.000000 0.000000 0.000000
# 4 0.000000 0.000000 0.000000 -0.047273 0.000000 0.000000
# 5 0.000000 0.000000 0.000000 0.000000 -0.052661 0.000000
# 6 0.000000 0.000000 0.000000 0.000000 0.000000 0.047889
#
#
# Mechanical properties :
#
#
# Convention : Reuss Voigt Hill
#
# Bulk Modulus (GPa) = 29.01550 41.25400 35.13475
# Shear Modulus (GPa) = 271.23596 10.55012 140.89304
#
# Velocity S-wave (km/s) = 11.10518 2.19018 8.00381
# Velocity P-wave (km/s) = 13.32764 5.01529 10.06924
#
# Compressibility (1/GPa) = 0.03446434
#
# Stress axis : x y z
#
# Youngs Moduli (GPa) = 119.49586 39.68944 75.96543
#
# Poissons Ratio (x) = -0.01226 0.28940
# Poissons Ratio (y) = -0.03692 0.19987
# Poissons Ratio (z) = 0.45523 0.10443
#
# Static dielectric constant tensor:
#      x y z
#    x 1.849080 0.000000 0.000000 
#    y 0.000000 1.855970 0.000000 
#    z 0.000000 0.000000 1.884840 
# 
# From -- ./inp_files/22948.got.cif
#   From: 2010.05.17/outbox.cif.g08.bks.cpg/sg56_12_cif.got.tgz:22948.got - 2010.06.03 13:42:01.
