data_PCOD9430623
_publ_section_title
;
Structure prediction by ZEFSAII (Michael W. Deem and Ramdas Pophale) SiO2 
 PCOD9430623
Probable space group: P C C N
;
_chemical_formula_sum "Si O2"
_cell_formula_units_Z 36
_cell_length_a 17.241351
_cell_length_b 9.023013
_cell_length_c 8.951857
_cell_angle_alpha 90.000000
_cell_angle_beta 90.000000
_cell_angle_gamma 90.000000
_cell_volume 1392.630853
_symmetry_space_group_name_H-M "P C C N"
_symmetry_group_IT_number 56
_symmetry_cell_setting 'orthorhombic'
loop_
_space_group_symop_operation_xyz
x,y,z
1/2-x,1/2-y,z
1/2+x,-y,1/2-z
-x,1/2+y,1/2-z
-x,-y,-z
1/2+x,1/2+y,-z
1/2-x,y,1/2+z
x,1/2-y,1/2+z
loop_
_atom_site_type_symbol
_atom_site_label
_atom_site_fract_x
_atom_site_fract_y
_atom_site_fract_z
Si Si1 0.608310 0.408905 0.293652
Si Si2 0.339674 0.412960 0.170933
Si Si3 0.750000 0.750000 0.074342
Si Si4 0.637234 0.337507 0.606931
Si Si5 0.525087 0.787274 0.805700
O O1 0.659426 0.389544 0.442407
O O2 0.649265 0.334737 0.148729
O O3 0.531497 0.303071 0.305781
O O4 0.581099 0.576115 0.267035
O O5 0.313962 0.317557 0.316463
O O6 0.284089 0.373308 0.035783
O O7 0.338128 0.573720 0.244715
O O8 0.422934 0.344271 0.125760
O O9 0.543984 0.363250 0.602183
#
# Coordination Sequence:
#
# PCOD9430623 Si02
#       5
#     8   8   4   8   8
#     4  10  21  33  57  99 125 157 190 238 356 350
#     4  11  22  43  65  86 131 153 225 243 302 377
#     4  10  26  40  64  90 110 192 204 250 280 366
#     4  10  21  37  59  93 125 157 192 269 315 370
#     4  10  20  35  63  94 129 154 191 268 321 372
#
# _framework density 25.850352999999998
#
# number of rings (size 3 to 8) (size 9 to 14) (size 15 to 20)
#    1.333    0.444    2.222    2.000    3.111    2.667 
#    0.000    0.000    0.000   22.667    0.000    0.000 
#    0.000    0.000    0.000    0.000    0.000    0.000 
#
# Total GULP energy -200625.297920 kJ/mol
# GULP energy per Si atom -5572.924942 kJ/mol
# Density = 2.579152 g / cm^3
# Si number density = 25.850353 Si / 1000 Ang^3
#
#
#
# Elastic Constant Matrix: (Units=GPa)
#
#
# Indices 1 2 3 4 5 6 
#
# 1 41.7542 4.0573 19.8119 0.0000 0.0000 0.0000
# 2 4.0573 104.1048 11.7141 0.0000 0.0000 0.0000
# 3 19.8119 11.7141 80.2956 0.0000 0.0000 0.0000
# 4 0.0000 0.0000 0.0000 2.0403 0.0000 0.0000
# 5 0.0000 0.0000 0.0000 0.0000 25.1468 0.0000
# 6 0.0000 0.0000 0.0000 0.0000 0.0000 40.2393
#
#
#
# Elastic Compliance Matrix: (Units=1/GPa)
#
#
# Indices 1 2 3 4 5 6 
#
# 1 0.027135 -0.000309 -0.006650 0.000000 0.000000 0.000000
# 2 -0.000309 0.009770 -0.001349 0.000000 0.000000 0.000000
# 3 -0.006650 -0.001349 0.014292 0.000000 0.000000 0.000000
# 4 0.000000 0.000000 0.000000 0.490123 0.000000 0.000000
# 5 0.000000 0.000000 0.000000 0.000000 0.039767 0.000000
# 6 0.000000 0.000000 0.000000 0.000000 0.000000 0.024851
#
#
# Mechanical properties :
#
#
# Convention : Reuss Voigt Hill
#
# Bulk Modulus (GPa) = 28.91874 33.03568 30.97721
# Shear Modulus (GPa) = 7.88544 26.19003 17.03773
#
# Velocity S-wave (km/s) = 1.74844 3.18644 2.57006
# Velocity P-wave (km/s) = 3.90990 5.13276 4.56248
#
# Compressibility (1/GPa) = 0.03457965
#
# Stress axis : x y z
#
# Youngs Moduli (GPa) = 36.85258 102.35892 69.97120
#
# Poissons Ratio (x) = 0.03166 0.46532
# Poissons Ratio (y) = 0.01140 0.09439
# Poissons Ratio (z) = 0.24507 0.13808
#
# Static dielectric constant tensor:
#      x y z
#    x 2.145520 0.000000 0.000000 
#    y 0.000000 2.056280 0.000000 
#    z 0.000000 0.000000 2.052440 
# 
# From -- ./inp_files/1992.got.cif
#   From: 2010.05.17/outbox.cif.g08.bks.cpg/sg56_1_cif.got.tgz:1992.got - 2010.06.03 13:42:01.
