data_PCOD9430277
_publ_section_title
;
Structure prediction by ZEFSAII (Michael W. Deem and Ramdas Pophale) SiO2 
 PCOD9430277
Probable space group: P C C N
;
_chemical_formula_sum "Si O2"
_cell_formula_units_Z 56
_cell_length_a 16.339559
_cell_length_b 13.504050
_cell_length_c 13.676946
_cell_angle_alpha 90.000000
_cell_angle_beta 90.000000
_cell_angle_gamma 90.000000
_cell_volume 3017.821167
_symmetry_space_group_name_H-M "P C C N"
_symmetry_group_IT_number 56
_symmetry_cell_setting 'orthorhombic'
loop_
_space_group_symop_operation_xyz
x,y,z
1/2-x,1/2-y,z
1/2+x,-y,1/2-z
-x,1/2+y,1/2-z
-x,-y,-z
1/2+x,1/2+y,-z
1/2-x,y,1/2+z
x,1/2-y,1/2+z
loop_
_atom_site_type_symbol
_atom_site_label
_atom_site_fract_x
_atom_site_fract_y
_atom_site_fract_z
Si Si1 0.156521 0.944323 0.903651
Si Si2 0.196473 0.480555 0.197488
Si Si3 0.935262 0.687282 0.778649
Si Si4 0.708812 0.146666 0.953724
Si Si5 0.061239 0.365444 0.447560
Si Si6 0.821117 0.830416 0.879184
Si Si7 0.428479 0.750775 0.419973
O O1 0.199431 0.997651 0.812581
O O2 0.121585 0.838940 0.868700
O O3 0.081875 0.016551 0.937655
O O4 0.222799 0.915301 0.985680
O O5 0.122810 0.401963 0.184339
O O6 0.181213 0.578864 0.135585
O O7 0.279507 0.430246 0.158490
O O8 0.943750 0.673351 0.663107
O O9 0.889086 0.789510 0.804774
O O10 0.017524 0.692045 0.841697
O O11 0.750000 0.250000 0.921246
O O12 0.633587 0.179647 0.022548
O O13 0.138924 0.334724 0.514014
O O14 0.986132 0.313334 0.504639
O O15 0.750000 0.750000 0.880379
#
# Coordination Sequence:
#
# PCOD9430277 Si02
#       7
#     8   8   8   8   8   8   8
#     4  10  21  38  59  84 116 152 198 237 284 350
#     4  10  20  38  61  86 114 151 193 240 291 349
#     4   9  21  37  56  88 117 152 192 238 291 342
#     4  10  22  39  58  85 115 152 193 241 293 342
#     4  10  19  37  61  81 117 157 191 242 289 345
#     4   9  18  35  59  88 117 145 194 240 289 345
#     4  10  22  38  56  85 119 152 196 235 290 352
#
# _framework density 18.556435
#
# number of rings (size 3 to 8) (size 9 to 14) (size 15 to 20)
#    0.000    2.286    1.429    0.429    2.000    5.143 
#    5.143    2.857    0.000    0.000    0.000    0.000 
#    0.000    0.000    0.000    0.000    0.000    0.000 
#
# Total GULP energy -311921.756708 kJ/mol
# GULP energy per Si atom -5570.031370 kJ/mol
# Density = 1.851420 g / cm^3
# Si number density = 18.556435 Si / 1000 Ang^3
#
#
#
# Elastic Constant Matrix: (Units=GPa)
#
#
# Indices 1 2 3 4 5 6 
#
# 1 50.1330 20.2506 27.1282 0.0000 0.0000 0.0000
# 2 20.2506 68.9257 42.3897 0.0000 0.0000 0.0000
# 3 27.1282 42.3897 87.0217 0.0000 0.0000 0.0000
# 4 0.0000 0.0000 0.0000 28.0617 0.0000 0.0000
# 5 0.0000 0.0000 0.0000 0.0000 11.4633 0.0000
# 6 0.0000 0.0000 0.0000 0.0000 0.0000 14.7428
#
#
#
# Elastic Compliance Matrix: (Units=1/GPa)
#
#
# Indices 1 2 3 4 5 6 
#
# 1 0.024600 -0.003585 -0.005922 0.000000 0.000000 0.000000
# 2 -0.003585 0.021236 -0.009227 0.000000 0.000000 0.000000
# 3 -0.005922 -0.009227 0.017832 0.000000 0.000000 0.000000
# 4 0.000000 0.000000 0.000000 0.035636 0.000000 0.000000
# 5 0.000000 0.000000 0.000000 0.000000 0.087235 0.000000
# 6 0.000000 0.000000 0.000000 0.000000 0.000000 0.067830
#
#
# Mechanical properties :
#
#
# Convention : Reuss Voigt Hill
#
# Bulk Modulus (GPa) = 38.16875 42.84636 40.50755
# Shear Modulus (GPa) = 16.63502 18.60770 17.62136
#
# Velocity S-wave (km/s) = 2.99734 3.17008 3.08492
# Velocity P-wave (km/s) = 5.70897 6.04476 5.87926
#
# Compressibility (1/GPa) = 0.02619944
#
# Stress axis : x y z
#
# Youngs Moduli (GPa) = 40.65061 47.08913 56.07840
#
# Poissons Ratio (x) = 0.16883 0.33212
# Poissons Ratio (y) = 0.14574 0.51743
# Poissons Ratio (z) = 0.24075 0.43449
#
# Static dielectric constant tensor:
#      x y z
#    x 1.654770 0.000000 0.000000 
#    y 0.000000 1.647430 0.000000 
#    z 0.000000 0.000000 1.618660 
# 
# From -- ./inp_files/12277.got.cif
#   From: 2010.05.17/outbox.cif.g08.bks.cpg/sg56_7_cif.got.tgz:12277.got - 2010.06.03 13:42:01.
