data_PCOD9430446
_publ_section_title
;
Structure prediction by ZEFSAII (Michael W. Deem and Ramdas Pophale) SiO2 
 PCOD9430446
Probable space group: P C C N
;
_chemical_formula_sum "Si O2"
_cell_formula_units_Z 32
_cell_length_a 20.470721
_cell_length_b 16.075251
_cell_length_c 5.130502
_cell_angle_alpha 90.000000
_cell_angle_beta 90.000000
_cell_angle_gamma 90.000000
_cell_volume 1688.304442
_symmetry_space_group_name_H-M "P C C N"
_symmetry_group_IT_number 56
_symmetry_cell_setting 'orthorhombic'
loop_
_space_group_symop_operation_xyz
x,y,z
1/2-x,1/2-y,z
1/2+x,-y,1/2-z
-x,1/2+y,1/2-z
-x,-y,-z
1/2+x,1/2+y,-z
1/2-x,y,1/2+z
x,1/2-y,1/2+z
loop_
_atom_site_type_symbol
_atom_site_label
_atom_site_fract_x
_atom_site_fract_y
_atom_site_fract_z
Si Si1 0.110256 0.932781 0.154080
Si Si2 0.322584 0.715532 0.963691
Si Si3 0.570179 0.974098 0.874913
Si Si4 0.509532 0.807806 0.744204
O O1 0.172248 0.876713 0.074511
O O2 0.056103 0.863771 0.232767
O O3 0.118468 0.995127 0.395982
O O4 0.084184 0.978585 0.895185
O O5 0.250000 0.750000 0.914382
O O6 0.354016 0.776514 0.179223
O O7 0.564910 0.876871 0.806796
O O8 0.500000 0.000000 0.000000
O O9 0.512483 0.760948 0.469306
#
# Coordination Sequence:
#
# PCOD9430446 Si02
#       4
#     8   8   8   8
#     4  11  19  32  48  66  95 134 170 201 248 300
#     4  10  20  33  49  72  99 130 165 205 245 292
#     4  10  20  32  45  66  94 128 170 211 243 291
#     4  11  19  29  45  66  92 126 168 207 237 279
#
# _framework density 18.953927
#
# number of rings (size 3 to 8) (size 9 to 14) (size 15 to 20)
#    0.000    1.500    0.000   10.500    0.000    0.000 
#    0.000    0.000    0.000    0.000    0.000    0.000 
#    0.000    0.000    0.000  315.000    0.000   35.000 
#
# Total GULP energy -178355.247878 kJ/mol
# GULP energy per Si atom -5573.601496 kJ/mol
# Density = 1.891079 g / cm^3
# Si number density = 18.953927 Si / 1000 Ang^3
#
#
#
# Elastic Constant Matrix: (Units=GPa)
#
#
# Indices 1 2 3 4 5 6 
#
# 1 28.7626 27.0309 6.6642 0.0000 0.0000 0.0000
# 2 27.0309 86.6274 24.1264 0.0000 0.0000 0.0000
# 3 6.6642 24.1264 136.3171 0.0000 0.0000 0.0000
# 4 0.0000 0.0000 0.0000 57.2749 0.0000 0.0000
# 5 0.0000 0.0000 0.0000 0.0000 13.7104 0.0000
# 6 0.0000 0.0000 0.0000 0.0000 0.0000 28.4091
#
#
#
# Elastic Compliance Matrix: (Units=1/GPa)
#
#
# Indices 1 2 3 4 5 6 
#
# 1 0.049207 -0.015446 0.000328 0.000000 0.000000 0.000000
# 2 -0.015446 0.016991 -0.002252 0.000000 0.000000 0.000000
# 3 0.000328 -0.002252 0.007718 0.000000 0.000000 0.000000
# 4 0.000000 0.000000 0.000000 0.017460 0.000000 0.000000
# 5 0.000000 0.000000 0.000000 0.000000 0.072937 0.000000
# 6 0.000000 0.000000 0.000000 0.000000 0.000000 0.035200
#
#
# Mechanical properties :
#
#
# Convention : Reuss Voigt Hill
#
# Bulk Modulus (GPa) = 25.52542 40.81667 33.17104
# Shear Modulus (GPa) = 20.21744 32.80459 26.51101
#
# Velocity S-wave (km/s) = 3.26952 4.16475 3.74399
# Velocity P-wave (km/s) = 5.26777 6.68642 6.01904
#
# Compressibility (1/GPa) = 0.03917664
#
# Stress axis : x y z
#
# Youngs Moduli (GPa) = 20.32229 58.85635 129.56104
#
# Poissons Ratio (x) = 0.90908 -0.04251
# Poissons Ratio (y) = 0.31389 0.29177
# Poissons Ratio (z) = -0.00667 0.13254
#
# Static dielectric constant tensor:
#      x y z
#    x 1.868760 0.000000 0.000000 
#    y 0.000000 1.696390 0.000000 
#    z 0.000000 0.000000 1.784350 
# 
# From -- ./inp_files/259.got.cif
#   From: 2010.05.17/outbox.cif.g08.bks.cpg/sg56_1_cif.got.tgz:259.got - 2010.06.03 13:42:01.
