data_PCOD9430137
_publ_section_title
;
Structure prediction by ZEFSAII (Michael W. Deem and Ramdas Pophale) SiO2 
 PCOD9430137
Probable space group: P C C N
;
_chemical_formula_sum "Si O2"
_cell_formula_units_Z 48
_cell_length_a 8.116356
_cell_length_b 7.868420
_cell_length_c 29.199660
_cell_angle_alpha 90.000000
_cell_angle_beta 90.000000
_cell_angle_gamma 90.000000
_cell_volume 1864.774905
_symmetry_space_group_name_H-M "P C C N"
_symmetry_group_IT_number 56
_symmetry_cell_setting 'orthorhombic'
loop_
_space_group_symop_operation_xyz
x,y,z
1/2-x,1/2-y,z
1/2+x,-y,1/2-z
-x,1/2+y,1/2-z
-x,-y,-z
1/2+x,1/2+y,-z
1/2-x,y,1/2+z
x,1/2-y,1/2+z
loop_
_atom_site_type_symbol
_atom_site_label
_atom_site_fract_x
_atom_site_fract_y
_atom_site_fract_z
Si Si1 0.424009 0.329615 0.891828
Si Si2 0.949690 0.239376 0.261230
Si Si3 0.565375 0.290560 0.477965
Si Si4 0.046623 0.055727 0.177375
Si Si5 0.426856 0.980058 0.157352
Si Si6 0.068164 0.335101 0.068850
O O1 0.250000 0.250000 0.878422
O O2 0.443499 0.317438 0.945923
O O3 0.452563 0.512734 0.869476
O O4 0.558525 0.199680 0.870301
O O5 0.750000 0.250000 0.259880
O O6 0.011191 0.402695 0.288891
O O7 0.001398 0.081192 0.294200
O O8 0.015027 0.215526 0.209911
O O9 0.750000 0.250000 0.466423
O O10 0.559352 0.484287 0.458472
O O11 0.535716 0.237109 0.530679
O O12 0.238465 0.032200 0.166595
O O13 0.490746 0.116618 0.120065
O O14 0.250000 0.250000 0.071655
#
# Coordination Sequence:
#
# PCOD9430137 Si02
#       6
#     8   8   8   8   8   8
#     4  10  19  34  60  90 120 161 208 254 311 385
#     4   9  20  37  61  92 125 163 214 261 312 380
#     4  10  21  40  64  89 124 163 206 262 326 388
#     4  10  20  38  63  88 124 171 209 257 318 381
#     4   9  20  39  58  85 126 164 204 256 316 371
#     4  10  21  38  63  93 121 160 214 265 314 378
#
# _framework density 25.740372000000001
#
# number of rings (size 3 to 8) (size 9 to 14) (size 15 to 20)
#    0.000    2.333    0.000    4.000    0.000    8.000 
#    0.000    6.667    0.000    5.000    0.000    0.000 
#    0.000    0.000    0.000    0.000    0.000    0.000 
#
# Total GULP energy -267900.700225 kJ/mol
# GULP energy per Si atom -5581.264588 kJ/mol
# Density = 2.568179 g / cm^3
# Si number density = 25.740372 Si / 1000 Ang^3
#
#
#
# Elastic Constant Matrix: (Units=GPa)
#
#
# Indices 1 2 3 4 5 6 
#
# 1 52.3218 -1.6251 17.9710 0.0000 0.0000 0.0000
# 2 -1.6251 101.2682 30.5234 0.0000 0.0000 0.0000
# 3 17.9710 30.5234 160.1741 0.0000 0.0000 0.0000
# 4 0.0000 0.0000 0.0000 44.9666 0.0000 0.0000
# 5 0.0000 0.0000 0.0000 0.0000 43.0028 0.0000
# 6 0.0000 0.0000 0.0000 0.0000 0.0000 13.3146
#
#
#
# Elastic Compliance Matrix: (Units=1/GPa)
#
#
# Indices 1 2 3 4 5 6 
#
# 1 0.019985 0.001057 -0.002444 0.000000 0.000000 0.000000
# 2 0.001057 0.010532 -0.002126 0.000000 0.000000 0.000000
# 3 -0.002444 -0.002126 0.006922 0.000000 0.000000 0.000000
# 4 0.000000 0.000000 0.000000 0.022239 0.000000 0.000000
# 5 0.000000 0.000000 0.000000 0.000000 0.023254 0.000000
# 6 0.000000 0.000000 0.000000 0.000000 0.000000 0.075105
#
#
# Mechanical properties :
#
#
# Convention : Reuss Voigt Hill
#
# Bulk Modulus (GPa) = 32.87823 45.27809 39.07816
# Shear Modulus (GPa) = 28.53870 38.04979 33.29424
#
# Velocity S-wave (km/s) = 3.33335 3.84893 3.60038
# Velocity P-wave (km/s) = 5.25506 6.11398 5.70072
#
# Compressibility (1/GPa) = 0.03041526
#
# Stress axis : x y z
#
# Youngs Moduli (GPa) = 50.03839 94.94463 144.45717
#
# Poissons Ratio (x) = -0.10038 0.35301
# Poissons Ratio (y) = -0.05290 0.30708
# Poissons Ratio (z) = 0.12228 0.20183
#
# Static dielectric constant tensor:
#      x y z
#    x 1.930800 0.000000 0.000000 
#    y 0.000000 1.995430 0.000000 
#    z 0.000000 0.000000 2.136220 
# 
# From -- ./inp_files/23240.got.cif
#   From: 2010.05.17/outbox.cif.g08.bks.cpg/sg56_12_cif.got.tgz:23240.got - 2010.06.03 13:42:01.
