data_PCOD9430297
_publ_section_title
;
Structure prediction by ZEFSAII (Michael W. Deem and Ramdas Pophale) SiO2 
 PCOD9430297
Probable space group: P C C N
;
_chemical_formula_sum "Si O2"
_cell_formula_units_Z 44
_cell_length_a 8.811523
_cell_length_b 13.851356
_cell_length_c 17.809718
_cell_angle_alpha 90.000000
_cell_angle_beta 90.000000
_cell_angle_gamma 90.000000
_cell_volume 2173.703544
_symmetry_space_group_name_H-M "P C C N"
_symmetry_group_IT_number 56
_symmetry_cell_setting 'orthorhombic'
loop_
_space_group_symop_operation_xyz
x,y,z
1/2-x,1/2-y,z
1/2+x,-y,1/2-z
-x,1/2+y,1/2-z
-x,-y,-z
1/2+x,1/2+y,-z
1/2-x,y,1/2+z
x,1/2-y,1/2+z
loop_
_atom_site_type_symbol
_atom_site_label
_atom_site_fract_x
_atom_site_fract_y
_atom_site_fract_z
Si Si1 0.250000 0.250000 0.810296
Si Si2 0.441767 0.417738 0.945999
Si Si3 0.322053 0.346136 0.555108
Si Si4 0.742233 0.961494 0.701281
Si Si5 0.405859 0.530352 0.654920
Si Si6 0.972825 0.218924 0.426238
O O1 0.234237 0.149171 0.768060
O O2 0.390867 0.233112 0.865886
O O3 0.375483 0.459667 0.868350
O O4 0.565130 0.331932 0.936744
O O5 0.500000 0.500000 0.000000
O O6 0.298937 0.372437 0.990225
O O7 0.250000 0.250000 0.592575
O O8 0.352670 0.438701 0.606012
O O9 0.470957 0.317843 0.507447
O O10 0.913690 0.980862 0.673579
O O11 0.686282 0.030010 0.767336
O O12 0.383695 0.630708 0.610895
#
# Coordination Sequence:
#
# PCOD9430297 Si02
#       6
#     4   8   8   8   8   8
#     4   8  14  36  58  78 116 162 212 238 292 380
#     4  10  20  38  64  89 123 158 212 257 314 377
#     4  10  19  37  64  89 109 160 217 255 297 377
#     4  10  22  37  60  90 123 168 204 261 313 386
#     4  11  22  36  63  89 128 161 213 258 324 378
#     4   9  16  37  60  87 113 158 207 254 300 371
#
# _framework density 20.241952000000001
#
# number of rings (size 3 to 8) (size 9 to 14) (size 15 to 20)
#    0.000    2.182    6.364    0.545    3.818    0.000 
#    0.000    0.909    4.000   13.091    0.000    0.000 
#    0.000    0.000    0.000    0.000    0.000    0.000 
#
# Total GULP energy -245108.940496 kJ/mol
# GULP energy per Si atom -5570.657739 kJ/mol
# Density = 2.019588 g / cm^3
# Si number density = 20.241952 Si / 1000 Ang^3
#
#
#
# Elastic Constant Matrix: (Units=GPa)
#
#
# Indices 1 2 3 4 5 6 
#
# 1 61.1239 47.0378 38.5020 0.0000 0.0000 0.0000
# 2 47.0378 151.3492 62.8858 0.0000 0.0000 0.0000
# 3 38.5020 62.8858 92.5892 0.0000 0.0000 0.0000
# 4 0.0000 0.0000 0.0000 23.6325 0.0000 0.0000
# 5 0.0000 0.0000 0.0000 0.0000 24.8063 0.0000
# 6 0.0000 0.0000 0.0000 0.0000 0.0000 30.1564
#
#
#
# Elastic Compliance Matrix: (Units=1/GPa)
#
#
# Indices 1 2 3 4 5 6 
#
# 1 0.024332 -0.004678 -0.006941 0.000000 0.000000 0.000000
# 2 -0.004678 0.010104 -0.004917 0.000000 0.000000 0.000000
# 3 -0.006941 -0.004917 0.017027 0.000000 0.000000 0.000000
# 4 0.000000 0.000000 0.000000 0.042315 0.000000 0.000000
# 5 0.000000 0.000000 0.000000 0.000000 0.040312 0.000000
# 6 0.000000 0.000000 0.000000 0.000000 0.000000 0.033161
#
#
# Mechanical properties :
#
#
# Convention : Reuss Voigt Hill
#
# Bulk Modulus (GPa) = 54.37675 66.87927 60.62801
# Shear Modulus (GPa) = 24.21846 26.16147 25.18996
#
# Velocity S-wave (km/s) = 3.46272 3.59895 3.53149
# Velocity P-wave (km/s) = 6.55050 7.09800 6.82974
#
# Compressibility (1/GPa) = 0.01839021
#
# Stress axis : x y z
#
# Youngs Moduli (GPa) = 41.09734 98.96671 58.73196
#
# Poissons Ratio (x) = 0.46300 0.40765
# Poissons Ratio (y) = 0.19227 0.28881
# Poissons Ratio (z) = 0.28525 0.48666
#
# Static dielectric constant tensor:
#      x y z
#    x 1.777200 0.000000 0.000000 
#    y 0.000000 1.792490 0.000000 
#    z 0.000000 0.000000 1.691030 
# 
# From -- ./inp_files/14704.got.cif
#   From: 2010.05.17/outbox.cif.g08.bks.cpg/sg56_8_cif.got.tgz:14704.got - 2010.06.03 13:42:01.
