data_PCOD9430664
_publ_section_title
;
Structure prediction by ZEFSAII (Michael W. Deem and Ramdas Pophale) SiO2 
 PCOD9430664
Probable space group: P C C N
;
_chemical_formula_sum "Si O2"
_cell_formula_units_Z 48
_cell_length_a 8.355047
_cell_length_b 8.095339
_cell_length_c 30.798151
_cell_angle_alpha 90.000000
_cell_angle_beta 90.000000
_cell_angle_gamma 90.000000
_cell_volume 2083.092624
_symmetry_space_group_name_H-M "P C C N"
_symmetry_group_IT_number 56
_symmetry_cell_setting 'orthorhombic'
loop_
_space_group_symop_operation_xyz
x,y,z
1/2-x,1/2-y,z
1/2+x,-y,1/2-z
-x,1/2+y,1/2-z
-x,-y,-z
1/2+x,1/2+y,-z
1/2-x,y,1/2+z
x,1/2-y,1/2+z
loop_
_atom_site_type_symbol
_atom_site_label
_atom_site_fract_x
_atom_site_fract_y
_atom_site_fract_z
Si Si1 0.655345 0.576362 0.719291
Si Si2 0.432047 0.695413 0.895220
Si Si3 0.926414 0.822124 0.069237
Si Si4 0.034848 0.567215 0.308199
Si Si5 0.438754 0.817226 0.984949
Si Si6 0.566087 0.222592 0.846941
O O1 0.750000 0.750000 0.720127
O O2 0.782818 0.434616 0.708716
O O3 0.574528 0.564839 0.766048
O O4 0.521793 0.584944 0.681573
O O5 0.250000 0.750000 0.887580
O O6 0.432524 0.511341 0.915776
O O7 0.508046 0.691261 0.847278
O O8 0.495544 0.803383 0.935018
O O9 0.750000 0.750000 0.075689
O O10 0.038279 0.715254 0.101590
O O11 0.976431 0.801152 0.019664
O O12 0.017851 0.391067 0.331766
O O13 0.250000 0.750000 0.985243
O O14 0.500000 0.000000 0.000000
O O15 0.750000 0.250000 0.836699
#
# Coordination Sequence:
#
# PCOD9430664 Si02
#       6
#     8   8   8   8   8   8
#     4  10  21  37  58  88 123 166 219 275 343 417
#     4  10  22  39  61  93 129 174 228 280 344 415
#     4  11  21  40  66  93 129 172 222 284 349 421
#     4  10  21  38  60  89 127 172 219 276 342 419
#     4  11  24  44  69 100 135 178 234 295 365 437
#     4  10  20  36  59  87 119 162 216 274 337 409
#
# _framework density 23.042662
#
# number of rings (size 3 to 8) (size 9 to 14) (size 15 to 20)
#    0.000    1.667    0.000    6.500    0.000    3.333 
#    0.000    7.500    0.000    0.000    0.000    0.000 
#    0.000    0.000    0.000    0.000    0.000    0.000 
#
# Total GULP energy -267889.084958 kJ/mol
# GULP energy per Si atom -5581.022603 kJ/mol
# Density = 2.299022 g / cm^3
# Si number density = 23.042662 Si / 1000 Ang^3
#
#
#
# Elastic Constant Matrix: (Units=GPa)
#
#
# Indices 1 2 3 4 5 6 
#
# 1 69.0314 11.6382 41.1683 0.0000 0.0000 0.0000
# 2 11.6382 87.8856 36.0446 0.0000 0.0000 0.0000
# 3 41.1683 36.0446 163.8299 0.0000 0.0000 0.0000
# 4 0.0000 0.0000 0.0000 31.2565 0.0000 0.0000
# 5 0.0000 0.0000 0.0000 0.0000 28.3068 0.0000
# 6 0.0000 0.0000 0.0000 0.0000 0.0000 21.0253
#
#
#
# Elastic Compliance Matrix: (Units=1/GPa)
#
#
# Indices 1 2 3 4 5 6 
#
# 1 0.017064 -0.000551 -0.004167 0.000000 0.000000 0.000000
# 2 -0.000551 0.012525 -0.002617 0.000000 0.000000 0.000000
# 3 -0.004167 -0.002617 0.007727 0.000000 0.000000 0.000000
# 4 0.000000 0.000000 0.000000 0.031993 0.000000 0.000000
# 5 0.000000 0.000000 0.000000 0.000000 0.035327 0.000000
# 6 0.000000 0.000000 0.000000 0.000000 0.000000 0.047562
#
#
# Mechanical properties :
#
#
# Convention : Reuss Voigt Hill
#
# Bulk Modulus (GPa) = 44.15791 55.38325 49.77058
# Shear Modulus (GPa) = 28.66708 31.57742 30.12225
#
# Velocity S-wave (km/s) = 3.53099 3.70589 3.61950
# Velocity P-wave (km/s) = 5.98573 6.51144 6.25411
#
# Compressibility (1/GPa) = 0.02264600
#
# Stress axis : x y z
#
# Youngs Moduli (GPa) = 58.60308 79.84189 129.42030
#
# Poissons Ratio (x) = 0.04397 0.53927
# Poissons Ratio (y) = 0.03228 0.33872
# Poissons Ratio (z) = 0.24419 0.20896
#
# Static dielectric constant tensor:
#      x y z
#    x 1.930560 0.000000 0.000000 
#    y 0.000000 1.930910 0.000000 
#    z 0.000000 0.000000 1.892140 
# 
# From -- ./inp_files/23247.got.cif
#   From: 2010.05.17/outbox.cif.g08.bks.cpg/sg56_12_cif.got.tgz:23247.got - 2010.06.03 13:42:01.
