data_PCOD9430632
_publ_section_title
;
Structure prediction by ZEFSAII (Michael W. Deem and Ramdas Pophale) SiO2 
 PCOD9430632
Probable space group: P C C N
;
_chemical_formula_sum "Si O2"
_cell_formula_units_Z 36
_cell_length_a 11.765222
_cell_length_b 15.501949
_cell_length_c 7.631200
_cell_angle_alpha 90.000000
_cell_angle_beta 90.000000
_cell_angle_gamma 90.000000
_cell_volume 1391.807800
_symmetry_space_group_name_H-M "P C C N"
_symmetry_group_IT_number 56
_symmetry_cell_setting 'orthorhombic'
loop_
_space_group_symop_operation_xyz
x,y,z
1/2-x,1/2-y,z
1/2+x,-y,1/2-z
-x,1/2+y,1/2-z
-x,-y,-z
1/2+x,1/2+y,-z
1/2-x,y,1/2+z
x,1/2-y,1/2+z
loop_
_atom_site_type_symbol
_atom_site_label
_atom_site_fract_x
_atom_site_fract_y
_atom_site_fract_z
Si Si1 0.546388 0.163349 0.262135
Si Si2 0.990585 0.087707 0.113538
Si Si3 0.741594 0.064245 0.106130
Si Si4 0.750000 0.250000 0.608623
Si Si5 0.091929 0.076660 0.475238
O O1 0.631531 0.242223 0.217353
O O2 0.446325 0.145019 0.122483
O O3 0.503907 0.340994 0.959750
O O4 0.636223 0.083170 0.235656
O O5 0.864633 0.068429 0.191036
O O6 0.071365 0.108203 0.276460
O O7 0.000000 0.000000 0.000000
O O8 0.712273 0.973749 0.015834
O O9 0.743586 0.158564 0.010015
O O10 0.000000 0.000000 0.500000
#
# Coordination Sequence:
#
# PCOD9430632 Si02
#       5
#     8   8   8   4   8
#     4   9  21  36  55  79 124 153 198 242 314 381
#     4  12  21  34  55  83 115 156 207 253 310 370
#     4   9  21  34  56  84 122 151 199 250 317 372
#     4   8  18  36  54  82 120 160 174 252 326 366
#     4  10  20  36  54  80 116 164 200 248 301 386
#
# _framework density 25.865639999999999
#
# number of rings (size 3 to 8) (size 9 to 14) (size 15 to 20)
#    1.333    0.889    4.444    0.000    6.222    0.889 
#    4.000    1.111    0.000    0.000    0.000    1.556 
#    0.000    0.000    0.000    0.000    0.000    0.000 
#
# Total GULP energy -200428.411240 kJ/mol
# GULP energy per Si atom -5567.455868 kJ/mol
# Density = 2.580677 g / cm^3
# Si number density = 25.865640 Si / 1000 Ang^3
#
#
#
# Elastic Constant Matrix: (Units=GPa)
#
#
# Indices 1 2 3 4 5 6 
#
# 1 60.9259 51.8473 42.0474 0.0000 0.0000 0.0000
# 2 51.8473 87.8845 72.6293 0.0000 0.0000 0.0000
# 3 42.0474 72.6293 199.4195 0.0000 0.0000 0.0000
# 4 0.0000 0.0000 0.0000 38.8725 0.0000 0.0000
# 5 0.0000 0.0000 0.0000 0.0000 33.6882 0.0000
# 6 0.0000 0.0000 0.0000 0.0000 0.0000 49.8516
#
#
#
# Elastic Compliance Matrix: (Units=1/GPa)
#
#
# Indices 1 2 3 4 5 6 
#
# 1 0.032966 -0.019605 0.000189 0.000000 0.000000 0.000000
# 2 -0.019605 0.027937 -0.006041 0.000000 0.000000 0.000000
# 3 0.000189 -0.006041 0.007175 0.000000 0.000000 0.000000
# 4 0.000000 0.000000 0.000000 0.025725 0.000000 0.000000
# 5 0.000000 0.000000 0.000000 0.000000 0.029684 0.000000
# 6 0.000000 0.000000 0.000000 0.000000 0.000000 0.020060
#
#
# Mechanical properties :
#
#
# Convention : Reuss Voigt Hill
#
# Bulk Modulus (GPa) = 58.25903 75.69752 66.97828
# Shear Modulus (GPa) = 24.97739 36.59619 30.78679
#
# Velocity S-wave (km/s) = 3.11088 3.76554 3.45375
# Velocity P-wave (km/s) = 5.95617 6.94514 6.46958
#
# Compressibility (1/GPa) = 0.01716472
#
# Stress axis : x y z
#
# Youngs Moduli (GPa) = 30.33410 35.79517 139.37633
#
# Poissons Ratio (x) = 0.70175 -0.02637
# Poissons Ratio (y) = 0.59469 0.84198
# Poissons Ratio (z) = -0.00574 0.21624
#
# Static dielectric constant tensor:
#      x y z
#    x 2.132340 0.000000 0.000000 
#    y 0.000000 2.165820 0.000000 
#    z 0.000000 0.000000 2.202500 
# 
# From -- ./inp_files/3186.got.cif
#   From: 2010.05.17/outbox.cif.g08.bks.cpg/sg56_2_cif.got.tgz:3186.got - 2010.06.03 13:42:01.
