data_PCOD9430429
_publ_section_title
;
Structure prediction by ZEFSAII (Michael W. Deem and Ramdas Pophale) SiO2 
 PCOD9430429
Probable space group: P C C N
;
_chemical_formula_sum "Si O2"
_cell_formula_units_Z 52
_cell_length_a 16.514116
_cell_length_b 7.743700
_cell_length_c 15.628685
_cell_angle_alpha 90.000000
_cell_angle_beta 90.000000
_cell_angle_gamma 90.000000
_cell_volume 1998.601865
_symmetry_space_group_name_H-M "P C C N"
_symmetry_group_IT_number 56
_symmetry_cell_setting 'orthorhombic'
loop_
_space_group_symop_operation_xyz
x,y,z
1/2-x,1/2-y,z
1/2+x,-y,1/2-z
-x,1/2+y,1/2-z
-x,-y,-z
1/2+x,1/2+y,-z
1/2-x,y,1/2+z
x,1/2-y,1/2+z
loop_
_atom_site_type_symbol
_atom_site_label
_atom_site_fract_x
_atom_site_fract_y
_atom_site_fract_z
Si Si1 0.939227 0.441889 0.576690
Si Si2 0.250000 0.750000 0.785271
Si Si3 0.799612 0.576632 0.458345
Si Si4 0.648941 0.064762 0.850057
Si Si5 0.415023 0.917552 0.985786
Si Si6 0.180892 0.395427 0.852391
Si Si7 0.577085 0.681431 0.811788
O O1 0.853379 0.525654 0.542681
O O2 0.917188 0.241241 0.576036
O O3 0.000000 0.500000 0.500000
O O4 0.994894 0.427641 0.663765
O O5 0.175982 0.822240 0.728557
O O6 0.221458 0.579533 0.832697
O O7 0.750000 0.750000 0.474994
O O8 0.730633 0.466456 0.408016
O O9 0.862180 0.607050 0.382362
O O10 0.597528 0.889872 0.827802
O O11 0.600812 0.166745 0.921767
O O12 0.361233 0.066049 0.943174
O O13 0.500000 0.000000 0.000000
O O14 0.250000 0.250000 0.841186
O O15 0.110570 0.355863 0.782998
#
# Coordination Sequence:
#
# PCOD9430429 Si02
#       7
#     8   4   8   8   8   8   8
#     4  10  22  43  72 115 160 215 275 337 421 513
#     4  12  24  46  84 118 158 204 274 338 420 494
#     4   9  18  36  74 114 152 207 266 337 410 496
#     4  11  21  42  79 109 155 211 270 342 416 502
#     4  12  28  51  74 115 163 214 274 341 428 514
#     4  12  27  53  81 122 163 210 276 352 415 502
#     4  10  19  44  75 107 159 209 267 337 425 483
#
# _framework density 26.018187000000001
#
# number of rings (size 3 to 8) (size 9 to 14) (size 15 to 20)
#    0.000    1.231    4.615    1.385    2.154    3.692 
#    5.538    0.000    0.000    0.000    0.000    1.077 
#    0.000    0.000    0.000    0.000    0.000    0.000 
#
# Total GULP energy -289746.345720 kJ/mol
# GULP energy per Si atom -5572.045110 kJ/mol
# Density = 2.595897 g / cm^3
# Si number density = 26.018187 Si / 1000 Ang^3
#
#
#
# Elastic Constant Matrix: (Units=GPa)
#
#
# Indices 1 2 3 4 5 6 
#
# 1 82.8183 56.8776 36.2864 0.0000 0.0000 0.0000
# 2 56.8776 114.3819 19.7780 0.0000 0.0000 0.0000
# 3 36.2864 19.7780 93.7495 0.0000 0.0000 0.0000
# 4 0.0000 0.0000 0.0000 29.2021 0.0000 0.0000
# 5 0.0000 0.0000 0.0000 0.0000 49.2788 0.0000
# 6 0.0000 0.0000 0.0000 0.0000 0.0000 46.4814
#
#
#
# Elastic Compliance Matrix: (Units=1/GPa)
#
#
# Indices 1 2 3 4 5 6 
#
# 1 0.021372 -0.009545 -0.006259 0.000000 0.000000 0.000000
# 2 -0.009545 0.013337 0.000881 0.000000 0.000000 0.000000
# 3 -0.006259 0.000881 0.012903 0.000000 0.000000 0.000000
# 4 0.000000 0.000000 0.000000 0.034244 0.000000 0.000000
# 5 0.000000 0.000000 0.000000 0.000000 0.020293 0.000000
# 6 0.000000 0.000000 0.000000 0.000000 0.000000 0.021514
#
#
# Mechanical properties :
#
#
# Convention : Reuss Voigt Hill
#
# Bulk Modulus (GPa) = 56.28568 57.42598 56.85583
# Shear Modulus (GPa) = 31.36143 36.85964 34.11053
#
# Velocity S-wave (km/s) = 3.47560 3.76797 3.62474
# Velocity P-wave (km/s) = 6.14708 6.40699 6.27838
#
# Compressibility (1/GPa) = 0.01776651
#
# Stress axis : x y z
#
# Youngs Moduli (GPa) = 46.78941 74.98005 77.49971
#
# Poissons Ratio (x) = 0.71572 0.48504
# Poissons Ratio (y) = 0.44663 -0.06828
# Poissons Ratio (z) = 0.29283 -0.06606
#
# Static dielectric constant tensor:
#      x y z
#    x 1.986400 0.000000 0.000000 
#    y 0.000000 2.011680 0.000000 
#    z 0.000000 0.000000 2.514260 
# 
# From -- ./inp_files/16593.got.cif
#   From: 2010.05.17/outbox.cif.g08.bks.cpg/sg56_9_cif.got.tgz:16593.got - 2010.06.03 13:42:01.
