data_PCOD9430224
_publ_section_title
;
Structure prediction by ZEFSAII (Michael W. Deem and Ramdas Pophale) SiO2 
 PCOD9430224
Probable space group: P C C N
;
_chemical_formula_sum "Si O2"
_cell_formula_units_Z 64
_cell_length_a 17.071478
_cell_length_b 21.175647
_cell_length_c 9.109507
_cell_angle_alpha 90.000000
_cell_angle_beta 90.000000
_cell_angle_gamma 90.000000
_cell_volume 3293.083063
_symmetry_space_group_name_H-M "P C C N"
_symmetry_group_IT_number 56
_symmetry_cell_setting 'orthorhombic'
loop_
_space_group_symop_operation_xyz
x,y,z
1/2-x,1/2-y,z
1/2+x,-y,1/2-z
-x,1/2+y,1/2-z
-x,-y,-z
1/2+x,1/2+y,-z
1/2-x,y,1/2+z
x,1/2-y,1/2+z
loop_
_atom_site_type_symbol
_atom_site_label
_atom_site_fract_x
_atom_site_fract_y
_atom_site_fract_z
Si Si1 0.896024 0.951537 0.799692
Si Si2 0.030669 0.483208 0.163280
Si Si3 0.853022 0.089014 0.206232
Si Si4 0.180959 0.300008 0.131144
Si Si5 0.501454 0.834829 0.374371
Si Si6 0.261134 0.962806 0.569372
Si Si7 0.927834 0.756610 0.123269
Si Si8 0.656047 0.578470 0.486853
O O1 0.874812 0.913767 0.650656
O O2 0.944519 0.898439 0.888698
O O3 0.819458 0.986588 0.856267
O O4 0.954934 0.009863 0.763571
O O5 0.089327 0.534066 0.233971
O O6 0.083542 0.422793 0.128493
O O7 0.000000 0.500000 0.000000
O O8 0.913510 0.145222 0.171778
O O9 0.782926 0.087464 0.326200
O O10 0.810319 0.069738 0.057235
O O11 0.250000 0.250000 0.143594
O O12 0.133193 0.298441 0.282570
O O13 0.211796 0.367837 0.077237
O O14 0.122643 0.279887 0.999844
O O15 0.534050 0.790617 0.242295
O O16 0.511147 0.797462 0.527425
O O17 0.194353 0.009506 0.507902
#
# Coordination Sequence:
#
# PCOD9430224 Si02
#       8
#     8   8   8   8   8   8   8   8
#     4  10  19  36  59  86 125 158 196 255 297 368
#     4   8  18  35  57  84 116 158 203 236 299 368
#     4  10  22  40  61  91 124 160 199 262 313 377
#     4  11  23  37  57  84 124 161 210 248 301 353
#     4  10  22  42  65  85 122 158 213 258 303 362
#     4  11  22  36  60  94 127 160 201 245 326 385
#     4  10  23  40  58  88 111 163 215 255 295 362
#     4  10  20  35  56  85 123 168 194 241 304 363
#
# _framework density 19.434676
#
# number of rings (size 3 to 8) (size 9 to 14) (size 15 to 20)
#    0.000    2.000    2.500    0.375    3.500    6.000 
#    0.000    2.500    0.000    2.250    0.000    0.000 
#    0.000    0.000    0.000    0.000    0.000    0.000 
#
# Total GULP energy -356331.412386 kJ/mol
# GULP energy per Si atom -5567.678319 kJ/mol
# Density = 1.939044 g / cm^3
# Si number density = 19.434676 Si / 1000 Ang^3
#
#
#
# Elastic Constant Matrix: (Units=GPa)
#
#
# Indices 1 2 3 4 5 6 
#
# 1 89.3038 26.0664 36.2705 0.0000 0.0000 0.0000
# 2 26.0664 39.8207 25.5663 0.0000 0.0000 0.0000
# 3 36.2705 25.5663 90.1459 0.0000 0.0000 0.0000
# 4 0.0000 0.0000 0.0000 -0.0062 0.0000 0.0000
# 5 0.0000 0.0000 0.0000 0.0000 32.1397 0.0000
# 6 0.0000 0.0000 0.0000 0.0000 0.0000 32.1145
#
#
#
# Elastic Compliance Matrix: (Units=1/GPa)
#
#
# Indices 1 2 3 4 5 6 
#
# 1 0.014911 -0.007224 -0.003951 0.000000 0.000000 0.000000
# 2 -0.007224 0.034203 -0.006794 0.000000 0.000000 0.000000
# 3 -0.003951 -0.006794 0.014609 0.000000 0.000000 0.000000
# 4 0.000000 0.000000 0.000000********** 0.000000 0.000000
# 5 0.000000 0.000000 0.000000 0.000000 0.031114 0.000000
# 6 0.000000 0.000000 0.000000 0.000000 0.000000 0.031139
#
#
# Mechanical properties :
#
#
# Convention : Reuss Voigt Hill
#
# Bulk Modulus (GPa) = 35.98857 43.89743 39.94300
# Shear Modulus (GPa) = -0.03105 21.60739 10.78817
#
# Velocity S-wave (km/s) = -0.12654 3.33798 2.35861
# Velocity P-wave (km/s) = 4.30541 6.12310 5.29287
#
# Compressibility (1/GPa) = 0.02778660
#
# Stress axis : x y z
#
# Youngs Moduli (GPa) = 67.06510 29.23695 68.44887
#
# Poissons Ratio (x) = 0.21121 0.27041
# Poissons Ratio (y) = 0.48449 0.46502
# Poissons Ratio (z) = 0.26495 0.19863
#
# Static dielectric constant tensor:
#      x y z
#    x 1.706920 0.000000 0.000000 
#    y 0.000000 1.720200 0.000000 
#    z 0.000000 0.000000 1.686800 
# 
# From -- ./inp_files/4212.got.cif
#   From: 2010.05.17/outbox.cif.g08.bks.cpg/sg56_3_cif.got.tgz:4212.got - 2010.06.03 13:42:01.
