data_PCOD9430622
_publ_section_title
;
Structure prediction by ZEFSAII (Michael W. Deem and Ramdas Pophale) SiO2 
 PCOD9430622
Probable space group: P C C N
;
_chemical_formula_sum "Si O2"
_cell_formula_units_Z 52
_cell_length_a 14.279435
_cell_length_b 9.547711
_cell_length_c 15.441885
_cell_angle_alpha 90.000000
_cell_angle_beta 90.000000
_cell_angle_gamma 90.000000
_cell_volume 2105.283577
_symmetry_space_group_name_H-M "P C C N"
_symmetry_group_IT_number 56
_symmetry_cell_setting 'orthorhombic'
loop_
_space_group_symop_operation_xyz
x,y,z
1/2-x,1/2-y,z
1/2+x,-y,1/2-z
-x,1/2+y,1/2-z
-x,-y,-z
1/2+x,1/2+y,-z
1/2-x,y,1/2+z
x,1/2-y,1/2+z
loop_
_atom_site_type_symbol
_atom_site_label
_atom_site_fract_x
_atom_site_fract_y
_atom_site_fract_z
Si Si1 0.250000 0.250000 0.339782
Si Si2 0.406997 0.759013 0.224542
Si Si3 0.265062 0.418462 0.544976
Si Si4 0.856763 0.309898 0.967033
Si Si5 0.478686 0.843544 0.394560
Si Si6 0.266153 0.972929 0.732695
Si Si7 0.102987 0.373960 0.442613
O O1 0.248046 0.389743 0.285976
O O2 0.150525 0.249030 0.390473
O O3 0.416502 0.766426 0.119578
O O4 0.486776 0.792629 0.295505
O O5 0.324132 0.872634 0.241221
O O6 0.359865 0.612610 0.250697
O O7 0.250000 0.250000 0.548893
O O8 0.354300 0.519822 0.531087
O O9 0.226816 0.476014 0.634656
O O10 0.196409 0.460758 0.467627
O O11 0.750000 0.250000 0.953631
O O12 0.897839 0.243359 0.054509
O O13 0.560053 0.827771 0.465842
O O14 0.459422 0.010915 0.395135
#
# Coordination Sequence:
#
# PCOD9430622 Si02
#       7
#     4   8   8   8   8   8   8
#     4  12  22  38  62  94 122 160 214 266 306 402
#     4  10  20  39  63  94 124 165 218 258 315 381
#     4  11  21  39  63  91 128 165 210 264 320 376
#     4  11  21  38  67  99 121 166 227 259 302 392
#     4  11  24  41  66  95 133 172 207 272 324 383
#     4  10  20  35  63  94 118 160 219 258 308 378
#     4  11  24  40  63  96 130 167 214 261 339 382
#
# _framework density 24.699760999999999
#
# number of rings (size 3 to 8) (size 9 to 14) (size 15 to 20)
#    0.000    1.231    7.692    0.000    4.308    0.000 
#    2.769    3.077    3.385    0.000    0.000    0.000 
#    0.000    0.000    0.000    0.000    0.000    0.000 
#
# Total GULP energy -290099.434586 kJ/mol
# GULP energy per Si atom -5578.835281 kJ/mol
# Density = 2.464354 g / cm^3
# Si number density = 24.699761 Si / 1000 Ang^3
#
#
#
# Elastic Constant Matrix: (Units=GPa)
#
#
# Indices 1 2 3 4 5 6 
#
# 1 25.3477 15.1107 -5.3817 0.0000 0.0000 0.0000
# 2 15.1107 152.2695 10.1826 0.0000 0.0000 0.0000
# 3 -5.3817 10.1826 88.5254 0.0000 0.0000 0.0000
# 4 0.0000 0.0000 0.0000 25.3523 0.0000 0.0000
# 5 0.0000 0.0000 0.0000 0.0000 14.8780 0.0000
# 6 0.0000 0.0000 0.0000 0.0000 0.0000 22.3947
#
#
#
# Elastic Compliance Matrix: (Units=1/GPa)
#
#
# Indices 1 2 3 4 5 6 
#
# 1 0.042766 -0.004452 0.003112 0.000000 0.000000 0.000000
# 2 -0.004452 0.007082 -0.001085 0.000000 0.000000 0.000000
# 3 0.003112 -0.001085 0.011610 0.000000 0.000000 0.000000
# 4 0.000000 0.000000 0.000000 0.039444 0.000000 0.000000
# 5 0.000000 0.000000 0.000000 0.000000 0.067213 0.000000
# 6 0.000000 0.000000 0.000000 0.000000 0.000000 0.044653
#
#
# Mechanical properties :
#
#
# Convention : Reuss Voigt Hill
#
# Bulk Modulus (GPa) = 17.66555 33.99619 25.83087
# Shear Modulus (GPa) = 21.14268 28.94040 25.04154
#
# Velocity S-wave (km/s) = 2.92890 3.42671 3.18754
# Velocity P-wave (km/s) = 4.31342 5.42679 4.90182
#
# Compressibility (1/GPa) = 0.05660735
#
# Stress axis : x y z
#
# Youngs Moduli (GPa) = 23.38303 141.20945 86.13107
#
# Poissons Ratio (x) = 0.62867 -0.26804
# Poissons Ratio (y) = 0.10410 0.09347
# Poissons Ratio (z) = -0.07277 0.15324
#
# Static dielectric constant tensor:
#      x y z
#    x 2.054250 0.000000 0.000000 
#    y 0.000000 1.999350 0.000000 
#    z 0.000000 0.000000 2.009630 
# 
# From -- ./inp_files/16615.got.cif
#   From: 2010.05.17/outbox.cif.g08.bks.cpg/sg56_9_cif.got.tgz:16615.got - 2010.06.03 13:42:01.
