data_PCOD9430014
_publ_section_title
;
Structure prediction by ZEFSAII (Michael W. Deem and Ramdas Pophale) SiO2 
 PCOD9430014
Probable space group: P C C N
;
_chemical_formula_sum "Si O2"
_cell_formula_units_Z 64
_cell_length_a 26.062411
_cell_length_b 26.062439
_cell_length_c 4.992171
_cell_angle_alpha 90.000000
_cell_angle_beta 90.000000
_cell_angle_gamma 90.000000
_cell_volume 3390.932136
_symmetry_space_group_name_H-M "P C C N"
_symmetry_group_IT_number 56
_symmetry_cell_setting 'orthorhombic'
loop_
_space_group_symop_operation_xyz
x,y,z
1/2-x,1/2-y,z
1/2+x,-y,1/2-z
-x,1/2+y,1/2-z
-x,-y,-z
1/2+x,1/2+y,-z
1/2-x,y,1/2+z
x,1/2-y,1/2+z
loop_
_atom_site_type_symbol
_atom_site_label
_atom_site_fract_x
_atom_site_fract_y
_atom_site_fract_z
Si Si1 0.534776 0.619276 0.670393
Si Si2 0.510889 0.217407 0.015814
Si Si3 0.786066 0.371007 0.062096
Si Si4 0.782593 0.010889 0.484186
Si Si5 0.128993 0.786066 0.562095
Si Si6 0.511266 0.073693 0.321806
Si Si7 0.073693 0.988734 0.821806
Si Si8 0.880724 0.534776 0.170394
O O1 0.531843 0.677743 0.582581
O O2 0.490571 0.595150 0.476171
O O3 0.586049 0.586049 0.615714
O O4 0.520698 0.610579 0.979460
O O5 0.506870 0.233033 0.324093
O O6 0.569226 0.197740 0.965794
O O7 0.739539 0.363140 0.851394
O O8 0.802260 0.430774 0.034206
O O9 0.831955 0.331955 0.000000
O O10 0.733032 0.006871 0.675906
O O11 0.822257 0.968158 0.582581
O O12 0.136860 0.760461 0.851393
O O13 0.560914 0.060914 0.500000
O O14 0.478730 0.021270 0.294515
O O15 0.095150 0.990571 0.523828
O O16 0.110579 0.020698 0.020540
#
# Coordination Sequence:
#
# PCOD9430014 Si02
#       8
#     8   8   8   8   8   8   8   8
#     4  10  19  32  51  73  97 129 169 205 238 295
#     4  10  21  37  52  71 102 133 160 200 256 305
#     4  10  21  35  51  71  94 125 166 210 255 294
#     4  10  21  37  52  71 102 133 160 200 256 305
#     4  10  21  35  51  71  94 125 166 210 255 294
#     4   9  17  28  43  68 100 128 157 197 240 278
#     4   9  17  28  43  68 100 128 157 197 240 278
#     4  10  19  32  51  73  97 129 169 205 238 295
#
# _framework density 18.873864999999999
#
# number of rings (size 3 to 8) (size 9 to 14) (size 15 to 20)
#    0.000    2.250    0.000    3.000    0.000    6.500 
#    0.000    0.000    0.000    0.000    0.000    0.000 
#    0.000    3.000    0.000    0.000    0.000    0.000 
#
# Total GULP energy -356667.850694 kJ/mol
# GULP energy per Si atom -5572.935167 kJ/mol
# Density = 1.883091 g / cm^3
# Si number density = 18.873865 Si / 1000 Ang^3
#
#
#
# Elastic Constant Matrix: (Units=GPa)
#
#
# Indices 1 2 3 4 5 6 
#
# 1 52.0735 40.1847 -5.0847 0.0000 0.0000 0.0000
# 2 40.1847 52.0739 -5.0848 0.0000 0.0000 0.0000
# 3 -5.0847 -5.0848 77.1829 0.0000 0.0000 0.0000
# 4 0.0000 0.0000 0.0000 12.9561 0.0000 0.0000
# 5 0.0000 0.0000 0.0000 0.0000 12.9561 0.0000
# 6 0.0000 0.0000 0.0000 0.0000 0.0000 31.2335
#
#
#
# Elastic Compliance Matrix: (Units=1/GPa)
#
#
# Indices 1 2 3 4 5 6 
#
# 1 0.047515 -0.036596 0.000719 0.000000 0.000000 0.000000
# 2 -0.036596 0.047515 0.000719 0.000000 0.000000 0.000000
# 3 0.000719 0.000719 0.013051 0.000000 0.000000 0.000000
# 4 0.000000 0.000000 0.000000 0.077184 0.000000 0.000000
# 5 0.000000 0.000000 0.000000 0.000000 0.077184 0.000000
# 6 0.000000 0.000000 0.000000 0.000000 0.000000 0.032017
#
#
# Mechanical properties :
#
#
# Convention : Reuss Voigt Hill
#
# Bulk Modulus (GPa) = 26.47954 26.81786 26.64870
# Shear Modulus (GPa) = 13.24961 21.51680 17.38321
#
# Velocity S-wave (km/s) = 2.65242 3.38010 3.03812
# Velocity P-wave (km/s) = 4.84155 5.42893 5.14363
#
# Compressibility (1/GPa) = 0.03776500
#
# Stress axis : x y z
#
# Youngs Moduli (GPa) = 21.04595 21.04612 76.62239
#
# Poissons Ratio (x) = 0.77021 -0.05511
# Poissons Ratio (y) = 0.77021 -0.05512
# Poissons Ratio (z) = -0.01514 -0.01514
#
# Static dielectric constant tensor:
#      x y z
#    x 1.698210 0.000000 0.000000 
#    y 0.000000 1.698210 0.000000 
#    z 0.000000 0.000000 1.658670 
# 
# From -- ./inp_files/1127.got.cif
#   From: 2010.05.17/outbox.cif.g08.bks.cpg/sg56_1_cif.got.tgz:1127.got - 2010.06.03 13:42:01.
