data_PCOD9430759
_publ_section_title
;
Structure prediction by ZEFSAII (Michael W. Deem and Ramdas Pophale) SiO2 
 PCOD9430759
Probable space group: P C C N
;
_chemical_formula_sum "Si O2"
_cell_formula_units_Z 40
_cell_length_a 6.931393
_cell_length_b 16.006920
_cell_length_c 15.205833
_cell_angle_alpha 90.000000
_cell_angle_beta 90.000000
_cell_angle_gamma 90.000000
_cell_volume 1687.091022
_symmetry_space_group_name_H-M "P C C N"
_symmetry_group_IT_number 56
_symmetry_cell_setting 'orthorhombic'
loop_
_space_group_symop_operation_xyz
x,y,z
1/2-x,1/2-y,z
1/2+x,-y,1/2-z
-x,1/2+y,1/2-z
-x,-y,-z
1/2+x,1/2+y,-z
1/2-x,y,1/2+z
x,1/2-y,1/2+z
loop_
_atom_site_type_symbol
_atom_site_label
_atom_site_fract_x
_atom_site_fract_y
_atom_site_fract_z
Si Si1 0.949756 0.369331 0.090760
Si Si2 0.074760 0.190236 0.415472
Si Si3 0.166135 0.443809 0.659263
Si Si4 0.702536 0.975270 0.645366
Si Si5 0.977334 0.727087 0.274891
O O1 0.166307 0.408459 0.097780
O O2 0.929560 0.300004 0.167313
O O3 0.809213 0.445892 0.104308
O O4 0.935900 0.326889 0.996381
O O5 0.250000 0.250000 0.444446
O O6 0.185788 0.106040 0.386833
O O7 0.971589 0.223677 0.327606
O O8 0.271120 0.473770 0.748627
O O9 0.026990 0.365355 0.683827
O O10 0.024573 0.516019 0.625441
O O11 0.750000 0.750000 0.273652
#
# Coordination Sequence:
#
# PCOD9430759 Si02
#       5
#     8   8   8   8   8
#     4  11  21  40  67  88 127 171 207 267 319 369
#     4  10  21  38  62  94 125 168 215 259 320 387
#     4  10  20  37  60  90 124 167 208 251 320 373
#     4  11  22  37  64  94 126 165 218 258 314 384
#     4   8  18  36  61  87 119 165 207 251 316 380
#
# _framework density 23.70945
#
# number of rings (size 3 to 8) (size 9 to 14) (size 15 to 20)
#    0.000    2.000    2.000    3.600    0.000    1.600 
#    0.000    0.000    0.000    8.400    0.000    0.000 
#    0.000    0.000    0.000    0.000    0.000    0.000 
#
# Total GULP energy -223850.403770 kJ/mol
# GULP energy per Si atom -5596.260094 kJ/mol
# Density = 2.365549 g / cm^3
# Si number density = 23.709450 Si / 1000 Ang^3
#
#
#
# Elastic Constant Matrix: (Units=GPa)
#
#
# Indices 1 2 3 4 5 6 
#
# 1 69.6791 27.2095 4.6673 0.0000 0.0000 0.0000
# 2 27.2095 70.3372 23.8187 0.0000 0.0000 0.0000
# 3 4.6673 23.8187 95.8827 0.0000 0.0000 0.0000
# 4 0.0000 0.0000 0.0000 27.7384 0.0000 0.0000
# 5 0.0000 0.0000 0.0000 0.0000 0.6270 0.0000
# 6 0.0000 0.0000 0.0000 0.0000 0.0000 31.8906
#
#
#
# Elastic Compliance Matrix: (Units=1/GPa)
#
#
# Indices 1 2 3 4 5 6 
#
# 1 0.016973 -0.006863 0.000879 0.000000 0.000000 0.000000
# 2 -0.006863 0.018298 -0.004212 0.000000 0.000000 0.000000
# 3 0.000879 -0.004212 0.011433 0.000000 0.000000 0.000000
# 4 0.000000 0.000000 0.000000 0.036051 0.000000 0.000000
# 5 0.000000 0.000000 0.000000 0.000000 1.594867 0.000000
# 6 0.000000 0.000000 0.000000 0.000000 0.000000 0.031357
#
#
# Mechanical properties :
#
#
# Convention : Reuss Voigt Hill
#
# Bulk Modulus (GPa) = 38.00576 38.58778 38.29677
# Shear Modulus (GPa) = 2.87663 24.06474 13.47069
#
# Velocity S-wave (km/s) = 1.10269 3.18934 2.38619
# Velocity P-wave (km/s) = 4.20545 5.46563 4.87642
#
# Compressibility (1/GPa) = 0.02631180
#
# Stress axis : x y z
#
# Youngs Moduli (GPa) = 58.91784 54.64935 87.46731
#
# Poissons Ratio (x) = 0.37508 -0.07686
# Poissons Ratio (y) = 0.40438 0.36837
# Poissons Ratio (z) = -0.05178 0.23016
#
# Static dielectric constant tensor:
#      x y z
#    x 1.885190 0.000000 0.000000 
#    y 0.000000 1.924150 0.000000 
#    z 0.000000 0.000000 1.908270 
# 
# From -- ./inp_files/10389.got.cif
#   From: 2010.05.17/outbox.cif.g08.bks.cpg/sg56_6_cif.got.tgz:10389.got - 2010.06.03 13:42:01.
