data_PCOD9430831
_publ_section_title
;
Structure prediction by ZEFSAII (Michael W. Deem and Ramdas Pophale) SiO2 
 PCOD9430831
Probable space group: P C C N
;
_chemical_formula_sum "Si O2"
_cell_formula_units_Z 48
_cell_length_a 16.787224
_cell_length_b 8.513512
_cell_length_c 18.823656
_cell_angle_alpha 90.000000
_cell_angle_beta 90.000000
_cell_angle_gamma 90.000000
_cell_volume 2690.243654
_symmetry_space_group_name_H-M "P C C N"
_symmetry_group_IT_number 56
_symmetry_cell_setting 'orthorhombic'
loop_
_space_group_symop_operation_xyz
x,y,z
1/2-x,1/2-y,z
1/2+x,-y,1/2-z
-x,1/2+y,1/2-z
-x,-y,-z
1/2+x,1/2+y,-z
1/2-x,y,1/2+z
x,1/2-y,1/2+z
loop_
_atom_site_type_symbol
_atom_site_label
_atom_site_fract_x
_atom_site_fract_y
_atom_site_fract_z
Si Si1 0.033157 0.877828 0.164891
Si Si2 0.020475 0.729234 0.319097
Si Si3 0.663919 0.174356 0.581258
Si Si4 0.059408 0.412019 0.055555
Si Si5 0.157529 0.793850 0.569710
Si Si6 0.072400 0.107796 0.965515
O O1 0.111320 0.817287 0.124415
O O2 0.023408 0.793119 0.239800
O O3 0.963360 0.834833 0.109288
O O4 0.027699 0.065485 0.175243
O O5 0.984890 0.856425 0.373257
O O6 0.107959 0.693450 0.350852
O O7 0.750000 0.250000 0.594334
O O8 0.631077 0.263443 0.511733
O O9 0.649907 0.996302 0.553347
O O10 0.130132 0.527671 0.079743
O O11 0.087720 0.253471 0.016413
O O12 0.000000 0.500000 0.000000
O O13 0.250000 0.750000 0.572883
O O14 0.000000 0.000000 0.000000
#
# Coordination Sequence:
#
# PCOD9430831 Si02
#       6
#     8   8   8   8   8   8
#     4  11  21  37  58  89 122 154 203 249 297 352
#     4  11  22  36  61  88 117 158 204 248 294 358
#     4  10  20  38  59  84 123 156 194 246 304 354
#     4  12  19  36  66  90 113 157 203 250 292 353
#     4  11  22  37  59  87 123 156 199 243 303 360
#     4  11  18  38  63  90 115 154 201 255 288 349
#
# _framework density 17.84225
#
# number of rings (size 3 to 8) (size 9 to 14) (size 15 to 20)
#    0.000    1.000    8.333    1.000    0.000    0.667 
#    0.000    7.500    0.000    0.000    0.000    0.000 
#    0.000    0.000    0.000    0.000    0.000    0.000 
#
# Total GULP energy -267525.942655 kJ/mol
# GULP energy per Si atom -5573.457139 kJ/mol
# Density = 1.780164 g / cm^3
# Si number density = 17.842250 Si / 1000 Ang^3
#
#
#
# Elastic Constant Matrix: (Units=GPa)
#
#
# Indices 1 2 3 4 5 6 
#
# 1 88.7277 68.9477 33.6698 0.0000 0.0000 0.0000
# 2 68.9477 106.7336 39.5581 0.0000 0.0000 0.0000
# 3 33.6698 39.5581 128.4836 0.0000 0.0000 0.0000
# 4 0.0000 0.0000 0.0000 41.1846 0.0000 0.0000
# 5 0.0000 0.0000 0.0000 0.0000 17.5129 0.0000
# 6 0.0000 0.0000 0.0000 0.0000 0.0000 23.1842
#
#
#
# Elastic Compliance Matrix: (Units=1/GPa)
#
#
# Indices 1 2 3 4 5 6 
#
# 1 0.022930 -0.014207 -0.001635 0.000000 0.000000 0.000000
# 2 -0.014207 0.019378 -0.002243 0.000000 0.000000 0.000000
# 3 -0.001635 -0.002243 0.008902 0.000000 0.000000 0.000000
# 4 0.000000 0.000000 0.000000 0.024281 0.000000 0.000000
# 5 0.000000 0.000000 0.000000 0.000000 0.057101 0.000000
# 6 0.000000 0.000000 0.000000 0.000000 0.000000 0.043133
#
#
# Mechanical properties :
#
#
# Convention : Reuss Voigt Hill
#
# Bulk Modulus (GPa) = 66.48639 67.58846 67.03742
# Shear Modulus (GPa) = 23.05125 28.49428 25.77277
#
# Velocity S-wave (km/s) = 3.59827 4.00060 3.80475
# Velocity P-wave (km/s) = 7.38970 7.70085 7.54688
#
# Compressibility (1/GPa) = 0.01504067
#
# Stress axis : x y z
#
# Youngs Moduli (GPa) = 43.61021 51.60584 112.33170
#
# Poissons Ratio (x) = 0.73314 0.18367
# Poissons Ratio (y) = 0.61955 0.25198
# Poissons Ratio (z) = 0.07130 0.11576
#
# Static dielectric constant tensor:
#      x y z
#    x 1.618030 0.000000 0.000000 
#    y 0.000000 1.673280 0.000000 
#    z 0.000000 0.000000 1.599320 
# 
# From -- ./inp_files/14954.got.cif
#   From: 2010.05.17/outbox.cif.g08.bks.cpg/sg56_8_cif.got.tgz:14954.got - 2010.06.03 13:42:01.
