data_PCOD9430384
_publ_section_title
;
Structure prediction by ZEFSAII (Michael W. Deem and Ramdas Pophale) SiO2 
 PCOD9430384
Probable space group: P C C N
;
_chemical_formula_sum "Si O2"
_cell_formula_units_Z 60
_cell_length_a 17.377778
_cell_length_b 8.426382
_cell_length_c 19.664139
_cell_angle_alpha 90.000000
_cell_angle_beta 90.000000
_cell_angle_gamma 90.000000
_cell_volume 2879.455185
_symmetry_space_group_name_H-M "P C C N"
_symmetry_group_IT_number 56
_symmetry_cell_setting 'orthorhombic'
loop_
_space_group_symop_operation_xyz
x,y,z
1/2-x,1/2-y,z
1/2+x,-y,1/2-z
-x,1/2+y,1/2-z
-x,-y,-z
1/2+x,1/2+y,-z
1/2-x,y,1/2+z
x,1/2-y,1/2+z
loop_
_atom_site_type_symbol
_atom_site_label
_atom_site_fract_x
_atom_site_fract_y
_atom_site_fract_z
Si Si1 0.009158 0.149203 0.552747
Si Si2 0.840827 0.235610 0.740786
Si Si3 0.918722 0.705727 0.568808
Si Si4 0.250000 0.250000 0.252238
Si Si5 0.419945 0.259237 0.691930
Si Si6 0.137307 0.946280 0.384900
Si Si7 0.026293 0.893018 0.187228
Si Si8 0.198544 0.991625 0.862196
O O1 0.050761 0.279723 0.507141
O O2 0.057981 0.144000 0.622971
O O3 0.921703 0.169864 0.577489
O O4 0.000000 0.000000 0.500000
O O5 0.750000 0.250000 0.758309
O O6 0.867346 0.083692 0.695870
O O7 0.899156 0.220563 0.801925
O O8 0.850068 0.372636 0.684610
O O9 0.851262 0.583290 0.583494
O O10 0.987788 0.654227 0.616863
O O11 0.887080 0.876540 0.594925
O O12 0.171452 0.245236 0.208055
O O13 0.265981 0.108244 0.305112
O O14 0.464666 0.345748 0.753973
O O15 0.452350 0.079176 0.686737
O O16 0.226849 0.918623 0.398299
#
# Coordination Sequence:
#
# PCOD9430384 Si02
#       8
#     8   8   8   4   8   8   8   8
#     4  10  25  43  65  94 134 184 220 270 342 418
#     4  10  21  35  63  95 129 163 217 278 345 390
#     4  11  22  39  66  92 129 177 221 272 329 409
#     4  12  24  40  66 100 142 162 226 292 338 396
#     4  12  26  43  68 102 135 174 228 283 348 402
#     4  10  19  40  60  89 127 167 221 272 329 400
#     4  12  23  41  70 100 133 173 230 288 334 404
#     4  11  20  37  65  98 124 174 226 284 333 400
#
# _framework density 20.837275000000002
#
# number of rings (size 3 to 8) (size 9 to 14) (size 15 to 20)
#    0.000    1.067    4.000    3.200    1.867    0.533 
#    4.800    0.000    0.000    0.000    0.000    0.000 
#    0.000    0.000    0.000    0.000    0.000    0.000 
#
# Total GULP energy -334634.088726 kJ/mol
# GULP energy per Si atom -5577.234812 kJ/mol
# Density = 2.078985 g / cm^3
# Si number density = 20.837275 Si / 1000 Ang^3
#
#
#
# Elastic Constant Matrix: (Units=GPa)
#
#
# Indices 1 2 3 4 5 6 
#
# 1 150.4445 29.4281 44.5940 0.0000 0.0000 0.0000
# 2 29.4281 61.1234 -1.3801 0.0000 0.0000 0.0000
# 3 44.5940 -1.3801 79.3984 0.0000 0.0000 0.0000
# 4 0.0000 0.0000 0.0000 20.9760 0.0000 0.0000
# 5 0.0000 0.0000 0.0000 0.0000 24.5759 0.0000
# 6 0.0000 0.0000 0.0000 0.0000 0.0000 25.9519
#
#
#
# Elastic Compliance Matrix: (Units=1/GPa)
#
#
# Indices 1 2 3 4 5 6 
#
# 1 0.009052 -0.004475 -0.005162 0.000000 0.000000 0.000000
# 2 -0.004475 0.018579 0.002836 0.000000 0.000000 0.000000
# 3 -0.005162 0.002836 0.015543 0.000000 0.000000 0.000000
# 4 0.000000 0.000000 0.000000 0.047674 0.000000 0.000000
# 5 0.000000 0.000000 0.000000 0.000000 0.040690 0.000000
# 6 0.000000 0.000000 0.000000 0.000000 0.000000 0.038533
#
#
# Mechanical properties :
#
#
# Convention : Reuss Voigt Hill
#
# Bulk Modulus (GPa) = 33.81449 48.47225 41.14337
# Shear Modulus (GPa) = 25.83577 28.85571 27.34574
#
# Velocity S-wave (km/s) = 3.52502 3.72534 3.62656
# Velocity P-wave (km/s) = 5.72981 6.46661 6.10933
#
# Compressibility (1/GPa) = 0.02957312
#
# Stress axis : x y z
#
# Youngs Moduli (GPa) = 110.46801 53.82477 64.33651
#
# Poissons Ratio (x) = 0.24086 0.33211
# Poissons Ratio (y) = 0.49433 -0.18247
# Poissons Ratio (z) = 0.57024 -0.15266
#
# Static dielectric constant tensor:
#      x y z
#    x 1.810430 0.000000 0.000000 
#    y 0.000000 1.864840 0.000000 
#    z 0.000000 0.000000 1.725860 
# 
# From -- ./inp_files/16664.got.cif
#   From: 2010.05.17/outbox.cif.g08.bks.cpg/sg56_9_cif.got.tgz:16664.got - 2010.06.03 13:42:01.
