data_PCOD9430232
_publ_section_title
;
Structure prediction by ZEFSAII (Michael W. Deem and Ramdas Pophale) SiO2 
 PCOD9430232
Probable space group: P C C N
;
_chemical_formula_sum "Si O2"
_cell_formula_units_Z 60
_cell_length_a 13.069890
_cell_length_b 9.084572
_cell_length_c 23.163333
_cell_angle_alpha 90.000000
_cell_angle_beta 90.000000
_cell_angle_gamma 90.000000
_cell_volume 2750.283444
_symmetry_space_group_name_H-M "P C C N"
_symmetry_group_IT_number 56
_symmetry_cell_setting 'orthorhombic'
loop_
_space_group_symop_operation_xyz
x,y,z
1/2-x,1/2-y,z
1/2+x,-y,1/2-z
-x,1/2+y,1/2-z
-x,-y,-z
1/2+x,1/2+y,-z
1/2-x,y,1/2+z
x,1/2-y,1/2+z
loop_
_atom_site_type_symbol
_atom_site_label
_atom_site_fract_x
_atom_site_fract_y
_atom_site_fract_z
Si Si1 0.750000 0.250000 0.662039
Si Si2 0.053901 0.985659 0.060359
Si Si3 0.176961 0.477510 0.153586
Si Si4 0.696633 0.528888 0.591756
Si Si5 0.103654 0.145094 0.164578
Si Si6 0.718371 0.080064 0.968224
Si Si7 0.595384 0.681274 0.130417
Si Si8 0.416180 0.556682 0.771714
O O1 0.695561 0.372989 0.623244
O O2 0.834326 0.335051 0.699063
O O3 0.035347 0.110195 0.108074
O O4 0.172435 0.992470 0.045616
O O5 0.008597 0.846324 0.094790
O O6 0.000000 0.000000 0.000000
O O7 0.142546 0.308316 0.155573
O O8 0.299299 0.465736 0.166988
O O9 0.159561 0.552869 0.091727
O O10 0.115491 0.548908 0.205609
O O11 0.672165 0.497914 0.524620
O O12 0.812815 0.592695 0.597324
O O13 0.628428 0.649696 0.624807
O O14 0.029712 0.117516 0.218055
O O15 0.750000 0.250000 0.979225
O O16 0.590313 0.599683 0.192796
#
# Coordination Sequence:
#
# PCOD9430232 Si02
#       8
#     4   8   8   8   8   8   8   8
#     4  10  22  38  60  90 130 172 212 276 330 378
#     4  10  19  37  64  89 124 163 209 261 319 398
#     4  10  23  42  66  93 128 171 219 274 332 404
#     4  10  19  36  60  91 126 162 212 263 325 384
#     4   9  22  41  65  95 124 167 221 271 332 395
#     4  11  23  38  59  90 135 170 206 265 333 389
#     4   9  20  36  64  92 114 166 219 261 316 387
#     4  10  22  43  65  92 129 169 220 276 331 397
#
# _framework density 21.815935
#
# number of rings (size 3 to 8) (size 9 to 14) (size 15 to 20)
#    0.000    2.133    2.000    0.000    2.800    6.400 
#    7.200    0.667    0.000    0.000    0.000    0.000 
#    0.000    0.000    0.000    0.000    0.000    0.000 
#
# Total GULP energy -334884.270534 kJ/mol
# GULP energy per Si atom -5581.404509 kJ/mol
# Density = 2.176628 g / cm^3
# Si number density = 21.815935 Si / 1000 Ang^3
#
#
#
# Elastic Constant Matrix: (Units=GPa)
#
#
# Indices 1 2 3 4 5 6 
#
# 1 40.6743 9.8473 16.1934 0.0000 0.0000 0.0000
# 2 9.8473 98.3967 32.6437 0.0000 0.0000 0.0000
# 3 16.1934 32.6437 107.7973 0.0000 0.0000 0.0000
# 4 0.0000 0.0000 0.0000 15.7654 0.0000 0.0000
# 5 0.0000 0.0000 0.0000 0.0000 44.9999 0.0000
# 6 0.0000 0.0000 0.0000 0.0000 0.0000 26.9201
#
#
#
# Elastic Compliance Matrix: (Units=1/GPa)
#
#
# Indices 1 2 3 4 5 6 
#
# 1 0.026340 -0.001471 -0.003511 0.000000 0.000000 0.000000
# 2 -0.001471 0.011380 -0.003225 0.000000 0.000000 0.000000
# 3 -0.003511 -0.003225 0.010781 0.000000 0.000000 0.000000
# 4 0.000000 0.000000 0.000000 0.063430 0.000000 0.000000
# 5 0.000000 0.000000 0.000000 0.000000 0.022222 0.000000
# 6 0.000000 0.000000 0.000000 0.000000 0.000000 0.037147
#
#
# Mechanical properties :
#
#
# Convention : Reuss Voigt Hill
#
# Bulk Modulus (GPa) = 31.16680 40.47079 35.81880
# Shear Modulus (GPa) = 25.20033 30.08269 27.64151
#
# Velocity S-wave (km/s) = 3.40241 3.71743 3.56340
# Velocity P-wave (km/s) = 5.45458 6.08416 5.77795
#
# Compressibility (1/GPa) = 0.03208542
#
# Stress axis : x y z
#
# Youngs Moduli (GPa) = 37.96557 87.87230 92.75742
#
# Poissons Ratio (x) = 0.12927 0.32570
# Poissons Ratio (y) = 0.05585 0.29916
# Poissons Ratio (z) = 0.13331 0.28341
#
# Static dielectric constant tensor:
#      x y z
#    x 1.840170 0.000000 0.000000 
#    y 0.000000 1.816020 0.000000 
#    z 0.000000 0.000000 1.800120 
# 
# From -- ./inp_files/21140.got.cif
#   From: 2010.05.17/outbox.cif.g08.bks.cpg/sg56_11_cif.got.tgz:21140.got - 2010.06.03 13:42:01.
