data_PCOD9430819
_publ_section_title
;
Structure prediction by ZEFSAII (Michael W. Deem and Ramdas Pophale) SiO2 
 PCOD9430819
Probable space group: P C C N
;
_chemical_formula_sum "Si O2"
_cell_formula_units_Z 48
_cell_length_a 9.978950
_cell_length_b 19.699735
_cell_length_c 10.483039
_cell_angle_alpha 90.000000
_cell_angle_beta 90.000000
_cell_angle_gamma 90.000000
_cell_volume 2060.783802
_symmetry_space_group_name_H-M "P C C N"
_symmetry_group_IT_number 56
_symmetry_cell_setting 'orthorhombic'
loop_
_space_group_symop_operation_xyz
x,y,z
1/2-x,1/2-y,z
1/2+x,-y,1/2-z
-x,1/2+y,1/2-z
-x,-y,-z
1/2+x,1/2+y,-z
1/2-x,y,1/2+z
x,1/2-y,1/2+z
loop_
_atom_site_type_symbol
_atom_site_label
_atom_site_fract_x
_atom_site_fract_y
_atom_site_fract_z
Si Si1 0.157481 0.958808 0.740662
Si Si2 0.544821 0.078165 0.254473
Si Si3 0.892769 0.146779 0.488256
Si Si4 0.669859 0.678960 0.597862
Si Si5 0.821166 0.676844 0.370852
Si Si6 0.094228 0.857387 0.973817
O O1 0.317410 0.964747 0.740701
O O2 0.120774 0.915176 0.613675
O O3 0.118804 0.917494 0.870074
O O4 0.078223 0.028172 0.740485
O O5 0.559896 0.124806 0.129296
O O6 0.542154 0.118295 0.388104
O O7 0.741416 0.173684 0.503233
O O8 0.013262 0.190351 0.428883
O O9 0.750000 0.750000 0.604184
O O10 0.739867 0.639578 0.482095
O O11 0.685305 0.643555 0.733157
O O12 0.750000 0.750000 0.358752
O O13 0.975406 0.685061 0.409729
#
# Coordination Sequence:
#
# PCOD9430819 Si02
#       6
#     8   8   8   8   8   8
#     4  10  20  38  57  89 127 167 212 258 305 376
#     4  10  22  34  59  91 125 167 210 252 315 374
#     4  10  21  39  62  89 127 169 210 259 315 376
#     4  10  22  41  64  91 121 156 207 264 317 377
#     4  10  22  41  64  91 121 156 207 264 317 377
#     4  10  21  39  62  89 127 169 210 259 315 376
#
# _framework density 23.292109
#
# number of rings (size 3 to 8) (size 9 to 14) (size 15 to 20)
#    0.000    2.000    1.667    1.000    2.333    2.667 
#    0.000    3.333    0.000   10.000    0.000    0.000 
#    0.000    0.000    0.000    0.000    0.000    0.000 
#
# Total GULP energy -268133.507155 kJ/mol
# GULP energy per Si atom -5586.114732 kJ/mol
# Density = 2.323910 g / cm^3
# Si number density = 23.292109 Si / 1000 Ang^3
#
#
#
# Elastic Constant Matrix: (Units=GPa)
#
#
# Indices 1 2 3 4 5 6 
#
# 1 165.4232 22.6273 7.6563 0.0000 0.0000 0.0000
# 2 22.6273 32.1687 -11.1629 0.0000 0.0000 0.0000
# 3 7.6563 -11.1629 164.3158 0.0000 0.0000 0.0000
# 4 0.0000 0.0000 0.0000 -0.1306 0.0000 0.0000
# 5 0.0000 0.0000 0.0000 0.0000 79.1219 0.0000
# 6 0.0000 0.0000 0.0000 0.0000 0.0000 36.5756
#
#
#
# Elastic Compliance Matrix: (Units=1/GPa)
#
#
# Indices 1 2 3 4 5 6 
#
# 1 0.006756 -0.004979 -0.000653 0.000000 0.000000 0.000000
# 2 -0.004979 0.035506 0.002644 0.000000 0.000000 0.000000
# 3 -0.000653 0.002644 0.006296 0.000000 0.000000 0.000000
# 4 0.000000 0.000000 0.000000 -7.655262 0.000000 0.000000
# 5 0.000000 0.000000 0.000000 0.000000 0.012639 0.000000
# 6 0.000000 0.000000 0.000000 0.000000 0.000000 0.027341
#
#
# Mechanical properties :
#
#
# Convention : Reuss Voigt Hill
#
# Bulk Modulus (GPa) = 23.48401 44.46102 33.97251
# Shear Modulus (GPa) = -0.66255 45.96584 22.65164
#
# Velocity S-wave (km/s) = -0.53392 4.44717 3.12188
# Velocity P-wave (km/s) = 3.11836 6.74535 5.25471
#
# Compressibility (1/GPa) = 0.04258217
#
# Stress axis : x y z
#
# Youngs Moduli (GPa) = 148.00823 28.16438 158.83353
#
# Poissons Ratio (x) = 0.14023 0.10373
# Poissons Ratio (y) = 0.73694 -0.41997
# Poissons Ratio (z) = 0.09666 -0.07447
#
# Static dielectric constant tensor:
#      x y z
#    x 1.875300 0.000000 0.000000 
#    y 0.000000 1.928270 0.000000 
#    z 0.000000 0.000000 1.959710 
# 
# From -- ./inp_files/6405.got.cif
#   From: 2010.05.17/outbox.cif.g08.bks.cpg/sg56_4_cif.got.tgz:6405.got - 2010.06.03 13:42:01.
