data_PCOD9430323
_publ_section_title
;
Structure prediction by ZEFSAII (Michael W. Deem and Ramdas Pophale) SiO2 
 PCOD9430323
Probable space group: P C C N
;
_chemical_formula_sum "Si O2"
_cell_formula_units_Z 64
_cell_length_a 23.241016
_cell_length_b 8.371464
_cell_length_c 17.729270
_cell_angle_alpha 90.000000
_cell_angle_beta 90.000000
_cell_angle_gamma 90.000000
_cell_volume 3449.430329
_symmetry_space_group_name_H-M "P C C N"
_symmetry_group_IT_number 56
_symmetry_cell_setting 'orthorhombic'
loop_
_space_group_symop_operation_xyz
x,y,z
1/2-x,1/2-y,z
1/2+x,-y,1/2-z
-x,1/2+y,1/2-z
-x,-y,-z
1/2+x,1/2+y,-z
1/2-x,y,1/2+z
x,1/2-y,1/2+z
loop_
_atom_site_type_symbol
_atom_site_label
_atom_site_fract_x
_atom_site_fract_y
_atom_site_fract_z
Si Si1 0.025540 0.552638 0.918767
Si Si2 0.078062 0.251315 0.153543
Si Si3 0.692719 0.814538 0.592500
Si Si4 0.676849 0.900274 0.941450
Si Si5 0.479864 0.554642 0.083732
Si Si6 0.394361 0.780800 0.021802
Si Si7 0.926688 0.758302 0.167554
Si Si8 0.216871 0.915706 0.013594
O O1 0.074665 0.683442 0.941467
O O2 0.053820 0.405064 0.874489
O O3 0.972127 0.628578 0.874649
O O4 0.000000 0.500000 0.000000
O O5 0.140731 0.307730 0.122689
O O6 0.073321 0.240326 0.243071
O O7 0.060002 0.083387 0.116779
O O8 0.750000 0.750000 0.631121
O O9 0.680403 0.711423 0.515830
O O10 0.637143 0.801722 0.642004
O O11 0.709424 0.988696 0.563519
O O12 0.637581 0.055359 0.958189
O O13 0.742126 0.972003 0.933369
O O14 0.532670 0.599343 0.137330
O O15 0.500000 0.500000 0.000000
O O16 0.444936 0.719659 0.075304
O O17 0.347613 0.639988 0.031265
O O18 0.250000 0.750000 0.004167
#
# Coordination Sequence:
#
# PCOD9430323 Si02
#       8
#     8   8   8   8   8   8   8   8
#     4  12  20  39  63  84 123 169 209 259 314 379
#     4  12  24  37  58  93 127 167 201 257 337 384
#     4  10  20  38  62  85 113 160 214 262 304 376
#     4  10  19  38  61  84 119 156 206 261 310 375
#     4  12  22  36  60  90 119 160 212 255 298 379
#     4  11  19  34  62  89 113 149 210 263 309 353
#     4  12  24  39  57  89 133 163 206 261 327 386
#     4   9  20  34  60  94 112 146 209 279 306 351
#
# _framework density 18.553789999999999
#
# number of rings (size 3 to 8) (size 9 to 14) (size 15 to 20)
#    0.000    1.000    5.000    3.000    0.000    0.000 
#    0.000    3.125    0.000    2.250    0.000    0.000 
#    0.000    0.000    0.000    0.000    0.000    0.000 
#
# Total GULP energy -356760.623855 kJ/mol
# GULP energy per Si atom -5574.384748 kJ/mol
# Density = 1.851156 g / cm^3
# Si number density = 18.553790 Si / 1000 Ang^3
#
#
#
# Elastic Constant Matrix: (Units=GPa)
#
#
# Indices 1 2 3 4 5 6 
#
# 1 134.1981 33.7554 49.1772 0.0000 0.0000 0.0000
# 2 33.7554 61.5100 30.0157 0.0000 0.0000 0.0000
# 3 49.1772 30.0157 108.9845 0.0000 0.0000 0.0000
# 4 0.0000 0.0000 0.0000 20.6378 0.0000 0.0000
# 5 0.0000 0.0000 0.0000 0.0000 10.3439 0.0000
# 6 0.0000 0.0000 0.0000 0.0000 0.0000 28.8978
#
#
#
# Elastic Compliance Matrix: (Units=1/GPa)
#
#
# Indices 1 2 3 4 5 6 
#
# 1 0.009584 -0.003638 -0.003323 0.000000 0.000000 0.000000
# 2 -0.003638 0.020163 -0.003911 0.000000 0.000000 0.000000
# 3 -0.003323 -0.003911 0.011752 0.000000 0.000000 0.000000
# 4 0.000000 0.000000 0.000000 0.048455 0.000000 0.000000
# 5 0.000000 0.000000 0.000000 0.000000 0.096675 0.000000
# 6 0.000000 0.000000 0.000000 0.000000 0.000000 0.034605
#
#
# Mechanical properties :
#
#
# Convention : Reuss Voigt Hill
#
# Bulk Modulus (GPa) = 50.62120 58.95436 54.78778
# Shear Modulus (GPa) = 20.03496 24.75886 22.39691
#
# Velocity S-wave (km/s) = 3.28964 3.65696 3.47815
# Velocity P-wave (km/s) = 6.46310 7.04804 6.76190
#
# Compressibility (1/GPa) = 0.01975457
#
# Stress axis : x y z
#
# Youngs Moduli (GPa) = 104.33550 49.59623 85.09050
#
# Poissons Ratio (x) = 0.18045 0.28274
# Poissons Ratio (y) = 0.37960 0.33282
# Poissons Ratio (z) = 0.34668 0.19399
#
# Static dielectric constant tensor:
#      x y z
#    x 1.708680 0.000000 0.000000 
#    y 0.000000 1.695440 0.000000 
#    z 0.000000 0.000000 1.606660 
# 
# From -- ./inp_files/13297.got.cif
#   From: 2010.05.17/outbox.cif.g08.bks.cpg/sg56_7_cif.got.tgz:13297.got - 2010.06.03 13:42:01.
