data_PCOD9430313
_publ_section_title
;
Structure prediction by ZEFSAII (Michael W. Deem and Ramdas Pophale) SiO2 
 PCOD9430313
Probable space group: P C C N
;
_chemical_formula_sum "Si O2"
_cell_formula_units_Z 64
_cell_length_a 16.069982
_cell_length_b 14.629509
_cell_length_c 10.052154
_cell_angle_alpha 90.000000
_cell_angle_beta 90.000000
_cell_angle_gamma 90.000000
_cell_volume 2363.220657
_symmetry_space_group_name_H-M "P C C N"
_symmetry_group_IT_number 56
_symmetry_cell_setting 'orthorhombic'
loop_
_space_group_symop_operation_xyz
x,y,z
1/2-x,1/2-y,z
1/2+x,-y,1/2-z
-x,1/2+y,1/2-z
-x,-y,-z
1/2+x,1/2+y,-z
1/2-x,y,1/2+z
x,1/2-y,1/2+z
loop_
_atom_site_type_symbol
_atom_site_label
_atom_site_fract_x
_atom_site_fract_y
_atom_site_fract_z
Si Si1 0.261613 0.417892 0.285679
Si Si2 0.135862 0.526630 0.960344
Si Si3 0.250993 0.622683 0.266878
Si Si4 0.589099 0.554433 0.911034
Si Si5 0.963915 0.724051 0.555683
Si Si6 0.029058 0.976561 0.686049
Si Si7 0.103476 0.178357 0.692942
Si Si8 0.643677 0.152836 0.485515
O O1 0.293278 0.446773 0.435912
O O2 0.224355 0.516747 0.244241
O O3 0.339933 0.408273 0.187993
O O4 0.195352 0.340591 0.251136
O O5 0.055938 0.478938 0.897014
O O6 0.286042 0.663110 0.130139
O O7 0.168539 0.894688 0.362619
O O8 0.183711 0.664628 0.367881
O O9 0.099027 0.570121 0.094653
O O10 0.575512 0.623497 0.030388
O O11 0.502445 0.554687 0.828987
O O12 0.615861 0.452992 0.955452
O O13 0.944767 0.745961 0.707514
O O14 0.912248 0.784956 0.453933
O O15 0.062071 0.714537 0.531847
O O16 0.058539 0.080715 0.694038
#
# Coordination Sequence:
#
# PCOD9430313 Si02
#       8
#     8   8   8   8   8   8   8   8
#     4   8  20  39  63 103 142 181 244 298 380 432
#     4   8  18  34  63 107 137 176 239 304 368 432
#     4   9  20  36  69 107 139 174 232 327 374 432
#     4  10  21  41  71 105 139 193 250 326 371 440
#     4  12  28  45  68 101 149 208 250 299 385 456
#     4  10  19  37  68  99 139 186 241 312 371 437
#     4  12  26  45  67  97 150 203 243 308 377 463
#     4  11  21  43  69 108 140 180 249 315 378 442
#
# _framework density 27.081686999999999
#
# number of rings (size 3 to 8) (size 9 to 14) (size 15 to 20)
#    0.750    1.250    2.500    1.125    5.250    3.500 
#    0.000    2.500    0.000    6.000    0.000    0.000 
#    0.000    0.000    0.000    0.000    0.000    0.000 
#
# Total GULP energy -357729.981011 kJ/mol
# GULP energy per Si atom -5589.530953 kJ/mol
# Density = 2.702005 g / cm^3
# Si number density = 27.081687 Si / 1000 Ang^3
#
#
#
# Elastic Constant Matrix: (Units=GPa)
#
#
# Indices 1 2 3 4 5 6 
#
# 1 128.6142 30.3120 45.9122 0.0000 0.0000 0.0000
# 2 30.3120 99.6494 26.6082 0.0000 0.0000 0.0000
# 3 45.9122 26.6082 104.2936 0.0000 0.0000 0.0000
# 4 0.0000 0.0000 0.0000 22.1964 0.0000 0.0000
# 5 0.0000 0.0000 0.0000 0.0000 56.9509 0.0000
# 6 0.0000 0.0000 0.0000 0.0000 0.0000 19.6204
#
#
#
# Elastic Compliance Matrix: (Units=1/GPa)
#
#
# Indices 1 2 3 4 5 6 
#
# 1 0.009553 -0.001913 -0.003717 0.000000 0.000000 0.000000
# 2 -0.001913 0.011152 -0.002003 0.000000 0.000000 0.000000
# 3 -0.003717 -0.002003 0.011736 0.000000 0.000000 0.000000
# 4 0.000000 0.000000 0.000000 0.045052 0.000000 0.000000
# 5 0.000000 0.000000 0.000000 0.000000 0.017559 0.000000
# 6 0.000000 0.000000 0.000000 0.000000 0.000000 0.050967
#
#
# Mechanical properties :
#
#
# Convention : Reuss Voigt Hill
#
# Bulk Modulus (GPa) = 58.22838 59.80243 59.01540
# Shear Modulus (GPa) = 29.93807 35.06852 32.50330
#
# Velocity S-wave (km/s) = 3.32847 3.60240 3.46814
# Velocity P-wave (km/s) = 6.02655 6.27959 6.15437
#
# Compressibility (1/GPa) = 0.01717376
#
# Stress axis : x y z
#
# Youngs Moduli (GPa) = 104.67774 89.66994 85.20971
#
# Poissons Ratio (x) = 0.17157 0.31675
# Poissons Ratio (y) = 0.20028 0.17067
# Poissons Ratio (z) = 0.38912 0.17960
#
# Static dielectric constant tensor:
#      x y z
#    x 2.123120 0.000000 0.000000 
#    y 0.000000 2.126890 0.000000 
#    z 0.000000 0.000000 2.167410 
# 
# From -- ./inp_files/8064.got.cif
#   From: 2010.05.17/outbox.cif.g08.bks.cpg/sg56_5_cif.got.tgz:8064.got - 2010.06.03 13:42:01.
