data_PCOD9430103
_publ_section_title
;
Structure prediction by ZEFSAII (Michael W. Deem and Ramdas Pophale) SiO2 
 PCOD9430103
Probable space group: P C C N
;
_chemical_formula_sum "Si O2"
_cell_formula_units_Z 40
_cell_length_a 11.806719
_cell_length_b 5.230270
_cell_length_c 26.709322
_cell_angle_alpha 90.000000
_cell_angle_beta 90.000000
_cell_angle_gamma 90.000000
_cell_volume 1649.362818
_symmetry_space_group_name_H-M "P C C N"
_symmetry_group_IT_number 56
_symmetry_cell_setting 'orthorhombic'
loop_
_space_group_symop_operation_xyz
x,y,z
1/2-x,1/2-y,z
1/2+x,-y,1/2-z
-x,1/2+y,1/2-z
-x,-y,-z
1/2+x,1/2+y,-z
1/2-x,y,1/2+z
x,1/2-y,1/2+z
loop_
_atom_site_type_symbol
_atom_site_label
_atom_site_fract_x
_atom_site_fract_y
_atom_site_fract_z
Si Si1 0.076306 0.907479 0.246135
Si Si2 0.550342 0.508423 0.858835
Si Si3 0.567758 0.186831 0.463635
Si Si4 0.337839 0.464058 0.455602
Si Si5 0.396161 0.491281 0.351504
O O1 0.124966 0.965584 0.190995
O O2 0.149894 0.961017 0.295513
O O3 0.024954 0.621052 0.248779
O O4 0.606910 0.449647 0.912713
O O5 0.492298 0.786946 0.858381
O O6 0.451951 0.292049 0.852360
O O7 0.467965 0.379598 0.448455
O O8 0.649800 0.333711 0.500582
O O9 0.500000 0.000000 0.500000
O O10 0.250000 0.250000 0.472391
O O11 0.310309 0.521308 0.397747
#
# Coordination Sequence:
#
# PCOD9430103 Si02
#       5
#     8   8   8   8   8
#     4   8  14  24  43  70 100 129 172 225 278 340
#     4   9  16  28  48  72 105 138 180 234 287 342
#     4  10  19  34  52  75 113 148 193 247 291 364
#     4  10  21  34  51  78 115 151 193 243 307 359
#     4   9  16  29  46  72 107 138 179 234 290 349
#
# _framework density 24.251788000000001
#
# number of rings (size 3 to 8) (size 9 to 14) (size 15 to 20)
#    0.000    2.800    2.000    0.000    0.000    0.800 
#    0.000    0.000    0.000    0.000    0.000    1.400 
#   66.000    0.000    0.000    0.000    0.000    0.000 
#
# Total GULP energy -222928.248581 kJ/mol
# GULP energy per Si atom -5573.206215 kJ/mol
# Density = 2.419659 g / cm^3
# Si number density = 24.251788 Si / 1000 Ang^3
#
#
#
# Elastic Constant Matrix: (Units=GPa)
#
#
# Indices 1 2 3 4 5 6 
#
# 1 43.1518 25.9352 15.1129 0.0000 0.0000 0.0000
# 2 25.9352 127.9438 30.7205 0.0000 0.0000 0.0000
# 3 15.1129 30.7205 255.1527 0.0000 0.0000 0.0000
# 4 0.0000 0.0000 0.0000 46.5623 0.0000 0.0000
# 5 0.0000 0.0000 0.0000 0.0000 -106.9558 0.0000
# 6 0.0000 0.0000 0.0000 0.0000 0.0000 35.6854
#
#
#
# Elastic Compliance Matrix: (Units=1/GPa)
#
#
# Indices 1 2 3 4 5 6 
#
# 1 0.026613 -0.005165 -0.000954 0.000000 0.000000 0.000000
# 2 -0.005165 0.009051 -0.000784 0.000000 0.000000 0.000000
# 3 -0.000954 -0.000784 0.004070 0.000000 0.000000 0.000000
# 4 0.000000 0.000000 0.000000 0.021477 0.000000 0.000000
# 5 0.000000 0.000000 0.000000 0.000000 -0.009350 0.000000
# 6 0.000000 0.000000 0.000000 0.000000 0.000000 0.028023
#
#
# Mechanical properties :
#
#
# Convention : Reuss Voigt Hill
#
# Bulk Modulus (GPa) = 38.57006 63.30950 50.93978
# Shear Modulus (GPa) = 48.85990 18.69036 33.77513
#
# Velocity S-wave (km/s) = 4.49340 2.77912 3.73592
# Velocity P-wave (km/s) = 6.54671 6.03819 6.29759
#
# Compressibility (1/GPa) = 0.02592685
#
# Stress axis : x y z
#
# Youngs Moduli (GPa) = 37.57583 110.48238 245.69289
#
# Poissons Ratio (x) = 0.57069 0.23448
# Poissons Ratio (y) = 0.19410 0.19258
# Poissons Ratio (z) = 0.03586 0.08660
#
# Static dielectric constant tensor:
#      x y z
#    x 2.374410 0.000000 0.000000 
#    y 0.000000 2.139240 0.000000 
#    z 0.000000 0.000000 2.146810 
# 
# From -- ./inp_files/21602.got.cif
#   From: 2010.05.17/outbox.cif.g08.bks.cpg/sg56_11_cif.got.tgz:21602.got - 2010.06.03 13:42:01.
