data_PCOD9430454
_publ_section_title
;
Structure prediction by ZEFSAII (Michael W. Deem and Ramdas Pophale) SiO2 
 PCOD9430454
Probable space group: P C C N
;
_chemical_formula_sum "Si O2"
_cell_formula_units_Z 56
_cell_length_a 22.696728
_cell_length_b 5.543688
_cell_length_c 22.611760
_cell_angle_alpha 90.000000
_cell_angle_beta 90.000000
_cell_angle_gamma 90.000000
_cell_volume 2845.092563
_symmetry_space_group_name_H-M "P C C N"
_symmetry_group_IT_number 56
_symmetry_cell_setting 'orthorhombic'
loop_
_space_group_symop_operation_xyz
x,y,z
1/2-x,1/2-y,z
1/2+x,-y,1/2-z
-x,1/2+y,1/2-z
-x,-y,-z
1/2+x,1/2+y,-z
1/2-x,y,1/2+z
x,1/2-y,1/2+z
loop_
_atom_site_type_symbol
_atom_site_label
_atom_site_fract_x
_atom_site_fract_y
_atom_site_fract_z
Si Si1 0.000978 0.469834 0.326777
Si Si2 0.320499 0.234476 0.406729
Si Si3 0.320382 0.733400 0.338129
Si Si4 0.593884 0.842541 0.486916
Si Si5 0.415809 0.362106 0.632204
Si Si6 0.484303 0.735036 0.551423
Si Si7 0.095805 0.636994 0.238483
O O1 0.970281 0.727759 0.336520
O O2 0.014010 0.383533 0.393373
O O3 0.951535 0.309512 0.293975
O O4 0.057586 0.485797 0.285676
O O5 0.250000 0.250000 0.414431
O O6 0.336306 0.489518 0.374706
O O7 0.353095 0.201072 0.469019
O O8 0.334703 0.988280 0.370618
O O9 0.250000 0.750000 0.329250
O O10 0.355357 0.727879 0.276504
O O11 0.611677 0.807493 0.418158
O O12 0.540629 0.670574 0.511276
O O13 0.560197 0.098872 0.486429
O O14 0.444093 0.563034 0.590616
O O15 0.378753 0.472813 0.685501
#
# Coordination Sequence:
#
# PCOD9430454 Si02
#       7
#     8   8   8   8   8   8   8
#     4  10  20  32  51  87 115 161 197 247 307 362
#     4  10  23  42  66  94 118 155 212 261 309 362
#     4  10  24  42  66  93 120 160 212 263 307 361
#     4  10  20  35  59  82 121 156 193 248 311 362
#     4  10  21  34  52  84 120 151 199 239 297 380
#     4   9  20  34  52  86 118 153 198 241 305 374
#     4  11  21  35  60  82 127 156 205 255 309 368
#
# _framework density 19.683014
#
# number of rings (size 3 to 8) (size 9 to 14) (size 15 to 20)
#    0.000    2.000    1.429    1.286    6.000    0.000 
#    0.000    0.000    9.429    0.000    0.000    0.000 
#    0.000    0.000    0.000    0.000    0.000    0.000 
#
# Total GULP energy -311893.676106 kJ/mol
# GULP energy per Si atom -5569.529930 kJ/mol
# Density = 1.963821 g / cm^3
# Si number density = 19.683014 Si / 1000 Ang^3
#
#
#
# Elastic Constant Matrix: (Units=GPa)
#
#
# Indices 1 2 3 4 5 6 
#
# 1 43.0731 17.2317 46.8576 0.0000 0.0000 0.0000
# 2 17.2317 49.1145 25.0222 0.0000 0.0000 0.0000
# 3 46.8576 25.0222 140.7691 0.0000 0.0000 0.0000
# 4 0.0000 0.0000 0.0000 26.6208 0.0000 0.0000
# 5 0.0000 0.0000 0.0000 0.0000 23.4293 0.0000
# 6 0.0000 0.0000 0.0000 0.0000 0.0000 10.2542
#
#
#
# Elastic Compliance Matrix: (Units=1/GPa)
#
#
# Indices 1 2 3 4 5 6 
#
# 1 0.038909 -0.007755 -0.011573 0.000000 0.000000 0.000000
# 2 -0.007755 0.023934 -0.001673 0.000000 0.000000 0.000000
# 3 -0.011573 -0.001673 0.011253 0.000000 0.000000 0.000000
# 4 0.000000 0.000000 0.000000 0.037565 0.000000 0.000000
# 5 0.000000 0.000000 0.000000 0.000000 0.042682 0.000000
# 6 0.000000 0.000000 0.000000 0.000000 0.000000 0.097521
#
#
# Mechanical properties :
#
#
# Convention : Reuss Voigt Hill
#
# Bulk Modulus (GPa) = 31.15837 45.68664 38.42250
# Shear Modulus (GPa) = 16.41696 21.65053 19.03375
#
# Velocity S-wave (km/s) = 2.89116 3.32016 3.11306
# Velocity P-wave (km/s) = 5.19707 6.16113 5.69952
#
# Compressibility (1/GPa) = 0.03209411
#
# Stress axis : x y z
#
# Youngs Moduli (GPa) = 25.70127 41.78216 88.86138
#
# Poissons Ratio (x) = 0.32402 1.02839
# Poissons Ratio (y) = 0.19931 0.14866
# Poissons Ratio (z) = 0.29744 0.06990
#
# Static dielectric constant tensor:
#      x y z
#    x 1.667230 0.000000 0.000000 
#    y 0.000000 1.881920 0.000000 
#    z 0.000000 0.000000 1.731380 
# 
# From -- ./inp_files/19579.got.cif
#   From: 2010.05.17/outbox.cif.g08.bks.cpg/sg56_10_cif.got.tgz:19579.got - 2010.06.03 13:42:01.
