data_PCOD9430908
_publ_section_title
;
Structure prediction by ZEFSAII (Michael W. Deem and Ramdas Pophale) SiO2 
 PCOD9430908
Probable space group: P C C N
;
_chemical_formula_sum "Si O2"
_cell_formula_units_Z 36
_cell_length_a 13.855331
_cell_length_b 6.200572
_cell_length_c 16.637776
_cell_angle_alpha 90.000000
_cell_angle_beta 90.000000
_cell_angle_gamma 90.000000
_cell_volume 1429.367599
_symmetry_space_group_name_H-M "P C C N"
_symmetry_group_IT_number 56
_symmetry_cell_setting 'orthorhombic'
loop_
_space_group_symop_operation_xyz
x,y,z
1/2-x,1/2-y,z
1/2+x,-y,1/2-z
-x,1/2+y,1/2-z
-x,-y,-z
1/2+x,1/2+y,-z
1/2-x,y,1/2+z
x,1/2-y,1/2+z
loop_
_atom_site_type_symbol
_atom_site_label
_atom_site_fract_x
_atom_site_fract_y
_atom_site_fract_z
Si Si1 0.560561 0.698034 0.527778
Si Si2 0.746604 0.001924 0.370885
Si Si3 0.843223 0.095990 0.216279
Si Si4 0.464366 0.467265 0.135072
Si Si5 0.250000 0.250000 0.897699
O O1 0.500000 0.500000 0.500000
O O2 0.559042 0.853929 0.450439
O O3 0.668722 0.630397 0.550616
O O4 0.508293 0.808250 0.603348
O O5 0.750000 0.250000 0.410911
O O6 0.833988 0.012698 0.307315
O O7 0.750000 0.750000 0.401517
O O8 0.640797 0.003159 0.327051
O O9 0.750000 0.250000 0.207519
O O10 0.952261 0.150171 0.187241
O O11 0.810411 0.908708 0.156424
#
# Coordination Sequence:
#
# PCOD9430908 Si02
#       5
#     8   8   8   8   4
#     4  10  22  40  66  97 133 180 229 284 345 409
#     4  11  26  44  68 102 139 182 228 285 346 409
#     4  10  21  43  63  94 135 180 226 281 349 410
#     4  10  24  41  65 101 134 180 232 285 346 415
#     4  10  20  38  64  90 132 174 228 282 346 412
#
# _framework density 25.185963999999998
#
# number of rings (size 3 to 8) (size 9 to 14) (size 15 to 20)
#    0.000    1.778    1.111    1.333    4.667    3.556 
#    0.000    2.222    0.000    0.000    0.000    0.000 
#    0.000    0.000    0.000    0.000    0.000    0.000 
#
# Total GULP energy -200510.106602 kJ/mol
# GULP energy per Si atom -5569.725183 kJ/mol
# Density = 2.512864 g / cm^3
# Si number density = 25.185964 Si / 1000 Ang^3
#
#
#
# Elastic Constant Matrix: (Units=GPa)
#
#
# Indices 1 2 3 4 5 6 
#
# 1 147.8160 24.7739 13.4439 0.0000 0.0000 0.0000
# 2 24.7739 129.7390 2.0214 0.0000 0.0000 0.0000
# 3 13.4439 2.0214 47.5757 0.0000 0.0000 0.0000
# 4 0.0000 0.0000 0.0000 11.9074 0.0000 0.0000
# 5 0.0000 0.0000 0.0000 0.0000 62.9806 0.0000
# 6 0.0000 0.0000 0.0000 0.0000 0.0000 33.4527
#
#
#
# Elastic Compliance Matrix: (Units=1/GPa)
#
#
# Indices 1 2 3 4 5 6 
#
# 1 0.007169 -0.001338 -0.001969 0.000000 0.000000 0.000000
# 2 -0.001338 0.007963 0.000040 0.000000 0.000000 0.000000
# 3 -0.001969 0.000040 0.021574 0.000000 0.000000 0.000000
# 4 0.000000 0.000000 0.000000 0.083981 0.000000 0.000000
# 5 0.000000 0.000000 0.000000 0.000000 0.015878 0.000000
# 6 0.000000 0.000000 0.000000 0.000000 0.000000 0.029893
#
#
# Mechanical properties :
#
#
# Convention : Reuss Voigt Hill
#
# Bulk Modulus (GPa) = 33.14480 45.06767 39.10623
# Shear Modulus (GPa) = 27.31519 40.66091 33.98805
#
# Velocity S-wave (km/s) = 3.29681 4.02235 3.67752
# Velocity P-wave (km/s) = 5.26123 6.28532 5.79594
#
# Compressibility (1/GPa) = 0.03017065
#
# Stress axis : x y z
#
# Youngs Moduli (GPa) = 139.49904 125.58574 46.35258
#
# Poissons Ratio (x) = 0.16805 0.09126
# Poissons Ratio (y) = 0.18667 -0.00185
# Poissons Ratio (z) = 0.27465 -0.00500
#
# Static dielectric constant tensor:
#      x y z
#    x 1.813620 0.000000 0.000000 
#    y 0.000000 1.962920 0.000000 
#    z 0.000000 0.000000 2.212680 
# 
# From -- ./inp_files/18914.got.cif
#   From: 2010.05.17/outbox.cif.g08.bks.cpg/sg56_10_cif.got.tgz:18914.got - 2010.06.03 13:42:01.
