data_PCOD9430495
_publ_section_title
;
Structure prediction by ZEFSAII (Michael W. Deem and Ramdas Pophale) SiO2 
 PCOD9430495
Probable space group: P C C N
;
_chemical_formula_sum "Si O2"
_cell_formula_units_Z 60
_cell_length_a 21.726688
_cell_length_b 14.073409
_cell_length_c 8.859979
_cell_angle_alpha 90.000000
_cell_angle_beta 90.000000
_cell_angle_gamma 90.000000
_cell_volume 2709.103078
_symmetry_space_group_name_H-M "P C C N"
_symmetry_group_IT_number 56
_symmetry_cell_setting 'orthorhombic'
loop_
_space_group_symop_operation_xyz
x,y,z
1/2-x,1/2-y,z
1/2+x,-y,1/2-z
-x,1/2+y,1/2-z
-x,-y,-z
1/2+x,1/2+y,-z
1/2-x,y,1/2+z
x,1/2-y,1/2+z
loop_
_atom_site_type_symbol
_atom_site_label
_atom_site_fract_x
_atom_site_fract_y
_atom_site_fract_z
Si Si1 0.676855 0.150132 0.868752
Si Si2 0.513705 0.841023 0.280068
Si Si3 0.290566 0.158984 0.467271
Si Si4 0.552326 0.283999 0.519209
Si Si5 0.951554 0.021135 0.638061
Si Si6 0.172285 0.454393 0.011792
Si Si7 0.250000 0.750000 0.387361
Si Si8 0.361269 0.270606 0.690555
O O1 0.616150 0.199137 0.934604
O O2 0.725702 0.168707 0.002140
O O3 0.699137 0.203760 0.720722
O O4 0.671156 0.036625 0.860493
O O5 0.461215 0.814058 0.399108
O O6 0.527050 0.952773 0.271230
O O7 0.573020 0.778039 0.315855
O O8 0.495752 0.808022 0.111894
O O9 0.250000 0.250000 0.425588
O O10 0.242818 0.070857 0.464462
O O11 0.315674 0.185245 0.634560
O O12 0.344658 0.173365 0.344993
O O13 0.547402 0.365484 0.648571
O O14 0.880683 0.992090 0.601378
O O15 0.000000 0.000000 0.500000
O O16 0.146287 0.354104 0.068918
#
# Coordination Sequence:
#
# PCOD9430495 Si02
#       8
#     8   8   8   8   8   8   4   8
#     4  10  22  41  65  92 120 158 210 266 311 375
#     4  11  20  37  63  85 123 164 205 254 309 370
#     4  10  20  34  51  81 122 160 197 239 294 366
#     4  10  21  38  63  89 118 163 209 255 317 366
#     4   9  19  36  56  84 113 156 206 247 299 375
#     4  10  21  35  59  87 121 160 200 249 314 369
#     4  10  22  42  66  90 122 156 214 264 324 364
#     4  11  21  35  56  88 126 164 202 242 303 378
#
# _framework density 22.147551
#
# number of rings (size 3 to 8) (size 9 to 14) (size 15 to 20)
#    0.000    1.867    0.000    6.000    1.867    0.000 
#    2.400    0.667    0.000    0.000    0.000    0.000 
#    0.000    0.000    0.000    0.000    0.000    0.000 
#
# Total GULP energy -334490.078984 kJ/mol
# GULP energy per Si atom -5574.834650 kJ/mol
# Density = 2.209714 g / cm^3
# Si number density = 22.147551 Si / 1000 Ang^3
#
#
#
# Elastic Constant Matrix: (Units=GPa)
#
#
# Indices 1 2 3 4 5 6 
#
# 1 80.4630 20.4785 16.4388 0.0000 0.0000 0.0000
# 2 20.4785 36.2907 0.8366 0.0000 0.0000 0.0000
# 3 16.4388 0.8366 49.9207 0.0000 0.0000 0.0000
# 4 0.0000 0.0000 0.0000 16.3123 0.0000 0.0000
# 5 0.0000 0.0000 0.0000 0.0000 20.0840 0.0000
# 6 0.0000 0.0000 0.0000 0.0000 0.0000 25.3047
#
#
#
# Elastic Compliance Matrix: (Units=1/GPa)
#
#
# Indices 1 2 3 4 5 6 
#
# 1 0.015674 -0.008729 -0.005015 0.000000 0.000000 0.000000
# 2 -0.008729 0.032427 0.002331 0.000000 0.000000 0.000000
# 3 -0.005015 0.002331 0.021644 0.000000 0.000000 0.000000
# 4 0.000000 0.000000 0.000000 0.061304 0.000000 0.000000
# 5 0.000000 0.000000 0.000000 0.000000 0.049791 0.000000
# 6 0.000000 0.000000 0.000000 0.000000 0.000000 0.039518
#
#
# Mechanical properties :
#
#
# Convention : Reuss Voigt Hill
#
# Bulk Modulus (GPa) = 21.31327 26.90913 24.11120
# Shear Modulus (GPa) = 19.31803 20.93488 20.12646
#
# Velocity S-wave (km/s) = 2.95658 3.07782 3.01781
# Velocity P-wave (km/s) = 4.61512 4.98066 4.80137
#
# Compressibility (1/GPa) = 0.04691913
#
# Stress axis : x y z
#
# Youngs Moduli (GPa) = 63.79843 30.83812 46.20170
#
# Poissons Ratio (x) = 0.26919 0.23171
# Poissons Ratio (y) = 0.55691 -0.10770
# Poissons Ratio (z) = 0.31997 -0.07189
#
# Static dielectric constant tensor:
#      x y z
#    x 1.899510 0.000000 0.000000 
#    y 0.000000 1.856630 0.000000 
#    z 0.000000 0.000000 1.861410 
# 
# From -- ./inp_files/4800.got.cif
#   From: 2010.05.17/outbox.cif.g08.bks.cpg/sg56_3_cif.got.tgz:4800.got - 2010.06.03 13:42:01.
