data_PCOD9430749
_publ_section_title
;
Structure prediction by ZEFSAII (Michael W. Deem and Ramdas Pophale) SiO2 
 PCOD9430749
Probable space group: P C C N
;
_chemical_formula_sum "Si O2"
_cell_formula_units_Z 40
_cell_length_a 10.802555
_cell_length_b 12.655631
_cell_length_c 14.711824
_cell_angle_alpha 90.000000
_cell_angle_beta 90.000000
_cell_angle_gamma 90.000000
_cell_volume 2011.299800
_symmetry_space_group_name_H-M "P C C N"
_symmetry_group_IT_number 56
_symmetry_cell_setting 'orthorhombic'
loop_
_space_group_symop_operation_xyz
x,y,z
1/2-x,1/2-y,z
1/2+x,-y,1/2-z
-x,1/2+y,1/2-z
-x,-y,-z
1/2+x,1/2+y,-z
1/2-x,y,1/2+z
x,1/2-y,1/2+z
loop_
_atom_site_type_symbol
_atom_site_label
_atom_site_fract_x
_atom_site_fract_y
_atom_site_fract_z
Si Si1 0.199677 0.487726 0.493744
Si Si2 0.352784 0.660264 0.849064
Si Si3 0.886844 0.783654 0.900704
Si Si4 0.183041 0.637820 0.146406
Si Si5 0.441856 0.396550 0.453725
O O1 0.138970 0.573901 0.428442
O O2 0.129889 0.391065 0.541229
O O3 0.257100 0.552982 0.578541
O O4 0.304617 0.433900 0.429887
O O5 0.250000 0.750000 0.874017
O O6 0.492300 0.705288 0.837412
O O7 0.307940 0.613044 0.753087
O O8 0.750000 0.750000 0.863398
O O9 0.924640 0.692611 0.971010
O O10 0.250000 0.750000 0.131562
O O11 0.038352 0.642466 0.120392
O O12 0.500000 0.500000 0.500000
#
# Coordination Sequence:
#
# PCOD9430749 Si02
#       5
#     8   8   8   8   8
#     4  10  20  37  60  84 117 155 195 250 298 353
#     4  11  22  37  61  88 116 158 201 243 299 361
#     4  10  21  38  59  86 117 156 199 246 303 353
#     4  10  21  36  58  87 118 156 200 242 295 362
#     4   9  18  36  58  79 113 155 191 237 296 351
#
# _framework density 19.887637000000002
#
# number of rings (size 3 to 8) (size 9 to 14) (size 15 to 20)
#    0.000    2.000    0.000    4.800    0.000    1.600 
#    0.000   15.000    0.000    0.000    0.000    0.000 
#    0.000    0.000    0.000    0.000    0.000    0.000 
#
# Total GULP energy -222821.294635 kJ/mol
# GULP energy per Si atom -5570.532366 kJ/mol
# Density = 1.984237 g / cm^3
# Si number density = 19.887637 Si / 1000 Ang^3
#
#
#
# Elastic Constant Matrix: (Units=GPa)
#
#
# Indices 1 2 3 4 5 6 
#
# 1 122.6412 44.5665 33.6460 0.0000 0.0000 0.0000
# 2 44.5665 97.3650 38.4482 0.0000 0.0000 0.0000
# 3 33.6460 38.4482 56.3081 0.0000 0.0000 0.0000
# 4 0.0000 0.0000 0.0000 0.8791 0.0000 0.0000
# 5 0.0000 0.0000 0.0000 0.0000 345.3101 0.0000
# 6 0.0000 0.0000 0.0000 0.0000 0.0000 28.1344
#
#
#
# Elastic Compliance Matrix: (Units=1/GPa)
#
#
# Indices 1 2 3 4 5 6 
#
# 1 0.010419 -0.003164 -0.004065 0.000000 0.000000 0.000000
# 2 -0.003164 0.015023 -0.008368 0.000000 0.000000 0.000000
# 3 -0.004065 -0.008368 0.025902 0.000000 0.000000 0.000000
# 4 0.000000 0.000000 0.000000 1.137507 0.000000 0.000000
# 5 0.000000 0.000000 0.000000 0.000000 0.002896 0.000000
# 6 0.000000 0.000000 0.000000 0.000000 0.000000 0.035544
#
#
# Mechanical properties :
#
#
# Convention : Reuss Voigt Hill
#
# Bulk Modulus (GPa) = 49.62597 56.62621 53.12609
# Shear Modulus (GPa) = 3.95194 85.50828 44.73011
#
# Velocity S-wave (km/s) = 1.41119 6.56422 4.74766
# Velocity P-wave (km/s) = 5.25953 9.27291 7.53822
#
# Compressibility (1/GPa) = 0.02015074
#
# Stress axis : x y z
#
# Youngs Moduli (GPa) = 95.98025 66.56481 38.60669
#
# Poissons Ratio (x) = 0.21058 0.15695
# Poissons Ratio (y) = 0.30364 0.32305
# Poissons Ratio (z) = 0.39020 0.55699
#
# Static dielectric constant tensor:
#      x y z
#    x 1.812040 0.000000 0.000000 
#    y 0.000000 1.687270 0.000000 
#    z 0.000000 0.000000 1.791240 
# 
# From -- ./inp_files/11394.got.cif
#   From: 2010.05.17/outbox.cif.g08.bks.cpg/sg56_6_cif.got.tgz:11394.got - 2010.06.03 13:42:01.
