data_PCOD9430689
_publ_section_title
;
Structure prediction by ZEFSAII (Michael W. Deem and Ramdas Pophale) SiO2 
 PCOD9430689
Probable space group: P C C N
;
_chemical_formula_sum "Si O2"
_cell_formula_units_Z 60
_cell_length_a 11.611752
_cell_length_b 9.947902
_cell_length_c 24.817963
_cell_angle_alpha 90.000000
_cell_angle_beta 90.000000
_cell_angle_gamma 90.000000
_cell_volume 2866.786712
_symmetry_space_group_name_H-M "P C C N"
_symmetry_group_IT_number 56
_symmetry_cell_setting 'orthorhombic'
loop_
_space_group_symop_operation_xyz
x,y,z
1/2-x,1/2-y,z
1/2+x,-y,1/2-z
-x,1/2+y,1/2-z
-x,-y,-z
1/2+x,1/2+y,-z
1/2-x,y,1/2+z
x,1/2-y,1/2+z
loop_
_atom_site_type_symbol
_atom_site_label
_atom_site_fract_x
_atom_site_fract_y
_atom_site_fract_z
Si Si1 0.062268 0.529917 0.286774
Si Si2 0.926756 0.480455 0.181502
Si Si3 0.442883 0.706022 0.066171
Si Si4 0.132100 0.984566 0.597915
Si Si5 0.378477 0.221564 0.025235
Si Si6 0.877687 0.935594 0.883377
Si Si7 0.633046 0.728472 0.156055
Si Si8 0.750000 0.250000 0.701521
O O1 0.995622 0.463591 0.236944
O O2 0.967492 0.566137 0.333568
O O3 0.136007 0.407105 0.310301
O O4 0.149147 0.653802 0.272204
O O5 0.882030 0.633556 0.188117
O O6 0.830374 0.364787 0.173313
O O7 0.018025 0.487381 0.132889
O O8 0.398367 0.555052 0.072699
O O9 0.529705 0.713804 0.115964
O O10 0.359429 0.829612 0.080089
O O11 0.517936 0.735146 0.013238
O O12 0.120265 0.067383 0.542756
O O13 0.244246 0.034914 0.631115
O O14 0.250000 0.250000 0.003334
O O15 0.387271 0.301139 0.081912
O O16 0.750000 0.750000 0.123960
#
# Coordination Sequence:
#
# PCOD9430689 Si02
#       8
#     8   8   8   8   8   8   8   4
#     4  11  24  41  64  95 127 170 212 269 316 385
#     4  11  24  41  64  95 127 170 212 269 316 385
#     4  10  20  36  62  89 121 161 212 253 315 378
#     4  10  22  39  63  92 128 164 211 259 320 383
#     4  10  20  37  60  88 125 164 205 265 318 380
#     4  10  22  39  63  92 128 164 211 259 320 383
#     4  10  20  39  58  85 125 162 204 259 314 373
#     4  12  24  42  66  92 130 160 224 256 318 380
#
# _framework density 20.929355999999999
#
# number of rings (size 3 to 8) (size 9 to 14) (size 15 to 20)
#    0.000    1.600    1.333    3.200    1.867    0.000 
#    0.000    1.333   17.600    0.000    0.000    0.000 
#    0.000    0.000    0.000    0.000    0.000    0.000 
#
# Total GULP energy -334078.000583 kJ/mol
# GULP energy per Si atom -5567.966676 kJ/mol
# Density = 2.088172 g / cm^3
# Si number density = 20.929356 Si / 1000 Ang^3
#
#
#
# Elastic Constant Matrix: (Units=GPa)
#
#
# Indices 1 2 3 4 5 6 
#
# 1 86.8705 22.2081 11.2406 0.0000 0.0000 0.0000
# 2 22.2081 106.5419 1.2283 0.0000 0.0000 0.0000
# 3 11.2406 1.2283 43.9077 0.0000 0.0000 0.0000
# 4 0.0000 0.0000 0.0000 12.4673 0.0000 0.0000
# 5 0.0000 0.0000 0.0000 0.0000 20.0683 0.0000
# 6 0.0000 0.0000 0.0000 0.0000 0.0000 43.3550
#
#
#
# Elastic Compliance Matrix: (Units=1/GPa)
#
#
# Indices 1 2 3 4 5 6 
#
# 1 0.012580 -0.002586 -0.003148 0.000000 0.000000 0.000000
# 2 -0.002586 0.009921 0.000384 0.000000 0.000000 0.000000
# 3 -0.003148 0.000384 0.023570 0.000000 0.000000 0.000000
# 4 0.000000 0.000000 0.000000 0.080210 0.000000 0.000000
# 5 0.000000 0.000000 0.000000 0.000000 0.049830 0.000000
# 6 0.000000 0.000000 0.000000 0.000000 0.000000 0.023065
#
#
# Mechanical properties :
#
#
# Convention : Reuss Voigt Hill
#
# Bulk Modulus (GPa) = 28.27137 34.07489 31.17313
# Shear Modulus (GPa) = 22.55654 28.68766 25.62210
#
# Velocity S-wave (km/s) = 3.28647 3.70630 3.50268
# Velocity P-wave (km/s) = 5.28569 5.88488 5.59331
#
# Compressibility (1/GPa) = 0.03537148
#
# Stress axis : x y z
#
# Youngs Moduli (GPa) = 79.49242 100.80071 42.42633
#
# Poissons Ratio (x) = 0.26066 0.13357
# Poissons Ratio (y) = 0.20556 -0.01631
# Poissons Ratio (z) = 0.25026 -0.03876
#
# Static dielectric constant tensor:
#      x y z
#    x 1.803200 0.000000 0.000000 
#    y 0.000000 1.807380 0.000000 
#    z 0.000000 0.000000 1.707240 
# 
# From -- ./inp_files/23497.got.cif
#   From: 2010.05.17/outbox.cif.g08.bks.cpg/sg56_12_cif.got.tgz:23497.got - 2010.06.03 13:42:01.
