data_PCOD9430587
_publ_section_title
;
Structure prediction by ZEFSAII (Michael W. Deem and Ramdas Pophale) SiO2 
 PCOD9430587
Probable space group: P C C N
;
_chemical_formula_sum "Si O2"
_cell_formula_units_Z 48
_cell_length_a 13.240691
_cell_length_b 18.534738
_cell_length_c 9.478869
_cell_angle_alpha 90.000000
_cell_angle_beta 90.000000
_cell_angle_gamma 90.000000
_cell_volume 2326.235200
_symmetry_space_group_name_H-M "P C C N"
_symmetry_group_IT_number 56
_symmetry_cell_setting 'orthorhombic'
loop_
_space_group_symop_operation_xyz
x,y,z
1/2-x,1/2-y,z
1/2+x,-y,1/2-z
-x,1/2+y,1/2-z
-x,-y,-z
1/2+x,1/2+y,-z
1/2-x,y,1/2+z
x,1/2-y,1/2+z
loop_
_atom_site_type_symbol
_atom_site_label
_atom_site_fract_x
_atom_site_fract_y
_atom_site_fract_z
Si Si1 0.384996 0.653223 0.285382
Si Si2 0.749880 0.336529 0.970304
Si Si3 0.564612 0.580169 0.122424
Si Si4 0.991739 0.703363 0.217609
Si Si5 0.138152 0.279416 0.503964
Si Si6 0.419713 0.577564 0.858476
O O1 0.350820 0.641941 0.445598
O O2 0.284504 0.644175 0.188103
O O3 0.474671 0.602292 0.229254
O O4 0.426471 0.734032 0.253277
O O5 0.750000 0.250000 0.981599
O O6 0.660389 0.374249 0.057884
O O7 0.635042 0.649329 0.095734
O O8 0.613261 0.504558 0.167925
O O9 0.512942 0.571268 0.968620
O O10 0.937687 0.723950 0.073140
O O11 0.908793 0.706785 0.342464
O O12 0.042294 0.625320 0.228915
O O13 0.250000 0.250000 0.514423
#
# Coordination Sequence:
#
# PCOD9430587 Si02
#       6
#     8   8   8   8   8   8
#     4  10  21  34  55  86 114 148 187 233 278 343
#     4  11  20  32  56  86 114 145 191 233 277 340
#     4   8  18  36  55  77 111 150 187 222 287 342
#     4  10  20  35  58  82 111 150 187 232 290 334
#     4  10  20  36  59  83 106 144 197 244 273 335
#     4   9  17  34  56  78 109 155 180 225 286 342
#
# _framework density 20.634198000000001
#
# number of rings (size 3 to 8) (size 9 to 14) (size 15 to 20)
#    0.000    2.333    1.667    2.000    0.000    0.000 
#    3.000    0.000   11.000    5.000    0.000    0.000 
#    0.000    0.000    0.000    0.000    0.000    0.000 
#
# Total GULP energy -267694.075669 kJ/mol
# GULP energy per Si atom -5576.959910 kJ/mol
# Density = 2.058723 g / cm^3
# Si number density = 20.634198 Si / 1000 Ang^3
#
#
#
# Elastic Constant Matrix: (Units=GPa)
#
#
# Indices 1 2 3 4 5 6 
#
# 1 60.8029 3.2390 29.3651 0.0000 0.0000 0.0000
# 2 3.2390 92.1390 13.3795 0.0000 0.0000 0.0000
# 3 29.3651 13.3795 71.3315 0.0000 0.0000 0.0000
# 4 0.0000 0.0000 0.0000 14.5017 0.0000 0.0000
# 5 0.0000 0.0000 0.0000 0.0000 44.8871 0.0000
# 6 0.0000 0.0000 0.0000 0.0000 0.0000 18.8449
#
#
#
# Elastic Compliance Matrix: (Units=1/GPa)
#
#
# Indices 1 2 3 4 5 6 
#
# 1 0.020552 0.000520 -0.008558 0.000000 0.000000 0.000000
# 2 0.000520 0.011170 -0.002309 0.000000 0.000000 0.000000
# 3 -0.008558 -0.002309 0.017975 0.000000 0.000000 0.000000
# 4 0.000000 0.000000 0.000000 0.068957 0.000000 0.000000
# 5 0.000000 0.000000 0.000000 0.000000 0.022278 0.000000
# 6 0.000000 0.000000 0.000000 0.000000 0.000000 0.053065
#
#
# Mechanical properties :
#
#
# Convention : Reuss Voigt Hill
#
# Bulk Modulus (GPa) = 34.47918 35.13785 34.80852
# Shear Modulus (GPa) = 22.28556 27.53273 24.90914
#
# Velocity S-wave (km/s) = 3.28995 3.65680 3.47822
# Velocity P-wave (km/s) = 5.58370 5.90724 5.74775
#
# Compressibility (1/GPa) = 0.02900301
#
# Stress axis : x y z
#
# Youngs Moduli (GPa) = 48.65667 89.52379 55.63157
#
# Poissons Ratio (x) = -0.04658 0.47611
# Poissons Ratio (y) = -0.02531 0.12847
# Poissons Ratio (z) = 0.41642 0.20674
#
# Static dielectric constant tensor:
#      x y z
#    x 1.753750 0.000000 0.000000 
#    y 0.000000 1.772150 0.000000 
#    z 0.000000 0.000000 1.750720 
# 
# From -- ./inp_files/3375.got.cif
#   From: 2010.05.17/outbox.cif.g08.bks.cpg/sg56_2_cif.got.tgz:3375.got - 2010.06.03 13:42:01.
