data_PCOD9430189
_publ_section_title
;
Structure prediction by ZEFSAII (Michael W. Deem and Ramdas Pophale) SiO2 
 PCOD9430189
Probable space group: P C C N
;
_chemical_formula_sum "Si O2"
_cell_formula_units_Z 52
_cell_length_a 23.937631
_cell_length_b 5.985666
_cell_length_c 17.872832
_cell_angle_alpha 90.000000
_cell_angle_beta 90.000000
_cell_angle_gamma 90.000000
_cell_volume 2560.866982
_symmetry_space_group_name_H-M "P C C N"
_symmetry_group_IT_number 56
_symmetry_cell_setting 'orthorhombic'
loop_
_space_group_symop_operation_xyz
x,y,z
1/2-x,1/2-y,z
1/2+x,-y,1/2-z
-x,1/2+y,1/2-z
-x,-y,-z
1/2+x,1/2+y,-z
1/2-x,y,1/2+z
x,1/2-y,1/2+z
loop_
_atom_site_type_symbol
_atom_site_label
_atom_site_fract_x
_atom_site_fract_y
_atom_site_fract_z
Si Si1 0.010117 0.547054 0.414204
Si Si2 0.198677 0.618319 0.476888
Si Si3 0.859595 0.509116 0.926473
Si Si4 0.750000 0.750000 0.413548
Si Si5 0.119078 0.233312 0.922410
Si Si6 0.948130 0.216551 0.318371
Si Si7 0.440627 0.939632 0.831411
O O1 0.064115 0.397932 0.399405
O O2 0.028565 0.796084 0.395735
O O3 0.000000 0.500000 0.500000
O O4 0.960839 0.444043 0.364594
O O5 0.250000 0.750000 0.440384
O O6 0.226312 0.451056 0.536466
O O7 0.166799 0.452733 0.421321
O O8 0.161295 0.793516 0.524556
O O9 0.807292 0.631442 0.884018
O O10 0.906889 0.432490 0.868591
O O11 0.881711 0.674951 0.992069
O O12 0.113657 0.442270 0.866673
O O13 0.924793 0.283079 0.237773
O O14 0.007956 0.096705 0.304354
#
# Coordination Sequence:
#
# PCOD9430189 Si02
#       7
#     8   8   8   4   8   8   8
#     4  11  21  35  55  80 118 155 200 245 286 359
#     4   9  17  33  57  87 116 138 189 254 306 358
#     4  10  19  35  59  87 115 148 198 250 312 361
#     4   8  18  34  54  92 114 136 188 256 302 358
#     4  10  20  33  53  85 115 155 193 244 304 356
#     4  11  22  36  54  81 120 164 198 241 303 366
#     4  11  22  37  51  79 127 160 205 240 295 377
#
# _framework density 20.305623000000001
#
# number of rings (size 3 to 8) (size 9 to 14) (size 15 to 20)
#    0.000    1.846    1.538    3.692    0.000    3.692 
#    0.000    0.000    0.000    0.000    0.000   85.077 
#    0.000    0.000    0.000    0.000    0.000    0.154 
#
# Total GULP energy -289615.424542 kJ/mol
# GULP energy per Si atom -5569.527395 kJ/mol
# Density = 2.025941 g / cm^3
# Si number density = 20.305623 Si / 1000 Ang^3
#
#
#
# Elastic Constant Matrix: (Units=GPa)
#
#
# Indices 1 2 3 4 5 6 
#
# 1 91.9792 32.0476 32.0721 0.0000 0.0000 0.0000
# 2 32.0476 81.1894 25.7832 0.0000 0.0000 0.0000
# 3 32.0721 25.7832 84.1889 0.0000 0.0000 0.0000
# 4 0.0000 0.0000 0.0000 19.4001 0.0000 0.0000
# 5 0.0000 0.0000 0.0000 0.0000 10.0860 0.0000
# 6 0.0000 0.0000 0.0000 0.0000 0.0000 40.9933
#
#
#
# Elastic Compliance Matrix: (Units=1/GPa)
#
#
# Indices 1 2 3 4 5 6 
#
# 1 0.013695 -0.004153 -0.003945 0.000000 0.000000 0.000000
# 2 -0.004153 0.014903 -0.002982 0.000000 0.000000 0.000000
# 3 -0.003945 -0.002982 0.014294 0.000000 0.000000 0.000000
# 4 0.000000 0.000000 0.000000 0.051546 0.000000 0.000000
# 5 0.000000 0.000000 0.000000 0.000000 0.099147 0.000000
# 6 0.000000 0.000000 0.000000 0.000000 0.000000 0.024394
#
#
# Mechanical properties :
#
#
# Convention : Reuss Voigt Hill
#
# Bulk Modulus (GPa) = 48.23507 48.57370 48.40438
# Shear Modulus (GPa) = 20.23876 25.25950 22.74913
#
# Velocity S-wave (km/s) = 3.16049 3.53082 3.35077
# Velocity P-wave (km/s) = 6.09298 6.37146 6.23377
#
# Compressibility (1/GPa) = 0.02073180
#
# Stress axis : x y z
#
# Youngs Moduli (GPa) = 73.02154 67.10005 69.95799
#
# Poissons Ratio (x) = 0.27865 0.27600
# Poissons Ratio (y) = 0.30324 0.20862
# Poissons Ratio (z) = 0.28809 0.20010
#
# Static dielectric constant tensor:
#      x y z
#    x 1.686020 0.000000 0.000000 
#    y 0.000000 1.865960 0.000000 
#    z 0.000000 0.000000 1.727340 
# 
# From -- ./inp_files/17012.got.cif
#   From: 2010.05.17/outbox.cif.g08.bks.cpg/sg56_9_cif.got.tgz:17012.got - 2010.06.03 13:42:01.
