data_PCOD9430302
_publ_section_title
;
Structure prediction by ZEFSAII (Michael W. Deem and Ramdas Pophale) SiO2 
 PCOD9430302
Probable space group: P C C N
;
_chemical_formula_sum "Si O2"
_cell_formula_units_Z 60
_cell_length_a 30.822736
_cell_length_b 8.493326
_cell_length_c 9.522892
_cell_angle_alpha 90.000000
_cell_angle_beta 90.000000
_cell_angle_gamma 90.000000
_cell_volume 2492.974519
_symmetry_space_group_name_H-M "P C C N"
_symmetry_group_IT_number 56
_symmetry_cell_setting 'orthorhombic'
loop_
_space_group_symop_operation_xyz
x,y,z
1/2-x,1/2-y,z
1/2+x,-y,1/2-z
-x,1/2+y,1/2-z
-x,-y,-z
1/2+x,1/2+y,-z
1/2-x,y,1/2+z
x,1/2-y,1/2+z
loop_
_atom_site_type_symbol
_atom_site_label
_atom_site_fract_x
_atom_site_fract_y
_atom_site_fract_z
Si Si1 0.331972 0.908820 0.941988
Si Si2 0.283435 0.043631 0.186098
Si Si3 0.946816 0.974827 0.230391
Si Si4 0.808583 0.622496 0.322928
Si Si5 0.468656 0.121089 0.706813
Si Si6 0.750000 0.250000 0.131312
Si Si7 0.578867 0.486012 0.544579
Si Si8 0.108412 0.155807 0.985072
O O1 0.292772 0.787302 0.957024
O O2 0.321369 0.000607 0.798371
O O3 0.382138 0.862874 0.935266
O O4 0.322448 0.007937 0.081120
O O5 0.298887 0.209166 0.252060
O O6 0.237627 0.079438 0.107556
O O7 0.268408 0.897563 0.279662
O O8 0.965825 0.797477 0.233419
O O9 0.940700 0.029931 0.390303
O O10 0.901286 0.950896 0.150699
O O11 0.982869 0.083038 0.158267
O O12 0.847122 0.629126 0.434044
O O13 0.455617 0.999835 0.831091
O O14 0.431592 0.115053 0.589314
O O15 0.602299 0.659212 0.550954
#
# Coordination Sequence:
#
# PCOD9430302 Si02
#       8
#     8   8   8   8   8   4   8   8
#     4  11  21  42  67  87 133 167 215 265 322 375
#     4  10  22  38  63  92 127 167 213 267 318 376
#     4  10  22  37  65  94 126 165 209 259 318 382
#     4  10  21  38  65  98 120 163 223 268 311 372
#     4  10  20  39  64  88 126 165 208 260 317 372
#     4  10  24  42  60  88 130 178 210 258 324 386
#     4  10  20  36  63  92 125 166 204 260 317 376
#     4  10  19  37  64  96 124 160 211 266 309 368
#
# _framework density 24.067636
#
# number of rings (size 3 to 8) (size 9 to 14) (size 15 to 20)
#    0.000    1.867    2.667    1.200    0.000    4.267 
#    4.800    1.333    8.800    0.000    0.000    0.000 
#    0.000    0.000    0.000    0.000    0.000    0.000 
#
# Total GULP energy -335132.125098 kJ/mol
# GULP energy per Si atom -5585.535418 kJ/mol
# Density = 2.401286 g / cm^3
# Si number density = 24.067636 Si / 1000 Ang^3
#
#
#
# Elastic Constant Matrix: (Units=GPa)
#
#
# Indices 1 2 3 4 5 6 
#
# 1 106.7690 16.0157 4.0644 0.0000 0.0000 0.0000
# 2 16.0157 28.6479 -4.3013 0.0000 0.0000 0.0000
# 3 4.0644 -4.3013 40.7369 0.0000 0.0000 0.0000
# 4 0.0000 0.0000 0.0000 10.0825 0.0000 0.0000
# 5 0.0000 0.0000 0.0000 0.0000 33.6187 0.0000
# 6 0.0000 0.0000 0.0000 0.0000 0.0000 31.2378
#
#
#
# Elastic Compliance Matrix: (Units=1/GPa)
#
#
# Indices 1 2 3 4 5 6 
#
# 1 0.010334 -0.006027 -0.001667 0.000000 0.000000 0.000000
# 2 -0.006027 0.038984 0.004718 0.000000 0.000000 0.000000
# 3 -0.001667 0.004718 0.025212 0.000000 0.000000 0.000000
# 4 0.000000 0.000000 0.000000 0.099182 0.000000 0.000000
# 5 0.000000 0.000000 0.000000 0.000000 0.029745 0.000000
# 6 0.000000 0.000000 0.000000 0.000000 0.000000 0.032012
#
#
# Mechanical properties :
#
#
# Convention : Reuss Voigt Hill
#
# Bulk Modulus (GPa) = 14.58238 23.07907 18.83072
# Shear Modulus (GPa) = 18.91909 25.67946 22.29928
#
# Velocity S-wave (km/s) = 2.80675 3.27000 3.04719
# Velocity P-wave (km/s) = 4.07135 4.88541 4.49684
#
# Compressibility (1/GPa) = 0.06857592
#
# Stress axis : x y z
#
# Youngs Moduli (GPa) = 96.77151 25.65122 39.66327
#
# Poissons Ratio (x) = 0.15461 0.06614
# Poissons Ratio (y) = 0.58328 -0.18712
# Poissons Ratio (z) = 0.16136 -0.12101
#
# Static dielectric constant tensor:
#      x y z
#    x 1.904570 0.000000 0.000000 
#    y 0.000000 2.021900 0.000000 
#    z 0.000000 0.000000 1.914180 
# 
# From -- ./inp_files/9163.got.cif
#   From: 2010.05.17/outbox.cif.g08.bks.cpg/sg56_5_cif.got.tgz:9163.got - 2010.06.03 13:42:01.
