data_PCOD9430561
_publ_section_title
;
Structure prediction by ZEFSAII (Michael W. Deem and Ramdas Pophale) SiO2 
 PCOD9430561
Probable space group: P C C N
;
_chemical_formula_sum "Si O2"
_cell_formula_units_Z 44
_cell_length_a 8.238644
_cell_length_b 18.725841
_cell_length_c 12.131690
_cell_angle_alpha 90.000000
_cell_angle_beta 90.000000
_cell_angle_gamma 90.000000
_cell_volume 1871.622997
_symmetry_space_group_name_H-M "P C C N"
_symmetry_group_IT_number 56
_symmetry_cell_setting 'orthorhombic'
loop_
_space_group_symop_operation_xyz
x,y,z
1/2-x,1/2-y,z
1/2+x,-y,1/2-z
-x,1/2+y,1/2-z
-x,-y,-z
1/2+x,1/2+y,-z
1/2-x,y,1/2+z
x,1/2-y,1/2+z
loop_
_atom_site_type_symbol
_atom_site_label
_atom_site_fract_x
_atom_site_fract_y
_atom_site_fract_z
Si Si1 0.615128 0.602040 0.912452
Si Si2 0.250000 0.250000 0.594153
Si Si3 0.489360 0.700330 0.583710
Si Si4 0.992862 0.471254 0.263665
Si Si5 0.677290 0.560004 0.615740
Si Si6 0.128613 0.847092 0.102162
O O1 0.542316 0.542564 0.833841
O O2 0.687573 0.674467 0.858324
O O3 0.746214 0.565035 0.994150
O O4 0.475468 0.625839 0.998678
O O5 0.402100 0.275565 0.519505
O O6 0.587136 0.634845 0.633433
O O7 0.458069 0.774881 0.647422
O O8 0.308580 0.671688 0.562871
O O9 0.944756 0.495145 0.141328
O O10 0.877365 0.407922 0.305933
O O11 0.173082 0.448508 0.298221
#
# Coordination Sequence:
#
# PCOD9430561 Si02
#       6
#     8   4   8   8   8   8
#     4   9  19  37  57  80 112 145 180 228 277 326
#     4   8  16  34  56  80 108 144 184 220 270 332
#     4   9  17  32  56  78 107 146 184 222 276 336
#     4  11  21  36  57  82 113 144 186 234 278 328
#     4  10  20  35  55  81 112 147 182 226 276 330
#     4   9  17  32  56  81 105 143 185 227 278 329
#
# _framework density 23.509008999999999
#
# number of rings (size 3 to 8) (size 9 to 14) (size 15 to 20)
#    0.000    2.545    0.000    4.364    0.000    0.000 
#    0.000   23.636    0.000   19.636    0.000    0.000 
#    0.000    0.000    0.000    0.000    0.000    0.000 
#
# Total GULP energy -245663.151205 kJ/mol
# GULP energy per Si atom -5583.253436 kJ/mol
# Density = 2.345550 g / cm^3
# Si number density = 23.509009 Si / 1000 Ang^3
#
#
#
# Elastic Constant Matrix: (Units=GPa)
#
#
# Indices 1 2 3 4 5 6 
#
# 1 127.1383 62.1590 25.5467 0.0000 0.0000 0.0000
# 2 62.1590 149.9623 21.1812 0.0000 0.0000 0.0000
# 3 25.5467 21.1812 27.8712 0.0000 0.0000 0.0000
# 4 0.0000 0.0000 0.0000 35.8657 0.0000 0.0000
# 5 0.0000 0.0000 0.0000 0.0000 9.9549 0.0000
# 6 0.0000 0.0000 0.0000 0.0000 0.0000 56.8525
#
#
#
# Elastic Compliance Matrix: (Units=1/GPa)
#
#
# Indices 1 2 3 4 5 6 
#
# 1 0.011102 -0.003545 -0.007482 0.000000 0.000000 0.000000
# 2 -0.003545 0.008602 -0.003288 0.000000 0.000000 0.000000
# 3 -0.007482 -0.003288 0.045236 0.000000 0.000000 0.000000
# 4 0.000000 0.000000 0.000000 0.027882 0.000000 0.000000
# 5 0.000000 0.000000 0.000000 0.000000 0.100453 0.000000
# 6 0.000000 0.000000 0.000000 0.000000 0.000000 0.017589
#
#
# Mechanical properties :
#
#
# Convention : Reuss Voigt Hill
#
# Bulk Modulus (GPa) = 27.54043 58.08286 42.81164
# Shear Modulus (GPa) = 19.87295 33.60694 26.73995
#
# Velocity S-wave (km/s) = 2.91062 3.78502 3.37625
# Velocity P-wave (km/s) = 4.79957 6.62285 5.78351
#
# Compressibility (1/GPa) = 0.03631025
#
# Stress axis : x y z
#
# Youngs Moduli (GPa) = 90.07361 116.25017 22.10620
#
# Poissons Ratio (x) = 0.41210 0.16540
# Poissons Ratio (y) = 0.31931 0.07269
# Poissons Ratio (z) = 0.67393 0.38223
#
# Static dielectric constant tensor:
#      x y z
#    x 1.948240 0.000000 0.000000 
#    y 0.000000 1.898850 0.000000 
#    z 0.000000 0.000000 1.894090 
# 
# From -- ./inp_files/10601.got.cif
#   From: 2010.05.17/outbox.cif.g08.bks.cpg/sg56_6_cif.got.tgz:10601.got - 2010.06.03 13:42:01.
