data_PCOD9430291
_publ_section_title
;
Structure prediction by ZEFSAII (Michael W. Deem and Ramdas Pophale) SiO2 
 PCOD9430291
Probable space group: P C C N
;
_chemical_formula_sum "Si O2"
_cell_formula_units_Z 60
_cell_length_a 10.092416
_cell_length_b 20.215971
_cell_length_c 15.542251
_cell_angle_alpha 90.000000
_cell_angle_beta 90.000000
_cell_angle_gamma 90.000000
_cell_volume 3171.054219
_symmetry_space_group_name_H-M "P C C N"
_symmetry_group_IT_number 56
_symmetry_cell_setting 'orthorhombic'
loop_
_space_group_symop_operation_xyz
x,y,z
1/2-x,1/2-y,z
1/2+x,-y,1/2-z
-x,1/2+y,1/2-z
-x,-y,-z
1/2+x,1/2+y,-z
1/2-x,y,1/2+z
x,1/2-y,1/2+z
loop_
_atom_site_type_symbol
_atom_site_label
_atom_site_fract_x
_atom_site_fract_y
_atom_site_fract_z
Si Si1 0.273798 0.827380 0.739645
Si Si2 0.250000 0.250000 0.892394
Si Si3 0.600980 0.536578 0.063283
Si Si4 0.776675 0.076523 0.610771
Si Si5 0.921789 0.559491 0.849175
Si Si6 0.434457 0.141516 0.307352
Si Si7 0.359752 0.123892 0.979935
Si Si8 0.857839 0.084358 0.410745
O O1 0.250000 0.750000 0.735108
O O2 0.237220 0.861099 0.830792
O O3 0.431440 0.833692 0.733258
O O4 0.205367 0.867069 0.660373
O O5 0.157182 0.201892 0.836085
O O6 0.328867 0.198061 0.951224
O O7 0.664206 0.478605 0.120363
O O8 0.526069 0.594396 0.113466
O O9 0.731438 0.576560 0.030816
O O10 0.500000 0.500000 0.000000
O O11 0.795647 0.088617 0.507606
O O12 0.918228 0.050108 0.647276
O O13 0.871037 0.590830 0.760909
O O14 0.852937 0.491135 0.876601
O O15 0.898176 0.614891 0.921488
O O16 0.486159 0.099650 0.925304
#
# Coordination Sequence:
#
# PCOD9430291 Si02
#       8
#     8   4   8   8   8   8   8   8
#     4  11  24  39  58  87 122 161 206 245 306 374
#     4  10  22  40  56  84 130 168 202 248 308 364
#     4  11  20  37  58  89 123 149 199 257 311 354
#     4  10  20  38  60  88 121 147 201 256 303 363
#     4  10  19  37  63  90 114 156 206 256 306 361
#     4  10  23  38  58  87 124 159 202 256 300 373
#     4  10  20  37  62  86 117 163 206 246 304 378
#     4  11  19  38  67  87 118 162 203 254 312 362
#
# _framework density 18.921153
#
# number of rings (size 3 to 8) (size 9 to 14) (size 15 to 20)
#    0.000    1.600    2.667    3.200    0.000    1.067 
#    0.000   12.000    0.000    0.000    0.000    0.000 
#    0.000    0.000    0.000    0.000    0.000    0.000 
#
# Total GULP energy -334405.786776 kJ/mol
# GULP energy per Si atom -5573.429780 kJ/mol
# Density = 1.887809 g / cm^3
# Si number density = 18.921153 Si / 1000 Ang^3
#
#
#
# Elastic Constant Matrix: (Units=GPa)
#
#
# Indices 1 2 3 4 5 6 
#
# 1 45.4241 41.6051 22.6597 0.0000 0.0000 0.0000
# 2 41.6051 163.2055 79.9073 0.0000 0.0000 0.0000
# 3 22.6597 79.9073 82.4040 0.0000 0.0000 0.0000
# 4 0.0000 0.0000 0.0000 29.0259 0.0000 0.0000
# 5 0.0000 0.0000 0.0000 0.0000 18.6930 0.0000
# 6 0.0000 0.0000 0.0000 0.0000 0.0000 27.3411
#
#
#
# Elastic Compliance Matrix: (Units=1/GPa)
#
#
# Indices 1 2 3 4 5 6 
#
# 1 0.028821 -0.006601 -0.001525 0.000000 0.000000 0.000000
# 2 -0.006601 0.013178 -0.010963 0.000000 0.000000 0.000000
# 3 -0.001525 -0.010963 0.023186 0.000000 0.000000 0.000000
# 4 0.000000 0.000000 0.000000 0.034452 0.000000 0.000000
# 5 0.000000 0.000000 0.000000 0.000000 0.053496 0.000000
# 6 0.000000 0.000000 0.000000 0.000000 0.000000 0.036575
#
#
# Mechanical properties :
#
#
# Convention : Reuss Voigt Hill
#
# Bulk Modulus (GPa) = 37.02719 64.37534 50.70126
# Shear Modulus (GPa) = 21.10709 24.80276 22.95492
#
# Velocity S-wave (km/s) = 3.34358 3.62449 3.48686
# Velocity P-wave (km/s) = 5.87518 7.18420 6.56241
#
# Compressibility (1/GPa) = 0.02700718
#
# Stress axis : x y z
#
# Youngs Moduli (GPa) = 34.69686 75.88562 43.12996
#
# Poissons Ratio (x) = 0.50090 0.06575
# Poissons Ratio (y) = 0.22903 0.47285
# Poissons Ratio (z) = 0.05290 0.83196
#
# Static dielectric constant tensor:
#      x y z
#    x 1.680650 0.000000 0.000000 
#    y 0.000000 1.646830 0.000000 
#    z 0.000000 0.000000 1.689830 
# 
# From -- ./inp_files/11806.got.cif
#   From: 2010.05.17/outbox.cif.g08.bks.cpg/sg56_6_cif.got.tgz:11806.got - 2010.06.03 13:42:01.
