data_PCOD9430493
_publ_section_title
;
Structure prediction by ZEFSAII (Michael W. Deem and Ramdas Pophale) SiO2 
 PCOD9430493
Probable space group: P C C N
;
_chemical_formula_sum "Si O2"
_cell_formula_units_Z 64
_cell_length_a 29.431857
_cell_length_b 14.490218
_cell_length_c 9.532116
_cell_angle_alpha 90.000000
_cell_angle_beta 90.000000
_cell_angle_gamma 90.000000
_cell_volume 4065.199868
_symmetry_space_group_name_H-M "P C C N"
_symmetry_group_IT_number 56
_symmetry_cell_setting 'orthorhombic'
loop_
_space_group_symop_operation_xyz
x,y,z
1/2-x,1/2-y,z
1/2+x,-y,1/2-z
-x,1/2+y,1/2-z
-x,-y,-z
1/2+x,1/2+y,-z
1/2-x,y,1/2+z
x,1/2-y,1/2+z
loop_
_atom_site_type_symbol
_atom_site_label
_atom_site_fract_x
_atom_site_fract_y
_atom_site_fract_z
Si Si1 0.001842 0.748886 0.422921
Si Si2 0.608318 0.571965 0.211614
Si Si3 0.058305 0.261732 0.824781
Si Si4 0.204471 0.348545 0.952886
Si Si5 0.203685 0.154300 0.794000
Si Si6 0.028686 0.547851 0.378334
Si Si7 0.389982 0.435411 0.452931
Si Si8 0.527591 0.042966 0.128893
O O1 0.030791 0.657592 0.397172
O O2 0.019903 0.847208 0.369222
O O3 0.987851 0.757863 0.584764
O O4 0.955492 0.728293 0.336828
O O5 0.584777 0.666539 0.162763
O O6 0.661651 0.585052 0.184618
O O7 0.579143 0.492332 0.139670
O O8 0.602184 0.563691 0.379665
O O9 0.086993 0.345136 0.885684
O O10 0.192836 0.252132 0.871881
O O11 0.250841 0.377674 0.874609
O O12 0.163675 0.421168 0.931508
O O13 0.209576 0.333873 0.123285
O O14 0.000000 0.500000 0.500000
O O15 0.997528 0.512765 0.250730
O O16 0.419307 0.518126 0.386937
O O17 0.500000 0.000000 0.000000
#
# Coordination Sequence:
#
# PCOD9430493 Si02
#       8
#     8   8   8   8   8   8   8   8
#     4  12  22  32  52  70 106 142 174 216 243 297
#     4  11  21  34  50  75 105 137 177 207 258 308
#     4  12  18  32  49  72 100 138 172 204 250 295
#     4  10  20  34  51  76 101 132 173 214 264 312
#     4  10  20  34  52  74 103 132 172 218 260 317
#     4  12  22  34  48  78 108 134 179 218 255 300
#     4  11  21  33  53  74  99 143 178 205 251 316
#     4  12  20  36  52  72 102 142 180 207 249 310
#
# _framework density 15.743383
#
# number of rings (size 3 to 8) (size 9 to 14) (size 15 to 20)
#    0.000    0.750    8.750    1.500    0.000    0.000 
#    6.750    0.000    0.000    0.000    0.000    0.875 
#    0.000    4.000    0.000    0.000    0.000    0.000 
#
# Total GULP energy -356636.943144 kJ/mol
# GULP energy per Si atom -5572.452237 kJ/mol
# Density = 1.570755 g / cm^3
# Si number density = 15.743383 Si / 1000 Ang^3
#
#
#
# Elastic Constant Matrix: (Units=GPa)
#
#
# Indices 1 2 3 4 5 6 
#
# 1 103.8059 28.7168 20.2461 0.0000 0.0000 0.0000
# 2 28.7168 74.2461 3.9250 0.0000 0.0000 0.0000
# 3 20.2461 3.9250 76.9094 0.0000 0.0000 0.0000
# 4 0.0000 0.0000 0.0000 15.7227 0.0000 0.0000
# 5 0.0000 0.0000 0.0000 0.0000 17.6856 0.0000
# 6 0.0000 0.0000 0.0000 0.0000 0.0000 29.1656
#
#
#
# Elastic Compliance Matrix: (Units=1/GPa)
#
#
# Indices 1 2 3 4 5 6 
#
# 1 0.011347 -0.004242 -0.002771 0.000000 0.000000 0.000000
# 2 -0.004242 0.015091 0.000347 0.000000 0.000000 0.000000
# 3 -0.002771 0.000347 0.013714 0.000000 0.000000 0.000000
# 4 0.000000 0.000000 0.000000 0.063602 0.000000 0.000000
# 5 0.000000 0.000000 0.000000 0.000000 0.056543 0.000000
# 6 0.000000 0.000000 0.000000 0.000000 0.000000 0.034287
#
#
# Mechanical properties :
#
#
# Convention : Reuss Voigt Hill
#
# Bulk Modulus (GPa) = 37.28600 40.08192 38.68396
# Shear Modulus (GPa) = 23.05657 25.98635 24.52146
#
# Velocity S-wave (km/s) = 3.83106 4.06719 3.95089
# Velocity P-wave (km/s) = 6.58061 6.89716 6.74074
#
# Compressibility (1/GPa) = 0.02681972
#
# Stress axis : x y z
#
# Youngs Moduli (GPa) = 88.12613 66.26344 72.91829
#
# Poissons Ratio (x) = 0.28112 0.20203
# Poissons Ratio (y) = 0.37387 -0.02528
# Poissons Ratio (z) = 0.24417 -0.02297
#
# Static dielectric constant tensor:
#      x y z
#    x 1.618650 0.000000 0.000000 
#    y 0.000000 1.519550 0.000000 
#    z 0.000000 0.000000 1.518200 
# 
# From -- ./inp_files/5239.got.cif
#   From: 2010.05.17/outbox.cif.g08.bks.cpg/sg56_3_cif.got.tgz:5239.got - 2010.06.03 13:42:01.
