data_PCOD9430000
_publ_section_title
;
Structure prediction by ZEFSAII (Michael W. Deem and Ramdas Pophale) SiO2 
 PCOD9430000
Probable space group: P C C N
;
_chemical_formula_sum "Si O2"
_cell_formula_units_Z 64
_cell_length_a 31.151384
_cell_length_b 9.100848
_cell_length_c 8.594220
_cell_angle_alpha 90.000000
_cell_angle_beta 90.000000
_cell_angle_gamma 90.000000
_cell_volume 2436.495839
_symmetry_space_group_name_H-M "P C C N"
_symmetry_group_IT_number 56
_symmetry_cell_setting 'orthorhombic'
loop_
_space_group_symop_operation_xyz
x,y,z
1/2-x,1/2-y,z
1/2+x,-y,1/2-z
-x,1/2+y,1/2-z
-x,-y,-z
1/2+x,1/2+y,-z
1/2-x,y,1/2+z
x,1/2-y,1/2+z
loop_
_atom_site_type_symbol
_atom_site_label
_atom_site_fract_x
_atom_site_fract_y
_atom_site_fract_z
Si Si1 0.912708 0.714158 0.784616
Si Si2 0.715721 0.631988 0.940700
Si Si3 0.109142 0.603491 0.306422
Si Si4 0.686448 0.124470 0.905370
Si Si5 0.858368 0.660398 0.060534
Si Si6 0.733472 0.070420 0.182456
Si Si7 0.494722 0.629139 0.371714
Si Si8 0.941130 0.189872 0.902741
O O1 0.891651 0.571010 0.703328
O O2 0.881409 0.844136 0.726910
O O3 0.963380 0.688680 0.780796
O O4 0.901262 0.697997 0.964411
O O5 0.750000 0.750000 0.874019
O O6 0.703109 0.523613 0.799651
O O7 0.677829 0.716817 0.028069
O O8 0.742646 0.541132 0.066194
O O9 0.150511 0.671411 0.219779
O O10 0.098262 0.645157 0.483928
O O11 0.072203 0.664817 0.192583
O O12 0.728538 0.113620 0.798971
O O13 0.662851 0.982044 0.981481
O O14 0.707686 0.180408 0.067543
O O15 0.500000 0.500000 0.500000
O O16 0.477188 0.764785 0.473994
O O17 0.460186 0.588761 0.235282
#
# Coordination Sequence:
#
# PCOD9430000 Si02
#       8
#     8   8   8   8   8   8   8   8
#     4  11  23  39  57  93 137 165 214 267 334 401
#     4  11  18  27  49  78 122 180 220 236 299 389
#     4  10  22  44  65  96 122 173 222 284 330 405
#     4  10  21  36  60  89 135 168 223 263 325 399
#     4  11  21  33  53  86 138 177 201 262 320 397
#     4  10  19  31  53  85 125 175 215 261 308 383
#     4  11  22  45  70 100 129 169 221 277 338 433
#     4  10  23  45  75  91 125 172 224 276 359 401
#
# _framework density 26.267230000000001
#
# number of rings (size 3 to 8) (size 9 to 14) (size 15 to 20)
#    0.000    1.500    3.750    3.375    0.000    0.500 
#    4.500    7.500    0.000    2.250    0.000    0.000 
#    0.000    0.000    0.000    0.000    0.000    0.000 
#
# Total GULP energy -356866.264353 kJ/mol
# GULP energy per Si atom -5576.035381 kJ/mol
# Density = 2.620744 g / cm^3
# Si number density = 26.267230 Si / 1000 Ang^3
#
#
#
# Elastic Constant Matrix: (Units=GPa)
#
#
# Indices 1 2 3 4 5 6 
#
# 1 137.9035 23.6147 59.1330 0.0000 0.0000 0.0000
# 2 23.6147 37.8553 39.8467 0.0000 0.0000 0.0000
# 3 59.1330 39.8467 165.2272 0.0000 0.0000 0.0000
# 4 0.0000 0.0000 0.0000 45.1596 0.0000 0.0000
# 5 0.0000 0.0000 0.0000 0.0000 65.5105 0.0000
# 6 0.0000 0.0000 0.0000 0.0000 0.0000 27.0694
#
#
#
# Elastic Compliance Matrix: (Units=1/GPa)
#
#
# Indices 1 2 3 4 5 6 
#
# 1 0.008800 -0.002914 -0.002446 0.000000 0.000000 0.000000
# 2 -0.002914 0.036369 -0.007728 0.000000 0.000000 0.000000
# 3 -0.002446 -0.007728 0.008792 0.000000 0.000000 0.000000
# 4 0.000000 0.000000 0.000000 0.022144 0.000000 0.000000
# 5 0.000000 0.000000 0.000000 0.000000 0.015265 0.000000
# 6 0.000000 0.000000 0.000000 0.000000 0.000000 0.036942
#
#
# Mechanical properties :
#
#
# Convention : Reuss Voigt Hill
#
# Bulk Modulus (GPa) = 35.99349 65.13051 50.56200
# Shear Modulus (GPa) = 30.53475 42.10735 36.32105
#
# Velocity S-wave (km/s) = 3.41319 4.00814 3.72257
# Velocity P-wave (km/s) = 5.40978 6.80216 6.14553
#
# Compressibility (1/GPa) = 0.02778280
#
# Stress axis : x y z
#
# Youngs Moduli (GPa) = 113.64278 27.49626 113.74611
#
# Poissons Ratio (x) = 0.08013 0.27828
# Poissons Ratio (y) = 0.33116 0.87901
# Poissons Ratio (z) = 0.27802 0.21249
#
# Static dielectric constant tensor:
#      x y z
#    x 2.112190 0.000000 0.000000 
#    y 0.000000 2.266920 0.000000 
#    z 0.000000 0.000000 2.047650 
# 
# From -- ./inp_files/5213.got.cif
#   From: 2010.05.17/outbox.cif.g08.bks.cpg/sg56_3_cif.got.tgz:5213.got - 2010.06.03 13:42:01.
