data_PCOD9430660
_publ_section_title
;
Structure prediction by ZEFSAII (Michael W. Deem and Ramdas Pophale) SiO2 
 PCOD9430660
Probable space group: P C C N
;
_chemical_formula_sum "Si O2"
_cell_formula_units_Z 48
_cell_length_a 5.246404
_cell_length_b 25.729838
_cell_length_c 14.304736
_cell_angle_alpha 90.000000
_cell_angle_beta 90.000000
_cell_angle_gamma 90.000000
_cell_volume 1930.983796
_symmetry_space_group_name_H-M "P C C N"
_symmetry_group_IT_number 56
_symmetry_cell_setting 'orthorhombic'
loop_
_space_group_symop_operation_xyz
x,y,z
1/2-x,1/2-y,z
1/2+x,-y,1/2-z
-x,1/2+y,1/2-z
-x,-y,-z
1/2+x,1/2+y,-z
1/2-x,y,1/2+z
x,1/2-y,1/2+z
loop_
_atom_site_type_symbol
_atom_site_label
_atom_site_fract_x
_atom_site_fract_y
_atom_site_fract_z
Si Si1 0.843564 0.139766 0.937286
Si Si2 0.751239 0.943445 0.481643
Si Si3 0.799651 0.416892 0.775771
Si Si4 0.080814 0.012122 0.845570
Si Si5 0.597568 0.357326 0.615056
Si Si6 0.993222 0.784475 0.225280
O O1 0.630879 0.110701 0.872208
O O2 0.971514 0.177632 0.863208
O O3 0.715370 0.168788 0.023846
O O4 0.029689 0.097339 0.985330
O O5 0.800559 0.975586 0.578292
O O6 0.954386 0.907991 0.427108
O O7 0.633094 0.985821 0.411506
O O8 0.506735 0.434072 0.798593
O O9 0.901968 0.470736 0.737328
O O10 0.807680 0.378486 0.688579
O O11 0.445587 0.318301 0.680859
O O12 0.250000 0.750000 0.236289
O O13 0.750000 0.750000 0.208008
#
# Coordination Sequence:
#
# PCOD9430660 Si02
#       6
#     8   8   8   8   8   8
#     4  10  24  45  67 104 139 181 239 295 369 436
#     4  10  22  39  63  97 138 190 239 288 347 421
#     4  10  21  37  60  96 139 187 229 289 342 410
#     4  10  20  36  58  98 142 186 247 280 334 415
#     4  11  24  44  72  98 140 188 232 300 373 433
#     4  11  29  53  77 111 142 181 242 312 388 458
#
# _framework density 24.857793000000001
#
# number of rings (size 3 to 8) (size 9 to 14) (size 15 to 20)
#    0.000    1.667    1.667    1.000    7.000    1.333 
#    0.000    0.000    0.000    0.000    0.000    0.000 
#    0.000    0.000    0.000    0.000    0.000    0.000 
#
# Total GULP energy -268094.811385 kJ/mol
# GULP energy per Si atom -5585.308571 kJ/mol
# Density = 2.480122 g / cm^3
# Si number density = 24.857793 Si / 1000 Ang^3
#
#
#
# Elastic Constant Matrix: (Units=GPa)
#
#
# Indices 1 2 3 4 5 6 
#
# 1 61.2727 31.8787 31.8609 0.0000 0.0000 0.0000
# 2 31.8787 107.3410 49.8531 0.0000 0.0000 0.0000
# 3 31.8609 49.8531 217.6281 0.0000 0.0000 0.0000
# 4 0.0000 0.0000 0.0000 -82.8358 0.0000 0.0000
# 5 0.0000 0.0000 0.0000 0.0000 24.3719 0.0000
# 6 0.0000 0.0000 0.0000 0.0000 0.0000 51.1499
#
#
#
# Elastic Compliance Matrix: (Units=1/GPa)
#
#
# Indices 1 2 3 4 5 6 
#
# 1 0.019877 -0.005094 -0.001743 0.000000 0.000000 0.000000
# 2 -0.005094 0.011730 -0.001941 0.000000 0.000000 0.000000
# 3 -0.001743 -0.001941 0.005295 0.000000 0.000000 0.000000
# 4 0.000000 0.000000 0.000000 -0.012072 0.000000 0.000000
# 5 0.000000 0.000000 0.000000 0.000000 0.041031 0.000000
# 6 0.000000 0.000000 0.000000 0.000000 0.000000 0.019550
#
#
# Mechanical properties :
#
#
# Convention : Reuss Voigt Hill
#
# Bulk Modulus (GPa) = 51.69031 68.15856 59.92444
# Shear Modulus (GPa) = 45.69685 16.71379 31.20532
#
# Velocity S-wave (km/s) = 4.29223 2.59584 3.54694
# Velocity P-wave (km/s) = 6.73824 6.03849 6.39794
#
# Compressibility (1/GPa) = 0.01934598
#
# Stress axis : x y z
#
# Youngs Moduli (GPa) = 50.30945 85.24786 188.85953
#
# Poissons Ratio (x) = 0.43421 0.32922
# Poissons Ratio (y) = 0.25625 0.36666
# Poissons Ratio (z) = 0.08770 0.16551
#
# Static dielectric constant tensor:
#      x y z
#    x 1.958300 0.000000 0.000000 
#    y 0.000000 1.682190 0.000000 
#    z 0.000000 0.000000 1.991360 
# 
# From -- ./inp_files/9680.got.cif
#   From: 2010.05.17/outbox.cif.g08.bks.cpg/sg56_5_cif.got.tgz:9680.got - 2010.06.03 13:42:01.
