data_PCOD9430142
_publ_section_title
;
Structure prediction by ZEFSAII (Michael W. Deem and Ramdas Pophale) SiO2 
 PCOD9430142
Probable space group: P C C N
;
_chemical_formula_sum "Si O2"
_cell_formula_units_Z 60
_cell_length_a 9.122483
_cell_length_b 12.389581
_cell_length_c 26.379405
_cell_angle_alpha 90.000000
_cell_angle_beta 90.000000
_cell_angle_gamma 90.000000
_cell_volume 2981.499066
_symmetry_space_group_name_H-M "P C C N"
_symmetry_group_IT_number 56
_symmetry_cell_setting 'orthorhombic'
loop_
_space_group_symop_operation_xyz
x,y,z
1/2-x,1/2-y,z
1/2+x,-y,1/2-z
-x,1/2+y,1/2-z
-x,-y,-z
1/2+x,1/2+y,-z
1/2-x,y,1/2+z
x,1/2-y,1/2+z
loop_
_atom_site_type_symbol
_atom_site_label
_atom_site_fract_x
_atom_site_fract_y
_atom_site_fract_z
Si Si1 0.589097 0.562701 0.957649
Si Si2 0.684419 0.365556 0.231110
Si Si3 0.404261 0.283531 0.279258
Si Si4 0.600144 0.083290 0.305735
Si Si5 0.630659 0.051559 0.627995
Si Si6 0.225144 0.872930 0.595126
Si Si7 0.113399 0.118140 0.392062
Si Si8 0.750000 0.750000 0.519268
O O1 0.467408 0.601044 0.916660
O O2 0.692327 0.469580 0.933828
O O3 0.500000 0.500000 0.000000
O O4 0.676612 0.659831 0.983781
O O5 0.750000 0.250000 0.246130
O O6 0.516293 0.362569 0.250024
O O7 0.785949 0.450709 0.261488
O O8 0.702524 0.375220 0.171033
O O9 0.250000 0.250000 0.254817
O O10 0.490480 0.171682 0.283907
O O11 0.375982 0.327695 0.336271
O O12 0.703453 0.132123 0.349288
O O13 0.491152 0.007636 0.337130
O O14 0.757286 0.971573 0.607095
O O15 0.250000 0.750000 0.573874
O O16 0.057163 0.909658 0.601585
O O17 0.139982 0.195770 0.440210
#
# Coordination Sequence:
#
# PCOD9430142 Si02
#       8
#     8   8   8   8   8   8   8   4
#     4  11  25  48  67  98 133 179 226 289 349 398
#     4  10  23  41  58  94 136 170 213 266 337 410
#     4  11  19  35  62  97 126 168 215 266 333 397
#     4  10  19  34  62  91 131 169 212 269 324 393
#     4  11  24  41  64  95 131 177 222 276 347 402
#     4  11  21  38  67 102 134 170 221 287 336 400
#     4  12  21  38  70 100 124 169 229 285 328 393
#     4  12  24  46  74  92 134 174 234 286 336 406
#
# _framework density 20.124106000000001
#
# number of rings (size 3 to 8) (size 9 to 14) (size 15 to 20)
#    0.000    1.067    6.000    1.200    1.867    0.533 
#    3.600    3.333    0.000    0.000    0.000    0.000 
#    0.000    0.000    0.000    0.000    0.000    0.000 
#
# Total GULP energy -334314.314645 kJ/mol
# GULP energy per Si atom -5571.905244 kJ/mol
# Density = 2.007830 g / cm^3
# Si number density = 20.124106 Si / 1000 Ang^3
#
#
#
# Elastic Constant Matrix: (Units=GPa)
#
#
# Indices 1 2 3 4 5 6 
#
# 1 136.3476 33.7883 33.5642 0.0000 0.0000 0.0000
# 2 33.7883 58.2094 31.7313 0.0000 0.0000 0.0000
# 3 33.5642 31.7313 74.4209 0.0000 0.0000 0.0000
# 4 0.0000 0.0000 0.0000 47.8765 0.0000 0.0000
# 5 0.0000 0.0000 0.0000 0.0000 33.3693 0.0000
# 6 0.0000 0.0000 0.0000 0.0000 0.0000 16.4725
#
#
#
# Elastic Compliance Matrix: (Units=1/GPa)
#
#
# Indices 1 2 3 4 5 6 
#
# 1 0.008872 -0.003867 -0.002352 0.000000 0.000000 0.000000
# 2 -0.003867 0.024067 -0.008518 0.000000 0.000000 0.000000
# 3 -0.002352 -0.008518 0.018130 0.000000 0.000000 0.000000
# 4 0.000000 0.000000 0.000000 0.020887 0.000000 0.000000
# 5 0.000000 0.000000 0.000000 0.000000 0.029968 0.000000
# 6 0.000000 0.000000 0.000000 0.000000 0.000000 0.060707
#
#
# Mechanical properties :
#
#
# Convention : Reuss Voigt Hill
#
# Bulk Modulus (GPa) = 46.30841 51.90505 49.10673
# Shear Modulus (GPa) = 25.08746 30.86994 27.97870
#
# Velocity S-wave (km/s) = 3.53461 3.92085 3.73273
# Velocity P-wave (km/s) = 6.30232 6.80778 6.55992
#
# Compressibility (1/GPa) = 0.02159435
#
# Stress axis : x y z
#
# Youngs Moduli (GPa) = 112.71928 41.55009 55.15849
#
# Poissons Ratio (x) = 0.16069 0.12974
# Poissons Ratio (y) = 0.43593 0.46981
# Poissons Ratio (z) = 0.26513 0.35390
#
# Static dielectric constant tensor:
#      x y z
#    x 1.754280 0.000000 0.000000 
#    y 0.000000 1.782930 0.000000 
#    z 0.000000 0.000000 1.729440 
# 
# From -- ./inp_files/22112.got.cif
#   From: 2010.05.17/outbox.cif.g08.bks.cpg/sg56_12_cif.got.tgz:22112.got - 2010.06.03 13:42:01.
