data_PCOD9430604
_publ_section_title
;
Structure prediction by ZEFSAII (Michael W. Deem and Ramdas Pophale) SiO2 
 PCOD9430604
Probable space group: P C C N
;
_chemical_formula_sum "Si O2"
_cell_formula_units_Z 52
_cell_length_a 6.597538
_cell_length_b 18.379959
_cell_length_c 24.803526
_cell_angle_alpha 90.000000
_cell_angle_beta 90.000000
_cell_angle_gamma 90.000000
_cell_volume 3007.737024
_symmetry_space_group_name_H-M "P C C N"
_symmetry_group_IT_number 56
_symmetry_cell_setting 'orthorhombic'
loop_
_space_group_symop_operation_xyz
x,y,z
1/2-x,1/2-y,z
1/2+x,-y,1/2-z
-x,1/2+y,1/2-z
-x,-y,-z
1/2+x,1/2+y,-z
1/2-x,y,1/2+z
x,1/2-y,1/2+z
loop_
_atom_site_type_symbol
_atom_site_label
_atom_site_fract_x
_atom_site_fract_y
_atom_site_fract_z
Si Si1 0.934480 0.429226 0.212370
Si Si2 0.750000 0.750000 0.039274
Si Si3 0.865044 0.173712 0.411676
Si Si4 0.159127 0.832236 0.865431
Si Si5 0.827369 0.830424 0.777393
Si Si6 0.124026 0.824985 0.986562
Si Si7 0.609229 0.085645 0.803400
O O1 0.802836 0.385954 0.168235
O O2 0.810724 0.429949 0.268470
O O3 0.141110 0.385363 0.220331
O O4 0.984855 0.510734 0.194358
O O5 0.592968 0.800519 0.072722
O O6 0.601834 0.698402 0.004155
O O7 0.750000 0.250000 0.398897
O O8 0.744863 0.139903 0.463243
O O9 0.855253 0.120242 0.361491
O O10 0.250000 0.750000 0.863488
O O11 0.133247 0.857868 0.927126
O O12 0.946674 0.830243 0.833985
O O13 0.750000 0.750000 0.765664
O O14 0.982380 0.856838 0.731904
O O15 0.250000 0.750000 0.981029
#
# Coordination Sequence:
#
# PCOD9430604 Si02
#       7
#     8   4   8   8   8   8   8
#     4  11  23  41  54  84 118 153 190 228 301 335
#     4   8  16  32  54  84 110 144 188 224 288 326
#     4   9  20  35  56  85 110 148 190 233 277 331
#     4  10  20  35  59  87 117 144 190 240 275 345
#     4  11  23  35  59  88 110 152 196 234 285 333
#     4   8  17  33  54  85 116 143 184 236 281 328
#     4  11  24  39  57  80 120 154 186 240 283 353
#
# _framework density 17.288747000000001
#
# number of rings (size 3 to 8) (size 9 to 14) (size 15 to 20)
#    0.000    2.462    3.077    0.000    4.308    2.462 
#    0.000    0.769    0.000    1.846    0.000    0.000 
#    0.000    0.000    0.000    0.000    0.000    0.000 
#
# Total GULP energy -289808.990284 kJ/mol
# GULP energy per Si atom -5573.249813 kJ/mol
# Density = 1.724940 g / cm^3
# Si number density = 17.288747 Si / 1000 Ang^3
#
#
#
# Elastic Constant Matrix: (Units=GPa)
#
#
# Indices 1 2 3 4 5 6 
#
# 1 104.1938 24.6116 46.1231 0.0000 0.0000 0.0000
# 2 24.6116 58.4904 51.0543 0.0000 0.0000 0.0000
# 3 46.1231 51.0543 141.7318 0.0000 0.0000 0.0000
# 4 0.0000 0.0000 0.0000 -0.9696 0.0000 0.0000
# 5 0.0000 0.0000 0.0000 0.0000 6.2177 0.0000
# 6 0.0000 0.0000 0.0000 0.0000 0.0000 26.7177
#
#
#
# Elastic Compliance Matrix: (Units=1/GPa)
#
#
# Indices 1 2 3 4 5 6 
#
# 1 0.011417 -0.002277 -0.002895 0.000000 0.000000 0.000000
# 2 -0.002277 0.025392 -0.008406 0.000000 0.000000 0.000000
# 3 -0.002895 -0.008406 0.011026 0.000000 0.000000 0.000000
# 4 0.000000 0.000000 0.000000 -1.031387 0.000000 0.000000
# 5 0.000000 0.000000 0.000000 0.000000 0.160832 0.000000
# 6 0.000000 0.000000 0.000000 0.000000 0.000000 0.037428
#
#
# Mechanical properties :
#
#
# Convention : Reuss Voigt Hill
#
# Bulk Modulus (GPa) = 48.35835 60.88824 54.62329
# Shear Modulus (GPa) = -6.65563 18.56829 5.95633
#
# Velocity S-wave (km/s) = -1.96419 3.28077 1.85814
# Velocity P-wave (km/s) = 4.78411 7.04600 6.02220
#
# Compressibility (1/GPa) = 0.02067895
#
# Stress axis : x y z
#
# Youngs Moduli (GPa) = 87.58922 39.38265 90.69796
#
# Poissons Ratio (x) = 0.08967 0.26259
# Poissons Ratio (y) = 0.19943 0.76237
# Poissons Ratio (z) = 0.25359 0.33104
#
# Static dielectric constant tensor:
#      x y z
#    x 1.596630 0.000000 0.000000 
#    y 0.000000 1.566360 0.000000 
#    z 0.000000 0.000000 1.611750 
# 
# From -- ./inp_files/21765.got.cif
#   From: 2010.05.17/outbox.cif.g08.bks.cpg/sg56_11_cif.got.tgz:21765.got - 2010.06.03 13:42:01.
