data_PCOD9430026
_publ_section_title
;
Structure prediction by ZEFSAII (Michael W. Deem and Ramdas Pophale) SiO2 
 PCOD9430026
Probable space group: P C C N
;
_chemical_formula_sum "Si O2"
_cell_formula_units_Z 56
_cell_length_a 21.447416
_cell_length_b 17.478305
_cell_length_c 8.029982
_cell_angle_alpha 90.000000
_cell_angle_beta 90.000000
_cell_angle_gamma 90.000000
_cell_volume 3010.155013
_symmetry_space_group_name_H-M "P C C N"
_symmetry_group_IT_number 56
_symmetry_cell_setting 'orthorhombic'
loop_
_space_group_symop_operation_xyz
x,y,z
1/2-x,1/2-y,z
1/2+x,-y,1/2-z
-x,1/2+y,1/2-z
-x,-y,-z
1/2+x,1/2+y,-z
1/2-x,y,1/2+z
x,1/2-y,1/2+z
loop_
_atom_site_type_symbol
_atom_site_label
_atom_site_fract_x
_atom_site_fract_y
_atom_site_fract_z
Si Si1 0.669102 0.398769 0.508730
Si Si2 0.897903 0.491833 0.510989
Si Si3 0.898058 0.238662 0.632190
Si Si4 0.196821 0.880474 0.862388
Si Si5 0.580714 0.525747 0.654945
Si Si6 0.955180 0.577350 0.814212
Si Si7 0.034545 0.660591 0.579550
O O1 0.619504 0.329952 0.508963
O O2 0.730928 0.369279 0.600615
O O3 0.688275 0.414128 0.321044
O O4 0.636353 0.470024 0.595861
O O5 0.833956 0.443394 0.515836
O O6 0.904941 0.545216 0.347899
O O7 0.910175 0.532658 0.686305
O O8 0.948686 0.423394 0.489922
O O9 0.843499 0.302214 0.633529
O O10 0.910073 0.194026 0.803754
O O11 0.960872 0.282166 0.574774
O O12 0.517789 0.474269 0.663824
O O13 0.570590 0.584804 0.502258
O O14 0.977557 0.649921 0.705751
#
# Coordination Sequence:
#
# PCOD9430026 Si02
#       7
#     8   8   8   8   8   8   8
#     4  12  21  35  47  71 102 147 189 223 265 304
#     4  10  19  36  51  76  93 131 184 231 276 319
#     4  11  21  34  47  68 102 145 185 220 255 307
#     4  11  24  32  51  68 106 144 190 227 257 311
#     4  10  19  32  54  71  97 127 179 228 276 320
#     4  10  19  34  54  75  94 130 179 235 276 324
#     4  10  20  33  49  71 100 131 181 222 268 315
#
# _framework density 18.603694000000001
#
# number of rings (size 3 to 8) (size 9 to 14) (size 15 to 20)
#    0.000    1.429    5.714    3.000    2.000    1.143 
#    2.571    0.000    0.000    0.000    0.000    0.000 
#    0.000    0.000    0.000    3.857    1.429    0.000 
#
# Total GULP energy -311850.856806 kJ/mol
# GULP energy per Si atom -5568.765300 kJ/mol
# Density = 1.856135 g / cm^3
# Si number density = 18.603694 Si / 1000 Ang^3
#
#
#
# Elastic Constant Matrix: (Units=GPa)
#
#
# Indices 1 2 3 4 5 6 
#
# 1 26.2099 19.6197 -2.2660 0.0000 0.0000 0.0000
# 2 19.6197 22.9915 3.9333 0.0000 0.0000 0.0000
# 3 -2.2660 3.9333 83.1901 0.0000 0.0000 0.0000
# 4 0.0000 0.0000 0.0000 18.6339 0.0000 0.0000
# 5 0.0000 0.0000 0.0000 0.0000 30.7671 0.0000
# 6 0.0000 0.0000 0.0000 0.0000 0.0000 21.6025
#
#
#
# Elastic Compliance Matrix: (Units=1/GPa)
#
#
# Indices 1 2 3 4 5 6 
#
# 1 0.110079 -0.095219 0.007500 0.000000 0.000000 0.000000
# 2 -0.095219 0.126213 -0.008561 0.000000 0.000000 0.000000
# 3 0.007500 -0.008561 0.012630 0.000000 0.000000 0.000000
# 4 0.000000 0.000000 0.000000 0.053666 0.000000 0.000000
# 5 0.000000 0.000000 0.000000 0.000000 0.032502 0.000000
# 6 0.000000 0.000000 0.000000 0.000000 0.000000 0.046291
#
#
# Mechanical properties :
#
#
# Convention : Reuss Voigt Hill
#
# Bulk Modulus (GPa) = 17.74198 19.44062 18.59130
# Shear Modulus (GPa) = 8.43559 21.60766 15.02162
#
# Velocity S-wave (km/s) = 2.13171 3.41173 2.84466
# Velocity P-wave (km/s) = 3.95177 5.09828 4.56119
#
# Compressibility (1/GPa) = 0.05636348
#
# Stress axis : x y z
#
# Youngs Moduli (GPa) = 9.08438 7.92311 79.17812
#
# Poissons Ratio (x) = 0.75443 -0.59387
# Poissons Ratio (y) = 0.86500 0.67786
# Poissons Ratio (z) = -0.06814 0.06783
#
# Static dielectric constant tensor:
#      x y z
#    x 1.664570 0.000000 0.000000 
#    y 0.000000 1.654310 0.000000 
#    z 0.000000 0.000000 1.759720 
# 
# From -- ./inp_files/4534.got.cif
#   From: 2010.05.17/outbox.cif.g08.bks.cpg/sg56_3_cif.got.tgz:4534.got - 2010.06.03 13:42:01.
