data_PCOD9430285
_publ_section_title
;
Structure prediction by ZEFSAII (Michael W. Deem and Ramdas Pophale) SiO2 
 PCOD9430285
Probable space group: P C C N
;
_chemical_formula_sum "Si O2"
_cell_formula_units_Z 40
_cell_length_a 11.613024
_cell_length_b 8.098226
_cell_length_c 16.961653
_cell_angle_alpha 90.000000
_cell_angle_beta 90.000000
_cell_angle_gamma 90.000000
_cell_volume 1595.156840
_symmetry_space_group_name_H-M "P C C N"
_symmetry_group_IT_number 56
_symmetry_cell_setting 'orthorhombic'
loop_
_space_group_symop_operation_xyz
x,y,z
1/2-x,1/2-y,z
1/2+x,-y,1/2-z
-x,1/2+y,1/2-z
-x,-y,-z
1/2+x,1/2+y,-z
1/2-x,y,1/2+z
x,1/2-y,1/2+z
loop_
_atom_site_type_symbol
_atom_site_label
_atom_site_fract_x
_atom_site_fract_y
_atom_site_fract_z
Si Si1 0.880097 0.553411 0.067581
Si Si2 0.056269 0.721788 0.503159
Si Si3 0.635777 0.137806 0.331086
Si Si4 0.673044 0.418536 0.144304
Si Si5 0.505822 0.569670 0.727372
O O1 0.757985 0.554040 0.109298
O O2 0.967487 0.503653 0.139637
O O3 0.879858 0.399381 0.007668
O O4 0.929114 0.715509 0.025882
O O5 0.110286 0.625893 0.576533
O O6 0.079790 0.627989 0.422485
O O7 0.750000 0.250000 0.323976
O O8 0.530642 0.242915 0.292406
O O9 0.617511 0.970792 0.281220
O O10 0.750000 0.250000 0.155296
O O11 0.607126 0.473793 0.221750
#
# Coordination Sequence:
#
# PCOD9430285 Si02
#       5
#     8   8   8   8   8
#     4   9  18  35  58  88 123 160 201 254 309 364
#     4   9  19  36  62  88 117 160 206 250 307 366
#     4  11  22  40  63  91 125 164 208 258 309 367
#     4  10  19  37  62  88 122 163 204 255 310 364
#     4  11  22  36  62  91 123 164 207 250 309 373
#
# _framework density 25.075904000000001
#
# number of rings (size 3 to 8) (size 9 to 14) (size 15 to 20)
#    0.000    2.000    0.000    6.000    0.000    0.800 
#    0.000    9.000    0.000    7.200    0.000    0.000 
#    0.000    0.000    0.000    0.000    0.000    0.000 
#
# Total GULP energy -223203.392314 kJ/mol
# GULP energy per Si atom -5580.084808 kJ/mol
# Density = 2.501883 g / cm^3
# Si number density = 25.075904 Si / 1000 Ang^3
#
#
#
# Elastic Constant Matrix: (Units=GPa)
#
#
# Indices 1 2 3 4 5 6 
#
# 1 100.3623 45.3477 32.0093 0.0000 0.0000 0.0000
# 2 45.3477 55.1274 21.5326 0.0000 0.0000 0.0000
# 3 32.0093 21.5326 104.7147 0.0000 0.0000 0.0000
# 4 0.0000 0.0000 0.0000 -0.2656 0.0000 0.0000
# 5 0.0000 0.0000 0.0000 0.0000 25.6610 0.0000
# 6 0.0000 0.0000 0.0000 0.0000 0.0000 47.2518
#
#
#
# Elastic Compliance Matrix: (Units=1/GPa)
#
#
# Indices 1 2 3 4 5 6 
#
# 1 0.016410 -0.012548 -0.002436 0.000000 0.000000 0.000000
# 2 -0.012548 0.029318 -0.002193 0.000000 0.000000 0.000000
# 3 -0.002436 -0.002193 0.010745 0.000000 0.000000 0.000000
# 4 0.000000 0.000000 0.000000 -3.765488 0.000000 0.000000
# 5 0.000000 0.000000 0.000000 0.000000 0.038970 0.000000
# 6 0.000000 0.000000 0.000000 0.000000 0.000000 0.021163
#
#
# Mechanical properties :
#
#
# Convention : Reuss Voigt Hill
#
# Bulk Modulus (GPa) = 45.20784 50.88708 48.04746
# Shear Modulus (GPa) = -1.38613 25.28377 11.94882
#
# Velocity S-wave (km/s) = -0.74430 3.17880 2.18527
# Velocity P-wave (km/s) = 4.16280 5.81466 5.05664
#
# Compressibility (1/GPa) = 0.02212006
#
# Stress axis : x y z
#
# Youngs Moduli (GPa) = 60.93704 34.10870 93.06281
#
# Poissons Ratio (x) = 0.42798 0.22672
# Poissons Ratio (y) = 0.76461 0.20410
# Poissons Ratio (z) = 0.14845 0.07481
#
# Static dielectric constant tensor:
#      x y z
#    x 2.051680 0.000000 0.000000 
#    y 0.000000 2.113260 0.000000 
#    z 0.000000 0.000000 2.058640 
# 
# From -- ./inp_files/15424.got.cif
#   From: 2010.05.17/outbox.cif.g08.bks.cpg/sg56_8_cif.got.tgz:15424.got - 2010.06.03 13:42:01.
