data_PCOD9430405
_publ_section_title
;
Structure prediction by ZEFSAII (Michael W. Deem and Ramdas Pophale) SiO2 
 PCOD9430405
Probable space group: P C C N
;
_chemical_formula_sum "Si O2"
_cell_formula_units_Z 32
_cell_length_a 11.993228
_cell_length_b 9.394933
_cell_length_c 13.256807
_cell_angle_alpha 90.000000
_cell_angle_beta 90.000000
_cell_angle_gamma 90.000000
_cell_volume 1493.718332
_symmetry_space_group_name_H-M "P C C N"
_symmetry_group_IT_number 56
_symmetry_cell_setting 'orthorhombic'
loop_
_space_group_symop_operation_xyz
x,y,z
1/2-x,1/2-y,z
1/2+x,-y,1/2-z
-x,1/2+y,1/2-z
-x,-y,-z
1/2+x,1/2+y,-z
1/2-x,y,1/2+z
x,1/2-y,1/2+z
loop_
_atom_site_type_symbol
_atom_site_label
_atom_site_fract_x
_atom_site_fract_y
_atom_site_fract_z
Si Si1 0.761707 0.900793 0.943467
Si Si2 0.474382 0.345414 0.951361
Si Si3 0.143461 0.858480 0.443920
Si Si4 0.649450 0.364905 0.791426
O O1 0.750000 0.750000 0.889741
O O2 0.842565 0.852105 0.036090
O O3 0.815243 0.002681 0.859668
O O4 0.666322 0.999812 0.991584
O O5 0.535936 0.228823 0.020406
O O6 0.500000 0.500000 0.000000
O O7 0.532048 0.321760 0.843295
O O8 0.250000 0.750000 0.457925
O O9 0.136218 0.893626 0.326219
O O10 0.750000 0.250000 0.801908
#
# Coordination Sequence:
#
# PCOD9430405 Si02
#       4
#     8   8   8   8
#     4  11  23  41  60  92 134 164 209 279 321 376
#     4  10  19  41  64  86 121 165 210 259 321 388
#     4  11  20  40  65  91 121 168 217 260 324 395
#     4  10  20  40  66  85 121 169 215 254 325 391
#
# _framework density 21.423047
#
# number of rings (size 3 to 8) (size 9 to 14) (size 15 to 20)
#    0.000    1.500    7.500    0.000    0.000    2.000 
#   13.500    0.000    0.000    0.000    0.000    0.000 
#    0.000    0.000    0.000    0.000    0.000    0.000 
#
# Total GULP energy -178293.631936 kJ/mol
# GULP energy per Si atom -5571.675998 kJ/mol
# Density = 2.137429 g / cm^3
# Si number density = 21.423047 Si / 1000 Ang^3
#
#
#
# Elastic Constant Matrix: (Units=GPa)
#
#
# Indices 1 2 3 4 5 6 
#
# 1 52.0543 50.3194 -1.0308 0.0000 0.0000 0.0000
# 2 50.3194 139.4320 45.8455 0.0000 0.0000 0.0000
# 3 -1.0308 45.8455 114.6809 0.0000 0.0000 0.0000
# 4 0.0000 0.0000 0.0000 4.6705 0.0000 0.0000
# 5 0.0000 0.0000 0.0000 0.0000 0.6450 0.0000
# 6 0.0000 0.0000 0.0000 0.0000 0.0000 29.7337
#
#
#
# Elastic Compliance Matrix: (Units=1/GPa)
#
#
# Indices 1 2 3 4 5 6 
#
# 1 0.032475 -0.013604 0.005730 0.000000 0.000000 0.000000
# 2 -0.013604 0.013956 -0.005701 0.000000 0.000000 0.000000
# 3 0.005730 -0.005701 0.011051 0.000000 0.000000 0.000000
# 4 0.000000 0.000000 0.000000 0.214109 0.000000 0.000000
# 5 0.000000 0.000000 0.000000 0.000000 1.550320 0.000000
# 6 0.000000 0.000000 0.000000 0.000000 0.000000 0.033632
#
#
# Mechanical properties :
#
#
# Convention : Reuss Voigt Hill
#
# Bulk Modulus (GPa) = 32.96931 55.15948 44.06440
# Shear Modulus (GPa) = 2.64159 21.07873 11.86016
#
# Velocity S-wave (km/s) = 1.11164 3.14016 2.35546
# Velocity P-wave (km/s) = 4.13167 6.24108 5.29253
#
# Compressibility (1/GPa) = 0.03033124
#
# Stress axis : x y z
#
# Youngs Moduli (GPa) = 30.79326 71.65341 90.49290
#
# Poissons Ratio (x) = 0.97476 -0.51855
# Poissons Ratio (y) = 0.41891 0.51594
# Poissons Ratio (z) = -0.17645 0.40853
#
# Static dielectric constant tensor:
#      x y z
#    x 1.934160 0.000000 0.000000 
#    y 0.000000 1.803550 0.000000 
#    z 0.000000 0.000000 1.742470 
# 
# From -- ./inp_files/10235.got.cif
#   From: 2010.05.17/outbox.cif.g08.bks.cpg/sg56_6_cif.got.tgz:10235.got - 2010.06.03 13:42:01.
