data_PCOD9430683
_publ_section_title
;
Structure prediction by ZEFSAII (Michael W. Deem and Ramdas Pophale) SiO2 
 PCOD9430683
Probable space group: P C C N
;
_chemical_formula_sum "Si O2"
_cell_formula_units_Z 32
_cell_length_a 4.966031
_cell_length_b 16.870864
_cell_length_c 19.963682
_cell_angle_alpha 90.000000
_cell_angle_beta 90.000000
_cell_angle_gamma 90.000000
_cell_volume 1672.581906
_symmetry_space_group_name_H-M "P C C N"
_symmetry_group_IT_number 56
_symmetry_cell_setting 'orthorhombic'
loop_
_space_group_symop_operation_xyz
x,y,z
1/2-x,1/2-y,z
1/2+x,-y,1/2-z
-x,1/2+y,1/2-z
-x,-y,-z
1/2+x,1/2+y,-z
1/2-x,y,1/2+z
x,1/2-y,1/2+z
loop_
_atom_site_type_symbol
_atom_site_label
_atom_site_fract_x
_atom_site_fract_y
_atom_site_fract_z
Si Si1 0.250000 0.750000 0.641030
Si Si2 0.517175 0.696071 0.924405
Si Si3 0.250000 0.250000 0.446222
Si Si4 0.389017 0.429736 0.182706
Si Si5 0.885208 0.102746 0.772522
O O1 0.498650 0.717894 0.596233
O O2 0.391366 0.817249 0.685604
O O3 0.750000 0.750000 0.891024
O O4 0.520824 0.614745 0.884316
O O5 0.250000 0.750000 0.922863
O O6 0.616823 0.687918 0.001224
O O7 0.416150 0.524733 0.181365
O O8 0.592032 0.401169 0.240058
O O9 0.096927 0.406080 0.211668
#
# Coordination Sequence:
#
# PCOD9430683 Si02
#       5
#     4   8   4   8   8
#     4  12  22  38  58  82 118 160 184 228 302 338
#     4  10  20  36  62  79 111 151 192 247 269 327
#     4  10  22  38  54  84 116 148 208 236 258 346
#     4  10  21  40  56  91 113 145 194 238 293 339
#     4  10  23  36  60  85 123 145 182 243 291 360
#
# _framework density 19.132099
#
# number of rings (size 3 to 8) (size 9 to 14) (size 15 to 20)
#    0.750    1.000    1.250    3.000    5.250    0.000 
#    0.000    2.500    0.000    0.000    0.000    0.000 
#    0.000    0.000    0.000    0.000    0.000    0.000 
#
# Total GULP energy -178200.788604 kJ/mol
# GULP energy per Si atom -5568.774644 kJ/mol
# Density = 1.908855 g / cm^3
# Si number density = 19.132099 Si / 1000 Ang^3
#
#
#
# Elastic Constant Matrix: (Units=GPa)
#
#
# Indices 1 2 3 4 5 6 
#
# 1 79.8041 13.2834 2.0702 0.0000 0.0000 0.0000
# 2 13.2834 79.4788 44.5240 0.0000 0.0000 0.0000
# 3 2.0702 44.5240 49.2867 0.0000 0.0000 0.0000
# 4 0.0000 0.0000 0.0000 -64.2544 0.0000 0.0000
# 5 0.0000 0.0000 0.0000 0.0000 8.8464 0.0000
# 6 0.0000 0.0000 0.0000 0.0000 0.0000 19.8158
#
#
#
# Elastic Compliance Matrix: (Units=1/GPa)
#
#
# Indices 1 2 3 4 5 6 
#
# 1 0.013089 -0.003805 0.002888 0.000000 0.000000 0.000000
# 2 -0.003805 0.026579 -0.023851 0.000000 0.000000 0.000000
# 3 0.002888 -0.023851 0.041714 0.000000 0.000000 0.000000
# 4 0.000000 0.000000 0.000000 -0.015563 0.000000 0.000000
# 5 0.000000 0.000000 0.000000 0.000000 0.113040 0.000000
# 6 0.000000 0.000000 0.000000 0.000000 0.000000 0.050465
#
#
# Mechanical properties :
#
#
# Convention : Reuss Voigt Hill
#
# Bulk Modulus (GPa) = 31.40134 36.48053 33.94093
# Shear Modulus (GPa) = 17.27253 2.79437 10.03345
#
# Velocity S-wave (km/s) = 3.00793 1.20985 2.29253
# Velocity P-wave (km/s) = 5.33967 4.58920 4.97859
#
# Compressibility (1/GPa) = 0.03184577
#
# Stress axis : x y z
#
# Youngs Moduli (GPa) = 76.39896 37.62321 23.97253
#
# Poissons Ratio (x) = 0.14317 -0.06923
# Poissons Ratio (y) = 0.29073 0.57177
# Poissons Ratio (z) = -0.22063 0.89735
#
# Static dielectric constant tensor:
#      x y z
#    x 1.672110 0.000000 0.000000 
#    y 0.000000 1.694270 0.000000 
#    z 0.000000 0.000000 1.694720 
# 
# From -- ./inp_files/12524.got.cif
#   From: 2010.05.17/outbox.cif.g08.bks.cpg/sg56_7_cif.got.tgz:12524.got - 2010.06.03 13:42:01.
