data_PCOD9430365
_publ_section_title
;
Structure prediction by ZEFSAII (Michael W. Deem and Ramdas Pophale) SiO2 
 PCOD9430365
Probable space group: P C C N
;
_chemical_formula_sum "Si O2"
_cell_formula_units_Z 60
_cell_length_a 18.703556
_cell_length_b 15.372495
_cell_length_c 9.370435
_cell_angle_alpha 90.000000
_cell_angle_beta 90.000000
_cell_angle_gamma 90.000000
_cell_volume 2694.190480
_symmetry_space_group_name_H-M "P C C N"
_symmetry_group_IT_number 56
_symmetry_cell_setting 'orthorhombic'
loop_
_space_group_symop_operation_xyz
x,y,z
1/2-x,1/2-y,z
1/2+x,-y,1/2-z
-x,1/2+y,1/2-z
-x,-y,-z
1/2+x,1/2+y,-z
1/2-x,y,1/2+z
x,1/2-y,1/2+z
loop_
_atom_site_type_symbol
_atom_site_label
_atom_site_fract_x
_atom_site_fract_y
_atom_site_fract_z
Si Si1 0.921934 0.411366 0.376365
Si Si2 0.987619 0.815766 0.788836
Si Si3 0.671746 0.067363 0.878019
Si Si4 0.250000 0.250000 0.933568
Si Si5 0.324601 0.155030 0.685175
Si Si6 0.432828 0.501185 0.842193
Si Si7 0.701705 0.466100 0.692185
Si Si8 0.064399 0.779421 0.523072
O O1 0.900212 0.481046 0.500873
O O2 0.875122 0.428354 0.237843
O O3 0.906523 0.315309 0.432459
O O4 0.006176 0.428225 0.348844
O O5 0.907997 0.828909 0.842099
O O6 0.025559 0.907818 0.818294
O O7 0.995725 0.799785 0.621375
O O8 0.032851 0.739631 0.866607
O O9 0.622767 0.999479 0.787779
O O10 0.735054 0.088751 0.766679
O O11 0.622656 0.148174 0.932176
O O12 0.705934 0.031018 0.022495
O O13 0.308205 0.215233 0.822563
O O14 0.217801 0.179941 0.042671
O O15 0.299546 0.061232 0.739184
#
# Coordination Sequence:
#
# PCOD9430365 Si02
#       8
#     8   8   8   4   8   8   8   8
#     4  10  20  40  66  94 128 177 225 281 345 412
#     4  10  19  39  63  91 127 165 224 282 335 412
#     4  11  25  43  64 100 140 182 233 288 343 423
#     4  10  24  40  62  88 134 166 220 272 344 416
#     4  11  22  43  62  95 126 177 219 279 346 416
#     4   9  20  40  63  93 130 171 223 283 338 411
#     4  12  24  42  67  97 137 180 227 279 346 416
#     4  10  22  40  64  96 130 174 226 282 351 395
#
# _framework density 22.270140000000001
#
# number of rings (size 3 to 8) (size 9 to 14) (size 15 to 20)
#    0.000    1.600    1.333    3.200    0.000    1.067 
#    9.600    1.333    0.000    0.000    0.000    0.000 
#    0.000    0.000    0.000    0.000    0.000    0.000 
#
# Total GULP energy -334918.675261 kJ/mol
# GULP energy per Si atom -5581.977921 kJ/mol
# Density = 2.221945 g / cm^3
# Si number density = 22.270140 Si / 1000 Ang^3
#
#
#
# Elastic Constant Matrix: (Units=GPa)
#
#
# Indices 1 2 3 4 5 6 
#
# 1 83.3939 8.7962 38.4395 0.0000 0.0000 0.0000
# 2 8.7962 58.5336 12.5517 0.0000 0.0000 0.0000
# 3 38.4395 12.5517 134.1938 0.0000 0.0000 0.0000
# 4 0.0000 0.0000 0.0000 18.5674 0.0000 0.0000
# 5 0.0000 0.0000 0.0000 0.0000 29.4320 0.0000
# 6 0.0000 0.0000 0.0000 0.0000 0.0000 24.8682
#
#
#
# Elastic Compliance Matrix: (Units=1/GPa)
#
#
# Indices 1 2 3 4 5 6 
#
# 1 0.013906 -0.001261 -0.003865 0.000000 0.000000 0.000000
# 2 -0.001261 0.017548 -0.001280 0.000000 0.000000 0.000000
# 3 -0.003865 -0.001280 0.008679 0.000000 0.000000 0.000000
# 4 0.000000 0.000000 0.000000 0.053858 0.000000 0.000000
# 5 0.000000 0.000000 0.000000 0.000000 0.033977 0.000000
# 6 0.000000 0.000000 0.000000 0.000000 0.000000 0.040212
#
#
# Mechanical properties :
#
#
# Convention : Reuss Voigt Hill
#
# Bulk Modulus (GPa) = 36.60298 43.96625 40.28461
# Shear Modulus (GPa) = 26.30206 28.99577 27.64892
#
# Velocity S-wave (km/s) = 3.44036 3.61224 3.52735
# Velocity P-wave (km/s) = 5.67918 6.09777 5.89219
#
# Compressibility (1/GPa) = 0.02732018
#
# Stress axis : x y z
#
# Youngs Moduli (GPa) = 71.91140 56.98590 115.22214
#
# Poissons Ratio (x) = 0.07185 0.44538
# Poissons Ratio (y) = 0.09067 0.14751
# Poissons Ratio (z) = 0.27797 0.07295
#
# Static dielectric constant tensor:
#      x y z
#    x 1.834940 0.000000 0.000000 
#    y 0.000000 1.846330 0.000000 
#    z 0.000000 0.000000 1.838130 
# 
# From -- ./inp_files/4145.got.cif
#   From: 2010.05.17/outbox.cif.g08.bks.cpg/sg56_3_cif.got.tgz:4145.got - 2010.06.03 13:42:01.
