data_PCOD9430485
_publ_section_title
;
Structure prediction by ZEFSAII (Michael W. Deem and Ramdas Pophale) SiO2 
 PCOD9430485
Probable space group: P C C N
;
_chemical_formula_sum "Si O2"
_cell_formula_units_Z 48
_cell_length_a 11.689651
_cell_length_b 9.160302
_cell_length_c 22.910633
_cell_angle_alpha 90.000000
_cell_angle_beta 90.000000
_cell_angle_gamma 90.000000
_cell_volume 2453.287385
_symmetry_space_group_name_H-M "P C C N"
_symmetry_group_IT_number 56
_symmetry_cell_setting 'orthorhombic'
loop_
_space_group_symop_operation_xyz
x,y,z
1/2-x,1/2-y,z
1/2+x,-y,1/2-z
-x,1/2+y,1/2-z
-x,-y,-z
1/2+x,1/2+y,-z
1/2-x,y,1/2+z
x,1/2-y,1/2+z
loop_
_atom_site_type_symbol
_atom_site_label
_atom_site_fract_x
_atom_site_fract_y
_atom_site_fract_z
Si Si1 0.505428 0.283415 0.723294
Si Si2 0.231558 0.422313 0.370986
Si Si3 0.838652 0.034292 0.252447
Si Si4 0.986823 0.056823 0.064853
Si Si5 0.371132 0.666228 0.397163
Si Si6 0.679521 0.891956 0.343851
O O1 0.443266 0.418353 0.752780
O O2 0.605761 0.194112 0.754424
O O3 0.557170 0.333925 0.662060
O O4 0.405349 0.170614 0.705951
O O5 0.250000 0.250000 0.365523
O O6 0.230564 0.498946 0.306875
O O7 0.111977 0.466819 0.401123
O O8 0.331748 0.501162 0.408522
O O9 0.766012 0.997728 0.309852
O O10 0.944554 0.226255 0.062331
O O11 0.101051 0.048421 0.104210
O O12 0.000000 0.000000 0.000000
O O13 0.250000 0.750000 0.389929
O O14 0.750000 0.750000 0.364954
#
# Coordination Sequence:
#
# PCOD9430485 Si02
#       6
#     8   8   8   8   8   8
#     4  10  20  33  55  83 122 162 190 244 305 371
#     4  11  22  37  62  92 117 160 208 252 308 386
#     4  11  21  34  58  88 129 159 199 248 309 374
#     4  10  21  41  65  84 119 161 209 259 309 373
#     4   9  18  37  59  83 110 163 203 238 311 369
#     4   9  19  37  57  90 121 162 202 249 309 364
#
# _framework density 19.565583
#
# number of rings (size 3 to 8) (size 9 to 14) (size 15 to 20)
#    0.000    2.000    5.000    1.500    4.667    0.667 
#    0.000    0.833   11.000    0.000    0.000    0.000 
#    0.000    0.000    0.000    0.000    0.000    0.000 
#
# Total GULP energy -267631.803373 kJ/mol
# GULP energy per Si atom -5575.662570 kJ/mol
# Density = 1.952105 g / cm^3
# Si number density = 19.565583 Si / 1000 Ang^3
#
#
#
# Elastic Constant Matrix: (Units=GPa)
#
#
# Indices 1 2 3 4 5 6 
#
# 1 90.5775 40.2206 35.2235 0.0000 0.0000 0.0000
# 2 40.2206 85.6134 32.0699 0.0000 0.0000 0.0000
# 3 35.2235 32.0699 83.6112 0.0000 0.0000 0.0000
# 4 0.0000 0.0000 0.0000 19.8663 0.0000 0.0000
# 5 0.0000 0.0000 0.0000 0.0000 -3.4595 0.0000
# 6 0.0000 0.0000 0.0000 0.0000 0.0000 36.5463
#
#
#
# Elastic Compliance Matrix: (Units=1/GPa)
#
#
# Indices 1 2 3 4 5 6 
#
# 1 0.015150 -0.005520 -0.004265 0.000000 0.000000 0.000000
# 2 -0.005520 0.015651 -0.003678 0.000000 0.000000 0.000000
# 3 -0.004265 -0.003678 0.015168 0.000000 0.000000 0.000000
# 4 0.000000 0.000000 0.000000 0.050336 0.000000 0.000000
# 5 0.000000 0.000000 0.000000 0.000000 -0.289062 0.000000
# 6 0.000000 0.000000 0.000000 0.000000 0.000000 0.027363
#
#
# Mechanical properties :
#
#
# Convention : Reuss Voigt Hill
#
# Bulk Modulus (GPa) = 52.51184 52.75890 52.63537
# Shear Modulus (GPa) = -37.84410 20.74317 -8.55047
#
# Velocity S-wave (km/s) = -4.40275 3.25958 -2.09276
# Velocity P-wave (km/s) = 1.02547 6.41796 4.59575
#
# Compressibility (1/GPa) = 0.01904332
#
# Stress axis : x y z
#
# Youngs Moduli (GPa) = 66.00724 63.89292 65.92989
#
# Poissons Ratio (x) = 0.35266 0.28120
# Poissons Ratio (y) = 0.36433 0.24248
# Poissons Ratio (z) = 0.28153 0.23499
#
# Static dielectric constant tensor:
#      x y z
#    x 1.736700 0.000000 0.000000 
#    y 0.000000 1.770750 0.000000 
#    z 0.000000 0.000000 1.643310 
# 
# From -- ./inp_files/20894.got.cif
#   From: 2010.05.17/outbox.cif.g08.bks.cpg/sg56_11_cif.got.tgz:20894.got - 2010.06.03 13:42:01.
