data_PCOD9430853
_publ_section_title
;
Structure prediction by ZEFSAII (Michael W. Deem and Ramdas Pophale) SiO2 
 PCOD9430853
Probable space group: P C C N
;
_chemical_formula_sum "Si O2"
_cell_formula_units_Z 40
_cell_length_a 11.091688
_cell_length_b 7.276246
_cell_length_c 23.584310
_cell_angle_alpha 90.000000
_cell_angle_beta 90.000000
_cell_angle_gamma 90.000000
_cell_volume 1903.391796
_symmetry_space_group_name_H-M "P C C N"
_symmetry_group_IT_number 56
_symmetry_cell_setting 'orthorhombic'
loop_
_space_group_symop_operation_xyz
x,y,z
1/2-x,1/2-y,z
1/2+x,-y,1/2-z
-x,1/2+y,1/2-z
-x,-y,-z
1/2+x,1/2+y,-z
1/2-x,y,1/2+z
x,1/2-y,1/2+z
loop_
_atom_site_type_symbol
_atom_site_label
_atom_site_fract_x
_atom_site_fract_y
_atom_site_fract_z
Si Si1 0.869558 0.633116 0.930179
Si Si2 0.626079 0.863892 0.801533
Si Si3 0.432762 0.954953 0.426773
Si Si4 0.123102 0.743708 0.534176
Si Si5 0.625437 0.362034 0.196779
O O1 0.750000 0.750000 0.943937
O O2 0.863438 0.559620 0.865465
O O3 0.896292 0.461239 0.970110
O O4 0.972785 0.786301 0.929081
O O5 0.750000 0.750000 0.793940
O O6 0.499970 0.751935 0.800548
O O7 0.621683 0.005554 0.750467
O O8 0.350930 0.887514 0.479297
O O9 0.374528 0.959367 0.365033
O O10 0.509120 0.139522 0.438428
O O11 0.250000 0.750000 0.567640
O O12 0.750000 0.250000 0.199991
#
# Coordination Sequence:
#
# PCOD9430853 Si02
#       5
#     8   8   8   8   8
#     4  10  20  38  60  90 123 162 215 266 313 383
#     4  10  23  40  65  96 125 169 217 257 320 392
#     4  10  23  39  58  92 123 165 212 265 323 390
#     4  11  21  37  65  86 122 166 214 265 330 379
#     4  11  23  42  64  90 135 164 209 270 324 382
#
# _framework density 21.015117
#
# number of rings (size 3 to 8) (size 9 to 14) (size 15 to 20)
#    0.000    1.600    2.000    2.400    2.800    0.800 
#    0.000    0.000    4.400    0.000    0.000    0.000 
#    0.000    0.000    0.000    0.000    0.000    0.000 
#
# Total GULP energy -222865.729349 kJ/mol
# GULP energy per Si atom -5571.643234 kJ/mol
# Density = 2.096729 g / cm^3
# Si number density = 21.015117 Si / 1000 Ang^3
#
#
#
# Elastic Constant Matrix: (Units=GPa)
#
#
# Indices 1 2 3 4 5 6 
#
# 1 132.8848 47.2095 47.5534 0.0000 0.0000 0.0000
# 2 47.2095 86.0526 57.1883 0.0000 0.0000 0.0000
# 3 47.5534 57.1883 108.3635 0.0000 0.0000 0.0000
# 4 0.0000 0.0000 0.0000 21.9499 0.0000 0.0000
# 5 0.0000 0.0000 0.0000 0.0000 14.2898 0.0000
# 6 0.0000 0.0000 0.0000 0.0000 0.0000 30.5846
#
#
#
# Elastic Compliance Matrix: (Units=1/GPa)
#
#
# Indices 1 2 3 4 5 6 
#
# 1 0.009684 -0.003833 -0.002227 0.000000 0.000000 0.000000
# 2 -0.003833 0.019415 -0.008564 0.000000 0.000000 0.000000
# 3 -0.002227 -0.008564 0.014725 0.000000 0.000000 0.000000
# 4 0.000000 0.000000 0.000000 0.045558 0.000000 0.000000
# 5 0.000000 0.000000 0.000000 0.000000 0.069980 0.000000
# 6 0.000000 0.000000 0.000000 0.000000 0.000000 0.032696
#
#
# Mechanical properties :
#
#
# Convention : Reuss Voigt Hill
#
# Bulk Modulus (GPa) = 68.60447 70.13369 69.36908
# Shear Modulus (GPa) = 22.10772 25.05483 23.58127
#
# Velocity S-wave (km/s) = 3.24696 3.45661 3.35343
# Velocity P-wave (km/s) = 6.83909 7.02683 6.93360
#
# Compressibility (1/GPa) = 0.01457631
#
# Stress axis : x y z
#
# Youngs Moduli (GPa) = 103.26458 51.50624 67.91086
#
# Poissons Ratio (x) = 0.19741 0.15123
# Poissons Ratio (y) = 0.39579 0.58161
# Poissons Ratio (z) = 0.22996 0.44111
#
# Static dielectric constant tensor:
#      x y z
#    x 2.059530 0.000000 0.000000 
#    y 0.000000 1.774100 0.000000 
#    z 0.000000 0.000000 1.813930 
# 
# From -- ./inp_files/22186.got.cif
#   From: 2010.05.17/outbox.cif.g08.bks.cpg/sg56_12_cif.got.tgz:22186.got - 2010.06.03 13:42:01.
