data_PCOD9430644
_publ_section_title
;
Structure prediction by ZEFSAII (Michael W. Deem and Ramdas Pophale) SiO2 
 PCOD9430644
Probable space group: P C C N
;
_chemical_formula_sum "Si O2"
_cell_formula_units_Z 60
_cell_length_a 13.477716
_cell_length_b 15.186463
_cell_length_c 11.809769
_cell_angle_alpha 90.000000
_cell_angle_beta 90.000000
_cell_angle_gamma 90.000000
_cell_volume 2417.209765
_symmetry_space_group_name_H-M "P C C N"
_symmetry_group_IT_number 56
_symmetry_cell_setting 'orthorhombic'
loop_
_space_group_symop_operation_xyz
x,y,z
1/2-x,1/2-y,z
1/2+x,-y,1/2-z
-x,1/2+y,1/2-z
-x,-y,-z
1/2+x,1/2+y,-z
1/2-x,y,1/2+z
x,1/2-y,1/2+z
loop_
_atom_site_type_symbol
_atom_site_label
_atom_site_fract_x
_atom_site_fract_y
_atom_site_fract_z
Si Si1 0.010247 0.233151 0.163875
Si Si2 0.596205 0.088414 0.765388
Si Si3 0.981932 0.407915 0.276866
Si Si4 0.346274 0.517650 0.405632
Si Si5 0.750000 0.750000 0.167295
Si Si6 0.211695 0.941752 0.085675
Si Si7 0.799747 0.609554 0.303760
Si Si8 0.434461 0.152389 0.952762
O O1 0.104491 0.168632 0.175695
O O2 0.021503 0.284419 0.046916
O O3 0.918100 0.166036 0.174085
O O4 0.010212 0.306018 0.264055
O O5 0.703927 0.086521 0.823400
O O6 0.558427 0.991727 0.720191
O O7 0.518029 0.122328 0.862084
O O8 0.926119 0.423352 0.156953
O O9 0.898112 0.414808 0.375493
O O10 0.261086 0.574143 0.464448
O O11 0.312873 0.457677 0.300099
O O12 0.394849 0.444975 0.489458
O O13 0.716884 0.674094 0.256441
O O14 0.662796 0.793941 0.094114
O O15 0.210381 0.048539 0.089282
#
# Coordination Sequence:
#
# PCOD9430644 Si02
#       8
#     8   8   8   8   4   8   8   8
#     4  12  22  41  66  92 142 176 226 282 340 397
#     4  11  23  44  61 105 134 171 240 272 330 430
#     4  10  23  43  65 101 135 178 227 286 336 401
#     4   9  19  42  64  97 129 170 230 266 330 417
#     4  10  20  36  56  98 138 154 228 278 324 408
#     4  11  22  40  71  90 135 182 217 280 348 398
#     4  10  23  37  60 100 133 167 228 279 338 400
#     4  10  22  36  63  98 134 180 219 280 341 395
#
# _framework density 24.822008
#
# number of rings (size 3 to 8) (size 9 to 14) (size 15 to 20)
#    0.000    1.600    5.333    1.600    7.467    2.667 
#    0.000    2.667    0.000    9.600    0.000    0.000 
#    0.000    0.000    0.000    0.000    0.000    0.000 
#
# Total GULP energy -334631.507782 kJ/mol
# GULP energy per Si atom -5577.191796 kJ/mol
# Density = 2.476551 g / cm^3
# Si number density = 24.822008 Si / 1000 Ang^3
#
#
#
# Elastic Constant Matrix: (Units=GPa)
#
#
# Indices 1 2 3 4 5 6 
#
# 1 58.8505 26.2530 -7.3774 0.0000 0.0000 0.0000
# 2 26.2530 102.0205 1.9431 0.0000 0.0000 0.0000
# 3 -7.3774 1.9431 28.3062 0.0000 0.0000 0.0000
# 4 0.0000 0.0000 0.0000 34.0358 0.0000 0.0000
# 5 0.0000 0.0000 0.0000 0.0000 28.9710 0.0000
# 6 0.0000 0.0000 0.0000 0.0000 0.0000 49.5423
#
#
#
# Elastic Compliance Matrix: (Units=1/GPa)
#
#
# Indices 1 2 3 4 5 6 
#
# 1 0.020040 -0.005263 0.005584 0.000000 0.000000 0.000000
# 2 -0.005263 0.011197 -0.002140 0.000000 0.000000 0.000000
# 3 0.005584 -0.002140 0.036930 0.000000 0.000000 0.000000
# 4 0.000000 0.000000 0.000000 0.029381 0.000000 0.000000
# 5 0.000000 0.000000 0.000000 0.000000 0.034517 0.000000
# 6 0.000000 0.000000 0.000000 0.000000 0.000000 0.020185
#
#
# Mechanical properties :
#
#
# Convention : Reuss Voigt Hill
#
# Bulk Modulus (GPa) = 15.49693 25.64606 20.57150
# Shear Modulus (GPa) = 28.18506 33.73372 30.95939
#
# Velocity S-wave (km/s) = 3.37335 3.69049 3.53548
# Velocity P-wave (km/s) = 4.62920 5.33986 4.99718
#
# Compressibility (1/GPa) = 0.06452891
#
# Stress axis : x y z
#
# Youngs Moduli (GPa) = 49.89974 89.30861 27.07800
#
# Poissons Ratio (x) = 0.47006 -0.15121
# Poissons Ratio (y) = 0.26264 0.05796
# Poissons Ratio (z) = -0.27866 0.19116
#
# Static dielectric constant tensor:
#      x y z
#    x 2.078610 0.000000 0.000000 
#    y 0.000000 2.052920 0.000000 
#    z 0.000000 0.000000 2.125380 
# 
# From -- ./inp_files/12397.got.cif
#   From: 2010.05.17/outbox.cif.g08.bks.cpg/sg56_7_cif.got.tgz:12397.got - 2010.06.03 13:42:01.
