data_PCOD9430211
_publ_section_title
;
Structure prediction by ZEFSAII (Michael W. Deem and Ramdas Pophale) SiO2 
 PCOD9430211
Probable space group: P C C N
;
_chemical_formula_sum "Si O2"
_cell_formula_units_Z 40
_cell_length_a 9.271740
_cell_length_b 14.351095
_cell_length_c 13.072975
_cell_angle_alpha 90.000000
_cell_angle_beta 90.000000
_cell_angle_gamma 90.000000
_cell_volume 1739.485106
_symmetry_space_group_name_H-M "P C C N"
_symmetry_group_IT_number 56
_symmetry_cell_setting 'orthorhombic'
loop_
_space_group_symop_operation_xyz
x,y,z
1/2-x,1/2-y,z
1/2+x,-y,1/2-z
-x,1/2+y,1/2-z
-x,-y,-z
1/2+x,1/2+y,-z
1/2-x,y,1/2+z
x,1/2-y,1/2+z
loop_
_atom_site_type_symbol
_atom_site_label
_atom_site_fract_x
_atom_site_fract_y
_atom_site_fract_z
Si Si1 0.207389 0.531620 0.451125
Si Si2 0.410896 0.037777 0.651479
Si Si3 0.318685 0.149152 0.837578
Si Si4 0.372194 0.877314 0.792797
Si Si5 0.122482 0.803177 0.673219
O O1 0.195694 0.511068 0.570541
O O2 0.236135 0.432189 0.396684
O O3 0.333795 0.598531 0.408873
O O4 0.049507 0.566895 0.415023
O O5 0.337433 0.117307 0.719344
O O6 0.454569 0.959836 0.735872
O O7 0.250000 0.250000 0.848393
O O8 0.482944 0.157209 0.878483
O O9 0.211936 0.875822 0.740758
O O10 0.428207 0.777605 0.754752
O O11 0.250000 0.750000 0.611029
#
# Coordination Sequence:
#
# PCOD9430211 Si02
#       5
#     8   8   8   8   8
#     4  10  20  34  60  82 116 150 194 233 292 340
#     4  10  19  36  56  84 115 150 187 240 287 337
#     4  11  21  35  60  85 111 153 192 239 282 342
#     4   8  17  34  57  76 109 151 183 227 283 341
#     4   8  17  35  58  78 112 146 187 225 288 340
#
# _framework density 22.99531
#
# number of rings (size 3 to 8) (size 9 to 14) (size 15 to 20)
#    1.200    1.200    2.000    1.200    0.000    0.800 
#    0.000    5.000    4.400    0.000    0.000    0.000 
#    0.000    0.000    0.000    0.000    0.000    0.000 
#
# Total GULP energy -222753.691501 kJ/mol
# GULP energy per Si atom -5568.842288 kJ/mol
# Density = 2.294297 g / cm^3
# Si number density = 22.995310 Si / 1000 Ang^3
#
#
#
# Elastic Constant Matrix: (Units=GPa)
#
#
# Indices 1 2 3 4 5 6 
#
# 1 48.7639 -8.3196 12.9451 0.0000 0.0000 0.0000
# 2 -8.3196 53.4363 10.9475 0.0000 0.0000 0.0000
# 3 12.9451 10.9475 82.3830 0.0000 0.0000 0.0000
# 4 0.0000 0.0000 0.0000 8.2054 0.0000 0.0000
# 5 0.0000 0.0000 0.0000 0.0000 16.7272 0.0000
# 6 0.0000 0.0000 0.0000 0.0000 0.0000 29.8057
#
#
#
# Elastic Compliance Matrix: (Units=1/GPa)
#
#
# Indices 1 2 3 4 5 6 
#
# 1 0.022326 0.004312 -0.004081 0.000000 0.000000 0.000000
# 2 0.004312 0.020070 -0.003345 0.000000 0.000000 0.000000
# 3 -0.004081 -0.003345 0.013224 0.000000 0.000000 0.000000
# 4 0.000000 0.000000 0.000000 0.121871 0.000000 0.000000
# 5 0.000000 0.000000 0.000000 0.000000 0.059783 0.000000
# 6 0.000000 0.000000 0.000000 0.000000 0.000000 0.033551
#
#
# Mechanical properties :
#
#
# Convention : Reuss Voigt Hill
#
# Bulk Modulus (GPa) = 20.24571 23.96994 22.10782
# Shear Modulus (GPa) = 17.03480 22.21501 19.62491
#
# Velocity S-wave (km/s) = 2.72471 3.11153 2.92452
# Velocity P-wave (km/s) = 4.32690 4.83273 4.58680
#
# Compressibility (1/GPa) = 0.04939318
#
# Stress axis : x y z
#
# Youngs Moduli (GPa) = 44.79071 49.82448 75.61908
#
# Poissons Ratio (x) = -0.21485 0.30862
# Poissons Ratio (y) = -0.19314 0.25292
# Poissons Ratio (z) = 0.18280 0.16665
#
# Static dielectric constant tensor:
#      x y z
#    x 1.935020 0.000000 0.000000 
#    y 0.000000 1.911430 0.000000 
#    z 0.000000 0.000000 1.855380 
# 
# From -- ./inp_files/11498.got.cif
#   From: 2010.05.17/outbox.cif.g08.bks.cpg/sg56_6_cif.got.tgz:11498.got - 2010.06.03 13:42:01.
