data_PCOD9430397
_publ_section_title
;
Structure prediction by ZEFSAII (Michael W. Deem and Ramdas Pophale) SiO2 
 PCOD9430397
Probable space group: P C C N
;
_chemical_formula_sum "Si O2"
_cell_formula_units_Z 48
_cell_length_a 11.994797
_cell_length_b 7.095590
_cell_length_c 23.415483
_cell_angle_alpha 90.000000
_cell_angle_beta 90.000000
_cell_angle_gamma 90.000000
_cell_volume 1992.895543
_symmetry_space_group_name_H-M "P C C N"
_symmetry_group_IT_number 56
_symmetry_cell_setting 'orthorhombic'
loop_
_space_group_symop_operation_xyz
x,y,z
1/2-x,1/2-y,z
1/2+x,-y,1/2-z
-x,1/2+y,1/2-z
-x,-y,-z
1/2+x,1/2+y,-z
1/2-x,y,1/2+z
x,1/2-y,1/2+z
loop_
_atom_site_type_symbol
_atom_site_label
_atom_site_fract_x
_atom_site_fract_y
_atom_site_fract_z
Si Si1 0.226674 0.973731 0.606565
Si Si2 0.223600 0.523332 0.974944
Si Si3 0.029409 0.937266 0.396605
Si Si4 0.381281 0.712463 0.288396
Si Si5 0.047092 0.501955 0.436106
Si Si6 0.063491 0.519677 0.671853
O O1 0.250000 0.750000 0.610928
O O2 0.241417 0.032087 0.540398
O O3 0.318739 0.064366 0.648477
O O4 0.097030 0.010315 0.615700
O O5 0.250000 0.750000 0.973579
O O6 0.324526 0.445309 0.937819
O O7 0.103687 0.476328 0.948053
O O8 0.093322 0.944967 0.336448
O O9 0.030726 0.717493 0.416097
O O10 0.250000 0.750000 0.293524
O O11 0.407000 0.652623 0.224170
O O12 0.467206 0.880771 0.304221
O O13 0.000000 0.500000 0.500000
O O14 0.985053 0.388800 0.386463
#
# Coordination Sequence:
#
# PCOD9430397 Si02
#       6
#     8   8   8   8   8   8
#     4  11  23  40  70 104 143 182 238 299 358 437
#     4   9  18  38  66 100 136 179 222 284 354 419
#     4  10  22  40  69  99 137 189 232 284 372 427
#     4  11  26  48  70  98 139 187 234 296 358 430
#     4  10  19  40  67 100 140 178 235 301 353 425
#     4  11  25  44  73 100 139 184 241 291 360 426
#
# _framework density 24.085557999999999
#
# number of rings (size 3 to 8) (size 9 to 14) (size 15 to 20)
#    0.000    1.667    1.667    3.500    4.667    2.667 
#    0.000    0.000    3.667    0.000    0.000    0.000 
#    0.000    0.000    0.000    0.000    0.000    0.000 
#
# Total GULP energy -268249.660771 kJ/mol
# GULP energy per Si atom -5588.534599 kJ/mol
# Density = 2.403074 g / cm^3
# Si number density = 24.085558 Si / 1000 Ang^3
#
#
#
# Elastic Constant Matrix: (Units=GPa)
#
#
# Indices 1 2 3 4 5 6 
#
# 1 260.5740 48.2083 97.3439 0.0000 0.0000 0.0000
# 2 48.2083 58.8396 20.0071 0.0000 0.0000 0.0000
# 3 97.3439 20.0071 196.1564 0.0000 0.0000 0.0000
# 4 0.0000 0.0000 0.0000 12.3497 0.0000 0.0000
# 5 0.0000 0.0000 0.0000 0.0000 51.5065 0.0000
# 6 0.0000 0.0000 0.0000 0.0000 0.0000 37.7928
#
#
#
# Elastic Compliance Matrix: (Units=1/GPa)
#
#
# Indices 1 2 3 4 5 6 
#
# 1 0.005363 -0.003614 -0.002293 0.000000 0.000000 0.000000
# 2 -0.003614 0.020042 -0.000251 0.000000 0.000000 0.000000
# 3 -0.002293 -0.000251 0.006261 0.000000 0.000000 0.000000
# 4 0.000000 0.000000 0.000000 0.080974 0.000000 0.000000
# 5 0.000000 0.000000 0.000000 0.000000 0.019415 0.000000
# 6 0.000000 0.000000 0.000000 0.000000 0.000000 0.026460
#
#
# Mechanical properties :
#
#
# Convention : Reuss Voigt Hill
#
# Bulk Modulus (GPa) = 51.67739 94.07652 72.87695
# Shear Modulus (GPa) = 28.20398 43.66385 35.93391
#
# Velocity S-wave (km/s) = 3.42569 4.26239 3.86674
# Velocity P-wave (km/s) = 6.09503 7.96041 7.08934
#
# Compressibility (1/GPa) = 0.01935082
#
# Stress axis : x y z
#
# Youngs Moduli (GPa) = 186.46802 49.89575 159.71123
#
# Poissons Ratio (x) = 0.18034 0.36617
# Poissons Ratio (y) = 0.67395 0.04002
# Poissons Ratio (z) = 0.42752 0.01250
#
# Static dielectric constant tensor:
#      x y z
#    x 1.947720 0.000000 0.000000 
#    y 0.000000 2.079340 0.000000 
#    z 0.000000 0.000000 1.921190 
# 
# From -- ./inp_files/20478.got.cif
#   From: 2010.05.17/outbox.cif.g08.bks.cpg/sg56_11_cif.got.tgz:20478.got - 2010.06.03 13:42:01.
