data_PCOD9430615
_publ_section_title
;
Structure prediction by ZEFSAII (Michael W. Deem and Ramdas Pophale) SiO2 
 PCOD9430615
Probable space group: P C C N
;
_chemical_formula_sum "Si O2"
_cell_formula_units_Z 60
_cell_length_a 24.188470
_cell_length_b 8.567817
_cell_length_c 16.224377
_cell_angle_alpha 90.000000
_cell_angle_beta 90.000000
_cell_angle_gamma 90.000000
_cell_volume 3362.378576
_symmetry_space_group_name_H-M "P C C N"
_symmetry_group_IT_number 56
_symmetry_cell_setting 'orthorhombic'
loop_
_space_group_symop_operation_xyz
x,y,z
1/2-x,1/2-y,z
1/2+x,-y,1/2-z
-x,1/2+y,1/2-z
-x,-y,-z
1/2+x,1/2+y,-z
1/2-x,y,1/2+z
x,1/2-y,1/2+z
loop_
_atom_site_type_symbol
_atom_site_label
_atom_site_fract_x
_atom_site_fract_y
_atom_site_fract_z
Si Si1 0.750000 0.250000 0.060548
Si Si2 0.169707 0.874517 0.810293
Si Si3 0.041859 0.645141 0.000891
Si Si4 0.039813 0.863979 0.164476
Si Si5 0.334939 0.631893 0.173920
Si Si6 0.728475 0.579973 0.324879
Si Si7 0.542132 0.343018 0.168411
Si Si8 0.835437 0.076835 0.451459
O O1 0.793166 0.146200 0.110717
O O2 0.712143 0.128711 0.012465
O O3 0.173490 0.707011 0.763782
O O4 0.105553 0.901388 0.827378
O O5 0.196541 0.002738 0.751316
O O6 0.033488 0.756814 0.081810
O O7 0.104200 0.576779 0.009059
O O8 0.036237 0.741155 0.915322
O O9 0.000000 0.500000 0.000000
O O10 0.102822 0.931015 0.166724
O O11 0.033041 0.758486 0.247576
O O12 0.997968 0.008238 0.165391
O O13 0.282941 0.523631 0.155205
O O14 0.335322 0.781833 0.114629
O O15 0.750000 0.750000 0.306178
O O16 0.685437 0.572371 0.400801
#
# Coordination Sequence:
#
# PCOD9430615 Si02
#       8
#     4   8   8   8   8   8   8   8
#     4  12  16  34  64  80 106 144 204 236 266 354
#     4  10  20  35  61  82 109 154 201 231 284 365
#     4  11  23  40  61  90 121 160 205 253 307 365
#     4  10  23  38  61  86 120 156 206 247 301 367
#     4   9  18  37  57  79 107 153 199 225 276 361
#     4  11  21  36  57  87 119 146 189 253 309 339
#     4  11  22  40  61  90 117 163 203 254 306 359
#     4  10  20  36  61  83 108 157 198 235 282 365
#
# _framework density 17.844511000000001
#
# number of rings (size 3 to 8) (size 9 to 14) (size 15 to 20)
#    0.000    1.600    4.000    2.800    0.000    2.133 
#    0.000    3.333    0.000    0.000    0.000    0.000 
#    0.000    0.000    0.000    0.000    0.000    0.000 
#
# Total GULP energy -334530.166159 kJ/mol
# GULP energy per Si atom -5575.502769 kJ/mol
# Density = 1.780390 g / cm^3
# Si number density = 17.844511 Si / 1000 Ang^3
#
#
#
# Elastic Constant Matrix: (Units=GPa)
#
#
# Indices 1 2 3 4 5 6 
#
# 1 138.6240 59.5506 40.6500 0.0000 0.0000 0.0000
# 2 59.5506 70.7184 29.5920 0.0000 0.0000 0.0000
# 3 40.6500 29.5920 103.4463 0.0000 0.0000 0.0000
# 4 0.0000 0.0000 0.0000 16.2677 0.0000 0.0000
# 5 0.0000 0.0000 0.0000 0.0000 -0.0010 0.0000
# 6 0.0000 0.0000 0.0000 0.0000 0.0000 30.2522
#
#
#
# Elastic Compliance Matrix: (Units=1/GPa)
#
#
# Indices 1 2 3 4 5 6 
#
# 1 0.011660 -0.008976 -0.002014 0.000000 0.000000 0.000000
# 2 -0.008976 0.022973 -0.003045 0.000000 0.000000 0.000000
# 3 -0.002014 -0.003045 0.011329 0.000000 0.000000 0.000000
# 4 0.000000 0.000000 0.000000 0.061471 0.000000 0.000000
# 5 0.000000 0.000000 0.000000 0.000000********** 0.000000
# 6 0.000000 0.000000 0.000000 0.000000 0.000000 0.033055
#
#
# Mechanical properties :
#
#
# Convention : Reuss Voigt Hill
#
# Bulk Modulus (GPa) = 55.88778 63.59709 59.74243
# Shear Modulus (GPa) = -0.00516 21.50352 10.74918
#
# Velocity S-wave (km/s) = -0.05382 3.47515 2.45701
# Velocity P-wave (km/s) = 5.60209 7.19855 6.44991
#
# Compressibility (1/GPa) = 0.01789300
#
# Stress axis : x y z
#
# Youngs Moduli (GPa) = 85.76009 43.52897 88.26659
#
# Poissons Ratio (x) = 0.39072 0.17780
# Poissons Ratio (y) = 0.76979 0.26873
# Poissons Ratio (z) = 0.17275 0.13252
#
# Static dielectric constant tensor:
#      x y z
#    x 1.622680 0.000000 0.000000 
#    y 0.000000 1.570100 0.000000 
#    z 0.000000 0.000000 1.655720 
# 
# From -- ./inp_files/13260.got.cif
#   From: 2010.05.17/outbox.cif.g08.bks.cpg/sg56_7_cif.got.tgz:13260.got - 2010.06.03 13:42:01.
