data_PCOD9430443
_publ_section_title
;
Structure prediction by ZEFSAII (Michael W. Deem and Ramdas Pophale) SiO2 
 PCOD9430443
Probable space group: P C C N
;
_chemical_formula_sum "Si O2"
_cell_formula_units_Z 64
_cell_length_a 11.270018
_cell_length_b 12.349354
_cell_length_c 24.245699
_cell_angle_alpha 90.000000
_cell_angle_beta 90.000000
_cell_angle_gamma 90.000000
_cell_volume 3374.454363
_symmetry_space_group_name_H-M "P C C N"
_symmetry_group_IT_number 56
_symmetry_cell_setting 'orthorhombic'
loop_
_space_group_symop_operation_xyz
x,y,z
1/2-x,1/2-y,z
1/2+x,-y,1/2-z
-x,1/2+y,1/2-z
-x,-y,-z
1/2+x,1/2+y,-z
1/2-x,y,1/2+z
x,1/2-y,1/2+z
loop_
_atom_site_type_symbol
_atom_site_label
_atom_site_fract_x
_atom_site_fract_y
_atom_site_fract_z
Si Si1 0.684158 0.145026 0.380666
Si Si2 0.014888 0.659748 0.717835
Si Si3 0.538896 0.970501 0.561351
Si Si4 0.846236 0.324730 0.624059
Si Si5 0.197109 0.961256 0.290950
Si Si6 0.703546 0.630206 0.137877
Si Si7 0.240316 0.440261 0.176174
Si Si8 0.930450 0.763160 0.818181
O O1 0.750000 0.250000 0.404897
O O2 0.621446 0.185726 0.323880
O O3 0.576943 0.090569 0.414523
O O4 0.766717 0.042830 0.364072
O O5 0.074900 0.581552 0.763908
O O6 0.909355 0.614667 0.679415
O O7 0.962766 0.757945 0.753463
O O8 0.650331 0.893145 0.577325
O O9 0.500000 0.000000 0.500000
O O10 0.589801 0.079327 0.590735
O O11 0.750000 0.250000 0.593429
O O12 0.777331 0.371853 0.677974
O O13 0.952972 0.253090 0.646040
O O14 0.194323 0.051474 0.338941
O O15 0.262183 0.012441 0.237814
O O16 0.750000 0.750000 0.142454
O O17 0.150295 0.341241 0.170507
O O18 0.365814 0.376745 0.169632
#
# Coordination Sequence:
#
# PCOD9430443 Si02
#       8
#     8   8   8   8   8   8   8   8
#     4  10  22  40  57  87 119 159 203 250 312 381
#     4  10  20  32  51  83 126 167 196 234 289 370
#     4  10  23  45  66  85 114 155 213 281 328 361
#     4  11  22  38  58  87 122 158 212 255 310 390
#     4  10  20  31  49  83 123 166 200 227 292 363
#     4  10  20  40  56  86 119 162 208 252 306 379
#     4  10  21  34  54  83 123 166 198 245 293 370
#     4  11  20  34  53  85 122 166 202 240 301 359
#
# _framework density 18.96603
#
# number of rings (size 3 to 8) (size 9 to 14) (size 15 to 20)
#    0.000    1.750    3.750    0.750    5.250    0.500 
#    4.500    1.250    0.000    0.000    0.000    7.000 
#    0.000    0.000    0.000    0.000    0.000    0.000 
#
# Total GULP energy -356280.479158 kJ/mol
# GULP energy per Si atom -5566.882487 kJ/mol
# Density = 1.892286 g / cm^3
# Si number density = 18.966030 Si / 1000 Ang^3
#
#
#
# Elastic Constant Matrix: (Units=GPa)
#
#
# Indices 1 2 3 4 5 6 
#
# 1 80.6734 44.3609 40.1300 0.0000 0.0000 0.0000
# 2 44.3609 114.1438 34.5319 0.0000 0.0000 0.0000
# 3 40.1300 34.5319 65.1981 0.0000 0.0000 0.0000
# 4 0.0000 0.0000 0.0000 12.6928 0.0000 0.0000
# 5 0.0000 0.0000 0.0000 0.0000 20.8090 0.0000
# 6 0.0000 0.0000 0.0000 0.0000 0.0000 30.2545
#
#
#
# Elastic Compliance Matrix: (Units=1/GPa)
#
#
# Indices 1 2 3 4 5 6 
#
# 1 0.019840 -0.004783 -0.009679 0.000000 0.000000 0.000000
# 2 -0.004783 0.011585 -0.003192 0.000000 0.000000 0.000000
# 3 -0.009679 -0.003192 0.022986 0.000000 0.000000 0.000000
# 4 0.000000 0.000000 0.000000 0.078785 0.000000 0.000000
# 5 0.000000 0.000000 0.000000 0.000000 0.048056 0.000000
# 6 0.000000 0.000000 0.000000 0.000000 0.000000 0.033053
#
#
# Mechanical properties :
#
#
# Convention : Reuss Voigt Hill
#
# Bulk Modulus (GPa) = 52.34468 55.34009 53.84238
# Shear Modulus (GPa) = 19.53273 22.15077 20.84175
#
# Velocity S-wave (km/s) = 3.21266 3.42119 3.31856
# Velocity P-wave (km/s) = 6.43589 6.69686 6.56767
#
# Compressibility (1/GPa) = 0.01910414
#
# Stress axis : x y z
#
# Youngs Moduli (GPa) = 50.40310 86.31570 43.50469
#
# Poissons Ratio (x) = 0.41281 0.42107
# Poissons Ratio (y) = 0.24106 0.13889
# Poissons Ratio (z) = 0.48783 0.27556
#
# Static dielectric constant tensor:
#      x y z
#    x 1.726800 0.000000 0.000000 
#    y 0.000000 1.713620 0.000000 
#    z 0.000000 0.000000 1.659550 
# 
# From -- ./inp_files/21028.got.cif
#   From: 2010.05.17/outbox.cif.g08.bks.cpg/sg56_11_cif.got.tgz:21028.got - 2010.06.03 13:42:01.
