data_PCOD9430266
_publ_section_title
;
Structure prediction by ZEFSAII (Michael W. Deem and Ramdas Pophale) SiO2 
 PCOD9430266
Probable space group: P C C N
;
_chemical_formula_sum "Si O2"
_cell_formula_units_Z 44
_cell_length_a 5.371085
_cell_length_b 14.048965
_cell_length_c 24.046622
_cell_angle_alpha 90.000000
_cell_angle_beta 90.000000
_cell_angle_gamma 90.000000
_cell_volume 1814.514456
_symmetry_space_group_name_H-M "P C C N"
_symmetry_group_IT_number 56
_symmetry_cell_setting 'orthorhombic'
loop_
_space_group_symop_operation_xyz
x,y,z
1/2-x,1/2-y,z
1/2+x,-y,1/2-z
-x,1/2+y,1/2-z
-x,-y,-z
1/2+x,1/2+y,-z
1/2-x,y,1/2+z
x,1/2-y,1/2+z
loop_
_atom_site_type_symbol
_atom_site_label
_atom_site_fract_x
_atom_site_fract_y
_atom_site_fract_z
Si Si1 0.003301 0.611188 0.861245
Si Si2 0.995018 0.888836 0.927737
Si Si3 0.536437 0.882662 0.554380
Si Si4 0.626289 0.889882 0.146352
Si Si5 0.945233 0.562896 0.745375
Si Si6 0.750000 0.250000 0.363633
O O1 0.754886 0.636865 0.894525
O O2 0.987981 0.636202 0.795991
O O3 0.256920 0.637884 0.893349
O O4 0.016142 0.495379 0.857346
O O5 0.000955 0.003809 0.937016
O O6 0.987247 0.852151 0.990830
O O7 0.800268 0.861623 0.583640
O O8 0.349312 0.828886 0.593903
O O9 0.868743 0.896764 0.185559
O O10 0.450564 0.809126 0.170810
O O11 0.694458 0.500935 0.759095
#
# Coordination Sequence:
#
# PCOD9430266 Si02
#       6
#     8   8   8   8   8   4
#     4  10  19  37  59  90 115 155 202 255 301 354
#     4  10  21  36  62  86 121 152 206 256 300 363
#     4  10  22  36  56  87 121 159 202 253 314 364
#     4  10  22  35  58  90 128 160 205 251 315 371
#     4  10  20  35  61  89 122 156 200 256 306 362
#     4  12  22  38  56  88 128 170 200 250 324 382
#
# _framework density 24.248912000000001
#
# number of rings (size 3 to 8) (size 9 to 14) (size 15 to 20)
#    0.000    1.818    1.818    3.818    5.091    2.182 
#    0.000    0.000    0.000    1.091    0.000    0.000 
#    0.000    0.000    0.000    0.000    0.000    0.000 
#
# Total GULP energy -245920.679591 kJ/mol
# GULP energy per Si atom -5589.106354 kJ/mol
# Density = 2.419372 g / cm^3
# Si number density = 24.248912 Si / 1000 Ang^3
#
#
#
# Elastic Constant Matrix: (Units=GPa)
#
#
# Indices 1 2 3 4 5 6 
#
# 1 172.4397 12.4966 73.2714 0.0000 0.0000 0.0000
# 2 12.4966 67.4009 7.4391 0.0000 0.0000 0.0000
# 3 73.2714 7.4391 176.3814 0.0000 0.0000 0.0000
# 4 0.0000 0.0000 0.0000 9.8042 0.0000 0.0000
# 5 0.0000 0.0000 0.0000 0.0000 37.1051 0.0000
# 6 0.0000 0.0000 0.0000 0.0000 0.0000 3.5907
#
#
#
# Elastic Compliance Matrix: (Units=1/GPa)
#
#
# Indices 1 2 3 4 5 6 
#
# 1 0.007108 -0.000997 -0.002911 0.000000 0.000000 0.000000
# 2 -0.000997 0.015046 -0.000221 0.000000 0.000000 0.000000
# 3 -0.002911 -0.000221 0.006888 0.000000 0.000000 0.000000
# 4 0.000000 0.000000 0.000000 0.101997 0.000000 0.000000
# 5 0.000000 0.000000 0.000000 0.000000 0.026950 0.000000
# 6 0.000000 0.000000 0.000000 0.000000 0.000000 0.278499
#
#
# Mechanical properties :
#
#
# Convention : Reuss Voigt Hill
#
# Bulk Modulus (GPa) = 48.10944 66.95956 57.53450
# Shear Modulus (GPa) = 11.06996 31.63434 21.35215
#
# Velocity S-wave (km/s) = 2.13894 3.61580 2.97061
# Velocity P-wave (km/s) = 5.09735 6.71605 5.96189
#
# Compressibility (1/GPa) = 0.02078594
#
# Stress axis : x y z
#
# Youngs Moduli (GPa) = 140.68285 66.46405 145.17951
#
# Poissons Ratio (x) = 0.06624 0.42259
# Poissons Ratio (y) = 0.14021 0.03202
# Poissons Ratio (z) = 0.40950 0.01466
#
# Static dielectric constant tensor:
#      x y z
#    x 2.017520 0.000000 0.000000 
#    y 0.000000 1.973200 0.000000 
#    z 0.000000 0.000000 1.934460 
# 
# From -- ./inp_files/20039.got.cif
#   From: 2010.05.17/outbox.cif.g08.bks.cpg/sg56_11_cif.got.tgz:20039.got - 2010.06.03 13:42:01.
