data_PCOD9430917
_publ_section_title
;
Structure prediction by ZEFSAII (Michael W. Deem and Ramdas Pophale) SiO2 
 PCOD9430917
Probable space group: P C C N
;
_chemical_formula_sum "Si O2"
_cell_formula_units_Z 48
_cell_length_a 16.034295
_cell_length_b 9.338423
_cell_length_c 14.549443
_cell_angle_alpha 90.000000
_cell_angle_beta 90.000000
_cell_angle_gamma 90.000000
_cell_volume 2178.561273
_symmetry_space_group_name_H-M "P C C N"
_symmetry_group_IT_number 56
_symmetry_cell_setting 'orthorhombic'
loop_
_space_group_symop_operation_xyz
x,y,z
1/2-x,1/2-y,z
1/2+x,-y,1/2-z
-x,1/2+y,1/2-z
-x,-y,-z
1/2+x,1/2+y,-z
1/2-x,y,1/2+z
x,1/2-y,1/2+z
loop_
_atom_site_type_symbol
_atom_site_label
_atom_site_fract_x
_atom_site_fract_y
_atom_site_fract_z
Si Si1 0.033430 0.774641 0.264980
Si Si2 0.308428 0.447354 0.098781
Si Si3 0.113837 0.085808 0.287427
Si Si4 0.857594 0.545031 0.001988
Si Si5 0.975337 0.788760 0.958062
Si Si6 0.382542 0.755794 0.586367
O O1 0.943251 0.726045 0.226633
O O2 0.031794 0.707445 0.366674
O O3 0.055800 0.943439 0.271226
O O4 0.099114 0.712307 0.191472
O O5 0.317760 0.416054 0.206992
O O6 0.391703 0.380850 0.053622
O O7 0.316045 0.618390 0.085721
O O8 0.222982 0.400661 0.052865
O O9 0.148682 0.073486 0.389712
O O10 0.939048 0.628325 0.966966
O O11 0.865735 0.378895 0.977392
O O12 0.031139 0.821728 0.046018
#
# Coordination Sequence:
#
# PCOD9430917 Si02
#       6
#     8   8   8   8   8   8
#     4  10  20  38  64  96 118 154 216 268 296 360
#     4  10  25  41  58  93 134 155 203 259 317 369
#     4  10  21  41  65  91 123 162 212 259 314 366
#     4  12  22  43  64  93 125 173 203 255 320 382
#     4  11  21  40  66  91 121 165 211 257 302 372
#     4  11  21  40  66  91 121 165 211 257 302 372
#
# _framework density 22.032889999999998
#
# number of rings (size 3 to 8) (size 9 to 14) (size 15 to 20)
#    0.000    1.333    3.333    3.000    0.000    0.000 
#    6.000    3.333    0.000    0.000    0.000    0.000 
#    0.000    0.000    0.000    0.000    0.000    0.000 
#
# Total GULP energy -268196.377474 kJ/mol
# GULP energy per Si atom -5587.424531 kJ/mol
# Density = 2.198274 g / cm^3
# Si number density = 22.032890 Si / 1000 Ang^3
#
#
#
# Elastic Constant Matrix: (Units=GPa)
#
#
# Indices 1 2 3 4 5 6 
#
# 1 70.9542 14.1816 43.7688 0.0000 0.0000 0.0000
# 2 14.1816 46.5441 24.7079 0.0000 0.0000 0.0000
# 3 43.7688 24.7079 132.6694 0.0000 0.0000 0.0000
# 4 0.0000 0.0000 0.0000 20.0850 0.0000 0.0000
# 5 0.0000 0.0000 0.0000 0.0000 32.0223 0.0000
# 6 0.0000 0.0000 0.0000 0.0000 0.0000 26.7317
#
#
#
# Elastic Compliance Matrix: (Units=1/GPa)
#
#
# Indices 1 2 3 4 5 6 
#
# 1 0.017970 -0.002584 -0.005447 0.000000 0.000000 0.000000
# 2 -0.002584 0.024214 -0.003657 0.000000 0.000000 0.000000
# 3 -0.005447 -0.003657 0.010016 0.000000 0.000000 0.000000
# 4 0.000000 0.000000 0.000000 0.049788 0.000000 0.000000
# 5 0.000000 0.000000 0.000000 0.000000 0.031228 0.000000
# 6 0.000000 0.000000 0.000000 0.000000 0.000000 0.037409
#
#
# Mechanical properties :
#
#
# Convention : Reuss Voigt Hill
#
# Bulk Modulus (GPa) = 34.69406 46.16491 40.42949
# Shear Modulus (GPa) = 24.55688 26.93510 25.74599
#
# Velocity S-wave (km/s) = 3.34212 3.50021 3.42208
# Velocity P-wave (km/s) = 5.53838 6.11012 5.83126
#
# Compressibility (1/GPa) = 0.02882338
#
# Stress axis : x y z
#
# Youngs Moduli (GPa) = 55.64745 41.29913 99.84271
#
# Poissons Ratio (x) = 0.10670 0.54388
# Poissons Ratio (y) = 0.14377 0.36513
# Poissons Ratio (z) = 0.30313 0.15103
#
# Static dielectric constant tensor:
#      x y z
#    x 1.792700 0.000000 0.000000 
#    y 0.000000 1.861130 0.000000 
#    z 0.000000 0.000000 1.788480 
# 
# From -- ./inp_files/12217.got.cif
#   From: 2010.05.17/outbox.cif.g08.bks.cpg/sg56_7_cif.got.tgz:12217.got - 2010.06.03 13:42:01.
