data_PCOD9430294
_publ_section_title
;
Structure prediction by ZEFSAII (Michael W. Deem and Ramdas Pophale) SiO2 
 PCOD9430294
Probable space group: P C C N
;
_chemical_formula_sum "Si O2"
_cell_formula_units_Z 56
_cell_length_a 12.321986
_cell_length_b 12.471038
_cell_length_c 14.376325
_cell_angle_alpha 90.000000
_cell_angle_beta 90.000000
_cell_angle_gamma 90.000000
_cell_volume 2209.180472
_symmetry_space_group_name_H-M "P C C N"
_symmetry_group_IT_number 56
_symmetry_cell_setting 'orthorhombic'
loop_
_space_group_symop_operation_xyz
x,y,z
1/2-x,1/2-y,z
1/2+x,-y,1/2-z
-x,1/2+y,1/2-z
-x,-y,-z
1/2+x,1/2+y,-z
1/2-x,y,1/2+z
x,1/2-y,1/2+z
loop_
_atom_site_type_symbol
_atom_site_label
_atom_site_fract_x
_atom_site_fract_y
_atom_site_fract_z
Si Si1 0.629566 0.792800 0.870491
Si Si2 0.089296 0.716263 0.296450
Si Si3 0.086716 0.607012 0.669849
Si Si4 0.888329 0.001875 0.274610
Si Si5 0.294948 0.633172 0.986925
Si Si6 0.594926 0.746886 0.082439
Si Si7 0.274524 0.063574 0.874132
O O1 0.750000 0.750000 0.848724
O O2 0.538563 0.739587 0.806498
O O3 0.612739 0.919838 0.858522
O O4 0.598279 0.764603 0.973740
O O5 0.136887 0.828898 0.258247
O O6 0.113319 0.627552 0.219342
O O7 0.130760 0.669330 0.396248
O O8 0.158675 0.575350 0.580749
O O9 0.995736 0.525916 0.711279
O O10 0.014345 0.696766 0.618121
O O11 0.775477 0.971967 0.223168
O O12 0.250000 0.750000 0.016139
O O13 0.221430 0.539586 0.940628
O O14 0.620960 0.862136 0.127154
O O15 0.684567 0.653021 0.096436
#
# Coordination Sequence:
#
# PCOD9430294 Si02
#       7
#     8   8   8   8   8   8   8
#     4  11  21  36  64  95 126 161 212 270 313 378
#     4  10  23  44  60  94 131 165 212 264 312 385
#     4  10  22  40  65  87 126 167 210 259 322 378
#     4   9  22  37  62  89 126 162 204 259 321 372
#     4  11  24  43  65  89 126 177 216 254 315 392
#     4  10  19  37  63  95 121 156 208 271 323 361
#     4   9  20  37  61  92 120 156 209 261 311 375
#
# _framework density 25.348766000000001
#
# number of rings (size 3 to 8) (size 9 to 14) (size 15 to 20)
#    0.000    2.000    2.857    0.000    8.000    3.429 
#    5.143    2.857    0.000    0.000    0.000    0.000 
#    0.000    0.000    0.000    0.000    0.000    0.000 
#
# Total GULP energy -312743.069985 kJ/mol
# GULP energy per Si atom -5584.697678 kJ/mol
# Density = 2.529107 g / cm^3
# Si number density = 25.348766 Si / 1000 Ang^3
#
#
#
# Elastic Constant Matrix: (Units=GPa)
#
#
# Indices 1 2 3 4 5 6 
#
# 1 46.4594 26.8768 18.1188 0.0000 0.0000 0.0000
# 2 26.8768 98.2951 11.6427 0.0000 0.0000 0.0000
# 3 18.1188 11.6427 68.7047 0.0000 0.0000 0.0000
# 4 0.0000 0.0000 0.0000 23.0214 0.0000 0.0000
# 5 0.0000 0.0000 0.0000 0.0000 -18.6707 0.0000
# 6 0.0000 0.0000 0.0000 0.0000 0.0000 23.7026
#
#
#
# Elastic Compliance Matrix: (Units=1/GPa)
#
#
# Indices 1 2 3 4 5 6 
#
# 1 0.027935 -0.006904 -0.006197 0.000000 0.000000 0.000000
# 2 -0.006904 0.012088 -0.000228 0.000000 0.000000 0.000000
# 3 -0.006197 -0.000228 0.016228 0.000000 0.000000 0.000000
# 4 0.000000 0.000000 0.000000 0.043438 0.000000 0.000000
# 5 0.000000 0.000000 0.000000 0.000000 -0.053560 0.000000
# 6 0.000000 0.000000 0.000000 0.000000 0.000000 0.042189
#
#
# Mechanical properties :
#
#
# Convention : Reuss Voigt Hill
#
# Bulk Modulus (GPa) = 33.79148 36.30397 35.04772
# Shear Modulus (GPa) = 40.05091 16.06539 28.05815
#
# Velocity S-wave (km/s) = 3.97923 2.52022 3.33060
# Velocity P-wave (km/s) = 5.87128 4.77719 5.35226
#
# Compressibility (1/GPa) = 0.02959326
#
# Stress axis : x y z
#
# Youngs Moduli (GPa) = 35.79729 82.72502 61.62218
#
# Poissons Ratio (x) = 0.57115 0.38188
# Poissons Ratio (y) = 0.24715 0.01403
# Poissons Ratio (z) = 0.22184 0.01883
#
# Static dielectric constant tensor:
#      x y z
#    x 2.071700 0.000000 0.000000 
#    y 0.000000 1.985810 0.000000 
#    z 0.000000 0.000000 2.040640 
# 
# From -- ./inp_files/12289.got.cif
#   From: 2010.05.17/outbox.cif.g08.bks.cpg/sg56_7_cif.got.tgz:12289.got - 2010.06.03 13:42:01.
