data_PCOD9430464
_publ_section_title
;
Structure prediction by ZEFSAII (Michael W. Deem and Ramdas Pophale) SiO2 
 PCOD9430464
Probable space group: P C C N
;
_chemical_formula_sum "Si O2"
_cell_formula_units_Z 52
_cell_length_a 20.486562
_cell_length_b 7.477008
_cell_length_c 14.144778
_cell_angle_alpha 90.000000
_cell_angle_beta 90.000000
_cell_angle_gamma 90.000000
_cell_volume 2166.671463
_symmetry_space_group_name_H-M "P C C N"
_symmetry_group_IT_number 56
_symmetry_cell_setting 'orthorhombic'
loop_
_space_group_symop_operation_xyz
x,y,z
1/2-x,1/2-y,z
1/2+x,-y,1/2-z
-x,1/2+y,1/2-z
-x,-y,-z
1/2+x,1/2+y,-z
1/2-x,y,1/2+z
x,1/2-y,1/2+z
loop_
_atom_site_type_symbol
_atom_site_label
_atom_site_fract_x
_atom_site_fract_y
_atom_site_fract_z
Si Si1 0.750000 0.750000 0.186732
Si Si2 0.650137 0.587471 0.318268
Si Si3 0.672652 0.248254 0.085712
Si Si4 0.914820 0.143606 0.744785
Si Si5 0.048078 0.263449 0.827216
Si Si6 0.174921 0.802643 0.114304
Si Si7 0.143338 0.159551 0.470650
O O1 0.716585 0.607386 0.257307
O O2 0.692819 0.782666 0.111636
O O3 0.592402 0.661896 0.251592
O O4 0.640563 0.382525 0.351379
O O5 0.655979 0.690431 0.418925
O O6 0.750000 0.250000 0.113551
O O7 0.620709 0.273771 0.168722
O O8 0.653110 0.054653 0.043772
O O9 0.664842 0.369111 0.992595
O O10 0.855067 0.067980 0.808126
O O11 0.974313 0.208678 0.808751
O O12 0.944156 0.974183 0.691084
O O13 0.076253 0.251169 0.933609
O O14 0.250000 0.750000 0.120076
#
# Coordination Sequence:
#
# PCOD9430464 Si02
#       7
#     4   8   8   8   8   8   8
#     4  10  20  32  58  90 114 154 190 234 292 348
#     4  10  21  38  60  85 120 155 193 239 297 348
#     4   9  20  38  59  86 115 151 195 242 302 352
#     4  11  22  40  61  84 120 157 202 251 288 358
#     4  10  23  40  60  86 117 161 204 240 302 347
#     4  10  22  37  61  90 116 153 194 244 302 355
#     4   9  20  38  56  85 120 151 189 244 291 355
#
# _framework density 23.999949000000001
#
# number of rings (size 3 to 8) (size 9 to 14) (size 15 to 20)
#    0.000    2.154    0.000    1.846    8.615    1.231 
#    2.769    6.154    0.000    0.000    0.000    0.000 
#    0.000    0.000    0.000    0.000    0.000    0.000 
#
# Total GULP energy -289845.539396 kJ/mol
# GULP energy per Si atom -5573.952681 kJ/mol
# Density = 2.394532 g / cm^3
# Si number density = 23.999949 Si / 1000 Ang^3
#
#
#
# Elastic Constant Matrix: (Units=GPa)
#
#
# Indices 1 2 3 4 5 6 
#
# 1 99.1308 5.3370 24.9373 0.0000 0.0000 0.0000
# 2 5.3370 24.6087 3.7058 0.0000 0.0000 0.0000
# 3 24.9373 3.7058 135.0694 0.0000 0.0000 0.0000
# 4 0.0000 0.0000 0.0000 17.9465 0.0000 0.0000
# 5 0.0000 0.0000 0.0000 0.0000 -18.0595 0.0000
# 6 0.0000 0.0000 0.0000 0.0000 0.0000 29.1532
#
#
#
# Elastic Compliance Matrix: (Units=1/GPa)
#
#
# Indices 1 2 3 4 5 6 
#
# 1 0.010679 -0.002027 -0.001916 0.000000 0.000000 0.000000
# 2 -0.002027 0.041190 -0.000756 0.000000 0.000000 0.000000
# 3 -0.001916 -0.000756 0.007778 0.000000 0.000000 0.000000
# 4 0.000000 0.000000 0.000000 0.055721 0.000000 0.000000
# 5 0.000000 0.000000 0.000000 0.000000 -0.055372 0.000000
# 6 0.000000 0.000000 0.000000 0.000000 0.000000 0.034302
#
#
# Mechanical properties :
#
#
# Convention : Reuss Voigt Hill
#
# Bulk Modulus (GPa) = 19.90125 36.30769 28.10447
# Shear Modulus (GPa) = 41.51291 20.79663 31.15477
#
# Velocity S-wave (km/s) = 4.16349 2.94688 3.60685
# Velocity P-wave (km/s) = 5.60563 5.17106 5.39272
#
# Compressibility (1/GPa) = 0.05024809
#
# Stress axis : x y z
#
# Youngs Moduli (GPa) = 93.64339 24.27799 128.56659
#
# Poissons Ratio (x) = 0.04922 0.24633
# Poissons Ratio (y) = 0.18986 0.09717
# Poissons Ratio (z) = 0.17942 0.01835
#
# Static dielectric constant tensor:
#      x y z
#    x 1.982840 0.000000 0.000000 
#    y 0.000000 2.104010 0.000000 
#    z 0.000000 0.000000 2.113630 
# 
# From -- ./inp_files/10834.got.cif
#   From: 2010.05.17/outbox.cif.g08.bks.cpg/sg56_6_cif.got.tgz:10834.got - 2010.06.03 13:42:01.
