data_PCOD9430270
_publ_section_title
;
Structure prediction by ZEFSAII (Michael W. Deem and Ramdas Pophale) SiO2 
 PCOD9430270
Probable space group: P C C N
;
_chemical_formula_sum "Si O2"
_cell_formula_units_Z 48
_cell_length_a 17.818782
_cell_length_b 8.673306
_cell_length_c 15.387785
_cell_angle_alpha 90.000000
_cell_angle_beta 90.000000
_cell_angle_gamma 90.000000
_cell_volume 2378.147531
_symmetry_space_group_name_H-M "P C C N"
_symmetry_group_IT_number 56
_symmetry_cell_setting 'orthorhombic'
loop_
_space_group_symop_operation_xyz
x,y,z
1/2-x,1/2-y,z
1/2+x,-y,1/2-z
-x,1/2+y,1/2-z
-x,-y,-z
1/2+x,1/2+y,-z
1/2-x,y,1/2+z
x,1/2-y,1/2+z
loop_
_atom_site_type_symbol
_atom_site_label
_atom_site_fract_x
_atom_site_fract_y
_atom_site_fract_z
Si Si1 0.691215 0.387596 0.689236
Si Si2 0.241656 0.429999 0.168859
Si Si3 0.453496 0.645690 0.533325
Si Si4 0.467554 0.730393 0.855706
Si Si5 0.281928 0.922762 0.993512
Si Si6 0.068286 0.990719 0.708587
O O1 0.750000 0.250000 0.702424
O O2 0.694841 0.487021 0.774885
O O3 0.610707 0.318196 0.666449
O O4 0.720575 0.481171 0.605031
O O5 0.250000 0.250000 0.180624
O O6 0.252768 0.474733 0.068415
O O7 0.158843 0.488278 0.201000
O O8 0.500000 0.500000 0.500000
O O9 0.472151 0.777324 0.461582
O O10 0.367814 0.600005 0.518541
O O11 0.459356 0.639944 0.637977
O O12 0.459895 0.572253 0.801646
O O13 0.531730 0.846441 0.820345
O O14 0.250000 0.750000 0.993910
#
# Coordination Sequence:
#
# PCOD9430270 Si02
#       6
#     8   8   8   8   8   8
#     4  10  19  37  60  83 108 149 187 239 279 338
#     4  11  23  36  55  84 120 146 188 235 286 333
#     4   8  17  35  56  78 108 145 181 231 276 331
#     4  10  20  36  59  80 113 146 193 228 284 335
#     4   9  19  34  59  82 106 148 192 226 280 340
#     4  10  21  37  58  83 112 152 189 230 282 340
#
# _framework density 20.183778
#
# number of rings (size 3 to 8) (size 9 to 14) (size 15 to 20)
#    0.000    2.333    1.667    0.500    4.667    0.667 
#    0.000    0.833    3.667    0.000    0.000    0.000 
#    0.000    0.000    0.000    0.000    0.000    0.000 
#
# Total GULP energy -267291.605772 kJ/mol
# GULP energy per Si atom -5568.575120 kJ/mol
# Density = 2.013784 g / cm^3
# Si number density = 20.183778 Si / 1000 Ang^3
#
#
#
# Elastic Constant Matrix: (Units=GPa)
#
#
# Indices 1 2 3 4 5 6 
#
# 1 50.6468 -4.4391 -15.5445 0.0000 0.0000 0.0000
# 2 -4.4391 15.8558 -1.0945 0.0000 0.0000 0.0000
# 3 -15.5445 -1.0945 51.3132 0.0000 0.0000 0.0000
# 4 0.0000 0.0000 0.0000 329.6858 0.0000 0.0000
# 5 0.0000 0.0000 0.0000 0.0000 -28.2866 0.0000
# 6 0.0000 0.0000 0.0000 0.0000 0.0000 23.3379
#
#
#
# Elastic Compliance Matrix: (Units=1/GPa)
#
#
# Indices 1 2 3 4 5 6 
#
# 1 0.022472 0.006771 0.006952 0.000000 0.000000 0.000000
# 2 0.006771 0.065202 0.003442 0.000000 0.000000 0.000000
# 3 0.006952 0.003442 0.021668 0.000000 0.000000 0.000000
# 4 0.000000 0.000000 0.000000 0.003033 0.000000 0.000000
# 5 0.000000 0.000000 0.000000 0.000000 -0.035352 0.000000
# 6 0.000000 0.000000 0.000000 0.000000 0.000000 0.042849
#
#
# Mechanical properties :
#
#
# Convention : Reuss Voigt Hill
#
# Bulk Modulus (GPa) = 6.96034 8.40661 7.68348
# Shear Modulus (GPa) = 37.47269 74.20702 55.83986
#
# Velocity S-wave (km/s) = 4.31347 6.07005 5.26553
# Velocity P-wave (km/s) = 5.31639 7.30078 6.38613
#
# Compressibility (1/GPa) = 0.14367112
#
# Stress axis : x y z
#
# Youngs Moduli (GPa) = 44.50035 15.33706 46.15194
#
# Poissons Ratio (x) = -0.10385 -0.32084
# Poissons Ratio (y) = -0.30132 -0.15885
# Poissons Ratio (z) = -0.30936 -0.05279
#
# Static dielectric constant tensor:
#      x y z
#    x 1.712690 0.000000 0.000000 
#    y 0.000000 2.063480 0.000000 
#    z 0.000000 0.000000 1.812240 
# 
# From -- ./inp_files/10686.got.cif
#   From: 2010.05.17/outbox.cif.g08.bks.cpg/sg56_6_cif.got.tgz:10686.got - 2010.06.03 13:42:01.
