data_PCOD9430453
_publ_section_title
;
Structure prediction by ZEFSAII (Michael W. Deem and Ramdas Pophale) SiO2 
 PCOD9430453
Probable space group: P C C N
;
_chemical_formula_sum "Si O2"
_cell_formula_units_Z 64
_cell_length_a 20.677756
_cell_length_b 17.945446
_cell_length_c 9.016759
_cell_angle_alpha 90.000000
_cell_angle_beta 90.000000
_cell_angle_gamma 90.000000
_cell_volume 3345.862771
_symmetry_space_group_name_H-M "P C C N"
_symmetry_group_IT_number 56
_symmetry_cell_setting 'orthorhombic'
loop_
_space_group_symop_operation_xyz
x,y,z
1/2-x,1/2-y,z
1/2+x,-y,1/2-z
-x,1/2+y,1/2-z
-x,-y,-z
1/2+x,1/2+y,-z
1/2-x,y,1/2+z
x,1/2-y,1/2+z
loop_
_atom_site_type_symbol
_atom_site_label
_atom_site_fract_x
_atom_site_fract_y
_atom_site_fract_z
Si Si1 0.725337 0.833518 0.193537
Si Si2 0.075554 0.689825 0.531334
Si Si3 0.657235 0.040067 0.492008
Si Si4 0.241907 0.594401 0.770318
Si Si5 0.308063 0.806220 0.020808
Si Si6 0.986351 0.759096 0.281642
Si Si7 0.658903 0.621733 0.997593
Si Si8 0.897903 0.784394 0.531092
O O1 0.750000 0.750000 0.231077
O O2 0.694457 0.867715 0.339853
O O3 0.669235 0.823659 0.069583
O O4 0.785722 0.875362 0.123059
O O5 0.110508 0.611320 0.507968
O O6 0.128673 0.756295 0.542585
O O7 0.029385 0.711825 0.395190
O O8 0.033016 0.691660 0.680059
O O9 0.708309 0.051456 0.625029
O O10 0.699678 0.046015 0.342057
O O11 0.625799 0.958706 0.502016
O O12 0.284805 0.649643 0.667115
O O13 0.193168 0.638986 0.879569
O O14 0.250000 0.750000 0.986545
O O15 0.934421 0.804424 0.380159
O O16 0.946063 0.707166 0.169362
O O17 0.616148 0.695507 0.019064
#
# Coordination Sequence:
#
# PCOD9430453 Si02
#       8
#     8   8   8   8   8   8   8   8
#     4  10  20  36  64  93 116 140 189 243 296 348
#     4  11  21  34  57  82 114 151 198 246 277 332
#     4  11  22  35  52  86 127 154 178 226 296 375
#     4  10  20  32  51  82 122 150 186 229 293 346
#     4  11  19  31  57  80 109 149 204 248 293 317
#     4  10  22  37  57  85 105 148 209 243 276 315
#     4  11  22  36  60  94 117 150 180 226 313 368
#     4  10  20  40  63  83 112 144 191 260 280 326
#
# _framework density 19.128101000000001
#
# number of rings (size 3 to 8) (size 9 to 14) (size 15 to 20)
#    0.000    1.500    3.750    3.750    1.750    0.000 
#    0.000    2.500    0.000    0.750    0.000    0.000 
#    0.000    0.000    0.000    0.000    0.000    0.000 
#
# Total GULP energy -357370.158169 kJ/mol
# GULP energy per Si atom -5583.908721 kJ/mol
# Density = 1.908456 g / cm^3
# Si number density = 19.128101 Si / 1000 Ang^3
#
#
#
# Elastic Constant Matrix: (Units=GPa)
#
#
# Indices 1 2 3 4 5 6 
#
# 1 50.6241 4.1828 5.5001 0.0000 0.0000 0.0000
# 2 4.1828 70.3366 12.5362 0.0000 0.0000 0.0000
# 3 5.5001 12.5362 91.9706 0.0000 0.0000 0.0000
# 4 0.0000 0.0000 0.0000 -4.4783 0.0000 0.0000
# 5 0.0000 0.0000 0.0000 0.0000 29.3659 0.0000
# 6 0.0000 0.0000 0.0000 0.0000 0.0000 3.7297
#
#
#
# Elastic Compliance Matrix: (Units=1/GPa)
#
#
# Indices 1 2 3 4 5 6 
#
# 1 0.019951 -0.000998 -0.001057 0.000000 0.000000 0.000000
# 2 -0.000998 0.014621 -0.001933 0.000000 0.000000 0.000000
# 3 -0.001057 -0.001933 0.011200 0.000000 0.000000 0.000000
# 4 0.000000 0.000000 0.000000 -0.223299 0.000000 0.000000
# 5 0.000000 0.000000 0.000000 0.000000 0.034053 0.000000
# 6 0.000000 0.000000 0.000000 0.000000 0.000000 0.268119
#
#
# Mechanical properties :
#
#
# Convention : Reuss Voigt Hill
#
# Bulk Modulus (GPa) = 26.45853 28.59660 27.52757
# Shear Modulus (GPa) = 34.43047 18.43759 26.43403
#
# Velocity S-wave (km/s) = 4.24724 3.10804 3.72149
# Velocity P-wave (km/s) = 6.15746 5.27849 5.73484
#
# Compressibility (1/GPa) = 0.03779500
#
# Stress axis : x y z
#
# Youngs Moduli (GPa) = 50.12343 68.39345 89.28746
#
# Poissons Ratio (x) = 0.06826 0.09438
# Poissons Ratio (y) = 0.05003 0.17262
# Poissons Ratio (z) = 0.05298 0.13222
#
# Static dielectric constant tensor:
#      x y z
#    x 1.667250 0.000000 0.000000 
#    y 0.000000 1.717800 0.000000 
#    z 0.000000 0.000000 1.694130 
# 
# From -- ./inp_files/4219.got.cif
#   From: 2010.05.17/outbox.cif.g08.bks.cpg/sg56_3_cif.got.tgz:4219.got - 2010.06.03 13:42:01.
