data_PCOD9430163
_publ_section_title
;
Structure prediction by ZEFSAII (Michael W. Deem and Ramdas Pophale) SiO2 
 PCOD9430163
Probable space group: P C C N
;
_chemical_formula_sum "Si O2"
_cell_formula_units_Z 56
_cell_length_a 10.553040
_cell_length_b 20.650717
_cell_length_c 9.778233
_cell_angle_alpha 90.000000
_cell_angle_beta 90.000000
_cell_angle_gamma 90.000000
_cell_volume 2130.949221
_symmetry_space_group_name_H-M "P C C N"
_symmetry_group_IT_number 56
_symmetry_cell_setting 'orthorhombic'
loop_
_space_group_symop_operation_xyz
x,y,z
1/2-x,1/2-y,z
1/2+x,-y,1/2-z
-x,1/2+y,1/2-z
-x,-y,-z
1/2+x,1/2+y,-z
1/2-x,y,1/2+z
x,1/2-y,1/2+z
loop_
_atom_site_type_symbol
_atom_site_label
_atom_site_fract_x
_atom_site_fract_y
_atom_site_fract_z
Si Si1 0.966562 0.393167 0.672164
Si Si2 0.210283 0.611358 0.667486
Si Si3 0.750000 0.250000 0.801242
Si Si4 0.125567 0.352178 0.941262
Si Si5 0.001005 0.743240 0.387734
Si Si6 0.314001 0.487162 0.522706
Si Si7 0.750000 0.750000 0.209355
Si Si8 0.043720 0.517354 0.764469
O O1 0.819914 0.391024 0.716566
O O2 0.045697 0.378672 0.812226
O O3 0.993335 0.333218 0.571896
O O4 0.014752 0.465895 0.644846
O O5 0.233371 0.683800 0.612873
O O6 0.231925 0.548651 0.571100
O O7 0.072536 0.591512 0.725945
O O8 0.626192 0.251621 0.704453
O O9 0.242375 0.311501 0.886354
O O10 0.025574 0.301307 0.007353
O O11 0.191963 0.409011 0.028306
O O12 0.875408 0.749452 0.296956
O O13 0.431866 0.493288 0.627434
O O14 0.337055 0.498643 0.361083
#
# Coordination Sequence:
#
# PCOD9430163 Si02
#       8
#     8   8   4   8   8   8   4   8
#     4   8  19  36  54  85 119 148 195 249 292 352
#     4  10  19  35  57  80 112 149 191 246 302 358
#     4  10  22  38  58  88 118 152 196 244 306 366
#     4  10  19  35  58  83 117 156 200 244 293 356
#     4  10  20  38  61  87 122 162 198 243 306 358
#     4   9  19  33  54  79 105 145 191 236 287 348
#     4  10  22  36  56  88 122 156 204 252 296 356
#     4   9  17  34  56  78 105 144 192 235 288 351
#
# _framework density 26.279368000000002
#
# number of rings (size 3 to 8) (size 9 to 14) (size 15 to 20)
#    0.000    2.571    0.000    2.143    0.000    4.571 
#    0.000   15.714    0.000    4.286    0.000    0.000 
#    0.000    0.000    0.000    0.000    0.000    0.000 
#
# Total GULP energy -312221.022059 kJ/mol
# GULP energy per Si atom -5575.375394 kJ/mol
# Density = 2.621955 g / cm^3
# Si number density = 26.279368 Si / 1000 Ang^3
#
#
#
# Elastic Constant Matrix: (Units=GPa)
#
#
# Indices 1 2 3 4 5 6 
#
# 1 87.6657 27.0138 25.6410 0.0000 0.0000 0.0000
# 2 27.0138 186.0017 48.3827 0.0000 0.0000 0.0000
# 3 25.6410 48.3827 60.6242 0.0000 0.0000 0.0000
# 4 0.0000 0.0000 0.0000 6.4398 0.0000 0.0000
# 5 0.0000 0.0000 0.0000 0.0000 108.4047 0.0000
# 6 0.0000 0.0000 0.0000 0.0000 0.0000 43.5414
#
#
#
# Elastic Compliance Matrix: (Units=1/GPa)
#
#
# Indices 1 2 3 4 5 6 
#
# 1 0.013067 -0.000581 -0.005063 0.000000 0.000000 0.000000
# 2 -0.000581 0.006811 -0.005190 0.000000 0.000000 0.000000
# 3 -0.005063 -0.005190 0.022778 0.000000 0.000000 0.000000
# 4 0.000000 0.000000 0.000000 0.155284 0.000000 0.000000
# 5 0.000000 0.000000 0.000000 0.000000 0.009225 0.000000
# 6 0.000000 0.000000 0.000000 0.000000 0.000000 0.022967
#
#
# Mechanical properties :
#
#
# Convention : Reuss Voigt Hill
#
# Bulk Modulus (GPa) = 47.64516 59.59630 53.62073
# Shear Modulus (GPa) = 19.32032 47.22746 33.27389
#
# Velocity S-wave (km/s) = 2.71438 4.24386 3.56217
# Velocity P-wave (km/s) = 5.29088 6.83674 6.11287
#
# Compressibility (1/GPa) = 0.02098849
#
# Stress axis : x y z
#
# Youngs Moduli (GPa) = 76.52966 146.83007 43.90134
#
# Poissons Ratio (x) = 0.08527 0.22228
# Poissons Ratio (y) = 0.04444 0.22784
# Poissons Ratio (z) = 0.38748 0.76201
#
# Static dielectric constant tensor:
#      x y z
#    x 2.173550 0.000000 0.000000 
#    y 0.000000 2.158950 0.000000 
#    z 0.000000 0.000000 2.138930 
# 
# From -- ./inp_files/7282.got.cif
#   From: 2010.05.17/outbox.cif.g08.bks.cpg/sg56_4_cif.got.tgz:7282.got - 2010.06.03 13:42:01.
