data_PCOD9430537
_publ_section_title
;
Structure prediction by ZEFSAII (Michael W. Deem and Ramdas Pophale) SiO2 
 PCOD9430537
Probable space group: P C C N
;
_chemical_formula_sum "Si O2"
_cell_formula_units_Z 60
_cell_length_a 19.172637
_cell_length_b 16.369091
_cell_length_c 9.222804
_cell_angle_alpha 90.000000
_cell_angle_beta 90.000000
_cell_angle_gamma 90.000000
_cell_volume 2894.472262
_symmetry_space_group_name_H-M "P C C N"
_symmetry_group_IT_number 56
_symmetry_cell_setting 'orthorhombic'
loop_
_space_group_symop_operation_xyz
x,y,z
1/2-x,1/2-y,z
1/2+x,-y,1/2-z
-x,1/2+y,1/2-z
-x,-y,-z
1/2+x,1/2+y,-z
1/2-x,y,1/2+z
x,1/2-y,1/2+z
loop_
_atom_site_type_symbol
_atom_site_label
_atom_site_fract_x
_atom_site_fract_y
_atom_site_fract_z
Si Si1 0.211795 0.835531 0.137751
Si Si2 0.973723 0.761195 0.922919
Si Si3 0.250000 0.250000 0.646645
Si Si4 0.238273 0.364554 0.393899
Si Si5 0.551870 0.169056 0.316049
Si Si6 0.720042 0.049279 0.091533
Si Si7 0.901141 0.841644 0.664782
Si Si8 0.561611 0.015322 0.114677
O O1 0.250000 0.750000 0.173779
O O2 0.129786 0.817726 0.126897
O O3 0.217292 0.910132 0.251219
O O4 0.245513 0.878162 0.999234
O O5 0.917207 0.790256 0.807155
O O6 0.034553 0.733423 0.812442
O O7 0.942968 0.689950 0.024325
O O8 0.001255 0.822943 0.045795
O O9 0.214076 0.314546 0.535058
O O10 0.289806 0.315250 0.752901
O O11 0.237241 0.463060 0.407041
O O12 0.320744 0.346789 0.376509
O O13 0.544443 0.084888 0.229906
O O14 0.638736 0.034122 0.046377
O O15 0.927295 0.931668 0.699408
O O16 0.500000 0.000000 0.000000
#
# Coordination Sequence:
#
# PCOD9430537 Si02
#       8
#     8   8   4   8   8   8   8   8
#     4  11  24  39  61  88 121 166 212 249 308 368
#     4  10  21  37  59  91 118 155 201 255 300 362
#     4  10  20  34  62  86 118 158 200 240 308 380
#     4  10  20  37  59  88 121 156 199 251 305 368
#     4  10  23  38  61  88 123 158 204 255 300 366
#     4  10  23  39  60  87 123 159 200 257 300 359
#     4  10  20  36  61  82 121 151 198 246 305 363
#     4  10  20  39  60  83 116 159 197 243 306 358
#
# _framework density 20.729167
#
# number of rings (size 3 to 8) (size 9 to 14) (size 15 to 20)
#    0.000    1.867    1.333    2.000    5.600    0.533 
#    0.000    0.000    2.933    0.000    0.000    0.000 
#    0.000    0.000    0.000    0.000    0.000    0.000 
#
# Total GULP energy -334265.601886 kJ/mol
# GULP energy per Si atom -5571.093365 kJ/mol
# Density = 2.068199 g / cm^3
# Si number density = 20.729167 Si / 1000 Ang^3
#
#
#
# Elastic Constant Matrix: (Units=GPa)
#
#
# Indices 1 2 3 4 5 6 
#
# 1 53.1765 19.5549 21.1969 0.0000 0.0000 0.0000
# 2 19.5549 108.1362 11.4455 0.0000 0.0000 0.0000
# 3 21.1969 11.4455 91.9453 0.0000 0.0000 0.0000
# 4 0.0000 0.0000 0.0000 -4.0837 0.0000 0.0000
# 5 0.0000 0.0000 0.0000 0.0000 16.8397 0.0000
# 6 0.0000 0.0000 0.0000 0.0000 0.0000 27.9075
#
#
#
# Elastic Compliance Matrix: (Units=1/GPa)
#
#
# Indices 1 2 3 4 5 6 
#
# 1 0.021926 -0.003476 -0.004622 0.000000 0.000000 0.000000
# 2 -0.003476 0.009922 -0.000434 0.000000 0.000000 0.000000
# 3 -0.004622 -0.000434 0.011996 0.000000 0.000000 0.000000
# 4 0.000000 0.000000 0.000000 -0.244877 0.000000 0.000000
# 5 0.000000 0.000000 0.000000 0.000000 0.059383 0.000000
# 6 0.000000 0.000000 0.000000 0.000000 0.000000 0.035833
#
#
# Mechanical properties :
#
#
# Convention : Reuss Voigt Hill
#
# Bulk Modulus (GPa) = 37.34102 39.73919 38.54011
# Shear Modulus (GPa) = -62.63513 21.53675 -20.54919
#
# Velocity S-wave (km/s) = -5.50287 3.22679 -3.15194
# Velocity P-wave (km/s) = 4.72467 5.75284 2.32084
#
# Compressibility (1/GPa) = 0.02678020
#
# Stress axis : x y z
#
# Youngs Moduli (GPa) = 45.60818 100.78555 83.36392
#
# Poissons Ratio (x) = 0.35031 0.38532
# Poissons Ratio (y) = 0.15852 0.03616
# Poissons Ratio (z) = 0.21080 0.04372
#
# Static dielectric constant tensor:
#      x y z
#    x 1.822000 0.000000 0.000000 
#    y 0.000000 1.694520 0.000000 
#    z 0.000000 0.000000 1.738970 
# 
# From -- ./inp_files/4805.got.cif
#   From: 2010.05.17/outbox.cif.g08.bks.cpg/sg56_3_cif.got.tgz:4805.got - 2010.06.03 13:42:01.
