data_PCOD9430455
_publ_section_title
;
Structure prediction by ZEFSAII (Michael W. Deem and Ramdas Pophale) SiO2 
 PCOD9430455
Probable space group: P C C N
;
_chemical_formula_sum "Si O2"
_cell_formula_units_Z 32
_cell_length_a 15.134325
_cell_length_b 9.990595
_cell_length_c 8.254609
_cell_angle_alpha 90.000000
_cell_angle_beta 90.000000
_cell_angle_gamma 90.000000
_cell_volume 1248.104406
_symmetry_space_group_name_H-M "P C C N"
_symmetry_group_IT_number 56
_symmetry_cell_setting 'orthorhombic'
loop_
_space_group_symop_operation_xyz
x,y,z
1/2-x,1/2-y,z
1/2+x,-y,1/2-z
-x,1/2+y,1/2-z
-x,-y,-z
1/2+x,1/2+y,-z
1/2-x,y,1/2+z
x,1/2-y,1/2+z
loop_
_atom_site_type_symbol
_atom_site_label
_atom_site_fract_x
_atom_site_fract_y
_atom_site_fract_z
Si Si1 0.840058 0.103740 0.143842
Si Si2 0.215467 0.436979 0.643270
Si Si3 0.383461 0.370360 0.437909
Si Si4 0.571322 0.160379 0.972235
O O1 0.753397 0.063087 0.249773
O O2 0.911560 0.120687 0.285628
O O3 0.841748 0.987480 0.008856
O O4 0.856041 0.235934 0.036502
O O5 0.303916 0.375633 0.565294
O O6 0.161343 0.346172 0.766202
O O7 0.417951 0.524132 0.427737
O O8 0.470727 0.288653 0.482560
#
# Coordination Sequence:
#
# PCOD9430455 Si02
#       4
#     8   8   8   8
#     4  10  20  32  53  78 107 138 174 216 261 308
#     4   9  19  35  56  80 103 137 179 218 257 308
#     4   9  19  34  53  76 107 138 174 216 263 311
#     4  10  20  33  50  80 111 137 169 218 267 310
#
# _framework density 25.638883
#
# number of rings (size 3 to 8) (size 9 to 14) (size 15 to 20)
#    0.000    2.500    0.000    1.500    0.000   18.000 
#    0.000    5.000    0.000    4.500    0.000    0.000 
#    0.000    0.000    0.000    0.000    0.000    0.000 
#
# Total GULP energy -178726.228505 kJ/mol
# GULP energy per Si atom -5585.194641 kJ/mol
# Density = 2.558053 g / cm^3
# Si number density = 25.638883 Si / 1000 Ang^3
#
#
#
# Elastic Constant Matrix: (Units=GPa)
#
#
# Indices 1 2 3 4 5 6 
#
# 1 135.9352 35.0132 64.0897 0.0000 0.0000 0.0000
# 2 35.0132 59.8011 39.4743 0.0000 0.0000 0.0000
# 3 64.0897 39.4743 166.1517 0.0000 0.0000 0.0000
# 4 0.0000 0.0000 0.0000 25.0977 0.0000 0.0000
# 5 0.0000 0.0000 0.0000 0.0000 45.6147 0.0000
# 6 0.0000 0.0000 0.0000 0.0000 0.0000 30.2226
#
#
#
# Elastic Compliance Matrix: (Units=1/GPa)
#
#
# Indices 1 2 3 4 5 6 
#
# 1 0.009667 -0.003793 -0.002827 0.000000 0.000000 0.000000
# 2 -0.003793 0.021321 -0.003602 0.000000 0.000000 0.000000
# 3 -0.002827 -0.003602 0.007965 0.000000 0.000000 0.000000
# 4 0.000000 0.000000 0.000000 0.039844 0.000000 0.000000
# 5 0.000000 0.000000 0.000000 0.000000 0.021923 0.000000
# 6 0.000000 0.000000 0.000000 0.000000 0.000000 0.033088
#
#
# Mechanical properties :
#
#
# Convention : Reuss Voigt Hill
#
# Bulk Modulus (GPa) = 54.03513 71.00473 62.51993
# Shear Modulus (GPa) = 31.16772 35.07437 33.12104
#
# Velocity S-wave (km/s) = 3.49039 3.70268 3.59810
# Velocity P-wave (km/s) = 6.11269 6.78484 6.45752
#
# Compressibility (1/GPa) = 0.01850648
#
# Stress axis : x y z
#
# Youngs Moduli (GPa) = 103.44922 46.90234 125.54856
#
# Poissons Ratio (x) = 0.17792 0.35498
# Poissons Ratio (y) = 0.39242 0.45225
# Poissons Ratio (z) = 0.29250 0.16895
#
# Static dielectric constant tensor:
#      x y z
#    x 2.068610 0.000000 0.000000 
#    y 0.000000 2.137340 0.000000 
#    z 0.000000 0.000000 1.988810 
# 
# From -- ./inp_files/2418.got.cif
#   From: 2010.05.17/outbox.cif.g08.bks.cpg/sg56_2_cif.got.tgz:2418.got - 2010.06.03 13:42:01.
