data_PCOD9430918
_publ_section_title
;
Structure prediction by ZEFSAII (Michael W. Deem and Ramdas Pophale) SiO2 
 PCOD9430918
Probable space group: P C C N
;
_chemical_formula_sum "Si O2"
_cell_formula_units_Z 64
_cell_length_a 8.017427
_cell_length_b 13.573441
_cell_length_c 24.977024
_cell_angle_alpha 90.000000
_cell_angle_beta 90.000000
_cell_angle_gamma 90.000000
_cell_volume 2718.101467
_symmetry_space_group_name_H-M "P C C N"
_symmetry_group_IT_number 56
_symmetry_cell_setting 'orthorhombic'
loop_
_space_group_symop_operation_xyz
x,y,z
1/2-x,1/2-y,z
1/2+x,-y,1/2-z
-x,1/2+y,1/2-z
-x,-y,-z
1/2+x,1/2+y,-z
1/2-x,y,1/2+z
x,1/2-y,1/2+z
loop_
_atom_site_type_symbol
_atom_site_label
_atom_site_fract_x
_atom_site_fract_y
_atom_site_fract_z
Si Si1 0.068008 0.619066 0.914418
Si Si2 0.638018 0.668242 0.814203
Si Si3 0.623973 0.999545 0.825637
Si Si4 0.276385 0.135423 0.395878
Si Si5 0.962765 0.821886 0.702361
Si Si6 0.261229 0.370156 0.512610
Si Si7 0.853986 0.333765 0.375952
Si Si8 0.947614 0.358038 0.584374
O O1 0.262978 0.602156 0.925242
O O2 0.059200 0.738537 0.914726
O O3 0.009761 0.562296 0.860373
O O4 0.920817 0.592305 0.955091
O O5 0.750000 0.750000 0.844968
O O6 0.756732 0.578872 0.799117
O O7 0.580380 0.720249 0.760063
O O8 0.504824 0.623531 0.854614
O O9 0.554552 0.076673 0.783265
O O10 0.729738 0.077160 0.862181
O O11 0.250000 0.250000 0.406591
O O12 0.178929 0.134993 0.338778
O O13 0.211831 0.093614 0.451854
O O14 0.474357 0.118677 0.395743
O O15 0.070851 0.739271 0.671089
O O16 0.250000 0.250000 0.514346
O O17 0.088280 0.396545 0.543170
O O18 0.750000 0.250000 0.409246
#
# Coordination Sequence:
#
# PCOD9430918 Si02
#       8
#     8   8   8   8   8   8   8   8
#     4  10  20  39  62  97 129 165 222 270 333 399
#     4  12  22  41  69  94 134 173 214 281 336 396
#     4  11  23  41  64  93 134 173 220 275 330 405
#     4   9  18  39  65  91 125 176 227 273 331 397
#     4  10  24  41  63  96 130 178 226 268 331 400
#     4   9  17  37  65  94 129 168 221 279 329 391
#     4   9  20  42  62  90 132 175 223 273 327 401
#     4  10  20  38  64  97 128 170 214 273 343 392
#
# _framework density 23.545847999999999
#
# number of rings (size 3 to 8) (size 9 to 14) (size 15 to 20)
#    0.000    2.000    2.500    1.500    0.000    4.000 
#   18.000    1.250    0.000    0.000    0.000    0.000 
#    0.000    0.000    0.000    0.000    0.000    0.000 
#
# Total GULP energy -356281.627736 kJ/mol
# GULP energy per Si atom -5566.900433 kJ/mol
# Density = 2.349226 g / cm^3
# Si number density = 23.545848 Si / 1000 Ang^3
#
#
#
# Elastic Constant Matrix: (Units=GPa)
#
#
# Indices 1 2 3 4 5 6 
#
# 1 132.0795 9.7125 18.0394 0.0000 0.0000 0.0000
# 2 9.7125 87.0874 -2.9496 0.0000 0.0000 0.0000
# 3 18.0394 -2.9496 63.5277 0.0000 0.0000 0.0000
# 4 0.0000 0.0000 0.0000 -40.6212 0.0000 0.0000
# 5 0.0000 0.0000 0.0000 0.0000 17.1917 0.0000
# 6 0.0000 0.0000 0.0000 0.0000 0.0000 30.9344
#
#
#
# Elastic Compliance Matrix: (Units=1/GPa)
#
#
# Indices 1 2 3 4 5 6 
#
# 1 0.007957 -0.000965 -0.002304 0.000000 0.000000 0.000000
# 2 -0.000965 0.011618 0.000814 0.000000 0.000000 0.000000
# 3 -0.002304 0.000814 0.016433 0.000000 0.000000 0.000000
# 4 0.000000 0.000000 0.000000 -0.024618 0.000000 0.000000
# 5 0.000000 0.000000 0.000000 0.000000 0.058167 0.000000
# 6 0.000000 0.000000 0.000000 0.000000 0.000000 0.032326
#
#
# Mechanical properties :
#
#
# Convention : Reuss Voigt Hill
#
# Bulk Modulus (GPa) = 32.15867 36.92213 34.54040
# Shear Modulus (GPa) = 42.67601 18.69383 30.68492
#
# Velocity S-wave (km/s) = 4.26192 2.82074 3.61390
# Velocity P-wave (km/s) = 6.15680 5.13067 5.66701
#
# Compressibility (1/GPa) = 0.03109582
#
# Stress axis : x y z
#
# Youngs Moduli (GPa) = 125.67696 86.07375 60.85222
#
# Poissons Ratio (x) = 0.08310 0.14022
# Poissons Ratio (y) = 0.12133 -0.04951
# Poissons Ratio (z) = 0.28959 -0.07003
#
# Static dielectric constant tensor:
#      x y z
#    x 1.978010 0.000000 0.000000 
#    y 0.000000 1.921150 0.000000 
#    z 0.000000 0.000000 1.928100 
# 
# From -- ./inp_files/20646.got.cif
#   From: 2010.05.17/outbox.cif.g08.bks.cpg/sg56_11_cif.got.tgz:20646.got - 2010.06.03 13:42:01.
