data_PCOD9430663
_publ_section_title
;
Structure prediction by ZEFSAII (Michael W. Deem and Ramdas Pophale) SiO2 
 PCOD9430663
Probable space group: P C C N
;
_chemical_formula_sum "Si O2"
_cell_formula_units_Z 40
_cell_length_a 15.193257
_cell_length_b 9.674358
_cell_length_c 13.169216
_cell_angle_alpha 90.000000
_cell_angle_beta 90.000000
_cell_angle_gamma 90.000000
_cell_volume 1935.677311
_symmetry_space_group_name_H-M "P C C N"
_symmetry_group_IT_number 56
_symmetry_cell_setting 'orthorhombic'
loop_
_space_group_symop_operation_xyz
x,y,z
1/2-x,1/2-y,z
1/2+x,-y,1/2-z
-x,1/2+y,1/2-z
-x,-y,-z
1/2+x,1/2+y,-z
1/2-x,y,1/2+z
x,1/2-y,1/2+z
loop_
_atom_site_type_symbol
_atom_site_label
_atom_site_fract_x
_atom_site_fract_y
_atom_site_fract_z
Si Si1 0.512362 0.281142 0.859437
Si Si2 0.423803 0.226567 0.647685
Si Si3 0.089008 0.948207 0.890492
Si Si4 0.624375 0.464024 0.351061
Si Si5 0.675958 0.046435 0.400059
O O1 0.450478 0.238241 0.765891
O O2 0.456026 0.402487 0.911052
O O3 0.551715 0.137646 0.899622
O O4 0.604276 0.363400 0.837119
O O5 0.515176 0.170201 0.601983
O O6 0.394580 0.378885 0.616339
O O7 0.349927 0.111742 0.626626
O O8 0.117255 0.952245 0.772453
O O9 0.157567 0.927385 0.980590
O O10 0.723447 0.424120 0.377691
#
# Coordination Sequence:
#
# PCOD9430663 Si02
#       5
#     8   8   8   8   8
#     4   9  18  35  58  80 109 148 185 220 272 337
#     4   9  18  35  58  80 109 148 185 220 272 337
#     4   9  20  39  59  78 111 156 185 219 284 340
#     4  10  20  36  59  87 109 141 192 241 271 318
#     4  11  20  37  57  83 119 149 180 232 286 328
#
# _framework density 20.664601000000001
#
# number of rings (size 3 to 8) (size 9 to 14) (size 15 to 20)
#    0.000    2.400    0.000    4.800    0.000    0.000 
#    0.000   24.000    0.000    0.000    0.000    0.000 
#    0.000    0.000    0.000    0.000    0.000    0.000 
#
# Total GULP energy -222867.525902 kJ/mol
# GULP energy per Si atom -5571.688148 kJ/mol
# Density = 2.061757 g / cm^3
# Si number density = 20.664601 Si / 1000 Ang^3
#
#
#
# Elastic Constant Matrix: (Units=GPa)
#
#
# Indices 1 2 3 4 5 6 
#
# 1 65.1919 -9.4452 26.0718 0.0000 0.0000 0.0000
# 2 -9.4452 73.5235 -5.9307 0.0000 0.0000 0.0000
# 3 26.0718 -5.9307 76.0814 0.0000 0.0000 0.0000
# 4 0.0000 0.0000 0.0000 10.0048 0.0000 0.0000
# 5 0.0000 0.0000 0.0000 0.0000 22.4443 0.0000
# 6 0.0000 0.0000 0.0000 0.0000 0.0000 20.4044
#
#
#
# Elastic Compliance Matrix: (Units=1/GPa)
#
#
# Indices 1 2 3 4 5 6 
#
# 1 0.018016 0.001828 -0.006031 0.000000 0.000000 0.000000
# 2 0.001828 0.013873 0.000455 0.000000 0.000000 0.000000
# 3 -0.006031 0.000455 0.015246 0.000000 0.000000 0.000000
# 4 0.000000 0.000000 0.000000 0.099952 0.000000 0.000000
# 5 0.000000 0.000000 0.000000 0.000000 0.044555 0.000000
# 6 0.000000 0.000000 0.000000 0.000000 0.000000 0.049009
#
#
# Mechanical properties :
#
#
# Convention : Reuss Voigt Hill
#
# Bulk Modulus (GPa) = 25.22823 26.24318 25.73570
# Shear Modulus (GPa) = 19.13065 24.17741 21.65403
#
# Velocity S-wave (km/s) = 3.04595 3.42423 3.24061
# Velocity P-wave (km/s) = 4.96037 5.32550 5.14617
#
# Compressibility (1/GPa) = 0.03963814
#
# Stress axis : x y z
#
# Youngs Moduli (GPa) = 55.50544 72.08446 65.59035
#
# Poissons Ratio (x) = -0.13177 0.39560
# Poissons Ratio (y) = -0.10146 -0.02984
# Poissons Ratio (z) = 0.33477 -0.03280
#
# Static dielectric constant tensor:
#      x y z
#    x 1.694910 0.000000 0.000000 
#    y 0.000000 1.779890 0.000000 
#    z 0.000000 0.000000 1.802160 
# 
# From -- ./inp_files/10350.got.cif
#   From: 2010.05.17/outbox.cif.g08.bks.cpg/sg56_6_cif.got.tgz:10350.got - 2010.06.03 13:42:01.
