data_PCOD9430629
_publ_section_title
;
Structure prediction by ZEFSAII (Michael W. Deem and Ramdas Pophale) SiO2 
 PCOD9430629
Probable space group: P C C N
;
_chemical_formula_sum "Si O2"
_cell_formula_units_Z 56
_cell_length_a 5.656227
_cell_length_b 15.698018
_cell_length_c 29.728399
_cell_angle_alpha 90.000000
_cell_angle_beta 90.000000
_cell_angle_gamma 90.000000
_cell_volume 2639.630723
_symmetry_space_group_name_H-M "P C C N"
_symmetry_group_IT_number 56
_symmetry_cell_setting 'orthorhombic'
loop_
_space_group_symop_operation_xyz
x,y,z
1/2-x,1/2-y,z
1/2+x,-y,1/2-z
-x,1/2+y,1/2-z
-x,-y,-z
1/2+x,1/2+y,-z
1/2-x,y,1/2+z
x,1/2-y,1/2+z
loop_
_atom_site_type_symbol
_atom_site_label
_atom_site_fract_x
_atom_site_fract_y
_atom_site_fract_z
Si Si1 0.680210 0.846841 0.926777
Si Si2 0.861094 0.920379 0.519792
Si Si3 0.838308 0.446782 0.247689
Si Si4 0.712880 0.104125 0.841605
Si Si5 0.498952 0.015623 0.411641
Si Si6 0.402967 0.565414 0.351383
Si Si7 0.505027 0.294012 0.409607
O O1 0.750000 0.750000 0.917775
O O2 0.490230 0.867732 0.888254
O O3 0.847785 0.931152 0.922563
O O4 0.626718 0.851936 0.979936
O O5 0.991906 0.881550 0.562539
O O6 0.614772 0.950090 0.542088
O O7 0.000000 0.000000 0.500000
O O8 0.589373 0.501606 0.246317
O O9 0.814685 0.388420 0.291871
O O10 0.849793 0.402556 0.198795
O O11 0.539013 0.178548 0.857587
O O12 0.589533 0.011220 0.843679
O O13 0.898359 0.093881 0.882355
O O14 0.312290 0.979253 0.376069
O O15 0.750000 0.250000 0.424341
O O16 0.250000 0.250000 0.417247
#
# Coordination Sequence:
#
# PCOD9430629 Si02
#       7
#     8   8   8   8   8   8   8
#     4  11  25  40  62  96 136 180 223 275 344 404
#     4  12  23  43  66  99 125 179 237 282 333 400
#     4  10  20  35  69 104 127 164 230 287 327 387
#     4  10  21  40  67  97 132 171 226 280 339 399
#     4  11  20  41  69  92 131 176 226 283 331 400
#     4  10  20  40  64  96 127 170 228 276 330 393
#     4  12  27  44  67 100 143 176 219 280 350 410
#
# _framework density 21.215088000000002
#
# number of rings (size 3 to 8) (size 9 to 14) (size 15 to 20)
#    0.000    1.143    4.286    2.571    0.000    2.857 
#    0.000    0.000    3.143    0.000    0.000    0.000 
#    0.000    0.000    0.000    0.000    0.000    0.000 
#
# Total GULP energy -311881.633451 kJ/mol
# GULP energy per Si atom -5569.314883 kJ/mol
# Density = 2.116680 g / cm^3
# Si number density = 21.215088 Si / 1000 Ang^3
#
#
#
# Elastic Constant Matrix: (Units=GPa)
#
#
# Indices 1 2 3 4 5 6 
#
# 1 79.7907 19.1489 34.2446 0.0000 0.0000 0.0000
# 2 19.1489 44.7183 0.1709 0.0000 0.0000 0.0000
# 3 34.2446 0.1709 142.9332 0.0000 0.0000 0.0000
# 4 0.0000 0.0000 0.0000 14.3923 0.0000 0.0000
# 5 0.0000 0.0000 0.0000 0.0000 28.7974 0.0000
# 6 0.0000 0.0000 0.0000 0.0000 0.0000 22.4457
#
#
#
# Elastic Compliance Matrix: (Units=1/GPa)
#
#
# Indices 1 2 3 4 5 6 
#
# 1 0.015768 -0.006737 -0.003770 0.000000 0.000000 0.000000
# 2 -0.006737 0.025241 0.001584 0.000000 0.000000 0.000000
# 3 -0.003770 0.001584 0.007898 0.000000 0.000000 0.000000
# 4 0.000000 0.000000 0.000000 0.069482 0.000000 0.000000
# 5 0.000000 0.000000 0.000000 0.000000 0.034725 0.000000
# 6 0.000000 0.000000 0.000000 0.000000 0.000000 0.044552
#
#
# Mechanical properties :
#
#
# Convention : Reuss Voigt Hill
#
# Bulk Modulus (GPa) = 32.19554 41.61901 36.90727
# Shear Modulus (GPa) = 22.13712 27.38558 24.76135
#
# Velocity S-wave (km/s) = 3.23377 3.59674 3.42008
# Velocity P-wave (km/s) = 5.39923 6.07528 5.74720
#
# Compressibility (1/GPa) = 0.03106020
#
# Stress axis : x y z
#
# Youngs Moduli (GPa) = 63.42136 39.61770 126.62199
#
# Poissons Ratio (x) = 0.26692 0.47732
# Poissons Ratio (y) = 0.42730 -0.20057
# Poissons Ratio (z) = 0.23907 -0.06276
#
# Static dielectric constant tensor:
#      x y z
#    x 1.850900 0.000000 0.000000 
#    y 0.000000 1.792640 0.000000 
#    z 0.000000 0.000000 1.842320 
# 
# From -- ./inp_files/22880.got.cif
#   From: 2010.05.17/outbox.cif.g08.bks.cpg/sg56_12_cif.got.tgz:22880.got - 2010.06.03 13:42:01.
