data_PCOD9430013
_publ_section_title
;
Structure prediction by ZEFSAII (Michael W. Deem and Ramdas Pophale) SiO2 
 PCOD9430013
Probable space group: P C C N
;
_chemical_formula_sum "Si O2"
_cell_formula_units_Z 52
_cell_length_a 20.048774
_cell_length_b 11.119603
_cell_length_c 9.544389
_cell_angle_alpha 90.000000
_cell_angle_beta 90.000000
_cell_angle_gamma 90.000000
_cell_volume 2127.772707
_symmetry_space_group_name_H-M "P C C N"
_symmetry_group_IT_number 56
_symmetry_cell_setting 'orthorhombic'
loop_
_space_group_symop_operation_xyz
x,y,z
1/2-x,1/2-y,z
1/2+x,-y,1/2-z
-x,1/2+y,1/2-z
-x,-y,-z
1/2+x,1/2+y,-z
1/2-x,y,1/2+z
x,1/2-y,1/2+z
loop_
_atom_site_type_symbol
_atom_site_label
_atom_site_fract_x
_atom_site_fract_y
_atom_site_fract_z
Si Si1 0.551883 0.016706 0.195784
Si Si2 0.250000 0.250000 0.004981
Si Si3 0.321239 0.618118 0.903302
Si Si4 0.357012 0.817047 0.681730
Si Si5 0.007364 0.705502 0.036049
Si Si6 0.812736 0.890080 0.242666
Si Si7 0.562817 0.935406 0.610245
O O1 0.623947 0.054974 0.248983
O O2 0.505016 0.013183 0.330732
O O3 0.536274 0.893575 0.118815
O O4 0.531227 0.131427 0.099387
O O5 0.198724 0.193315 0.894240
O O6 0.281934 0.155298 0.113595
O O7 0.332616 0.729598 0.803118
O O8 0.284126 0.517378 0.811972
O O9 0.389704 0.542859 0.939154
O O10 0.304731 0.662110 0.057261
O O11 0.424830 0.750689 0.617390
O O12 0.958595 0.819840 0.021451
O O13 0.892880 0.897419 0.247685
#
# Coordination Sequence:
#
# PCOD9430013 Si02
#       7
#     8   4   8   8   8   8   8
#     4  10  20  31  51  82 122 170 201 237 273 334
#     4  10  20  44  70  92 116 142 172 262 324 382
#     4  10  22  39  56  87 115 163 201 245 282 351
#     4  11  20  37  55  77 127 167 204 236 281 326
#     4  10  19  32  50  82 122 163 205 232 283 327
#     4   9  22  40  65  93 116 141 191 240 323 359
#     4   9  21  33  54  82 116 149 202 242 279 342
#
# _framework density 24.438699
#
# number of rings (size 3 to 8) (size 9 to 14) (size 15 to 20)
#    0.923    1.231    3.077    0.000    2.154    6.154 
#    0.000    3.077    0.000    2.769    0.000    0.000 
#    0.000    0.000    0.000    0.000    0.000    0.000 
#
# Total GULP energy -289980.904614 kJ/mol
# GULP energy per Si atom -5576.555858 kJ/mol
# Density = 2.438308 g / cm^3
# Si number density = 24.438699 Si / 1000 Ang^3
#
#
#
# Elastic Constant Matrix: (Units=GPa)
#
#
# Indices 1 2 3 4 5 6 
#
# 1 44.4217 0.0138 -7.6362 0.0000 0.0000 0.0000
# 2 0.0138 81.0791 32.3839 0.0000 0.0000 0.0000
# 3 -7.6362 32.3839 94.2813 0.0000 0.0000 0.0000
# 4 0.0000 0.0000 0.0000 27.9651 0.0000 0.0000
# 5 0.0000 0.0000 0.0000 0.0000 4.8731 0.0000
# 6 0.0000 0.0000 0.0000 0.0000 0.0000 19.3298
#
#
#
# Elastic Compliance Matrix: (Units=1/GPa)
#
#
# Indices 1 2 3 4 5 6 
#
# 1 0.022881 -0.000862 0.002149 0.000000 0.000000 0.000000
# 2 -0.000862 0.014327 -0.004991 0.000000 0.000000 0.000000
# 3 0.002149 -0.004991 0.012495 0.000000 0.000000 0.000000
# 4 0.000000 0.000000 0.000000 0.035759 0.000000 0.000000
# 5 0.000000 0.000000 0.000000 0.000000 0.205208 0.000000
# 6 0.000000 0.000000 0.000000 0.000000 0.000000 0.051734
#
#
# Mechanical properties :
#
#
# Convention : Reuss Voigt Hill
#
# Bulk Modulus (GPa) = 23.64314 29.92280 26.78297
# Shear Modulus (GPa) = 13.73966 23.43497 18.58732
#
# Velocity S-wave (km/s) = 2.37367 3.10002 2.76083
# Velocity P-wave (km/s) = 4.14824 5.00840 4.59848
#
# Compressibility (1/GPa) = 0.04229557
#
# Stress axis : x y z
#
# Youngs Moduli (GPa) = 43.70387 69.79712 80.03218
#
# Poissons Ratio (x) = 0.06020 -0.17203
# Poissons Ratio (y) = 0.03769 0.39944
# Poissons Ratio (z) = -0.09394 0.34836
#
# Static dielectric constant tensor:
#      x y z
#    x 2.076170 0.000000 0.000000 
#    y 0.000000 2.002110 0.000000 
#    z 0.000000 0.000000 1.950850 
# 
# From -- ./inp_files/5173.got.cif
#   From: 2010.05.17/outbox.cif.g08.bks.cpg/sg56_3_cif.got.tgz:5173.got - 2010.06.03 13:42:01.
