data_PCOD9430706
_publ_section_title
;
Structure prediction by ZEFSAII (Michael W. Deem and Ramdas Pophale) SiO2 
 PCOD9430706
Probable space group: P C C N
;
_chemical_formula_sum "Si O2"
_cell_formula_units_Z 64
_cell_length_a 14.345681
_cell_length_b 11.935741
_cell_length_c 19.394285
_cell_angle_alpha 90.000000
_cell_angle_beta 90.000000
_cell_angle_gamma 90.000000
_cell_volume 3320.812299
_symmetry_space_group_name_H-M "P C C N"
_symmetry_group_IT_number 56
_symmetry_cell_setting 'orthorhombic'
loop_
_space_group_symop_operation_xyz
x,y,z
1/2-x,1/2-y,z
1/2+x,-y,1/2-z
-x,1/2+y,1/2-z
-x,-y,-z
1/2+x,1/2+y,-z
1/2-x,y,1/2+z
x,1/2-y,1/2+z
loop_
_atom_site_type_symbol
_atom_site_label
_atom_site_fract_x
_atom_site_fract_y
_atom_site_fract_z
Si Si1 0.104011 0.304673 0.309288
Si Si2 0.899015 0.109913 0.441641
Si Si3 0.727028 0.950840 0.859213
Si Si4 0.288274 0.428544 0.292198
Si Si5 0.547899 0.796761 0.835007
Si Si6 0.984883 0.339613 0.441158
Si Si7 0.084641 0.090609 0.080109
Si Si8 0.417276 0.968971 0.908293
O O1 0.181779 0.401304 0.312538
O O2 0.157609 0.189982 0.291405
O O3 0.033312 0.319753 0.245739
O O4 0.052878 0.300289 0.380932
O O5 0.906970 0.243431 0.447138
O O6 0.876309 0.058135 0.516628
O O7 0.827079 0.059420 0.386877
O O8 0.001733 0.062067 0.420575
O O9 0.779120 0.971648 0.786311
O O10 0.649221 0.853848 0.849146
O O11 0.803971 0.911093 0.913669
O O12 0.342495 0.498156 0.350240
O O13 0.549631 0.667503 0.856709
O O14 0.473527 0.861569 0.880865
O O15 0.947133 0.461872 0.420703
O O16 0.042517 0.353030 0.511750
#
# Coordination Sequence:
#
# PCOD9430706 Si02
#       8
#     8   8   8   8   8   8   8   8
#     4  10  21  36  61  91 124 154 206 263 307 369
#     4  10  21  39  60  95 123 161 206 258 316 375
#     4  10  22  38  65  92 125 158 208 265 315 368
#     4  10  20  37  59  97 123 155 204 262 318 366
#     4  10  20  39  63  92 120 160 208 256 314 373
#     4  11  24  41  59  91 127 166 212 251 315 386
#     4  11  23  40  62  87 124 166 212 255 310 374
#     4  10  20  36  64  91 125 157 203 262 314 371
#
# _framework density 19.272393999999998
#
# number of rings (size 3 to 8) (size 9 to 14) (size 15 to 20)
#    0.000    1.750    3.750    0.375    3.500    0.500 
#    4.500    0.000    0.000    0.750    0.000    0.000 
#    0.000    0.000    0.000    0.000    0.000    0.000 
#
# Total GULP energy -357055.196261 kJ/mol
# GULP energy per Si atom -5578.987442 kJ/mol
# Density = 1.922853 g / cm^3
# Si number density = 19.272394 Si / 1000 Ang^3
#
#
#
# Elastic Constant Matrix: (Units=GPa)
#
#
# Indices 1 2 3 4 5 6 
#
# 1 41.9994 25.8212 50.7448 0.0000 0.0000 0.0000
# 2 25.8212 100.5107 50.7030 0.0000 0.0000 0.0000
# 3 50.7448 50.7030 106.8141 0.0000 0.0000 0.0000
# 4 0.0000 0.0000 0.0000 20.2064 0.0000 0.0000
# 5 0.0000 0.0000 0.0000 0.0000 50.3198 0.0000
# 6 0.0000 0.0000 0.0000 0.0000 0.0000 14.9825
#
#
#
# Elastic Compliance Matrix: (Units=1/GPa)
#
#
# Indices 1 2 3 4 5 6 
#
# 1 0.056015 -0.001270 -0.026008 0.000000 0.000000 0.000000
# 2 -0.001270 0.013110 -0.005620 0.000000 0.000000 0.000000
# 3 -0.026008 -0.005620 0.024386 0.000000 0.000000 0.000000
# 4 0.000000 0.000000 0.000000 0.049489 0.000000 0.000000
# 5 0.000000 0.000000 0.000000 0.000000 0.019873 0.000000
# 6 0.000000 0.000000 0.000000 0.000000 0.000000 0.066745
#
#
# Mechanical properties :
#
#
# Convention : Reuss Voigt Hill
#
# Bulk Modulus (GPa) = 36.08271 55.98468 46.03370
# Shear Modulus (GPa) = 16.41212 25.23875 20.82544
#
# Velocity S-wave (km/s) = 2.92136 3.62274 3.29079
# Velocity P-wave (km/s) = 5.49020 6.82724 6.19490
#
# Compressibility (1/GPa) = 0.02771410
#
# Stress axis : x y z
#
# Youngs Moduli (GPa) = 17.85240 76.27486 41.00764
#
# Poissons Ratio (x) = 0.09688 1.06654
# Poissons Ratio (y) = 0.02268 0.23046
# Poissons Ratio (z) = 0.46431 0.42866
#
# Static dielectric constant tensor:
#      x y z
#    x 1.665530 0.000000 0.000000 
#    y 0.000000 1.688660 0.000000 
#    z 0.000000 0.000000 1.676330 
# 
# From -- ./inp_files/15829.got.cif
#   From: 2010.05.17/outbox.cif.g08.bks.cpg/sg56_8_cif.got.tgz:15829.got - 2010.06.03 13:42:01.
