data_PCOD9430969
_publ_section_title
;
Structure prediction by ZEFSAII (Michael W. Deem and Ramdas Pophale) SiO2 
 PCOD9430969
Probable space group: P C C N
;
_chemical_formula_sum "Si O2"
_cell_formula_units_Z 60
_cell_length_a 18.183517
_cell_length_b 5.877414
_cell_length_c 29.754831
_cell_angle_alpha 90.000000
_cell_angle_beta 90.000000
_cell_angle_gamma 90.000000
_cell_volume 3179.960006
_symmetry_space_group_name_H-M "P C C N"
_symmetry_group_IT_number 56
_symmetry_cell_setting 'orthorhombic'
loop_
_space_group_symop_operation_xyz
x,y,z
1/2-x,1/2-y,z
1/2+x,-y,1/2-z
-x,1/2+y,1/2-z
-x,-y,-z
1/2+x,1/2+y,-z
1/2-x,y,1/2+z
x,1/2-y,1/2+z
loop_
_atom_site_type_symbol
_atom_site_label
_atom_site_fract_x
_atom_site_fract_y
_atom_site_fract_z
Si Si1 0.125119 0.463171 0.817692
Si Si2 0.964838 0.947046 0.763817
Si Si3 0.835389 0.805580 0.015880
Si Si4 0.000743 0.714622 0.359935
Si Si5 0.630915 0.909125 0.610144
Si Si6 0.250000 0.750000 0.861971
Si Si7 0.445280 0.077053 0.055382
Si Si8 0.937095 0.189072 0.000349
O O1 0.109799 0.445747 0.765023
O O2 0.054279 0.589730 0.839718
O O3 0.134611 0.226631 0.843316
O O4 0.194627 0.611405 0.830859
O O5 0.002333 0.704694 0.745864
O O6 0.965225 0.911156 0.817282
O O7 0.750000 0.750000 0.010949
O O8 0.861281 0.748951 0.066758
O O9 0.860836 0.070203 0.012164
O O10 0.883289 0.684503 0.977206
O O11 0.054672 0.545124 0.387215
O O12 0.944710 0.826482 0.394859
O O13 0.699740 0.080484 0.609253
O O14 0.526916 0.135623 0.035689
O O15 0.434661 0.810175 0.047746
O O16 0.000000 0.000000 0.000000
#
# Coordination Sequence:
#
# PCOD9430969 Si02
#       8
#     8   8   8   8   8   4   8   8
#     4  10  21  34  59  85 129 153 202 248 313 378
#     4  10  20  39  60  95 125 159 201 257 321 372
#     4  11  23  35  55  83 119 163 204 248 307 367
#     4  10  21  35  61  89 117 161 202 258 312 370
#     4  11  21  37  56  85 122 158 200 249 309 376
#     4  10  22  36  52  88 120 166 196 244 312 382
#     4  10  21  37  57  83 117 156 207 250 302 365
#     4   9  20  35  53  78 114 148 199 249 299 354
#
# _framework density 18.868162000000002
#
# number of rings (size 3 to 8) (size 9 to 14) (size 15 to 20)
#    0.000    1.867    2.667    1.200    5.600    1.600 
#    0.000    0.000    0.000    1.600    0.000    0.000 
#    0.000    0.000    0.000    0.000    0.000    0.000 
#
# Total GULP energy -334271.147294 kJ/mol
# GULP energy per Si atom -5571.185788 kJ/mol
# Density = 1.882522 g / cm^3
# Si number density = 18.868162 Si / 1000 Ang^3
#
#
#
# Elastic Constant Matrix: (Units=GPa)
#
#
# Indices 1 2 3 4 5 6 
#
# 1 86.4587 30.2718 56.7628 0.0000 0.0000 0.0000
# 2 30.2718 60.3420 10.7582 0.0000 0.0000 0.0000
# 3 56.7628 10.7582 104.2436 0.0000 0.0000 0.0000
# 4 0.0000 0.0000 0.0000 26.7066 0.0000 0.0000
# 5 0.0000 0.0000 0.0000 0.0000 17.1857 0.0000
# 6 0.0000 0.0000 0.0000 0.0000 0.0000 24.3152
#
#
#
# Elastic Compliance Matrix: (Units=1/GPa)
#
#
# Indices 1 2 3 4 5 6 
#
# 1 0.021984 -0.009061 -0.011036 0.000000 0.000000 0.000000
# 2 -0.009061 0.020618 0.002806 0.000000 0.000000 0.000000
# 3 -0.011036 0.002806 0.015312 0.000000 0.000000 0.000000
# 4 0.000000 0.000000 0.000000 0.037444 0.000000 0.000000
# 5 0.000000 0.000000 0.000000 0.000000 0.058188 0.000000
# 6 0.000000 0.000000 0.000000 0.000000 0.000000 0.041126
#
#
# Mechanical properties :
#
#
# Convention : Reuss Voigt Hill
#
# Bulk Modulus (GPa) = 42.85797 49.62553 46.24175
# Shear Modulus (GPa) = 21.09425 23.85827 22.47626
#
# Velocity S-wave (km/s) = 3.34725 3.55980 3.45516
# Velocity P-wave (km/s) = 6.14024 6.57682 6.36227
#
# Compressibility (1/GPa) = 0.02333288
#
# Stress axis : x y z
#
# Youngs Moduli (GPa) = 45.48751 48.50213 65.30641
#
# Poissons Ratio (x) = 0.43949 0.72070
# Poissons Ratio (y) = 0.41217 -0.18327
# Poissons Ratio (z) = 0.50198 -0.13611
#
# Static dielectric constant tensor:
#      x y z
#    x 1.633550 0.000000 0.000000 
#    y 0.000000 1.799190 0.000000 
#    z 0.000000 0.000000 1.696430 
# 
# From -- ./inp_files/23671.got.cif
#   From: 2010.05.17/outbox.cif.g08.bks.cpg/sg56_12_cif.got.tgz:23671.got - 2010.06.03 13:42:01.
