data_PCOD9430242
_publ_section_title
;
Structure prediction by ZEFSAII (Michael W. Deem and Ramdas Pophale) SiO2 
 PCOD9430242
Probable space group: P C C N
;
_chemical_formula_sum "Si O2"
_cell_formula_units_Z 64
_cell_length_a 24.364181
_cell_length_b 8.645184
_cell_length_c 15.852696
_cell_angle_alpha 90.000000
_cell_angle_beta 90.000000
_cell_angle_gamma 90.000000
_cell_volume 3339.098186
_symmetry_space_group_name_H-M "P C C N"
_symmetry_group_IT_number 56
_symmetry_cell_setting 'orthorhombic'
loop_
_space_group_symop_operation_xyz
x,y,z
1/2-x,1/2-y,z
1/2+x,-y,1/2-z
-x,1/2+y,1/2-z
-x,-y,-z
1/2+x,1/2+y,-z
1/2-x,y,1/2+z
x,1/2-y,1/2+z
loop_
_atom_site_type_symbol
_atom_site_label
_atom_site_fract_x
_atom_site_fract_y
_atom_site_fract_z
Si Si1 0.250000 0.936860 0.655395
Si Si2 0.131775 0.936545 0.588372
Si Si3 0.561322 0.064300 0.747744
Si Si4 0.130935 0.435313 0.407890
Si Si5 0.369067 0.064686 0.907889
Si Si6 0.250000 0.063417 0.845185
Si Si7 0.131774 0.936546 0.088373
Si Si8 0.561320 0.064302 0.247744
O O1 0.250000 0.750000 0.659694
O O2 0.194280 0.985985 0.609001
O O3 0.305721 0.985987 0.609004
O O4 0.249999 0.000310 0.750220
O O5 0.094107 0.982270 0.667507
O O6 0.130882 0.750000 0.582353
O O7 0.113613 0.006635 0.499802
O O8 0.560424 0.249999 0.744728
O O9 0.593630 0.001989 0.666544
O O10 0.500001 0.999996 0.749999
O O11 0.128924 0.250000 0.404988
O O12 0.193960 0.486540 0.390691
O O13 0.113613 0.493363 0.499803
O O14 0.306041 0.013458 0.890687
O O15 0.406373 0.998013 0.833456
O O16 0.250000 0.250000 0.842261
O O17 0.094105 0.982269 0.167507
#
# Coordination Sequence:
#
# PCOD9430242 Si02
#       8
#     8   8   8   8   8   8   8   8
#     4  10  19  36  62  91 121 157 199 245 299 358
#     4  10  22  39  62  91 121 157 199 246 300 358
#     4  11  24  43  65  88 119 158 206 256 304 357
#     4  11  23  39  62  92 125 161 199 244 301 361
#     4  11  23  39  62  92 125 161 199 244 301 361
#     4  10  21  36  58  91 127 159 193 239 299 360
#     4  10  22  39  62  91 121 157 199 246 300 358
#     4  11  24  43  65  88 119 158 206 256 304 357
#
# _framework density 19.166851000000001
#
# number of rings (size 3 to 8) (size 9 to 14) (size 15 to 20)
#    0.000    1.500    2.500    2.250    0.000    5.000 
#    0.000    0.000    0.000    0.000    0.000    0.000 
#    0.000    0.000    0.000    0.000    0.000    0.000 
#
# Total GULP energy -357785.212914 kJ/mol
# GULP energy per Si atom -5590.393952 kJ/mol
# Density = 1.912323 g / cm^3
# Si number density = 19.166851 Si / 1000 Ang^3
#
#
#
# Elastic Constant Matrix: (Units=GPa)
#
#
# Indices 1 2 3 4 5 6 
#
# 1 161.1114 42.0377 93.2125 0.0000 0.0000 0.0000
# 2 42.0377 30.6852 48.1470 0.0000 0.0000 0.0000
# 3 93.2125 48.1470 203.6549 0.0000 0.0000 0.0000
# 4 0.0000 0.0000 0.0000 27.0336 0.0000 0.0000
# 5 0.0000 0.0000 0.0000 0.0000 -0.9363 0.0000
# 6 0.0000 0.0000 0.0000 0.0000 0.0000 27.8409
#
#
#
# Elastic Compliance Matrix: (Units=1/GPa)
#
#
# Indices 1 2 3 4 5 6 
#
# 1 0.010233 -0.010603 -0.002177 0.000000 0.000000 0.000000
# 2 -0.010603 0.062793 -0.009992 0.000000 0.000000 0.000000
# 3 -0.002177 -0.009992 0.008269 0.000000 0.000000 0.000000
# 4 0.000000 0.000000 0.000000 0.036991 0.000000 0.000000
# 5 0.000000 0.000000 0.000000 0.000000 -1.068026 0.000000
# 6 0.000000 0.000000 0.000000 0.000000 0.000000 0.035918
#
#
# Mechanical properties :
#
#
# Convention : Reuss Voigt Hill
#
# Bulk Modulus (GPa) = 27.97144 84.69399 56.33271
# Shear Modulus (GPa) = -5.83866 24.92459 9.54296
#
# Velocity S-wave (km/s) = -1.74724 3.61002 2.23376
# Velocity P-wave (km/s) = 3.24883 7.85239 6.00895
#
# Compressibility (1/GPa) = 0.03575075
#
# Stress axis : x y z
#
# Youngs Moduli (GPa) = 97.72367 15.92526 120.93481
#
# Poissons Ratio (x) = 0.16886 0.26326
# Poissons Ratio (y) = 1.03618 1.20841
# Poissons Ratio (z) = 0.21273 0.15913
#
# Static dielectric constant tensor:
#      x y z
#    x 1.662580 0.000000 0.000000 
#    y 0.000000 1.651420 0.000000 
#    z 0.000000 0.000000 1.632550 
# 
# From -- ./inp_files/13268.got.cif
#   From: 2010.05.17/outbox.cif.g08.bks.cpg/sg56_7_cif.got.tgz:13268.got - 2010.06.03 13:42:01.
