data_PCOD9430388
_publ_section_title
;
Structure prediction by ZEFSAII (Michael W. Deem and Ramdas Pophale) SiO2 
 PCOD9430388
Probable space group: P C C N
;
_chemical_formula_sum "Si O2"
_cell_formula_units_Z 48
_cell_length_a 15.332895
_cell_length_b 9.957361
_cell_length_c 16.710882
_cell_angle_alpha 90.000000
_cell_angle_beta 90.000000
_cell_angle_gamma 90.000000
_cell_volume 2551.336762
_symmetry_space_group_name_H-M "P C C N"
_symmetry_group_IT_number 56
_symmetry_cell_setting 'orthorhombic'
loop_
_space_group_symop_operation_xyz
x,y,z
1/2-x,1/2-y,z
1/2+x,-y,1/2-z
-x,1/2+y,1/2-z
-x,-y,-z
1/2+x,1/2+y,-z
1/2-x,y,1/2+z
x,1/2-y,1/2+z
loop_
_atom_site_type_symbol
_atom_site_label
_atom_site_fract_x
_atom_site_fract_y
_atom_site_fract_z
Si Si1 0.502162 0.745837 0.168291
Si Si2 0.589157 0.997454 0.760293
Si Si3 0.787044 0.891019 0.398663
Si Si4 0.238893 0.899327 0.321499
Si Si5 0.320713 0.636652 0.139345
Si Si6 0.328370 0.351552 0.417915
O O1 0.536598 0.626536 0.224485
O O2 0.417055 0.689237 0.122970
O O3 0.580689 0.791595 0.111711
O O4 0.470128 0.874990 0.218442
O O5 0.640547 0.950729 0.839748
O O6 0.665483 0.043859 0.699989
O O7 0.750000 0.750000 0.366594
O O8 0.824000 0.867386 0.486785
O O9 0.708412 0.998428 0.400873
O O10 0.250000 0.750000 0.356148
O O11 0.189899 0.883265 0.235720
O O12 0.189781 0.005752 0.376217
O O13 0.250000 0.750000 0.117457
O O14 0.250000 0.250000 0.394327
#
# Coordination Sequence:
#
# PCOD9430388 Si02
#       6
#     8   8   8   8   8   8
#     4  12  23  40  69  95 126 162 217 269 309 371
#     4  11  24  39  67  96 122 168 214 262 316 367
#     4  10  24  43  63  90 131 174 208 251 325 381
#     4  10  19  40  62  91 129 161 214 261 308 371
#     4  10  20  42  63  91 124 163 214 261 309 373
#     4  11  24  42  62  94 132 168 210 259 320 379
#
# _framework density 18.813668
#
# number of rings (size 3 to 8) (size 9 to 14) (size 15 to 20)
#    0.000    1.333    6.667    1.000    7.000    1.333 
#    0.000    5.000    0.000    0.000    0.000    0.000 
#    0.000    0.000    0.000    0.000    0.000    0.000 
#
# Total GULP energy -268173.759749 kJ/mol
# GULP energy per Si atom -5586.953328 kJ/mol
# Density = 1.877085 g / cm^3
# Si number density = 18.813668 Si / 1000 Ang^3
#
#
#
# Elastic Constant Matrix: (Units=GPa)
#
#
# Indices 1 2 3 4 5 6 
#
# 1 155.2388 75.0610 38.0725 0.0000 0.0000 0.0000
# 2 75.0610 161.3241 32.0515 0.0000 0.0000 0.0000
# 3 38.0725 32.0515 22.5074 0.0000 0.0000 0.0000
# 4 0.0000 0.0000 0.0000 0.2831 0.0000 0.0000
# 5 0.0000 0.0000 0.0000 0.0000 3.6169 0.0000
# 6 0.0000 0.0000 0.0000 0.0000 0.0000 43.1537
#
#
#
# Elastic Compliance Matrix: (Units=1/GPa)
#
#
# Indices 1 2 3 4 5 6 
#
# 1 0.011484 -0.002069 -0.016478 0.000000 0.000000 0.000000
# 2 -0.002069 0.009017 -0.009341 0.000000 0.000000 0.000000
# 3 -0.016478 -0.009341 0.085606 0.000000 0.000000 0.000000
# 4 0.000000 0.000000 0.000000 3.532878 0.000000 0.000000
# 5 0.000000 0.000000 0.000000 0.000000 0.276476 0.000000
# 6 0.000000 0.000000 0.000000 0.000000 0.000000 0.023173
#
#
# Mechanical properties :
#
#
# Convention : Reuss Voigt Hill
#
# Bulk Modulus (GPa) = 19.86904 69.93781 44.90342
# Shear Modulus (GPa) = 1.24651 22.33642 11.79147
#
# Velocity S-wave (km/s) = 0.81486 3.44938 2.50621
# Velocity P-wave (km/s) = 3.38662 7.28827 5.68279
#
# Compressibility (1/GPa) = 0.05032956
#
# Stress axis : x y z
#
# Youngs Moduli (GPa) = 87.08136 110.89831 11.68148
#
# Poissons Ratio (x) = 0.22947 0.19249
# Poissons Ratio (y) = 0.18019 0.10912
# Poissons Ratio (z) = 1.43496 1.03589
#
# Static dielectric constant tensor:
#      x y z
#    x 1.649650 0.000000 0.000000 
#    y 0.000000 1.662900 0.000000 
#    z 0.000000 0.000000 1.620290 
# 
# From -- ./inp_files/14773.got.cif
#   From: 2010.05.17/outbox.cif.g08.bks.cpg/sg56_8_cif.got.tgz:14773.got - 2010.06.03 13:42:01.
