data_PCOD9430659
_publ_section_title
;
Structure prediction by ZEFSAII (Michael W. Deem and Ramdas Pophale) SiO2 
 PCOD9430659
Probable space group: P C C N
;
_chemical_formula_sum "Si O2"
_cell_formula_units_Z 32
_cell_length_a 9.667491
_cell_length_b 21.713081
_cell_length_c 5.556017
_cell_angle_alpha 90.000000
_cell_angle_beta 90.000000
_cell_angle_gamma 90.000000
_cell_volume 1166.269169
_symmetry_space_group_name_H-M "P C C N"
_symmetry_group_IT_number 56
_symmetry_cell_setting 'orthorhombic'
loop_
_space_group_symop_operation_xyz
x,y,z
1/2-x,1/2-y,z
1/2+x,-y,1/2-z
-x,1/2+y,1/2-z
-x,-y,-z
1/2+x,1/2+y,-z
1/2-x,y,1/2+z
x,1/2-y,1/2+z
loop_
_atom_site_type_symbol
_atom_site_label
_atom_site_fract_x
_atom_site_fract_y
_atom_site_fract_z
Si Si1 0.594747 0.226027 0.842203
Si Si2 0.575363 0.403387 0.561571
Si Si3 0.296706 0.364111 0.688253
Si Si4 0.110761 0.018252 0.200520
O O1 0.750000 0.250000 0.810064
O O2 0.529820 0.258451 0.080869
O O3 0.620450 0.154591 0.906886
O O4 0.458728 0.374480 0.739672
O O5 0.483634 0.445235 0.388349
O O6 0.669564 0.453204 0.697836
O O7 0.276070 0.334791 0.422019
O O8 0.225997 0.431466 0.637842
O O9 0.000000 0.000000 0.000000
#
# Coordination Sequence:
#
# PCOD9430659 Si02
#       4
#     8   8   8   8
#     4  10  24  47  66  95 126 180 228 275 326 382
#     4  10  22  40  64  94 138 169 221 276 326 398
#     4  10  20  36  58  92 131 165 208 254 329 392
#     4  10  20  38  63 102 134 174 206 273 344 395
#
# _framework density 27.437922
#
# number of rings (size 3 to 8) (size 9 to 14) (size 15 to 20)
#    0.000    2.000    2.500    0.000    3.500    0.000 
#   27.000    0.000    0.000   18.000    0.000    0.000 
#    0.000    0.000    0.000    0.000    0.000    0.000 
#
# Total GULP energy -178847.004920 kJ/mol
# GULP energy per Si atom -5588.968904 kJ/mol
# Density = 2.737547 g / cm^3
# Si number density = 27.437922 Si / 1000 Ang^3
#
#
#
# Elastic Constant Matrix: (Units=GPa)
#
#
# Indices 1 2 3 4 5 6 
#
# 1 47.7338 14.6485 1.1244 0.0000 0.0000 0.0000
# 2 14.6485 137.7554 30.7184 0.0000 0.0000 0.0000
# 3 1.1244 30.7184 183.4012 0.0000 0.0000 0.0000
# 4 0.0000 0.0000 0.0000 33.4306 0.0000 0.0000
# 5 0.0000 0.0000 0.0000 0.0000 37.4839 0.0000
# 6 0.0000 0.0000 0.0000 0.0000 0.0000 35.7342
#
#
#
# Elastic Compliance Matrix: (Units=1/GPa)
#
#
# Indices 1 2 3 4 5 6 
#
# 1 0.021668 -0.002363 0.000263 0.000000 0.000000 0.000000
# 2 -0.002363 0.007799 -0.001292 0.000000 0.000000 0.000000
# 3 0.000263 -0.001292 0.005667 0.000000 0.000000 0.000000
# 4 0.000000 0.000000 0.000000 0.029913 0.000000 0.000000
# 5 0.000000 0.000000 0.000000 0.000000 0.026678 0.000000
# 6 0.000000 0.000000 0.000000 0.000000 0.000000 0.027984
#
#
# Mechanical properties :
#
#
# Convention : Reuss Voigt Hill
#
# Bulk Modulus (GPa) = 35.27206 51.31921 43.29563
# Shear Modulus (GPa) = 36.78013 42.82301 39.80157
#
# Velocity S-wave (km/s) = 3.66524 3.95489 3.81281
# Velocity P-wave (km/s) = 5.54933 6.29279 5.93272
#
# Compressibility (1/GPa) = 0.02835105
#
# Stress axis : x y z
#
# Youngs Moduli (GPa) = 46.15013 128.22926 176.45187
#
# Poissons Ratio (x) = 0.30298 -0.04639
# Poissons Ratio (y) = 0.10904 0.22793
# Poissons Ratio (z) = -0.01213 0.16564
#
# Static dielectric constant tensor:
#      x y z
#    x 1.981070 0.000000 0.000000 
#    y 0.000000 2.240980 0.000000 
#    z 0.000000 0.000000 2.333030 
# 
# From -- ./inp_files/224.got.cif
#   From: 2010.05.17/outbox.cif.g08.bks.cpg/sg56_1_cif.got.tgz:224.got - 2010.06.03 13:42:01.
