data_PCOD9430200
_publ_section_title
;
Structure prediction by ZEFSAII (Michael W. Deem and Ramdas Pophale) SiO2 
 PCOD9430200
Probable space group: P C C N
;
_chemical_formula_sum "Si O2"
_cell_formula_units_Z 56
_cell_length_a 9.830158
_cell_length_b 13.947195
_cell_length_c 20.849097
_cell_angle_alpha 90.000000
_cell_angle_beta 90.000000
_cell_angle_gamma 90.000000
_cell_volume 2858.476467
_symmetry_space_group_name_H-M "P C C N"
_symmetry_group_IT_number 56
_symmetry_cell_setting 'orthorhombic'
loop_
_space_group_symop_operation_xyz
x,y,z
1/2-x,1/2-y,z
1/2+x,-y,1/2-z
-x,1/2+y,1/2-z
-x,-y,-z
1/2+x,1/2+y,-z
1/2-x,y,1/2+z
x,1/2-y,1/2+z
loop_
_atom_site_type_symbol
_atom_site_label
_atom_site_fract_x
_atom_site_fract_y
_atom_site_fract_z
Si Si1 0.499867 0.500060 0.831388
Si Si2 0.250000 0.250000 0.855235
Si Si3 0.498284 0.343514 0.723043
Si Si4 0.998405 0.656630 0.223042
Si Si5 0.786608 0.558798 0.426368
Si Si6 0.500069 0.000075 0.877691
Si Si7 0.786488 0.558803 0.573617
Si Si8 0.750000 0.750000 0.855250
O O1 0.472784 0.411155 0.784140
O O2 0.526935 0.588982 0.784152
O O3 0.628117 0.491331 0.878540
O O4 0.371645 0.508744 0.878557
O O5 0.137073 0.300882 0.810827
O O6 0.310141 0.333230 0.900476
O O7 0.575083 0.250105 0.750014
O O8 0.555002 0.415321 0.669113
O O9 0.362898 0.300924 0.689153
O O10 0.055130 0.584858 0.169091
O O11 0.626728 0.537557 0.418017
O O12 0.827061 0.548209 0.500000
O O13 0.810187 0.666787 0.400489
O O14 0.373426 0.037653 0.918055
#
# Coordination Sequence:
#
# PCOD9430200 Si02
#       8
#     8   4   8   8   8   8   8   4
#     4  11  23  34  62  94 119 161 190 254 316 343
#     4  10  20  36  66  90 111 157 212 258 286 345
#     4  10  19  35  61  90 120 143 200 260 300 349
#     4  10  19  35  61  90 120 143 200 260 300 349
#     4  11  22  40  60  88 124 162 205 244 293 363
#     4   9  23  36  62  90 117 161 196 250 310 347
#     4  11  22  40  60  88 124 162 205 244 293 363
#     4  10  20  36  66  90 111 157 212 258 286 345
#
# _framework density 19.590855999999999
#
# number of rings (size 3 to 8) (size 9 to 14) (size 15 to 20)
#    0.000    1.714    2.857    1.714    4.000    3.429 
#    0.000    2.857    0.000    1.714    0.000    0.000 
#    0.000    0.000    0.000    0.000    0.000    0.000 
#
# Total GULP energy -312194.391523 kJ/mol
# GULP energy per Si atom -5574.899849 kJ/mol
# Density = 1.954627 g / cm^3
# Si number density = 19.590856 Si / 1000 Ang^3
#
#
#
# Elastic Constant Matrix: (Units=GPa)
#
#
# Indices 1 2 3 4 5 6 
#
# 1 61.4098 11.5948 31.5382 0.0000 0.0000 0.0000
# 2 11.5948 100.0581 43.3018 0.0000 0.0000 0.0000
# 3 31.5382 43.3018 143.0530 0.0000 0.0000 0.0000
# 4 0.0000 0.0000 0.0000 11.8075 0.0000 0.0000
# 5 0.0000 0.0000 0.0000 0.0000 12.1729 0.0000
# 6 0.0000 0.0000 0.0000 0.0000 0.0000 25.5837
#
#
#
# Elastic Compliance Matrix: (Units=1/GPa)
#
#
# Indices 1 2 3 4 5 6 
#
# 1 0.018379 -0.000433 -0.003921 0.000000 0.000000 0.000000
# 2 -0.000433 0.011511 -0.003389 0.000000 0.000000 0.000000
# 3 -0.003921 -0.003389 0.008881 0.000000 0.000000 0.000000
# 4 0.000000 0.000000 0.000000 0.084692 0.000000 0.000000
# 5 0.000000 0.000000 0.000000 0.000000 0.082150 0.000000
# 6 0.000000 0.000000 0.000000 0.000000 0.000000 0.039087
#
#
# Mechanical properties :
#
#
# Convention : Reuss Voigt Hill
#
# Bulk Modulus (GPa) = 42.94525 53.04339 47.99432
# Shear Modulus (GPa) = 18.66037 24.45190 21.55614
#
# Velocity S-wave (km/s) = 3.08961 3.53672 3.32070
# Velocity P-wave (km/s) = 5.89036 6.61908 6.26532
#
# Compressibility (1/GPa) = 0.02328546
#
# Stress axis : x y z
#
# Youngs Moduli (GPa) = 54.40847 86.87365 112.60420
#
# Poissons Ratio (x) = 0.03761 0.44152
# Poissons Ratio (y) = 0.02356 0.38160
# Poissons Ratio (z) = 0.21333 0.29441
#
# Static dielectric constant tensor:
#      x y z
#    x 1.709380 0.000000 0.000000 
#    y 0.000000 1.730020 0.000000 
#    z 0.000000 0.000000 1.685250 
# 
# From -- ./inp_files/18281.got.cif
#   From: 2010.05.17/outbox.cif.g08.bks.cpg/sg56_10_cif.got.tgz:18281.got - 2010.06.03 13:42:01.
