data_PCOD9430774
_publ_section_title
;
Structure prediction by ZEFSAII (Michael W. Deem and Ramdas Pophale) SiO2 
 PCOD9430774
Probable space group: P C C N
;
_chemical_formula_sum "Si O2"
_cell_formula_units_Z 48
_cell_length_a 7.735922
_cell_length_b 22.010546
_cell_length_c 13.248849
_cell_angle_alpha 90.000000
_cell_angle_beta 90.000000
_cell_angle_gamma 90.000000
_cell_volume 2255.906255
_symmetry_space_group_name_H-M "P C C N"
_symmetry_group_IT_number 56
_symmetry_cell_setting 'orthorhombic'
loop_
_space_group_symop_operation_xyz
x,y,z
1/2-x,1/2-y,z
1/2+x,-y,1/2-z
-x,1/2+y,1/2-z
-x,-y,-z
1/2+x,1/2+y,-z
1/2-x,y,1/2+z
x,1/2-y,1/2+z
loop_
_atom_site_type_symbol
_atom_site_label
_atom_site_fract_x
_atom_site_fract_y
_atom_site_fract_z
Si Si1 0.532954 0.623660 0.164807
Si Si2 0.849659 0.922134 0.947922
Si Si3 0.290056 0.681070 0.758373
Si Si4 0.817182 0.055018 0.163510
Si Si5 0.049074 0.018133 0.663835
Si Si6 0.182047 0.313508 0.712449
O O1 0.347718 0.657890 0.174509
O O2 0.541492 0.568915 0.246667
O O3 0.676346 0.669646 0.205045
O O4 0.593850 0.599214 0.057653
O O5 0.677010 0.960336 0.923736
O O6 0.825427 0.863151 0.876108
O O7 0.014758 0.957163 0.902158
O O8 0.250000 0.750000 0.791522
O O9 0.272730 0.626855 0.841308
O O10 0.493745 0.684508 0.736102
O O11 0.651602 0.015104 0.135439
O O12 0.873507 0.039981 0.278778
O O13 0.250000 0.250000 0.669213
#
# Coordination Sequence:
#
# PCOD9430774 Si02
#       6
#     8   8   8   8   8   8
#     4  10  22  38  59  89 122 157 199 253 306 364
#     4  10  22  38  59  92 118 155 205 249 303 367
#     4  10  20  38  61  83 117 163 198 244 307 358
#     4  10  20  37  62  86 118 162 205 247 304 365
#     4  10  20  39  61  84 123 159 197 253 310 360
#     4  10  20  38  63  82 120 160 198 247 304 357
#
# _framework density 21.277481000000002
#
# number of rings (size 3 to 8) (size 9 to 14) (size 15 to 20)
#    0.000    2.000    3.333    0.000    0.000    2.667 
#    0.000    4.167    0.000    0.000    0.000    0.000 
#    0.000    0.000    0.000    0.000    0.000    0.000 
#
# Total GULP energy -267736.408868 kJ/mol
# GULP energy per Si atom -5577.841851 kJ/mol
# Density = 2.122905 g / cm^3
# Si number density = 21.277481 Si / 1000 Ang^3
#
#
#
# Elastic Constant Matrix: (Units=GPa)
#
#
# Indices 1 2 3 4 5 6 
#
# 1 162.4263 33.7767 39.4564 0.0000 0.0000 0.0000
# 2 33.7767 89.8699 21.1619 0.0000 0.0000 0.0000
# 3 39.4564 21.1619 75.5411 0.0000 0.0000 0.0000
# 4 0.0000 0.0000 0.0000 -12.5956 0.0000 0.0000
# 5 0.0000 0.0000 0.0000 0.0000 1.9732 0.0000
# 6 0.0000 0.0000 0.0000 0.0000 0.0000 33.8302
#
#
#
# Elastic Compliance Matrix: (Units=1/GPa)
#
#
# Indices 1 2 3 4 5 6 
#
# 1 0.007371 -0.001995 -0.003291 0.000000 0.000000 0.000000
# 2 -0.001995 0.012453 -0.002446 0.000000 0.000000 0.000000
# 3 -0.003291 -0.002446 0.015642 0.000000 0.000000 0.000000
# 4 0.000000 0.000000 0.000000 -0.079393 0.000000 0.000000
# 5 0.000000 0.000000 0.000000 0.000000 0.506791 0.000000
# 6 0.000000 0.000000 0.000000 0.000000 0.000000 0.029559
#
#
# Mechanical properties :
#
#
# Convention : Reuss Voigt Hill
#
# Bulk Modulus (GPa) = 49.99812 57.40301 53.70056
# Shear Modulus (GPa) = 9.71711 20.20439 14.96075
#
# Velocity S-wave (km/s) = 2.13934 3.08485 2.65453
# Velocity P-wave (km/s) = 5.44532 6.30280 5.88968
#
# Compressibility (1/GPa) = 0.02000075
#
# Stress axis : x y z
#
# Youngs Moduli (GPa) = 135.66617 80.30064 63.92999
#
# Poissons Ratio (x) = 0.16023 0.21040
# Poissons Ratio (y) = 0.27071 0.15640
# Poissons Ratio (z) = 0.44648 0.19645
#
# Static dielectric constant tensor:
#      x y z
#    x 1.813610 0.000000 0.000000 
#    y 0.000000 1.883550 0.000000 
#    z 0.000000 0.000000 1.754310 
# 
# From -- ./inp_files/6406.got.cif
#   From: 2010.05.17/outbox.cif.g08.bks.cpg/sg56_4_cif.got.tgz:6406.got - 2010.06.03 13:42:01.
