data_PCOD9430521
_publ_section_title
;
Structure prediction by ZEFSAII (Michael W. Deem and Ramdas Pophale) SiO2 
 PCOD9430521
Probable space group: P C C N
;
_chemical_formula_sum "Si O2"
_cell_formula_units_Z 64
_cell_length_a 5.823933
_cell_length_b 22.333300
_cell_length_c 23.861183
_cell_angle_alpha 90.000000
_cell_angle_beta 90.000000
_cell_angle_gamma 90.000000
_cell_volume 3103.567829
_symmetry_space_group_name_H-M "P C C N"
_symmetry_group_IT_number 56
_symmetry_cell_setting 'orthorhombic'
loop_
_space_group_symop_operation_xyz
x,y,z
1/2-x,1/2-y,z
1/2+x,-y,1/2-z
-x,1/2+y,1/2-z
-x,-y,-z
1/2+x,1/2+y,-z
1/2-x,y,1/2+z
x,1/2-y,1/2+z
loop_
_atom_site_type_symbol
_atom_site_label
_atom_site_fract_x
_atom_site_fract_y
_atom_site_fract_z
Si Si1 0.641924 0.527067 0.104347
Si Si2 0.267946 0.022913 0.683373
Si Si3 0.931201 0.801028 0.559586
Si Si4 0.567718 0.582032 0.702903
Si Si5 0.498343 0.719229 0.690503
Si Si6 0.244720 0.816259 0.957385
Si Si7 0.992621 0.569814 0.916744
Si Si8 0.865370 0.600443 0.506526
O O1 0.486908 0.485893 0.143979
O O2 0.767966 0.570521 0.149328
O O3 0.826151 0.483522 0.074920
O O4 0.508827 0.559871 0.053293
O O5 0.318693 0.053071 0.742256
O O6 0.092894 0.061390 0.646464
O O7 0.159156 0.957305 0.691799
O O8 0.750000 0.750000 0.542287
O O9 0.000789 0.787753 0.622832
O O10 0.803004 0.862849 0.547437
O O11 0.142459 0.805102 0.517973
O O12 0.511379 0.651222 0.712242
O O13 0.750000 0.750000 0.704135
O O14 0.250000 0.750000 0.705741
O O15 0.250000 0.750000 0.930405
O O16 0.397161 0.865087 0.925403
O O17 0.011370 0.851499 0.971331
O O18 0.787073 0.565471 0.961449
#
# Coordination Sequence:
#
# PCOD9430521 Si02
#       8
#     8   8   8   8   8   8   8   8
#     4  11  23  42  66 101 130 174 219 287 352 407
#     4  11  24  43  70  97 128 177 233 297 346 418
#     4  10  20  34  57  95 132 173 222 274 339 414
#     4  11  24  42  72 100 132 177 237 291 356 422
#     4  11  26  42  69 104 148 186 229 292 364 431
#     4  11  22  37  63  92 133 183 226 276 337 420
#     4  10  25  41  62  95 132 174 226 284 343 419
#     4  11  22  38  64  96 135 174 217 282 344 425
#
# _framework density 20.621427000000001
#
# number of rings (size 3 to 8) (size 9 to 14) (size 15 to 20)
#    0.000    1.250    3.750    1.500    5.250    3.000 
#    0.000    0.000    5.500    0.000    0.000    0.000 
#    0.000    0.000    0.000    0.000    0.000    0.000 
#
# Total GULP energy -357056.639553 kJ/mol
# GULP energy per Si atom -5579.009993 kJ/mol
# Density = 2.057449 g / cm^3
# Si number density = 20.621427 Si / 1000 Ang^3
#
#
#
# Elastic Constant Matrix: (Units=GPa)
#
#
# Indices 1 2 3 4 5 6 
#
# 1 72.9400 33.0852 22.4267 0.0000 0.0000 0.0000
# 2 33.0852 100.5968 44.4403 0.0000 0.0000 0.0000
# 3 22.4267 44.4403 60.1540 0.0000 0.0000 0.0000
# 4 0.0000 0.0000 0.0000 24.8569 0.0000 0.0000
# 5 0.0000 0.0000 0.0000 0.0000 -474.0325 0.0000
# 6 0.0000 0.0000 0.0000 0.0000 0.0000 26.6773
#
#
#
# Elastic Compliance Matrix: (Units=1/GPa)
#
#
# Indices 1 2 3 4 5 6 
#
# 1 0.016514 -0.004025 -0.003183 0.000000 0.000000 0.000000
# 2 -0.004025 0.015738 -0.010126 0.000000 0.000000 0.000000
# 3 -0.003183 -0.010126 0.025292 0.000000 0.000000 0.000000
# 4 0.000000 0.000000 0.000000 0.040230 0.000000 0.000000
# 5 0.000000 0.000000 0.000000 0.000000 -0.002110 0.000000
# 6 0.000000 0.000000 0.000000 0.000000 0.000000 0.037485
#
#
# Mechanical properties :
#
#
# Convention : Reuss Voigt Hill
#
# Bulk Modulus (GPa) = 43.71584 48.17723 45.94654
# Shear Modulus (GPa) = 28.49915 -75.58375 -23.54230
#
# Velocity S-wave (km/s) = 3.72158 -6.06074 -3.38249
# Velocity P-wave (km/s) = 6.30176 5.05602 2.65977
#
# Compressibility (1/GPa) = 0.02287501
#
# Stress axis : x y z
#
# Youngs Moduli (GPa) = 60.55313 63.54095 39.53865
#
# Poissons Ratio (x) = 0.25576 0.12586
# Poissons Ratio (y) = 0.24374 0.40037
# Poissons Ratio (z) = 0.19276 0.64342
#
# Static dielectric constant tensor:
#      x y z
#    x 1.813160 0.000000 0.000000 
#    y 0.000000 1.803010 0.000000 
#    z 0.000000 0.000000 1.695110 
# 
# From -- ./inp_files/20199.got.cif
#   From: 2010.05.17/outbox.cif.g08.bks.cpg/sg56_11_cif.got.tgz:20199.got - 2010.06.03 13:42:01.
