data_PCOD9430114
_publ_section_title
;
Structure prediction by ZEFSAII (Michael W. Deem and Ramdas Pophale) SiO2 
 PCOD9430114
Probable space group: P C C N
;
_chemical_formula_sum "Si O2"
_cell_formula_units_Z 64
_cell_length_a 21.228760
_cell_length_b 7.514072
_cell_length_c 18.473210
_cell_angle_alpha 90.000000
_cell_angle_beta 90.000000
_cell_angle_gamma 90.000000
_cell_volume 2946.743584
_symmetry_space_group_name_H-M "P C C N"
_symmetry_group_IT_number 56
_symmetry_cell_setting 'orthorhombic'
loop_
_space_group_symop_operation_xyz
x,y,z
1/2-x,1/2-y,z
1/2+x,-y,1/2-z
-x,1/2+y,1/2-z
-x,-y,-z
1/2+x,1/2+y,-z
1/2-x,y,1/2+z
x,1/2-y,1/2+z
loop_
_atom_site_type_symbol
_atom_site_label
_atom_site_fract_x
_atom_site_fract_y
_atom_site_fract_z
Si Si1 0.502097 0.038493 0.335135
Si Si2 0.122276 0.031807 0.419126
Si Si3 0.750001 0.967065 0.661156
Si Si4 0.002105 0.538530 0.164865
Si Si5 0.129697 0.457438 0.583135
Si Si6 0.749998 0.968769 0.327909
Si Si7 0.629703 0.542537 0.416870
Si Si8 0.377720 0.031802 0.419132
O O1 0.503629 0.249981 0.344277
O O2 0.439399 0.971616 0.375502
O O3 0.499995 0.999982 0.250000
O O4 0.565347 0.968597 0.372204
O O5 0.186664 0.976974 0.379915
O O6 0.121537 0.969469 0.502244
O O7 0.121008 0.250003 0.418374
O O8 0.060591 0.971638 0.375501
O O9 0.750000 0.750000 0.660853
O O10 0.749996 0.025246 0.744477
O O11 0.686672 0.023029 0.620074
O O12 0.065357 0.468647 0.127795
O O13 0.187845 0.530210 0.629542
O O14 0.145169 0.249991 0.572444
O O15 0.121535 0.530523 0.502251
O O16 0.750000 0.750000 0.325996
O O17 0.812143 0.030225 0.370470
#
# Coordination Sequence:
#
# PCOD9430114 Si02
#       8
#     8   8   8   8   8   8   8   8
#     4  11  22  36  53  77 107 141 177 220 268 317
#     4   9  18  31  51  77 106 136 172 216 264 313
#     4   9  15  27  47  75 106 135 168 212 258 307
#     4  11  22  36  53  77 107 141 177 220 268 317
#     4  10  19  34  55  80 106 137 175 217 262 314
#     4   9  17  29  52  81 108 137 174 216 260 309
#     4  10  19  34  55  80 106 137 175 217 262 314
#     4   9  18  31  51  77 106 136 172 216 264 313
#
# _framework density 21.718889000000001
#
# number of rings (size 3 to 8) (size 9 to 14) (size 15 to 20)
#    0.000    2.250    0.000    3.750    0.000    7.000 
#    0.000    1.875    0.000    0.000    0.000    6.125 
#    0.000    0.000    0.000    0.000    0.000    0.000 
#
# Total GULP energy -357741.660598 kJ/mol
# GULP energy per Si atom -5589.713447 kJ/mol
# Density = 2.166946 g / cm^3
# Si number density = 21.718889 Si / 1000 Ang^3
#
#
#
# Elastic Constant Matrix: (Units=GPa)
#
#
# Indices 1 2 3 4 5 6 
#
# 1 220.1092 -17.3471 132.7981 0.0000 0.0000 0.0000
# 2 -17.3471 50.7142 -12.4886 0.0000 0.0000 0.0000
# 3 132.7981 -12.4886 244.5047 0.0000 0.0000 0.0000
# 4 0.0000 0.0000 0.0000 7.4407 0.0000 0.0000
# 5 0.0000 0.0000 0.0000 0.0000 55.2615 0.0000
# 6 0.0000 0.0000 0.0000 0.0000 0.0000 11.7123
#
#
#
# Elastic Compliance Matrix: (Units=1/GPa)
#
#
# Indices 1 2 3 4 5 6 
#
# 1 0.006861 0.001447 -0.003652 0.000000 0.000000 0.000000
# 2 0.001447 0.020275 0.000249 0.000000 0.000000 0.000000
# 3 -0.003652 0.000249 0.006086 0.000000 0.000000 0.000000
# 4 0.000000 0.000000 0.000000 0.134396 0.000000 0.000000
# 5 0.000000 0.000000 0.000000 0.000000 0.018096 0.000000
# 6 0.000000 0.000000 0.000000 0.000000 0.000000 0.085381
#
#
# Mechanical properties :
#
#
# Convention : Reuss Voigt Hill
#
# Bulk Modulus (GPa) = 34.11692 80.13921 57.12806
# Shear Modulus (GPa) = 17.55764 42.37394 29.96579
#
# Velocity S-wave (km/s) = 2.84633 4.42182 3.71848
# Velocity P-wave (km/s) = 5.15215 7.94031 6.69303
#
# Compressibility (1/GPa) = 0.02931097
#
# Stress axis : x y z
#
# Youngs Moduli (GPa) = 145.75385 49.32214 164.30099
#
# Poissons Ratio (x) = -0.07139 0.60010
# Poissons Ratio (y) = -0.21096 -0.04099
# Poissons Ratio (z) = 0.53236 -0.01230
#
# Static dielectric constant tensor:
#      x y z
#    x 1.728760 0.000000 0.000000 
#    y 0.000000 1.861970 0.000000 
#    z 0.000000 0.000000 1.733460 
# 
# From -- ./inp_files/16874.got.cif
#   From: 2010.05.17/outbox.cif.g08.bks.cpg/sg56_9_cif.got.tgz:16874.got - 2010.06.03 13:42:01.
