data_PCOD9430457
_publ_section_title
;
Structure prediction by ZEFSAII (Michael W. Deem and Ramdas Pophale) SiO2 
 PCOD9430457
Probable space group: P C C N
;
_chemical_formula_sum "Si O2"
_cell_formula_units_Z 60
_cell_length_a 8.170935
_cell_length_b 22.418038
_cell_length_c 14.390677
_cell_angle_alpha 90.000000
_cell_angle_beta 90.000000
_cell_angle_gamma 90.000000
_cell_volume 2636.031418
_symmetry_space_group_name_H-M "P C C N"
_symmetry_group_IT_number 56
_symmetry_cell_setting 'orthorhombic'
loop_
_space_group_symop_operation_xyz
x,y,z
1/2-x,1/2-y,z
1/2+x,-y,1/2-z
-x,1/2+y,1/2-z
-x,-y,-z
1/2+x,1/2+y,-z
1/2-x,y,1/2+z
x,1/2-y,1/2+z
loop_
_atom_site_type_symbol
_atom_site_label
_atom_site_fract_x
_atom_site_fract_y
_atom_site_fract_z
Si Si1 0.310716 0.846564 0.474391
Si Si2 0.750000 0.250000 0.181983
Si Si3 0.762321 0.625622 0.139307
Si Si4 0.069797 0.681490 0.670117
Si Si5 0.907001 0.938917 0.998370
Si Si6 0.049825 0.566544 0.037017
Si Si7 0.401177 0.060087 0.697608
Si Si8 0.751001 0.062553 0.269359
O O1 0.298543 0.802800 0.387987
O O2 0.320730 0.813984 0.575901
O O3 0.478303 0.882700 0.481479
O O4 0.169050 0.896493 0.470179
O O5 0.893445 0.268501 0.253400
O O6 0.623113 0.676076 0.144449
O O7 0.834635 0.613024 0.239217
O O8 0.910009 0.615919 0.065456
O O9 0.662018 0.568739 0.100578
O O10 0.135284 0.620148 0.718770
O O11 0.810831 0.939297 0.901801
O O12 0.000000 0.000000 0.000000
O O13 0.152566 0.558030 0.131996
O O14 0.000000 0.500000 0.000000
O O15 0.598295 0.066108 0.697166
O O16 0.355889 0.996664 0.743311
#
# Coordination Sequence:
#
# PCOD9430457 Si02
#       8
#     8   4   8   8   8   8   8   8
#     4  10  23  41  65  95 126 168 225 276 331 408
#     4  12  24  40  70  92 118 174 236 286 324 396
#     4  10  22  36  58  90 128 168 207 267 337 403
#     4  10  22  42  61  86 124 168 220 278 336 390
#     4  11  20  36  60  88 126 167 206 265 340 410
#     4  10  20  36  61  96 131 166 210 270 345 416
#     4  11  20  33  56  91 129 166 212 257 324 412
#     4  10  20  32  53  84 125 166 204 258 319 394
#
# _framework density 22.761489000000001
#
# number of rings (size 3 to 8) (size 9 to 14) (size 15 to 20)
#    0.000    1.600    0.000    6.800    0.000    5.333 
#    0.000    0.000    0.000   41.600    0.000    0.000 
#    0.000    0.000    0.000    0.000    0.000    0.000 
#
# Total GULP energy -334358.271660 kJ/mol
# GULP energy per Si atom -5572.637861 kJ/mol
# Density = 2.270968 g / cm^3
# Si number density = 22.761489 Si / 1000 Ang^3
#
#
#
# Elastic Constant Matrix: (Units=GPa)
#
#
# Indices 1 2 3 4 5 6 
#
# 1 90.4166 25.5756 14.0909 0.0000 0.0000 0.0000
# 2 25.5756 64.7673 30.5937 0.0000 0.0000 0.0000
# 3 14.0909 30.5937 107.8421 0.0000 0.0000 0.0000
# 4 0.0000 0.0000 0.0000 40.5122 0.0000 0.0000
# 5 0.0000 0.0000 0.0000 0.0000 29.0366 0.0000
# 6 0.0000 0.0000 0.0000 0.0000 0.0000 21.5501
#
#
#
# Elastic Compliance Matrix: (Units=1/GPa)
#
#
# Indices 1 2 3 4 5 6 
#
# 1 0.012457 -0.004793 -0.000268 0.000000 0.000000 0.000000
# 2 -0.004793 0.019673 -0.004955 0.000000 0.000000 0.000000
# 3 -0.000268 -0.004955 0.010713 0.000000 0.000000 0.000000
# 4 0.000000 0.000000 0.000000 0.024684 0.000000 0.000000
# 5 0.000000 0.000000 0.000000 0.000000 0.034439 0.000000
# 6 0.000000 0.000000 0.000000 0.000000 0.000000 0.046403
#
#
# Mechanical properties :
#
#
# Convention : Reuss Voigt Hill
#
# Bulk Modulus (GPa) = 43.83510 44.83849 44.33680
# Shear Modulus (GPa) = 28.40822 31.07086 29.73954
#
# Velocity S-wave (km/s) = 3.53665 3.69868 3.61858
# Velocity P-wave (km/s) = 5.99812 6.16299 6.08111
#
# Compressibility (1/GPa) = 0.02281277
#
# Stress axis : x y z
#
# Youngs Moduli (GPa) = 80.27398 50.83150 93.34045
#
# Poissons Ratio (x) = 0.24361 0.02503
# Poissons Ratio (y) = 0.38472 0.46248
# Poissons Ratio (z) = 0.02152 0.25186
#
# Static dielectric constant tensor:
#      x y z
#    x 2.027200 0.000000 0.000000 
#    y 0.000000 1.847140 0.000000 
#    z 0.000000 0.000000 1.923980 
# 
# From -- ./inp_files/10992.got.cif
#   From: 2010.05.17/outbox.cif.g08.bks.cpg/sg56_6_cif.got.tgz:10992.got - 2010.06.03 13:42:01.
