data_PCOD9430262
_publ_section_title
;
Structure prediction by ZEFSAII (Michael W. Deem and Ramdas Pophale) SiO2 
 PCOD9430262
Probable space group: P C C N
;
_chemical_formula_sum "Si O2"
_cell_formula_units_Z 48
_cell_length_a 16.387223
_cell_length_b 5.064926
_cell_length_c 27.447461
_cell_angle_alpha 90.000000
_cell_angle_beta 90.000000
_cell_angle_gamma 90.000000
_cell_volume 2278.141235
_symmetry_space_group_name_H-M "P C C N"
_symmetry_group_IT_number 56
_symmetry_cell_setting 'orthorhombic'
loop_
_space_group_symop_operation_xyz
x,y,z
1/2-x,1/2-y,z
1/2+x,-y,1/2-z
-x,1/2+y,1/2-z
-x,-y,-z
1/2+x,1/2+y,-z
1/2-x,y,1/2+z
x,1/2-y,1/2+z
loop_
_atom_site_type_symbol
_atom_site_label
_atom_site_fract_x
_atom_site_fract_y
_atom_site_fract_z
Si Si1 0.338698 0.313897 0.462336
Si Si2 0.447633 0.675288 0.307443
Si Si3 0.112426 0.685292 0.407949
Si Si4 0.074825 0.310559 0.558512
Si Si5 0.939076 0.176052 0.803472
Si Si6 0.155621 0.692485 0.102267
O O1 0.250000 0.250000 0.484255
O O2 0.340211 0.604936 0.440835
O O3 0.407407 0.266373 0.502910
O O4 0.356344 0.106280 0.419327
O O5 0.386960 0.737592 0.351344
O O6 0.413075 0.700873 0.252819
O O7 0.488719 0.388646 0.312464
O O8 0.520863 0.889504 0.310840
O O9 0.018311 0.710614 0.425106
O O10 0.104433 0.607469 0.568370
O O11 0.128648 0.103977 0.589745
O O12 0.870216 0.235861 0.842744
O O13 0.250000 0.750000 0.093953
#
# Coordination Sequence:
#
# PCOD9430262 Si02
#       6
#     8   8   8   8   8   8
#     4  12  26  42  60  89 128 164 201 253 315 360
#     4  10  20  36  65  86 119 153 205 250 292 353
#     4  12  22  42  67  91 118 162 213 257 288 366
#     4  12  24  42  63  92 118 165 212 253 301 365
#     4  10  19  37  58  92 119 156 196 248 304 362
#     4  12  22  37  61  92 131 160 197 259 317 360
#
# _framework density 21.06981
#
# number of rings (size 3 to 8) (size 9 to 14) (size 15 to 20)
#    0.000    0.667    3.333    6.000    0.000    0.000 
#    0.000    1.667    0.000    0.000    0.000    0.000 
#    0.000    0.000    0.000    0.000    0.000    0.000 
#
# Total GULP energy -268672.708014 kJ/mol
# GULP energy per Si atom -5597.348084 kJ/mol
# Density = 2.102185 g / cm^3
# Si number density = 21.069810 Si / 1000 Ang^3
#
#
#
# Elastic Constant Matrix: (Units=GPa)
#
#
# Indices 1 2 3 4 5 6 
#
# 1 44.6562 3.8289 -9.8889 0.0000 0.0000 0.0000
# 2 3.8289 53.8470 -3.4651 0.0000 0.0000 0.0000
# 3 -9.8889 -3.4651 86.5643 0.0000 0.0000 0.0000
# 4 0.0000 0.0000 0.0000 28.9911 0.0000 0.0000
# 5 0.0000 0.0000 0.0000 0.0000 8.8980 0.0000
# 6 0.0000 0.0000 0.0000 0.0000 0.0000 23.9903
#
#
#
# Elastic Compliance Matrix: (Units=1/GPa)
#
#
# Indices 1 2 3 4 5 6 
#
# 1 0.023091 -0.001476 0.002579 0.000000 0.000000 0.000000
# 2 -0.001476 0.018713 0.000580 0.000000 0.000000 0.000000
# 3 0.002579 0.000580 0.011870 0.000000 0.000000 0.000000
# 4 0.000000 0.000000 0.000000 0.034493 0.000000 0.000000
# 5 0.000000 0.000000 0.000000 0.000000 0.112384 0.000000
# 6 0.000000 0.000000 0.000000 0.000000 0.000000 0.041683
#
#
# Mechanical properties :
#
#
# Convention : Reuss Voigt Hill
#
# Bulk Modulus (GPa) = 17.53132 18.44639 17.98886
# Shear Modulus (GPa) = 19.38867 25.34873 22.36870
#
# Velocity S-wave (km/s) = 3.03679 3.47231 3.26183
# Velocity P-wave (km/s) = 4.54255 4.98496 4.76889
#
# Compressibility (1/GPa) = 0.05704076
#
# Stress axis : x y z
#
# Youngs Moduli (GPa) = 43.30710 53.43750 84.24652
#
# Poissons Ratio (x) = 0.07887 -0.21725
# Poissons Ratio (y) = 0.06392 -0.04890
# Poissons Ratio (z) = -0.11168 -0.03102
#
# Static dielectric constant tensor:
#      x y z
#    x 1.718470 0.000000 0.000000 
#    y 0.000000 1.723890 0.000000 
#    z 0.000000 0.000000 1.776030 
# 
# From -- ./inp_files/21681.got.cif
#   From: 2010.05.17/outbox.cif.g08.bks.cpg/sg56_11_cif.got.tgz:21681.got - 2010.06.03 13:42:01.
