data_PCOD9430072
_publ_section_title
;
Structure prediction by ZEFSAII (Michael W. Deem and Ramdas Pophale) SiO2 
 PCOD9430072
Probable space group: P C C N
;
_chemical_formula_sum "Si O2"
_cell_formula_units_Z 40
_cell_length_a 8.956890
_cell_length_b 9.912917
_cell_length_c 23.465884
_cell_angle_alpha 90.000000
_cell_angle_beta 90.000000
_cell_angle_gamma 90.000000
_cell_volume 2083.510196
_symmetry_space_group_name_H-M "P C C N"
_symmetry_group_IT_number 56
_symmetry_cell_setting 'orthorhombic'
loop_
_space_group_symop_operation_xyz
x,y,z
1/2-x,1/2-y,z
1/2+x,-y,1/2-z
-x,1/2+y,1/2-z
-x,-y,-z
1/2+x,1/2+y,-z
1/2-x,y,1/2+z
x,1/2-y,1/2+z
loop_
_atom_site_type_symbol
_atom_site_label
_atom_site_fract_x
_atom_site_fract_y
_atom_site_fract_z
Si Si1 0.577218 0.216396 0.521878
Si Si2 0.647520 0.615502 0.417488
Si Si3 0.854593 0.120100 0.792332
Si Si4 0.358966 0.121402 0.213589
Si Si5 0.567624 0.460518 0.919530
O O1 0.750000 0.250000 0.524159
O O2 0.486365 0.346797 0.541797
O O3 0.526996 0.164506 0.459576
O O4 0.532894 0.089747 0.563341
O O5 0.750000 0.750000 0.416651
O O6 0.597977 0.594385 0.352404
O O7 0.761210 0.499498 0.435775
O O8 0.750000 0.250000 0.801386
O O9 0.923153 0.070673 0.852790
O O10 0.993551 0.142945 0.750525
O O11 0.743787 0.004798 0.768644
O O12 0.250000 0.250000 0.215667
#
# Coordination Sequence:
#
# PCOD9430072 Si02
#       5
#     8   8   8   8   8
#     4  10  19  33  56  79 103 142 191 229 268 336
#     4   8  17  34  53  73 106 145 177 220 277 330
#     4  11  22  38  60  84 116 151 188 238 289 336
#     4  10  21  38  58  83 114 151 190 229 283 346
#     4   9  20  37  52  77 114 146 179 231 292 331
#
# _framework density 19.198371999999999
#
# number of rings (size 3 to 8) (size 9 to 14) (size 15 to 20)
#    0.000    2.400    0.000    3.000    0.000    3.200 
#    0.000    5.000    0.000    0.000    0.000    0.000 
#    0.000    0.000    0.000    0.000    0.000    0.000 
#
# Total GULP energy -223107.940139 kJ/mol
# GULP energy per Si atom -5577.698503 kJ/mol
# Density = 1.915468 g / cm^3
# Si number density = 19.198372 Si / 1000 Ang^3
#
#
#
# Elastic Constant Matrix: (Units=GPa)
#
#
# Indices 1 2 3 4 5 6 
#
# 1 65.4617 16.4416 32.7848 0.0000 0.0000 0.0000
# 2 16.4416 56.4993 9.5311 0.0000 0.0000 0.0000
# 3 32.7848 9.5311 58.2388 0.0000 0.0000 0.0000
# 4 0.0000 0.0000 0.0000 8.5006 0.0000 0.0000
# 5 0.0000 0.0000 0.0000 0.0000 23.8887 0.0000
# 6 0.0000 0.0000 0.0000 0.0000 0.0000 34.2555
#
#
#
# Elastic Compliance Matrix: (Units=1/GPa)
#
#
# Indices 1 2 3 4 5 6 
#
# 1 0.022335 -0.004503 -0.011836 0.000000 0.000000 0.000000
# 2 -0.004503 0.019110 -0.000593 0.000000 0.000000 0.000000
# 3 -0.011836 -0.000593 0.023931 0.000000 0.000000 0.000000
# 4 0.000000 0.000000 0.000000 0.117639 0.000000 0.000000
# 5 0.000000 0.000000 0.000000 0.000000 0.041861 0.000000
# 6 0.000000 0.000000 0.000000 0.000000 0.000000 0.029192
#
#
# Mechanical properties :
#
#
# Convention : Reuss Voigt Hill
#
# Bulk Modulus (GPa) = 31.73399 33.07941 32.40670
# Shear Modulus (GPa) = 16.75406 21.42511 19.08958
#
# Velocity S-wave (km/s) = 2.95732 3.34426 3.15673
# Velocity P-wave (km/s) = 5.31285 5.67273 5.49574
#
# Compressibility (1/GPa) = 0.03151196
#
# Stress axis : x y z
#
# Youngs Moduli (GPa) = 44.77284 52.32956 41.78723
#
# Poissons Ratio (x) = 0.23563 0.49461
# Poissons Ratio (y) = 0.20161 0.02476
# Poissons Ratio (z) = 0.52994 0.03101
#
# Static dielectric constant tensor:
#      x y z
#    x 1.654220 0.000000 0.000000 
#    y 0.000000 1.709520 0.000000 
#    z 0.000000 0.000000 1.668000 
# 
# From -- ./inp_files/17981.got.cif
#   From: 2010.05.17/outbox.cif.g08.bks.cpg/sg56_9_cif.got.tgz:17981.got - 2010.06.03 13:42:01.
