data_PCOD9430897
_publ_section_title
;
Structure prediction by ZEFSAII (Michael W. Deem and Ramdas Pophale) SiO2 
 PCOD9430897
Probable space group: P C C N
;
_chemical_formula_sum "Si O2"
_cell_formula_units_Z 32
_cell_length_a 14.016923
_cell_length_b 4.981602
_cell_length_c 18.965667
_cell_angle_alpha 90.000000
_cell_angle_beta 90.000000
_cell_angle_gamma 90.000000
_cell_volume 1324.310540
_symmetry_space_group_name_H-M "P C C N"
_symmetry_group_IT_number 56
_symmetry_cell_setting 'orthorhombic'
loop_
_space_group_symop_operation_xyz
x,y,z
1/2-x,1/2-y,z
1/2+x,-y,1/2-z
-x,1/2+y,1/2-z
-x,-y,-z
1/2+x,1/2+y,-z
1/2-x,y,1/2+z
x,1/2-y,1/2+z
loop_
_atom_site_type_symbol
_atom_site_label
_atom_site_fract_x
_atom_site_fract_y
_atom_site_fract_z
Si Si1 0.314423 0.496490 0.138154
Si Si2 0.134647 0.246695 0.917537
Si Si3 0.866351 0.249044 0.496619
Si Si4 0.558512 0.727720 0.737546
O O1 0.250000 0.250000 0.107358
O O2 0.366581 0.369876 0.204483
O O3 0.250000 0.750000 0.159853
O O4 0.385967 0.624133 0.079917
O O5 0.250000 0.250000 0.913201
O O6 0.104444 0.456088 0.978289
O O7 0.095131 0.316237 0.841262
O O8 0.103732 0.954804 0.943146
O O9 0.750000 0.250000 0.495597
O O10 0.467209 0.537394 0.749958
#
# Coordination Sequence:
#
# PCOD9430897 Si02
#       4
#     8   8   8   8
#     4  11  22  41  66  91 118 158 204 251 302 360
#     4  10  20  38  63  88 115 155 201 246 295 355
#     4   9  18  35  62  92 114 142 200 258 295 343
#     4  12  26  42  58  89 130 165 200 247 300 360
#
# _framework density 24.163515
#
# number of rings (size 3 to 8) (size 9 to 14) (size 15 to 20)
#    0.000    1.500    0.000    7.500    0.000    3.000 
#    0.000    7.500    0.000    0.000    0.000    0.000 
#    0.000    0.000    0.000    0.000    0.000    0.000 
#
# Total GULP energy -179173.424516 kJ/mol
# GULP energy per Si atom -5599.169516 kJ/mol
# Density = 2.410852 g / cm^3
# Si number density = 24.163515 Si / 1000 Ang^3
#
#
#
# Elastic Constant Matrix: (Units=GPa)
#
#
# Indices 1 2 3 4 5 6 
#
# 1 62.9205 -1.4632 23.1940 0.0000 0.0000 0.0000
# 2 -1.4632 100.4808 6.2209 0.0000 0.0000 0.0000
# 3 23.1940 6.2209 132.1308 0.0000 0.0000 0.0000
# 4 0.0000 0.0000 0.0000 134.0402 0.0000 0.0000
# 5 0.0000 0.0000 0.0000 0.0000 23.6520 0.0000
# 6 0.0000 0.0000 0.0000 0.0000 0.0000 27.6388
#
#
#
# Elastic Compliance Matrix: (Units=1/GPa)
#
#
# Indices 1 2 3 4 5 6 
#
# 1 0.017011 0.000434 -0.003007 0.000000 0.000000 0.000000
# 2 0.000434 0.009992 -0.000547 0.000000 0.000000 0.000000
# 3 -0.003007 -0.000547 0.008122 0.000000 0.000000 0.000000
# 4 0.000000 0.000000 0.000000 0.007460 0.000000 0.000000
# 5 0.000000 0.000000 0.000000 0.000000 0.042280 0.000000
# 6 0.000000 0.000000 0.000000 0.000000 0.000000 0.036181
#
#
# Mechanical properties :
#
#
# Convention : Reuss Voigt Hill
#
# Bulk Modulus (GPa) = 34.61782 39.04839 36.83310
# Shear Modulus (GPa) = 36.51918 54.90489 45.71204
#
# Velocity S-wave (km/s) = 3.89181 4.77196 4.35418
# Velocity P-wave (km/s) = 5.87813 6.82329 6.36827
#
# Compressibility (1/GPa) = 0.02888686
#
# Stress axis : x y z
#
# Youngs Moduli (GPa) = 58.78391 100.07696 123.12600
#
# Poissons Ratio (x) = -0.04342 0.37019
# Poissons Ratio (y) = -0.02550 0.06730
# Poissons Ratio (z) = 0.17674 0.05470
#
# Static dielectric constant tensor:
#      x y z
#    x 2.063400 0.000000 0.000000 
#    y 0.000000 1.868860 0.000000 
#    z 0.000000 0.000000 1.893530 
# 
# From -- ./inp_files/15949.got.cif
#   From: 2010.05.17/outbox.cif.g08.bks.cpg/sg56_8_cif.got.tgz:15949.got - 2010.06.03 13:42:01.
