data_PCOD9430349
_publ_section_title
;
Structure prediction by ZEFSAII (Michael W. Deem and Ramdas Pophale) SiO2 
 PCOD9430349
Probable space group: P C C N
;
_chemical_formula_sum "Si O2"
_cell_formula_units_Z 64
_cell_length_a 21.597923
_cell_length_b 9.509357
_cell_length_c 14.749157
_cell_angle_alpha 90.000000
_cell_angle_beta 90.000000
_cell_angle_gamma 90.000000
_cell_volume 3029.216677
_symmetry_space_group_name_H-M "P C C N"
_symmetry_group_IT_number 56
_symmetry_cell_setting 'orthorhombic'
loop_
_space_group_symop_operation_xyz
x,y,z
1/2-x,1/2-y,z
1/2+x,-y,1/2-z
-x,1/2+y,1/2-z
-x,-y,-z
1/2+x,1/2+y,-z
1/2-x,y,1/2+z
x,1/2-y,1/2+z
loop_
_atom_site_type_symbol
_atom_site_label
_atom_site_fract_x
_atom_site_fract_y
_atom_site_fract_z
Si Si1 0.321908 0.545539 0.286901
Si Si2 0.057450 0.981976 0.167113
Si Si3 0.360294 0.468032 0.002292
Si Si4 0.324676 0.241892 0.864432
Si Si5 0.003572 0.220052 0.709925
Si Si6 0.623778 0.938255 0.798424
Si Si7 0.754232 0.919188 0.368870
Si Si8 0.625471 0.312097 0.156522
O O1 0.378200 0.551400 0.216181
O O2 0.337746 0.422586 0.356906
O O3 0.264689 0.490543 0.227242
O O4 0.320890 0.698266 0.329568
O O5 0.079444 0.016958 0.065859
O O6 0.028992 0.121870 0.211364
O O7 0.013264 0.851883 0.193071
O O8 0.296283 0.471063 0.059339
O O9 0.356630 0.323197 0.946543
O O10 0.362495 0.592113 0.929724
O O11 0.250000 0.250000 0.872935
O O12 0.348954 0.320386 0.772839
O O13 0.940212 0.230491 0.652891
O O14 0.057921 0.121785 0.671402
O O15 0.619372 0.082165 0.742030
O O16 0.673611 0.953366 0.878409
O O17 0.750000 0.750000 0.365393
#
# Coordination Sequence:
#
# PCOD9430349 Si02
#       8
#     8   8   8   8   8   8   8   8
#     4  10  19  38  67  90 126 173 217 272 322 408
#     4  10  21  39  66  89 125 169 224 274 321 388
#     4  10  24  41  64  97 138 174 211 285 351 407
#     4  11  19  37  64  93 125 168 220 271 336 401
#     4  11  20  39  64  95 122 173 231 272 316 407
#     4  11  19  36  66  96 124 174 231 273 324 408
#     4  11  19  39  71  99 124 174 235 278 328 405
#     4  10  24  39  62 101 137 175 216 274 361 395
#
# _framework density 21.127575
#
# number of rings (size 3 to 8) (size 9 to 14) (size 15 to 20)
#    0.000    1.500    5.000    1.125    0.000    1.000 
#    0.000    1.250   24.750    3.000    0.000    0.000 
#    0.000    0.000    0.000    0.000    0.000    0.000 
#
# Total GULP energy -357161.947104 kJ/mol
# GULP energy per Si atom -5580.655423 kJ/mol
# Density = 2.107949 g / cm^3
# Si number density = 21.127575 Si / 1000 Ang^3
#
#
#
# Elastic Constant Matrix: (Units=GPa)
#
#
# Indices 1 2 3 4 5 6 
#
# 1 89.0930 25.3485 16.0678 0.0000 0.0000 0.0000
# 2 25.3485 133.3242 35.3486 0.0000 0.0000 0.0000
# 3 16.0678 35.3486 54.6808 0.0000 0.0000 0.0000
# 4 0.0000 0.0000 0.0000 13.9123 0.0000 0.0000
# 5 0.0000 0.0000 0.0000 0.0000 16.6242 0.0000
# 6 0.0000 0.0000 0.0000 0.0000 0.0000 33.1816
#
#
#
# Elastic Compliance Matrix: (Units=1/GPa)
#
#
# Indices 1 2 3 4 5 6 
#
# 1 0.012144 -0.001645 -0.002505 0.000000 0.000000 0.000000
# 2 -0.001645 0.009275 -0.005512 0.000000 0.000000 0.000000
# 3 -0.002505 -0.005512 0.022588 0.000000 0.000000 0.000000
# 4 0.000000 0.000000 0.000000 0.071879 0.000000 0.000000
# 5 0.000000 0.000000 0.000000 0.000000 0.060153 0.000000
# 6 0.000000 0.000000 0.000000 0.000000 0.000000 0.030137
#
#
# Mechanical properties :
#
#
# Convention : Reuss Voigt Hill
#
# Bulk Modulus (GPa) = 40.51593 47.84754 44.18173
# Shear Modulus (GPa) = 21.39241 26.09915 23.74578
#
# Velocity S-wave (km/s) = 3.18549 3.51851 3.35613
# Velocity P-wave (km/s) = 5.72261 6.26121 5.99795
#
# Compressibility (1/GPa) = 0.02468165
#
# Stress axis : x y z
#
# Youngs Moduli (GPa) = 82.34526 107.81986 44.27199
#
# Poissons Ratio (x) = 0.17733 0.11091
# Poissons Ratio (y) = 0.13543 0.24405
# Poissons Ratio (z) = 0.20630 0.59435
#
# Static dielectric constant tensor:
#      x y z
#    x 1.825330 0.000000 0.000000 
#    y 0.000000 1.772470 0.000000 
#    z 0.000000 0.000000 1.787150 
# 
# From -- ./inp_files/13283.got.cif
#   From: 2010.05.17/outbox.cif.g08.bks.cpg/sg56_7_cif.got.tgz:13283.got - 2010.06.03 13:42:01.
