data_PCOD9430735
_publ_section_title
;
Structure prediction by ZEFSAII (Michael W. Deem and Ramdas Pophale) SiO2 
 PCOD9430735
Probable space group: P C C N
;
_chemical_formula_sum "Si O2"
_cell_formula_units_Z 32
_cell_length_a 11.326276
_cell_length_b 23.977811
_cell_length_c 5.216794
_cell_angle_alpha 90.000000
_cell_angle_beta 90.000000
_cell_angle_gamma 90.000000
_cell_volume 1416.773290
_symmetry_space_group_name_H-M "P C C N"
_symmetry_group_IT_number 56
_symmetry_cell_setting 'orthorhombic'
loop_
_space_group_symop_operation_xyz
x,y,z
1/2-x,1/2-y,z
1/2+x,-y,1/2-z
-x,1/2+y,1/2-z
-x,-y,-z
1/2+x,1/2+y,-z
1/2-x,y,1/2+z
x,1/2-y,1/2+z
loop_
_atom_site_type_symbol
_atom_site_label
_atom_site_fract_x
_atom_site_fract_y
_atom_site_fract_z
Si Si1 0.311252 0.909336 0.190752
Si Si2 0.382424 0.226192 0.634736
Si Si3 0.419557 0.098726 0.632089
Si Si4 0.382531 0.470074 0.611237
O O1 0.221887 0.888666 0.408862
O O2 0.443696 0.897152 0.281327
O O3 0.301130 0.976920 0.171504
O O4 0.250000 0.250000 0.667239
O O5 0.441673 0.259822 0.404616
O O6 0.376222 0.160984 0.580581
O O7 0.411893 0.061833 0.375009
O O8 0.351242 0.071722 0.877044
O O9 0.500000 0.500000 0.500000
#
# Coordination Sequence:
#
# PCOD9430735 Si02
#       4
#     8   8   8   8
#     4  11  21  36  55  90 125 154 204 249 291 382
#     4  10  22  42  61  87 118 149 213 265 305 370
#     4  11  21  39  64  81 122 175 195 255 331 351
#     4  10  20  37  57  87 122 164 207 239 304 384
#
# _framework density 22.586538000000001
#
# number of rings (size 3 to 8) (size 9 to 14) (size 15 to 20)
#    0.000    1.500    0.000    9.000    0.000    0.000 
#   27.000    0.000    0.000    4.500    0.000    0.000 
#    0.000    0.000    0.000    0.000    0.000    0.000 
#
# Total GULP energy -178888.074177 kJ/mol
# GULP energy per Si atom -5590.252318 kJ/mol
# Density = 2.253513 g / cm^3
# Si number density = 22.586538 Si / 1000 Ang^3
#
#
#
# Elastic Constant Matrix: (Units=GPa)
#
#
# Indices 1 2 3 4 5 6 
#
# 1 63.3597 3.5407 18.9306 0.0000 0.0000 0.0000
# 2 3.5407 76.4875 0.8283 0.0000 0.0000 0.0000
# 3 18.9306 0.8283 152.2444 0.0000 0.0000 0.0000
# 4 0.0000 0.0000 0.0000 31.0306 0.0000 0.0000
# 5 0.0000 0.0000 0.0000 0.0000 17.6348 0.0000
# 6 0.0000 0.0000 0.0000 0.0000 0.0000 23.9888
#
#
#
# Elastic Compliance Matrix: (Units=1/GPa)
#
#
# Indices 1 2 3 4 5 6 
#
# 1 0.016434 -0.000739 -0.002039 0.000000 0.000000 0.000000
# 2 -0.000739 0.013108 0.000021 0.000000 0.000000 0.000000
# 3 -0.002039 0.000021 0.006822 0.000000 0.000000 0.000000
# 4 0.000000 0.000000 0.000000 0.032226 0.000000 0.000000
# 5 0.000000 0.000000 0.000000 0.000000 0.056706 0.000000
# 6 0.000000 0.000000 0.000000 0.000000 0.000000 0.041686
#
#
# Mechanical properties :
#
#
# Convention : Reuss Voigt Hill
#
# Bulk Modulus (GPa) = 32.41660 37.63230 35.02445
# Shear Modulus (GPa) = 27.35535 32.45030 29.90283
#
# Velocity S-wave (km/s) = 3.48391 3.79451 3.64252
# Velocity P-wave (km/s) = 5.52873 5.99127 5.76464
#
# Compressibility (1/GPa) = 0.03084839
#
# Stress axis : x y z
#
# Youngs Moduli (GPa) = 60.85131 76.28928 146.58763
#
# Poissons Ratio (x) = 0.05635 0.29895
# Poissons Ratio (y) = 0.04495 -0.00301
# Poissons Ratio (z) = 0.12410 -0.00157
#
# Static dielectric constant tensor:
#      x y z
#    x 1.828090 0.000000 0.000000 
#    y 0.000000 1.819910 0.000000 
#    z 0.000000 0.000000 1.973920 
# 
# From -- ./inp_files/226.got.cif
#   From: 2010.05.17/outbox.cif.g08.bks.cpg/sg56_1_cif.got.tgz:226.got - 2010.06.03 13:42:01.
