data_PCOD9430234
_publ_section_title
;
Structure prediction by ZEFSAII (Michael W. Deem and Ramdas Pophale) SiO2 
 PCOD9430234
Probable space group: P C C N
;
_chemical_formula_sum "Si O2"
_cell_formula_units_Z 64
_cell_length_a 13.257526
_cell_length_b 8.578874
_cell_length_c 25.396252
_cell_angle_alpha 90.000000
_cell_angle_beta 90.000000
_cell_angle_gamma 90.000000
_cell_volume 2888.433708
_symmetry_space_group_name_H-M "P C C N"
_symmetry_group_IT_number 56
_symmetry_cell_setting 'orthorhombic'
loop_
_space_group_symop_operation_xyz
x,y,z
1/2-x,1/2-y,z
1/2+x,-y,1/2-z
-x,1/2+y,1/2-z
-x,-y,-z
1/2+x,1/2+y,-z
1/2-x,y,1/2+z
x,1/2-y,1/2+z
loop_
_atom_site_type_symbol
_atom_site_label
_atom_site_fract_x
_atom_site_fract_y
_atom_site_fract_z
Si Si1 0.558963 0.362825 0.272983
Si Si2 0.087159 0.628871 0.505180
Si Si3 0.139086 0.099395 0.866880
Si Si4 0.541129 0.079654 0.068534
Si Si5 0.355512 0.197558 0.250656
Si Si6 0.267293 0.420293 0.467343
Si Si7 0.554822 0.203253 0.891274
Si Si8 0.369090 0.738038 0.838255
O O1 0.440127 0.330655 0.260375
O O2 0.589789 0.544885 0.273248
O O3 0.588281 0.297424 0.330477
O O4 0.611382 0.273657 0.224078
O O5 0.046631 0.766022 0.466970
O O6 0.193213 0.552786 0.488905
O O7 0.000000 0.500000 0.500000
O O8 0.102838 0.688984 0.564470
O O9 0.173916 0.136897 0.808554
O O10 0.229085 0.091331 0.907320
O O11 0.058234 0.224674 0.886178
O O12 0.091685 0.926871 0.861817
O O13 0.581542 0.128809 0.126486
O O14 0.617934 0.969966 0.036031
O O15 0.447811 0.969894 0.083765
O O16 0.250000 0.250000 0.224602
O O17 0.250000 0.250000 0.492148
O O18 0.250000 0.750000 0.847129
#
# Coordination Sequence:
#
# PCOD9430234 Si02
#       8
#     8   8   8   8   8   8   8   8
#     4  10  24  40  62  98 133 182 223 264 337 409
#     4  12  23  41  60  92 127 161 205 265 327 386
#     4  10  19  36  60  93 127 158 203 269 340 373
#     4  12  22  37  67  97 121 163 215 273 331 384
#     4  10  22  39  65  97 137 174 224 284 331 393
#     4  12  21  37  62  98 121 153 206 270 338 383
#     4  11  23  40  62  89 134 170 209 260 323 408
#     4  11  20  36  63  97 134 169 222 281 330 386
#
# _framework density 22.157336999999998
#
# number of rings (size 3 to 8) (size 9 to 14) (size 15 to 20)
#    0.000    1.000    5.000    1.875    1.750    2.000 
#    0.000    1.250    0.000    6.750    0.000    0.875 
#    0.000    0.000    0.000    0.000    0.000    0.000 
#
# Total GULP energy -357280.394605 kJ/mol
# GULP energy per Si atom -5582.506166 kJ/mol
# Density = 2.210691 g / cm^3
# Si number density = 22.157337 Si / 1000 Ang^3
#
#
#
# Elastic Constant Matrix: (Units=GPa)
#
#
# Indices 1 2 3 4 5 6 
#
# 1 27.7296 18.2027 17.4345 0.0000 0.0000 0.0000
# 2 18.2027 116.5824 47.7368 0.0000 0.0000 0.0000
# 3 17.4345 47.7368 116.6060 0.0000 0.0000 0.0000
# 4 0.0000 0.0000 0.0000 26.3410 0.0000 0.0000
# 5 0.0000 0.0000 0.0000 0.0000 20.6436 0.0000
# 6 0.0000 0.0000 0.0000 0.0000 0.0000 26.4110
#
#
#
# Elastic Compliance Matrix: (Units=1/GPa)
#
#
# Indices 1 2 3 4 5 6 
#
# 1 0.041909 -0.004779 -0.004310 0.000000 0.000000 0.000000
# 2 -0.004779 0.010850 -0.003727 0.000000 0.000000 0.000000
# 3 -0.004310 -0.003727 0.010746 0.000000 0.000000 0.000000
# 4 0.000000 0.000000 0.000000 0.037964 0.000000 0.000000
# 5 0.000000 0.000000 0.000000 0.000000 0.048441 0.000000
# 6 0.000000 0.000000 0.000000 0.000000 0.000000 0.037863
#
#
# Mechanical properties :
#
#
# Convention : Reuss Voigt Hill
#
# Bulk Modulus (GPa) = 26.40360 47.51843 36.96101
# Shear Modulus (GPa) = 22.12103 26.51541 24.31822
#
# Velocity S-wave (km/s) = 3.16311 3.46307 3.31648
# Velocity P-wave (km/s) = 5.02819 6.12233 5.60204
#
# Compressibility (1/GPa) = 0.03787362
#
# Stress axis : x y z
#
# Youngs Moduli (GPa) = 23.86112 92.16605 93.05639
#
# Poissons Ratio (x) = 0.44044 0.40105
# Poissons Ratio (y) = 0.11403 0.34685
# Poissons Ratio (z) = 0.10284 0.34353
#
# Static dielectric constant tensor:
#      x y z
#    x 1.843860 0.000000 0.000000 
#    y 0.000000 1.895180 0.000000 
#    z 0.000000 0.000000 1.834510 
# 
# From -- ./inp_files/21174.got.cif
#   From: 2010.05.17/outbox.cif.g08.bks.cpg/sg56_11_cif.got.tgz:21174.got - 2010.06.03 13:42:01.
