data_PCOD9430481
_publ_section_title
;
Structure prediction by ZEFSAII (Michael W. Deem and Ramdas Pophale) SiO2 
 PCOD9430481
Probable space group: P C C N
;
_chemical_formula_sum "Si O2"
_cell_formula_units_Z 32
_cell_length_a 10.786374
_cell_length_b 22.941015
_cell_length_c 5.120432
_cell_angle_alpha 90.000000
_cell_angle_beta 90.000000
_cell_angle_gamma 90.000000
_cell_volume 1267.052781
_symmetry_space_group_name_H-M "P C C N"
_symmetry_group_IT_number 56
_symmetry_cell_setting 'orthorhombic'
loop_
_space_group_symop_operation_xyz
x,y,z
1/2-x,1/2-y,z
1/2+x,-y,1/2-z
-x,1/2+y,1/2-z
-x,-y,-z
1/2+x,1/2+y,-z
1/2-x,y,1/2+z
x,1/2-y,1/2+z
loop_
_atom_site_type_symbol
_atom_site_label
_atom_site_fract_x
_atom_site_fract_y
_atom_site_fract_z
Si Si1 0.333218 0.175938 0.208758
Si Si2 0.523980 0.406314 0.924632
Si Si3 0.162747 0.478386 0.733651
Si Si4 0.086475 0.718811 0.651888
O O1 0.272550 0.178033 0.927444
O O2 0.414313 0.117633 0.240803
O O3 0.437393 0.221883 0.297964
O O4 0.449369 0.433232 0.170603
O O5 0.602786 0.346633 0.960438
O O6 0.601804 0.457725 0.797253
O O7 0.236981 0.473359 0.000773
O O8 0.128957 0.733004 0.944872
#
# Coordination Sequence:
#
# PCOD9430481 Si02
#       4
#     8   8   8   8
#     4  10  20  33  53  83 118 153 188 230 287 350
#     4   9  24  40  62  91 122 156 197 250 296 351
#     4  11  24  42  65  89 118 158 203 248 298 351
#     4  10  22  36  57  87 123 159 193 238 297 359
#
# _framework density 25.255459999999999
#
# number of rings (size 3 to 8) (size 9 to 14) (size 15 to 20)
#    1.500    0.500    0.000    3.000    0.000   13.000 
#    0.000    0.000    0.000    4.500    0.000    0.000 
#    0.000    0.000    0.000    0.000    0.000    0.000 
#
# Total GULP energy -178722.628541 kJ/mol
# GULP energy per Si atom -5585.082142 kJ/mol
# Density = 2.519798 g / cm^3
# Si number density = 25.255460 Si / 1000 Ang^3
#
#
#
# Elastic Constant Matrix: (Units=GPa)
#
#
# Indices 1 2 3 4 5 6 
#
# 1 77.0769 39.0946 5.9178 0.0000 0.0000 0.0000
# 2 39.0946 108.3793 49.9059 0.0000 0.0000 0.0000
# 3 5.9178 49.9059 116.6569 0.0000 0.0000 0.0000
# 4 0.0000 0.0000 0.0000 19.7432 0.0000 0.0000
# 5 0.0000 0.0000 0.0000 0.0000 -47.5669 0.0000
# 6 0.0000 0.0000 0.0000 0.0000 0.0000 54.1216
#
#
#
# Elastic Compliance Matrix: (Units=1/GPa)
#
#
# Indices 1 2 3 4 5 6 
#
# 1 0.016282 -0.006841 0.002100 0.000000 0.000000 0.000000
# 2 -0.006841 0.014364 -0.005798 0.000000 0.000000 0.000000
# 3 0.002100 -0.005798 0.010946 0.000000 0.000000 0.000000
# 4 0.000000 0.000000 0.000000 0.050650 0.000000 0.000000
# 5 0.000000 0.000000 0.000000 0.000000 -0.021023 0.000000
# 6 0.000000 0.000000 0.000000 0.000000 0.000000 0.018477
#
#
# Mechanical properties :
#
#
# Convention : Reuss Voigt Hill
#
# Bulk Modulus (GPa) = 48.74174 54.66110 51.70142
# Shear Modulus (GPa) = 42.51260 19.07256 30.79258
#
# Velocity S-wave (km/s) = 4.10726 2.75105 3.49556
# Velocity P-wave (km/s) = 6.46793 5.63749 6.06694
#
# Compressibility (1/GPa) = 0.02051630
#
# Stress axis : x y z
#
# Youngs Moduli (GPa) = 61.41579 69.61728 91.35763
#
# Poissons Ratio (x) = 0.47622 -0.19189
# Poissons Ratio (y) = 0.42012 0.52969
# Poissons Ratio (z) = -0.12900 0.40364
#
# Static dielectric constant tensor:
#      x y z
#    x 2.027950 0.000000 0.000000 
#    y 0.000000 2.097860 0.000000 
#    z 0.000000 0.000000 1.917720 
# 
# From -- ./inp_files/283.got.cif
#   From: 2010.05.17/outbox.cif.g08.bks.cpg/sg56_1_cif.got.tgz:283.got - 2010.06.03 13:42:01.
