data_PCOD9430620
_publ_section_title
;
Structure prediction by ZEFSAII (Michael W. Deem and Ramdas Pophale) SiO2 
 PCOD9430620
Probable space group: P C C N
;
_chemical_formula_sum "Si O2"
_cell_formula_units_Z 64
_cell_length_a 18.512457
_cell_length_b 9.730786
_cell_length_c 19.507917
_cell_angle_alpha 90.000000
_cell_angle_beta 90.000000
_cell_angle_gamma 90.000000
_cell_volume 3514.170944
_symmetry_space_group_name_H-M "P C C N"
_symmetry_group_IT_number 56
_symmetry_cell_setting 'orthorhombic'
loop_
_space_group_symop_operation_xyz
x,y,z
1/2-x,1/2-y,z
1/2+x,-y,1/2-z
-x,1/2+y,1/2-z
-x,-y,-z
1/2+x,1/2+y,-z
1/2-x,y,1/2+z
x,1/2-y,1/2+z
loop_
_atom_site_type_symbol
_atom_site_label
_atom_site_fract_x
_atom_site_fract_y
_atom_site_fract_z
Si Si1 0.167972 0.796750 0.759668
Si Si2 0.588812 0.955210 0.800588
Si Si3 0.086956 0.364017 0.043236
Si Si4 0.081105 0.877280 0.458819
Si Si5 0.675739 0.831654 0.544655
Si Si6 0.162822 0.254939 0.802652
Si Si7 0.419429 0.535458 0.300022
Si Si8 0.182136 0.647098 0.419696
O O1 0.250000 0.750000 0.745222
O O2 0.115591 0.665470 0.762453
O O3 0.168179 0.860080 0.837372
O O4 0.135267 0.906471 0.707467
O O5 0.592941 0.889107 0.875949
O O6 0.623718 0.850860 0.747004
O O7 0.504227 0.983448 0.784385
O O8 0.002591 0.357044 0.023622
O O9 0.114567 0.503417 0.005992
O O10 0.125117 0.228145 0.014823
O O11 0.085920 0.932210 0.381061
O O12 0.119438 0.730624 0.457854
O O13 0.750000 0.750000 0.535986
O O14 0.645617 0.783928 0.618662
O O15 0.689440 0.994481 0.550505
O O16 0.250000 0.250000 0.795193
O O17 0.129924 0.403645 0.786852
O O18 0.250000 0.750000 0.426547
#
# Coordination Sequence:
#
# PCOD9430620 Si02
#       8
#     8   8   8   8   8   8   8   8
#     4  10  20  36  59  87 116 155 196 249 299 351
#     4  11  22  38  57  89 123 159 194 246 308 359
#     4  10  21  38  59  83 124 160 194 234 308 367
#     4   9  19  37  58  85 114 162 193 242 294 359
#     4  11  22  37  62  89 114 157 206 249 295 356
#     4  11  22  37  61  90 118 156 204 257 297 354
#     4  10  20  36  61  85 121 153 205 246 294 355
#     4  10  20  35  62  89 114 144 204 258 289 347
#
# _framework density 18.211977000000001
#
# number of rings (size 3 to 8) (size 9 to 14) (size 15 to 20)
#    0.000    1.750    2.500    2.250    7.000    1.000 
#    0.000    3.125    0.000    0.000    0.000    0.000 
#    0.000    0.000    0.000    0.000    0.000    0.000 
#
# Total GULP energy -357124.448958 kJ/mol
# GULP energy per Si atom -5580.069515 kJ/mol
# Density = 1.817053 g / cm^3
# Si number density = 18.211977 Si / 1000 Ang^3
#
#
#
# Elastic Constant Matrix: (Units=GPa)
#
#
# Indices 1 2 3 4 5 6 
#
# 1 95.3093 60.0444 38.6572 0.0000 0.0000 0.0000
# 2 60.0444 146.3939 25.8398 0.0000 0.0000 0.0000
# 3 38.6572 25.8398 39.3200 0.0000 0.0000 0.0000
# 4 0.0000 0.0000 0.0000 7.0098 0.0000 0.0000
# 5 0.0000 0.0000 0.0000 0.0000 35.6507 0.0000
# 6 0.0000 0.0000 0.0000 0.0000 0.0000 29.8520
#
#
#
# Elastic Compliance Matrix: (Units=1/GPa)
#
#
# Indices 1 2 3 4 5 6 
#
# 1 0.020820 -0.005573 -0.016806 0.000000 0.000000 0.000000
# 2 -0.005573 0.009219 -0.000579 0.000000 0.000000 0.000000
# 3 -0.016806 -0.000579 0.042336 0.000000 0.000000 0.000000
# 4 0.000000 0.000000 0.000000 0.142658 0.000000 0.000000
# 5 0.000000 0.000000 0.000000 0.000000 0.028050 0.000000
# 6 0.000000 0.000000 0.000000 0.000000 0.000000 0.033499
#
#
# Mechanical properties :
#
#
# Convention : Reuss Voigt Hill
#
# Bulk Modulus (GPa) = 37.79661 58.90068 48.34865
# Shear Modulus (GPa) = 15.09126 24.93462 20.01294
#
# Velocity S-wave (km/s) = 2.88174 3.70419 3.31855
# Velocity P-wave (km/s) = 5.64547 7.12086 6.42565
#
# Compressibility (1/GPa) = 0.02645740
#
# Stress axis : x y z
#
# Youngs Moduli (GPa) = 48.03155 108.47282 23.62039
#
# Poissons Ratio (x) = 0.60450 0.39697
# Poissons Ratio (y) = 0.26767 0.01369
# Poissons Ratio (z) = 0.80724 0.06286
#
# Static dielectric constant tensor:
#      x y z
#    x 1.649140 0.000000 0.000000 
#    y 0.000000 1.650620 0.000000 
#    z 0.000000 0.000000 1.610600 
# 
# From -- ./inp_files/18392.got.cif
#   From: 2010.05.17/outbox.cif.g08.bks.cpg/sg56_10_cif.got.tgz:18392.got - 2010.06.03 13:42:01.
