data_PCOD9430872
_publ_section_title
;
Structure prediction by ZEFSAII (Michael W. Deem and Ramdas Pophale) SiO2 
 PCOD9430872
Probable space group: P C C N
;
_chemical_formula_sum "Si O2"
_cell_formula_units_Z 64
_cell_length_a 33.674633
_cell_length_b 5.313439
_cell_length_c 14.871862
_cell_angle_alpha 90.000000
_cell_angle_beta 90.000000
_cell_angle_gamma 90.000000
_cell_volume 2660.994134
_symmetry_space_group_name_H-M "P C C N"
_symmetry_group_IT_number 56
_symmetry_cell_setting 'orthorhombic'
loop_
_space_group_symop_operation_xyz
x,y,z
1/2-x,1/2-y,z
1/2+x,-y,1/2-z
-x,1/2+y,1/2-z
-x,-y,-z
1/2+x,1/2+y,-z
1/2-x,y,1/2+z
x,1/2-y,1/2+z
loop_
_atom_site_type_symbol
_atom_site_label
_atom_site_fract_x
_atom_site_fract_y
_atom_site_fract_z
Si Si1 0.727147 0.001911 0.785222
Si Si2 0.589921 0.566517 0.712908
Si Si3 0.259277 0.999481 0.913138
Si Si4 0.571050 0.209487 0.394610
Si Si5 0.505418 0.619454 0.689102
Si Si6 0.128960 0.420611 0.507352
Si Si7 0.348717 0.591961 0.407233
Si Si8 0.637475 0.905505 0.828289
O O1 0.750000 0.250000 0.815358
O O2 0.731764 0.998617 0.675707
O O3 0.750000 0.750000 0.814956
O O4 0.681108 0.009796 0.810918
O O5 0.572812 0.468291 0.807123
O O6 0.550613 0.602470 0.654216
O O7 0.620984 0.368075 0.673888
O O8 0.615719 0.809140 0.738507
O O9 0.250000 0.750000 0.966753
O O10 0.304534 0.986628 0.881524
O O11 0.250000 0.250000 0.965913
O O12 0.527987 0.334661 0.386846
O O13 0.606165 0.412070 0.377815
O O14 0.584923 0.039070 0.478116
O O15 0.495005 0.361447 0.742933
O O16 0.152755 0.653628 0.464974
O O17 0.143231 0.337246 0.606568
O O18 0.133305 0.160410 0.453530
#
# Coordination Sequence:
#
# PCOD9430872 Si02
#       8
#     8   8   8   8   8   8   8   8
#     4  10  23  37  63 100 126 154 214 283 326 376
#     4  10  23  37  72 105 130 172 232 286 329 392
#     4  10  21  39  62  92 127 160 204 278 336 376
#     4  10  22  42  71  97 134 181 223 277 334 404
#     4  10  20  38  62 105 137 165 219 290 339 383
#     4  11  26  44  66  93 137 190 216 264 332 419
#     4  12  25  43  68  96 136 175 227 271 337 406
#     4  11  22  44  73  96 133 180 228 269 344 401
#
# _framework density 24.051162000000001
#
# number of rings (size 3 to 8) (size 9 to 14) (size 15 to 20)
#    0.000    1.500    2.500    2.250    8.750    0.000 
#    0.000    3.750    0.000    0.000    0.000    0.000 
#    0.000    0.000    0.000    0.000    0.000    0.000 
#
# Total GULP energy -357523.997018 kJ/mol
# GULP energy per Si atom -5586.312453 kJ/mol
# Density = 2.399642 g / cm^3
# Si number density = 24.051162 Si / 1000 Ang^3
#
#
#
# Elastic Constant Matrix: (Units=GPa)
#
#
# Indices 1 2 3 4 5 6 
#
# 1 138.9845 42.6182 -9.4701 0.0000 0.0000 0.0000
# 2 42.6182 174.4912 10.1187 0.0000 0.0000 0.0000
# 3 -9.4701 10.1187 27.1361 0.0000 0.0000 0.0000
# 4 0.0000 0.0000 0.0000 18.5191 0.0000 0.0000
# 5 0.0000 0.0000 0.0000 0.0000 3.4197 0.0000
# 6 0.0000 0.0000 0.0000 0.0000 0.0000 34.5978
#
#
#
# Elastic Compliance Matrix: (Units=1/GPa)
#
#
# Indices 1 2 3 4 5 6 
#
# 1 0.008117 -0.002194 0.003651 0.000000 0.000000 0.000000
# 2 -0.002194 0.006451 -0.003171 0.000000 0.000000 0.000000
# 3 0.003651 -0.003171 0.039308 0.000000 0.000000 0.000000
# 4 0.000000 0.000000 0.000000 0.053998 0.000000 0.000000
# 5 0.000000 0.000000 0.000000 0.000000 0.292420 0.000000
# 6 0.000000 0.000000 0.000000 0.000000 0.000000 0.028904
#
#
# Mechanical properties :
#
#
# Convention : Reuss Voigt Hill
#
# Bulk Modulus (GPa) = 19.82314 47.46060 33.64187
# Shear Modulus (GPa) = 11.12492 31.13032 21.12762
#
# Velocity S-wave (km/s) = 2.15304 3.60159 2.96707
# Velocity P-wave (km/s) = 3.80009 6.08862 5.07504
#
# Compressibility (1/GPa) = 0.05044609
#
# Stress axis : x y z
#
# Youngs Moduli (GPa) = 123.20423 155.02101 25.44027
#
# Poissons Ratio (x) = 0.34014 -0.09288
# Poissons Ratio (y) = 0.27033 0.08067
# Poissons Ratio (z) = -0.44978 0.49159
#
# Static dielectric constant tensor:
#      x y z
#    x 1.962230 0.000000 0.000000 
#    y 0.000000 2.019710 0.000000 
#    z 0.000000 0.000000 2.021420 
# 
# From -- ./inp_files/17124.got.cif
#   From: 2010.05.17/outbox.cif.g08.bks.cpg/sg56_9_cif.got.tgz:17124.got - 2010.06.03 13:42:01.
