data_PCOD9430626
_publ_section_title
;
Structure prediction by ZEFSAII (Michael W. Deem and Ramdas Pophale) SiO2 
 PCOD9430626
Probable space group: P C C N
;
_chemical_formula_sum "Si O2"
_cell_formula_units_Z 56
_cell_length_a 8.834199
_cell_length_b 15.327209
_cell_length_c 20.376285
_cell_angle_alpha 90.000000
_cell_angle_beta 90.000000
_cell_angle_gamma 90.000000
_cell_volume 2759.022637
_symmetry_space_group_name_H-M "P C C N"
_symmetry_group_IT_number 56
_symmetry_cell_setting 'orthorhombic'
loop_
_space_group_symop_operation_xyz
x,y,z
1/2-x,1/2-y,z
1/2+x,-y,1/2-z
-x,1/2+y,1/2-z
-x,-y,-z
1/2+x,1/2+y,-z
1/2-x,y,1/2+z
x,1/2-y,1/2+z
loop_
_atom_site_type_symbol
_atom_site_label
_atom_site_fract_x
_atom_site_fract_y
_atom_site_fract_z
Si Si1 0.953525 0.925877 0.449681
Si Si2 0.443951 0.457407 0.688586
Si Si3 0.102739 0.379169 0.588595
Si Si4 0.600542 0.476382 0.819764
Si Si5 0.422155 0.771916 0.657161
Si Si6 0.914954 0.748833 0.784841
Si Si7 0.433131 0.250710 0.982225
O O1 0.021837 0.961998 0.381844
O O2 0.774277 0.907582 0.432868
O O3 0.000270 0.832767 0.479434
O O4 0.000000 0.000000 0.500000
O O5 0.529984 0.498455 0.749478
O O6 0.277973 0.500117 0.685197
O O7 0.437758 0.352348 0.697252
O O8 0.033838 0.464712 0.621902
O O9 0.096498 0.308080 0.649132
O O10 0.025249 0.335869 0.525495
O O11 0.569365 0.375788 0.832877
O O12 0.250000 0.750000 0.642533
O O13 0.469994 0.727834 0.726479
O O14 0.518216 0.748575 0.593073
O O15 0.750000 0.750000 0.752466
O O16 0.250000 0.250000 0.985544
#
# Coordination Sequence:
#
# PCOD9430626 Si02
#       7
#     8   8   8   8   8   8   8
#     4  10  20  35  64  96 123 156 206 269 317 371
#     4  10  21  40  61  94 121 157 213 259 318 374
#     4  10  20  40  69  90 119 168 222 265 306 385
#     4  10  23  38  62  91 125 158 211 267 315 375
#     4  11  27  39  56  92 137 163 200 265 341 381
#     4  11  18  40  70  91 113 166 223 266 299 380
#     4  10  21  43  65  89 119 169 220 255 312 389
#
# _framework density 20.297042999999999
#
# number of rings (size 3 to 8) (size 9 to 14) (size 15 to 20)
#    0.000    1.714    4.286    0.857    6.000    0.571 
#   10.286    2.143    0.000    0.000    0.000    0.000 
#    0.000    0.000    0.000    0.000    0.000    0.000 
#
# Total GULP energy -311973.615366 kJ/mol
# GULP energy per Si atom -5570.957417 kJ/mol
# Density = 2.025085 g / cm^3
# Si number density = 20.297043 Si / 1000 Ang^3
#
#
#
# Elastic Constant Matrix: (Units=GPa)
#
#
# Indices 1 2 3 4 5 6 
#
# 1 17.3212 7.0748 22.2708 0.0000 0.0000 0.0000
# 2 7.0748 40.7050 9.8121 0.0000 0.0000 0.0000
# 3 22.2708 9.8121 112.4856 0.0000 0.0000 0.0000
# 4 0.0000 0.0000 0.0000 40.9101 0.0000 0.0000
# 5 0.0000 0.0000 0.0000 0.0000 29.2388 0.0000
# 6 0.0000 0.0000 0.0000 0.0000 0.0000 17.5867
#
#
#
# Elastic Compliance Matrix: (Units=1/GPa)
#
#
# Indices 1 2 3 4 5 6 
#
# 1 0.081627 -0.010513 -0.015244 0.000000 0.000000 0.000000
# 2 -0.010513 0.026449 -0.000226 0.000000 0.000000 0.000000
# 3 -0.015244 -0.000226 0.011928 0.000000 0.000000 0.000000
# 4 0.000000 0.000000 0.000000 0.024444 0.000000 0.000000
# 5 0.000000 0.000000 0.000000 0.000000 0.034201 0.000000
# 6 0.000000 0.000000 0.000000 0.000000 0.000000 0.056861
#
#
# Mechanical properties :
#
#
# Convention : Reuss Voigt Hill
#
# Bulk Modulus (GPa) = 14.69762 27.64748 21.17255
# Shear Modulus (GPa) = 16.12104 26.30405 21.21255
#
# Velocity S-wave (km/s) = 2.82131 3.60384 3.23632
# Velocity P-wave (km/s) = 4.22730 5.56488 4.94156
#
# Compressibility (1/GPa) = 0.06803820
#
# Stress axis : x y z
#
# Youngs Moduli (GPa) = 12.25089 37.80920 83.83726
#
# Poissons Ratio (x) = 0.39748 1.27802
# Poissons Ratio (y) = 0.12879 0.01892
# Poissons Ratio (z) = 0.18675 0.00853
#
# Static dielectric constant tensor:
#      x y z
#    x 1.710170 0.000000 0.000000 
#    y 0.000000 1.720300 0.000000 
#    z 0.000000 0.000000 1.752910 
# 
# From -- ./inp_files/18220.got.cif
#   From: 2010.05.17/outbox.cif.g08.bks.cpg/sg56_10_cif.got.tgz:18220.got - 2010.06.03 13:42:01.
