data_PCOD9430886
_publ_section_title
;
Structure prediction by ZEFSAII (Michael W. Deem and Ramdas Pophale) SiO2 
 PCOD9430886
Probable space group: P C C N
;
_chemical_formula_sum "Si O2"
_cell_formula_units_Z 32
_cell_length_a 10.370324
_cell_length_b 6.888796
_cell_length_c 18.737139
_cell_angle_alpha 90.000000
_cell_angle_beta 90.000000
_cell_angle_gamma 90.000000
_cell_volume 1338.563344
_symmetry_space_group_name_H-M "P C C N"
_symmetry_group_IT_number 56
_symmetry_cell_setting 'orthorhombic'
loop_
_space_group_symop_operation_xyz
x,y,z
1/2-x,1/2-y,z
1/2+x,-y,1/2-z
-x,1/2+y,1/2-z
-x,-y,-z
1/2+x,1/2+y,-z
1/2-x,y,1/2+z
x,1/2-y,1/2+z
loop_
_atom_site_type_symbol
_atom_site_label
_atom_site_fract_x
_atom_site_fract_y
_atom_site_fract_z
Si Si1 0.442995 0.307744 0.966504
Si Si2 0.871607 0.137259 0.690614
Si Si3 0.610436 0.961664 0.905844
Si Si4 0.750000 0.250000 0.323613
Si Si5 0.250000 0.250000 0.845241
O O1 0.351271 0.347695 0.899640
O O2 0.551183 0.161490 0.937094
O O3 0.500000 0.500000 0.000000
O O4 0.375395 0.181159 0.028222
O O5 0.750000 0.250000 0.653928
O O6 0.871248 0.232731 0.769000
O O7 0.003019 0.131496 0.646726
O O8 0.821604 0.916587 0.697890
O O9 0.733842 0.048850 0.865740
#
# Coordination Sequence:
#
# PCOD9430886 Si02
#       5
#     8   8   8   4   4
#     4  10  22  38  64  91 123 168 214 289 326 408
#     4   9  21  42  62  88 132 180 215 279 333 408
#     4  10  22  42  60  95 131 166 224 273 347 394
#     4  10  24  42  64  96 134 180 214 292 326 416
#     4  10  20  38  62  92 118 172 226 258 348 394
#
# _framework density 23.906229
#
# number of rings (size 3 to 8) (size 9 to 14) (size 15 to 20)
#    0.750    1.500    0.000    1.500    3.500    4.000 
#    9.000    0.000    0.000    0.000    0.000    0.000 
#    0.000    0.000    0.000    0.000    0.000    0.000 
#
# Total GULP energy -178698.933859 kJ/mol
# GULP energy per Si atom -5584.341683 kJ/mol
# Density = 2.385182 g / cm^3
# Si number density = 23.906229 Si / 1000 Ang^3
#
#
#
# Elastic Constant Matrix: (Units=GPa)
#
#
# Indices 1 2 3 4 5 6 
#
# 1 54.3977 9.8685 1.0065 0.0000 0.0000 0.0000
# 2 9.8685 73.4104 16.4750 0.0000 0.0000 0.0000
# 3 1.0065 16.4750 63.8129 0.0000 0.0000 0.0000
# 4 0.0000 0.0000 0.0000 18.0017 0.0000 0.0000
# 5 0.0000 0.0000 0.0000 0.0000 8.6379 0.0000
# 6 0.0000 0.0000 0.0000 0.0000 0.0000 40.7385
#
#
#
# Elastic Compliance Matrix: (Units=1/GPa)
#
#
# Indices 1 2 3 4 5 6 
#
# 1 0.018851 -0.002619 0.000379 0.000000 0.000000 0.000000
# 2 -0.002619 0.014824 -0.003786 0.000000 0.000000 0.000000
# 3 0.000379 -0.003786 0.016642 0.000000 0.000000 0.000000
# 4 0.000000 0.000000 0.000000 0.055550 0.000000 0.000000
# 5 0.000000 0.000000 0.000000 0.000000 0.115768 0.000000
# 6 0.000000 0.000000 0.000000 0.000000 0.000000 0.024547
#
#
# Mechanical properties :
#
#
# Convention : Reuss Voigt Hill
#
# Bulk Modulus (GPa) = 26.13356 27.36901 26.75129
# Shear Modulus (GPa) = 18.45086 24.42703 21.43895
#
# Velocity S-wave (km/s) = 2.78115 3.20001 2.99790
# Velocity P-wave (km/s) = 4.61177 5.01266 4.81639
#
# Compressibility (1/GPa) = 0.03826497
#
# Stress axis : x y z
#
# Youngs Moduli (GPa) = 53.04684 67.45925 60.08808
#
# Poissons Ratio (x) = 0.17669 -0.02277
# Poissons Ratio (y) = 0.13894 0.22748
# Poissons Ratio (z) = -0.02010 0.25539
#
# Static dielectric constant tensor:
#      x y z
#    x 1.988450 0.000000 0.000000 
#    y 0.000000 1.859910 0.000000 
#    z 0.000000 0.000000 1.906080 
# 
# From -- ./inp_files/18532.got.cif
#   From: 2010.05.17/outbox.cif.g08.bks.cpg/sg56_10_cif.got.tgz:18532.got - 2010.06.03 13:42:01.
