data_PCOD9430478
_publ_section_title
;
Structure prediction by ZEFSAII (Michael W. Deem and Ramdas Pophale) SiO2 
 PCOD9430478
Probable space group: P C C N
;
_chemical_formula_sum "Si O2"
_cell_formula_units_Z 32
_cell_length_a 13.676390
_cell_length_b 7.439246
_cell_length_c 10.874112
_cell_angle_alpha 90.000000
_cell_angle_beta 90.000000
_cell_angle_gamma 90.000000
_cell_volume 1106.354225
_symmetry_space_group_name_H-M "P C C N"
_symmetry_group_IT_number 56
_symmetry_cell_setting 'orthorhombic'
loop_
_space_group_symop_operation_xyz
x,y,z
1/2-x,1/2-y,z
1/2+x,-y,1/2-z
-x,1/2+y,1/2-z
-x,-y,-z
1/2+x,1/2+y,-z
1/2-x,y,1/2+z
x,1/2-y,1/2+z
loop_
_atom_site_type_symbol
_atom_site_label
_atom_site_fract_x
_atom_site_fract_y
_atom_site_fract_z
Si Si1 0.703501 0.950768 0.952882
Si Si2 0.796300 0.550871 0.689186
Si Si3 0.469492 0.914668 0.667401
Si Si4 0.002699 0.707237 0.929286
O O1 0.750000 0.750000 0.950403
O O2 0.723266 0.036051 0.820846
O O3 0.586947 0.922432 0.967705
O O4 0.751934 0.040451 0.069934
O O5 0.750000 0.750000 0.694630
O O6 0.911866 0.577293 0.674102
O O7 0.441263 0.861061 0.806324
O O8 0.446618 0.785269 0.552441
O O9 0.445532 0.116613 0.627667
#
# Coordination Sequence:
#
# PCOD9430478 Si02
#       4
#     8   8   8   8
#     4   9  15  26  46  74 100 121 166 220 255 294
#     4   9  15  26  46  74 100 121 166 220 255 294
#     4  10  20  33  51  78 110 140 175 221 273 315
#     4  10  20  33  51  78 110 140 175 221 273 315
#
# _framework density 28.923831
#
# number of rings (size 3 to 8) (size 9 to 14) (size 15 to 20)
#    0.000    2.500    5.000    0.000    0.000    1.000 
#    0.000    0.000    0.000    0.000    0.000   42.000 
#    0.000    0.000    0.000    0.000    0.000    0.000 
#
# Total GULP energy -179387.032291 kJ/mol
# GULP energy per Si atom -5605.844759 kJ/mol
# Density = 2.885800 g / cm^3
# Si number density = 28.923831 Si / 1000 Ang^3
#
#
#
# Elastic Constant Matrix: (Units=GPa)
#
#
# Indices 1 2 3 4 5 6 
#
# 1 128.9382 2.8759 39.1873 0.0000 0.0000 0.0000
# 2 2.8759 83.7587 18.5584 0.0000 0.0000 0.0000
# 3 39.1873 18.5584 367.2686 0.0000 0.0000 0.0000
# 4 0.0000 0.0000 0.0000 23.0318 0.0000 0.0000
# 5 0.0000 0.0000 0.0000 0.0000 40.8545 0.0000
# 6 0.0000 0.0000 0.0000 0.0000 0.0000 29.6425
#
#
#
# Elastic Compliance Matrix: (Units=1/GPa)
#
#
# Indices 1 2 3 4 5 6 
#
# 1 0.008016 -0.000087 -0.000851 0.000000 0.000000 0.000000
# 2 -0.000087 0.012075 -0.000601 0.000000 0.000000 0.000000
# 3 -0.000851 -0.000601 0.002844 0.000000 0.000000 0.000000
# 4 0.000000 0.000000 0.000000 0.043418 0.000000 0.000000
# 5 0.000000 0.000000 0.000000 0.000000 0.024477 0.000000
# 6 0.000000 0.000000 0.000000 0.000000 0.000000 0.033735
#
#
# Mechanical properties :
#
#
# Convention : Reuss Voigt Hill
#
# Bulk Modulus (GPa) = 50.35693 77.91207 64.13450
# Shear Modulus (GPa) = 37.24045 53.32867 45.28456
#
# Velocity S-wave (km/s) = 3.59212 4.29856 3.96112
# Velocity P-wave (km/s) = 5.88663 7.18556 6.56828
#
# Compressibility (1/GPa) = 0.01985824
#
# Stress axis : x y z
#
# Youngs Moduli (GPa) = 124.74723 82.81445 351.62198
#
# Poissons Ratio (x) = 0.00718 0.29921
# Poissons Ratio (y) = 0.01082 0.21130
# Poissons Ratio (z) = 0.10615 0.04976
#
# Static dielectric constant tensor:
#      x y z
#    x 2.203510 0.000000 0.000000 
#    y 0.000000 2.258110 0.000000 
#    z 0.000000 0.000000 2.283470 
# 
# From -- ./inp_files/5980.got.cif
#   From: 2010.05.17/outbox.cif.g08.bks.cpg/sg56_3_cif.got.tgz:5980.got - 2010.06.03 13:42:01.
