data_PCOD9430331
_publ_section_title
;
Structure prediction by ZEFSAII (Michael W. Deem and Ramdas Pophale) SiO2 
 PCOD9430331
Probable space group: P C C N
;
_chemical_formula_sum "Si O2"
_cell_formula_units_Z 44
_cell_length_a 10.463958
_cell_length_b 14.852220
_cell_length_c 12.139202
_cell_angle_alpha 90.000000
_cell_angle_beta 90.000000
_cell_angle_gamma 90.000000
_cell_volume 1886.589877
_symmetry_space_group_name_H-M "P C C N"
_symmetry_group_IT_number 56
_symmetry_cell_setting 'orthorhombic'
loop_
_space_group_symop_operation_xyz
x,y,z
1/2-x,1/2-y,z
1/2+x,-y,1/2-z
-x,1/2+y,1/2-z
-x,-y,-z
1/2+x,1/2+y,-z
1/2-x,y,1/2+z
x,1/2-y,1/2+z
loop_
_atom_site_type_symbol
_atom_site_label
_atom_site_fract_x
_atom_site_fract_y
_atom_site_fract_z
Si Si1 0.986093 0.000391 0.762050
Si Si2 0.544959 0.330054 0.352238
Si Si3 0.250000 0.250000 0.060081
Si Si4 0.711490 0.430197 0.922882
Si Si5 0.893066 0.589339 0.940771
Si Si6 0.042905 0.144688 0.915799
O O1 0.849453 0.024527 0.812975
O O2 0.009409 0.042283 0.642079
O O3 0.078117 0.058033 0.842963
O O4 0.011651 0.894872 0.749674
O O5 0.688898 0.353289 0.389030
O O6 0.458092 0.365710 0.453843
O O7 0.513608 0.225506 0.340476
O O8 0.154436 0.188711 0.986297
O O9 0.172056 0.326476 0.122277
O O10 0.792732 0.511516 0.973371
O O11 0.584433 0.390712 0.980626
#
# Coordination Sequence:
#
# PCOD9430331 Si02
#       6
#     8   8   4   8   8   8
#     4   9  20  34  56  88 113 157 203 241 308 369
#     4  10  19  38  63  84 121 165 199 263 311 367
#     4  10  22  38  60  88 124 158 204 262 304 372
#     4   9  19  36  59  82 120 150 207 247 304 377
#     4  10  21  37  61  87 118 161 207 254 312 365
#     4   9  21  36  58  86 120 159 205 246 319 356
#
# _framework density 23.322503000000001
#
# number of rings (size 3 to 8) (size 9 to 14) (size 15 to 20)
#    1.091    1.455    0.000    2.727    0.000    8.727 
#    0.000    0.000   32.000    0.000    0.000    0.000 
#    0.000    0.000    0.000    0.000    0.000    0.000 
#
# Total GULP energy -245220.933948 kJ/mol
# GULP energy per Si atom -5573.203044 kJ/mol
# Density = 2.326942 g / cm^3
# Si number density = 23.322503 Si / 1000 Ang^3
#
#
#
# Elastic Constant Matrix: (Units=GPa)
#
#
# Indices 1 2 3 4 5 6 
#
# 1 103.6761 21.0843 30.9679 0.0000 0.0000 0.0000
# 2 21.0843 110.5193 25.5480 0.0000 0.0000 0.0000
# 3 30.9679 25.5480 39.8460 0.0000 0.0000 0.0000
# 4 0.0000 0.0000 0.0000 28.7753 0.0000 0.0000
# 5 0.0000 0.0000 0.0000 0.0000 26.2804 0.0000
# 6 0.0000 0.0000 0.0000 0.0000 0.0000 49.4202
#
#
#
# Elastic Compliance Matrix: (Units=1/GPa)
#
#
# Indices 1 2 3 4 5 6 
#
# 1 0.012564 -0.000164 -0.009660 0.000000 0.000000 0.000000
# 2 -0.000164 0.010625 -0.006685 0.000000 0.000000 0.000000
# 3 -0.009660 -0.006685 0.036890 0.000000 0.000000 0.000000
# 4 0.000000 0.000000 0.000000 0.034752 0.000000 0.000000
# 5 0.000000 0.000000 0.000000 0.000000 0.038051 0.000000
# 6 0.000000 0.000000 0.000000 0.000000 0.000000 0.020235
#
#
# Mechanical properties :
#
#
# Convention : Reuss Voigt Hill
#
# Bulk Modulus (GPa) = 36.95192 45.47130 41.21161
# Shear Modulus (GPa) = 25.62081 32.65794 29.13937
#
# Velocity S-wave (km/s) = 3.31803 3.74609 3.53853
# Velocity P-wave (km/s) = 5.52787 6.18465 5.86546
#
# Compressibility (1/GPa) = 0.02706219
#
# Stress axis : x y z
#
# Youngs Moduli (GPa) = 79.59216 94.11981 27.10764
#
# Poissons Ratio (x) = 0.01543 0.26185
# Poissons Ratio (y) = 0.01305 0.18121
# Poissons Ratio (z) = 0.76882 0.62917
#
# Static dielectric constant tensor:
#      x y z
#    x 1.944130 0.000000 0.000000 
#    y 0.000000 1.903780 0.000000 
#    z 0.000000 0.000000 1.897080 
# 
# From -- ./inp_files/11532.got.cif
#   From: 2010.05.17/outbox.cif.g08.bks.cpg/sg56_6_cif.got.tgz:11532.got - 2010.06.03 13:42:01.
