data_PCOD9430309
_publ_section_title
;
Structure prediction by ZEFSAII (Michael W. Deem and Ramdas Pophale) SiO2 
 PCOD9430309
Probable space group: P C C N
;
_chemical_formula_sum "Si O2"
_cell_formula_units_Z 40
_cell_length_a 10.379947
_cell_length_b 9.527727
_cell_length_c 20.280825
_cell_angle_alpha 90.000000
_cell_angle_beta 90.000000
_cell_angle_gamma 90.000000
_cell_volume 2005.718860
_symmetry_space_group_name_H-M "P C C N"
_symmetry_group_IT_number 56
_symmetry_cell_setting 'orthorhombic'
loop_
_space_group_symop_operation_xyz
x,y,z
1/2-x,1/2-y,z
1/2+x,-y,1/2-z
-x,1/2+y,1/2-z
-x,-y,-z
1/2+x,1/2+y,-z
1/2-x,y,1/2+z
x,1/2-y,1/2+z
loop_
_atom_site_type_symbol
_atom_site_label
_atom_site_fract_x
_atom_site_fract_y
_atom_site_fract_z
Si Si1 0.365158 0.049455 0.876238
Si Si2 0.116861 0.899103 0.918176
Si Si3 0.750000 0.750000 0.944827
Si Si4 0.963248 0.814657 0.039368
Si Si5 0.250000 0.250000 0.271892
Si Si6 0.953648 0.816527 0.338744
O O1 0.430200 0.169478 0.922985
O O2 0.279252 0.124033 0.821224
O O3 0.266486 0.941335 0.911649
O O4 0.473005 0.962309 0.838464
O O5 0.056368 0.801819 0.861156
O O6 0.038382 0.047337 0.915791
O O7 0.080543 0.823565 0.987748
O O8 0.650903 0.828433 0.897744
O O9 0.838862 0.840846 0.992330
O O10 0.372935 0.221698 0.225655
#
# Coordination Sequence:
#
# PCOD9430309 Si02
#       6
#     8   8   4   8   4   8
#     4  12  22  42  66  95 124 177 209 260 326 377
#     4  10  20  38  64  97 126 160 211 257 316 389
#     4   9  17  40  58  90 125 161 194 246 324 367
#     4  10  19  37  67  91 134 159 196 261 326 379
#     4  11  25  44  66  84 133 171 218 270 314 361
#     4  10  25  39  63  91 124 168 216 262 302 376
#
# _framework density 19.942974
#
# number of rings (size 3 to 8) (size 9 to 14) (size 15 to 20)
#    0.000    1.600    4.000    0.600    2.800    3.200 
#    3.600    0.000    0.000    2.400    0.000    0.000 
#    0.000    0.000    0.000    0.000    0.000    0.000 
#
# Total GULP energy -222960.308421 kJ/mol
# GULP energy per Si atom -5574.007711 kJ/mol
# Density = 1.989758 g / cm^3
# Si number density = 19.942974 Si / 1000 Ang^3
#
#
#
# Elastic Constant Matrix: (Units=GPa)
#
#
# Indices 1 2 3 4 5 6 
#
# 1 65.1184 51.6514 28.4734 0.0000 0.0000 0.0000
# 2 51.6514 93.5980 43.3134 0.0000 0.0000 0.0000
# 3 28.4734 43.3134 77.2629 0.0000 0.0000 0.0000
# 4 0.0000 0.0000 0.0000 -13.0156 0.0000 0.0000
# 5 0.0000 0.0000 0.0000 0.0000 8.1017 0.0000
# 6 0.0000 0.0000 0.0000 0.0000 0.0000 40.4239
#
#
#
# Elastic Compliance Matrix: (Units=1/GPa)
#
#
# Indices 1 2 3 4 5 6 
#
# 1 0.027586 -0.014204 -0.002204 0.000000 0.000000 0.000000
# 2 -0.014204 0.021740 -0.006953 0.000000 0.000000 0.000000
# 3 -0.002204 -0.006953 0.017653 0.000000 0.000000 0.000000
# 4 0.000000 0.000000 0.000000 -0.076831 0.000000 0.000000
# 5 0.000000 0.000000 0.000000 0.000000 0.123431 0.000000
# 6 0.000000 0.000000 0.000000 0.000000 0.000000 0.024738
#
#
# Mechanical properties :
#
#
# Convention : Reuss Voigt Hill
#
# Bulk Modulus (GPa) = 49.36229 53.65065 51.50647
# Shear Modulus (GPa) = 26.07028 14.60475 20.33752
#
# Velocity S-wave (km/s) = 3.61950 2.70909 3.19687
# Velocity P-wave (km/s) = 6.50178 6.06185 6.28566
#
# Compressibility (1/GPa) = 0.02025838
#
# Stress axis : x y z
#
# Youngs Moduli (GPa) = 36.24974 45.99907 56.64856
#
# Poissons Ratio (x) = 0.65335 0.12484
# Poissons Ratio (y) = 0.51487 0.39386
# Poissons Ratio (z) = 0.07989 0.31982
#
# Static dielectric constant tensor:
#      x y z
#    x 1.790600 0.000000 0.000000 
#    y 0.000000 1.738680 0.000000 
#    z 0.000000 0.000000 1.712130 
# 
# From -- ./inp_files/18014.got.cif
#   From: 2010.05.17/outbox.cif.g08.bks.cpg/sg56_10_cif.got.tgz:18014.got - 2010.06.03 13:42:01.
