data_PCOD9430459
_publ_section_title
;
Structure prediction by ZEFSAII (Michael W. Deem and Ramdas Pophale) SiO2 
 PCOD9430459
Probable space group: P C C N
;
_chemical_formula_sum "Si O2"
_cell_formula_units_Z 48
_cell_length_a 14.891666
_cell_length_b 5.668420
_cell_length_c 22.101624
_cell_angle_alpha 90.000000
_cell_angle_beta 90.000000
_cell_angle_gamma 90.000000
_cell_volume 1865.647090
_symmetry_space_group_name_H-M "P C C N"
_symmetry_group_IT_number 56
_symmetry_cell_setting 'orthorhombic'
loop_
_space_group_symop_operation_xyz
x,y,z
1/2-x,1/2-y,z
1/2+x,-y,1/2-z
-x,1/2+y,1/2-z
-x,-y,-z
1/2+x,1/2+y,-z
1/2-x,y,1/2+z
x,1/2-y,1/2+z
loop_
_atom_site_type_symbol
_atom_site_label
_atom_site_fract_x
_atom_site_fract_y
_atom_site_fract_z
Si Si1 0.108715 0.770861 0.519468
Si Si2 0.371744 0.152042 0.384417
Si Si3 0.608383 0.992453 0.786750
Si Si4 0.097531 0.265651 0.522266
Si Si5 0.458129 0.510797 0.179964
Si Si6 0.250000 0.750000 0.414389
Si Si7 0.250000 0.250000 0.789022
O O1 0.128635 0.516489 0.548654
O O2 0.171812 0.807958 0.461810
O O3 0.008880 0.747480 0.491564
O O4 0.118826 0.017853 0.553936
O O5 0.361927 0.225508 0.453784
O O6 0.471954 0.067847 0.373876
O O7 0.336420 0.324257 0.331617
O O8 0.301578 0.941144 0.375297
O O9 0.586633 0.747661 0.823097
O O10 0.527213 0.998597 0.737075
O O11 0.703131 0.941680 0.754215
O O12 0.602474 0.254182 0.814939
#
# Coordination Sequence:
#
# PCOD9430459 Si02
#       7
#     8   8   8   8   8   4   4
#     4   9  18  32  50  72 109 146 175 211 269 337
#     4  10  20  32  54  85 112 138 182 240 283 318
#     4   9  19  34  50  71 102 142 177 211 272 340
#     4   9  18  33  50  74 106 145 176 209 270 340
#     4   9  19  34  50  71 105 144 176 211 271 346
#     4  10  20  32  54  88 116 140 184 244 288 318
#     4  10  20  32  54  82 108 134 180 242 278 312
#
# _framework density 25.728338999999998
#
# number of rings (size 3 to 8) (size 9 to 14) (size 15 to 20)
#    0.000    2.667    0.000    1.000    0.000   12.000 
#    0.000    0.000    0.000    2.000    0.000    0.000 
#    0.000    0.000    0.000    0.000    0.000    0.000 
#
# Total GULP energy -267553.439140 kJ/mol
# GULP energy per Si atom -5574.029982 kJ/mol
# Density = 2.566978 g / cm^3
# Si number density = 25.728339 Si / 1000 Ang^3
#
#
#
# Elastic Constant Matrix: (Units=GPa)
#
#
# Indices 1 2 3 4 5 6 
#
# 1 74.4821 33.0648 21.7070 0.0000 0.0000 0.0000
# 2 33.0648 235.7218 54.1861 0.0000 0.0000 0.0000
# 3 21.7070 54.1861 52.3514 0.0000 0.0000 0.0000
# 4 0.0000 0.0000 0.0000 26.7461 0.0000 0.0000
# 5 0.0000 0.0000 0.0000 0.0000 47.9824 0.0000
# 6 0.0000 0.0000 0.0000 0.0000 0.0000 38.3502
#
#
#
# Elastic Compliance Matrix: (Units=1/GPa)
#
#
# Indices 1 2 3 4 5 6 
#
# 1 0.015419 -0.000910 -0.005452 0.000000 0.000000 0.000000
# 2 -0.000910 0.005620 -0.005440 0.000000 0.000000 0.000000
# 3 -0.005452 -0.005440 0.026993 0.000000 0.000000 0.000000
# 4 0.000000 0.000000 0.000000 0.037389 0.000000 0.000000
# 5 0.000000 0.000000 0.000000 0.000000 0.020841 0.000000
# 6 0.000000 0.000000 0.000000 0.000000 0.000000 0.026075
#
#
# Mechanical properties :
#
#
# Convention : Reuss Voigt Hill
#
# Bulk Modulus (GPa) = 40.93488 64.49681 52.71584
# Shear Modulus (GPa) = 30.47226 39.52224 34.99725
#
# Velocity S-wave (km/s) = 3.44522 3.92361 3.69217
# Velocity P-wave (km/s) = 5.63658 6.75641 6.22174
#
# Compressibility (1/GPa) = 0.02442905
#
# Stress axis : x y z
#
# Youngs Moduli (GPa) = 64.85634 177.92164 37.04641
#
# Poissons Ratio (x) = 0.16183 0.20197
# Poissons Ratio (y) = 0.05899 0.20154
# Poissons Ratio (z) = 0.35358 0.96794
#
# Static dielectric constant tensor:
#      x y z
#    x 1.970490 0.000000 0.000000 
#    y 0.000000 2.228740 0.000000 
#    z 0.000000 0.000000 2.150590 
# 
# From -- ./inp_files/23589.got.cif
#   From: 2010.05.17/outbox.cif.g08.bks.cpg/sg56_12_cif.got.tgz:23589.got - 2010.06.03 13:42:01.
