data_PCOD9430450
_publ_section_title
;
Structure prediction by ZEFSAII (Michael W. Deem and Ramdas Pophale) SiO2 
 PCOD9430450
Probable space group: P C C N
;
_chemical_formula_sum "Si O2"
_cell_formula_units_Z 64
_cell_length_a 8.716390
_cell_length_b 25.089028
_cell_length_c 15.047652
_cell_angle_alpha 90.000000
_cell_angle_beta 90.000000
_cell_angle_gamma 90.000000
_cell_volume 3290.707105
_symmetry_space_group_name_H-M "P C C N"
_symmetry_group_IT_number 56
_symmetry_cell_setting 'orthorhombic'
loop_
_space_group_symop_operation_xyz
x,y,z
1/2-x,1/2-y,z
1/2+x,-y,1/2-z
-x,1/2+y,1/2-z
-x,-y,-z
1/2+x,1/2+y,-z
1/2-x,y,1/2+z
x,1/2-y,1/2+z
loop_
_atom_site_type_symbol
_atom_site_label
_atom_site_fract_x
_atom_site_fract_y
_atom_site_fract_z
Si Si1 0.252009 0.405576 0.165749
Si Si2 0.078576 0.620706 0.763643
Si Si3 0.744221 0.187004 0.873337
Si Si4 0.188495 0.877964 0.454710
Si Si5 0.148244 0.514210 0.441453
Si Si6 0.201820 0.977495 0.736308
Si Si7 0.021971 0.385310 0.808957
Si Si8 0.354875 0.417409 0.482023
O O1 0.243239 0.469351 0.183354
O O2 0.399852 0.383299 0.214114
O O3 0.099129 0.383441 0.212729
O O4 0.246517 0.394049 0.061620
O O5 0.120178 0.657413 0.680389
O O6 0.162668 0.640708 0.853820
O O7 0.152205 0.561801 0.748594
O O8 0.750000 0.250000 0.867110
O O9 0.591792 0.162660 0.827743
O O10 0.731831 0.166713 0.974544
O O11 0.313209 0.924376 0.457136
O O12 0.028628 0.906805 0.484662
O O13 0.139084 0.507661 0.334489
O O14 0.291762 0.476999 0.469648
O O15 0.000000 0.500000 0.500000
O O16 0.076529 0.940292 0.687871
O O17 0.148559 0.390060 0.885975
#
# Coordination Sequence:
#
# PCOD9430450 Si02
#       8
#     8   8   8   8   8   8   8   8
#     4  11  20  32  55  79 115 155 184 226 282 340
#     4   9  21  36  53  82 111 144 190 231 280 341
#     4  10  22  40  62  80 104 146 195 242 292 328
#     4   9  21  36  55  79 111 144 189 230 276 350
#     4  11  21  31  49  82 116 152 184 226 280 334
#     4  10  20  32  49  79 119 153 189 220 279 340
#     4  10  21  37  53  82 118 151 192 237 273 345
#     4  10  21  33  52  77 114 159 188 214 280 339
#
# _framework density 19.448706000000001
#
# number of rings (size 3 to 8) (size 9 to 14) (size 15 to 20)
#    0.000    2.000    1.250    1.875   10.500    0.500 
#    0.000    0.625    0.000    0.000    0.000    8.750 
#    0.000    0.000    0.000    0.000    0.000    0.000 
#
# Total GULP energy -357392.740147 kJ/mol
# GULP energy per Si atom -5584.261565 kJ/mol
# Density = 1.940444 g / cm^3
# Si number density = 19.448706 Si / 1000 Ang^3
#
#
#
# Elastic Constant Matrix: (Units=GPa)
#
#
# Indices 1 2 3 4 5 6 
#
# 1 20.6884 13.5838 3.2157 0.0000 0.0000 0.0000
# 2 13.5838 75.9140 21.5891 0.0000 0.0000 0.0000
# 3 3.2157 21.5891 76.3384 0.0000 0.0000 0.0000
# 4 0.0000 0.0000 0.0000 17.1524 0.0000 0.0000
# 5 0.0000 0.0000 0.0000 0.0000 24.9471 0.0000
# 6 0.0000 0.0000 0.0000 0.0000 0.0000 7.6246
#
#
#
# Elastic Compliance Matrix: (Units=1/GPa)
#
#
# Indices 1 2 3 4 5 6 
#
# 1 0.054789 -0.009947 0.000505 0.000000 0.000000 0.000000
# 2 -0.009947 0.016131 -0.004143 0.000000 0.000000 0.000000
# 3 0.000505 -0.004143 0.014250 0.000000 0.000000 0.000000
# 4 0.000000 0.000000 0.000000 0.058301 0.000000 0.000000
# 5 0.000000 0.000000 0.000000 0.000000 0.040085 0.000000
# 6 0.000000 0.000000 0.000000 0.000000 0.000000 0.131155
#
#
# Mechanical properties :
#
#
# Convention : Reuss Voigt Hill
#
# Bulk Modulus (GPa) = 17.24143 27.74645 22.49394
# Shear Modulus (GPa) = 13.84218 18.91495 16.37857
#
# Velocity S-wave (km/s) = 2.67072 3.12197 2.90512
# Velocity P-wave (km/s) = 4.28890 5.22427 4.77952
#
# Compressibility (1/GPa) = 0.05799983
#
# Stress axis : x y z
#
# Youngs Moduli (GPa) = 18.25175 61.99253 70.17571
#
# Poissons Ratio (x) = 0.61667 -0.03546
# Poissons Ratio (y) = 0.18156 0.29073
# Poissons Ratio (z) = -0.00922 0.25683
#
# Static dielectric constant tensor:
#      x y z
#    x 1.714610 0.000000 0.000000 
#    y 0.000000 1.623990 0.000000 
#    z 0.000000 0.000000 1.735300 
# 
# From -- ./inp_files/11068.got.cif
#   From: 2010.05.17/outbox.cif.g08.bks.cpg/sg56_6_cif.got.tgz:11068.got - 2010.06.03 13:42:01.
