data_PCOD9430354
_publ_section_title
;
Structure prediction by ZEFSAII (Michael W. Deem and Ramdas Pophale) SiO2 
 PCOD9430354
Probable space group: P C C N
;
_chemical_formula_sum "Si O2"
_cell_formula_units_Z 32
_cell_length_a 5.375791
_cell_length_b 7.259432
_cell_length_c 36.317701
_cell_angle_alpha 90.000000
_cell_angle_beta 90.000000
_cell_angle_gamma 90.000000
_cell_volume 1417.305153
_symmetry_space_group_name_H-M "P C C N"
_symmetry_group_IT_number 56
_symmetry_cell_setting 'orthorhombic'
loop_
_space_group_symop_operation_xyz
x,y,z
1/2-x,1/2-y,z
1/2+x,-y,1/2-z
-x,1/2+y,1/2-z
-x,-y,-z
1/2+x,1/2+y,-z
1/2-x,y,1/2+z
x,1/2-y,1/2+z
loop_
_atom_site_type_symbol
_atom_site_label
_atom_site_fract_x
_atom_site_fract_y
_atom_site_fract_z
Si Si1 0.491462 0.528976 0.117927
Si Si2 0.497799 0.628084 0.035602
Si Si3 0.511040 0.551123 0.648928
Si Si4 0.337180 0.542051 0.271171
O O1 0.475273 0.519696 0.074126
O O2 0.753149 0.453562 0.131077
O O3 0.499958 0.745581 0.130556
O O4 0.248919 0.458697 0.138769
O O5 0.750000 0.750000 0.037136
O O6 0.250000 0.750000 0.033539
O O7 0.500000 0.500000 0.000000
O O8 0.565147 0.557938 0.692114
O O9 0.250000 0.750000 0.279750
O O10 0.583456 0.546978 0.245204
#
# Coordination Sequence:
#
# PCOD9430354 Si02
#       4
#     8   8   8   8
#     4  10  19  38  70  93 124 186 230 264 342 407
#     4  12  23  43  68 106 141 182 232 282 344 419
#     4  10  20  38  67  92 126 175 234 270 321 417
#     4  12  28  45  68 105 141 178 228 288 353 411
#
# _framework density 22.578061000000002
#
# number of rings (size 3 to 8) (size 9 to 14) (size 15 to 20)
#    0.000    1.000    5.000    3.000   10.500    0.000 
#    0.000    3.750    0.000    0.000    0.000    0.000 
#    0.000    0.000    0.000    0.000    0.000    0.000 
#
# Total GULP energy -178871.306714 kJ/mol
# GULP energy per Si atom -5589.728335 kJ/mol
# Density = 2.252667 g / cm^3
# Si number density = 22.578061 Si / 1000 Ang^3
#
#
#
# Elastic Constant Matrix: (Units=GPa)
#
#
# Indices 1 2 3 4 5 6 
#
# 1 245.3901 7.9110 54.6283 0.0000 0.0000 0.0000
# 2 7.9110 51.9172 11.6459 0.0000 0.0000 0.0000
# 3 54.6283 11.6459 177.3586 0.0000 0.0000 0.0000
# 4 0.0000 0.0000 0.0000 20.1618 0.0000 0.0000
# 5 0.0000 0.0000 0.0000 0.0000 -934.1099 0.0000
# 6 0.0000 0.0000 0.0000 0.0000 0.0000 4.6203
#
#
#
# Elastic Compliance Matrix: (Units=1/GPa)
#
#
# Indices 1 2 3 4 5 6 
#
# 1 0.004382 -0.000370 -0.001325 0.000000 0.000000 0.000000
# 2 -0.000370 0.019581 -0.001172 0.000000 0.000000 0.000000
# 3 -0.001325 -0.001172 0.006123 0.000000 0.000000 0.000000
# 4 0.000000 0.000000 0.000000 0.049599 0.000000 0.000000
# 5 0.000000 0.000000 0.000000 0.000000 -0.001071 0.000000
# 6 0.000000 0.000000 0.000000 0.000000 0.000000 0.216437
#
#
# Mechanical properties :
#
#
# Convention : Reuss Voigt Hill
#
# Bulk Modulus (GPa) = 41.06545 69.22625 55.14585
# Shear Modulus (GPa) = 16.18627 -155.16685 -69.49029
#
# Velocity S-wave (km/s) = 2.68041 -8.29902 -5.55379
# Velocity P-wave (km/s) = 5.27325 7.81693 4.08027
#
# Compressibility (1/GPa) = 0.02435137
#
# Stress axis : x y z
#
# Youngs Moduli (GPa) = 228.19845 51.07066 163.30600
#
# Poissons Ratio (x) = 0.01892 0.21645
# Poissons Ratio (y) = 0.08453 0.19133
# Poissons Ratio (z) = 0.30246 0.05984
#
# Static dielectric constant tensor:
#      x y z
#    x 1.873730 0.000000 0.000000 
#    y 0.000000 1.830210 0.000000 
#    z 0.000000 0.000000 1.848420 
# 
# From -- ./inp_files/22642.got.cif
#   From: 2010.05.17/outbox.cif.g08.bks.cpg/sg56_12_cif.got.tgz:22642.got - 2010.06.03 13:42:01.
