data_PCOD9430267
_publ_section_title
;
Structure prediction by ZEFSAII (Michael W. Deem and Ramdas Pophale) SiO2 
 PCOD9430267
Probable space group: P C C N
;
_chemical_formula_sum "Si O2"
_cell_formula_units_Z 52
_cell_length_a 9.387561
_cell_length_b 18.682922
_cell_length_c 14.083893
_cell_angle_alpha 90.000000
_cell_angle_beta 90.000000
_cell_angle_gamma 90.000000
_cell_volume 2470.132727
_symmetry_space_group_name_H-M "P C C N"
_symmetry_group_IT_number 56
_symmetry_cell_setting 'orthorhombic'
loop_
_space_group_symop_operation_xyz
x,y,z
1/2-x,1/2-y,z
1/2+x,-y,1/2-z
-x,1/2+y,1/2-z
-x,-y,-z
1/2+x,1/2+y,-z
1/2-x,y,1/2+z
x,1/2-y,1/2+z
loop_
_atom_site_type_symbol
_atom_site_label
_atom_site_fract_x
_atom_site_fract_y
_atom_site_fract_z
Si Si1 0.250000 0.750000 0.917227
Si Si2 0.536347 0.140221 0.017657
Si Si3 0.082553 0.940542 0.286429
Si Si4 0.080007 0.619800 0.404287
Si Si5 0.218898 0.403801 0.530089
Si Si6 0.320129 0.466696 0.828844
Si Si7 0.239564 0.930622 0.092928
O O1 0.377883 0.785606 0.977728
O O2 0.333905 0.687149 0.862756
O O3 0.587947 0.098958 0.113163
O O4 0.366852 0.138582 0.024192
O O5 0.601677 0.097255 0.928636
O O6 0.156870 0.017317 0.304047
O O7 0.173245 0.913870 0.195195
O O8 0.919620 0.938701 0.254012
O O9 0.112642 0.544867 0.352865
O O10 0.143922 0.605967 0.510406
O O11 0.911729 0.631305 0.413825
O O12 0.170824 0.418896 0.421917
O O13 0.238261 0.484247 0.572389
#
# Coordination Sequence:
#
# PCOD9430267 Si02
#       7
#     4   8   8   8   8   8   8
#     4  10  22  44  60  82 120 178 222 234 320 372
#     4  11  24  38  62  93 125 169 207 257 303 382
#     4  12  21  35  61  98 128 161 201 253 324 375
#     4  10  19  40  60  83 124 169 200 253 305 371
#     4  11  19  38  59  92 126 153 204 264 311 360
#     4  11  22  34  61  97 130 155 197 261 324 365
#     4  10  19  37  59  92 128 156 198 250 320 363
#
# _framework density 21.051500000000001
#
# number of rings (size 3 to 8) (size 9 to 14) (size 15 to 20)
#    0.000    1.231    7.692    2.308    2.154    0.615 
#    0.000    3.077    0.000    0.000    0.000    0.000 
#    0.000    0.000    0.000    0.000    0.000    0.000 
#
# Total GULP energy -290025.534024 kJ/mol
# GULP energy per Si atom -5577.414116 kJ/mol
# Density = 2.100359 g / cm^3
# Si number density = 21.051500 Si / 1000 Ang^3
#
#
#
# Elastic Constant Matrix: (Units=GPa)
#
#
# Indices 1 2 3 4 5 6 
#
# 1 141.9414 28.3487 -5.8899 0.0000 0.0000 0.0000
# 2 28.3487 47.7238 -6.6511 0.0000 0.0000 0.0000
# 3 -5.8899 -6.6511 63.6852 0.0000 0.0000 0.0000
# 4 0.0000 0.0000 0.0000 3.5130 0.0000 0.0000
# 5 0.0000 0.0000 0.0000 0.0000 40.5650 0.0000
# 6 0.0000 0.0000 0.0000 0.0000 0.0000 18.3483
#
#
#
# Elastic Compliance Matrix: (Units=1/GPa)
#
#
# Indices 1 2 3 4 5 6 
#
# 1 0.007997 -0.004716 0.000247 0.000000 0.000000 0.000000
# 2 -0.004716 0.024045 0.002075 0.000000 0.000000 0.000000
# 3 0.000247 0.002075 0.015942 0.000000 0.000000 0.000000
# 4 0.000000 0.000000 0.000000 0.284660 0.000000 0.000000
# 5 0.000000 0.000000 0.000000 0.000000 0.024652 0.000000
# 6 0.000000 0.000000 0.000000 0.000000 0.000000 0.054501
#
#
# Mechanical properties :
#
#
# Convention : Reuss Voigt Hill
#
# Bulk Modulus (GPa) = 23.15054 31.66288 27.40671
# Shear Modulus (GPa) = 11.60138 28.32143 19.96141
#
# Velocity S-wave (km/s) = 2.35009 3.67187 3.08266
# Velocity P-wave (km/s) = 4.28776 5.74893 5.07124
#
# Compressibility (1/GPa) = 0.04319554
#
# Stress axis : x y z
#
# Youngs Moduli (GPa) = 125.04183 41.58947 62.72825
#
# Poissons Ratio (x) = 0.19614 -0.01550
# Poissons Ratio (y) = 0.58971 -0.13016
# Poissons Ratio (z) = -0.03090 -0.08630
#
# Static dielectric constant tensor:
#      x y z
#    x 1.844960 0.000000 0.000000 
#    y 0.000000 1.793030 0.000000 
#    z 0.000000 0.000000 1.770890 
# 
# From -- ./inp_files/10837.got.cif
#   From: 2010.05.17/outbox.cif.g08.bks.cpg/sg56_6_cif.got.tgz:10837.got - 2010.06.03 13:42:01.
