data_PCOD9430776
_publ_section_title
;
Structure prediction by ZEFSAII (Michael W. Deem and Ramdas Pophale) SiO2 
 PCOD9430776
Probable space group: P C C N
;
_chemical_formula_sum "Si O2"
_cell_formula_units_Z 52
_cell_length_a 7.700071
_cell_length_b 16.763954
_cell_length_c 18.855272
_cell_angle_alpha 90.000000
_cell_angle_beta 90.000000
_cell_angle_gamma 90.000000
_cell_volume 2433.907068
_symmetry_space_group_name_H-M "P C C N"
_symmetry_group_IT_number 56
_symmetry_cell_setting 'orthorhombic'
loop_
_space_group_symop_operation_xyz
x,y,z
1/2-x,1/2-y,z
1/2+x,-y,1/2-z
-x,1/2+y,1/2-z
-x,-y,-z
1/2+x,1/2+y,-z
1/2-x,y,1/2+z
x,1/2-y,1/2+z
loop_
_atom_site_type_symbol
_atom_site_label
_atom_site_fract_x
_atom_site_fract_y
_atom_site_fract_z
Si Si1 0.250000 0.250000 0.054323
Si Si2 0.250000 0.250000 0.791607
Si Si3 0.759680 0.619310 0.825595
Si Si4 0.367309 0.600440 0.285091
Si Si5 0.250000 0.750000 0.865039
Si Si6 0.434818 0.655281 0.987877
Si Si7 0.073123 0.523694 0.380862
Si Si8 0.954330 0.148960 0.863755
O O1 0.194575 0.321386 0.108591
O O2 0.381584 0.299429 0.005149
O O3 0.201438 0.323347 0.739073
O O4 0.084294 0.217424 0.835489
O O5 0.604438 0.561292 0.848430
O O6 0.934356 0.574853 0.800248
O O7 0.353311 0.689092 0.317295
O O8 0.228909 0.548813 0.328075
O O9 0.342581 0.615774 0.201960
O O10 0.367481 0.701088 0.918536
O O11 0.413837 0.566154 0.957668
O O12 0.349619 0.666822 0.064402
O O13 0.065879 0.428957 0.386282
#
# Coordination Sequence:
#
# PCOD9430776 Si02
#       8
#     4   4   8   8   4   8   8   8
#     4   9  15  32  64  86 110 166 202 244 306 360
#     4   9  21  36  58  88 130 148 208 258 316 356
#     4   9  18  38  63  90 115 163 210 254 294 378
#     4  10  22  37  63  90 121 157 210 255 305 365
#     4  10  20  40  60  88 118 162 212 250 304 386
#     4  10  20  37  62  87 127 162 205 256 314 373
#     4  10  23  39  65  86 124 170 208 245 317 378
#     4  11  23  38  61  96 126 160 205 266 317 364
#
# _framework density 21.364826999999998
#
# number of rings (size 3 to 8) (size 9 to 14) (size 15 to 20)
#    0.000    2.154    1.538    0.923   10.769    0.615 
#    0.000    0.000    3.385    3.692    0.000    0.000 
#    0.000    0.000    0.000    0.000    0.000    0.000 
#
# Total GULP energy -289761.307422 kJ/mol
# GULP energy per Si atom -5572.332835 kJ/mol
# Density = 2.131620 g / cm^3
# Si number density = 21.364827 Si / 1000 Ang^3
#
#
#
# Elastic Constant Matrix: (Units=GPa)
#
#
# Indices 1 2 3 4 5 6 
#
# 1 55.7599 13.0181 5.8334 0.0000 0.0000 0.0000
# 2 13.0181 70.1243 4.9604 0.0000 0.0000 0.0000
# 3 5.8334 4.9604 124.1759 0.0000 0.0000 0.0000
# 4 0.0000 0.0000 0.0000 15.7856 0.0000 0.0000
# 5 0.0000 0.0000 0.0000 0.0000 28.5737 0.0000
# 6 0.0000 0.0000 0.0000 0.0000 0.0000 20.8093
#
#
#
# Elastic Compliance Matrix: (Units=1/GPa)
#
#
# Indices 1 2 3 4 5 6 
#
# 1 0.018815 -0.003440 -0.000746 0.000000 0.000000 0.000000
# 2 -0.003440 0.014930 -0.000435 0.000000 0.000000 0.000000
# 3 -0.000746 -0.000435 0.008106 0.000000 0.000000 0.000000
# 4 0.000000 0.000000 0.000000 0.063349 0.000000 0.000000
# 5 0.000000 0.000000 0.000000 0.000000 0.034997 0.000000
# 6 0.000000 0.000000 0.000000 0.000000 0.000000 0.048055
#
#
# Mechanical properties :
#
#
# Convention : Reuss Voigt Hill
#
# Bulk Modulus (GPa) = 30.66747 33.07599 31.87173
# Shear Modulus (GPa) = 23.99647 28.11694 26.05670
#
# Velocity S-wave (km/s) = 3.35502 3.63166 3.49608
# Velocity P-wave (km/s) = 5.42158 5.75329 5.58990
#
# Compressibility (1/GPa) = 0.03260784
#
# Stress axis : x y z
#
# Youngs Moduli (GPa) = 53.14827 66.98021 123.37256
#
# Poissons Ratio (x) = 0.23042 0.09209
# Poissons Ratio (y) = 0.18284 0.05364
# Poissons Ratio (z) = 0.03967 0.02912
#
# Static dielectric constant tensor:
#      x y z
#    x 1.735770 0.000000 0.000000 
#    y 0.000000 1.759660 0.000000 
#    z 0.000000 0.000000 1.825210 
# 
# From -- ./inp_files/15084.got.cif
#   From: 2010.05.17/outbox.cif.g08.bks.cpg/sg56_8_cif.got.tgz:15084.got - 2010.06.03 13:42:01.
