data_PCOD9430566
_publ_section_title
;
Structure prediction by ZEFSAII (Michael W. Deem and Ramdas Pophale) SiO2 
 PCOD9430566
Probable space group: P C C N
;
_chemical_formula_sum "Si O2"
_cell_formula_units_Z 48
_cell_length_a 29.093728
_cell_length_b 5.124380
_cell_length_c 14.174845
_cell_angle_alpha 90.000000
_cell_angle_beta 90.000000
_cell_angle_gamma 90.000000
_cell_volume 2113.289623
_symmetry_space_group_name_H-M "P C C N"
_symmetry_group_IT_number 56
_symmetry_cell_setting 'orthorhombic'
loop_
_space_group_symop_operation_xyz
x,y,z
1/2-x,1/2-y,z
1/2+x,-y,1/2-z
-x,1/2+y,1/2-z
-x,-y,-z
1/2+x,1/2+y,-z
1/2-x,y,1/2+z
x,1/2-y,1/2+z
loop_
_atom_site_type_symbol
_atom_site_label
_atom_site_fract_x
_atom_site_fract_y
_atom_site_fract_z
Si Si1 0.061485 0.449684 0.220027
Si Si2 0.150795 0.784735 0.656191
Si Si3 0.937747 0.671971 0.095577
Si Si4 0.991554 0.332862 0.614568
Si Si5 0.750000 0.750000 0.475829
Si Si6 0.750000 0.250000 0.338242
Si Si7 0.348085 0.284659 0.021750
O O1 0.104347 0.642806 0.209987
O O2 0.073400 0.223383 0.294394
O O3 0.022678 0.616009 0.274813
O O4 0.040558 0.311458 0.126973
O O5 0.199743 0.755961 0.710807
O O6 0.146023 0.535477 0.588534
O O7 0.154610 0.035902 0.589284
O O8 0.955872 0.383101 0.077519
O O9 0.891672 0.751457 0.043633
O O10 0.978657 0.882227 0.073306
O O11 0.750705 0.500562 0.406681
O O12 0.798298 0.720432 0.529791
#
# Coordination Sequence:
#
# PCOD9430566 Si02
#       7
#     8   8   8   8   4   4   8
#     4  10  21  36  59  76 105 152 188 214 275 334
#     4  10  21  33  60  79 108 139 186 222 274 325
#     4  10  20  35  56  75 112 139 183 222 274 317
#     4  10  20  35  57  72 106 151 184 215 268 345
#     4   8  16  32  56  70 106 144 172 200 274 350
#     4   8  16  34  50  80 102 136 170 222 266 320
#     4  10  20  36  54  84 107 141 180 229 273 325
#
# _framework density 22.713404000000001
#
# number of rings (size 3 to 8) (size 9 to 14) (size 15 to 20)
#    1.000    1.333    1.667    1.000    2.333    0.000 
#    0.000    5.000    3.667    0.000    0.000    0.000 
#    0.000    0.000    0.000    0.000    0.000    0.000 
#
# Total GULP energy -267495.530587 kJ/mol
# GULP energy per Si atom -5572.823554 kJ/mol
# Density = 2.266171 g / cm^3
# Si number density = 22.713404 Si / 1000 Ang^3
#
#
#
# Elastic Constant Matrix: (Units=GPa)
#
#
# Indices 1 2 3 4 5 6 
#
# 1 125.2898 6.7108 7.1163 0.0000 0.0000 0.0000
# 2 6.7108 154.6124 -4.6667 0.0000 0.0000 0.0000
# 3 7.1163 -4.6667 3.3618 0.0000 0.0000 0.0000
# 4 0.0000 0.0000 0.0000 25.0261 0.0000 0.0000
# 5 0.0000 0.0000 0.0000 0.0000 8.2283 0.0000
# 6 0.0000 0.0000 0.0000 0.0000 0.0000 35.7413
#
#
#
# Elastic Compliance Matrix: (Units=1/GPa)
#
#
# Indices 1 2 3 4 5 6 
#
# 1 0.009228 -0.001033 -0.020968 0.000000 0.000000 0.000000
# 2 -0.001033 0.006866 0.011719 0.000000 0.000000 0.000000
# 3 -0.020968 0.011719 0.358111 0.000000 0.000000 0.000000
# 4 0.000000 0.000000 0.000000 0.039958 0.000000 0.000000
# 5 0.000000 0.000000 0.000000 0.000000 0.121532 0.000000
# 6 0.000000 0.000000 0.000000 0.000000 0.000000 0.027979
#
#
# Mechanical properties :
#
#
# Convention : Reuss Voigt Hill
#
# Bulk Modulus (GPa) = 2.82773 33.50942 18.16857
# Shear Modulus (GPa) = 7.12129 32.07273 19.59701
#
# Velocity S-wave (km/s) = 1.77259 3.76182 2.94052
# Velocity P-wave (km/s) = 2.33176 5.80117 4.42101
#
# Compressibility (1/GPa) = 0.35364073
#
# Stress axis : x y z
#
# Youngs Moduli (GPa) = 108.36817 145.63768 2.79243
#
# Poissons Ratio (x) = 0.15050 0.05855
# Poissons Ratio (y) = 0.11199 -0.03272
# Poissons Ratio (z) = 2.27226 -1.70672
#
# Static dielectric constant tensor:
#      x y z
#    x 2.008270 0.000000 0.000000 
#    y 0.000000 1.812120 0.000000 
#    z 0.000000 0.000000 1.920530 
# 
# From -- ./inp_files/17073.got.cif
#   From: 2010.05.17/outbox.cif.g08.bks.cpg/sg56_9_cif.got.tgz:17073.got - 2010.06.03 13:42:01.
