data_PCOD9430042
_publ_section_title
;
Structure prediction by ZEFSAII (Michael W. Deem and Ramdas Pophale) SiO2 
 PCOD9430042
Probable space group: P C C N
;
_chemical_formula_sum "Si O2"
_cell_formula_units_Z 48
_cell_length_a 12.570279
_cell_length_b 11.192709
_cell_length_c 15.834424
_cell_angle_alpha 90.000000
_cell_angle_beta 90.000000
_cell_angle_gamma 90.000000
_cell_volume 2227.831804
_symmetry_space_group_name_H-M "P C C N"
_symmetry_group_IT_number 56
_symmetry_cell_setting 'orthorhombic'
loop_
_space_group_symop_operation_xyz
x,y,z
1/2-x,1/2-y,z
1/2+x,-y,1/2-z
-x,1/2+y,1/2-z
-x,-y,-z
1/2+x,1/2+y,-z
1/2-x,y,1/2+z
x,1/2-y,1/2+z
loop_
_atom_site_type_symbol
_atom_site_label
_atom_site_fract_x
_atom_site_fract_y
_atom_site_fract_z
Si Si1 0.721263 0.619135 0.844766
Si Si2 0.867462 0.809639 0.128866
Si Si3 0.200798 0.944531 0.800986
Si Si4 0.604278 0.649108 0.480696
Si Si5 0.076312 0.551569 0.875385
Si Si6 0.486736 0.357198 0.240492
O O1 0.750000 0.750000 0.808138
O O2 0.763991 0.513794 0.784970
O O3 0.785720 0.622605 0.931824
O O4 0.594132 0.620229 0.836985
O O5 0.750000 0.750000 0.133950
O O6 0.852504 0.949159 0.144079
O O7 0.943403 0.749598 0.199759
O O8 0.904250 0.768270 0.036234
O O9 0.308572 0.903812 0.846352
O O10 0.109609 0.849075 0.782912
O O11 0.593456 0.544304 0.549630
O O12 0.510673 0.641370 0.411847
O O13 0.026539 0.475440 0.798868
#
# Coordination Sequence:
#
# PCOD9430042 Si02
#       6
#     8   8   8   8   8   8
#     4  11  19  32  57  86 108 141 205 240 281 345
#     4  11  18  36  57  90 120 151 202 252 288 342
#     4  11  19  35  57  86 121 151 192 252 292 343
#     4  10  19  32  57  86 111 150 190 245 296 345
#     4   9  19  33  53  88 114 148 190 243 302 348
#     4  10  19  33  55  88 117 148 193 250 289 348
#
# _framework density 21.545614
#
# number of rings (size 3 to 8) (size 9 to 14) (size 15 to 20)
#    0.000    1.667    8.333    0.500    0.000    0.000 
#    0.000    0.833    0.000    9.000    8.667    0.000 
#    0.000    0.000    0.000    0.000    0.000    0.000 
#
# Total GULP energy -267978.498476 kJ/mol
# GULP energy per Si atom -5582.885385 kJ/mol
# Density = 2.149657 g / cm^3
# Si number density = 21.545614 Si / 1000 Ang^3
#
#
#
# Elastic Constant Matrix: (Units=GPa)
#
#
# Indices 1 2 3 4 5 6 
#
# 1 149.5243 33.4751 42.6618 0.0000 0.0000 0.0000
# 2 33.4751 55.7625 25.7598 0.0000 0.0000 0.0000
# 3 42.6618 25.7598 88.2196 0.0000 0.0000 0.0000
# 4 0.0000 0.0000 0.0000 10.1531 0.0000 0.0000
# 5 0.0000 0.0000 0.0000 0.0000 45.6018 0.0000
# 6 0.0000 0.0000 0.0000 0.0000 0.0000 31.6816
#
#
#
# Elastic Compliance Matrix: (Units=1/GPa)
#
#
# Indices 1 2 3 4 5 6 
#
# 1 0.008352 -0.003639 -0.002976 0.000000 0.000000 0.000000
# 2 -0.003639 0.022315 -0.004756 0.000000 0.000000 0.000000
# 3 -0.002976 -0.004756 0.014163 0.000000 0.000000 0.000000
# 4 0.000000 0.000000 0.000000 0.098492 0.000000 0.000000
# 5 0.000000 0.000000 0.000000 0.000000 0.021929 0.000000
# 6 0.000000 0.000000 0.000000 0.000000 0.000000 0.031564
#
#
# Mechanical properties :
#
#
# Convention : Reuss Voigt Hill
#
# Bulk Modulus (GPa) = 45.27455 55.25556 50.26506
# Shear Modulus (GPa) = 22.03418 30.26127 26.14772
#
# Velocity S-wave (km/s) = 3.20140 3.75176 3.48745
# Velocity P-wave (km/s) = 5.89273 6.66852 6.29259
#
# Compressibility (1/GPa) = 0.02208746
#
# Stress axis : x y z
#
# Youngs Moduli (GPa) = 119.73622 44.81343 70.60444
#
# Poissons Ratio (x) = 0.16306 0.21014
# Poissons Ratio (y) = 0.43569 0.33581
# Poissons Ratio (z) = 0.35637 0.21314
#
# Static dielectric constant tensor:
#      x y z
#    x 1.818720 0.000000 0.000000 
#    y 0.000000 1.799070 0.000000 
#    z 0.000000 0.000000 1.818080 
# 
# From -- ./inp_files/11626.got.cif
#   From: 2010.05.17/outbox.cif.g08.bks.cpg/sg56_6_cif.got.tgz:11626.got - 2010.06.03 13:42:01.
