data_PCOD9430510
_publ_section_title
;
Structure prediction by ZEFSAII (Michael W. Deem and Ramdas Pophale) SiO2 
 PCOD9430510
Probable space group: P C C N
;
_chemical_formula_sum "Si O2"
_cell_formula_units_Z 48
_cell_length_a 18.921833
_cell_length_b 20.648347
_cell_length_c 4.920700
_cell_angle_alpha 90.000000
_cell_angle_beta 90.000000
_cell_angle_gamma 90.000000
_cell_volume 1922.539996
_symmetry_space_group_name_H-M "P C C N"
_symmetry_group_IT_number 56
_symmetry_cell_setting 'orthorhombic'
loop_
_space_group_symop_operation_xyz
x,y,z
1/2-x,1/2-y,z
1/2+x,-y,1/2-z
-x,1/2+y,1/2-z
-x,-y,-z
1/2+x,1/2+y,-z
1/2-x,y,1/2+z
x,1/2-y,1/2+z
loop_
_atom_site_type_symbol
_atom_site_label
_atom_site_fract_x
_atom_site_fract_y
_atom_site_fract_z
Si Si1 0.435911 0.592614 0.966710
Si Si2 0.291456 0.572162 0.258462
Si Si3 0.839903 0.792514 0.594279
Si Si4 0.339879 0.427903 0.210507
Si Si5 0.429133 0.049928 0.216264
Si Si6 0.989897 0.208882 0.386916
O O1 0.363618 0.598654 0.134554
O O2 0.499805 0.583563 0.181655
O O3 0.431659 0.525097 0.800086
O O4 0.451827 0.649112 0.754519
O O5 0.273250 0.591316 0.562987
O O6 0.296326 0.493704 0.240360
O O7 0.823812 0.766103 0.298250
O O8 0.808364 0.861351 0.679406
O O9 0.925239 0.801706 0.622972
O O10 0.408118 0.442669 0.404235
O O11 0.367025 0.420404 0.903841
O O12 0.973220 0.229510 0.692838
#
# Coordination Sequence:
#
# PCOD9430510 Si02
#       6
#     8   8   8   8   8   8
#     4  10  22  40  61  89 126 153 203 252 306 378
#     4  11  25  42  61  85 114 160 205 254 302 344
#     4  10  20  34  55  87 126 160 188 232 300 375
#     4  11  21  39  60  89 126 153 198 250 305 373
#     4  10  22  34  62  95 117 155 189 250 326 361
#     4  10  22  35  56  88 126 159 187 236 302 375
#
# _framework density 24.966971000000001
#
# number of rings (size 3 to 8) (size 9 to 14) (size 15 to 20)
#    0.000    1.667    1.667    3.000    4.667   11.333 
#    0.000    0.000    0.000    6.000    0.000    0.000 
#    0.000    0.000    0.000    0.000    0.000    0.000 
#
# Total GULP energy -269294.993378 kJ/mol
# GULP energy per Si atom -5610.312362 kJ/mol
# Density = 2.491014 g / cm^3
# Si number density = 24.966971 Si / 1000 Ang^3
#
#
#
# Elastic Constant Matrix: (Units=GPa)
#
#
# Indices 1 2 3 4 5 6 
#
# 1 76.0568 13.8156 6.0530 0.0000 0.0000 0.0000
# 2 13.8156 78.3347 2.7042 0.0000 0.0000 0.0000
# 3 6.0530 2.7042 82.9602 0.0000 0.0000 0.0000
# 4 0.0000 0.0000 0.0000 24.2273 0.0000 0.0000
# 5 0.0000 0.0000 0.0000 0.0000 27.0021 0.0000
# 6 0.0000 0.0000 0.0000 0.0000 0.0000 23.3151
#
#
#
# Elastic Compliance Matrix: (Units=1/GPa)
#
#
# Indices 1 2 3 4 5 6 
#
# 1 0.013653 -0.002376 -0.000919 0.000000 0.000000 0.000000
# 2 -0.002376 0.013194 -0.000257 0.000000 0.000000 0.000000
# 3 -0.000919 -0.000257 0.012129 0.000000 0.000000 0.000000
# 4 0.000000 0.000000 0.000000 0.041276 0.000000 0.000000
# 5 0.000000 0.000000 0.000000 0.000000 0.037034 0.000000
# 6 0.000000 0.000000 0.000000 0.000000 0.000000 0.042891
#
#
# Mechanical properties :
#
#
# Convention : Reuss Voigt Hill
#
# Bulk Modulus (GPa) = 31.37481 31.38861 31.38171
# Shear Modulus (GPa) = 28.10506 29.22749 28.66628
#
# Velocity S-wave (km/s) = 3.35877 3.42518 3.39214
# Velocity P-wave (km/s) = 5.25696 5.31431 5.28571
#
# Compressibility (1/GPa) = 0.03187270
#
# Stress axis : x y z
#
# Youngs Moduli (GPa) = 73.24501 75.79390 82.44455
#
# Poissons Ratio (x) = 0.18010 0.07574
# Poissons Ratio (y) = 0.17404 0.02116
# Poissons Ratio (z) = 0.06729 0.01946
#
# Static dielectric constant tensor:
#      x y z
#    x 1.982630 0.000000 0.000000 
#    y 0.000000 1.978870 0.000000 
#    z 0.000000 0.000000 1.923020 
# 
# From -- ./inp_files/867.got.cif
#   From: 2010.05.17/outbox.cif.g08.bks.cpg/sg56_1_cif.got.tgz:867.got - 2010.06.03 13:42:01.
