data_PCOD9430007
_publ_section_title
;
Structure prediction by ZEFSAII (Michael W. Deem and Ramdas Pophale) SiO2 
 PCOD9430007
Probable space group: P C C N
;
_chemical_formula_sum "Si O2"
_cell_formula_units_Z 60
_cell_length_a 16.053046
_cell_length_b 24.329166
_cell_length_c 9.455010
_cell_angle_alpha 90.000000
_cell_angle_beta 90.000000
_cell_angle_gamma 90.000000
_cell_volume 3692.722430
_symmetry_space_group_name_H-M "P C C N"
_symmetry_group_IT_number 56
_symmetry_cell_setting 'orthorhombic'
loop_
_space_group_symop_operation_xyz
x,y,z
1/2-x,1/2-y,z
1/2+x,-y,1/2-z
-x,1/2+y,1/2-z
-x,-y,-z
1/2+x,1/2+y,-z
1/2-x,y,1/2+z
x,1/2-y,1/2+z
loop_
_atom_site_type_symbol
_atom_site_label
_atom_site_fract_x
_atom_site_fract_y
_atom_site_fract_z
Si Si1 0.750000 0.250000 0.673744
Si Si2 0.557187 0.530432 0.672276
Si Si3 0.714148 0.174407 0.920978
Si Si4 0.653353 0.966713 0.888176
Si Si5 0.623552 0.105485 0.462682
Si Si6 0.610782 0.083541 0.791297
Si Si7 0.839053 0.522802 0.429065
Si Si8 0.539803 0.568758 0.171474
O O1 0.698950 0.212888 0.784631
O O2 0.795789 0.208791 0.564898
O O3 0.592836 0.520034 0.518553
O O4 0.485522 0.575688 0.671187
O O5 0.632525 0.544003 0.776122
O O6 0.513150 0.478670 0.748679
O O7 0.808796 0.150584 0.915914
O O8 0.655297 0.122286 0.903870
O O9 0.744963 0.957198 0.949130
O O10 0.611013 0.920049 0.789668
O O11 0.654341 0.023335 0.796846
O O12 0.616732 0.106527 0.632654
O O13 0.532400 0.108636 0.388581
O O14 0.657880 0.043774 0.431244
O O15 0.908480 0.544304 0.539191
#
# Coordination Sequence:
#
# PCOD9430007 Si02
#       8
#     4   8   8   8   8   8   8   8
#     4  10  24  38  48  80  96 118 160 228 274 280
#     4  10  20  30  43  69  99 128 169 221 239 271
#     4  11  22  36  57  70  99 129 167 210 256 313
#     4  11  21  28  45  72 100 132 174 210 240 278
#     4  11  19  32  51  68  89 136 177 199 242 301
#     4  11  19  33  48  70  92 133 177 201 242 300
#     4  11  18  31  47  66 101 135 172 205 241 281
#     4  10  19  32  44  64  99 129 165 218 236 273
#
# _framework density 16.248175
#
# number of rings (size 3 to 8) (size 9 to 14) (size 15 to 20)
#    0.000    1.333    6.667    3.200    0.000    3.200 
#    0.000    0.000    0.000    0.000    0.000    0.000 
#    0.000    0.000    0.000   84.000    0.000    0.000 
#
# Total GULP energy -334062.737233 kJ/mol
# GULP energy per Si atom -5567.712287 kJ/mol
# Density = 1.621119 g / cm^3
# Si number density = 16.248175 Si / 1000 Ang^3
#
#
#
# Elastic Constant Matrix: (Units=GPa)
#
#
# Indices 1 2 3 4 5 6 
#
# 1 82.5309 13.9364 17.4633 0.0000 0.0000 0.0000
# 2 13.9364 30.0382 8.5098 0.0000 0.0000 0.0000
# 3 17.4633 8.5098 87.5508 0.0000 0.0000 0.0000
# 4 0.0000 0.0000 0.0000 20.1539 0.0000 0.0000
# 5 0.0000 0.0000 0.0000 0.0000 23.8700 0.0000
# 6 0.0000 0.0000 0.0000 0.0000 0.0000 6.3745
#
#
#
# Elastic Compliance Matrix: (Units=1/GPa)
#
#
# Indices 1 2 3 4 5 6 
#
# 1 0.013528 -0.005668 -0.002147 0.000000 0.000000 0.000000
# 2 -0.005668 0.036608 -0.002428 0.000000 0.000000 0.000000
# 3 -0.002147 -0.002428 0.012086 0.000000 0.000000 0.000000
# 4 0.000000 0.000000 0.000000 0.049618 0.000000 0.000000
# 5 0.000000 0.000000 0.000000 0.000000 0.041894 0.000000
# 6 0.000000 0.000000 0.000000 0.000000 0.000000 0.156874
#
#
# Mechanical properties :
#
#
# Convention : Reuss Voigt Hill
#
# Bulk Modulus (GPa) = 23.95995 31.10434 27.53214
# Shear Modulus (GPa) = 14.49245 20.76038 17.62641
#
# Velocity S-wave (km/s) = 2.98978 3.57838 3.29724
# Velocity P-wave (km/s) = 5.16688 6.02145 5.61046
#
# Compressibility (1/GPa) = 0.04173631
#
# Stress axis : x y z
#
# Youngs Moduli (GPa) = 73.91963 27.31611 82.73857
#
# Poissons Ratio (x) = 0.15483 0.17768
# Poissons Ratio (y) = 0.41898 0.20087
# Poissons Ratio (z) = 0.15874 0.06632
#
# Static dielectric constant tensor:
#      x y z
#    x 1.590690 0.000000 0.000000 
#    y 0.000000 1.535610 0.000000 
#    z 0.000000 0.000000 1.587690 
# 
# From -- ./inp_files/3754.got.cif
#   From: 2010.05.17/outbox.cif.g08.bks.cpg/sg56_2_cif.got.tgz:3754.got - 2010.06.03 13:42:01.
