data_PCOD9430591
_publ_section_title
;
Structure prediction by ZEFSAII (Michael W. Deem and Ramdas Pophale) SiO2 
 PCOD9430591
Probable space group: P C C N
;
_chemical_formula_sum "Si O2"
_cell_formula_units_Z 48
_cell_length_a 7.996486
_cell_length_b 14.780059
_cell_length_c 19.004813
_cell_angle_alpha 90.000000
_cell_angle_beta 90.000000
_cell_angle_gamma 90.000000
_cell_volume 2246.151004
_symmetry_space_group_name_H-M "P C C N"
_symmetry_group_IT_number 56
_symmetry_cell_setting 'orthorhombic'
loop_
_space_group_symop_operation_xyz
x,y,z
1/2-x,1/2-y,z
1/2+x,-y,1/2-z
-x,1/2+y,1/2-z
-x,-y,-z
1/2+x,1/2+y,-z
1/2-x,y,1/2+z
x,1/2-y,1/2+z
loop_
_atom_site_type_symbol
_atom_site_label
_atom_site_fract_x
_atom_site_fract_y
_atom_site_fract_z
Si Si1 0.142379 0.661200 0.160848
Si Si2 0.426025 0.541814 0.226399
Si Si3 0.232841 0.993148 0.861627
Si Si4 0.075538 0.091955 0.467368
Si Si5 0.445018 0.265608 0.720478
Si Si6 0.606656 0.309274 0.578167
O O1 0.250000 0.750000 0.142583
O O2 0.262737 0.581519 0.187938
O O3 0.043793 0.627847 0.093772
O O4 0.025612 0.697572 0.223631
O O5 0.549406 0.491912 0.172526
O O6 0.358965 0.490174 0.295476
O O7 0.522943 0.631873 0.252715
O O8 0.298649 0.899322 0.894137
O O9 0.256572 0.066197 0.924471
O O10 0.051263 0.163062 0.530252
O O11 0.000000 0.000000 0.500000
O O12 0.250000 0.250000 0.712638
O O13 0.540957 0.257929 0.646881
O O14 0.750000 0.250000 0.541296
#
# Coordination Sequence:
#
# PCOD9430591 Si02
#       6
#     8   8   8   8   8   8
#     4  10  20  37  61  87 115 153 197 244 294 351
#     4  10  20  35  60  90 117 150 199 252 296 350
#     4  10  20  35  58  84 115 152 195 246 299 352
#     4  10  21  38  57  82 120 159 194 241 300 358
#     4  10  20  36  61  90 118 152 199 250 298 354
#     4  10  21  39  57  81 118 160 199 245 301 357
#
# _framework density 21.369890000000002
#
# number of rings (size 3 to 8) (size 9 to 14) (size 15 to 20)
#    0.000    2.000    0.000    5.000    0.000    1.333 
#    0.000    9.167    0.000    0.000    0.000    0.000 
#    0.000    0.000    0.000    0.000    0.000    0.000 
#
# Total GULP energy -268045.199546 kJ/mol
# GULP energy per Si atom -5584.274991 kJ/mol
# Density = 2.132125 g / cm^3
# Si number density = 21.369890 Si / 1000 Ang^3
#
#
#
# Elastic Constant Matrix: (Units=GPa)
#
#
# Indices 1 2 3 4 5 6 
#
# 1 75.1125 18.3269 17.6904 0.0000 0.0000 0.0000
# 2 18.3269 49.5655 39.8540 0.0000 0.0000 0.0000
# 3 17.6904 39.8540 104.4358 0.0000 0.0000 0.0000
# 4 0.0000 0.0000 0.0000 -7.7152 0.0000 0.0000
# 5 0.0000 0.0000 0.0000 0.0000 -8.4362 0.0000
# 6 0.0000 0.0000 0.0000 0.0000 0.0000 27.7186
#
#
#
# Elastic Compliance Matrix: (Units=1/GPa)
#
#
# Indices 1 2 3 4 5 6 
#
# 1 0.014659 -0.004939 -0.000598 0.000000 0.000000 0.000000
# 2 -0.004939 0.030771 -0.010906 0.000000 0.000000 0.000000
# 3 -0.000598 -0.010906 0.013838 0.000000 0.000000 0.000000
# 4 0.000000 0.000000 0.000000 -0.129614 0.000000 0.000000
# 5 0.000000 0.000000 0.000000 0.000000 -0.118537 0.000000
# 6 0.000000 0.000000 0.000000 0.000000 0.000000 0.036077
#
#
# Mechanical properties :
#
#
# Convention : Reuss Voigt Hill
#
# Bulk Modulus (GPa) = 37.90501 42.31738 40.11120
# Shear Modulus (GPa) = -44.99410 12.52961 -16.23224
#
# Velocity S-wave (km/s) = -4.59354 2.42403 -2.75905
# Velocity P-wave (km/s) = 3.21839 5.26117 2.94294
#
# Compressibility (1/GPa) = 0.02638174
#
# Stress axis : x y z
#
# Youngs Moduli (GPa) = 68.21550 32.49853 72.26276
#
# Poissons Ratio (x) = 0.16052 0.04323
# Poissons Ratio (y) = 0.33694 0.78808
# Poissons Ratio (z) = 0.04081 0.35442
#
# Static dielectric constant tensor:
#      x y z
#    x 1.782040 0.000000 0.000000 
#    y 0.000000 1.812440 0.000000 
#    z 0.000000 0.000000 1.767520 
# 
# From -- ./inp_files/14792.got.cif
#   From: 2010.05.17/outbox.cif.g08.bks.cpg/sg56_8_cif.got.tgz:14792.got - 2010.06.03 13:42:01.
