data_PCOD9430305
_publ_section_title
;
Structure prediction by ZEFSAII (Michael W. Deem and Ramdas Pophale) SiO2 
 PCOD9430305
Probable space group: P C C N
;
_chemical_formula_sum "Si O2"
_cell_formula_units_Z 64
_cell_length_a 10.046201
_cell_length_b 14.652199
_cell_length_c 19.871167
_cell_angle_alpha 90.000000
_cell_angle_beta 90.000000
_cell_angle_gamma 90.000000
_cell_volume 2925.014644
_symmetry_space_group_name_H-M "P C C N"
_symmetry_group_IT_number 56
_symmetry_cell_setting 'orthorhombic'
loop_
_space_group_symop_operation_xyz
x,y,z
1/2-x,1/2-y,z
1/2+x,-y,1/2-z
-x,1/2+y,1/2-z
-x,-y,-z
1/2+x,1/2+y,-z
1/2-x,y,1/2+z
x,1/2-y,1/2+z
loop_
_atom_site_type_symbol
_atom_site_label
_atom_site_fract_x
_atom_site_fract_y
_atom_site_fract_z
Si Si1 0.447935 0.339850 0.922754
Si Si2 0.400385 0.253084 0.278146
Si Si3 0.995402 0.934597 0.656964
Si Si4 0.671898 0.161585 0.079667
Si Si5 0.776152 0.358499 0.360994
Si Si6 0.376839 0.198744 0.043361
Si Si7 0.600164 0.116605 0.218391
Si Si8 0.283816 0.465451 0.461167
O O1 0.404003 0.299443 0.850417
O O2 0.602701 0.364380 0.913592
O O3 0.413674 0.262043 0.977975
O O4 0.360849 0.428202 0.940613
O O5 0.250000 0.250000 0.253135
O O6 0.451996 0.353956 0.293230
O O7 0.503233 0.201266 0.231127
O O8 0.886253 0.939689 0.598389
O O9 0.137114 0.907861 0.625577
O O10 0.986724 0.029688 0.696187
O O11 0.750000 0.250000 0.056762
O O12 0.701827 0.136070 0.157358
O O13 0.703391 0.073744 0.034651
O O14 0.515771 0.184926 0.079890
O O15 0.826190 0.397080 0.289172
O O16 0.250000 0.250000 0.075571
O O17 0.329371 0.097674 0.022582
O O18 0.750000 0.250000 0.352728
#
# Coordination Sequence:
#
# PCOD9430305 Si02
#       8
#     8   8   8   8   8   8   8   8
#     4  10  19  37  65  97 113 143 197 265 310 335
#     4  11  19  37  60  88 118 152 200 243 299 352
#     4  11  21  35  61  88 120 153 198 241 300 357
#     4  11  25  42  57  85 125 173 197 236 305 374
#     4  11  20  36  59  92 120 148 194 260 299 342
#     4  10  20  40  68  89 116 154 205 258 302 354
#     4  10  25  37  54  83 127 161 195 232 301 364
#     4  10  20  41  64  91 120 153 200 251 304 362
#
# _framework density 21.880233
#
# number of rings (size 3 to 8) (size 9 to 14) (size 15 to 20)
#    0.000    1.500    5.000    1.125    1.750    3.000 
#    0.000    5.000    0.000    0.000    0.000    0.000 
#    0.000    0.000    0.000    0.000    0.000    0.000 
#
# Total GULP energy -357866.977842 kJ/mol
# GULP energy per Si atom -5591.671529 kJ/mol
# Density = 2.183043 g / cm^3
# Si number density = 21.880233 Si / 1000 Ang^3
#
#
#
# Elastic Constant Matrix: (Units=GPa)
#
#
# Indices 1 2 3 4 5 6 
#
# 1 117.9742 52.3113 13.0500 0.0000 0.0000 0.0000
# 2 52.3113 151.2533 14.7686 0.0000 0.0000 0.0000
# 3 13.0500 14.7686 46.3403 0.0000 0.0000 0.0000
# 4 0.0000 0.0000 0.0000 1.7386 0.0000 0.0000
# 5 0.0000 0.0000 0.0000 0.0000 6.2408 0.0000
# 6 0.0000 0.0000 0.0000 0.0000 0.0000 24.0473
#
#
#
# Elastic Compliance Matrix: (Units=1/GPa)
#
#
# Indices 1 2 3 4 5 6 
#
# 1 0.010155 -0.003337 -0.001796 0.000000 0.000000 0.000000
# 2 -0.003337 0.007920 -0.001585 0.000000 0.000000 0.000000
# 3 -0.001796 -0.001585 0.022590 0.000000 0.000000 0.000000
# 4 0.000000 0.000000 0.000000 0.575181 0.000000 0.000000
# 5 0.000000 0.000000 0.000000 0.000000 0.160235 0.000000
# 6 0.000000 0.000000 0.000000 0.000000 0.000000 0.041585
#
#
# Mechanical properties :
#
#
# Convention : Reuss Voigt Hill
#
# Bulk Modulus (GPa) = 36.72384 52.86971 44.79678
# Shear Modulus (GPa) = 5.95112 22.10121 14.02617
#
# Velocity S-wave (km/s) = 1.65099 3.18165 2.53463
# Velocity P-wave (km/s) = 4.52270 6.14108 5.39295
#
# Compressibility (1/GPa) = 0.02723027
#
# Stress axis : x y z
#
# Youngs Moduli (GPa) = 98.47730 126.26084 44.26674
#
# Poissons Ratio (x) = 0.42128 0.07952
# Poissons Ratio (y) = 0.32858 0.07014
# Poissons Ratio (z) = 0.17689 0.20006
#
# Static dielectric constant tensor:
#      x y z
#    x 1.793770 0.000000 0.000000 
#    y 0.000000 1.785340 0.000000 
#    z 0.000000 0.000000 1.803010 
# 
# From -- ./inp_files/20654.got.cif
#   From: 2010.05.17/outbox.cif.g08.bks.cpg/sg56_11_cif.got.tgz:20654.got - 2010.06.03 13:42:01.
