data_PCOD9430422
_publ_section_title
;
Structure prediction by ZEFSAII (Michael W. Deem and Ramdas Pophale) SiO2 
 PCOD9430422
Probable space group: P C C N
;
_chemical_formula_sum "Si O2"
_cell_formula_units_Z 40
_cell_length_a 8.784109
_cell_length_b 14.320880
_cell_length_c 14.386745
_cell_angle_alpha 90.000000
_cell_angle_beta 90.000000
_cell_angle_gamma 90.000000
_cell_volume 1809.797433
_symmetry_space_group_name_H-M "P C C N"
_symmetry_group_IT_number 56
_symmetry_cell_setting 'orthorhombic'
loop_
_space_group_symop_operation_xyz
x,y,z
1/2-x,1/2-y,z
1/2+x,-y,1/2-z
-x,1/2+y,1/2-z
-x,-y,-z
1/2+x,1/2+y,-z
1/2-x,y,1/2+z
x,1/2-y,1/2+z
loop_
_atom_site_type_symbol
_atom_site_label
_atom_site_fract_x
_atom_site_fract_y
_atom_site_fract_z
Si Si1 0.655768 0.137633 0.338250
Si Si2 0.385838 0.697449 0.950458
Si Si3 0.621913 0.576701 0.865674
Si Si4 0.357297 0.334112 0.493718
Si Si5 0.499094 0.321546 0.302999
O O1 0.668054 0.168671 0.446534
O O2 0.525143 0.209261 0.303765
O O3 0.823470 0.147809 0.293696
O O4 0.616844 0.029539 0.334755
O O5 0.250000 0.750000 0.899633
O O6 0.462311 0.604604 0.912933
O O7 0.515347 0.776724 0.950922
O O8 0.757256 0.600068 0.939205
O O9 0.614900 0.644113 0.776276
O O10 0.250000 0.250000 0.458918
O O11 0.439848 0.366767 0.399903
#
# Coordination Sequence:
#
# PCOD9430422 Si02
#       5
#     8   8   8   8   8
#     4  10  21  46  69  96 142 184 234 284 348 416
#     4  10  19  42  70  94 136 189 223 279 352 414
#     4  11  24  40  69 110 131 183 240 285 342 425
#     4   9  20  41  66  97 135 180 222 284 347 401
#     4  10  22  46  69  97 144 186 224 294 353 403
#
# _framework density 22.101921000000001
#
# number of rings (size 3 to 8) (size 9 to 14) (size 15 to 20)
#    0.000    2.000    4.000    0.600    2.800    3.200 
#   25.200    0.000    0.000    0.000    0.000    0.000 
#    0.000    0.000    0.000    0.000    0.000    0.000 
#
# Total GULP energy -222890.067164 kJ/mol
# GULP energy per Si atom -5572.251679 kJ/mol
# Density = 2.205162 g / cm^3
# Si number density = 22.101921 Si / 1000 Ang^3
#
#
#
# Elastic Constant Matrix: (Units=GPa)
#
#
# Indices 1 2 3 4 5 6 
#
# 1 99.6523 30.6776 23.3079 0.0000 0.0000 0.0000
# 2 30.6776 65.8445 28.5491 0.0000 0.0000 0.0000
# 3 23.3079 28.5491 94.3057 0.0000 0.0000 0.0000
# 4 0.0000 0.0000 0.0000 1927.8804 0.0000 0.0000
# 5 0.0000 0.0000 0.0000 0.0000 25.5504 0.0000
# 6 0.0000 0.0000 0.0000 0.0000 0.0000 16.9188
#
#
#
# Elastic Compliance Matrix: (Units=1/GPa)
#
#
# Indices 1 2 3 4 5 6 
#
# 1 0.011885 -0.004908 -0.001452 0.000000 0.000000 0.000000
# 2 -0.004908 0.019509 -0.004693 0.000000 0.000000 0.000000
# 3 -0.001452 -0.004693 0.012383 0.000000 0.000000 0.000000
# 4 0.000000 0.000000 0.000000 0.000519 0.000000 0.000000
# 5 0.000000 0.000000 0.000000 0.000000 0.039138 0.000000
# 6 0.000000 0.000000 0.000000 0.000000 0.000000 0.059106
#
#
# Mechanical properties :
#
#
# Convention : Reuss Voigt Hill
#
# Bulk Modulus (GPa) = 46.14207 47.20797 46.67502
# Shear Modulus (GPa) = 29.09185 405.88779 217.48982
#
# Velocity S-wave (km/s) = 3.63196 13.56622 9.93060
# Velocity P-wave (km/s) = 6.20568 16.33387 12.35528
#
# Compressibility (1/GPa) = 0.02167220
#
# Stress axis : x y z
#
# Youngs Moduli (GPa) = 84.13714 51.25909 80.75424
#
# Poissons Ratio (x) = 0.25158 0.11723
# Poissons Ratio (y) = 0.41295 0.37897
# Poissons Ratio (z) = 0.12214 0.24055
#
# Static dielectric constant tensor:
#      x y z
#    x 1.949450 0.000000 0.000000 
#    y 0.000000 1.845230 0.000000 
#    z 0.000000 0.000000 1.926590 
# 
# From -- ./inp_files/10375.got.cif
#   From: 2010.05.17/outbox.cif.g08.bks.cpg/sg56_6_cif.got.tgz:10375.got - 2010.06.03 13:42:01.
