data_PCOD9430168
_publ_section_title
;
Structure prediction by ZEFSAII (Michael W. Deem and Ramdas Pophale) SiO2 
 PCOD9430168
Probable space group: P C C N
;
_chemical_formula_sum "Si O2"
_cell_formula_units_Z 52
_cell_length_a 18.568211
_cell_length_b 8.417571
_cell_length_c 16.694543
_cell_angle_alpha 90.000000
_cell_angle_beta 90.000000
_cell_angle_gamma 90.000000
_cell_volume 2609.344290
_symmetry_space_group_name_H-M "P C C N"
_symmetry_group_IT_number 56
_symmetry_cell_setting 'orthorhombic'
loop_
_space_group_symop_operation_xyz
x,y,z
1/2-x,1/2-y,z
1/2+x,-y,1/2-z
-x,1/2+y,1/2-z
-x,-y,-z
1/2+x,1/2+y,-z
1/2-x,y,1/2+z
x,1/2-y,1/2+z
loop_
_atom_site_type_symbol
_atom_site_label
_atom_site_fract_x
_atom_site_fract_y
_atom_site_fract_z
Si Si1 0.128288 0.402344 0.869713
Si Si2 0.146062 0.000284 0.697076
Si Si3 0.481961 0.173417 0.293183
Si Si4 0.886294 0.241680 0.182179
Si Si5 0.071053 0.415874 0.039155
Si Si6 0.750000 0.750000 0.241270
Si Si7 0.003887 0.910883 0.916458
O O1 0.053623 0.321374 0.839551
O O2 0.135739 0.587429 0.849083
O O3 0.189648 0.317128 0.818718
O O4 0.124826 0.383472 0.965213
O O5 0.082090 0.086341 0.746547
O O6 0.112372 0.984907 0.608352
O O7 0.214090 0.116139 0.703118
O O8 0.162443 0.846998 0.752454
O O9 0.540134 0.232999 0.231440
O O10 0.517798 0.042587 0.350936
O O11 0.913910 0.136441 0.107432
O O12 0.043097 0.249289 0.076552
O O13 0.000000 0.500000 0.000000
O O14 0.000000 0.000000 0.000000
#
# Coordination Sequence:
#
# PCOD9430168 Si02
#       7
#     8   8   8   8   8   4   8
#     4  11  22  39  64  86 131 162 209 259 311 382
#     4  10  23  39  62  86 127 167 219 250 308 392
#     4  10  19  35  57  97 125 161 198 258 328 379
#     4  11  21  36  64  93 123 165 202 272 324 376
#     4  12  21  39  64 102 128 157 200 278 335 373
#     4  10  26  46  60  86 118 186 220 244 302 384
#     4  11  21  32  56  95 137 155 190 248 340 387
#
# _framework density 19.928377999999999
#
# number of rings (size 3 to 8) (size 9 to 14) (size 15 to 20)
#    0.000    1.231    4.615    2.769    2.154    1.231 
#    0.000    0.000    0.000    1.846    0.000    0.000 
#    0.000    0.000    0.000    0.000    0.000    0.000 
#
# Total GULP energy -290113.888486 kJ/mol
# GULP energy per Si atom -5579.113240 kJ/mol
# Density = 1.988302 g / cm^3
# Si number density = 19.928378 Si / 1000 Ang^3
#
#
#
# Elastic Constant Matrix: (Units=GPa)
#
#
# Indices 1 2 3 4 5 6 
#
# 1 50.3334 16.8230 20.6749 0.0000 0.0000 0.0000
# 2 16.8230 86.1177 27.0694 0.0000 0.0000 0.0000
# 3 20.6749 27.0694 116.7890 0.0000 0.0000 0.0000
# 4 0.0000 0.0000 0.0000 35.5835 0.0000 0.0000
# 5 0.0000 0.0000 0.0000 0.0000 20.3297 0.0000
# 6 0.0000 0.0000 0.0000 0.0000 0.0000 27.8822
#
#
#
# Elastic Compliance Matrix: (Units=1/GPa)
#
#
# Indices 1 2 3 4 5 6 
#
# 1 0.022291 -0.003359 -0.003168 0.000000 0.000000 0.000000
# 2 -0.003359 0.013031 -0.002426 0.000000 0.000000 0.000000
# 3 -0.003168 -0.002426 0.009685 0.000000 0.000000 0.000000
# 4 0.000000 0.000000 0.000000 0.028103 0.000000 0.000000
# 5 0.000000 0.000000 0.000000 0.000000 0.049189 0.000000
# 6 0.000000 0.000000 0.000000 0.000000 0.000000 0.035865
#
#
# Mechanical properties :
#
#
# Convention : Reuss Voigt Hill
#
# Bulk Modulus (GPa) = 36.89627 42.48607 39.69117
# Shear Modulus (GPa) = 27.01195 29.33727 28.17461
#
# Velocity S-wave (km/s) = 3.68564 3.84100 3.76412
# Velocity P-wave (km/s) = 6.05529 6.40599 6.23311
#
# Compressibility (1/GPa) = 0.02710301
#
# Stress axis : x y z
#
# Youngs Moduli (GPa) = 44.86053 76.74231 103.24789
#
# Poissons Ratio (x) = 0.25777 0.32705
# Poissons Ratio (y) = 0.15068 0.25044
# Poissons Ratio (z) = 0.14210 0.18615
#
# Static dielectric constant tensor:
#      x y z
#    x 1.702040 0.000000 0.000000 
#    y 0.000000 1.786780 0.000000 
#    z 0.000000 0.000000 1.746920 
# 
# From -- ./inp_files/13010.got.cif
#   From: 2010.05.17/outbox.cif.g08.bks.cpg/sg56_7_cif.got.tgz:13010.got - 2010.06.03 13:42:01.
