data_PCOD9430369
_publ_section_title
;
Structure prediction by ZEFSAII (Michael W. Deem and Ramdas Pophale) SiO2 
 PCOD9430369
Probable space group: P C C N
;
_chemical_formula_sum "Si O2"
_cell_formula_units_Z 60
_cell_length_a 30.129778
_cell_length_b 9.952108
_cell_length_c 8.852150
_cell_angle_alpha 90.000000
_cell_angle_beta 90.000000
_cell_angle_gamma 90.000000
_cell_volume 2654.359709
_symmetry_space_group_name_H-M "P C C N"
_symmetry_group_IT_number 56
_symmetry_cell_setting 'orthorhombic'
loop_
_space_group_symop_operation_xyz
x,y,z
1/2-x,1/2-y,z
1/2+x,-y,1/2-z
-x,1/2+y,1/2-z
-x,-y,-z
1/2+x,1/2+y,-z
1/2-x,y,1/2+z
x,1/2-y,1/2+z
loop_
_atom_site_type_symbol
_atom_site_label
_atom_site_fract_x
_atom_site_fract_y
_atom_site_fract_z
Si Si1 0.750000 0.250000 0.023686
Si Si2 0.000035 0.136492 0.600182
Si Si3 0.413356 0.514440 0.339180
Si Si4 0.444202 0.203194 0.379437
Si Si5 0.287037 0.366790 0.280698
Si Si6 0.714914 0.422595 0.256031
Si Si7 0.368163 0.119409 0.585179
Si Si8 0.350772 0.089944 0.068921
O O1 0.711128 0.311022 0.128413
O O2 0.772838 0.354823 0.912917
O O3 0.018001 0.264808 0.507254
O O4 0.032622 0.127666 0.742291
O O5 0.949684 0.130093 0.659759
O O6 0.000000 0.000000 0.500000
O O7 0.431878 0.359025 0.339244
O O8 0.383675 0.514466 0.489801
O O9 0.384036 0.503393 0.189368
O O10 0.401445 0.122987 0.442836
O O11 0.250000 0.250000 0.273262
O O12 0.258246 0.498804 0.297518
O O13 0.319916 0.359807 0.425821
O O14 0.315234 0.380047 0.124595
O O15 0.676424 0.525918 0.294904
O O16 0.375472 0.277794 0.628647
#
# Coordination Sequence:
#
# PCOD9430369 Si02
#       8
#     4   8   8   8   8   8   8   8
#     4  10  24  40  62  76 120 172 236 252 306 390
#     4  10  21  39  65  89 127 168 219 265 326 407
#     4   9  20  38  59  94 127 166 206 265 337 392
#     4  10  19  39  64  94 128 171 211 266 331 399
#     4  11  22  35  61 102 136 164 213 277 337 399
#     4  11  21  42  60  89 119 179 219 268 314 387
#     4  10  20  36  61  95 136 164 206 273 347 403
#     4  10  21  36  60  90 131 167 207 269 333 388
#
# _framework density 22.604320999999999
#
# number of rings (size 3 to 8) (size 9 to 14) (size 15 to 20)
#    0.000    1.867    4.000    0.000    1.867    0.533 
#    2.400    1.333    0.000    0.000    0.000    0.000 
#    0.000    0.000    0.000    0.000    0.000    0.000 
#
# Total GULP energy -334121.531937 kJ/mol
# GULP energy per Si atom -5568.692199 kJ/mol
# Density = 2.255287 g / cm^3
# Si number density = 22.604321 Si / 1000 Ang^3
#
#
#
# Elastic Constant Matrix: (Units=GPa)
#
#
# Indices 1 2 3 4 5 6 
#
# 1 101.9966 17.9270 30.7497 0.0000 0.0000 0.0000
# 2 17.9270 27.1078 28.0455 0.0000 0.0000 0.0000
# 3 30.7497 28.0455 85.7481 0.0000 0.0000 0.0000
# 4 0.0000 0.0000 0.0000 21.5061 0.0000 0.0000
# 5 0.0000 0.0000 0.0000 0.0000 33.8830 0.0000
# 6 0.0000 0.0000 0.0000 0.0000 0.0000 30.5395
#
#
#
# Elastic Compliance Matrix: (Units=1/GPa)
#
#
# Indices 1 2 3 4 5 6 
#
# 1 0.011426 -0.005014 -0.002458 0.000000 0.000000 0.000000
# 2 -0.005014 0.057957 -0.017158 0.000000 0.000000 0.000000
# 3 -0.002458 -0.017158 0.018155 0.000000 0.000000 0.000000
# 4 0.000000 0.000000 0.000000 0.046498 0.000000 0.000000
# 5 0.000000 0.000000 0.000000 0.000000 0.029513 0.000000
# 6 0.000000 0.000000 0.000000 0.000000 0.000000 0.032744
#
#
# Mechanical properties :
#
#
# Convention : Reuss Voigt Hill
#
# Bulk Modulus (GPa) = 26.12347 40.92188 33.52268
# Shear Modulus (GPa) = 19.35629 26.39440 22.87534
#
# Velocity S-wave (km/s) = 2.92945 3.42083 3.18463
# Velocity P-wave (km/s) = 4.79835 5.80910 5.32775
#
# Compressibility (1/GPa) = 0.03827975
#
# Stress axis : x y z
#
# Youngs Moduli (GPa) = 87.51644 17.25414 55.08051
#
# Poissons Ratio (x) = 0.08651 0.13537
# Poissons Ratio (y) = 0.43879 0.94507
# Poissons Ratio (z) = 0.21509 0.29605
#
# Static dielectric constant tensor:
#      x y z
#    x 2.144160 0.000000 0.000000 
#    y 0.000000 1.853220 0.000000 
#    z 0.000000 0.000000 1.965610 
# 
# From -- ./inp_files/5196.got.cif
#   From: 2010.05.17/outbox.cif.g08.bks.cpg/sg56_3_cif.got.tgz:5196.got - 2010.06.03 13:42:01.
