data_PCOD9430359
_publ_section_title
;
Structure prediction by ZEFSAII (Michael W. Deem and Ramdas Pophale) SiO2 
 PCOD9430359
Probable space group: P C C N
;
_chemical_formula_sum "Si O2"
_cell_formula_units_Z 52
_cell_length_a 12.882621
_cell_length_b 8.186975
_cell_length_c 17.550651
_cell_angle_alpha 90.000000
_cell_angle_beta 90.000000
_cell_angle_gamma 90.000000
_cell_volume 1851.061827
_symmetry_space_group_name_H-M "P C C N"
_symmetry_group_IT_number 56
_symmetry_cell_setting 'orthorhombic'
loop_
_space_group_symop_operation_xyz
x,y,z
1/2-x,1/2-y,z
1/2+x,-y,1/2-z
-x,1/2+y,1/2-z
-x,-y,-z
1/2+x,1/2+y,-z
1/2-x,y,1/2+z
x,1/2-y,1/2+z
loop_
_atom_site_type_symbol
_atom_site_label
_atom_site_fract_x
_atom_site_fract_y
_atom_site_fract_z
Si Si1 0.849273 0.031438 0.005245
Si Si2 0.631374 0.783666 0.866946
Si Si3 0.065223 0.563592 0.659565
Si Si4 0.750000 0.250000 0.250701
Si Si5 0.831287 0.593152 0.713243
Si Si6 0.923988 0.806148 0.539458
Si Si7 0.868430 0.129702 0.513608
O O1 0.924193 0.032778 0.932541
O O2 0.737230 0.076505 0.972655
O O3 0.867338 0.194582 0.053560
O O4 0.858775 0.858910 0.045988
O O5 0.750000 0.750000 0.891492
O O6 0.587089 0.626917 0.820436
O O7 0.641867 0.918463 0.803427
O O8 0.575199 0.822565 0.945759
O O9 0.153032 0.677007 0.698420
O O10 0.947752 0.617636 0.678374
O O11 0.716429 0.411659 0.201684
O O12 0.750000 0.750000 0.702794
O O13 0.045353 0.837658 0.550927
O O14 0.877480 0.974608 0.568862
#
# Coordination Sequence:
#
# PCOD9430359 Si02
#       7
#     8   8   8   4   8   8   8
#     4  10  21  37  61  89 121 158 210 261 309 385
#     4  10  19  39  60  92 125 167 209 264 314 381
#     4  11  22  39  65  95 126 171 220 264 321 381
#     4  12  22  36  66  92 120 178 216 260 316 384
#     4  11  24  42  61  94 136 169 216 269 320 383
#     4  10  20  34  59  88 126 154 202 263 316 370
#     4  10  20  35  59  94 115 159 207 258 316 377
#
# _framework density 28.091984
#
# number of rings (size 3 to 8) (size 9 to 14) (size 15 to 20)
#    0.000    1.538    3.077    4.615    2.154    0.000 
#    0.000    0.000    0.000   41.538    0.000    0.000 
#    0.000    0.000    0.000    0.000    0.000    0.000 
#
# Total GULP energy -289754.916310 kJ/mol
# GULP energy per Si atom -5572.209929 kJ/mol
# Density = 2.802804 g / cm^3
# Si number density = 28.091984 Si / 1000 Ang^3
#
#
#
# Elastic Constant Matrix: (Units=GPa)
#
#
# Indices 1 2 3 4 5 6 
#
# 1 167.2027 60.3085 32.8856 0.0000 0.0000 0.0000
# 2 60.3085 282.1588 -2.3916 0.0000 0.0000 0.0000
# 3 32.8856 -2.3916 72.1257 0.0000 0.0000 0.0000
# 4 0.0000 0.0000 0.0000 7.9223 0.0000 0.0000
# 5 0.0000 0.0000 0.0000 0.0000 15.1553 0.0000
# 6 0.0000 0.0000 0.0000 0.0000 0.0000 46.0451
#
#
#
# Elastic Compliance Matrix: (Units=1/GPa)
#
#
# Indices 1 2 3 4 5 6 
#
# 1 0.007202 -0.001568 -0.003336 0.000000 0.000000 0.000000
# 2 -0.001568 0.003886 0.000844 0.000000 0.000000 0.000000
# 3 -0.003336 0.000844 0.015414 0.000000 0.000000 0.000000
# 4 0.000000 0.000000 0.000000 0.126226 0.000000 0.000000
# 5 0.000000 0.000000 0.000000 0.000000 0.065984 0.000000
# 6 0.000000 0.000000 0.000000 0.000000 0.000000 0.021718
#
#
# Mechanical properties :
#
#
# Convention : Reuss Voigt Hill
#
# Bulk Modulus (GPa) = 54.39964 78.12135 66.26050
# Shear Modulus (GPa) = 19.63268 42.53685 31.08476
#
# Velocity S-wave (km/s) = 2.64649 3.89549 3.33007
# Velocity P-wave (km/s) = 5.36147 6.93561 6.19871
#
# Compressibility (1/GPa) = 0.01838247
#
# Stress axis : x y z
#
# Youngs Moduli (GPa) = 138.84408 257.31193 64.87757
#
# Poissons Ratio (x) = 0.40339 0.21642
# Poissons Ratio (y) = 0.21767 -0.05473
# Poissons Ratio (z) = 0.46317 -0.21708
#
# Static dielectric constant tensor:
#      x y z
#    x 2.454790 0.000000 0.000000 
#    y 0.000000 2.483820 0.000000 
#    z 0.000000 0.000000 2.246950 
# 
# From -- ./inp_files/22291.got.cif
#   From: 2010.05.17/outbox.cif.g08.bks.cpg/sg56_12_cif.got.tgz:22291.got - 2010.06.03 13:42:01.
