data_PCOD9430848
_publ_section_title
;
Structure prediction by ZEFSAII (Michael W. Deem and Ramdas Pophale) SiO2 
 PCOD9430848
Probable space group: P C C N
;
_chemical_formula_sum "Si O2"
_cell_formula_units_Z 44
_cell_length_a 18.026721
_cell_length_b 8.900027
_cell_length_c 14.805851
_cell_angle_alpha 90.000000
_cell_angle_beta 90.000000
_cell_angle_gamma 90.000000
_cell_volume 2375.425618
_symmetry_space_group_name_H-M "P C C N"
_symmetry_group_IT_number 56
_symmetry_cell_setting 'orthorhombic'
loop_
_space_group_symop_operation_xyz
x,y,z
1/2-x,1/2-y,z
1/2+x,-y,1/2-z
-x,1/2+y,1/2-z
-x,-y,-z
1/2+x,1/2+y,-z
1/2-x,y,1/2+z
x,1/2-y,1/2+z
loop_
_atom_site_type_symbol
_atom_site_label
_atom_site_fract_x
_atom_site_fract_y
_atom_site_fract_z
Si Si1 0.139392 0.834593 0.451500
Si Si2 0.250000 0.250000 0.366287
Si Si3 0.924031 0.949556 0.888500
Si Si4 0.391902 0.082929 0.815198
Si Si5 0.993137 0.743632 0.541448
Si Si6 0.707788 0.024214 0.509412
O O1 0.207917 0.918228 0.500954
O O2 0.164347 0.661319 0.441687
O O3 0.064835 0.836744 0.509803
O O4 0.125420 0.919398 0.357555
O O5 0.185945 0.170397 0.310088
O O6 0.212683 0.376382 0.429670
O O7 0.927565 0.919826 0.782831
O O8 0.950186 0.812276 0.951846
O O9 0.975888 0.091558 0.912478
O O10 0.840499 0.991145 0.920707
O O11 0.442230 0.166528 0.889421
#
# Coordination Sequence:
#
# PCOD9430848 Si02
#       6
#     8   4   8   8   8   8
#     4   9  20  37  63  85 119 158 201 251 309 353
#     4  10  20  38  60  88 120 162 200 250 304 358
#     4  10  22  38  63  86 124 158 200 248 314 360
#     4  11  22  38  62  93 114 159 211 244 299 374
#     4  10  21  41  59  88 124 159 193 263 305 356
#     4   9  18  40  60  83 123 162 191 254 308 356
#
# _framework density 18.522997
#
# number of rings (size 3 to 8) (size 9 to 14) (size 15 to 20)
#    0.000    2.182    1.818    0.545    2.545    0.727 
#    0.000   14.545    0.000    0.000    0.000    0.000 
#    0.000    0.000    0.000    0.000    0.000    0.000 
#
# Total GULP energy -245474.576233 kJ/mol
# GULP energy per Si atom -5578.967642 kJ/mol
# Density = 1.848084 g / cm^3
# Si number density = 18.522997 Si / 1000 Ang^3
#
#
#
# Elastic Constant Matrix: (Units=GPa)
#
#
# Indices 1 2 3 4 5 6 
#
# 1 90.5664 25.0222 53.8322 0.0000 0.0000 0.0000
# 2 25.0222 71.1732 44.6199 0.0000 0.0000 0.0000
# 3 53.8322 44.6199 112.0756 0.0000 0.0000 0.0000
# 4 0.0000 0.0000 0.0000 16.3587 0.0000 0.0000
# 5 0.0000 0.0000 0.0000 0.0000 20.6208 0.0000
# 6 0.0000 0.0000 0.0000 0.0000 0.0000 15.2198
#
#
#
# Elastic Compliance Matrix: (Units=1/GPa)
#
#
# Indices 1 2 3 4 5 6 
#
# 1 0.015512 -0.001043 -0.007035 0.000000 0.000000 0.000000
# 2 -0.001043 0.018794 -0.006981 0.000000 0.000000 0.000000
# 3 -0.007035 -0.006981 0.015081 0.000000 0.000000 0.000000
# 4 0.000000 0.000000 0.000000 0.061130 0.000000 0.000000
# 5 0.000000 0.000000 0.000000 0.000000 0.048495 0.000000
# 6 0.000000 0.000000 0.000000 0.000000 0.000000 0.065704
#
#
# Mechanical properties :
#
#
# Convention : Reuss Voigt Hill
#
# Bulk Modulus (GPa) = 51.90100 57.86265 54.88182
# Shear Modulus (GPa) = 19.13834 20.46258 19.80046
#
# Velocity S-wave (km/s) = 3.21786 3.32733 3.27305
# Velocity P-wave (km/s) = 6.47200 6.78731 6.63153
#
# Compressibility (1/GPa) = 0.01926745
#
# Stress axis : x y z
#
# Youngs Moduli (GPa) = 64.46828 53.20977 66.30780
#
# Poissons Ratio (x) = 0.05548 0.46650
# Poissons Ratio (y) = 0.06722 0.46291
# Poissons Ratio (z) = 0.45356 0.37147
#
# Static dielectric constant tensor:
#      x y z
#    x 1.666430 0.000000 0.000000 
#    y 0.000000 1.662820 0.000000 
#    z 0.000000 0.000000 1.580750 
# 
# From -- ./inp_files/10576.got.cif
#   From: 2010.05.17/outbox.cif.g08.bks.cpg/sg56_6_cif.got.tgz:10576.got - 2010.06.03 13:42:01.
