data_PCOD9430336
_publ_section_title
;
Structure prediction by ZEFSAII (Michael W. Deem and Ramdas Pophale) SiO2 
 PCOD9430336
Probable space group: P C C N
;
_chemical_formula_sum "Si O2"
_cell_formula_units_Z 48
_cell_length_a 5.044860
_cell_length_b 26.900884
_cell_length_c 17.115919
_cell_angle_alpha 90.000000
_cell_angle_beta 90.000000
_cell_angle_gamma 90.000000
_cell_volume 2322.821798
_symmetry_space_group_name_H-M "P C C N"
_symmetry_group_IT_number 56
_symmetry_cell_setting 'orthorhombic'
loop_
_space_group_symop_operation_xyz
x,y,z
1/2-x,1/2-y,z
1/2+x,-y,1/2-z
-x,1/2+y,1/2-z
-x,-y,-z
1/2+x,1/2+y,-z
1/2-x,y,1/2+z
x,1/2-y,1/2+z
loop_
_atom_site_type_symbol
_atom_site_label
_atom_site_fract_x
_atom_site_fract_y
_atom_site_fract_z
Si Si1 0.814653 0.330672 0.666280
Si Si2 0.696909 0.061620 0.213028
Si Si3 0.815026 0.804797 0.427128
Si Si4 0.803507 0.950347 0.680223
Si Si5 0.301658 0.807031 0.153209
Si Si6 0.197627 0.141835 0.917264
O O1 0.764761 0.389766 0.664218
O O2 0.610155 0.306570 0.605918
O O3 0.755290 0.313941 0.754491
O O4 0.111009 0.316143 0.642859
O O5 0.407176 0.064170 0.251945
O O6 0.906814 0.059559 0.284279
O O7 0.724020 0.009360 0.168124
O O8 0.750000 0.750000 0.458909
O O9 0.761866 0.844968 0.493936
O O10 0.746291 0.914847 0.607751
O O11 0.250000 0.750000 0.131561
O O12 0.596865 0.825036 0.133416
O O13 0.096472 0.841214 0.105806
#
# Coordination Sequence:
#
# PCOD9430336 Si02
#       6
#     8   8   8   8   8   8
#     4  12  23  42  61  91 122 161 206 249 305 358
#     4  10  20  37  64  92 118 151 197 254 309 352
#     4  12  26  41  58  85 131 170 195 243 313 363
#     4  10  19  38  64  92 118 151 197 255 308 352
#     4  12  23  38  63  89 118 155 215 259 286 352
#     4  12  23  42  62  91 121 162 206 248 305 357
#
# _framework density 20.66452
#
# number of rings (size 3 to 8) (size 9 to 14) (size 15 to 20)
#    0.000    0.667    3.333    6.000    0.000    0.000 
#    0.000    1.667    0.000    0.000    0.000    0.000 
#    0.000    0.000    0.000    0.000    0.000    0.000 
#
# Total GULP energy -268614.053749 kJ/mol
# GULP energy per Si atom -5596.126120 kJ/mol
# Density = 2.061749 g / cm^3
# Si number density = 20.664520 Si / 1000 Ang^3
#
#
#
# Elastic Constant Matrix: (Units=GPa)
#
#
# Indices 1 2 3 4 5 6 
#
# 1 50.5887 1.7280 -1.3678 0.0000 0.0000 0.0000
# 2 1.7280 90.5918 -18.1499 0.0000 0.0000 0.0000
# 3 -1.3678 -18.1499 33.2486 0.0000 0.0000 0.0000
# 4 0.0000 0.0000 0.0000 10.6351 0.0000 0.0000
# 5 0.0000 0.0000 0.0000 0.0000 14.4674 0.0000
# 6 0.0000 0.0000 0.0000 0.0000 0.0000 29.0347
#
#
#
# Elastic Compliance Matrix: (Units=1/GPa)
#
#
# Indices 1 2 3 4 5 6 
#
# 1 0.019794 -0.000241 0.000683 0.000000 0.000000 0.000000
# 2 -0.000241 0.012397 0.006757 0.000000 0.000000 0.000000
# 3 0.000683 0.006757 0.033793 0.000000 0.000000 0.000000
# 4 0.000000 0.000000 0.000000 0.094029 0.000000 0.000000
# 5 0.000000 0.000000 0.000000 0.000000 0.069121 0.000000
# 6 0.000000 0.000000 0.000000 0.000000 0.000000 0.034442
#
#
# Mechanical properties :
#
#
# Convention : Reuss Voigt Hill
#
# Bulk Modulus (GPa) = 12.44040 15.42774 13.93407
# Shear Modulus (GPa) = 18.11786 23.64202 20.87994
#
# Velocity S-wave (km/s) = 2.96423 3.38611 3.18217
# Velocity P-wave (km/s) = 4.21293 4.77175 4.50102
#
# Compressibility (1/GPa) = 0.08038326
#
# Stress axis : x y z
#
# Youngs Moduli (GPa) = 50.52046 80.66503 29.59166
#
# Poissons Ratio (x) = 0.01942 -0.02021
# Poissons Ratio (y) = 0.01216 -0.19996
# Poissons Ratio (z) = -0.03450 -0.54509
#
# Static dielectric constant tensor:
#      x y z
#    x 1.705600 0.000000 0.000000 
#    y 0.000000 1.757050 0.000000 
#    z 0.000000 0.000000 1.699890 
# 
# From -- ./inp_files/9672.got.cif
#   From: 2010.05.17/outbox.cif.g08.bks.cpg/sg56_5_cif.got.tgz:9672.got - 2010.06.03 13:42:01.
