data_PCOD9430206
_publ_section_title
;
Structure prediction by ZEFSAII (Michael W. Deem and Ramdas Pophale) SiO2 
 PCOD9430206
Probable space group: P C C N
;
_chemical_formula_sum "Si O2"
_cell_formula_units_Z 64
_cell_length_a 8.901581
_cell_length_b 18.274251
_cell_length_c 19.504456
_cell_angle_alpha 90.000000
_cell_angle_beta 90.000000
_cell_angle_gamma 90.000000
_cell_volume 3172.784503
_symmetry_space_group_name_H-M "P C C N"
_symmetry_group_IT_number 56
_symmetry_cell_setting 'orthorhombic'
loop_
_space_group_symop_operation_xyz
x,y,z
1/2-x,1/2-y,z
1/2+x,-y,1/2-z
-x,1/2+y,1/2-z
-x,-y,-z
1/2+x,1/2+y,-z
1/2-x,y,1/2+z
x,1/2-y,1/2+z
loop_
_atom_site_type_symbol
_atom_site_label
_atom_site_fract_x
_atom_site_fract_y
_atom_site_fract_z
Si Si1 0.394836 0.535889 0.899058
Si Si2 0.382262 0.159765 0.872996
Si Si3 0.481416 0.899923 0.765378
Si Si4 0.697210 0.166346 0.109236
Si Si5 0.550253 0.081275 0.980878
Si Si6 0.711207 0.956577 0.219857
Si Si7 0.144505 0.943473 0.059157
Si Si8 0.475274 0.183187 0.372924
O O1 0.347818 0.617531 0.879614
O O2 0.298465 0.484571 0.849094
O O3 0.563978 0.506559 0.897434
O O4 0.354185 0.530227 0.979794
O O5 0.398533 0.107551 0.806799
O O6 0.205072 0.176669 0.872808
O O7 0.492177 0.229659 0.874486
O O8 0.413338 0.118804 0.943481
O O9 0.416296 0.854190 0.829172
O O10 0.656498 0.925436 0.768223
O O11 0.467217 0.850695 0.697883
O O12 0.382992 0.973417 0.757410
O O13 0.750000 0.250000 0.103114
O O14 0.615752 0.131757 0.041928
O O15 0.683824 0.073089 0.925236
O O16 0.500000 0.000000 0.000000
O O17 0.049239 0.868687 0.069345
#
# Coordination Sequence:
#
# PCOD9430206 Si02
#       8
#     8   8   8   8   8   8   8   8
#     4   9  18  36  63  85 120 158 203 253 311 370
#     4  10  21  40  62  90 129 155 204 273 327 353
#     4  10  21  41  64  87 121 167 214 253 315 377
#     4  10  23  42  62  89 134 170 205 266 323 384
#     4  11  24  38  64  98 127 162 214 267 318 380
#     4  10  20  42  62  88 119 166 212 265 307 377
#     4  10  19  35  64  92 121 159 209 250 319 385
#     4  10  22  39  63  92 125 167 205 261 322 386
#
# _framework density 20.171557
#
# number of rings (size 3 to 8) (size 9 to 14) (size 15 to 20)
#    0.000    2.000    2.500    2.250    5.250    2.000 
#    6.750    0.000    0.000    6.000    0.000    0.000 
#    0.000    0.000    0.000    0.000    0.000    0.000 
#
# Total GULP energy -356616.355355 kJ/mol
# GULP energy per Si atom -5572.130552 kJ/mol
# Density = 2.012565 g / cm^3
# Si number density = 20.171557 Si / 1000 Ang^3
#
#
#
# Elastic Constant Matrix: (Units=GPa)
#
#
# Indices 1 2 3 4 5 6 
#
# 1 52.6952 44.1788 43.1116 0.0000 0.0000 0.0000
# 2 44.1788 166.2756 40.4939 0.0000 0.0000 0.0000
# 3 43.1116 40.4939 73.5798 0.0000 0.0000 0.0000
# 4 0.0000 0.0000 0.0000 25.1853 0.0000 0.0000
# 5 0.0000 0.0000 0.0000 0.0000 30.5132 0.0000
# 6 0.0000 0.0000 0.0000 0.0000 0.0000 27.2274
#
#
#
# Elastic Compliance Matrix: (Units=1/GPa)
#
#
# Indices 1 2 3 4 5 6 
#
# 1 0.040766 -0.005791 -0.020699 0.000000 0.000000 0.000000
# 2 -0.005791 0.007767 -0.000882 0.000000 0.000000 0.000000
# 3 -0.020699 -0.000882 0.026204 0.000000 0.000000 0.000000
# 4 0.000000 0.000000 0.000000 0.039706 0.000000 0.000000
# 5 0.000000 0.000000 0.000000 0.000000 0.032773 0.000000
# 6 0.000000 0.000000 0.000000 0.000000 0.000000 0.036728
#
#
# Mechanical properties :
#
#
# Convention : Reuss Voigt Hill
#
# Bulk Modulus (GPa) = 50.01295 60.90210 55.45753
# Shear Modulus (GPa) = 20.37901 27.56960 23.97431
#
# Velocity S-wave (km/s) = 3.18195 3.70098 3.45123
# Velocity P-wave (km/s) = 6.19252 6.96567 6.59044
#
# Compressibility (1/GPa) = 0.01999482
#
# Stress axis : x y z
#
# Youngs Moduli (GPa) = 24.53028 128.74296 38.16248
#
# Poissons Ratio (x) = 0.74549 0.78991
# Poissons Ratio (y) = 0.14204 0.03366
# Poissons Ratio (z) = 0.50774 0.11355
#
# Static dielectric constant tensor:
#      x y z
#    x 1.759610 0.000000 0.000000 
#    y 0.000000 1.782420 0.000000 
#    z 0.000000 0.000000 1.732270 
# 
# From -- ./inp_files/18382.got.cif
#   From: 2010.05.17/outbox.cif.g08.bks.cpg/sg56_10_cif.got.tgz:18382.got - 2010.06.03 13:42:01.
