data_PCOD9430676
_publ_section_title
;
Structure prediction by ZEFSAII (Michael W. Deem and Ramdas Pophale) SiO2 
 PCOD9430676
Probable space group: P C C N
;
_chemical_formula_sum "Si O2"
_cell_formula_units_Z 36
_cell_length_a 9.508941
_cell_length_b 9.986533
_cell_length_c 17.314665
_cell_angle_alpha 90.000000
_cell_angle_beta 90.000000
_cell_angle_gamma 90.000000
_cell_volume 1644.224017
_symmetry_space_group_name_H-M "P C C N"
_symmetry_group_IT_number 56
_symmetry_cell_setting 'orthorhombic'
loop_
_space_group_symop_operation_xyz
x,y,z
1/2-x,1/2-y,z
1/2+x,-y,1/2-z
-x,1/2+y,1/2-z
-x,-y,-z
1/2+x,1/2+y,-z
1/2-x,y,1/2+z
x,1/2-y,1/2+z
loop_
_atom_site_type_symbol
_atom_site_label
_atom_site_fract_x
_atom_site_fract_y
_atom_site_fract_z
Si Si1 0.246836 0.554068 0.850992
Si Si2 0.327528 0.877553 0.027466
Si Si3 0.750000 0.750000 0.691538
Si Si4 0.874468 0.831429 0.461494
Si Si5 0.510880 0.252639 0.192852
O O1 0.234850 0.600668 0.940730
O O2 0.250915 0.395032 0.848593
O O3 0.381830 0.622730 0.811277
O O4 0.110725 0.620608 0.809853
O O5 0.250000 0.750000 0.063186
O O6 0.492642 0.848668 0.017084
O O7 0.320942 0.022712 0.065709
O O8 0.606225 0.746984 0.741928
O O9 0.750000 0.750000 0.498983
O O10 0.928026 0.750627 0.387965
#
# Coordination Sequence:
#
# PCOD9430676 Si02
#       5
#     8   8   4   8   8
#     4  10  21  39  59  82 118 152 188 235 292 337
#     4  10  20  39  59  81 117 152 185 233 292 342
#     4  12  22  34  64  86 108 152 202 232 276 346
#     4  10  20  36  61  84 111 149 189 236 284 340
#     4  10  20  41  58  81 118 152 184 241 290 329
#
# _framework density 21.894825999999998
#
# number of rings (size 3 to 8) (size 9 to 14) (size 15 to 20)
#    0.000    1.778    5.556    1.333    1.556    0.889 
#    0.000    0.000    4.889    0.000    0.000    0.000 
#    0.000    0.000    0.000    0.000    0.000    0.000 
#
# Total GULP energy -201102.711602 kJ/mol
# GULP energy per Si atom -5586.186433 kJ/mol
# Density = 2.184499 g / cm^3
# Si number density = 21.894826 Si / 1000 Ang^3
#
#
#
# Elastic Constant Matrix: (Units=GPa)
#
#
# Indices 1 2 3 4 5 6 
#
# 1 115.6088 69.9676 19.9171 0.0000 0.0000 0.0000
# 2 69.9676 167.2233 16.2449 0.0000 0.0000 0.0000
# 3 19.9171 16.2449 20.8158 0.0000 0.0000 0.0000
# 4 0.0000 0.0000 0.0000 -313.1816 0.0000 0.0000
# 5 0.0000 0.0000 0.0000 0.0000 -43.5833 0.0000
# 6 0.0000 0.0000 0.0000 0.0000 0.0000 29.9550
#
#
#
# Elastic Compliance Matrix: (Units=1/GPa)
#
#
# Indices 1 2 3 4 5 6 
#
# 1 0.012922 -0.004551 -0.008813 0.000000 0.000000 0.000000
# 2 -0.004551 0.008073 -0.001946 0.000000 0.000000 0.000000
# 3 -0.008813 -0.001946 0.057992 0.000000 0.000000 0.000000
# 4 0.000000 0.000000 0.000000 -0.003193 0.000000 0.000000
# 5 0.000000 0.000000 0.000000 0.000000 -0.022945 0.000000
# 6 0.000000 0.000000 0.000000 0.000000 0.000000 0.033383
#
#
# Mechanical properties :
#
#
# Convention : Reuss Voigt Hill
#
# Bulk Modulus (GPa) = 20.67500 57.32302 38.99901
# Shear Modulus (GPa) = 37.60094 -52.19410 -7.29658
#
# Velocity S-wave (km/s) = 4.14858 -4.88777 -1.82751
# Velocity P-wave (km/s) = 5.69307 2.36977 3.66027
#
# Compressibility (1/GPa) = 0.04836760
#
# Stress axis : x y z
#
# Youngs Moduli (GPa) = 77.38577 123.86789 17.24378
#
# Poissons Ratio (x) = 0.56368 0.15197
# Poissons Ratio (y) = 0.35216 0.03356
# Poissons Ratio (z) = 0.68200 0.24107
#
# Static dielectric constant tensor:
#      x y z
#    x 1.802010 0.000000 0.000000 
#    y 0.000000 1.816120 0.000000 
#    z 0.000000 0.000000 1.810870 
# 
# From -- ./inp_files/17851.got.cif
#   From: 2010.05.17/outbox.cif.g08.bks.cpg/sg56_9_cif.got.tgz:17851.got - 2010.06.03 13:42:01.
