data_PCOD9430986
_publ_section_title
;
Structure prediction by ZEFSAII (Michael W. Deem and Ramdas Pophale) SiO2 
 PCOD9430986
Probable space group: P C C N
;
_chemical_formula_sum "Si O2"
_cell_formula_units_Z 32
_cell_length_a 7.674451
_cell_length_b 5.097134
_cell_length_c 36.917635
_cell_angle_alpha 90.000000
_cell_angle_beta 90.000000
_cell_angle_gamma 90.000000
_cell_volume 1444.133160
_symmetry_space_group_name_H-M "P C C N"
_symmetry_group_IT_number 56
_symmetry_cell_setting 'orthorhombic'
loop_
_space_group_symop_operation_xyz
x,y,z
1/2-x,1/2-y,z
1/2+x,-y,1/2-z
-x,1/2+y,1/2-z
-x,-y,-z
1/2+x,1/2+y,-z
1/2-x,y,1/2+z
x,1/2-y,1/2+z
loop_
_atom_site_type_symbol
_atom_site_label
_atom_site_fract_x
_atom_site_fract_y
_atom_site_fract_z
Si Si1 0.037768 0.235684 0.648114
Si Si2 0.460511 0.768711 0.606500
Si Si3 0.130020 0.491551 0.466434
Si Si4 0.053516 0.141818 0.729387
O O1 0.250000 0.250000 0.647243
O O2 0.984144 0.528543 0.637855
O O3 0.985262 0.150247 0.688238
O O4 0.980142 0.021557 0.618285
O O5 0.250000 0.750000 0.603946
O O6 0.532378 0.898411 0.570055
O O7 0.250000 0.250000 0.476023
O O8 0.000000 0.500000 0.500000
O O9 0.250000 0.750000 0.462086
O O10 0.250000 0.250000 0.728566
O O11 0.954258 0.351588 0.754408
#
# Coordination Sequence:
#
# PCOD9430986 Si02
#       4
#     8   8   8   8
#     4   9  19  36  61  87 118 161 206 248 303 373
#     4  10  20  39  64  89 117 159 208 253 302 362
#     4  12  26  44  66  95 129 165 203 251 305 366
#     4  11  22  39  61  89 123 163 209 256 307 367
#
# _framework density 22.158622000000001
#
# number of rings (size 3 to 8) (size 9 to 14) (size 15 to 20)
#    0.000    1.500    0.000    5.250    0.000    7.000 
#    0.000   12.500    0.000    0.000    0.000    0.000 
#    0.000    0.000    0.000    0.000    0.000    0.000 
#
# Total GULP energy -178879.562489 kJ/mol
# GULP energy per Si atom -5589.986328 kJ/mol
# Density = 2.210819 g / cm^3
# Si number density = 22.158622 Si / 1000 Ang^3
#
#
#
# Elastic Constant Matrix: (Units=GPa)
#
#
# Indices 1 2 3 4 5 6 
#
# 1 53.0672 38.0677 31.5547 0.0000 0.0000 0.0000
# 2 38.0677 154.8885 46.7696 0.0000 0.0000 0.0000
# 3 31.5547 46.7696 146.5956 0.0000 0.0000 0.0000
# 4 0.0000 0.0000 0.0000 41.2622 0.0000 0.0000
# 5 0.0000 0.0000 0.0000 0.0000 -2.3839 0.0000
# 6 0.0000 0.0000 0.0000 0.0000 0.0000 33.8921
#
#
#
# Elastic Compliance Matrix: (Units=1/GPa)
#
#
# Indices 1 2 3 4 5 6 
#
# 1 0.024586 -0.004918 -0.003723 0.000000 0.000000 0.000000
# 2 -0.004918 0.008128 -0.001535 0.000000 0.000000 0.000000
# 3 -0.003723 -0.001535 0.008112 0.000000 0.000000 0.000000
# 4 0.000000 0.000000 0.000000 0.024235 0.000000 0.000000
# 5 0.000000 0.000000 0.000000 0.000000 -0.419481 0.000000
# 6 0.000000 0.000000 0.000000 0.000000 0.000000 0.029505
#
#
# Mechanical properties :
#
#
# Convention : Reuss Voigt Hill
#
# Bulk Modulus (GPa) = 48.84026 65.25947 57.04986
# Shear Modulus (GPa) = -16.79339 30.43137 6.81899
#
# Velocity S-wave (km/s) = -2.75593 3.70988 1.75614
# Velocity P-wave (km/s) = 3.45864 6.91852 5.46937
#
# Compressibility (1/GPa) = 0.02047491
#
# Stress axis : x y z
#
# Youngs Moduli (GPa) = 40.67355 123.02436 123.26735
#
# Poissons Ratio (x) = 0.60509 0.45892
# Poissons Ratio (y) = 0.20005 0.18917
# Poissons Ratio (z) = 0.15143 0.18879
#
# Static dielectric constant tensor:
#      x y z
#    x 1.805790 0.000000 0.000000 
#    y 0.000000 1.754120 0.000000 
#    z 0.000000 0.000000 5.049340 
# 
# From -- ./inp_files/23045.got.cif
#   From: 2010.05.17/outbox.cif.g08.bks.cpg/sg56_12_cif.got.tgz:23045.got - 2010.06.03 13:42:01.
