data_PCOD9430039
_publ_section_title
;
Structure prediction by ZEFSAII (Michael W. Deem and Ramdas Pophale) SiO2 
 PCOD9430039
Probable space group: P C C N
;
_chemical_formula_sum "Si O2"
_cell_formula_units_Z 56
_cell_length_a 20.717154
_cell_length_b 5.595371
_cell_length_c 25.295086
_cell_angle_alpha 90.000000
_cell_angle_beta 90.000000
_cell_angle_gamma 90.000000
_cell_volume 2932.210484
_symmetry_space_group_name_H-M "P C C N"
_symmetry_group_IT_number 56
_symmetry_cell_setting 'orthorhombic'
loop_
_space_group_symop_operation_xyz
x,y,z
1/2-x,1/2-y,z
1/2+x,-y,1/2-z
-x,1/2+y,1/2-z
-x,-y,-z
1/2+x,1/2+y,-z
1/2-x,y,1/2+z
x,1/2-y,1/2+z
loop_
_atom_site_type_symbol
_atom_site_label
_atom_site_fract_x
_atom_site_fract_y
_atom_site_fract_z
Si Si1 0.533711 0.570519 0.680088
Si Si2 0.215073 0.997280 0.693407
Si Si3 0.215835 0.498187 0.065852
Si Si4 0.085593 0.659279 0.035035
Si Si5 0.940638 0.036248 0.871585
Si Si6 0.587610 0.787596 0.780174
Si Si7 0.533236 0.153866 0.075265
O O1 0.582884 0.664482 0.723548
O O2 0.484567 0.382893 0.707329
O O3 0.565344 0.460789 0.627273
O O4 0.484478 0.775611 0.660152
O O5 0.250000 0.250000 0.708122
O O6 0.142579 0.013672 0.716379
O O7 0.250000 0.750000 0.709422
O O8 0.210245 0.994037 0.629628
O O9 0.250000 0.750000 0.049658
O O10 0.145255 0.483463 0.039850
O O11 0.250000 0.250000 0.052043
O O12 0.018543 0.540426 0.053938
O O13 0.100237 0.850161 0.081078
O O14 0.075215 0.734965 0.974617
O O15 0.899035 0.893717 0.828685
O O16 0.990194 0.865704 0.901949
#
# Coordination Sequence:
#
# PCOD9430039 Si02
#       7
#     8   8   8   8   8   8   8
#     4  10  20  34  54  86 113 151 191 248 303 356
#     4  10  23  37  56  84 120 159 197 244 300 364
#     4  10  22  37  56  84 117 152 196 241 295 355
#     4  10  20  35  57  83 117 150 189 240 298 359
#     4  10  19  32  56  86 115 151 187 243 300 369
#     4  11  21  34  57  84 119 154 202 249 304 366
#     4   9  20  35  54  86 115 148 190 238 301 358
#
# _framework density 19.098219
#
# number of rings (size 3 to 8) (size 9 to 14) (size 15 to 20)
#    0.000    2.000    1.429    3.000   10.000    0.000 
#    0.000    0.000    0.000    0.857    0.000    0.000 
#    0.000    0.000    0.000    0.000    0.000    0.000 
#
# Total GULP energy -312330.219459 kJ/mol
# GULP energy per Si atom -5577.325347 kJ/mol
# Density = 1.905475 g / cm^3
# Si number density = 19.098219 Si / 1000 Ang^3
#
#
#
# Elastic Constant Matrix: (Units=GPa)
#
#
# Indices 1 2 3 4 5 6 
#
# 1 44.9957 10.5709 35.9485 0.0000 0.0000 0.0000
# 2 10.5709 68.0456 41.2921 0.0000 0.0000 0.0000
# 3 35.9485 41.2921 121.3119 0.0000 0.0000 0.0000
# 4 0.0000 0.0000 0.0000 29.8251 0.0000 0.0000
# 5 0.0000 0.0000 0.0000 0.0000 -36.6107 0.0000
# 6 0.0000 0.0000 0.0000 0.0000 0.0000 23.8482
#
#
#
# Elastic Compliance Matrix: (Units=1/GPa)
#
#
# Indices 1 2 3 4 5 6 
#
# 1 0.029162 0.000899 -0.008948 0.000000 0.000000 0.000000
# 2 0.000899 0.018549 -0.006580 0.000000 0.000000 0.000000
# 3 -0.008948 -0.006580 0.013135 0.000000 0.000000 0.000000
# 4 0.000000 0.000000 0.000000 0.033529 0.000000 0.000000
# 5 0.000000 0.000000 0.000000 0.000000 -0.027314 0.000000
# 6 0.000000 0.000000 0.000000 0.000000 0.000000 0.041932
#
#
# Mechanical properties :
#
#
# Convention : Reuss Voigt Hill
#
# Bulk Modulus (GPa) = 31.65723 45.55289 38.60506
# Shear Modulus (GPa) = 33.60702 13.18197 23.39450
#
# Velocity S-wave (km/s) = 4.19942 2.63005 3.50374
# Velocity P-wave (km/s) = 6.33447 5.75557 6.05195
#
# Compressibility (1/GPa) = 0.03158836
#
# Stress axis : x y z
#
# Youngs Moduli (GPa) = 34.29175 53.90986 76.13536
#
# Poissons Ratio (x) = -0.04849 0.68123
# Poissons Ratio (y) = -0.03084 0.50100
# Poissons Ratio (z) = 0.30683 0.35475
#
# Static dielectric constant tensor:
#      x y z
#    x 1.650480 0.000000 0.000000 
#    y 0.000000 1.770630 0.000000 
#    z 0.000000 0.000000 1.669300 
# 
# From -- ./inp_files/20133.got.cif
#   From: 2010.05.17/outbox.cif.g08.bks.cpg/sg56_11_cif.got.tgz:20133.got - 2010.06.03 13:42:01.
