data_PCOD9430822
_publ_section_title
;
Structure prediction by ZEFSAII (Michael W. Deem and Ramdas Pophale) SiO2 
 PCOD9430822
Probable space group: P C C N
;
_chemical_formula_sum "Si O2"
_cell_formula_units_Z 48
_cell_length_a 21.824063
_cell_length_b 8.974369
_cell_length_c 10.446848
_cell_angle_alpha 90.000000
_cell_angle_beta 90.000000
_cell_angle_gamma 90.000000
_cell_volume 2046.090340
_symmetry_space_group_name_H-M "P C C N"
_symmetry_group_IT_number 56
_symmetry_cell_setting 'orthorhombic'
loop_
_space_group_symop_operation_xyz
x,y,z
1/2-x,1/2-y,z
1/2+x,-y,1/2-z
-x,1/2+y,1/2-z
-x,-y,-z
1/2+x,1/2+y,-z
1/2-x,y,1/2+z
x,1/2-y,1/2+z
loop_
_atom_site_type_symbol
_atom_site_label
_atom_site_fract_x
_atom_site_fract_y
_atom_site_fract_z
Si Si1 0.750000 0.750000 0.951072
Si Si2 0.750000 0.250000 0.262189
Si Si3 0.639064 0.192204 0.572875
Si Si4 0.870223 0.917507 0.887618
Si Si5 0.574054 0.606231 0.390418
Si Si6 0.442263 0.933180 0.840800
Si Si7 0.193530 0.532296 0.081280
O O1 0.805777 0.828104 0.875936
O O2 0.782977 0.602621 0.010732
O O3 0.807876 0.207937 0.177542
O O4 0.752343 0.397196 0.348846
O O5 0.577126 0.263447 0.628135
O O6 0.662691 0.320855 0.475851
O O7 0.632560 0.034263 0.504829
O O8 0.917745 0.781824 0.908591
O O9 0.896029 0.005332 0.765300
O O10 0.566270 0.531605 0.530668
O O11 0.514195 0.565813 0.309449
O O12 0.638215 0.540531 0.337741
#
# Coordination Sequence:
#
# PCOD9430822 Si02
#       7
#     4   4   8   8   8   8   8
#     4  10  20  38  58  84 120 158 208 258 318 388
#     4  12  22  36  60  88 124 164 212 270 330 394
#     4  11  23  38  60  91 124 165 215 263 330 403
#     4  11  23  40  66  94 129 174 220 276 338 400
#     4   9  23  42  63  92 126 168 226 277 334 405
#     4  10  22  43  64  90 131 172 218 282 336 397
#     4  10  21  39  59  85 122 164 208 266 327 388
#
# _framework density 23.459377
#
# number of rings (size 3 to 8) (size 9 to 14) (size 15 to 20)
#    0.000    1.667    0.000    4.500    0.000    8.667 
#    0.000   14.167    0.000    0.000    0.000    0.000 
#    0.000    0.000    0.000    0.000    0.000    0.000 
#
# Total GULP energy -267488.071412 kJ/mol
# GULP energy per Si atom -5572.668154 kJ/mol
# Density = 2.340598 g / cm^3
# Si number density = 23.459377 Si / 1000 Ang^3
#
#
#
# Elastic Constant Matrix: (Units=GPa)
#
#
# Indices 1 2 3 4 5 6 
#
# 1 105.5078 50.6363 8.3329 0.0000 0.0000 0.0000
# 2 50.6363 168.0838 32.9809 0.0000 0.0000 0.0000
# 3 8.3329 32.9809 28.2427 0.0000 0.0000 0.0000
# 4 0.0000 0.0000 0.0000 4.6131 0.0000 0.0000
# 5 0.0000 0.0000 0.0000 0.0000 23.1304 0.0000
# 6 0.0000 0.0000 0.0000 0.0000 0.0000 32.5198
#
#
#
# Elastic Compliance Matrix: (Units=1/GPa)
#
#
# Indices 1 2 3 4 5 6 
#
# 1 0.011094 -0.003503 0.000817 0.000000 0.000000 0.000000
# 2 -0.003503 0.008824 -0.009271 0.000000 0.000000 0.000000
# 3 0.000817 -0.009271 0.045992 0.000000 0.000000 0.000000
# 4 0.000000 0.000000 0.000000 0.216774 0.000000 0.000000
# 5 0.000000 0.000000 0.000000 0.000000 0.043233 0.000000
# 6 0.000000 0.000000 0.000000 0.000000 0.000000 0.030750
#
#
# Mechanical properties :
#
#
# Convention : Reuss Voigt Hill
#
# Bulk Modulus (GPa) = 23.81083 53.97050 38.89066
# Shear Modulus (GPa) = 12.67171 26.04495 19.35833
#
# Velocity S-wave (km/s) = 2.32665 3.33560 2.87572
# Velocity P-wave (km/s) = 4.17008 6.15556 5.25740
#
# Compressibility (1/GPa) = 0.04199770
#
# Stress axis : x y z
#
# Youngs Moduli (GPa) = 90.13534 113.33231 21.74283
#
# Poissons Ratio (x) = 0.39695 -0.01776
# Poissons Ratio (y) = 0.31570 0.20157
# Poissons Ratio (z) = -0.07362 1.05065
#
# Static dielectric constant tensor:
#      x y z
#    x 1.964660 0.000000 0.000000 
#    y 0.000000 1.922600 0.000000 
#    z 0.000000 0.000000 1.979520 
# 
# From -- ./inp_files/8893.got.cif
#   From: 2010.05.17/outbox.cif.g08.bks.cpg/sg56_5_cif.got.tgz:8893.got - 2010.06.03 13:42:01.
