data_PCOD9430272
_publ_section_title
;
Structure prediction by ZEFSAII (Michael W. Deem and Ramdas Pophale) SiO2 
 PCOD9430272
Probable space group: P C C N
;
_chemical_formula_sum "Si O2"
_cell_formula_units_Z 60
_cell_length_a 16.592006
_cell_length_b 9.204398
_cell_length_c 18.783056
_cell_angle_alpha 90.000000
_cell_angle_beta 90.000000
_cell_angle_gamma 90.000000
_cell_volume 2868.537547
_symmetry_space_group_name_H-M "P C C N"
_symmetry_group_IT_number 56
_symmetry_cell_setting 'orthorhombic'
loop_
_space_group_symop_operation_xyz
x,y,z
1/2-x,1/2-y,z
1/2+x,-y,1/2-z
-x,1/2+y,1/2-z
-x,-y,-z
1/2+x,1/2+y,-z
1/2-x,y,1/2+z
x,1/2-y,1/2+z
loop_
_atom_site_type_symbol
_atom_site_label
_atom_site_fract_x
_atom_site_fract_y
_atom_site_fract_z
Si Si1 0.933902 0.548828 0.058782
Si Si2 0.636887 0.378742 0.310117
Si Si3 0.986155 0.331993 0.376460
Si Si4 0.079264 0.599966 0.332442
Si Si5 0.027522 0.153111 0.647008
Si Si6 0.340685 0.243528 0.032240
Si Si7 0.750000 0.250000 0.418464
Si Si8 0.380790 0.567626 0.995565
O O1 0.964705 0.694105 0.096314
O O2 0.945972 0.421188 0.115066
O O3 0.853595 0.602288 0.019044
O O4 0.000000 0.500000 0.000000
O O5 0.588073 0.234014 0.332693
O O6 0.649571 0.381445 0.225492
O O7 0.580741 0.519390 0.324364
O O8 0.710552 0.369602 0.365143
O O9 0.953235 0.411152 0.447573
O O10 0.039880 0.440615 0.331415
O O11 0.101624 0.617770 0.415318
O O12 0.008393 0.712166 0.310021
O O13 0.088009 0.224367 0.589264
O O14 0.250000 0.250000 0.061314
O O15 0.355581 0.398671 0.994801
O O16 0.813365 0.329882 0.469067
#
# Coordination Sequence:
#
# PCOD9430272 Si02
#       8
#     8   8   8   8   8   8   4   8
#     4   9  18  33  54  84 122 157 198 254 305 361
#     4  10  23  40  61  88 126 169 199 252 312 388
#     4  10  19  37  60  87 121 156 202 257 310 361
#     4  12  21  36  65  94 120 155 216 265 307 357
#     4  10  21  37  59  91 122 161 207 253 309 372
#     4  11  20  33  57  87 122 158 202 255 314 370
#     4  10  24  44  58  84 130 168 208 244 326 392
#     4  11  21  36  62  89 117 161 205 264 305 370
#
# _framework density 20.916582999999999
#
# number of rings (size 3 to 8) (size 9 to 14) (size 15 to 20)
#    0.000    1.600    2.667    3.600    0.000    3.733 
#    0.000    0.000    0.000    2.400    0.000    0.000 
#    0.000    0.000    0.000    0.000    0.000    0.000 
#
# Total GULP energy -334447.852052 kJ/mol
# GULP energy per Si atom -5574.130868 kJ/mol
# Density = 2.086898 g / cm^3
# Si number density = 20.916583 Si / 1000 Ang^3
#
#
#
# Elastic Constant Matrix: (Units=GPa)
#
#
# Indices 1 2 3 4 5 6 
#
# 1 54.1483 14.5493 16.0445 0.0000 0.0000 0.0000
# 2 14.5493 107.2500 17.2481 0.0000 0.0000 0.0000
# 3 16.0445 17.2481 88.7252 0.0000 0.0000 0.0000
# 4 0.0000 0.0000 0.0000 16.6326 0.0000 0.0000
# 5 0.0000 0.0000 0.0000 0.0000 15.7399 0.0000
# 6 0.0000 0.0000 0.0000 0.0000 0.0000 26.7012
#
#
#
# Elastic Compliance Matrix: (Units=1/GPa)
#
#
# Indices 1 2 3 4 5 6 
#
# 1 0.020004 -0.002201 -0.003190 0.000000 0.000000 0.000000
# 2 -0.002201 0.009867 -0.001520 0.000000 0.000000 0.000000
# 3 -0.003190 -0.001520 0.012143 0.000000 0.000000 0.000000
# 4 0.000000 0.000000 0.000000 0.060123 0.000000 0.000000
# 5 0.000000 0.000000 0.000000 0.000000 0.063533 0.000000
# 6 0.000000 0.000000 0.000000 0.000000 0.000000 0.037451
#
#
# Mechanical properties :
#
#
# Convention : Reuss Voigt Hill
#
# Bulk Modulus (GPa) = 35.46952 38.42305 36.94629
# Shear Modulus (GPa) = 22.09063 25.30019 23.69541
#
# Velocity S-wave (km/s) = 3.25334 3.48167 3.36944
# Velocity P-wave (km/s) = 5.57734 5.87982 5.73057
#
# Compressibility (1/GPa) = 0.02819322
#
# Stress axis : x y z
#
# Youngs Moduli (GPa) = 49.98942 101.34752 82.35158
#
# Poissons Ratio (x) = 0.22304 0.26267
# Poissons Ratio (y) = 0.11002 0.12519
# Poissons Ratio (z) = 0.15945 0.15407
#
# Static dielectric constant tensor:
#      x y z
#    x 1.710620 0.000000 0.000000 
#    y 0.000000 1.615040 0.000000 
#    z 0.000000 0.000000 1.703760 
# 
# From -- ./inp_files/16668.got.cif
#   From: 2010.05.17/outbox.cif.g08.bks.cpg/sg56_9_cif.got.tgz:16668.got - 2010.06.03 13:42:01.
