data_PCOD9430582
_publ_section_title
;
Structure prediction by ZEFSAII (Michael W. Deem and Ramdas Pophale) SiO2 
 PCOD9430582
Probable space group: P C C N
;
_chemical_formula_sum "Si O2"
_cell_formula_units_Z 64
_cell_length_a 8.363702
_cell_length_b 24.573588
_cell_length_c 13.874979
_cell_angle_alpha 90.000000
_cell_angle_beta 90.000000
_cell_angle_gamma 90.000000
_cell_volume 2851.671253
_symmetry_space_group_name_H-M "P C C N"
_symmetry_group_IT_number 56
_symmetry_cell_setting 'orthorhombic'
loop_
_space_group_symop_operation_xyz
x,y,z
1/2-x,1/2-y,z
1/2+x,-y,1/2-z
-x,1/2+y,1/2-z
-x,-y,-z
1/2+x,1/2+y,-z
1/2-x,y,1/2+z
x,1/2-y,1/2+z
loop_
_atom_site_type_symbol
_atom_site_label
_atom_site_fract_x
_atom_site_fract_y
_atom_site_fract_z
Si Si1 0.859188 0.297089 0.856302
Si Si2 0.146769 0.431881 0.967694
Si Si3 0.678050 0.445915 0.588368
Si Si4 0.320632 0.159253 0.805674
Si Si5 0.104479 0.880049 0.048854
Si Si6 0.789238 0.936356 0.832760
Si Si7 0.898634 0.719660 0.549885
Si Si8 0.971389 0.040760 0.777804
O O1 0.750000 0.250000 0.811002
O O2 0.747293 0.344693 0.899056
O O3 0.004459 0.315738 0.789633
O O4 0.962233 0.264289 0.937230
O O5 0.271624 0.430781 0.054063
O O6 0.975410 0.431769 0.021204
O O7 0.179633 0.488664 0.914823
O O8 0.154720 0.383048 0.893807
O O9 0.823118 0.416354 0.536155
O O10 0.650821 0.432523 0.700038
O O11 0.284702 0.122859 0.714200
O O12 0.181788 0.198422 0.847893
O O13 0.028178 0.919825 0.129745
O O14 0.981625 0.834433 0.011502
O O15 0.631725 0.963080 0.784631
O O16 0.925149 0.979772 0.807990
O O17 0.750000 0.750000 0.499510
#
# Coordination Sequence:
#
# PCOD9430582 Si02
#       8
#     8   8   8   8   8   8   8   8
#     4   9  20  36  65  88 110 157 215 250 306 367
#     4  10  20  35  57  87 127 167 198 235 305 375
#     4  10  20  35  57  87 128 165 200 240 293 381
#     4  11  19  38  62  88 124 162 198 254 319 351
#     4  11  19  38  62  90 120 164 202 253 311 364
#     4  11  23  37  57  89 129 168 200 245 299 377
#     4   9  20  38  61  88 114 153 208 261 307 361
#     4  11  23  37  57  89 130 163 203 241 301 374
#
# _framework density 22.442979000000001
#
# number of rings (size 3 to 8) (size 9 to 14) (size 15 to 20)
#    0.000    1.750    5.000    0.000    1.750    0.000 
#    2.250    1.875    0.000   22.500    0.000    0.000 
#    0.000    0.000    0.000    0.000    0.000    0.000 
#
# Total GULP energy -357421.895365 kJ/mol
# GULP energy per Si atom -5584.717115 kJ/mol
# Density = 2.239190 g / cm^3
# Si number density = 22.442979 Si / 1000 Ang^3
#
#
#
# Elastic Constant Matrix: (Units=GPa)
#
#
# Indices 1 2 3 4 5 6 
#
# 1 76.7823 17.4559 -0.0295 0.0000 0.0000 0.0000
# 2 17.4559 70.1868 7.9397 0.0000 0.0000 0.0000
# 3 -0.0295 7.9397 71.4220 0.0000 0.0000 0.0000
# 4 0.0000 0.0000 0.0000 14.1527 0.0000 0.0000
# 5 0.0000 0.0000 0.0000 0.0000 13.2159 0.0000
# 6 0.0000 0.0000 0.0000 0.0000 0.0000 59.8056
#
#
#
# Elastic Compliance Matrix: (Units=1/GPa)
#
#
# Indices 1 2 3 4 5 6 
#
# 1 0.013815 -0.003480 0.000393 0.000000 0.000000 0.000000
# 2 -0.003480 0.015306 -0.001703 0.000000 0.000000 0.000000
# 3 0.000393 -0.001703 0.014191 0.000000 0.000000 0.000000
# 4 0.000000 0.000000 0.000000 0.070658 0.000000 0.000000
# 5 0.000000 0.000000 0.000000 0.000000 0.075667 0.000000
# 6 0.000000 0.000000 0.000000 0.000000 0.000000 0.016721
#
#
# Mechanical properties :
#
#
# Convention : Reuss Voigt Hill
#
# Bulk Modulus (GPa) = 29.64674 29.90260 29.77467
# Shear Modulus (GPa) = 22.00876 30.30315 26.15596
#
# Velocity S-wave (km/s) = 3.13493 3.67853 3.41756
# Velocity P-wave (km/s) = 5.13247 5.60311 5.37295
#
# Compressibility (1/GPa) = 0.03373052
#
# Stress axis : x y z
#
# Youngs Moduli (GPa) = 72.38393 65.33425 70.46842
#
# Poissons Ratio (x) = 0.22739 -0.02767
# Poissons Ratio (y) = 0.25192 0.12000
# Poissons Ratio (z) = -0.02842 0.11126
#
# Static dielectric constant tensor:
#      x y z
#    x 1.931600 0.000000 0.000000 
#    y 0.000000 1.840500 0.000000 
#    z 0.000000 0.000000 1.768570 
# 
# From -- ./inp_files/11050.got.cif
#   From: 2010.05.17/outbox.cif.g08.bks.cpg/sg56_6_cif.got.tgz:11050.got - 2010.06.03 13:42:01.
