data_PCOD9430423
_publ_section_title
;
Structure prediction by ZEFSAII (Michael W. Deem and Ramdas Pophale) SiO2 
 PCOD9430423
Probable space group: P C C N
;
_chemical_formula_sum "Si O2"
_cell_formula_units_Z 56
_cell_length_a 15.880655
_cell_length_b 15.068176
_cell_length_c 10.300664
_cell_angle_alpha 90.000000
_cell_angle_beta 90.000000
_cell_angle_gamma 90.000000
_cell_volume 2464.871687
_symmetry_space_group_name_H-M "P C C N"
_symmetry_group_IT_number 56
_symmetry_cell_setting 'orthorhombic'
loop_
_space_group_symop_operation_xyz
x,y,z
1/2-x,1/2-y,z
1/2+x,-y,1/2-z
-x,1/2+y,1/2-z
-x,-y,-z
1/2+x,1/2+y,-z
1/2-x,y,1/2+z
x,1/2-y,1/2+z
loop_
_atom_site_type_symbol
_atom_site_label
_atom_site_fract_x
_atom_site_fract_y
_atom_site_fract_z
Si Si1 0.532125 0.551197 0.732134
Si Si2 0.624446 0.388409 0.631464
Si Si3 0.391502 0.353648 0.025026
Si Si4 0.750000 0.250000 0.763111
Si Si5 0.550835 0.837641 0.984533
Si Si6 0.658294 0.910227 0.737224
Si Si7 0.662471 0.424727 0.360152
Si Si8 0.750000 0.750000 0.813514
O O1 0.577934 0.455620 0.729884
O O2 0.553304 0.601373 0.863052
O O3 0.570100 0.602916 0.608638
O O4 0.432070 0.555517 0.696853
O O5 0.684286 0.312408 0.686416
O O6 0.546013 0.345520 0.555408
O O7 0.669460 0.440297 0.513503
O O8 0.434852 0.263417 0.977739
O O9 0.309121 0.311515 0.095408
O O10 0.382829 0.420063 0.903925
O O11 0.804837 0.325456 0.836258
O O12 0.602411 0.875051 0.860456
O O13 0.712008 0.822343 0.717798
O O14 0.709632 0.996836 0.782669
#
# Coordination Sequence:
#
# PCOD9430423 Si02
#       8
#     8   8   8   4   8   8   8   4
#     4  11  22  44  73  98 131 184 230 276 344 420
#     4  11  23  47  69  95 132 191 228 270 348 433
#     4  11  24  37  65 106 131 165 227 294 334 393
#     4  12  28  42  68 106 140 174 240 302 336 394
#     4  10  19  43  71  93 131 180 227 273 345 420
#     4  11  22  42  66  99 135 174 225 290 339 407
#     4  11  24  48  70  96 136 186 227 278 345 417
#     4  10  24  40  60  94 140 184 212 268 358 416
#
# _framework density 22.719235000000001
#
# number of rings (size 3 to 8) (size 9 to 14) (size 15 to 20)
#    0.000    1.143    2.857    4.286    2.000    4.000 
#    2.571    0.000    0.000    0.000    0.000    0.000 
#    0.000    0.000    0.000    0.000    0.000    0.000 
#
# Total GULP energy -312389.320414 kJ/mol
# GULP energy per Si atom -5578.380722 kJ/mol
# Density = 2.266753 g / cm^3
# Si number density = 22.719235 Si / 1000 Ang^3
#
#
#
# Elastic Constant Matrix: (Units=GPa)
#
#
# Indices 1 2 3 4 5 6 
#
# 1 21.0637 21.7774 -9.5702 0.0000 0.0000 0.0000
# 2 21.7774 126.9785 13.5316 0.0000 0.0000 0.0000
# 3 -9.5702 13.5316 35.6856 0.0000 0.0000 0.0000
# 4 0.0000 0.0000 0.0000 5.1719 0.0000 0.0000
# 5 0.0000 0.0000 0.0000 0.0000 12.9539 0.0000
# 6 0.0000 0.0000 0.0000 0.0000 0.0000 35.0080
#
#
#
# Elastic Compliance Matrix: (Units=1/GPa)
#
#
# Indices 1 2 3 4 5 6 
#
# 1 0.075760 -0.015797 0.026307 0.000000 0.000000 0.000000
# 2 -0.015797 0.011501 -0.008597 0.000000 0.000000 0.000000
# 3 0.026307 -0.008597 0.038338 0.000000 0.000000 0.000000
# 4 0.000000 0.000000 0.000000 0.193354 0.000000 0.000000
# 5 0.000000 0.000000 0.000000 0.000000 0.077197 0.000000
# 6 0.000000 0.000000 0.000000 0.000000 0.000000 0.028565
#
#
# Mechanical properties :
#
#
# Convention : Reuss Voigt Hill
#
# Bulk Modulus (GPa) = 7.72651 26.13393 16.93022
# Shear Modulus (GPa) = 10.77519 21.15934 15.96726
#
# Velocity S-wave (km/s) = 2.18015 3.05510 2.65393
# Velocity P-wave (km/s) = 3.12180 4.89620 4.10600
#
# Compressibility (1/GPa) = 0.12942457
#
# Stress axis : x y z
#
# Youngs Moduli (GPa) = 13.19966 86.95108 26.08400
#
# Poissons Ratio (x) = 1.37353 -0.68620
# Poissons Ratio (y) = 0.20851 0.22425
# Poissons Ratio (z) = -0.34725 0.74755
#
# Static dielectric constant tensor:
#      x y z
#    x 2.219490 0.000000 0.000000 
#    y 0.000000 1.886760 0.000000 
#    z 0.000000 0.000000 1.888150 
# 
# From -- ./inp_files/7917.got.cif
#   From: 2010.05.17/outbox.cif.g08.bks.cpg/sg56_4_cif.got.tgz:7917.got - 2010.06.03 13:42:01.
