data_PCOD9430515
_publ_section_title
;
Structure prediction by ZEFSAII (Michael W. Deem and Ramdas Pophale) SiO2 
 PCOD9430515
Probable space group: P C C N
;
_chemical_formula_sum "Si O2"
_cell_formula_units_Z 40
_cell_length_a 17.849802
_cell_length_b 4.832094
_cell_length_c 17.450376
_cell_angle_alpha 90.000000
_cell_angle_beta 90.000000
_cell_angle_gamma 90.000000
_cell_volume 1505.128455
_symmetry_space_group_name_H-M "P C C N"
_symmetry_group_IT_number 56
_symmetry_cell_setting 'orthorhombic'
loop_
_space_group_symop_operation_xyz
x,y,z
1/2-x,1/2-y,z
1/2+x,-y,1/2-z
-x,1/2+y,1/2-z
-x,-y,-z
1/2+x,1/2+y,-z
1/2-x,y,1/2+z
x,1/2-y,1/2+z
loop_
_atom_site_type_symbol
_atom_site_label
_atom_site_fract_x
_atom_site_fract_y
_atom_site_fract_z
Si Si1 0.199855 0.524786 0.786798
Si Si2 0.675650 0.614090 0.946183
Si Si3 0.645830 0.084994 0.045059
Si Si4 0.961161 0.195394 0.729557
Si Si5 0.492663 0.204748 0.571676
O O1 0.250000 0.750000 0.744147
O O2 0.179636 0.640457 0.871824
O O3 0.116717 0.543211 0.751750
O O4 0.250000 0.250000 0.789853
O O5 0.750000 0.750000 0.906993
O O6 0.596073 0.711309 0.911411
O O7 0.669402 0.298068 0.977005
O O8 0.673267 0.782360 0.025433
O O9 0.555830 0.067247 0.050014
O O10 0.983523 0.437811 0.787613
O O11 0.968358 0.381835 0.652066
O O12 0.500000 0.000000 0.500000
#
# Coordination Sequence:
#
# PCOD9430515 Si02
#       5
#     8   8   8   8   8
#     4  11  21  37  63  94 125 169 228 286 336 398
#     4  11  20  33  54  87 125 161 203 262 329 394
#     4  10  20  34  56  87 125 160 204 266 332 389
#     4  11  25  45  67  95 136 182 227 285 354 419
#     4   9  22  41  65  93 126 170 221 271 333 408
#
# _framework density 26.575804000000002
#
# number of rings (size 3 to 8) (size 9 to 14) (size 15 to 20)
#    0.000    1.600    0.000    5.400    0.000   11.200 
#    0.000    3.000    0.000    0.000    0.000    0.000 
#    0.000    0.000    0.000    0.000    0.000    0.000 
#
# Total GULP energy -222685.434494 kJ/mol
# GULP energy per Si atom -5567.135862 kJ/mol
# Density = 2.651532 g / cm^3
# Si number density = 26.575804 Si / 1000 Ang^3
#
#
#
# Elastic Constant Matrix: (Units=GPa)
#
#
# Indices 1 2 3 4 5 6 
#
# 1 198.0657 34.5046 41.7364 0.0000 0.0000 0.0000
# 2 34.5046 122.4239 22.2183 0.0000 0.0000 0.0000
# 3 41.7364 22.2183 39.4266 0.0000 0.0000 0.0000
# 4 0.0000 0.0000 0.0000 8.3775 0.0000 0.0000
# 5 0.0000 0.0000 0.0000 0.0000 7.1450 0.0000
# 6 0.0000 0.0000 0.0000 0.0000 0.0000 43.0071
#
#
#
# Elastic Compliance Matrix: (Units=1/GPa)
#
#
# Indices 1 2 3 4 5 6 
#
# 1 0.006545 -0.000654 -0.006560 0.000000 0.000000 0.000000
# 2 -0.000654 0.009164 -0.004472 0.000000 0.000000 0.000000
# 3 -0.006560 -0.004472 0.034828 0.000000 0.000000 0.000000
# 4 0.000000 0.000000 0.000000 0.119368 0.000000 0.000000
# 5 0.000000 0.000000 0.000000 0.000000 0.139959 0.000000
# 6 0.000000 0.000000 0.000000 0.000000 0.000000 0.023252
#
#
# Mechanical properties :
#
#
# Convention : Reuss Voigt Hill
#
# Bulk Modulus (GPa) = 36.81168 61.87054 49.34111
# Shear Modulus (GPa) = 13.67827 29.13636 21.40732
#
# Velocity S-wave (km/s) = 2.27114 3.31471 2.84125
# Velocity P-wave (km/s) = 4.55621 6.16288 5.41941
#
# Compressibility (1/GPa) = 0.02716529
#
# Stress axis : x y z
#
# Youngs Moduli (GPa) = 152.78630 109.11903 28.71268
#
# Poissons Ratio (x) = 0.07138 0.18835
# Poissons Ratio (y) = 0.09995 0.12840
# Poissons Ratio (z) = 1.00226 0.48797
#
# Static dielectric constant tensor:
#      x y z
#    x 2.346140 0.000000 0.000000 
#    y 0.000000 2.231830 0.000000 
#    z 0.000000 0.000000 2.248690 
# 
# From -- ./inp_files/16469.got.cif
#   From: 2010.05.17/outbox.cif.g08.bks.cpg/sg56_9_cif.got.tgz:16469.got - 2010.06.03 13:42:01.
