data_PCOD9430198
_publ_section_title
;
Structure prediction by ZEFSAII (Michael W. Deem and Ramdas Pophale) SiO2 
 PCOD9430198
Probable space group: P C C N
;
_chemical_formula_sum "Si O2"
_cell_formula_units_Z 48
_cell_length_a 8.248494
_cell_length_b 17.782545
_cell_length_c 15.273786
_cell_angle_alpha 90.000000
_cell_angle_beta 90.000000
_cell_angle_gamma 90.000000
_cell_volume 2240.346952
_symmetry_space_group_name_H-M "P C C N"
_symmetry_group_IT_number 56
_symmetry_cell_setting 'orthorhombic'
loop_
_space_group_symop_operation_xyz
x,y,z
1/2-x,1/2-y,z
1/2+x,-y,1/2-z
-x,1/2+y,1/2-z
-x,-y,-z
1/2+x,1/2+y,-z
1/2-x,y,1/2+z
x,1/2-y,1/2+z
loop_
_atom_site_type_symbol
_atom_site_label
_atom_site_fract_x
_atom_site_fract_y
_atom_site_fract_z
Si Si1 0.189134 0.942294 0.047705
Si Si2 0.194057 0.635056 0.888237
Si Si3 0.116295 0.310086 0.878052
Si Si4 0.174736 0.398709 0.510216
Si Si5 0.194987 0.662485 0.203446
Si Si6 0.503225 0.238397 0.551682
O O1 0.249739 0.882960 0.118388
O O2 0.999160 0.923115 0.031815
O O3 0.290552 0.931394 0.957466
O O4 0.215506 0.029826 0.069597
O O5 0.235091 0.621020 0.788286
O O6 0.031369 0.684461 0.896284
O O7 0.341201 0.688217 0.923575
O O8 0.250000 0.250000 0.848918
O O9 0.201922 0.376295 0.933107
O O10 0.999513 0.336165 0.801476
O O11 0.007398 0.265303 0.950626
O O12 0.143231 0.320325 0.560874
O O13 0.250000 0.750000 0.206818
#
# Coordination Sequence:
#
# PCOD9430198 Si02
#       6
#     8   8   8   8   8   8
#     4  10  21  39  63  86 119 169 205 246 310 371
#     4  10  19  35  60  91 115 154 213 249 290 365
#     4  10  20  35  62  92 119 157 202 254 312 364
#     4   9  20  38  62  84 125 161 197 252 316 358
#     4  12  21  34  63  90 118 160 208 256 297 366
#     4   9  16  36  59  81 115 153 198 246 289 353
#
# _framework density 21.425252
#
# number of rings (size 3 to 8) (size 9 to 14) (size 15 to 20)
#    0.000    2.000    3.333    3.000    0.000    0.667 
#    0.000    9.167    0.000    0.000    0.000    0.000 
#    0.000    0.000    0.000    0.000    0.000    0.000 
#
# Total GULP energy -267519.672198 kJ/mol
# GULP energy per Si atom -5573.326504 kJ/mol
# Density = 2.137649 g / cm^3
# Si number density = 21.425252 Si / 1000 Ang^3
#
#
#
# Elastic Constant Matrix: (Units=GPa)
#
#
# Indices 1 2 3 4 5 6 
#
# 1 60.9100 15.0291 20.7148 0.0000 0.0000 0.0000
# 2 15.0291 81.6261 23.8234 0.0000 0.0000 0.0000
# 3 20.7148 23.8234 82.6651 0.0000 0.0000 0.0000
# 4 0.0000 0.0000 0.0000 3.1079 0.0000 0.0000
# 5 0.0000 0.0000 0.0000 0.0000 12.5120 0.0000
# 6 0.0000 0.0000 0.0000 0.0000 0.0000 14.0814
#
#
#
# Elastic Compliance Matrix: (Units=1/GPa)
#
#
# Indices 1 2 3 4 5 6 
#
# 1 0.018308 -0.002219 -0.003948 0.000000 0.000000 0.000000
# 2 -0.002219 0.013645 -0.003376 0.000000 0.000000 0.000000
# 3 -0.003948 -0.003376 0.014059 0.000000 0.000000 0.000000
# 4 0.000000 0.000000 0.000000 0.321760 0.000000 0.000000
# 5 0.000000 0.000000 0.000000 0.000000 0.079923 0.000000
# 6 0.000000 0.000000 0.000000 0.000000 0.000000 0.071016
#
#
# Mechanical properties :
#
#
# Convention : Reuss Voigt Hill
#
# Bulk Modulus (GPa) = 37.13931 38.25956 37.69943
# Shear Modulus (GPa) = 9.14455 16.98251 13.06353
#
# Velocity S-wave (km/s) = 2.06818 2.81844 2.47194
# Velocity P-wave (km/s) = 4.80366 5.33737 5.07753
#
# Compressibility (1/GPa) = 0.02692565
#
# Stress axis : x y z
#
# Youngs Moduli (GPa) = 54.62138 73.28744 71.12648
#
# Poissons Ratio (x) = 0.16259 0.28083
# Poissons Ratio (y) = 0.12118 0.24015
# Poissons Ratio (z) = 0.21566 0.24745
#
# Static dielectric constant tensor:
#      x y z
#    x 1.909170 0.000000 0.000000 
#    y 0.000000 1.875820 0.000000 
#    z 0.000000 0.000000 1.779090 
# 
# From -- ./inp_files/10773.got.cif
#   From: 2010.05.17/outbox.cif.g08.bks.cpg/sg56_6_cif.got.tgz:10773.got - 2010.06.03 13:42:01.
