data_PCOD9430184
_publ_section_title
;
Structure prediction by ZEFSAII (Michael W. Deem and Ramdas Pophale) SiO2 
 PCOD9430184
Probable space group: P C C N
;
_chemical_formula_sum "Si O2"
_cell_formula_units_Z 32
_cell_length_a 7.394971
_cell_length_b 5.188093
_cell_length_c 36.355733
_cell_angle_alpha 90.000000
_cell_angle_beta 90.000000
_cell_angle_gamma 90.000000
_cell_volume 1394.816682
_symmetry_space_group_name_H-M "P C C N"
_symmetry_group_IT_number 56
_symmetry_cell_setting 'orthorhombic'
loop_
_space_group_symop_operation_xyz
x,y,z
1/2-x,1/2-y,z
1/2+x,-y,1/2-z
-x,1/2+y,1/2-z
-x,-y,-z
1/2+x,1/2+y,-z
1/2-x,y,1/2+z
x,1/2-y,1/2+z
loop_
_atom_site_type_symbol
_atom_site_label
_atom_site_fract_x
_atom_site_fract_y
_atom_site_fract_z
Si Si1 0.967508 0.802680 0.887467
Si Si2 0.376707 0.003112 0.535862
Si Si3 0.450600 0.359101 0.271760
Si Si4 0.959539 0.201218 0.353769
O O1 0.750000 0.750000 0.883418
O O2 0.042062 0.517755 0.880080
O O3 0.989164 0.935584 0.927065
O O4 0.037343 0.011993 0.858246
O O5 0.250000 0.750000 0.539767
O O6 0.250000 0.250000 0.531859
O O7 0.500000 0.000000 0.500000
O O8 0.250000 0.250000 0.276557
O O9 0.451215 0.628197 0.250173
O O10 0.533306 0.395326 0.312142
O O11 0.750000 0.250000 0.364019
#
# Coordination Sequence:
#
# PCOD9430184 Si02
#       4
#     8   8   8   8
#     4   9  18  34  58  83 114 156 201 241 293 362
#     4  11  22  39  62  91 125 164 207 253 303 363
#     4  12  25  42  63  91 125 161 201 250 305 365
#     4  10  19  35  59  85 112 153 202 248 295 354
#
# _framework density 22.942086
#
# number of rings (size 3 to 8) (size 9 to 14) (size 15 to 20)
#    0.000    1.500    0.000    8.250    0.000    2.000 
#    0.000    3.750    0.000    0.000    0.000    0.000 
#    0.000    0.000    0.000    0.000    0.000    0.000 
#
# Total GULP energy -178768.157515 kJ/mol
# GULP energy per Si atom -5586.504922 kJ/mol
# Density = 2.288987 g / cm^3
# Si number density = 22.942086 Si / 1000 Ang^3
#
#
#
# Elastic Constant Matrix: (Units=GPa)
#
#
# Indices 1 2 3 4 5 6 
#
# 1 29.0826 18.7265 -12.6903 0.0000 0.0000 0.0000
# 2 18.7265 179.2652 70.9128 0.0000 0.0000 0.0000
# 3 -12.6903 70.9128 127.5513 0.0000 0.0000 0.0000
# 4 0.0000 0.0000 0.0000 41.9552 0.0000 0.0000
# 5 0.0000 0.0000 0.0000 0.0000 24.3956 0.0000
# 6 0.0000 0.0000 0.0000 0.0000 0.0000 13.1760
#
#
#
# Elastic Compliance Matrix: (Units=1/GPa)
#
#
# Indices 1 2 3 4 5 6 
#
# 1 0.043352 -0.007993 0.008757 0.000000 0.000000 0.000000
# 2 -0.007993 0.008625 -0.005590 0.000000 0.000000 0.000000
# 3 0.008757 -0.005590 0.011819 0.000000 0.000000 0.000000
# 4 0.000000 0.000000 0.000000 0.023835 0.000000 0.000000
# 5 0.000000 0.000000 0.000000 0.000000 0.040991 0.000000
# 6 0.000000 0.000000 0.000000 0.000000 0.000000 0.075895
#
#
# Mechanical properties :
#
#
# Convention : Reuss Voigt Hill
#
# Bulk Modulus (GPa) = 18.46921 54.42190 36.44555
# Shear Modulus (GPa) = 21.53155 33.16871 27.35013
#
# Velocity S-wave (km/s) = 3.06685 3.80644 3.45648
# Velocity P-wave (km/s) = 4.53967 6.56442 5.64359
#
# Compressibility (1/GPa) = 0.05414417
#
# Stress axis : x y z
#
# Youngs Moduli (GPa) = 23.06672 115.94798 84.60918
#
# Poissons Ratio (x) = 0.92674 -0.74091
# Poissons Ratio (y) = 0.18437 0.47297
# Poissons Ratio (z) = -0.20199 0.64816
#
# Static dielectric constant tensor:
#      x y z
#    x 1.843530 0.000000 0.000000 
#    y 0.000000 1.877360 0.000000 
#    z 0.000000 0.000000 1.888080 
# 
# From -- ./inp_files/23053.got.cif
#   From: 2010.05.17/outbox.cif.g08.bks.cpg/sg56_12_cif.got.tgz:23053.got - 2010.06.03 13:42:01.
