data_PCOD9430186
_publ_section_title
;
Structure prediction by ZEFSAII (Michael W. Deem and Ramdas Pophale) SiO2 
 PCOD9430186
Probable space group: P C C N
;
_chemical_formula_sum "Si O2"
_cell_formula_units_Z 48
_cell_length_a 8.437541
_cell_length_b 18.736228
_cell_length_c 16.029901
_cell_angle_alpha 90.000000
_cell_angle_beta 90.000000
_cell_angle_gamma 90.000000
_cell_volume 2534.130051
_symmetry_space_group_name_H-M "P C C N"
_symmetry_group_IT_number 56
_symmetry_cell_setting 'orthorhombic'
loop_
_space_group_symop_operation_xyz
x,y,z
1/2-x,1/2-y,z
1/2+x,-y,1/2-z
-x,1/2+y,1/2-z
-x,-y,-z
1/2+x,1/2+y,-z
1/2-x,y,1/2+z
x,1/2-y,1/2+z
loop_
_atom_site_type_symbol
_atom_site_label
_atom_site_fract_x
_atom_site_fract_y
_atom_site_fract_z
Si Si1 0.414668 0.658157 0.163274
Si Si2 0.833496 0.466165 0.227713
Si Si3 0.587510 0.553375 0.562891
Si Si4 0.463155 0.818730 0.165020
Si Si5 0.979481 0.912607 0.817236
Si Si6 0.058558 0.419096 0.495758
O O1 0.433034 0.602364 0.240022
O O2 0.499541 0.734804 0.163131
O O3 0.226928 0.673064 0.167434
O O4 0.465688 0.620188 0.078000
O O5 0.899238 0.506967 0.147452
O O6 0.653576 0.445139 0.204730
O O7 0.851749 0.524580 0.301340
O O8 0.500000 0.500000 0.500000
O O9 0.510381 0.628783 0.589457
O O10 0.758112 0.574988 0.527728
O O11 0.540106 0.851302 0.248662
O O12 0.971283 0.887570 0.912323
O O13 0.000000 0.500000 0.500000
#
# Coordination Sequence:
#
# PCOD9430186 Si02
#       6
#     8   8   8   8   8   8
#     4  10  20  40  63  84 122 159 200 245 310 357
#     4  10  19  35  59  85 115 154 195 243 296 362
#     4  11  23  37  60  87 122 153 207 253 299 355
#     4   9  22  41  59  87 121 162 196 250 302 370
#     4  10  21  36  60  88 117 154 201 241 301 356
#     4  12  21  37  62  92 120 158 201 257 298 358
#
# _framework density 18.941412
#
# number of rings (size 3 to 8) (size 9 to 14) (size 15 to 20)
#    0.000    1.667    3.333    1.000    4.667    0.667 
#    3.000    1.667    0.000    0.000    0.000    0.000 
#    0.000    0.000    0.000    0.000    0.000    0.000 
#
# Total GULP energy -267624.701439 kJ/mol
# GULP energy per Si atom -5575.514613 kJ/mol
# Density = 1.889830 g / cm^3
# Si number density = 18.941412 Si / 1000 Ang^3
#
#
#
# Elastic Constant Matrix: (Units=GPa)
#
#
# Indices 1 2 3 4 5 6 
#
# 1 28.0735 22.4351 20.0663 0.0000 0.0000 0.0000
# 2 22.4351 136.8143 44.5993 0.0000 0.0000 0.0000
# 3 20.0663 44.5993 107.4272 0.0000 0.0000 0.0000
# 4 0.0000 0.0000 0.0000 22.6478 0.0000 0.0000
# 5 0.0000 0.0000 0.0000 0.0000 24.0725 0.0000
# 6 0.0000 0.0000 0.0000 0.0000 0.0000 23.8708
#
#
#
# Elastic Compliance Matrix: (Units=1/GPa)
#
#
# Indices 1 2 3 4 5 6 
#
# 1 0.044162 -0.005265 -0.006063 0.000000 0.000000 0.000000
# 2 -0.005265 0.009081 -0.002787 0.000000 0.000000 0.000000
# 3 -0.006063 -0.002787 0.011598 0.000000 0.000000 0.000000
# 4 0.000000 0.000000 0.000000 0.044154 0.000000 0.000000
# 5 0.000000 0.000000 0.000000 0.000000 0.041541 0.000000
# 6 0.000000 0.000000 0.000000 0.000000 0.000000 0.041892
#
#
# Mechanical properties :
#
#
# Convention : Reuss Voigt Hill
#
# Bulk Modulus (GPa) = 27.31396 49.61294 38.46345
# Shear Modulus (GPa) = 21.47185 26.46582 23.96883
#
# Velocity S-wave (km/s) = 3.37054 3.74203 3.56113
# Velocity P-wave (km/s) = 5.44049 6.70225 6.10406
#
# Compressibility (1/GPa) = 0.03661131
#
# Stress axis : x y z
#
# Youngs Moduli (GPa) = 22.64373 110.12038 86.22175
#
# Poissons Ratio (x) = 0.57983 0.52277
# Poissons Ratio (y) = 0.11923 0.24026
# Poissons Ratio (z) = 0.13729 0.30685
#
# Static dielectric constant tensor:
#      x y z
#    x 1.660440 0.000000 0.000000 
#    y 0.000000 1.728420 0.000000 
#    z 0.000000 0.000000 1.697610 
# 
# From -- ./inp_files/10631.got.cif
#   From: 2010.05.17/outbox.cif.g08.bks.cpg/sg56_6_cif.got.tgz:10631.got - 2010.06.03 13:42:01.
