data_PCOD9430837
_publ_section_title
;
Structure prediction by ZEFSAII (Michael W. Deem and Ramdas Pophale) SiO2 
 PCOD9430837
Probable space group: P C C N
;
_chemical_formula_sum "Si O2"
_cell_formula_units_Z 36
_cell_length_a 9.257257
_cell_length_b 16.848394
_cell_length_c 9.503511
_cell_angle_alpha 90.000000
_cell_angle_beta 90.000000
_cell_angle_gamma 90.000000
_cell_volume 1482.261787
_symmetry_space_group_name_H-M "P C C N"
_symmetry_group_IT_number 56
_symmetry_cell_setting 'orthorhombic'
loop_
_space_group_symop_operation_xyz
x,y,z
1/2-x,1/2-y,z
1/2+x,-y,1/2-z
-x,1/2+y,1/2-z
-x,-y,-z
1/2+x,1/2+y,-z
1/2-x,y,1/2+z
x,1/2-y,1/2+z
loop_
_atom_site_type_symbol
_atom_site_label
_atom_site_fract_x
_atom_site_fract_y
_atom_site_fract_z
Si Si1 0.753032 0.016073 0.505223
Si Si2 0.018651 0.059185 0.848748
Si Si3 0.027035 0.380458 0.036839
Si Si4 0.750000 0.250000 0.249896
Si Si5 0.952684 0.203776 0.000009
O O1 0.641198 0.024383 0.375217
O O2 0.867134 0.087621 0.497980
O O3 0.636745 0.009301 0.630841
O O4 0.853893 0.939029 0.525735
O O5 0.038995 0.101436 0.701721
O O6 0.043798 0.125197 0.971479
O O7 0.035726 0.287679 0.003158
O O8 0.648391 0.204753 0.360513
O O9 0.855383 0.203819 0.141282
#
# Coordination Sequence:
#
# PCOD9430837 Si02
#       5
#     8   8   8   4   8
#     4  10  24  44  66  96 138 174 220 272 346 396
#     4  11  23  44  67 101 130 179 222 281 329 403
#     4  11  23  44  67 101 130 179 222 281 329 403
#     4  10  20  38  60 100 128 174 212 274 320 398
#     4  11  22  39  68  96 134 172 228 272 330 394
#
# _framework density 24.287208
#
# number of rings (size 3 to 8) (size 9 to 14) (size 15 to 20)
#    0.000    1.333    2.222    4.000    0.000    0.889 
#   20.000    2.222    0.000    0.000    0.000    0.000 
#    0.000    0.000    0.000    0.000    0.000    0.000 
#
# Total GULP energy -201042.276758 kJ/mol
# GULP energy per Si atom -5584.507688 kJ/mol
# Density = 2.423193 g / cm^3
# Si number density = 24.287208 Si / 1000 Ang^3
#
#
#
# Elastic Constant Matrix: (Units=GPa)
#
#
# Indices 1 2 3 4 5 6 
#
# 1 83.3799 34.3755 6.2158 0.0000 0.0000 0.0000
# 2 34.3755 97.9567 1.3916 0.0000 0.0000 0.0000
# 3 6.2158 1.3916 96.5075 0.0000 0.0000 0.0000
# 4 0.0000 0.0000 0.0000 -0.8259 0.0000 0.0000
# 5 0.0000 0.0000 0.0000 0.0000 47.7308 0.0000
# 6 0.0000 0.0000 0.0000 0.0000 0.0000 44.4311
#
#
#
# Elastic Compliance Matrix: (Units=1/GPa)
#
#
# Indices 1 2 3 4 5 6 
#
# 1 0.014089 -0.004932 -0.000836 0.000000 0.000000 0.000000
# 2 -0.004932 0.011937 0.000146 0.000000 0.000000 0.000000
# 3 -0.000836 0.000146 0.010414 0.000000 0.000000 0.000000
# 4 0.000000 0.000000 0.000000 -1.210730 0.000000 0.000000
# 5 0.000000 0.000000 0.000000 0.000000 0.020951 0.000000
# 6 0.000000 0.000000 0.000000 0.000000 0.000000 0.022507
#
#
# Mechanical properties :
#
#
# Convention : Reuss Voigt Hill
#
# Bulk Modulus (GPa) = 39.69206 40.20108 39.94657
# Shear Modulus (GPa) = -4.49969 33.99130 14.74580
#
# Velocity S-wave (km/s) = -1.36262 3.74512 2.46670
# Velocity P-wave (km/s) = 3.72862 5.94050 4.95945
#
# Compressibility (1/GPa) = 0.02519395
#
# Stress axis : x y z
#
# Youngs Moduli (GPa) = 70.97676 83.77028 96.02775
#
# Poissons Ratio (x) = 0.41318 0.08031
# Poissons Ratio (y) = 0.35008 -0.01398
# Poissons Ratio (z) = 0.05936 -0.01219
#
# Static dielectric constant tensor:
#      x y z
#    x 1.953740 0.000000 0.000000 
#    y 0.000000 2.061170 0.000000 
#    z 0.000000 0.000000 1.952940 
# 
# From -- ./inp_files/1995.got.cif
#   From: 2010.05.17/outbox.cif.g08.bks.cpg/sg56_1_cif.got.tgz:1995.got - 2010.06.03 13:42:01.
