data_PCOD9430600
_publ_section_title
;
Structure prediction by ZEFSAII (Michael W. Deem and Ramdas Pophale) SiO2 
 PCOD9430600
Probable space group: P C C N
;
_chemical_formula_sum "Si O2"
_cell_formula_units_Z 64
_cell_length_a 15.591217
_cell_length_b 8.768754
_cell_length_c 23.551831
_cell_angle_alpha 90.000000
_cell_angle_beta 90.000000
_cell_angle_gamma 90.000000
_cell_volume 3219.901445
_symmetry_space_group_name_H-M "P C C N"
_symmetry_group_IT_number 56
_symmetry_cell_setting 'orthorhombic'
loop_
_space_group_symop_operation_xyz
x,y,z
1/2-x,1/2-y,z
1/2+x,-y,1/2-z
-x,1/2+y,1/2-z
-x,-y,-z
1/2+x,1/2+y,-z
1/2-x,y,1/2+z
x,1/2-y,1/2+z
loop_
_atom_site_type_symbol
_atom_site_label
_atom_site_fract_x
_atom_site_fract_y
_atom_site_fract_z
Si Si1 0.986507 0.270533 0.051364
Si Si2 0.845600 0.306392 0.456216
Si Si3 0.085009 0.772392 0.168657
Si Si4 0.665855 0.816010 0.610929
Si Si5 0.846253 0.299927 0.211970
Si Si6 0.052635 0.038631 0.360296
Si Si7 0.955147 0.449396 0.654653
Si Si8 0.668317 0.657838 0.980431
O O1 0.975164 0.418495 0.091237
O O2 0.976182 0.127715 0.094296
O O3 0.081994 0.255425 0.026940
O O4 0.915125 0.253889 0.002164
O O5 0.750000 0.250000 0.470850
O O6 0.872079 0.256894 0.393049
O O7 0.844631 0.490254 0.455568
O O8 0.150242 0.796763 0.220058
O O9 0.025122 0.620746 0.173332
O O10 0.026855 0.926779 0.170068
O O11 0.750000 0.750000 0.638373
O O12 0.597481 0.680858 0.609014
O O13 0.684816 0.868580 0.547246
O O14 0.629830 0.952586 0.646481
O O15 0.750000 0.250000 0.193093
O O16 0.879469 0.453897 0.181111
O O17 0.924538 0.184935 0.195383
O O18 0.750000 0.750000 0.957057
#
# Coordination Sequence:
#
# PCOD9430600 Si02
#       8
#     8   8   8   8   8   8   8   8
#     4  11  22  41  64  90 130 168 210 259 321 377
#     4  12  26  40  66  98 134 175 213 259 323 391
#     4  11  23  43  64  88 128 171 215 256 321 388
#     4  10  20  35  58  91 127 157 205 262 315 369
#     4  11  23  41  64  92 124 159 213 276 326 377
#     4  10  24  38  65  96 118 167 217 265 316 380
#     4  10  20  39  65  85 119 167 208 259 318 383
#     4  11  24  40  61  92 133 174 209 255 319 392
#
# _framework density 19.876384999999999
#
# number of rings (size 3 to 8) (size 9 to 14) (size 15 to 20)
#    0.000    1.250    2.500    3.750    5.250    3.000 
#    0.000    0.000    0.000    0.750    0.000    0.000 
#    0.000    0.000    0.000    0.000    0.000    0.000 
#
# Total GULP energy -357079.598853 kJ/mol
# GULP energy per Si atom -5579.368732 kJ/mol
# Density = 1.983115 g / cm^3
# Si number density = 19.876385 Si / 1000 Ang^3
#
#
#
# Elastic Constant Matrix: (Units=GPa)
#
#
# Indices 1 2 3 4 5 6 
#
# 1 91.2423 3.0331 20.2617 0.0000 0.0000 0.0000
# 2 3.0331 64.3460 9.6423 0.0000 0.0000 0.0000
# 3 20.2617 9.6423 76.6360 0.0000 0.0000 0.0000
# 4 0.0000 0.0000 0.0000 2.5259 0.0000 0.0000
# 5 0.0000 0.0000 0.0000 0.0000 23.0188 0.0000
# 6 0.0000 0.0000 0.0000 0.0000 0.0000 24.2205
#
#
#
# Elastic Compliance Matrix: (Units=1/GPa)
#
#
# Indices 1 2 3 4 5 6 
#
# 1 0.011644 -0.000089 -0.003067 0.000000 0.000000 0.000000
# 2 -0.000089 0.015840 -0.001969 0.000000 0.000000 0.000000
# 3 -0.003067 -0.001969 0.014107 0.000000 0.000000 0.000000
# 4 0.000000 0.000000 0.000000 0.395906 0.000000 0.000000
# 5 0.000000 0.000000 0.000000 0.000000 0.043443 0.000000
# 6 0.000000 0.000000 0.000000 0.000000 0.000000 0.041287
#
#
# Mechanical properties :
#
#
# Convention : Reuss Voigt Hill
#
# Bulk Modulus (GPa) = 31.90833 33.12206 32.51519
# Shear Modulus (GPa) = 9.20935 23.23885 16.22410
#
# Velocity S-wave (km/s) = 2.15485 3.42302 2.86011
# Velocity P-wave (km/s) = 4.72011 5.68533 5.22505
#
# Compressibility (1/GPa) = 0.03133978
#
# Stress axis : x y z
#
# Youngs Moduli (GPa) = 85.88162 63.13003 70.88453
#
# Poissons Ratio (x) = 0.00563 0.21742
# Poissons Ratio (y) = 0.00766 0.13960
# Poissons Ratio (z) = 0.26342 0.12433
#
# Static dielectric constant tensor:
#      x y z
#    x 1.756370 0.000000 0.000000 
#    y 0.000000 1.716730 0.000000 
#    z 0.000000 0.000000 1.699040 
# 
# From -- ./inp_files/21171.got.cif
#   From: 2010.05.17/outbox.cif.g08.bks.cpg/sg56_11_cif.got.tgz:21171.got - 2010.06.03 13:42:01.
