data_PCOD9430110
_publ_section_title
;
Structure prediction by ZEFSAII (Michael W. Deem and Ramdas Pophale) SiO2 
 PCOD9430110
Probable space group: P C C N
;
_chemical_formula_sum "Si O2"
_cell_formula_units_Z 56
_cell_length_a 16.577711
_cell_length_b 23.548994
_cell_length_c 5.440659
_cell_angle_alpha 90.000000
_cell_angle_beta 90.000000
_cell_angle_gamma 90.000000
_cell_volume 2123.970254
_symmetry_space_group_name_H-M "P C C N"
_symmetry_group_IT_number 56
_symmetry_cell_setting 'orthorhombic'
loop_
_space_group_symop_operation_xyz
x,y,z
1/2-x,1/2-y,z
1/2+x,-y,1/2-z
-x,1/2+y,1/2-z
-x,-y,-z
1/2+x,1/2+y,-z
1/2-x,y,1/2+z
x,1/2-y,1/2+z
loop_
_atom_site_type_symbol
_atom_site_label
_atom_site_fract_x
_atom_site_fract_y
_atom_site_fract_z
Si Si1 0.029228 0.194963 0.433731
Si Si2 0.700820 0.543667 0.765222
Si Si3 0.468223 0.416734 0.708197
Si Si4 0.121465 0.772972 0.027604
Si Si5 0.084867 0.886492 0.886638
Si Si6 0.107443 0.976134 0.563473
Si Si7 0.697421 0.824501 0.248122
O O1 0.053037 0.148889 0.649797
O O2 0.971112 0.247268 0.502693
O O3 0.966177 0.156358 0.283196
O O4 0.113264 0.208477 0.296164
O O5 0.745027 0.537530 0.020473
O O6 0.639133 0.493795 0.703132
O O7 0.670813 0.608908 0.755254
O O8 0.399405 0.464039 0.706013
O O9 0.523715 0.443926 0.494103
O O10 0.518303 0.419334 0.956271
O O11 0.157807 0.757045 0.765130
O O12 0.124871 0.840431 0.068319
O O13 0.144356 0.927796 0.738209
O O14 0.754647 0.815321 0.006126
#
# Coordination Sequence:
#
# PCOD9430110 Si02
#       7
#     8   8   8   8   8   8   8
#     4  10  20  35  56  81 113 152 197 244 297 347
#     4  10  22  37  55  80 115 162 199 234 280 344
#     4  10  19  34  54  85 117 147 190 237 301 354
#     4  10  20  35  56  80 110 147 187 234 294 350
#     4  10  21  33  56  84 113 154 189 245 303 363
#     4  10  21  34  53  86 120 153 192 243 294 359
#     4  10  22  36  55  79 110 154 207 249 283 336
#
# _framework density 26.365718999999999
#
# number of rings (size 3 to 8) (size 9 to 14) (size 15 to 20)
#    0.000    2.000    2.857    0.429    4.000    1.143 
#    0.000    0.000    0.000   10.286    0.000    0.000 
#    0.000   30.857    0.000    0.000    0.000    0.000 
#
# Total GULP energy -312531.243912 kJ/mol
# GULP energy per Si atom -5580.915070 kJ/mol
# Density = 2.630571 g / cm^3
# Si number density = 26.365719 Si / 1000 Ang^3
#
#
#
# Elastic Constant Matrix: (Units=GPa)
#
#
# Indices 1 2 3 4 5 6 
#
# 1 56.0443 11.1198 2.9442 0.0000 0.0000 0.0000
# 2 11.1198 77.7498 8.6252 0.0000 0.0000 0.0000
# 3 2.9442 8.6252 106.0981 0.0000 0.0000 0.0000
# 4 0.0000 0.0000 0.0000 29.0976 0.0000 0.0000
# 5 0.0000 0.0000 0.0000 0.0000 -11.6833 0.0000
# 6 0.0000 0.0000 0.0000 0.0000 0.0000 23.0773
#
#
#
# Elastic Compliance Matrix: (Units=1/GPa)
#
#
# Indices 1 2 3 4 5 6 
#
# 1 0.018374 -0.002595 -0.000299 0.000000 0.000000 0.000000
# 2 -0.002595 0.013345 -0.001013 0.000000 0.000000 0.000000
# 3 -0.000299 -0.001013 0.009516 0.000000 0.000000 0.000000
# 4 0.000000 0.000000 0.000000 0.034367 0.000000 0.000000
# 5 0.000000 0.000000 0.000000 0.000000 -0.085592 0.000000
# 6 0.000000 0.000000 0.000000 0.000000 0.000000 0.043333
#
#
# Mechanical properties :
#
#
# Convention : Reuss Voigt Hill
#
# Bulk Modulus (GPa) = 29.92063 31.69671 30.80867
# Shear Modulus (GPa) = 95.61038 22.57852 59.09445
#
# Velocity S-wave (km/s) = 6.02842 2.92954 4.73941
# Velocity P-wave (km/s) = 7.73491 4.84675 6.45444
#
# Compressibility (1/GPa) = 0.03342176
#
# Stress axis : x y z
#
# Youngs Moduli (GPa) = 54.42608 74.93323 105.08757
#
# Poissons Ratio (x) = 0.19442 0.03141
# Poissons Ratio (y) = 0.14122 0.10644
# Poissons Ratio (z) = 0.01627 0.07590
#
# Static dielectric constant tensor:
#      x y z
#    x 2.188820 0.000000 0.000000 
#    y 0.000000 2.225080 0.000000 
#    z 0.000000 0.000000 2.246750 
# 
# From -- ./inp_files/914.got.cif
#   From: 2010.05.17/outbox.cif.g08.bks.cpg/sg56_1_cif.got.tgz:914.got - 2010.06.03 13:42:01.
