data_PCOD9430913
_publ_section_title
;
Structure prediction by ZEFSAII (Michael W. Deem and Ramdas Pophale) SiO2 
 PCOD9430913
Probable space group: P C C N
;
_chemical_formula_sum "Si O2"
_cell_formula_units_Z 32
_cell_length_a 5.565445
_cell_length_b 7.631912
_cell_length_c 31.619688
_cell_angle_alpha 90.000000
_cell_angle_beta 90.000000
_cell_angle_gamma 90.000000
_cell_volume 1343.045820
_symmetry_space_group_name_H-M "P C C N"
_symmetry_group_IT_number 56
_symmetry_cell_setting 'orthorhombic'
loop_
_space_group_symop_operation_xyz
x,y,z
1/2-x,1/2-y,z
1/2+x,-y,1/2-z
-x,1/2+y,1/2-z
-x,-y,-z
1/2+x,1/2+y,-z
1/2-x,y,1/2+z
x,1/2-y,1/2+z
loop_
_atom_site_type_symbol
_atom_site_label
_atom_site_fract_x
_atom_site_fract_y
_atom_site_fract_z
Si Si1 0.750000 0.750000 0.910129
Si Si2 0.630065 0.057427 0.138674
Si Si3 0.857119 0.936192 0.733197
Si Si4 0.117517 0.477423 0.445200
Si Si5 0.250000 0.750000 0.008228
O O1 0.627555 0.892930 0.879934
O O2 0.572875 0.636313 0.938283
O O3 0.750000 0.250000 0.144283
O O4 0.765316 0.959017 0.100695
O O5 0.624879 0.961199 0.182896
O O6 0.750000 0.750000 0.745264
O O7 0.628660 0.052807 0.748734
O O8 0.285969 0.577060 0.479007
O O9 0.975957 0.309855 0.462854
#
# Coordination Sequence:
#
# PCOD9430913 Si02
#       5
#     4   8   8   8   4
#     4  10  20  38  64  92 128 184 224 284 364 420
#     4  10  22  42  66  97 137 181 231 291 368 430
#     4  12  28  49  76 111 146 188 240 302 368 448
#     4  10  21  39  60  92 133 183 231 302 353 430
#     4  10  20  40  58  90 138 174 242 296 356 426
#
# _framework density 23.826439000000001
#
# number of rings (size 3 to 8) (size 9 to 14) (size 15 to 20)
#    0.000    1.500    3.750    2.250    8.750    3.000 
#    0.000    0.000    0.000    0.000    0.000    0.000 
#    0.000    0.000    0.000    0.000    0.000    0.000 
#
# Total GULP energy -178821.643357 kJ/mol
# GULP energy per Si atom -5588.176355 kJ/mol
# Density = 2.377221 g / cm^3
# Si number density = 23.826439 Si / 1000 Ang^3
#
#
#
# Elastic Constant Matrix: (Units=GPa)
#
#
# Indices 1 2 3 4 5 6 
#
# 1 117.6661 35.4247 62.5714 0.0000 0.0000 0.0000
# 2 35.4247 79.0053 12.2453 0.0000 0.0000 0.0000
# 3 62.5714 12.2453 142.1923 0.0000 0.0000 0.0000
# 4 0.0000 0.0000 0.0000 32.6709 0.0000 0.0000
# 5 0.0000 0.0000 0.0000 0.0000 22.7448 0.0000
# 6 0.0000 0.0000 0.0000 0.0000 0.0000 48.1386
#
#
#
# Elastic Compliance Matrix: (Units=1/GPa)
#
#
# Indices 1 2 3 4 5 6 
#
# 1 0.012729 -0.004905 -0.005179 0.000000 0.000000 0.000000
# 2 -0.004905 0.014719 0.000891 0.000000 0.000000 0.000000
# 3 -0.005179 0.000891 0.009235 0.000000 0.000000 0.000000
# 4 0.000000 0.000000 0.000000 0.030608 0.000000 0.000000
# 5 0.000000 0.000000 0.000000 0.000000 0.043966 0.000000
# 6 0.000000 0.000000 0.000000 0.000000 0.000000 0.020773
#
#
# Mechanical properties :
#
#
# Convention : Reuss Voigt Hill
#
# Bulk Modulus (GPa) = 54.65474 62.14960 58.40217
# Shear Modulus (GPa) = 31.94561 35.95237 33.94899
#
# Velocity S-wave (km/s) = 3.66562 3.88871 3.77881
# Velocity P-wave (km/s) = 6.39563 6.80468 6.60332
#
# Compressibility (1/GPa) = 0.01829667
#
# Stress axis : x y z
#
# Youngs Moduli (GPa) = 78.55806 67.94128 108.28272
#
# Poissons Ratio (x) = 0.33325 0.56081
# Poissons Ratio (y) = 0.38532 -0.09647
# Poissons Ratio (z) = 0.40686 -0.06053
#
# Static dielectric constant tensor:
#      x y z
#    x 2.189380 0.000000 0.000000 
#    y 0.000000 1.935560 0.000000 
#    z 0.000000 0.000000 1.862420 
# 
# From -- ./inp_files/22692.got.cif
#   From: 2010.05.17/outbox.cif.g08.bks.cpg/sg56_12_cif.got.tgz:22692.got - 2010.06.03 13:42:01.
