data_PCOD9430255
_publ_section_title
;
Structure prediction by ZEFSAII (Michael W. Deem and Ramdas Pophale) SiO2 
 PCOD9430255
Probable space group: P C C N
;
_chemical_formula_sum "Si O2"
_cell_formula_units_Z 64
_cell_length_a 8.932186
_cell_length_b 12.310677
_cell_length_c 28.044355
_cell_angle_alpha 90.000000
_cell_angle_beta 90.000000
_cell_angle_gamma 90.000000
_cell_volume 3083.792521
_symmetry_space_group_name_H-M "P C C N"
_symmetry_group_IT_number 56
_symmetry_cell_setting 'orthorhombic'
loop_
_space_group_symop_operation_xyz
x,y,z
1/2-x,1/2-y,z
1/2+x,-y,1/2-z
-x,1/2+y,1/2-z
-x,-y,-z
1/2+x,1/2+y,-z
1/2-x,y,1/2+z
x,1/2-y,1/2+z
loop_
_atom_site_type_symbol
_atom_site_label
_atom_site_fract_x
_atom_site_fract_y
_atom_site_fract_z
Si Si1 0.787505 0.577980 0.721500
Si Si2 0.366781 0.069151 0.979613
Si Si3 0.504983 0.771074 0.198179
Si Si4 0.926746 0.743919 0.595191
Si Si5 0.066891 0.496402 0.446674
Si Si6 0.858317 0.342956 0.705146
Si Si7 0.798884 0.624982 0.322167
Si Si8 0.700884 0.627256 0.922448
O O1 0.934419 0.648903 0.709352
O O2 0.646194 0.649163 0.706096
O O3 0.782399 0.459599 0.699755
O O4 0.773263 0.563212 0.778153
O O5 0.427277 0.170481 0.948596
O O6 0.246573 0.000419 0.948863
O O7 0.274642 0.101902 0.026909
O O8 0.500000 0.000000 0.000000
O O9 0.474612 0.773019 0.141482
O O10 0.392048 0.808694 0.239497
O O11 0.750000 0.750000 0.610213
O O12 0.963504 0.622138 0.576917
O O13 0.000000 0.500000 0.500000
O O14 0.973934 0.594658 0.423881
O O15 0.750000 0.250000 0.684909
O O16 0.022300 0.363194 0.682987
O O17 0.750000 0.750000 0.315937
O O18 0.748626 0.574336 0.372453
O O19 0.750000 0.750000 0.914776
#
# Coordination Sequence:
#
# PCOD9430255 Si02
#       8
#     8   8   8   8   8   8   8   8
#     4  10  20  39  62  85 126 166 203 267 319 385
#     4  10  21  38  60  92 126 154 200 273 328 379
#     4  10  21  39  61  93 119 167 216 255 330 386
#     4  10  19  36  66  90 119 159 215 261 311 399
#     4   9  19  37  61  89 119 163 209 256 316 388
#     4  11  25  37  61  93 129 164 218 272 320 383
#     4  10  21  40  62  83 122 169 211 254 323 390
#     4  10  21  39  62  85 117 171 213 245 315 399
#
# _framework density 20.753665000000002
#
# number of rings (size 3 to 8) (size 9 to 14) (size 15 to 20)
#    0.000    2.000    3.750    1.875    5.250    1.000 
#    0.000   10.625    0.000    0.000    0.000    0.000 
#    0.000    0.000    0.000    0.000    0.000    0.000 
#
# Total GULP energy -356385.979369 kJ/mol
# GULP energy per Si atom -5568.530928 kJ/mol
# Density = 2.070643 g / cm^3
# Si number density = 20.753665 Si / 1000 Ang^3
#
#
#
# Elastic Constant Matrix: (Units=GPa)
#
#
# Indices 1 2 3 4 5 6 
#
# 1 48.0440 36.3129 9.0852 0.0000 0.0000 0.0000
# 2 36.3129 94.3523 6.0208 0.0000 0.0000 0.0000
# 3 9.0852 6.0208 109.8259 0.0000 0.0000 0.0000
# 4 0.0000 0.0000 0.0000 -144.2990 0.0000 0.0000
# 5 0.0000 0.0000 0.0000 0.0000 36.7679 0.0000
# 6 0.0000 0.0000 0.0000 0.0000 0.0000 23.2309
#
#
#
# Elastic Compliance Matrix: (Units=1/GPa)
#
#
# Indices 1 2 3 4 5 6 
#
# 1 0.029718 -0.011320 -0.001838 0.000000 0.000000 0.000000
# 2 -0.011320 0.014948 0.000117 0.000000 0.000000 0.000000
# 3 -0.001838 0.000117 0.009251 0.000000 0.000000 0.000000
# 4 0.000000 0.000000 0.000000 -0.006930 0.000000 0.000000
# 5 0.000000 0.000000 0.000000 0.000000 0.027198 0.000000
# 6 0.000000 0.000000 0.000000 0.000000 0.000000 0.043046
#
#
# Mechanical properties :
#
#
# Convention : Reuss Voigt Hill
#
# Bulk Modulus (GPa) = 35.92627 39.45112 37.68869
# Shear Modulus (GPa) = 32.76751 -3.47314 14.64719
#
# Velocity S-wave (km/s) = 3.97782 -1.29504 2.65950
# Velocity P-wave (km/s) = 6.20047 4.10053 5.25643
#
# Compressibility (1/GPa) = 0.02783478
#
# Stress axis : x y z
#
# Youngs Moduli (GPa) = 33.64988 66.89943 108.09713
#
# Poissons Ratio (x) = 0.75731 0.19866
# Poissons Ratio (y) = 0.38092 -0.01265
# Poissons Ratio (z) = 0.06184 -0.00783
#
# Static dielectric constant tensor:
#      x y z
#    x 1.763950 0.000000 0.000000 
#    y 0.000000 1.715260 0.000000 
#    z 0.000000 0.000000 1.902020 
# 
# From -- ./inp_files/23404.got.cif
#   From: 2010.05.17/outbox.cif.g08.bks.cpg/sg56_12_cif.got.tgz:23404.got - 2010.06.03 13:42:01.
