data_PCOD9430589
_publ_section_title
;
Structure prediction by ZEFSAII (Michael W. Deem and Ramdas Pophale) SiO2 
 PCOD9430589
Probable space group: P C C N
;
_chemical_formula_sum "Si O2"
_cell_formula_units_Z 44
_cell_length_a 16.742556
_cell_length_b 15.284288
_cell_length_c 8.315913
_cell_angle_alpha 90.000000
_cell_angle_beta 90.000000
_cell_angle_gamma 90.000000
_cell_volume 2128.025902
_symmetry_space_group_name_H-M "P C C N"
_symmetry_group_IT_number 56
_symmetry_cell_setting 'orthorhombic'
loop_
_space_group_symop_operation_xyz
x,y,z
1/2-x,1/2-y,z
1/2+x,-y,1/2-z
-x,1/2+y,1/2-z
-x,-y,-z
1/2+x,1/2+y,-z
1/2-x,y,1/2+z
x,1/2-y,1/2+z
loop_
_atom_site_type_symbol
_atom_site_label
_atom_site_fract_x
_atom_site_fract_y
_atom_site_fract_z
Si Si1 0.666415 0.637424 0.001635
Si Si2 0.167333 0.953314 0.143291
Si Si3 0.750000 0.750000 0.258520
Si Si4 0.481287 0.863094 0.553657
Si Si5 0.199346 0.642913 0.959387
Si Si6 0.604264 0.286532 0.244956
O O1 0.693549 0.546714 0.922350
O O2 0.679023 0.713453 0.869462
O O3 0.575355 0.627795 0.055780
O O4 0.719303 0.670877 0.149077
O O5 0.184632 0.933539 0.329611
O O6 0.072613 0.942766 0.116688
O O7 0.213970 0.879561 0.036474
O O8 0.449406 0.841573 0.375941
O O9 0.452239 0.782174 0.663601
O O10 0.169101 0.727436 0.854477
O O11 0.147071 0.653719 0.121436
#
# Coordination Sequence:
#
# PCOD9430589 Si02
#       6
#     8   8   4   8   8   8
#     4  11  22  42  59  83 107 142 193 236 286 336
#     4  11  22  35  56  84 118 151 181 229 281 331
#     4  10  24  40  64  78 102 146 192 244 280 328
#     4  10  20  35  58  83 114 149 182 231 279 328
#     4  10  21  35  54  85 118 153 186 220 270 333
#     4   9  20  36  56  85 117 150 189 223 269 333
#
# _framework density 20.676439999999999
#
# number of rings (size 3 to 8) (size 9 to 14) (size 15 to 20)
#    0.000    1.818    0.000    3.818    0.000   12.364 
#    0.000    0.909    0.000    0.000    0.000    0.000 
#    0.000    0.000    0.000    0.000    0.000    0.000 
#
# Total GULP energy -245489.407590 kJ/mol
# GULP energy per Si atom -5579.304718 kJ/mol
# Density = 2.062938 g / cm^3
# Si number density = 20.676440 Si / 1000 Ang^3
#
#
#
# Elastic Constant Matrix: (Units=GPa)
#
#
# Indices 1 2 3 4 5 6 
#
# 1 85.2595 -7.6838 22.2374 0.0000 0.0000 0.0000
# 2 -7.6838 42.6843 3.6919 0.0000 0.0000 0.0000
# 3 22.2374 3.6919 92.3873 0.0000 0.0000 0.0000
# 4 0.0000 0.0000 0.0000 30.6468 0.0000 0.0000
# 5 0.0000 0.0000 0.0000 0.0000 18.2053 0.0000
# 6 0.0000 0.0000 0.0000 0.0000 0.0000 14.6668
#
#
#
# Elastic Compliance Matrix: (Units=1/GPa)
#
#
# Indices 1 2 3 4 5 6 
#
# 1 0.012791 0.002578 -0.003182 0.000000 0.000000 0.000000
# 2 0.002578 0.024029 -0.001581 0.000000 0.000000 0.000000
# 3 -0.003182 -0.001581 0.011653 0.000000 0.000000 0.000000
# 4 0.000000 0.000000 0.000000 0.032630 0.000000 0.000000
# 5 0.000000 0.000000 0.000000 0.000000 0.054929 0.000000
# 6 0.000000 0.000000 0.000000 0.000000 0.000000 0.068181
#
#
# Mechanical properties :
#
#
# Convention : Reuss Voigt Hill
#
# Bulk Modulus (GPa) = 22.67402 28.53577 25.60490
# Shear Modulus (GPa) = 22.39308 26.17616 24.28462
#
# Velocity S-wave (km/s) = 3.29450 3.56193 3.43083
# Velocity P-wave (km/s) = 5.04595 5.54505 5.30138
#
# Compressibility (1/GPa) = 0.04410333
#
# Stress axis : x y z
#
# Youngs Moduli (GPa) = 78.17935 41.61712 85.81464
#
# Poissons Ratio (x) = -0.10728 0.27305
# Poissons Ratio (y) = -0.20153 0.13564
# Poissons Ratio (z) = 0.24875 0.06578
#
# Static dielectric constant tensor:
#      x y z
#    x 1.731520 0.000000 0.000000 
#    y 0.000000 1.782200 0.000000 
#    z 0.000000 0.000000 1.737250 
# 
# From -- ./inp_files/3964.got.cif
#   From: 2010.05.17/outbox.cif.g08.bks.cpg/sg56_2_cif.got.tgz:3964.got - 2010.06.03 13:42:01.
