data_PCOD9430722
_publ_section_title
;
Structure prediction by ZEFSAII (Michael W. Deem and Ramdas Pophale) SiO2 
 PCOD9430722
Probable space group: P C C N
;
_chemical_formula_sum "Si O2"
_cell_formula_units_Z 60
_cell_length_a 10.676370
_cell_length_b 28.821543
_cell_length_c 9.251433
_cell_angle_alpha 90.000000
_cell_angle_beta 90.000000
_cell_angle_gamma 90.000000
_cell_volume 2846.753425
_symmetry_space_group_name_H-M "P C C N"
_symmetry_group_IT_number 56
_symmetry_cell_setting 'orthorhombic'
loop_
_space_group_symop_operation_xyz
x,y,z
1/2-x,1/2-y,z
1/2+x,-y,1/2-z
-x,1/2+y,1/2-z
-x,-y,-z
1/2+x,1/2+y,-z
1/2-x,y,1/2+z
x,1/2-y,1/2+z
loop_
_atom_site_type_symbol
_atom_site_label
_atom_site_fract_x
_atom_site_fract_y
_atom_site_fract_z
Si Si1 0.894185 0.406249 0.383787
Si Si2 0.874347 0.396214 0.943906
Si Si3 0.560011 0.865605 0.842180
Si Si4 0.806062 0.022315 0.666604
Si Si5 0.960681 0.910501 0.828310
Si Si6 0.201875 0.037744 0.612868
Si Si7 0.750000 0.750000 0.083931
Si Si8 0.181243 0.313074 0.663676
O O1 0.756822 0.383249 0.370230
O O2 0.887818 0.455361 0.297808
O O3 0.993461 0.371901 0.310820
O O4 0.939494 0.415504 0.544702
O O5 0.969177 0.415379 0.823706
O O6 0.823189 0.434155 0.058039
O O7 0.953468 0.359408 0.036701
O O8 0.618745 0.916740 0.869684
O O9 0.673951 0.830372 0.843731
O O10 0.690549 0.001051 0.760841
O O11 0.825142 0.982477 0.545606
O O12 0.844684 0.944560 0.861792
O O13 0.903094 0.858620 0.831875
O O14 0.828256 0.717020 0.191129
O O15 0.666011 0.718669 0.977386
#
# Coordination Sequence:
#
# PCOD9430722 Si02
#       8
#     8   8   8   8   8   8   4   8
#     4  11  23  39  55  82 113 166 216 253 288 348
#     4  11  23  40  54  84 114 164 216 256 286 349
#     4  10  22  40  61  82 123 154 206 246 308 360
#     4  11  23  38  51  77 114 148 221 260 304 335
#     4  11  23  40  63  82 121 157 206 241 311 364
#     4  11  23  39  56  83 109 163 203 276 317 344
#     4  10  20  36  68 104 134 134 174 238 314 368
#     4  10  21  40  66 103 121 152 181 237 305 379
#
# _framework density 21.076642
#
# number of rings (size 3 to 8) (size 9 to 14) (size 15 to 20)
#    0.000    1.333    1.333    4.800    0.000    9.600 
#    2.400    0.000    0.000    0.000    0.000   65.333 
#    0.000    0.000    0.000    0.000    0.000    0.000 
#
# Total GULP energy -334548.420139 kJ/mol
# GULP energy per Si atom -5575.807002 kJ/mol
# Density = 2.102867 g / cm^3
# Si number density = 21.076642 Si / 1000 Ang^3
#
#
#
# Elastic Constant Matrix: (Units=GPa)
#
#
# Indices 1 2 3 4 5 6 
#
# 1 102.2710 24.8382 30.3964 0.0000 0.0000 0.0000
# 2 24.8382 88.6776 36.2332 0.0000 0.0000 0.0000
# 3 30.3964 36.2332 144.0378 0.0000 0.0000 0.0000
# 4 0.0000 0.0000 0.0000 26.6129 0.0000 0.0000
# 5 0.0000 0.0000 0.0000 0.0000 26.3981 0.0000
# 6 0.0000 0.0000 0.0000 0.0000 0.0000 11.2772
#
#
#
# Elastic Compliance Matrix: (Units=1/GPa)
#
#
# Indices 1 2 3 4 5 6 
#
# 1 0.010853 -0.002345 -0.001700 0.000000 0.000000 0.000000
# 2 -0.002345 0.013075 -0.002794 0.000000 0.000000 0.000000
# 3 -0.001700 -0.002794 0.008004 0.000000 0.000000 0.000000
# 4 0.000000 0.000000 0.000000 0.037576 0.000000 0.000000
# 5 0.000000 0.000000 0.000000 0.000000 0.037881 0.000000
# 6 0.000000 0.000000 0.000000 0.000000 0.000000 0.088674
#
#
# Mechanical properties :
#
#
# Convention : Reuss Voigt Hill
#
# Bulk Modulus (GPa) = 54.78508 57.54691 56.16599
# Shear Modulus (GPa) = 23.16661 29.09223 26.12942
#
# Velocity S-wave (km/s) = 3.31896 3.71928 3.52480
# Velocity P-wave (km/s) = 6.38255 6.76808 6.57814
#
# Compressibility (1/GPa) = 0.01825315
#
# Stress axis : x y z
#
# Youngs Moduli (GPa) = 92.14166 76.47969 124.93193
#
# Poissons Ratio (x) = 0.17935 0.21243
# Poissons Ratio (y) = 0.21608 0.34909
# Poissons Ratio (z) = 0.15668 0.21370
#
# Static dielectric constant tensor:
#      x y z
#    x 1.807640 0.000000 0.000000 
#    y 0.000000 1.769180 0.000000 
#    z 0.000000 0.000000 1.807280 
# 
# From -- ./inp_files/2947.got.cif
#   From: 2010.05.17/outbox.cif.g08.bks.cpg/sg56_2_cif.got.tgz:2947.got - 2010.06.03 13:42:01.
