data_PCOD9430350
_publ_section_title
;
Structure prediction by ZEFSAII (Michael W. Deem and Ramdas Pophale) SiO2 
 PCOD9430350
Probable space group: P C C N
;
_chemical_formula_sum "Si O2"
_cell_formula_units_Z 48
_cell_length_a 7.711863
_cell_length_b 16.341210
_cell_length_c 15.562720
_cell_angle_alpha 90.000000
_cell_angle_beta 90.000000
_cell_angle_gamma 90.000000
_cell_volume 1961.232226
_symmetry_space_group_name_H-M "P C C N"
_symmetry_group_IT_number 56
_symmetry_cell_setting 'orthorhombic'
loop_
_space_group_symop_operation_xyz
x,y,z
1/2-x,1/2-y,z
1/2+x,-y,1/2-z
-x,1/2+y,1/2-z
-x,-y,-z
1/2+x,1/2+y,-z
1/2-x,y,1/2+z
x,1/2-y,1/2+z
loop_
_atom_site_type_symbol
_atom_site_label
_atom_site_fract_x
_atom_site_fract_y
_atom_site_fract_z
Si Si1 0.250000 0.250000 0.300597
Si Si2 0.785412 0.019710 0.135553
Si Si3 0.399827 0.682617 0.417024
Si Si4 0.083039 0.364268 0.445314
Si Si5 0.800540 0.161636 0.395814
Si Si6 0.250000 0.250000 0.088078
Si Si7 0.550891 0.905245 0.245129
O O1 0.138655 0.307732 0.364153
O O2 0.362666 0.316034 0.248820
O O3 0.663808 0.093617 0.108834
O O4 0.960335 0.060470 0.170803
O O5 0.826549 0.951915 0.064405
O O6 0.691510 0.969019 0.210930
O O7 0.250000 0.750000 0.397441
O O8 0.418686 0.681197 0.521038
O O9 0.584021 0.701621 0.375179
O O10 0.150129 0.317201 0.528575
O O11 0.876486 0.374042 0.435535
O O12 0.750000 0.250000 0.356124
O O13 0.902505 0.107400 0.327988
#
# Coordination Sequence:
#
# PCOD9430350 Si02
#       7
#     4   8   8   8   8   4   8
#     4   9  18  36  69  94 118 182 236 266 334 415
#     4  11  26  44  65 100 144 176 236 297 346 409
#     4  11  24  46  66 105 138 180 231 293 348 418
#     4  10  19  38  69 100 131 178 228 281 340 419
#     4  11  19  38  73 100 132 180 231 280 342 418
#     4  11  20  42  73  98 138 178 236 276 356 433
#     4  11  23  44  67  98 137 183 232 284 346 422
#
# _framework density 24.474408
#
# number of rings (size 3 to 8) (size 9 to 14) (size 15 to 20)
#    0.000    1.333    5.000    3.000    0.000    4.000 
#   12.000    0.000    0.000    0.000    0.000    0.000 
#    0.000    0.000    0.000    0.000    0.000    0.000 
#
# Total GULP energy -268839.186794 kJ/mol
# GULP energy per Si atom -5600.816392 kJ/mol
# Density = 2.441870 g / cm^3
# Si number density = 24.474408 Si / 1000 Ang^3
#
#
#
# Elastic Constant Matrix: (Units=GPa)
#
#
# Indices 1 2 3 4 5 6 
#
# 1 115.8811 46.3663 0.1057 0.0000 0.0000 0.0000
# 2 46.3663 176.8801 21.2416 0.0000 0.0000 0.0000
# 3 0.1057 21.2416 19.0219 0.0000 0.0000 0.0000
# 4 0.0000 0.0000 0.0000 30.7758 0.0000 0.0000
# 5 0.0000 0.0000 0.0000 0.0000 22.8905 0.0000
# 6 0.0000 0.0000 0.0000 0.0000 0.0000 58.8964
#
#
#
# Elastic Compliance Matrix: (Units=1/GPa)
#
#
# Indices 1 2 3 4 5 6 
#
# 1 0.009812 -0.002963 0.003254 0.000000 0.000000 0.000000
# 2 -0.002963 0.007424 -0.008274 0.000000 0.000000 0.000000
# 3 0.003254 -0.008274 0.061792 0.000000 0.000000 0.000000
# 4 0.000000 0.000000 0.000000 0.032493 0.000000 0.000000
# 5 0.000000 0.000000 0.000000 0.000000 0.043686 0.000000
# 6 0.000000 0.000000 0.000000 0.000000 0.000000 0.016979
#
#
# Mechanical properties :
#
#
# Convention : Reuss Voigt Hill
#
# Bulk Modulus (GPa) = 15.85714 49.69002 32.77358
# Shear Modulus (GPa) = 23.90378 38.78385 31.34381
#
# Velocity S-wave (km/s) = 3.12859 3.98511 3.58254
# Velocity P-wave (km/s) = 4.42084 6.44374 5.52565
#
# Compressibility (1/GPa) = 0.06306308
#
# Stress axis : x y z
#
# Youngs Moduli (GPa) = 101.91527 134.70191 16.18332
#
# Poissons Ratio (x) = 0.39910 -0.05266
# Poissons Ratio (y) = 0.30196 0.13389
# Poissons Ratio (z) = -0.33164 1.11447
#
# Static dielectric constant tensor:
#      x y z
#    x 1.972690 0.000000 0.000000 
#    y 0.000000 1.913680 0.000000 
#    z 0.000000 0.000000 2.076190 
# 
# From -- ./inp_files/14856.got.cif
#   From: 2010.05.17/outbox.cif.g08.bks.cpg/sg56_8_cif.got.tgz:14856.got - 2010.06.03 13:42:01.
