data_PCOD9430714
_publ_section_title
;
Structure prediction by ZEFSAII (Michael W. Deem and Ramdas Pophale) SiO2 
 PCOD9430714
Probable space group: P C C N
;
_chemical_formula_sum "Si O2"
_cell_formula_units_Z 44
_cell_length_a 11.996890
_cell_length_b 7.947342
_cell_length_c 15.942018
_cell_angle_alpha 90.000000
_cell_angle_beta 90.000000
_cell_angle_gamma 90.000000
_cell_volume 1519.966004
_symmetry_space_group_name_H-M "P C C N"
_symmetry_group_IT_number 56
_symmetry_cell_setting 'orthorhombic'
loop_
_space_group_symop_operation_xyz
x,y,z
1/2-x,1/2-y,z
1/2+x,-y,1/2-z
-x,1/2+y,1/2-z
-x,-y,-z
1/2+x,1/2+y,-z
1/2-x,y,1/2+z
x,1/2-y,1/2+z
loop_
_atom_site_type_symbol
_atom_site_label
_atom_site_fract_x
_atom_site_fract_y
_atom_site_fract_z
Si Si1 0.750000 0.250000 0.951857
Si Si2 0.649576 0.917311 0.866479
Si Si3 0.063310 0.080172 0.177345
Si Si4 0.600401 0.949102 0.124710
Si Si5 0.810652 0.085562 0.193351
Si Si6 0.519269 0.329822 0.952343
O O1 0.724157 0.066659 0.907388
O O2 0.630147 0.260183 0.994953
O O3 0.520975 0.966265 0.890706
O O4 0.668654 0.952484 0.767290
O O5 0.641285 0.713275 0.871636
O O6 0.092632 0.084086 0.274986
O O7 0.934874 0.136199 0.168287
O O8 0.058640 0.890802 0.140885
O O9 0.774430 0.477836 0.121647
O O10 0.585654 0.787650 0.064657
O O11 0.750000 0.250000 0.228949
O O12 0.500000 0.500000 0.000000
#
# Coordination Sequence:
#
# PCOD9430714 Si02
#       6
#     4   8   8   8   8   8
#     4  10  22  44  70  92 136 194 230 286 358 434
#     4  10  20  36  65 100 139 184 239 290 355 437
#     4  11  23  39  67 107 141 185 242 295 354 435
#     4  10  21  40  68 105 142 186 240 296 358 436
#     4  11  20  36  65 105 145 184 233 311 372 411
#     4  11  26  48  71 105 148 188 242 294 362 441
#
# _framework density 28.948017
#
# number of rings (size 3 to 8) (size 9 to 14) (size 15 to 20)
#    0.000    1.455    2.727    3.273    2.545    5.091 
#    1.636    7.273    0.000    0.000    0.000    0.000 
#    0.000    0.000    0.000    0.000    0.000    0.000 
#
# Total GULP energy -245930.250006 kJ/mol
# GULP energy per Si atom -5589.323864 kJ/mol
# Density = 2.888213 g / cm^3
# Si number density = 28.948017 Si / 1000 Ang^3
#
#
#
# Elastic Constant Matrix: (Units=GPa)
#
#
# Indices 1 2 3 4 5 6 
#
# 1 179.5116 12.6172 -2.5915 0.0000 0.0000 0.0000
# 2 12.6172 110.7699 10.6771 0.0000 0.0000 0.0000
# 3 -2.5915 10.6771 98.6589 0.0000 0.0000 0.0000
# 4 0.0000 0.0000 0.0000 53.4421 0.0000 0.0000
# 5 0.0000 0.0000 0.0000 0.0000 33.9156 0.0000
# 6 0.0000 0.0000 0.0000 0.0000 0.0000 67.6947
#
#
#
# Elastic Compliance Matrix: (Units=1/GPa)
#
#
# Indices 1 2 3 4 5 6 
#
# 1 0.005620 -0.000661 0.000219 0.000000 0.000000 0.000000
# 2 -0.000661 0.009201 -0.001013 0.000000 0.000000 0.000000
# 3 0.000219 -0.001013 0.010251 0.000000 0.000000 0.000000
# 4 0.000000 0.000000 0.000000 0.018712 0.000000 0.000000
# 5 0.000000 0.000000 0.000000 0.000000 0.029485 0.000000
# 6 0.000000 0.000000 0.000000 0.000000 0.000000 0.014772
#
#
# Mechanical properties :
#
#
# Convention : Reuss Voigt Hill
#
# Bulk Modulus (GPa) = 45.12241 47.81624 46.46932
# Shear Modulus (GPa) = 50.84448 55.55965 53.20206
#
# Velocity S-wave (km/s) = 4.19550 4.38572 4.29166
# Velocity P-wave (km/s) = 6.25227 6.49615 6.37537
#
# Compressibility (1/GPa) = 0.02216194
#
# Stress axis : x y z
#
# Youngs Moduli (GPa) = 177.92591 108.68734 97.54830
#
# Poissons Ratio (x) = 0.07188 -0.02138
# Poissons Ratio (y) = 0.11766 0.09883
# Poissons Ratio (z) = -0.03900 0.11011
#
# Static dielectric constant tensor:
#      x y z
#    x 2.298490 0.000000 0.000000 
#    y 0.000000 2.396590 0.000000 
#    z 0.000000 0.000000 2.345870 
# 
# From -- ./inp_files/16109.got.cif
#   From: 2010.05.17/outbox.cif.g08.bks.cpg/sg56_9_cif.got.tgz:16109.got - 2010.06.03 13:42:01.
