data_PCOD9430687
_publ_section_title
;
Structure prediction by ZEFSAII (Michael W. Deem and Ramdas Pophale) SiO2 
 PCOD9430687
Probable space group: P C C N
;
_chemical_formula_sum "Si O2"
_cell_formula_units_Z 60
_cell_length_a 12.725259
_cell_length_b 11.835110
_cell_length_c 21.723839
_cell_angle_alpha 90.000000
_cell_angle_beta 90.000000
_cell_angle_gamma 90.000000
_cell_volume 3271.715298
_symmetry_space_group_name_H-M "P C C N"
_symmetry_group_IT_number 56
_symmetry_cell_setting 'orthorhombic'
loop_
_space_group_symop_operation_xyz
x,y,z
1/2-x,1/2-y,z
1/2+x,-y,1/2-z
-x,1/2+y,1/2-z
-x,-y,-z
1/2+x,1/2+y,-z
1/2-x,y,1/2+z
x,1/2-y,1/2+z
loop_
_atom_site_type_symbol
_atom_site_label
_atom_site_fract_x
_atom_site_fract_y
_atom_site_fract_z
Si Si1 0.750000 0.250000 0.832391
Si Si2 0.044876 0.683152 0.091973
Si Si3 0.818976 0.419887 0.228219
Si Si4 0.207177 0.131467 0.731631
Si Si5 0.023125 0.061951 0.646894
Si Si6 0.587244 0.198240 0.052440
Si Si7 0.150911 0.332540 0.370360
Si Si8 0.795379 0.412918 0.602947
O O1 0.844966 0.293227 0.874318
O O2 0.701084 0.342817 0.786660
O O3 0.008100 0.560901 0.116801
O O4 0.955832 0.774132 0.108442
O O5 0.063276 0.689129 0.019116
O O6 0.800689 0.548326 0.249048
O O7 0.732764 0.391758 0.175056
O O8 0.931047 0.411067 0.195754
O O9 0.250000 0.250000 0.707908
O O10 0.131890 0.072166 0.682848
O O11 0.147805 0.153913 0.796218
O O12 0.009055 0.153059 0.592947
O O13 0.622622 0.322361 0.075930
O O14 0.686389 0.116272 0.068237
O O15 0.250000 0.250000 0.383620
O O16 0.170628 0.456433 0.399545
#
# Coordination Sequence:
#
# PCOD9430687 Si02
#       8
#     4   8   8   8   8   8   8   8
#     4  12  22  38  58  94 124 152 198 258 322 360
#     4  12  24  39  61  90 123 162 207 253 307 359
#     4  10  20  36  62  87 118 152 199 248 305 376
#     4  10  20  39  57  88 123 150 195 253 308 362
#     4  11  21  39  60  85 117 165 200 242 305 367
#     4  10  21  39  60  85 119 168 209 247 292 365
#     4  10  21  39  64  93 121 159 207 259 307 366
#     4   9  19  39  61  86 117 164 208 248 300 361
#
# _framework density 18.339003999999999
#
# number of rings (size 3 to 8) (size 9 to 14) (size 15 to 20)
#    0.000    1.600    1.333    6.800    0.000    0.533 
#    7.200    2.000    0.000    0.000    0.000    0.000 
#    0.000    0.000    0.000    0.000    0.000    0.000 
#
# Total GULP energy -334923.759362 kJ/mol
# GULP energy per Si atom -5582.062656 kJ/mol
# Density = 1.829726 g / cm^3
# Si number density = 18.339004 Si / 1000 Ang^3
#
#
#
# Elastic Constant Matrix: (Units=GPa)
#
#
# Indices 1 2 3 4 5 6 
#
# 1 46.4496 23.0691 26.4631 0.0000 0.0000 0.0000
# 2 23.0691 113.0895 32.9440 0.0000 0.0000 0.0000
# 3 26.4631 32.9440 84.7885 0.0000 0.0000 0.0000
# 4 0.0000 0.0000 0.0000 13.3511 0.0000 0.0000
# 5 0.0000 0.0000 0.0000 0.0000 17.4128 0.0000
# 6 0.0000 0.0000 0.0000 0.0000 0.0000 29.3836
#
#
#
# Elastic Compliance Matrix: (Units=1/GPa)
#
#
# Indices 1 2 3 4 5 6 
#
# 1 0.027352 -0.003487 -0.007182 0.000000 0.000000 0.000000
# 2 -0.003487 0.010416 -0.002959 0.000000 0.000000 0.000000
# 3 -0.007182 -0.002959 0.015185 0.000000 0.000000 0.000000
# 4 0.000000 0.000000 0.000000 0.074900 0.000000 0.000000
# 5 0.000000 0.000000 0.000000 0.000000 0.057429 0.000000
# 6 0.000000 0.000000 0.000000 0.000000 0.000000 0.034033
#
#
# Mechanical properties :
#
#
# Convention : Reuss Voigt Hill
#
# Bulk Modulus (GPa) = 38.91415 45.47554 42.19484
# Shear Modulus (GPa) = 19.59735 22.81959 21.20847
#
# Velocity S-wave (km/s) = 3.27252 3.53132 3.40438
# Velocity P-wave (km/s) = 5.96192 6.44034 6.20574
#
# Compressibility (1/GPa) = 0.02569760
#
# Stress axis : x y z
#
# Youngs Moduli (GPa) = 36.55989 96.00793 65.85420
#
# Poissons Ratio (x) = 0.33482 0.47295
# Poissons Ratio (y) = 0.12750 0.19483
# Poissons Ratio (z) = 0.26257 0.28404
#
# Static dielectric constant tensor:
#      x y z
#    x 1.619420 0.000000 0.000000 
#    y 0.000000 1.648700 0.000000 
#    z 0.000000 0.000000 1.607660 
# 
# From -- ./inp_files/18797.got.cif
#   From: 2010.05.17/outbox.cif.g08.bks.cpg/sg56_10_cif.got.tgz:18797.got - 2010.06.03 13:42:01.
