data_PCOD9430612
_publ_section_title
;
Structure prediction by ZEFSAII (Michael W. Deem and Ramdas Pophale) SiO2 
 PCOD9430612
Probable space group: P C C N
;
_chemical_formula_sum "Si O2"
_cell_formula_units_Z 40
_cell_length_a 22.348505
_cell_length_b 14.676419
_cell_length_c 5.106465
_cell_angle_alpha 90.000000
_cell_angle_beta 90.000000
_cell_angle_gamma 90.000000
_cell_volume 1674.900214
_symmetry_space_group_name_H-M "P C C N"
_symmetry_group_IT_number 56
_symmetry_cell_setting 'orthorhombic'
loop_
_space_group_symop_operation_xyz
x,y,z
1/2-x,1/2-y,z
1/2+x,-y,1/2-z
-x,1/2+y,1/2-z
-x,-y,-z
1/2+x,1/2+y,-z
1/2-x,y,1/2+z
x,1/2-y,1/2+z
loop_
_atom_site_type_symbol
_atom_site_label
_atom_site_fract_x
_atom_site_fract_y
_atom_site_fract_z
Si Si1 0.861771 0.957550 0.427840
Si Si2 0.580578 0.205141 0.138146
Si Si3 0.208205 0.857251 0.456658
Si Si4 0.744855 0.858586 0.136522
Si Si5 0.567297 0.007192 0.400398
O O1 0.812164 0.876563 0.411401
O O2 0.821125 0.042850 0.518551
O O3 0.911818 0.945327 0.652984
O O4 0.892333 0.986269 0.155600
O O5 0.556488 0.279368 0.345357
O O6 0.572251 0.109154 0.281095
O O7 0.651839 0.208907 0.081786
O O8 0.251766 0.848765 0.212426
O O9 0.750000 0.750000 0.154326
O O10 0.713831 0.896655 0.400346
O O11 0.500000 0.000000 0.500000
#
# Coordination Sequence:
#
# PCOD9430612 Si02
#       5
#     8   8   8   8   8
#     4  11  21  38  63  92 124 165 222 259 314 401
#     4  11  23  40  62  88 127 164 203 259 328 385
#     4  11  21  34  56  91 125 162 198 238 302 381
#     4  10  20  35  60  89 129 174 200 252 323 385
#     4  11  24  43  68  90 120 169 227 282 324 377
#
# _framework density 23.882017999999999
#
# number of rings (size 3 to 8) (size 9 to 14) (size 15 to 20)
#    0.000    1.200    0.000    9.000    0.000    2.400 
#    0.000    0.000   26.400    0.000    0.000    0.000 
#    0.000    0.000    0.000    0.000    0.000    0.000 
#
# Total GULP energy -222840.857365 kJ/mol
# GULP energy per Si atom -5571.021434 kJ/mol
# Density = 2.382766 g / cm^3
# Si number density = 23.882018 Si / 1000 Ang^3
#
#
#
# Elastic Constant Matrix: (Units=GPa)
#
#
# Indices 1 2 3 4 5 6 
#
# 1 75.7138 41.6339 30.6719 0.0000 0.0000 0.0000
# 2 41.6339 69.0815 47.6916 0.0000 0.0000 0.0000
# 3 30.6719 47.6916 247.8448 0.0000 0.0000 0.0000
# 4 0.0000 0.0000 0.0000 34.5060 0.0000 0.0000
# 5 0.0000 0.0000 0.0000 0.0000 14.6030 0.0000
# 6 0.0000 0.0000 0.0000 0.0000 0.0000 18.4510
#
#
#
# Elastic Compliance Matrix: (Units=1/GPa)
#
#
# Indices 1 2 3 4 5 6 
#
# 1 0.019761 -0.011787 -0.000177 0.000000 0.000000 0.000000
# 2 -0.011787 0.023724 -0.003106 0.000000 0.000000 0.000000
# 3 -0.000177 -0.003106 0.004654 0.000000 0.000000 0.000000
# 4 0.000000 0.000000 0.000000 0.028980 0.000000 0.000000
# 5 0.000000 0.000000 0.000000 0.000000 0.068479 0.000000
# 6 0.000000 0.000000 0.000000 0.000000 0.000000 0.054198
#
#
# Mechanical properties :
#
#
# Convention : Reuss Voigt Hill
#
# Bulk Modulus (GPa) = 55.56229 70.29277 62.92753
# Shear Modulus (GPa) = 21.19205 31.68819 26.44012
#
# Velocity S-wave (km/s) = 2.98210 3.64657 3.33094
# Velocity P-wave (km/s) = 5.93069 6.87220 6.41873
#
# Compressibility (1/GPa) = 0.01799782
#
# Stress axis : x y z
#
# Youngs Moduli (GPa) = 50.60457 42.15133 214.84655
#
# Poissons Ratio (x) = 0.49684 0.03811
# Poissons Ratio (y) = 0.59648 0.66740
# Poissons Ratio (z) = 0.00898 0.13094
#
# Static dielectric constant tensor:
#      x y z
#    x 2.266430 0.000000 0.000000 
#    y 0.000000 1.904870 0.000000 
#    z 0.000000 0.000000 1.617220 
# 
# From -- ./inp_files/640.got.cif
#   From: 2010.05.17/outbox.cif.g08.bks.cpg/sg56_1_cif.got.tgz:640.got - 2010.06.03 13:42:01.
