data_PCOD9430469
_publ_section_title
;
Structure prediction by ZEFSAII (Michael W. Deem and Ramdas Pophale) SiO2 
 PCOD9430469
Probable space group: P C C N
;
_chemical_formula_sum "Si O2"
_cell_formula_units_Z 52
_cell_length_a 9.060659
_cell_length_b 11.358305
_cell_length_c 23.600196
_cell_angle_alpha 90.000000
_cell_angle_beta 90.000000
_cell_angle_gamma 90.000000
_cell_volume 2428.784162
_symmetry_space_group_name_H-M "P C C N"
_symmetry_group_IT_number 56
_symmetry_cell_setting 'orthorhombic'
loop_
_space_group_symop_operation_xyz
x,y,z
1/2-x,1/2-y,z
1/2+x,-y,1/2-z
-x,1/2+y,1/2-z
-x,-y,-z
1/2+x,1/2+y,-z
1/2-x,y,1/2+z
x,1/2-y,1/2+z
loop_
_atom_site_type_symbol
_atom_site_label
_atom_site_fract_x
_atom_site_fract_y
_atom_site_fract_z
Si Si1 0.250000 0.750000 0.159215
Si Si2 0.590501 0.883774 0.016587
Si Si3 0.264684 0.388074 0.283693
Si Si4 0.511367 0.064418 0.866391
Si Si5 0.929906 0.623045 0.519902
Si Si6 0.754683 0.884901 0.351894
Si Si7 0.988549 0.428931 0.352419
O O1 0.352515 0.844835 0.128714
O O2 0.379620 0.662261 0.182033
O O3 0.598521 0.898403 0.084703
O O4 0.521202 0.755928 0.001623
O O5 0.760574 0.885149 0.999390
O O6 0.500000 0.000000 0.000000
O O7 0.250000 0.250000 0.298839
O O8 0.422423 0.429001 0.307785
O O9 0.247290 0.397285 0.216586
O O10 0.130864 0.454687 0.314542
O O11 0.593157 0.941001 0.873564
O O12 0.000000 0.500000 0.500000
O O13 0.955963 0.624397 0.588059
O O14 0.750000 0.750000 0.367703
O O15 0.610750 0.958985 0.368525
#
# Coordination Sequence:
#
# PCOD9430469 Si02
#       7
#     4   8   8   8   8   8   8
#     4  10  20  32  64  96 112 162 212 254 300 366
#     4  11  25  43  67  98 127 167 213 265 323 386
#     4  11  19  39  66  93 129 162 217 266 317 374
#     4  11  21  40  65  92 126 166 215 258 314 381
#     4  11  25  43  67  98 127 167 213 265 323 386
#     4  10  25  39  60  92 134 171 208 263 322 373
#     4  11  21  40  65  92 126 166 215 258 314 381
#
# _framework density 21.409887999999999
#
# number of rings (size 3 to 8) (size 9 to 14) (size 15 to 20)
#    0.000    1.231    4.615    0.923    4.308    1.846 
#    0.000    0.769    0.000    0.000    0.000    0.000 
#    0.000    0.000    0.000    0.000    0.000    0.000 
#
# Total GULP energy -289856.391574 kJ/mol
# GULP energy per Si atom -5574.161376 kJ/mol
# Density = 2.136116 g / cm^3
# Si number density = 21.409888 Si / 1000 Ang^3
#
#
#
# Elastic Constant Matrix: (Units=GPa)
#
#
# Indices 1 2 3 4 5 6 
#
# 1 94.7679 54.2092 9.0003 0.0000 0.0000 0.0000
# 2 54.2092 174.2556 7.7563 0.0000 0.0000 0.0000
# 3 9.0003 7.7563 46.9509 0.0000 0.0000 0.0000
# 4 0.0000 0.0000 0.0000 25.4497 0.0000 0.0000
# 5 0.0000 0.0000 0.0000 0.0000 26.0740 0.0000
# 6 0.0000 0.0000 0.0000 0.0000 0.0000 30.1799
#
#
#
# Elastic Compliance Matrix: (Units=1/GPa)
#
#
# Indices 1 2 3 4 5 6 
#
# 1 0.012992 -0.003960 -0.001836 0.000000 0.000000 0.000000
# 2 -0.003960 0.006988 -0.000395 0.000000 0.000000 0.000000
# 3 -0.001836 -0.000395 0.021716 0.000000 0.000000 0.000000
# 4 0.000000 0.000000 0.000000 0.039293 0.000000 0.000000
# 5 0.000000 0.000000 0.000000 0.000000 0.038352 0.000000
# 6 0.000000 0.000000 0.000000 0.000000 0.000000 0.033135
#
#
# Mechanical properties :
#
#
# Convention : Reuss Voigt Hill
#
# Bulk Modulus (GPa) = 34.11455 50.87846 42.49651
# Shear Modulus (GPa) = 28.63195 32.67462 30.65329
#
# Velocity S-wave (km/s) = 3.66091 3.91083 3.78793
# Velocity P-wave (km/s) = 5.81707 6.64894 6.24687
#
# Compressibility (1/GPa) = 0.02931300
#
# Stress axis : x y z
#
# Youngs Moduli (GPa) = 76.97286 143.09925 46.04859
#
# Poissons Ratio (x) = 0.56665 0.08456
# Poissons Ratio (y) = 0.30480 0.01821
# Poissons Ratio (z) = 0.14134 0.05658
#
# Static dielectric constant tensor:
#      x y z
#    x 1.776960 0.000000 0.000000 
#    y 0.000000 1.801200 0.000000 
#    z 0.000000 0.000000 1.821020 
# 
# From -- ./inp_files/22049.got.cif
#   From: 2010.05.17/outbox.cif.g08.bks.cpg/sg56_12_cif.got.tgz:22049.got - 2010.06.03 13:42:01.
