data_PCOD9430178
_publ_section_title
;
Structure prediction by ZEFSAII (Michael W. Deem and Ramdas Pophale) SiO2 
 PCOD9430178
Probable space group: P C C N
;
_chemical_formula_sum "Si O2"
_cell_formula_units_Z 60
_cell_length_a 32.864091
_cell_length_b 10.655275
_cell_length_c 8.732963
_cell_angle_alpha 90.000000
_cell_angle_beta 90.000000
_cell_angle_gamma 90.000000
_cell_volume 3058.073416
_symmetry_space_group_name_H-M "P C C N"
_symmetry_group_IT_number 56
_symmetry_cell_setting 'orthorhombic'
loop_
_space_group_symop_operation_xyz
x,y,z
1/2-x,1/2-y,z
1/2+x,-y,1/2-z
-x,1/2+y,1/2-z
-x,-y,-z
1/2+x,1/2+y,-z
1/2-x,y,1/2+z
x,1/2-y,1/2+z
loop_
_atom_site_type_symbol
_atom_site_label
_atom_site_fract_x
_atom_site_fract_y
_atom_site_fract_z
Si Si1 0.510629 0.365354 0.736883
Si Si2 0.375059 0.498042 0.706627
Si Si3 0.445271 0.662387 0.568631
Si Si4 0.807988 0.350834 0.918438
Si Si5 0.077247 0.204624 0.853638
Si Si6 0.750000 0.250000 0.668462
Si Si7 0.074245 0.062072 0.173102
Si Si8 0.124623 0.854958 0.022149
O O1 0.531511 0.238264 0.800046
O O2 0.522635 0.376370 0.559841
O O3 0.463905 0.349153 0.777184
O O4 0.532431 0.483056 0.819390
O O5 0.416050 0.554959 0.632568
O O6 0.337190 0.528964 0.597386
O O7 0.385094 0.359746 0.765331
O O8 0.366821 0.577798 0.861817
O O9 0.413429 0.762020 0.496807
O O10 0.778420 0.335192 0.774517
O O11 0.661555 0.269304 0.922110
O O12 0.779165 0.335762 0.064505
O O13 0.078499 0.352704 0.823218
O O14 0.075633 0.155446 0.027531
O O15 0.109166 0.958233 0.144273
#
# Coordination Sequence:
#
# PCOD9430178 Si02
#       8
#     8   8   8   8   8   4   8   8
#     4  11  22  36  57  76 113 147 206 267 302 336
#     4  10  20  34  55  78 116 155 189 234 285 351
#     4  10  20  33  56  81 106 152 198 246 304 339
#     4  10  19  35  58  92 120 141 174 223 294 355
#     4  11  24  39  54  77 112 156 212 251 295 339
#     4  10  20  32  60  96 120 134 170 224 288 368
#     4  10  24  39  55  79 110 156 206 250 298 340
#     4   9  18  37  56  81 115 152 187 233 288 352
#
# _framework density 19.620194999999999
#
# number of rings (size 3 to 8) (size 9 to 14) (size 15 to 20)
#    0.000    1.867    2.667    1.200    3.733    0.533 
#    0.000    0.000    0.000    0.000    0.000    5.600 
#    0.000    0.000    0.000    0.000    0.000    0.000 
#
# Total GULP energy -335166.870607 kJ/mol
# GULP energy per Si atom -5586.114510 kJ/mol
# Density = 1.957554 g / cm^3
# Si number density = 19.620195 Si / 1000 Ang^3
#
#
#
# Elastic Constant Matrix: (Units=GPa)
#
#
# Indices 1 2 3 4 5 6 
#
# 1 75.0356 10.0842 21.6671 0.0000 0.0000 0.0000
# 2 10.0842 42.0234 23.2310 0.0000 0.0000 0.0000
# 3 21.6671 23.2310 61.3594 0.0000 0.0000 0.0000
# 4 0.0000 0.0000 0.0000 19.7035 0.0000 0.0000
# 5 0.0000 0.0000 0.0000 0.0000 29.4148 0.0000
# 6 0.0000 0.0000 0.0000 0.0000 0.0000 14.7518
#
#
#
# Elastic Compliance Matrix: (Units=1/GPa)
#
#
# Indices 1 2 3 4 5 6 
#
# 1 0.014864 -0.000841 -0.004930 0.000000 0.000000 0.000000
# 2 -0.000841 0.030143 -0.011115 0.000000 0.000000 0.000000
# 3 -0.004930 -0.011115 0.022247 0.000000 0.000000 0.000000
# 4 0.000000 0.000000 0.000000 0.050753 0.000000 0.000000
# 5 0.000000 0.000000 0.000000 0.000000 0.033996 0.000000
# 6 0.000000 0.000000 0.000000 0.000000 0.000000 0.067789
#
#
# Mechanical properties :
#
#
# Convention : Reuss Voigt Hill
#
# Bulk Modulus (GPa) = 29.86871 32.04255 30.95563
# Shear Modulus (GPa) = 18.88764 21.00308 19.94536
#
# Velocity S-wave (km/s) = 3.10605 3.27537 3.19183
# Velocity P-wave (km/s) = 5.30282 5.53814 5.42175
#
# Compressibility (1/GPa) = 0.03347986
#
# Stress axis : x y z
#
# Youngs Moduli (GPa) = 67.27806 33.17555 44.95085
#
# Poissons Ratio (x) = 0.02791 0.22161
# Poissons Ratio (y) = 0.05661 0.49963
# Poissons Ratio (z) = 0.33169 0.36875
#
# Static dielectric constant tensor:
#      x y z
#    x 1.670660 0.000000 0.000000 
#    y 0.000000 1.693970 0.000000 
#    z 0.000000 0.000000 1.732660 
# 
# From -- ./inp_files/5185.got.cif
#   From: 2010.05.17/outbox.cif.g08.bks.cpg/sg56_3_cif.got.tgz:5185.got - 2010.06.03 13:42:01.
