data_PCOD9430681
_publ_section_title
;
Structure prediction by ZEFSAII (Michael W. Deem and Ramdas Pophale) SiO2 
 PCOD9430681
Probable space group: P C C N
;
_chemical_formula_sum "Si O2"
_cell_formula_units_Z 60
_cell_length_a 32.333190
_cell_length_b 4.993312
_cell_length_c 17.406147
_cell_angle_alpha 90.000000
_cell_angle_beta 90.000000
_cell_angle_gamma 90.000000
_cell_volume 2810.217309
_symmetry_space_group_name_H-M "P C C N"
_symmetry_group_IT_number 56
_symmetry_cell_setting 'orthorhombic'
loop_
_space_group_symop_operation_xyz
x,y,z
1/2-x,1/2-y,z
1/2+x,-y,1/2-z
-x,1/2+y,1/2-z
-x,-y,-z
1/2+x,1/2+y,-z
1/2-x,y,1/2+z
x,1/2-y,1/2+z
loop_
_atom_site_type_symbol
_atom_site_label
_atom_site_fract_x
_atom_site_fract_y
_atom_site_fract_z
Si Si1 0.633941 0.876002 0.187352
Si Si2 0.250000 0.250000 0.165159
Si Si3 0.585599 0.378293 0.129281
Si Si4 0.077826 0.002241 0.613911
Si Si5 0.665061 0.931612 0.826679
Si Si6 0.474604 0.363380 0.758700
Si Si7 0.547501 0.017483 0.472487
Si Si8 0.709501 0.154099 0.212553
O O1 0.619245 0.607532 0.146434
O O2 0.644347 0.810084 0.276825
O O3 0.600624 0.106701 0.169810
O O4 0.678067 0.988766 0.160603
O O5 0.292680 0.143765 0.127883
O O6 0.268858 0.474403 0.221591
O O7 0.544093 0.501758 0.165955
O O8 0.575579 0.356766 0.040049
O O9 0.060583 0.109969 0.694765
O O10 0.054137 0.726309 0.596494
O O11 0.127102 0.961539 0.622916
O O12 0.064581 0.227449 0.552287
O O13 0.682072 0.128656 0.759293
O O14 0.488758 0.060407 0.767427
O O15 0.500000 0.000000 0.500000
O O16 0.750000 0.250000 0.167670
#
# Coordination Sequence:
#
# PCOD9430681 Si02
#       8
#     8   4   8   8   8   8   8   8
#     4  11  20  36  62  93 125 158 209 261 315 378
#     4   8  18  30  60  94 146 160 198 260 340 386
#     4  12  24  41  63  87 126 167 214 267 322 384
#     4  12  25  42  69  93 128 170 228 278 322 401
#     4  10  20  36  62 103 130 164 213 271 331 382
#     4  12  24  39  62  94 122 161 212 279 333 373
#     4  12  28  48  62  90 129 182 223 271 335 398
#     4   9  17  33  56 101 138 166 195 265 331 386
#
# _framework density 21.350663000000001
#
# number of rings (size 3 to 8) (size 9 to 14) (size 15 to 20)
#    0.000    1.067    2.667    4.400    5.600    0.000 
#    0.000    0.000    0.000    0.000    6.933    0.000 
#    0.000    0.000    0.000    0.000    0.000    0.000 
#
# Total GULP energy -334735.868934 kJ/mol
# GULP energy per Si atom -5578.931149 kJ/mol
# Density = 2.130207 g / cm^3
# Si number density = 21.350663 Si / 1000 Ang^3
#
#
#
# Elastic Constant Matrix: (Units=GPa)
#
#
# Indices 1 2 3 4 5 6 
#
# 1 160.5598 36.6693 12.2141 0.0000 0.0000 0.0000
# 2 36.6693 100.7532 -1.8311 0.0000 0.0000 0.0000
# 3 12.2141 -1.8311 25.1126 0.0000 0.0000 0.0000
# 4 0.0000 0.0000 0.0000 21.0049 0.0000 0.0000
# 5 0.0000 0.0000 0.0000 0.0000 19.5627 0.0000
# 6 0.0000 0.0000 0.0000 0.0000 0.0000 42.3575
#
#
#
# Elastic Compliance Matrix: (Units=1/GPa)
#
#
# Indices 1 2 3 4 5 6 
#
# 1 0.007112 -0.002655 -0.003653 0.000000 0.000000 0.000000
# 2 -0.002655 0.010929 0.002088 0.000000 0.000000 0.000000
# 3 -0.003653 0.002088 0.041749 0.000000 0.000000 0.000000
# 4 0.000000 0.000000 0.000000 0.047608 0.000000 0.000000
# 5 0.000000 0.000000 0.000000 0.000000 0.051118 0.000000
# 6 0.000000 0.000000 0.000000 0.000000 0.000000 0.023609
#
#
# Mechanical properties :
#
#
# Convention : Reuss Voigt Hill
#
# Bulk Modulus (GPa) = 19.47337 42.28113 30.87725
# Shear Modulus (GPa) = 24.07524 32.54326 28.30925
#
# Velocity S-wave (km/s) = 3.36164 3.90837 3.64527
# Velocity P-wave (km/s) = 4.92016 6.34140 5.67544
#
# Compressibility (1/GPa) = 0.05135219
#
# Stress axis : x y z
#
# Youngs Moduli (GPa) = 140.59872 91.49574 23.95238
#
# Poissons Ratio (x) = 0.24292 0.08750
# Poissons Ratio (y) = 0.37329 -0.05002
# Poissons Ratio (z) = 0.51359 -0.19106
#
# Static dielectric constant tensor:
#      x y z
#    x 1.794200 0.000000 0.000000 
#    y 0.000000 1.846770 0.000000 
#    z 0.000000 0.000000 1.761860 
# 
# From -- ./inp_files/17103.got.cif
#   From: 2010.05.17/outbox.cif.g08.bks.cpg/sg56_9_cif.got.tgz:17103.got - 2010.06.03 13:42:01.
