data_PCOD9430654
_publ_section_title
;
Structure prediction by ZEFSAII (Michael W. Deem and Ramdas Pophale) SiO2 
 PCOD9430654
Probable space group: P C C N
;
_chemical_formula_sum "Si O2"
_cell_formula_units_Z 56
_cell_length_a 13.991992
_cell_length_b 13.741106
_cell_length_c 13.345729
_cell_angle_alpha 90.000000
_cell_angle_beta 90.000000
_cell_angle_gamma 90.000000
_cell_volume 2565.922528
_symmetry_space_group_name_H-M "P C C N"
_symmetry_group_IT_number 56
_symmetry_cell_setting 'orthorhombic'
loop_
_space_group_symop_operation_xyz
x,y,z
1/2-x,1/2-y,z
1/2+x,-y,1/2-z
-x,1/2+y,1/2-z
-x,-y,-z
1/2+x,1/2+y,-z
1/2-x,y,1/2+z
x,1/2-y,1/2+z
loop_
_atom_site_type_symbol
_atom_site_label
_atom_site_fract_x
_atom_site_fract_y
_atom_site_fract_z
Si Si1 0.131465 0.591799 0.694331
Si Si2 0.831998 0.320843 0.104105
Si Si3 0.250000 0.750000 0.086576
Si Si4 0.250000 0.250000 0.468482
Si Si5 0.664715 0.931514 0.454562
Si Si6 0.084188 0.018596 0.833367
Si Si7 0.848843 0.710631 0.725976
Si Si8 0.004618 0.820575 0.848809
O O1 0.150019 0.595348 0.814122
O O2 0.170000 0.693372 0.649603
O O3 0.184023 0.505606 0.635014
O O4 0.020538 0.570264 0.668004
O O5 0.750000 0.250000 0.148121
O O6 0.795332 0.330561 0.990283
O O7 0.926972 0.256261 0.099363
O O8 0.253799 0.148565 0.526066
O O9 0.161643 0.259774 0.391074
O O10 0.634532 0.985182 0.557548
O O11 0.569210 0.872352 0.423409
O O12 0.145226 0.094549 0.769387
O O13 0.066329 0.908144 0.800910
O O14 0.750000 0.750000 0.771247
O O15 0.938924 0.762953 0.771940
#
# Coordination Sequence:
#
# PCOD9430654 Si02
#       8
#     8   8   4   4   8   8   8   8
#     4  11  19  38  60  90 121 160 206 260 299 380
#     4  10  22  37  56  93 123 160 201 257 315 367
#     4  10  20  36  58  88 128 162 200 252 326 354
#     4   8  20  40  56  90 122 162 206 252 306 376
#     4  10  21  37  64  87 115 162 212 249 307 378
#     4  10  20  39  63  86 115 159 215 247 309 377
#     4   9  20  39  57  87 125 158 195 264 308 364
#     4  11  20  38  62  88 122 159 207 256 307 370
#
# _framework density 21.824508000000002
#
# number of rings (size 3 to 8) (size 9 to 14) (size 15 to 20)
#    0.857    1.143    2.143    3.429    1.000    0.000 
#   10.286    0.000    0.000    0.000    0.000   10.000 
#    0.000    0.000    0.000    0.000    0.000    0.000 
#
# Total GULP energy -312148.067161 kJ/mol
# GULP energy per Si atom -5574.072628 kJ/mol
# Density = 2.177483 g / cm^3
# Si number density = 21.824508 Si / 1000 Ang^3
#
#
#
# Elastic Constant Matrix: (Units=GPa)
#
#
# Indices 1 2 3 4 5 6 
#
# 1 39.3550 16.2812 0.0279 0.0000 0.0000 0.0000
# 2 16.2812 46.9523 6.8096 0.0000 0.0000 0.0000
# 3 0.0279 6.8096 44.8766 0.0000 0.0000 0.0000
# 4 0.0000 0.0000 0.0000 27.4241 0.0000 0.0000
# 5 0.0000 0.0000 0.0000 0.0000 -11.8234 0.0000
# 6 0.0000 0.0000 0.0000 0.0000 0.0000 32.0398
#
#
#
# Elastic Compliance Matrix: (Units=1/GPa)
#
#
# Indices 1 2 3 4 5 6 
#
# 1 0.029775 -0.010554 0.001583 0.000000 0.000000 0.000000
# 2 -0.010554 0.025519 -0.003866 0.000000 0.000000 0.000000
# 3 0.001583 -0.003866 0.022869 0.000000 0.000000 0.000000
# 4 0.000000 0.000000 0.000000 0.036464 0.000000 0.000000
# 5 0.000000 0.000000 0.000000 0.000000 -0.084578 0.000000
# 6 0.000000 0.000000 0.000000 0.000000 0.000000 0.031211
#
#
# Mechanical properties :
#
#
# Convention : Reuss Voigt Hill
#
# Bulk Modulus (GPa) = 19.05177 19.71348 19.38262
# Shear Modulus (GPa) = 47.87875 16.73245 32.30560
#
# Velocity S-wave (km/s) = 4.68889 2.77191 3.85157
# Velocity P-wave (km/s) = 6.16950 4.39283 5.35536
#
# Compressibility (1/GPa) = 0.05248856
#
# Stress axis : x y z
#
# Youngs Moduli (GPa) = 33.58525 39.18695 43.72749
#
# Poissons Ratio (x) = 0.41359 -0.06922
# Poissons Ratio (y) = 0.35447 0.16904
# Poissons Ratio (z) = -0.05317 0.15148
#
# Static dielectric constant tensor:
#      x y z
#    x 1.817100 0.000000 0.000000 
#    y 0.000000 1.836980 0.000000 
#    z 0.000000 0.000000 1.839960 
# 
# From -- ./inp_files/12384.got.cif
#   From: 2010.05.17/outbox.cif.g08.bks.cpg/sg56_7_cif.got.tgz:12384.got - 2010.06.03 13:42:01.
