data_PCOD9430251
_publ_section_title
;
Structure prediction by ZEFSAII (Michael W. Deem and Ramdas Pophale) SiO2 
 PCOD9430251
Probable space group: P C C N
;
_chemical_formula_sum "Si O2"
_cell_formula_units_Z 52
_cell_length_a 9.400943
_cell_length_b 14.570614
_cell_length_c 16.253829
_cell_angle_alpha 90.000000
_cell_angle_beta 90.000000
_cell_angle_gamma 90.000000
_cell_volume 2226.409052
_symmetry_space_group_name_H-M "P C C N"
_symmetry_group_IT_number 56
_symmetry_cell_setting 'orthorhombic'
loop_
_space_group_symop_operation_xyz
x,y,z
1/2-x,1/2-y,z
1/2+x,-y,1/2-z
-x,1/2+y,1/2-z
-x,-y,-z
1/2+x,1/2+y,-z
1/2-x,y,1/2+z
x,1/2-y,1/2+z
loop_
_atom_site_type_symbol
_atom_site_label
_atom_site_fract_x
_atom_site_fract_y
_atom_site_fract_z
Si Si1 0.206079 0.384988 0.150866
Si Si2 0.892722 0.105716 0.697539
Si Si3 0.250000 0.250000 0.397305
Si Si4 0.220820 0.607648 0.144434
Si Si5 0.686750 0.411140 0.042146
Si Si6 0.085231 0.385061 0.789781
Si Si7 0.374561 0.121836 0.503059
O O1 0.211645 0.496217 0.149346
O O2 0.342355 0.356117 0.204220
O O3 0.239080 0.355279 0.059127
O O4 0.050959 0.356989 0.181354
O O5 0.834650 0.137159 0.786328
O O6 0.786139 0.117767 0.619088
O O7 0.907592 0.995119 0.704986
O O8 0.306589 0.337692 0.350771
O O9 0.384836 0.205929 0.442060
O O10 0.071575 0.641975 0.181390
O O11 0.255863 0.623588 0.047748
O O12 0.522788 0.382222 0.050930
O O13 0.664567 0.522215 0.034993
#
# Coordination Sequence:
#
# PCOD9430251 Si02
#       7
#     8   8   4   8   8   8   8
#     4   9  20  35  62  88 116 155 203 253 293 349
#     4  10  19  36  64  92 118 146 209 262 296 342
#     4  12  24  36  60  84 128 162 190 246 308 394
#     4   9  20  34  61  92 118 151 202 256 298 342
#     4  10  20  37  64  90 119 154 207 263 297 340
#     4  10  21  37  57  88 123 158 195 243 311 365
#     4  10  22  37  59  88 120 159 204 243 307 364
#
# _framework density 23.355995
#
# number of rings (size 3 to 8) (size 9 to 14) (size 15 to 20)
#    0.000    2.154    1.538    0.923    4.308    6.154 
#    0.000    0.769    0.000    1.846    0.000    0.000 
#    0.000    0.000    0.000    0.000    0.000    0.000 
#
# Total GULP energy -289915.169978 kJ/mol
# GULP energy per Si atom -5575.291730 kJ/mol
# Density = 2.330284 g / cm^3
# Si number density = 23.355995 Si / 1000 Ang^3
#
#
#
# Elastic Constant Matrix: (Units=GPa)
#
#
# Indices 1 2 3 4 5 6 
#
# 1 86.2466 15.1286 33.8911 0.0000 0.0000 0.0000
# 2 15.1286 46.6299 7.5060 0.0000 0.0000 0.0000
# 3 33.8911 7.5060 95.4713 0.0000 0.0000 0.0000
# 4 0.0000 0.0000 0.0000 -8.3343 0.0000 0.0000
# 5 0.0000 0.0000 0.0000 0.0000 39.0382 0.0000
# 6 0.0000 0.0000 0.0000 0.0000 0.0000 -0.6546
#
#
#
# Elastic Compliance Matrix: (Units=1/GPa)
#
#
# Indices 1 2 3 4 5 6 
#
# 1 0.014116 -0.003822 -0.004711 0.000000 0.000000 0.000000
# 2 -0.003822 0.022755 -0.000432 0.000000 0.000000 0.000000
# 3 -0.004711 -0.000432 0.012181 0.000000 0.000000 0.000000
# 4 0.000000 0.000000 0.000000 -0.119986 0.000000 0.000000
# 5 0.000000 0.000000 0.000000 0.000000 0.025616 0.000000
# 6 0.000000 0.000000 0.000000 0.000000 0.000000 -1.527672
#
#
# Mechanical properties :
#
#
# Convention : Reuss Voigt Hill
#
# Bulk Modulus (GPa) = 32.13114 37.93327 35.03220
# Shear Modulus (GPa) = -3.23690 17.46467 7.11388
#
# Velocity S-wave (km/s) = -1.17852 2.73749 1.74713
# Velocity P-wave (km/s) = 3.45472 5.12527 4.37055
#
# Compressibility (1/GPa) = 0.03112246
#
# Stress axis : x y z
#
# Youngs Moduli (GPa) = 70.84139 43.94653 82.09813
#
# Poissons Ratio (x) = 0.16794 0.38673
# Poissons Ratio (y) = 0.27072 0.03550
# Poissons Ratio (z) = 0.33370 0.01900
#
# Static dielectric constant tensor:
#      x y z
#    x 3.249150 0.000000 0.000000 
#    y 0.000000 1.828190 0.000000 
#    z 0.000000 0.000000 1.957540 
# 
# From -- ./inp_files/15021.got.cif
#   From: 2010.05.17/outbox.cif.g08.bks.cpg/sg56_8_cif.got.tgz:15021.got - 2010.06.03 13:42:01.
