data_PCOD9430695
_publ_section_title
;
Structure prediction by ZEFSAII (Michael W. Deem and Ramdas Pophale) SiO2 
 PCOD9430695
Probable space group: P C C N
;
_chemical_formula_sum "Si O2"
_cell_formula_units_Z 64
_cell_length_a 18.227947
_cell_length_b 18.035179
_cell_length_c 8.073490
_cell_angle_alpha 90.000000
_cell_angle_beta 90.000000
_cell_angle_gamma 90.000000
_cell_volume 2654.113713
_symmetry_space_group_name_H-M "P C C N"
_symmetry_group_IT_number 56
_symmetry_cell_setting 'orthorhombic'
loop_
_space_group_symop_operation_xyz
x,y,z
1/2-x,1/2-y,z
1/2+x,-y,1/2-z
-x,1/2+y,1/2-z
-x,-y,-z
1/2+x,1/2+y,-z
1/2-x,y,1/2+z
x,1/2-y,1/2+z
loop_
_atom_site_type_symbol
_atom_site_label
_atom_site_fract_x
_atom_site_fract_y
_atom_site_fract_z
Si Si1 0.511157 0.073580 0.890289
Si Si2 0.390530 0.360832 0.816243
Si Si3 0.630633 0.221025 0.498078
Si Si4 0.457824 0.676570 0.297887
Si Si5 0.651386 0.589117 0.699025
Si Si6 0.163251 0.867216 0.704326
Si Si7 0.211553 0.475606 0.142881
Si Si8 0.832212 0.771509 0.874262
O O1 0.436028 0.081023 0.788615
O O2 0.584432 0.088830 0.785691
O O3 0.525126 0.132154 0.036032
O O4 0.500000 0.000000 0.000000
O O5 0.477770 0.357327 0.816670
O O6 0.343282 0.433447 0.772568
O O7 0.375019 0.302746 0.666905
O O8 0.363717 0.322157 0.982348
O O9 0.609246 0.176269 0.332681
O O10 0.559522 0.242787 0.615808
O O11 0.679126 0.173156 0.622442
O O12 0.660470 0.300509 0.431233
O O13 0.677684 0.549496 0.531607
O O14 0.706708 0.555091 0.833152
O O15 0.666598 0.676733 0.710379
O O16 0.214248 0.936200 0.660840
O O17 0.750000 0.750000 0.910041
#
# Coordination Sequence:
#
# PCOD9430695 Si02
#       8
#     8   8   8   8   8   8   8   8
#     4  11  22  44  69 101 139 185 224 289 353 421
#     4  12  23  37  60  92 134 191 230 270 330 404
#     4   9  21  40  67 104 131 176 233 297 360 420
#     4  10  20  36  62  95 135 171 226 279 343 404
#     4  12  26  45  66 100 139 191 238 277 352 411
#     4  10  22  45  74 104 144 176 237 300 360 428
#     4  12  25  47  67  98 144 187 234 292 348 423
#     4  12  26  40  60  89 141 192 233 278 314 414
#
# _framework density 24.113512
#
# number of rings (size 3 to 8) (size 9 to 14) (size 15 to 20)
#    0.000    1.000    3.750    2.625    7.000    0.000 
#    4.500    1.250    0.000    2.250    0.000    0.000 
#    0.000    0.000    0.000    0.000    0.000    0.000 
#
# Total GULP energy -357011.546235 kJ/mol
# GULP energy per Si atom -5578.305410 kJ/mol
# Density = 2.405863 g / cm^3
# Si number density = 24.113512 Si / 1000 Ang^3
#
#
#
# Elastic Constant Matrix: (Units=GPa)
#
#
# Indices 1 2 3 4 5 6 
#
# 1 49.5794 26.4713 18.6848 0.0000 0.0000 0.0000
# 2 26.4713 97.5179 0.9080 0.0000 0.0000 0.0000
# 3 18.6848 0.9080 54.4315 0.0000 0.0000 0.0000
# 4 0.0000 0.0000 0.0000 42.9481 0.0000 0.0000
# 5 0.0000 0.0000 0.0000 0.0000 33.2513 0.0000
# 6 0.0000 0.0000 0.0000 0.0000 0.0000 6.8172
#
#
#
# Elastic Compliance Matrix: (Units=1/GPa)
#
#
# Indices 1 2 3 4 5 6 
#
# 1 0.027665 -0.007422 -0.009373 0.000000 0.000000 0.000000
# 2 -0.007422 0.012248 0.002344 0.000000 0.000000 0.000000
# 3 -0.009373 0.002344 0.021550 0.000000 0.000000 0.000000
# 4 0.000000 0.000000 0.000000 0.023284 0.000000 0.000000
# 5 0.000000 0.000000 0.000000 0.000000 0.030074 0.000000
# 6 0.000000 0.000000 0.000000 0.000000 0.000000 0.146688
#
#
# Mechanical properties :
#
#
# Convention : Reuss Voigt Hill
#
# Bulk Modulus (GPa) = 30.71319 32.62857 31.67088
# Shear Modulus (GPa) = 16.59669 26.96763 21.78216
#
# Velocity S-wave (km/s) = 2.62634 3.34782 3.00878
# Velocity P-wave (km/s) = 4.68631 5.33896 5.02324
#
# Compressibility (1/GPa) = 0.03255930
#
# Stress axis : x y z
#
# Youngs Moduli (GPa) = 36.14690 81.64916 46.40364
#
# Poissons Ratio (x) = 0.60603 0.43493
# Poissons Ratio (y) = 0.26830 -0.10875
# Poissons Ratio (z) = 0.33880 -0.19135
#
# Static dielectric constant tensor:
#      x y z
#    x 2.197000 0.000000 0.000000 
#    y 0.000000 2.272590 0.000000 
#    z 0.000000 0.000000 2.179730 
# 
# From -- ./inp_files/4554.got.cif
#   From: 2010.05.17/outbox.cif.g08.bks.cpg/sg56_3_cif.got.tgz:4554.got - 2010.06.03 13:42:01.
