data_PCOD9430739
_publ_section_title
;
Structure prediction by ZEFSAII (Michael W. Deem and Ramdas Pophale) SiO2 
 PCOD9430739
Probable space group: P C C N
;
_chemical_formula_sum "Si O2"
_cell_formula_units_Z 48
_cell_length_a 23.171410
_cell_length_b 15.271124
_cell_length_c 5.232433
_cell_angle_alpha 90.000000
_cell_angle_beta 90.000000
_cell_angle_gamma 90.000000
_cell_volume 1851.514602
_symmetry_space_group_name_H-M "P C C N"
_symmetry_group_IT_number 56
_symmetry_cell_setting 'orthorhombic'
loop_
_space_group_symop_operation_xyz
x,y,z
1/2-x,1/2-y,z
1/2+x,-y,1/2-z
-x,1/2+y,1/2-z
-x,-y,-z
1/2+x,1/2+y,-z
1/2-x,y,1/2+z
x,1/2-y,1/2+z
loop_
_atom_site_type_symbol
_atom_site_label
_atom_site_fract_x
_atom_site_fract_y
_atom_site_fract_z
Si Si1 0.174590 0.690280 0.701057
Si Si2 0.931552 0.062053 0.905070
Si Si3 0.139595 0.272409 0.111791
Si Si4 0.394497 0.029967 0.069835
Si Si5 0.724333 0.490798 0.724371
Si Si6 0.485515 0.298750 0.087898
O O1 0.178032 0.749947 0.450834
O O2 0.113996 0.637897 0.676407
O O3 0.222327 0.613743 0.725105
O O4 0.906154 0.017772 0.162154
O O5 0.989911 0.110573 0.986353
O O6 0.937451 0.000641 0.656309
O O7 0.173982 0.254531 0.857996
O O8 0.111168 0.367328 0.115591
O O9 0.083810 0.207578 0.099525
O O10 0.333595 0.007669 0.933985
O O11 0.770945 0.524535 0.515746
O O12 0.505150 0.228128 0.871934
#
# Coordination Sequence:
#
# PCOD9430739 Si02
#       6
#     8   8   8   8   8   8
#     4  11  21  34  55  84 120 162 199 238 291 354
#     4  11  21  37  60  89 122 162 208 251 299 363
#     4  10  22  42  64  89 120 160 202 253 317 368
#     4  11  23  41  64  89 121 163 207 251 312 378
#     4  11  23  39  59  87 121 158 202 254 307 357
#     4  10  20  37  58  85 121 160 202 249 299 352
#
# _framework density 25.924721000000002
#
# number of rings (size 3 to 8) (size 9 to 14) (size 15 to 20)
#    0.000    1.333    0.000    8.000    0.000    2.000 
#    0.000   20.000    0.000    3.000    0.000    0.000 
#    0.000    0.000    0.000    0.000    0.000    0.000 
#
# Total GULP energy -268598.776968 kJ/mol
# GULP energy per Si atom -5595.807854 kJ/mol
# Density = 2.586572 g / cm^3
# Si number density = 25.924721 Si / 1000 Ang^3
#
#
#
# Elastic Constant Matrix: (Units=GPa)
#
#
# Indices 1 2 3 4 5 6 
#
# 1 56.9673 1.7488 22.1961 0.0000 0.0000 0.0000
# 2 1.7488 64.6146 39.2398 0.0000 0.0000 0.0000
# 3 22.1961 39.2398 209.8261 0.0000 0.0000 0.0000
# 4 0.0000 0.0000 0.0000 38.9033 0.0000 0.0000
# 5 0.0000 0.0000 0.0000 0.0000 29.3606 0.0000
# 6 0.0000 0.0000 0.0000 0.0000 0.0000 11.2846
#
#
#
# Elastic Compliance Matrix: (Units=1/GPa)
#
#
# Indices 1 2 3 4 5 6 
#
# 1 0.018342 0.000769 -0.002084 0.000000 0.000000 0.000000
# 2 0.000769 0.017491 -0.003352 0.000000 0.000000 0.000000
# 3 -0.002084 -0.003352 0.005613 0.000000 0.000000 0.000000
# 4 0.000000 0.000000 0.000000 0.025705 0.000000 0.000000
# 5 0.000000 0.000000 0.000000 0.000000 0.034059 0.000000
# 6 0.000000 0.000000 0.000000 0.000000 0.000000 0.088616
#
#
# Mechanical properties :
#
#
# Convention : Reuss Voigt Hill
#
# Bulk Modulus (GPa) = 31.14070 50.86419 41.00244
# Shear Modulus (GPa) = 23.82467 33.79123 28.80795
#
# Velocity S-wave (km/s) = 3.03478 3.61423 3.33711
# Velocity P-wave (km/s) = 4.93132 6.08929 5.54064
#
# Compressibility (1/GPa) = 0.03211231
#
# Stress axis : x y z
#
# Youngs Moduli (GPa) = 54.51861 57.17066 178.14917
#
# Poissons Ratio (x) = -0.04398 0.37129
# Poissons Ratio (y) = -0.04194 0.59724
# Poissons Ratio (z) = 0.11363 0.19166
#
# Static dielectric constant tensor:
#      x y z
#    x 2.121360 0.000000 0.000000 
#    y 0.000000 2.045320 0.000000 
#    z 0.000000 0.000000 2.134250 
# 
# From -- ./inp_files/1210.got.cif
#   From: 2010.05.17/outbox.cif.g08.bks.cpg/sg56_1_cif.got.tgz:1210.got - 2010.06.03 13:42:01.
