data_PCOD9430329
_publ_section_title
;
Structure prediction by ZEFSAII (Michael W. Deem and Ramdas Pophale) SiO2 
 PCOD9430329
Probable space group: P C C N
;
_chemical_formula_sum "Si O2"
_cell_formula_units_Z 40
_cell_length_a 14.360802
_cell_length_b 10.449402
_cell_length_c 12.261142
_cell_angle_alpha 90.000000
_cell_angle_beta 90.000000
_cell_angle_gamma 90.000000
_cell_volume 1839.928954
_symmetry_space_group_name_H-M "P C C N"
_symmetry_group_IT_number 56
_symmetry_cell_setting 'orthorhombic'
loop_
_space_group_symop_operation_xyz
x,y,z
1/2-x,1/2-y,z
1/2+x,-y,1/2-z
-x,1/2+y,1/2-z
-x,-y,-z
1/2+x,1/2+y,-z
1/2-x,y,1/2+z
x,1/2-y,1/2+z
loop_
_atom_site_type_symbol
_atom_site_label
_atom_site_fract_x
_atom_site_fract_y
_atom_site_fract_z
Si Si1 0.523738 0.325044 0.999937
Si Si2 0.099160 0.574312 0.115509
Si Si3 0.496388 0.903076 0.737256
Si Si4 0.653766 0.296958 0.180455
Si Si5 0.354633 0.200888 0.116256
O O1 0.595784 0.373157 0.090568
O O2 0.422881 0.294589 0.050068
O O3 0.566511 0.186466 0.962692
O O4 0.519623 0.407354 0.890789
O O5 0.170052 0.626320 0.207275
O O6 0.137435 0.442970 0.064757
O O7 0.011480 0.530604 0.191890
O O8 0.412170 0.820840 0.785912
O O9 0.591576 0.825689 0.768705
O O10 0.750000 0.250000 0.133201
O O11 0.250000 0.250000 0.124903
#
# Coordination Sequence:
#
# PCOD9430329 Si02
#       5
#     8   8   8   8   8
#     4  10  19  38  63  83 120 154 200 242 293 357
#     4   9  20  41  58  85 120 161 190 242 316 330
#     4   8  20  38  60  81 120 154 188 246 294 351
#     4  10  21  38  58  88 118 155 203 242 289 357
#     4   9  19  37  57  90 116 154 196 239 292 353
#
# _framework density 21.739968999999999
#
# number of rings (size 3 to 8) (size 9 to 14) (size 15 to 20)
#    1.200    1.600    0.000    0.600    0.000    4.800 
#   14.400    0.000    0.000    0.000    0.000    0.000 
#    0.000    0.000    0.000    0.000    0.000    0.000 
#
# Total GULP energy -222908.813923 kJ/mol
# GULP energy per Si atom -5572.720348 kJ/mol
# Density = 2.169049 g / cm^3
# Si number density = 21.739969 Si / 1000 Ang^3
#
#
#
# Elastic Constant Matrix: (Units=GPa)
#
#
# Indices 1 2 3 4 5 6 
#
# 1 130.9636 19.9920 21.9529 0.0000 0.0000 0.0000
# 2 19.9920 62.9622 -12.6613 0.0000 0.0000 0.0000
# 3 21.9529 -12.6613 78.6539 0.0000 0.0000 0.0000
# 4 0.0000 0.0000 0.0000 23.3673 0.0000 0.0000
# 5 0.0000 0.0000 0.0000 0.0000 11.5499 0.0000
# 6 0.0000 0.0000 0.0000 0.0000 0.0000 16.8574
#
#
#
# Elastic Compliance Matrix: (Units=1/GPa)
#
#
# Indices 1 2 3 4 5 6 
#
# 1 0.008639 -0.003336 -0.002948 0.000000 0.000000 0.000000
# 2 -0.003336 0.017702 0.003781 0.000000 0.000000 0.000000
# 3 -0.002948 0.003781 0.014145 0.000000 0.000000 0.000000
# 4 0.000000 0.000000 0.000000 0.042795 0.000000 0.000000
# 5 0.000000 0.000000 0.000000 0.000000 0.086581 0.000000
# 6 0.000000 0.000000 0.000000 0.000000 0.000000 0.059321
#
#
# Mechanical properties :
#
#
# Convention : Reuss Voigt Hill
#
# Bulk Modulus (GPa) = 28.18530 36.79409 32.48970
# Shear Modulus (GPa) = 20.32381 26.57466 23.44923
#
# Velocity S-wave (km/s) = 3.06086 3.50006 3.28780
# Velocity P-wave (km/s) = 5.04824 5.77020 5.42125
#
# Compressibility (1/GPa) = 0.03547949
#
# Stress axis : x y z
#
# Youngs Moduli (GPa) = 115.75186 56.49049 70.69430
#
# Poissons Ratio (x) = 0.18845 0.20843
# Poissons Ratio (y) = 0.38615 -0.26727
# Poissons Ratio (z) = 0.34127 -0.21357
#
# Static dielectric constant tensor:
#      x y z
#    x 1.751000 0.000000 0.000000 
#    y 0.000000 1.884350 0.000000 
#    z 0.000000 0.000000 1.819990 
# 
# From -- ./inp_files/7662.got.cif
#   From: 2010.05.17/outbox.cif.g08.bks.cpg/sg56_4_cif.got.tgz:7662.got - 2010.06.03 13:42:01.
