data_PCOD9430210
_publ_section_title
;
Structure prediction by ZEFSAII (Michael W. Deem and Ramdas Pophale) SiO2 
 PCOD9430210
Probable space group: P C C N
;
_chemical_formula_sum "Si O2"
_cell_formula_units_Z 56
_cell_length_a 13.842848
_cell_length_b 21.022953
_cell_length_c 9.610717
_cell_angle_alpha 90.000000
_cell_angle_beta 90.000000
_cell_angle_gamma 90.000000
_cell_volume 2796.887247
_symmetry_space_group_name_H-M "P C C N"
_symmetry_group_IT_number 56
_symmetry_cell_setting 'orthorhombic'
loop_
_space_group_symop_operation_xyz
x,y,z
1/2-x,1/2-y,z
1/2+x,-y,1/2-z
-x,1/2+y,1/2-z
-x,-y,-z
1/2+x,1/2+y,-z
1/2-x,y,1/2+z
x,1/2-y,1/2+z
loop_
_atom_site_type_symbol
_atom_site_label
_atom_site_fract_x
_atom_site_fract_y
_atom_site_fract_z
Si Si1 0.966068 0.318096 0.776163
Si Si2 0.299554 0.596174 0.751502
Si Si3 0.015366 0.878319 0.427610
Si Si4 0.165640 0.524431 0.967514
Si Si5 0.182192 0.189287 0.233795
Si Si6 0.808257 0.621576 0.972513
Si Si7 0.665303 0.293283 0.735906
O O1 0.892797 0.364606 0.694413
O O2 0.902800 0.256212 0.816681
O O3 0.068013 0.299061 0.710103
O O4 0.990386 0.359412 0.911204
O O5 0.324876 0.550156 0.624669
O O6 0.226045 0.650508 0.692082
O O7 0.245795 0.558385 0.872207
O O8 0.062961 0.947927 0.412457
O O9 0.091923 0.829600 0.363942
O O10 0.905812 0.870168 0.379767
O O11 0.180958 0.449561 0.968582
O O12 0.250000 0.250000 0.206128
O O13 0.196267 0.168037 0.394297
O O14 0.218963 0.134948 0.128485
O O15 0.750000 0.250000 0.667735
#
# Coordination Sequence:
#
# PCOD9430210 Si02
#       7
#     8   8   8   8   8   8   8
#     4   9  19  34  52  76 109 142 173 218 270 314
#     4   9  19  34  55  82 110 137 174 218 265 319
#     4   9  19  33  53  78 107 143 182 217 262 323
#     4  10  19  36  56  81 109 140 177 219 264 319
#     4  11  23  39  56  78 105 139 181 222 263 315
#     4  11  22  38  58  78 106 145 181 220 266 313
#     4   9  17  30  52  81 108 138 173 220 271 315
#
# _framework density 20.022259999999999
#
# number of rings (size 3 to 8) (size 9 to 14) (size 15 to 20)
#    0.000    2.286    0.000    2.571    0.000    6.286 
#    0.000    3.571    0.000    0.000    0.000    0.000 
#    0.000    0.000    0.000    0.000    0.000    0.000 
#
# Total GULP energy -311946.961413 kJ/mol
# GULP energy per Si atom -5570.481454 kJ/mol
# Density = 1.997669 g / cm^3
# Si number density = 20.022260 Si / 1000 Ang^3
#
#
#
# Elastic Constant Matrix: (Units=GPa)
#
#
# Indices 1 2 3 4 5 6 
#
# 1 103.9510 20.0719 3.3577 0.0000 0.0000 0.0000
# 2 20.0719 82.1068 -3.3604 0.0000 0.0000 0.0000
# 3 3.3577 -3.3604 21.2335 0.0000 0.0000 0.0000
# 4 0.0000 0.0000 0.0000 18.3772 0.0000 0.0000
# 5 0.0000 0.0000 0.0000 0.0000 22.4594 0.0000
# 6 0.0000 0.0000 0.0000 0.0000 0.0000 22.5797
#
#
#
# Elastic Compliance Matrix: (Units=1/GPa)
#
#
# Indices 1 2 3 4 5 6 
#
# 1 0.010182 -0.002572 -0.002017 0.000000 0.000000 0.000000
# 2 -0.002572 0.012908 0.002449 0.000000 0.000000 0.000000
# 3 -0.002017 0.002449 0.047802 0.000000 0.000000 0.000000
# 4 0.000000 0.000000 0.000000 0.054415 0.000000 0.000000
# 5 0.000000 0.000000 0.000000 0.000000 0.044525 0.000000
# 6 0.000000 0.000000 0.000000 0.000000 0.000000 0.044288
#
#
# Mechanical properties :
#
#
# Convention : Reuss Voigt Hill
#
# Bulk Modulus (GPa) = 15.01195 27.49218 21.25207
# Shear Modulus (GPa) = 20.78121 25.16474 22.97297
#
# Velocity S-wave (km/s) = 3.22515 3.54904 3.39096
# Velocity P-wave (km/s) = 4.62414 5.52764 5.09596
#
# Compressibility (1/GPa) = 0.06661358
#
# Stress axis : x y z
#
# Youngs Moduli (GPa) = 98.21628 77.47044 20.91965
#
# Poissons Ratio (x) = 0.19922 0.04219
# Poissons Ratio (y) = 0.25257 -0.05124
# Poissons Ratio (z) = 0.19810 -0.18976
#
# Static dielectric constant tensor:
#      x y z
#    x 1.771520 0.000000 0.000000 
#    y 0.000000 1.738570 0.000000 
#    z 0.000000 0.000000 1.661740 
# 
# From -- ./inp_files/7263.got.cif
#   From: 2010.05.17/outbox.cif.g08.bks.cpg/sg56_4_cif.got.tgz:7263.got - 2010.06.03 13:42:01.
