data_PCOD9430586
_publ_section_title
;
Structure prediction by ZEFSAII (Michael W. Deem and Ramdas Pophale) SiO2 
 PCOD9430586
Probable space group: P C C N
;
_chemical_formula_sum "Si O2"
_cell_formula_units_Z 56
_cell_length_a 5.711872
_cell_length_b 22.425410
_cell_length_c 22.666605
_cell_angle_alpha 90.000000
_cell_angle_beta 90.000000
_cell_angle_gamma 90.000000
_cell_volume 2903.389721
_symmetry_space_group_name_H-M "P C C N"
_symmetry_group_IT_number 56
_symmetry_cell_setting 'orthorhombic'
loop_
_space_group_symop_operation_xyz
x,y,z
1/2-x,1/2-y,z
1/2+x,-y,1/2-z
-x,1/2+y,1/2-z
-x,-y,-z
1/2+x,1/2+y,-z
1/2-x,y,1/2+z
x,1/2-y,1/2+z
loop_
_atom_site_type_symbol
_atom_site_label
_atom_site_fract_x
_atom_site_fract_y
_atom_site_fract_z
Si Si1 0.585195 0.096822 0.771727
Si Si2 0.499905 0.783727 0.440816
Si Si3 0.782425 0.997746 0.432888
Si Si4 0.056085 0.401646 0.487539
Si Si5 0.942114 0.488245 0.308545
Si Si6 0.836985 0.567824 0.114583
Si Si7 0.001408 0.284080 0.698703
O O1 0.849329 0.071470 0.776475
O O2 0.505187 0.100908 0.839808
O O3 0.528636 0.156456 0.737224
O O4 0.464853 0.041947 0.736746
O O5 0.750000 0.750000 0.454751
O O6 0.476249 0.842377 0.480593
O O7 0.517364 0.798723 0.371056
O O8 0.250000 0.750000 0.448038
O O9 0.638171 0.051618 0.463722
O O10 0.724793 0.993638 0.363001
O O11 0.046311 0.020484 0.430216
O O12 0.711207 0.937616 0.464770
O O13 0.200113 0.387980 0.428120
O O14 0.173202 0.470920 0.343445
O O15 0.750000 0.250000 0.706664
O O16 0.250000 0.250000 0.713018
#
# Coordination Sequence:
#
# PCOD9430586 Si02
#       7
#     8   8   8   8   8   8   8
#     4  11  21  37  63  87 130 163 210 266 320 380
#     4  10  23  44  66  94 123 163 218 269 316 375
#     4   9  20  36  59  93 124 156 203 250 319 385
#     4  10  20  38  63  88 125 162 201 257 321 376
#     4  10  20  35  57  94 121 162 202 257 321 375
#     4  10  21  36  57  92 127 158 204 257 314 396
#     4  10  24  44  66  93 124 167 219 269 315 376
#
# _framework density 19.287801000000002
#
# number of rings (size 3 to 8) (size 9 to 14) (size 15 to 20)
#    0.000    2.000    1.429    1.286    4.000    0.000 
#    7.714    0.714    0.000    0.000    0.000    0.000 
#    0.000    0.000    0.000    0.000    0.000    0.000 
#
# Total GULP energy -311794.701291 kJ/mol
# GULP energy per Si atom -5567.762523 kJ/mol
# Density = 1.924390 g / cm^3
# Si number density = 19.287801 Si / 1000 Ang^3
#
#
#
# Elastic Constant Matrix: (Units=GPa)
#
#
# Indices 1 2 3 4 5 6 
#
# 1 85.4699 39.8810 41.1085 0.0000 0.0000 0.0000
# 2 39.8810 96.9257 65.1304 0.0000 0.0000 0.0000
# 3 41.1085 65.1304 94.0802 0.0000 0.0000 0.0000
# 4 0.0000 0.0000 0.0000 33.5382 0.0000 0.0000
# 5 0.0000 0.0000 0.0000 0.0000 28.3785 0.0000
# 6 0.0000 0.0000 0.0000 0.0000 0.0000 13.2966
#
#
#
# Elastic Compliance Matrix: (Units=1/GPa)
#
#
# Indices 1 2 3 4 5 6 
#
# 1 0.015387 -0.003390 -0.004376 0.000000 0.000000 0.000000
# 2 -0.003390 0.020038 -0.012391 0.000000 0.000000 0.000000
# 3 -0.004376 -0.012391 0.021119 0.000000 0.000000 0.000000
# 4 0.000000 0.000000 0.000000 0.029817 0.000000 0.000000
# 5 0.000000 0.000000 0.000000 0.000000 0.035238 0.000000
# 6 0.000000 0.000000 0.000000 0.000000 0.000000 0.075207
#
#
# Mechanical properties :
#
#
# Convention : Reuss Voigt Hill
#
# Bulk Modulus (GPa) = 61.61521 63.19062 62.40291
# Shear Modulus (GPa) = 20.61588 23.73304 22.17446
#
# Velocity S-wave (km/s) = 3.27288 3.51161 3.39435
# Velocity P-wave (km/s) = 6.80418 7.01961 6.91274
#
# Compressibility (1/GPa) = 0.01622976
#
# Stress axis : x y z
#
# Youngs Moduli (GPa) = 64.99060 49.90426 47.34989
#
# Poissons Ratio (x) = 0.16920 0.20721
# Poissons Ratio (y) = 0.22035 0.58670
# Poissons Ratio (z) = 0.28441 0.61835
#
# Static dielectric constant tensor:
#      x y z
#    x 1.857490 0.000000 0.000000 
#    y 0.000000 1.626310 0.000000 
#    z 0.000000 0.000000 1.673420 
# 
# From -- ./inp_files/20121.got.cif
#   From: 2010.05.17/outbox.cif.g08.bks.cpg/sg56_11_cif.got.tgz:20121.got - 2010.06.03 13:42:01.
