data_PCOD9430910
_publ_section_title
;
Structure prediction by ZEFSAII (Michael W. Deem and Ramdas Pophale) SiO2 
 PCOD9430910
Probable space group: P C C N
;
_chemical_formula_sum "Si O2"
_cell_formula_units_Z 64
_cell_length_a 15.152951
_cell_length_b 10.558542
_cell_length_c 18.623590
_cell_angle_alpha 90.000000
_cell_angle_beta 90.000000
_cell_angle_gamma 90.000000
_cell_volume 2979.645330
_symmetry_space_group_name_H-M "P C C N"
_symmetry_group_IT_number 56
_symmetry_cell_setting 'orthorhombic'
loop_
_space_group_symop_operation_xyz
x,y,z
1/2-x,1/2-y,z
1/2+x,-y,1/2-z
-x,1/2+y,1/2-z
-x,-y,-z
1/2+x,1/2+y,-z
1/2-x,y,1/2+z
x,1/2-y,1/2+z
loop_
_atom_site_type_symbol
_atom_site_label
_atom_site_fract_x
_atom_site_fract_y
_atom_site_fract_z
Si Si1 0.448226 0.082996 0.440009
Si Si2 0.155736 0.310886 0.777718
Si Si3 0.080268 0.113433 0.428956
Si Si4 0.737971 0.607294 0.020518
Si Si5 0.776183 0.551841 0.363381
Si Si6 0.011330 0.093361 0.775959
Si Si7 0.583085 0.460597 0.355775
Si Si8 0.160537 0.702461 0.689541
O O1 0.444987 0.238907 0.450029
O O2 0.344025 0.045102 0.438679
O O3 0.486496 0.059230 0.360364
O O4 0.500000 0.000000 0.500000
O O5 0.250000 0.250000 0.794727
O O6 0.122821 0.381419 0.848769
O O7 0.176142 0.387202 0.704907
O O8 0.082360 0.204295 0.765515
O O9 0.161793 0.057006 0.474985
O O10 0.991418 0.032201 0.416892
O O11 0.750000 0.750000 0.047195
O O12 0.704051 0.614689 0.938827
O O13 0.669770 0.548244 0.357498
O O14 0.807858 0.407115 0.363888
O O15 0.914329 0.146319 0.759768
O O16 0.038536 0.984668 0.721650
O O17 0.617282 0.317051 0.353485
O O18 0.250000 0.750000 0.727078
#
# Coordination Sequence:
#
# PCOD9430910 Si02
#       8
#     8   8   8   8   8   8   8   8
#     4  10  20  38  64  91 123 171 218 262 326 392
#     4  11  19  36  64  93 126 158 216 267 323 366
#     4  10  21  38  59  90 135 168 206 273 330 386
#     4  10  22  37  59  94 127 159 213 272 322 380
#     4  11  23  37  64  93 125 168 221 269 314 391
#     4  11  21  38  65  95 126 167 216 268 324 382
#     4  11  22  38  62  93 124 172 210 259 333 384
#     4  10  22  39  57  89 125 165 207 256 317 387
#
# _framework density 21.479067000000001
#
# number of rings (size 3 to 8) (size 9 to 14) (size 15 to 20)
#    0.000    1.500    3.750    3.750    0.000    0.500 
#    0.000    0.000    0.000    1.500    0.000    0.000 
#    0.000    0.000    0.000    0.000    0.000    0.000 
#
# Total GULP energy -356919.435095 kJ/mol
# GULP energy per Si atom -5576.866173 kJ/mol
# Density = 2.143018 g / cm^3
# Si number density = 21.479067 Si / 1000 Ang^3
#
#
#
# Elastic Constant Matrix: (Units=GPa)
#
#
# Indices 1 2 3 4 5 6 
#
# 1 168.7964 29.3469 31.4816 0.0000 0.0000 0.0000
# 2 29.3469 36.9396 30.5142 0.0000 0.0000 0.0000
# 3 31.4816 30.5142 105.3052 0.0000 0.0000 0.0000
# 4 0.0000 0.0000 0.0000 16.5218 0.0000 0.0000
# 5 0.0000 0.0000 0.0000 0.0000 21.1245 0.0000
# 6 0.0000 0.0000 0.0000 0.0000 0.0000 39.9191
#
#
#
# Elastic Compliance Matrix: (Units=1/GPa)
#
#
# Indices 1 2 3 4 5 6 
#
# 1 0.006905 -0.004970 -0.000624 0.000000 0.000000 0.000000
# 2 -0.004970 0.039168 -0.009864 0.000000 0.000000 0.000000
# 3 -0.000624 -0.009864 0.012541 0.000000 0.000000 0.000000
# 4 0.000000 0.000000 0.000000 0.060526 0.000000 0.000000
# 5 0.000000 0.000000 0.000000 0.000000 0.047338 0.000000
# 6 0.000000 0.000000 0.000000 0.000000 0.000000 0.025051
#
#
# Mechanical properties :
#
#
# Convention : Reuss Voigt Hill
#
# Bulk Modulus (GPa) = 36.10401 54.85851 45.48126
# Shear Modulus (GPa) = 21.58178 30.15966 25.87072
#
# Velocity S-wave (km/s) = 3.17327 3.75125 3.47430
# Velocity P-wave (km/s) = 5.50196 6.66021 6.10860
#
# Compressibility (1/GPa) = 0.02769775
#
# Stress axis : x y z
#
# Youngs Moduli (GPa) = 144.82729 25.53119 79.73845
#
# Poissons Ratio (x) = 0.12689 0.04976
# Poissons Ratio (y) = 0.71980 0.78653
# Poissons Ratio (z) = 0.09038 0.25183
#
# Static dielectric constant tensor:
#      x y z
#    x 1.893630 0.000000 0.000000 
#    y 0.000000 2.021680 0.000000 
#    z 0.000000 0.000000 1.768610 
# 
# From -- ./inp_files/16352.got.cif
#   From: 2010.05.17/outbox.cif.g08.bks.cpg/sg56_9_cif.got.tgz:16352.got - 2010.06.03 13:42:01.
