data_PCOD9430570
_publ_section_title
;
Structure prediction by ZEFSAII (Michael W. Deem and Ramdas Pophale) SiO2 
 PCOD9430570
Probable space group: P C C N
;
_chemical_formula_sum "Si O2"
_cell_formula_units_Z 48
_cell_length_a 23.217911
_cell_length_b 11.820304
_cell_length_c 9.549418
_cell_angle_alpha 90.000000
_cell_angle_beta 90.000000
_cell_angle_gamma 90.000000
_cell_volume 2620.768692
_symmetry_space_group_name_H-M "P C C N"
_symmetry_group_IT_number 56
_symmetry_cell_setting 'orthorhombic'
loop_
_space_group_symop_operation_xyz
x,y,z
1/2-x,1/2-y,z
1/2+x,-y,1/2-z
-x,1/2+y,1/2-z
-x,-y,-z
1/2+x,1/2+y,-z
1/2-x,y,1/2+z
x,1/2-y,1/2+z
loop_
_atom_site_type_symbol
_atom_site_label
_atom_site_fract_x
_atom_site_fract_y
_atom_site_fract_z
Si Si1 0.888570 0.507606 0.740807
Si Si2 0.948900 0.199469 0.133127
Si Si3 0.626350 0.846347 0.125267
Si Si4 0.435987 0.954206 0.961611
Si Si5 0.975758 0.808106 0.122785
Si Si6 0.187299 0.304769 0.160704
O O1 0.897906 0.390050 0.659480
O O2 0.941643 0.590549 0.698184
O O3 0.830799 0.584535 0.745687
O O4 0.899475 0.473272 0.899592
O O5 0.933431 0.325001 0.082314
O O6 0.986825 0.229767 0.271244
O O7 0.986894 0.150152 0.006741
O O8 0.573771 0.772863 0.063539
O O9 0.646431 0.790390 0.269338
O O10 0.597365 0.967598 0.149482
O O11 0.673565 0.835223 0.001423
O O12 0.500000 0.000000 0.000000
O O13 0.250000 0.250000 0.172981
#
# Coordination Sequence:
#
# PCOD9430570 Si02
#       6
#     8   8   8   8   8   8
#     4  10  21  34  50  82 108 151 194 229 266 340
#     4  12  20  33  51  77 121 159 181 218 272 332
#     4  10  20  35  56  83 108 143 188 225 281 336
#     4  11  18  33  51  76 119 155 180 216 273 340
#     4  11  20  32  53  78 119 154 185 222 267 344
#     4  10  21  39  60  79 105 137 186 250 289 318
#
# _framework density 18.315235999999999
#
# number of rings (size 3 to 8) (size 9 to 14) (size 15 to 20)
#    0.000    1.333    5.000    3.000    0.000    0.000 
#    6.000    0.000    0.000    1.000    0.000    4.667 
#    0.000    0.000    0.000    0.000    0.000    0.000 
#
# Total GULP energy -267231.319795 kJ/mol
# GULP energy per Si atom -5567.319162 kJ/mol
# Density = 1.827355 g / cm^3
# Si number density = 18.315236 Si / 1000 Ang^3
#
#
#
# Elastic Constant Matrix: (Units=GPa)
#
#
# Indices 1 2 3 4 5 6 
#
# 1 72.0704 43.8963 12.3130 0.0000 0.0000 0.0000
# 2 43.8963 127.3128 6.2423 0.0000 0.0000 0.0000
# 3 12.3130 6.2423 42.3356 0.0000 0.0000 0.0000
# 4 0.0000 0.0000 0.0000 26.7879 0.0000 0.0000
# 5 0.0000 0.0000 0.0000 0.0000 16.6887 0.0000
# 6 0.0000 0.0000 0.0000 0.0000 0.0000 28.5448
#
#
#
# Elastic Compliance Matrix: (Units=1/GPa)
#
#
# Indices 1 2 3 4 5 6 
#
# 1 0.018356 -0.006111 -0.004438 0.000000 0.000000 0.000000
# 2 -0.006111 0.009947 0.000311 0.000000 0.000000 0.000000
# 3 -0.004438 0.000311 0.024866 0.000000 0.000000 0.000000
# 4 0.000000 0.000000 0.000000 0.037330 0.000000 0.000000
# 5 0.000000 0.000000 0.000000 0.000000 0.059921 0.000000
# 6 0.000000 0.000000 0.000000 0.000000 0.000000 0.035033
#
#
# Mechanical properties :
#
#
# Convention : Reuss Voigt Hill
#
# Bulk Modulus (GPa) = 30.58865 40.73577 35.66221
# Shear Modulus (GPa) = 23.06009 26.35542 24.70775
#
# Velocity S-wave (km/s) = 3.55218 3.79752 3.67690
# Velocity P-wave (km/s) = 5.79322 6.44344 6.12696
#
# Compressibility (1/GPa) = 0.03269186
#
# Stress axis : x y z
#
# Youngs Moduli (GPa) = 54.47895 100.53728 40.21622
#
# Poissons Ratio (x) = 0.61441 0.17846
# Poissons Ratio (y) = 0.33294 -0.01250
# Poissons Ratio (z) = 0.24175 -0.03125
#
# Static dielectric constant tensor:
#      x y z
#    x 1.642020 0.000000 0.000000 
#    y 0.000000 1.706280 0.000000 
#    z 0.000000 0.000000 1.675340 
# 
# From -- ./inp_files/2784.got.cif
#   From: 2010.05.17/outbox.cif.g08.bks.cpg/sg56_2_cif.got.tgz:2784.got - 2010.06.03 13:42:01.
