data_PCOD9430201
_publ_section_title
;
Structure prediction by ZEFSAII (Michael W. Deem and Ramdas Pophale) SiO2 
 PCOD9430201
Probable space group: P C C N
;
_chemical_formula_sum "Si O2"
_cell_formula_units_Z 64
_cell_length_a 33.578699
_cell_length_b 5.722349
_cell_length_c 15.900168
_cell_angle_alpha 90.000000
_cell_angle_beta 90.000000
_cell_angle_gamma 90.000000
_cell_volume 3055.201932
_symmetry_space_group_name_H-M "P C C N"
_symmetry_group_IT_number 56
_symmetry_cell_setting 'orthorhombic'
loop_
_space_group_symop_operation_xyz
x,y,z
1/2-x,1/2-y,z
1/2+x,-y,1/2-z
-x,1/2+y,1/2-z
-x,-y,-z
1/2+x,1/2+y,-z
1/2-x,y,1/2+z
x,1/2-y,1/2+z
loop_
_atom_site_type_symbol
_atom_site_label
_atom_site_fract_x
_atom_site_fract_y
_atom_site_fract_z
Si Si1 0.918001 0.643804 0.667408
Si Si2 0.289581 0.341771 0.342326
Si Si3 0.997972 0.173249 0.801390
Si Si4 0.848055 0.002049 0.067616
Si Si5 0.585118 0.139379 0.834859
Si Si6 0.710621 0.119298 0.991106
Si Si7 0.145670 0.158232 0.589048
Si Si8 0.639022 0.981887 0.249419
O O1 0.890061 0.468884 0.614826
O O2 0.924014 0.548038 0.761960
O O3 0.891925 0.877848 0.680553
O O4 0.963247 0.672557 0.638422
O O5 0.250000 0.250000 0.298089
O O6 0.318608 0.128521 0.367242
O O7 0.276612 0.460202 0.429908
O O8 0.318068 0.517917 0.292196
O O9 0.955564 0.218418 0.846612
O O10 0.004256 0.413986 0.744035
O O11 0.823700 0.215086 0.029489
O O12 0.856432 0.830416 0.989684
O O13 0.618820 0.301841 0.794093
O O14 0.607167 0.010541 0.910741
O O15 0.750000 0.250000 0.961028
O O16 0.687401 0.974804 0.921100
O O17 0.145301 0.293247 0.676854
#
# Coordination Sequence:
#
# PCOD9430201 Si02
#       8
#     8   8   8   8   8   8   8   8
#     4   9  19  34  60  91 111 153 199 254 299 356
#     4  10  20  36  57  86 108 144 190 252 295 348
#     4  10  19  35  61  95 125 160 208 264 315 376
#     4  10  20  38  59  80 117 150 205 239 297 361
#     4  10  19  36  59  86 120 157 198 246 313 361
#     4  11  21  38  62  80 111 157 200 242 297 366
#     4  10  23  37  55  82 116 163 194 240 302 369
#     4  10  19  37  57  80 120 147 191 246 301 358
#
# _framework density 20.947876999999998
#
# number of rings (size 3 to 8) (size 9 to 14) (size 15 to 20)
#    0.000    2.000    2.500    1.500    0.000    0.000 
#    4.500    0.625    0.000    3.000    0.000    0.000 
#    0.000    0.000    0.000    0.000    0.000    0.000 
#
# Total GULP energy -356755.320688 kJ/mol
# GULP energy per Si atom -5574.301886 kJ/mol
# Density = 2.090020 g / cm^3
# Si number density = 20.947877 Si / 1000 Ang^3
#
#
#
# Elastic Constant Matrix: (Units=GPa)
#
#
# Indices 1 2 3 4 5 6 
#
# 1 136.5943 24.4412 29.7912 0.0000 0.0000 0.0000
# 2 24.4412 69.1785 4.5161 0.0000 0.0000 0.0000
# 3 29.7912 4.5161 30.0604 0.0000 0.0000 0.0000
# 4 0.0000 0.0000 0.0000 8.1268 0.0000 0.0000
# 5 0.0000 0.0000 0.0000 0.0000 21.9990 0.0000
# 6 0.0000 0.0000 0.0000 0.0000 0.0000 30.0251
#
#
#
# Elastic Compliance Matrix: (Units=1/GPa)
#
#
# Indices 1 2 3 4 5 6 
#
# 1 0.009876 -0.002879 -0.009356 0.000000 0.000000 0.000000
# 2 -0.002879 0.015438 0.000534 0.000000 0.000000 0.000000
# 3 -0.009356 0.000534 0.042458 0.000000 0.000000 0.000000
# 4 0.000000 0.000000 0.000000 0.123050 0.000000 0.000000
# 5 0.000000 0.000000 0.000000 0.000000 0.045457 0.000000
# 6 0.000000 0.000000 0.000000 0.000000 0.000000 0.033305
#
#
# Mechanical properties :
#
#
# Convention : Reuss Voigt Hill
#
# Bulk Modulus (GPa) = 22.53733 39.25891 30.89812
# Shear Modulus (GPa) = 16.24563 23.83584 20.04073
#
# Velocity S-wave (km/s) = 2.78785 3.37688 3.09640
# Velocity P-wave (km/s) = 4.59836 5.82978 5.25030
#
# Compressibility (1/GPa) = 0.04437083
#
# Stress axis : x y z
#
# Youngs Moduli (GPa) = 101.25052 64.77707 23.55270
#
# Poissons Ratio (x) = 0.18647 0.22035
# Poissons Ratio (y) = 0.29147 -0.01257
# Poissons Ratio (z) = 0.94726 -0.03457
#
# Static dielectric constant tensor:
#      x y z
#    x 1.803350 0.000000 0.000000 
#    y 0.000000 1.825670 0.000000 
#    z 0.000000 0.000000 1.739490 
# 
# From -- ./inp_files/17128.got.cif
#   From: 2010.05.17/outbox.cif.g08.bks.cpg/sg56_9_cif.got.tgz:17128.got - 2010.06.03 13:42:01.
