data_PCOD9430796
_publ_section_title
;
Structure prediction by ZEFSAII (Michael W. Deem and Ramdas Pophale) SiO2 
 PCOD9430796
Probable space group: P C C N
;
_chemical_formula_sum "Si O2"
_cell_formula_units_Z 48
_cell_length_a 8.612263
_cell_length_b 19.182235
_cell_length_c 14.464024
_cell_angle_alpha 90.000000
_cell_angle_beta 90.000000
_cell_angle_gamma 90.000000
_cell_volume 2389.492241
_symmetry_space_group_name_H-M "P C C N"
_symmetry_group_IT_number 56
_symmetry_cell_setting 'orthorhombic'
loop_
_space_group_symop_operation_xyz
x,y,z
1/2-x,1/2-y,z
1/2+x,-y,1/2-z
-x,1/2+y,1/2-z
-x,-y,-z
1/2+x,1/2+y,-z
1/2-x,y,1/2+z
x,1/2-y,1/2+z
loop_
_atom_site_type_symbol
_atom_site_label
_atom_site_fract_x
_atom_site_fract_y
_atom_site_fract_z
Si Si1 0.581012 0.712955 0.577594
Si Si2 0.668012 0.317996 0.284043
Si Si3 0.365344 0.047533 0.461868
Si Si4 0.738796 0.080457 0.130734
Si Si5 0.107187 0.659934 0.542383
Si Si6 0.566327 0.927392 0.958352
O O1 0.750000 0.750000 0.578988
O O2 0.501901 0.702420 0.678301
O O3 0.462747 0.764062 0.522741
O O4 0.571995 0.637651 0.529192
O O5 0.750000 0.250000 0.239418
O O6 0.682310 0.383914 0.217991
O O7 0.772404 0.334541 0.374132
O O8 0.454258 0.115894 0.428779
O O9 0.249555 0.059627 0.548418
O O10 0.500000 0.000000 0.500000
O O11 0.280164 0.000938 0.384476
O O12 0.808445 0.122064 0.042297
O O13 0.552051 0.088969 0.124313
O O14 0.500000 0.000000 0.000000
#
# Coordination Sequence:
#
# PCOD9430796 Si02
#       6
#     8   8   8   8   8   8
#     4  11  21  39  64  90 126 167 210 263 324 384
#     4  10  23  38  58  92 123 164 213 262 312 394
#     4   9  19  38  59  90 123 159 207 268 313 386
#     4  10  21  39  63  87 124 164 210 260 324 378
#     4  10  20  39  61  87 122 165 207 262 321 376
#     4  10  20  37  64  90 117 165 217 260 322 394
#
# _framework density 20.087948999999998
#
# number of rings (size 3 to 8) (size 9 to 14) (size 15 to 20)
#    0.000    2.000    3.333    0.000    2.333    0.000 
#    6.000    7.500    0.000    0.000    0.000    0.000 
#    0.000    0.000    0.000    0.000    0.000    0.000 
#
# Total GULP energy -267248.818985 kJ/mol
# GULP energy per Si atom -5567.683729 kJ/mol
# Density = 2.004223 g / cm^3
# Si number density = 20.087949 Si / 1000 Ang^3
#
#
#
# Elastic Constant Matrix: (Units=GPa)
#
#
# Indices 1 2 3 4 5 6 
#
# 1 113.1844 24.9677 10.5608 0.0000 0.0000 0.0000
# 2 24.9677 106.5594 12.3919 0.0000 0.0000 0.0000
# 3 10.5608 12.3919 15.5183 0.0000 0.0000 0.0000
# 4 0.0000 0.0000 0.0000 -19.4632 0.0000 0.0000
# 5 0.0000 0.0000 0.0000 0.0000 16.4557 0.0000
# 6 0.0000 0.0000 0.0000 0.0000 0.0000 41.1666
#
#
#
# Elastic Compliance Matrix: (Units=1/GPa)
#
#
# Indices 1 2 3 4 5 6 
#
# 1 0.009693 -0.001658 -0.005272 0.000000 0.000000 0.000000
# 2 -0.001658 0.010629 -0.007359 0.000000 0.000000 0.000000
# 3 -0.005272 -0.007359 0.073905 0.000000 0.000000 0.000000
# 4 0.000000 0.000000 0.000000 -0.051379 0.000000 0.000000
# 5 0.000000 0.000000 0.000000 0.000000 0.060769 0.000000
# 6 0.000000 0.000000 0.000000 0.000000 0.000000 0.024292
#
#
# Mechanical properties :
#
#
# Convention : Reuss Voigt Hill
#
# Bulk Modulus (GPa) = 15.23294 36.78921 26.01108
# Shear Modulus (GPa) = 28.03181 20.12129 24.07655
#
# Velocity S-wave (km/s) = 3.73963 3.16833 3.46577
# Velocity P-wave (km/s) = 5.12309 5.63367 5.38444
#
# Compressibility (1/GPa) = 0.06564721
#
# Stress axis : x y z
#
# Youngs Moduli (GPa) = 103.16915 94.08489 13.53097
#
# Poissons Ratio (x) = 0.15599 0.07134
# Poissons Ratio (y) = 0.17105 0.09958
# Poissons Ratio (z) = 0.54395 0.69238
#
# Static dielectric constant tensor:
#      x y z
#    x 1.781540 0.000000 0.000000 
#    y 0.000000 1.803570 0.000000 
#    z 0.000000 0.000000 1.682070 
# 
# From -- ./inp_files/10674.got.cif
#   From: 2010.05.17/outbox.cif.g08.bks.cpg/sg56_6_cif.got.tgz:10674.got - 2010.06.03 13:42:01.
