data_PCOD9430228
_publ_section_title
;
Structure prediction by ZEFSAII (Michael W. Deem and Ramdas Pophale) SiO2 
 PCOD9430228
Probable space group: P C C N
;
_chemical_formula_sum "Si O2"
_cell_formula_units_Z 64
_cell_length_a 14.666473
_cell_length_b 22.920186
_cell_length_c 8.148211
_cell_angle_alpha 90.000000
_cell_angle_beta 90.000000
_cell_angle_gamma 90.000000
_cell_volume 2739.088669
_symmetry_space_group_name_H-M "P C C N"
_symmetry_group_IT_number 56
_symmetry_cell_setting 'orthorhombic'
loop_
_space_group_symop_operation_xyz
x,y,z
1/2-x,1/2-y,z
1/2+x,-y,1/2-z
-x,1/2+y,1/2-z
-x,-y,-z
1/2+x,1/2+y,-z
1/2-x,y,1/2+z
x,1/2-y,1/2+z
loop_
_atom_site_type_symbol
_atom_site_label
_atom_site_fract_x
_atom_site_fract_y
_atom_site_fract_z
Si Si1 0.025608 0.581536 0.332093
Si Si2 0.722820 0.342646 0.673193
Si Si3 0.164500 0.038551 0.263951
Si Si4 0.321242 0.572607 0.063459
Si Si5 0.579651 0.671790 0.067839
Si Si6 0.424611 0.203578 0.059657
Si Si7 0.392855 0.823671 0.121444
Si Si8 0.739623 0.613503 0.491118
O O1 0.095578 0.550033 0.452520
O O2 0.081003 0.610895 0.182477
O O3 0.943381 0.543622 0.263327
O O4 0.985970 0.632962 0.451561
O O5 0.751832 0.399038 0.564614
O O6 0.664815 0.370023 0.821825
O O7 0.660715 0.309373 0.545417
O O8 0.814173 0.311121 0.741218
O O9 0.194512 0.053122 0.446357
O O10 0.201014 0.980097 0.183264
O O11 0.208508 0.094323 0.173483
O O12 0.546597 0.687893 0.252681
O O13 0.603494 0.729419 0.962808
O O14 0.673875 0.637281 0.091972
O O15 0.506544 0.198501 0.926337
O O16 0.340741 0.160720 0.018254
#
# Coordination Sequence:
#
# PCOD9430228 Si02
#       8
#     8   8   8   8   8   8   8   8
#     4  10  21  38  60  90 124 162 210 268 312 375
#     4   9  20  37  62  89 118 166 205 264 320 378
#     4  11  21  37  57  88 127 171 209 262 311 373
#     4  10  19  36  60  85 123 167 218 256 321 375
#     4  11  25  39  64  92 128 169 211 260 321 376
#     4  12  23  40  64  91 124 169 214 262 316 388
#     4  10  20  39  66  90 124 161 208 263 325 374
#     4  11  23  38  59  89 132 168 214 258 310 374
#
# _framework density 23.365435999999999
#
# number of rings (size 3 to 8) (size 9 to 14) (size 15 to 20)
#    0.000    1.500    2.500    3.000    1.750    1.000 
#    0.000    0.625    0.000   25.500    0.000    0.000 
#    0.000    0.000    0.000    0.000    0.000    0.000 
#
# Total GULP energy -356480.427929 kJ/mol
# GULP energy per Si atom -5570.006686 kJ/mol
# Density = 2.331226 g / cm^3
# Si number density = 23.365436 Si / 1000 Ang^3
#
#
#
# Elastic Constant Matrix: (Units=GPa)
#
#
# Indices 1 2 3 4 5 6 
#
# 1 67.5218 -13.0475 1.7274 0.0000 0.0000 0.0000
# 2 -13.0475 25.0450 -5.9237 0.0000 0.0000 0.0000
# 3 1.7274 -5.9237 64.4220 0.0000 0.0000 0.0000
# 4 0.0000 0.0000 0.0000 24.6393 0.0000 0.0000
# 5 0.0000 0.0000 0.0000 0.0000 34.3124 0.0000
# 6 0.0000 0.0000 0.0000 0.0000 0.0000 -120.1399
#
#
#
# Elastic Compliance Matrix: (Units=1/GPa)
#
#
# Indices 1 2 3 4 5 6 
#
# 1 0.016476 0.008667 0.000355 0.000000 0.000000 0.000000
# 2 0.008667 0.045375 0.003940 0.000000 0.000000 0.000000
# 3 0.000355 0.003940 0.015875 0.000000 0.000000 0.000000
# 4 0.000000 0.000000 0.000000 0.040586 0.000000 0.000000
# 5 0.000000 0.000000 0.000000 0.000000 0.029144 0.000000
# 6 0.000000 0.000000 0.000000 0.000000 0.000000 -0.008324
#
#
# Mechanical properties :
#
#
# Convention : Reuss Voigt Hill
#
# Bulk Modulus (GPa) = 9.64774 13.61124 11.62949
# Shear Modulus (GPa) = 33.83911 -0.62213 16.60849
#
# Velocity S-wave (km/s) = 3.80972 -0.51656 2.66900
# Velocity P-wave (km/s) = 4.84665 2.34142 3.80606
#
# Compressibility (1/GPa) = 0.10365121
#
# Stress axis : x y z
#
# Youngs Moduli (GPa) = 60.69526 22.03843 62.99054
#
# Poissons Ratio (x) = -0.19101 -0.02237
# Poissons Ratio (y) = -0.52606 -0.24818
# Poissons Ratio (z) = -0.02156 -0.08683
#
# Static dielectric constant tensor:
#      x y z
#    x 1.912860 0.000000 0.000000 
#    y 0.000000 1.866010 0.000000 
#    z 0.000000 0.000000 2.020880 
# 
# From -- ./inp_files/3697.got.cif
#   From: 2010.05.17/outbox.cif.g08.bks.cpg/sg56_2_cif.got.tgz:3697.got - 2010.06.03 13:42:01.
