data_PCOD9430574
_publ_section_title
;
Structure prediction by ZEFSAII (Michael W. Deem and Ramdas Pophale) SiO2 
 PCOD9430574
Probable space group: P C C N
;
_chemical_formula_sum "Si O2"
_cell_formula_units_Z 48
_cell_length_a 17.567940
_cell_length_b 8.875195
_cell_length_c 16.443093
_cell_angle_alpha 90.000000
_cell_angle_beta 90.000000
_cell_angle_gamma 90.000000
_cell_volume 2563.788862
_symmetry_space_group_name_H-M "P C C N"
_symmetry_group_IT_number 56
_symmetry_cell_setting 'orthorhombic'
loop_
_space_group_symop_operation_xyz
x,y,z
1/2-x,1/2-y,z
1/2+x,-y,1/2-z
-x,1/2+y,1/2-z
-x,-y,-z
1/2+x,1/2+y,-z
1/2-x,y,1/2+z
x,1/2-y,1/2+z
loop_
_atom_site_type_symbol
_atom_site_label
_atom_site_fract_x
_atom_site_fract_y
_atom_site_fract_z
Si Si1 0.176787 0.856514 0.372359
Si Si2 0.933636 0.305397 0.509189
Si Si3 0.328333 0.316252 0.438349
Si Si4 0.990864 0.705537 0.143626
Si Si5 0.102402 0.112428 0.068218
Si Si6 0.427246 0.978820 0.734476
O O1 0.250000 0.750000 0.364615
O O2 0.112554 0.762335 0.417719
O O3 0.142165 0.911612 0.286783
O O4 0.183959 0.005189 0.429143
O O5 0.887326 0.447329 0.472607
O O6 0.955565 0.191328 0.435853
O O7 0.015102 0.353078 0.544707
O O8 0.250000 0.250000 0.405000
O O9 0.404254 0.272161 0.387980
O O10 0.345364 0.238801 0.525920
O O11 0.983133 0.565713 0.203813
O O12 0.024857 0.848959 0.189963
O O13 0.104810 0.090100 0.164825
#
# Coordination Sequence:
#
# PCOD9430574 Si02
#       6
#     8   8   8   8   8   8
#     4  11  23  37  57  85 118 153 191 239 292 342
#     4   9  18  35  58  81 108 147 192 231 275 338
#     4  10  21  37  57  81 111 151 197 234 280 343
#     4   9  20  35  58  86 112 150 192 235 285 340
#     4   9  18  35  58  81 109 148 190 232 280 338
#     4  10  20  35  56  86 117 145 188 238 293 342
#
# _framework density 18.722290000000001
#
# number of rings (size 3 to 8) (size 9 to 14) (size 15 to 20)
#    0.000    2.333    0.000    3.000    0.000    8.667 
#    0.000   10.000    0.000    4.000    0.000    0.000 
#    0.000    0.000    0.000    0.000    0.000    0.000 
#
# Total GULP energy -267447.494856 kJ/mol
# GULP energy per Si atom -5571.822810 kJ/mol
# Density = 1.867968 g / cm^3
# Si number density = 18.722290 Si / 1000 Ang^3
#
#
#
# Elastic Constant Matrix: (Units=GPa)
#
#
# Indices 1 2 3 4 5 6 
#
# 1 52.6121 24.5611 18.0703 0.0000 0.0000 0.0000
# 2 24.5611 63.4282 27.7620 0.0000 0.0000 0.0000
# 3 18.0703 27.7620 105.5738 0.0000 0.0000 0.0000
# 4 0.0000 0.0000 0.0000 28.0477 0.0000 0.0000
# 5 0.0000 0.0000 0.0000 0.0000 3.4733 0.0000
# 6 0.0000 0.0000 0.0000 0.0000 0.0000 17.1936
#
#
#
# Elastic Compliance Matrix: (Units=1/GPa)
#
#
# Indices 1 2 3 4 5 6 
#
# 1 0.023514 -0.008299 -0.001842 0.000000 0.000000 0.000000
# 2 -0.008299 0.020745 -0.004035 0.000000 0.000000 0.000000
# 3 -0.001842 -0.004035 0.010848 0.000000 0.000000 0.000000
# 4 0.000000 0.000000 0.000000 0.035654 0.000000 0.000000
# 5 0.000000 0.000000 0.000000 0.000000 0.287912 0.000000
# 6 0.000000 0.000000 0.000000 0.000000 0.000000 0.058161
#
#
# Mechanical properties :
#
#
# Convention : Reuss Voigt Hill
#
# Bulk Modulus (GPa) = 37.37532 40.26678 38.82105
# Shear Modulus (GPa) = 10.54618 19.82430 15.18524
#
# Velocity S-wave (km/s) = 2.37596 3.25754 2.85103
# Velocity P-wave (km/s) = 5.24721 5.97519 5.62299
#
# Compressibility (1/GPa) = 0.02675563
#
# Stress axis : x y z
#
# Youngs Moduli (GPa) = 42.52780 48.20341 92.17944
#
# Poissons Ratio (x) = 0.40003 0.16984
# Poissons Ratio (y) = 0.35293 0.37193
# Poissons Ratio (z) = 0.07836 0.19449
#
# Static dielectric constant tensor:
#      x y z
#    x 1.629290 0.000000 0.000000 
#    y 0.000000 1.714950 0.000000 
#    z 0.000000 0.000000 1.674080 
# 
# From -- ./inp_files/14938.got.cif
#   From: 2010.05.17/outbox.cif.g08.bks.cpg/sg56_8_cif.got.tgz:14938.got - 2010.06.03 13:42:01.
