data_PCOD9430032
_publ_section_title
;
Structure prediction by ZEFSAII (Michael W. Deem and Ramdas Pophale) SiO2 
 PCOD9430032
Probable space group: P C C N
;
_chemical_formula_sum "Si O2"
_cell_formula_units_Z 64
_cell_length_a 9.210064
_cell_length_b 18.699023
_cell_length_c 17.716485
_cell_angle_alpha 90.000000
_cell_angle_beta 90.000000
_cell_angle_gamma 90.000000
_cell_volume 3051.118848
_symmetry_space_group_name_H-M "P C C N"
_symmetry_group_IT_number 56
_symmetry_cell_setting 'orthorhombic'
loop_
_space_group_symop_operation_xyz
x,y,z
1/2-x,1/2-y,z
1/2+x,-y,1/2-z
-x,1/2+y,1/2-z
-x,-y,-z
1/2+x,1/2+y,-z
1/2-x,y,1/2+z
x,1/2-y,1/2+z
loop_
_atom_site_type_symbol
_atom_site_label
_atom_site_fract_x
_atom_site_fract_y
_atom_site_fract_z
Si Si1 0.780557 0.526253 0.137721
Si Si2 0.410174 0.881452 0.996153
Si Si3 0.640653 0.183469 0.721797
Si Si4 0.119349 0.888354 0.926597
Si Si5 0.588733 0.987129 0.913624
Si Si6 0.024012 0.388573 0.411229
Si Si7 0.204175 0.542586 0.706366
Si Si8 0.923039 0.232524 0.375435
O O1 0.673563 0.462667 0.109820
O O2 0.686662 0.593742 0.114638
O O3 0.830364 0.507045 0.222354
O O4 0.932754 0.524190 0.096291
O O5 0.271934 0.850973 0.951258
O O6 0.543015 0.909470 0.944362
O O7 0.448921 0.828008 0.062526
O O8 0.340157 0.954674 0.030968
O O9 0.750000 0.250000 0.707013
O O10 0.564264 0.157795 0.644746
O O11 0.728958 0.115677 0.757926
O O12 0.539107 0.207288 0.791110
O O13 0.018530 0.900396 0.000135
O O14 0.680148 0.994798 0.839018
O O15 0.919212 0.432587 0.352879
O O16 0.996986 0.305556 0.397566
O O17 0.750000 0.250000 0.374565
#
# Coordination Sequence:
#
# PCOD9430032 Si02
#       8
#     8   8   8   8   8   8   8   8
#     4  10  24  35  54  88 119 154 200 245 302 363
#     4  10  19  34  60  85 112 156 203 244 296 358
#     4  10  19  32  54  91 117 145 200 260 309 349
#     4  10  20  34  55  84 119 150 194 251 301 357
#     4  10  19  37  59  84 119 160 200 238 298 372
#     4  12  21  37  60  88 120 154 197 257 310 352
#     4  11  19  38  61  84 120 157 199 255 301 356
#     4  11  18  35  58  85 120 155 198 256 305 357
#
# _framework density 20.975912999999998
#
# number of rings (size 3 to 8) (size 9 to 14) (size 15 to 20)
#    0.000    1.500    6.250    1.125    1.750    0.000 
#    0.000    0.625    0.000    0.000    0.000    0.000 
#    0.000    0.000    0.000    0.000    0.000    0.000 
#
# Total GULP energy -356642.105484 kJ/mol
# GULP energy per Si atom -5572.532898 kJ/mol
# Density = 2.092817 g / cm^3
# Si number density = 20.975913 Si / 1000 Ang^3
#
#
#
# Elastic Constant Matrix: (Units=GPa)
#
#
# Indices 1 2 3 4 5 6 
#
# 1 25.5530 10.0715 29.2801 0.0000 0.0000 0.0000
# 2 10.0715 61.4275 37.9226 0.0000 0.0000 0.0000
# 3 29.2801 37.9226 120.9326 0.0000 0.0000 0.0000
# 4 0.0000 0.0000 0.0000 29.5107 0.0000 0.0000
# 5 0.0000 0.0000 0.0000 0.0000 14.7446 0.0000
# 6 0.0000 0.0000 0.0000 0.0000 0.0000 16.8927
#
#
#
# Elastic Compliance Matrix: (Units=1/GPa)
#
#
# Indices 1 2 3 4 5 6 
#
# 1 0.054207 -0.000974 -0.012819 0.000000 0.000000 0.000000
# 2 -0.000974 0.020205 -0.006100 0.000000 0.000000 0.000000
# 3 -0.012819 -0.006100 0.013286 0.000000 0.000000 0.000000
# 4 0.000000 0.000000 0.000000 0.033886 0.000000 0.000000
# 5 0.000000 0.000000 0.000000 0.000000 0.067822 0.000000
# 6 0.000000 0.000000 0.000000 0.000000 0.000000 0.059197
#
#
# Mechanical properties :
#
#
# Convention : Reuss Voigt Hill
#
# Bulk Modulus (GPa) = 20.87177 40.27350 30.57263
# Shear Modulus (GPa) = 16.42795 20.93886 18.68341
#
# Velocity S-wave (km/s) = 2.80157 3.16291 2.98771
# Velocity P-wave (km/s) = 4.52074 5.70791 5.14865
#
# Compressibility (1/GPa) = 0.04791160
#
# Stress axis : x y z
#
# Youngs Moduli (GPa) = 18.44779 49.49265 75.26843
#
# Poissons Ratio (x) = 0.04819 0.96488
# Poissons Ratio (y) = 0.01796 0.45916
# Poissons Ratio (z) = 0.23649 0.30192
#
# Static dielectric constant tensor:
#      x y z
#    x 1.770240 0.000000 0.000000 
#    y 0.000000 1.776860 0.000000 
#    z 0.000000 0.000000 1.893190 
# 
# From -- ./inp_files/15214.got.cif
#   From: 2010.05.17/outbox.cif.g08.bks.cpg/sg56_8_cif.got.tgz:15214.got - 2010.06.03 13:42:01.
