data_PCOD9430238
_publ_section_title
;
Structure prediction by ZEFSAII (Michael W. Deem and Ramdas Pophale) SiO2 
 PCOD9430238
Probable space group: P C C N
;
_chemical_formula_sum "Si O2"
_cell_formula_units_Z 48
_cell_length_a 10.150273
_cell_length_b 14.662090
_cell_length_c 17.977579
_cell_angle_alpha 90.000000
_cell_angle_beta 90.000000
_cell_angle_gamma 90.000000
_cell_volume 2675.499105
_symmetry_space_group_name_H-M "P C C N"
_symmetry_group_IT_number 56
_symmetry_cell_setting 'orthorhombic'
loop_
_space_group_symop_operation_xyz
x,y,z
1/2-x,1/2-y,z
1/2+x,-y,1/2-z
-x,1/2+y,1/2-z
-x,-y,-z
1/2+x,1/2+y,-z
1/2-x,y,1/2+z
x,1/2-y,1/2+z
loop_
_atom_site_type_symbol
_atom_site_label
_atom_site_fract_x
_atom_site_fract_y
_atom_site_fract_z
Si Si1 0.431404 0.918310 0.957104
Si Si2 0.394953 0.753542 0.072751
Si Si3 0.478654 0.121275 0.541044
Si Si4 0.115267 0.195755 0.815427
Si Si5 0.902484 0.782921 0.357157
Si Si6 0.327541 0.468179 0.921050
O O1 0.534858 0.868659 0.901565
O O2 0.300573 0.966392 0.921993
O O3 0.399424 0.840599 0.018338
O O4 0.500000 0.000000 0.000000
O O5 0.250000 0.750000 0.106266
O O6 0.506801 0.747254 0.134813
O O7 0.426145 0.666484 0.020611
O O8 0.470635 0.194965 0.606117
O O9 0.344521 0.095513 0.495769
O O10 0.544787 0.031910 0.573318
O O11 0.250000 0.250000 0.821263
O O12 0.074510 0.196802 0.729445
O O13 0.150667 0.097728 0.851081
O O14 0.750000 0.750000 0.365669
#
# Coordination Sequence:
#
# PCOD9430238 Si02
#       6
#     8   8   8   8   8   8
#     4  11  21  35  62  91 111 148 208 250 283 354
#     4  10  19  37  59  86 117 152 196 249 297 351
#     4   9  19  36  63  80 116 153 192 244 301 347
#     4  10  22  41  57  82 126 165 191 238 310 366
#     4  10  22  41  57  82 122 164 193 235 309 367
#     4  10  19  36  61  91 111 149 200 251 288 343
#
# _framework density 17.940577999999999
#
# number of rings (size 3 to 8) (size 9 to 14) (size 15 to 20)
#    0.000    2.000    1.667    2.000    0.000    4.667 
#   12.000    0.000    0.000    0.000    0.000    0.000 
#    0.000    0.000    0.000    0.000    0.000    0.000 
#
# Total GULP energy -267203.934192 kJ/mol
# GULP energy per Si atom -5566.748629 kJ/mol
# Density = 1.789974 g / cm^3
# Si number density = 17.940578 Si / 1000 Ang^3
#
#
#
# Elastic Constant Matrix: (Units=GPa)
#
#
# Indices 1 2 3 4 5 6 
#
# 1 79.7215 14.6611 59.4417 0.0000 0.0000 0.0000
# 2 14.6611 99.9486 61.8405 0.0000 0.0000 0.0000
# 3 59.4417 61.8405 133.1081 0.0000 0.0000 0.0000
# 4 0.0000 0.0000 0.0000 16.3045 0.0000 0.0000
# 5 0.0000 0.0000 0.0000 0.0000 22.5827 0.0000
# 6 0.0000 0.0000 0.0000 0.0000 0.0000 32.4752
#
#
#
# Elastic Compliance Matrix: (Units=1/GPa)
#
#
# Indices 1 2 3 4 5 6 
#
# 1 0.019677 0.003579 -0.010450 0.000000 0.000000 0.000000
# 2 0.003579 0.014692 -0.008424 0.000000 0.000000 0.000000
# 3 -0.010450 -0.008424 0.016093 0.000000 0.000000 0.000000
# 4 0.000000 0.000000 0.000000 0.061333 0.000000 0.000000
# 5 0.000000 0.000000 0.000000 0.000000 0.044282 0.000000
# 6 0.000000 0.000000 0.000000 0.000000 0.000000 0.030793
#
#
# Mechanical properties :
#
#
# Convention : Reuss Voigt Hill
#
# Bulk Modulus (GPa) = 50.32051 64.96274 57.64163
# Shear Modulus (GPa) = 22.31304 26.06149 24.18726
#
# Velocity S-wave (km/s) = 3.53047 3.81551 3.67575
# Velocity P-wave (km/s) = 6.68792 7.46320 7.08617
#
# Compressibility (1/GPa) = 0.01987261
#
# Stress axis : x y z
#
# Youngs Moduli (GPa) = 50.82028 68.06229 62.13804
#
# Poissons Ratio (x) = -0.24362 0.64935
# Poissons Ratio (y) = -0.18190 0.52347
# Poissons Ratio (z) = 0.53108 0.57338
#
# Static dielectric constant tensor:
#      x y z
#    x 1.650030 0.000000 0.000000 
#    y 0.000000 1.549250 0.000000 
#    z 0.000000 0.000000 1.607120 
# 
# From -- ./inp_files/14808.got.cif
#   From: 2010.05.17/outbox.cif.g08.bks.cpg/sg56_8_cif.got.tgz:14808.got - 2010.06.03 13:42:01.
