data_PCOD9430467
_publ_section_title
;
Structure prediction by ZEFSAII (Michael W. Deem and Ramdas Pophale) SiO2 
 PCOD9430467
Probable space group: P C C N
;
_chemical_formula_sum "Si O2"
_cell_formula_units_Z 60
_cell_length_a 17.192366
_cell_length_b 17.574375
_cell_length_c 9.007494
_cell_angle_alpha 90.000000
_cell_angle_beta 90.000000
_cell_angle_gamma 90.000000
_cell_volume 2721.570060
_symmetry_space_group_name_H-M "P C C N"
_symmetry_group_IT_number 56
_symmetry_cell_setting 'orthorhombic'
loop_
_space_group_symop_operation_xyz
x,y,z
1/2-x,1/2-y,z
1/2+x,-y,1/2-z
-x,1/2+y,1/2-z
-x,-y,-z
1/2+x,1/2+y,-z
1/2-x,y,1/2+z
x,1/2-y,1/2+z
loop_
_atom_site_type_symbol
_atom_site_label
_atom_site_fract_x
_atom_site_fract_y
_atom_site_fract_z
Si Si1 0.750000 0.750000 0.429307
Si Si2 0.426564 0.753559 0.447142
Si Si3 0.972261 0.806500 0.713365
Si Si4 0.145057 0.885671 0.337811
Si Si5 0.706999 0.130033 0.484036
Si Si6 0.854167 0.555224 0.193923
Si Si7 0.350280 0.176790 0.313021
Si Si8 0.311894 0.038409 0.459598
O O1 0.789378 0.810825 0.320015
O O2 0.687651 0.788309 0.537208
O O3 0.464494 0.711829 0.587659
O O4 0.485367 0.813599 0.371703
O O5 0.413922 0.683745 0.333470
O O6 0.346455 0.798919 0.472596
O O7 0.914966 0.876258 0.673972
O O8 0.920621 0.730795 0.726169
O O9 0.197356 0.881204 0.190890
O O10 0.202953 0.867134 0.472913
O O11 0.112573 0.971055 0.343214
O O12 0.677952 0.051688 0.560033
O O13 0.776055 0.560255 0.093117
O O14 0.828890 0.554565 0.367455
O O15 0.365383 0.089866 0.353619
#
# Coordination Sequence:
#
# PCOD9430467 Si02
#       8
#     4   8   8   8   8   8   8   8
#     4  10  20  32  62  86 126 164 216 268 298 364
#     4  12  25  44  62  92 131 177 212 254 321 389
#     4  12  26  40  61  90 138 174 210 249 319 404
#     4  10  23  44  72  95 122 160 220 277 319 368
#     4  10  23  43  69  98 119 159 219 278 318 362
#     4  10  22  42  64  99 127 166 213 268 322 372
#     4  11  20  36  57  92 122 170 209 256 313 368
#     4  10  20  39  67  94 126 159 218 275 312 364
#
# _framework density 22.046099999999999
#
# number of rings (size 3 to 8) (size 9 to 14) (size 15 to 20)
#    0.000    1.333    1.333    5.200    1.867    2.667 
#    2.400    2.000    0.000    0.000    0.000    0.000 
#    0.000    0.000    0.000    0.000    0.000    0.000 
#
# Total GULP energy -335213.838716 kJ/mol
# GULP energy per Si atom -5586.897312 kJ/mol
# Density = 2.199592 g / cm^3
# Si number density = 22.046100 Si / 1000 Ang^3
#
#
#
# Elastic Constant Matrix: (Units=GPa)
#
#
# Indices 1 2 3 4 5 6 
#
# 1 44.9584 35.3024 1.3582 0.0000 0.0000 0.0000
# 2 35.3024 120.1398 7.6294 0.0000 0.0000 0.0000
# 3 1.3582 7.6294 59.3982 0.0000 0.0000 0.0000
# 4 0.0000 0.0000 0.0000 24.1338 0.0000 0.0000
# 5 0.0000 0.0000 0.0000 0.0000 32.0486 0.0000
# 6 0.0000 0.0000 0.0000 0.0000 0.0000 31.0188
#
#
#
# Elastic Compliance Matrix: (Units=1/GPa)
#
#
# Indices 1 2 3 4 5 6 
#
# 1 0.028925 -0.008527 0.000434 0.000000 0.000000 0.000000
# 2 -0.008527 0.010906 -0.001206 0.000000 0.000000 0.000000
# 3 0.000434 -0.001206 0.016981 0.000000 0.000000 0.000000
# 4 0.000000 0.000000 0.000000 0.041436 0.000000 0.000000
# 5 0.000000 0.000000 0.000000 0.000000 0.031203 0.000000
# 6 0.000000 0.000000 0.000000 0.000000 0.000000 0.032239
#
#
# Mechanical properties :
#
#
# Convention : Reuss Voigt Hill
#
# Bulk Modulus (GPa) = 26.16873 34.78626 30.47749
# Shear Modulus (GPa) = 25.90347 29.45401 27.67874
#
# Velocity S-wave (km/s) = 3.43150 3.65912 3.54714
# Velocity P-wave (km/s) = 5.25319 5.80219 5.53450
#
# Compressibility (1/GPa) = 0.03821355
#
# Stress axis : x y z
#
# Youngs Moduli (GPa) = 34.57180 91.69394 58.89107
#
# Poissons Ratio (x) = 0.78188 -0.02555
# Poissons Ratio (y) = 0.29480 0.07101
# Poissons Ratio (z) = -0.01500 0.11057
#
# Static dielectric constant tensor:
#      x y z
#    x 1.810690 0.000000 0.000000 
#    y 0.000000 1.855890 0.000000 
#    z 0.000000 0.000000 1.821160 
# 
# From -- ./inp_files/4137.got.cif
#   From: 2010.05.17/outbox.cif.g08.bks.cpg/sg56_3_cif.got.tgz:4137.got - 2010.06.03 13:42:01.
