data_PCOD9430720
_publ_section_title
;
Structure prediction by ZEFSAII (Michael W. Deem and Ramdas Pophale) SiO2 
 PCOD9430720
Probable space group: P C C N
;
_chemical_formula_sum "Si O2"
_cell_formula_units_Z 60
_cell_length_a 30.534881
_cell_length_b 5.138869
_cell_length_c 18.291311
_cell_angle_alpha 90.000000
_cell_angle_beta 90.000000
_cell_angle_gamma 90.000000
_cell_volume 2870.176555
_symmetry_space_group_name_H-M "P C C N"
_symmetry_group_IT_number 56
_symmetry_cell_setting 'orthorhombic'
loop_
_space_group_symop_operation_xyz
x,y,z
1/2-x,1/2-y,z
1/2+x,-y,1/2-z
-x,1/2+y,1/2-z
-x,-y,-z
1/2+x,1/2+y,-z
1/2-x,y,1/2+z
x,1/2-y,1/2+z
loop_
_atom_site_type_symbol
_atom_site_label
_atom_site_fract_x
_atom_site_fract_y
_atom_site_fract_z
Si Si1 0.156070 0.566565 0.118924
Si Si2 0.250000 0.750000 0.171833
Si Si3 0.375716 0.162075 0.269980
Si Si4 0.040990 0.486404 0.446608
Si Si5 0.133056 0.059710 0.029896
Si Si6 0.428926 0.994615 0.867574
Si Si7 0.214663 0.440810 0.805851
Si Si8 0.153509 0.778231 0.891885
O O1 0.207886 0.626650 0.131601
O O2 0.130139 0.468765 0.191216
O O3 0.137253 0.841545 0.092395
O O4 0.148202 0.335831 0.060919
O O5 0.267428 0.536662 0.228629
O O6 0.412670 0.378459 0.289708
O O7 0.329504 0.295225 0.285633
O O8 0.374665 0.935323 0.331037
O O9 0.084301 0.460161 0.497184
O O10 0.041868 0.222960 0.400666
O O11 0.000000 0.500000 0.500000
O O12 0.045721 0.731598 0.391220
O O13 0.161693 0.954588 0.961751
O O14 0.381226 0.954661 0.907893
O O15 0.250000 0.250000 0.840605
O O16 0.197772 0.674601 0.856252
#
# Coordination Sequence:
#
# PCOD9430720 Si02
#       8
#     8   4   8   8   8   8   8   8
#     4  12  26  41  69  95 141 185 228 280 352 423
#     4  12  24  42  60 100 130 192 228 286 324 422
#     4  11  21  38  69  93 125 184 230 273 329 398
#     4  11  22  42  72 105 135 175 224 280 347 430
#     4  11  25  43  66 102 137 175 221 286 364 413
#     4  10  20  36  67 103 126 164 225 272 324 395
#     4  11  20  36  67  94 126 167 251 281 317 387
#     4  10  21  40  67  95 130 174 227 289 326 393
#
# _framework density 20.904637999999998
#
# number of rings (size 3 to 8) (size 9 to 14) (size 15 to 20)
#    0.000    1.067    5.333    2.800    3.733    0.000 
#    0.000    2.000    2.933    3.200    0.000    0.000 
#    0.000    0.000    0.000    0.000    0.000    0.000 
#
# Total GULP energy -334554.621415 kJ/mol
# GULP energy per Si atom -5575.910357 kJ/mol
# Density = 2.085706 g / cm^3
# Si number density = 20.904638 Si / 1000 Ang^3
#
#
#
# Elastic Constant Matrix: (Units=GPa)
#
#
# Indices 1 2 3 4 5 6 
#
# 1 38.6222 15.9979 -0.0712 0.0000 0.0000 0.0000
# 2 15.9979 111.5681 14.1767 0.0000 0.0000 0.0000
# 3 -0.0712 14.1767 67.6025 0.0000 0.0000 0.0000
# 4 0.0000 0.0000 0.0000 45.6968 0.0000 0.0000
# 5 0.0000 0.0000 0.0000 0.0000 -107.2611 0.0000
# 6 0.0000 0.0000 0.0000 0.0000 0.0000 24.9334
#
#
#
# Elastic Compliance Matrix: (Units=1/GPa)
#
#
# Indices 1 2 3 4 5 6 
#
# 1 0.027578 -0.004066 0.000882 0.000000 0.000000 0.000000
# 2 -0.004066 0.009808 -0.002061 0.000000 0.000000 0.000000
# 3 0.000882 -0.002061 0.015226 0.000000 0.000000 0.000000
# 4 0.000000 0.000000 0.000000 0.021883 0.000000 0.000000
# 5 0.000000 0.000000 0.000000 0.000000 -0.009323 0.000000
# 6 0.000000 0.000000 0.000000 0.000000 0.000000 0.040107
#
#
# Mechanical properties :
#
#
# Convention : Reuss Voigt Hill
#
# Bulk Modulus (GPa) = 23.74172 30.88883 27.31528
# Shear Modulus (GPa) = 38.51778 5.18645 21.85212
#
# Velocity S-wave (km/s) = 4.29715 1.57683 3.23665
# Velocity P-wave (km/s) = 6.00020 4.25715 5.20220
#
# Compressibility (1/GPa) = 0.04211995
#
# Stress axis : x y z
#
# Youngs Moduli (GPa) = 36.26096 101.95624 65.67927
#
# Poissons Ratio (x) = 0.41460 -0.05792
# Poissons Ratio (y) = 0.14745 0.13537
# Poissons Ratio (z) = -0.03197 0.21014
#
# Static dielectric constant tensor:
#      x y z
#    x 2.758480 0.000000 0.000000 
#    y 0.000000 1.717160 0.000000 
#    z 0.000000 0.000000 1.786670 
# 
# From -- ./inp_files/17113.got.cif
#   From: 2010.05.17/outbox.cif.g08.bks.cpg/sg56_9_cif.got.tgz:17113.got - 2010.06.03 13:42:01.
