data_PCOD9430227
_publ_section_title
;
Structure prediction by ZEFSAII (Michael W. Deem and Ramdas Pophale) SiO2 
 PCOD9430227
Probable space group: P C C N
;
_chemical_formula_sum "Si O2"
_cell_formula_units_Z 56
_cell_length_a 5.942197
_cell_length_b 27.799394
_cell_length_c 13.922368
_cell_angle_alpha 90.000000
_cell_angle_beta 90.000000
_cell_angle_gamma 90.000000
_cell_volume 2299.828669
_symmetry_space_group_name_H-M "P C C N"
_symmetry_group_IT_number 56
_symmetry_cell_setting 'orthorhombic'
loop_
_space_group_symop_operation_xyz
x,y,z
1/2-x,1/2-y,z
1/2+x,-y,1/2-z
-x,1/2+y,1/2-z
-x,-y,-z
1/2+x,1/2+y,-z
1/2-x,y,1/2+z
x,1/2-y,1/2+z
loop_
_atom_site_type_symbol
_atom_site_label
_atom_site_fract_x
_atom_site_fract_y
_atom_site_fract_z
Si Si1 0.301864 0.001815 0.854299
Si Si2 0.725267 0.110471 0.176953
Si Si3 0.999976 0.760482 0.118906
Si Si4 0.844536 0.132991 0.891324
Si Si5 0.501440 0.825388 0.980892
Si Si6 0.383537 0.105796 0.565510
Si Si7 0.712222 0.995706 0.373683
O O1 0.321168 0.943482 0.860444
O O2 0.545388 0.022128 0.891055
O O3 0.047771 0.012409 0.892319
O O4 0.289145 0.013360 0.741033
O O5 0.644384 0.112363 0.285581
O O6 0.640534 0.154910 0.110709
O O7 0.992933 0.113782 0.166648
O O8 0.250000 0.750000 0.165561
O O9 0.018348 0.817222 0.107422
O O10 0.750000 0.750000 0.162162
O O11 0.002753 0.729318 0.018905
O O12 0.594685 0.147192 0.925053
O O13 0.940714 0.102599 0.978672
O O14 0.736664 0.847973 0.954628
O O15 0.264132 0.055141 0.573199
#
# Coordination Sequence:
#
# PCOD9430227 Si02
#       7
#     8   8   8   8   8   8   8
#     4   9  17  32  54  85 121 154 205 250 295 360
#     4  10  21  37  59  90 116 159 206 250 302 368
#     4  10  20  39  60  83 116 156 190 242 302 351
#     4  10  22  38  58  88 123 155 197 256 310 358
#     4  10  20  38  62  82 116 158 205 247 300 368
#     4  10  19  36  60  85 118 160 205 245 302 366
#     4   9  17  31  56  85 117 161 200 247 302 355
#
# _framework density 24.349639
#
# number of rings (size 3 to 8) (size 9 to 14) (size 15 to 20)
#    0.000    2.286    2.857    0.000    0.000    1.143 
#    0.000   12.143    0.000    0.857    0.000    0.000 
#    0.000    0.000    0.000    0.000    0.000    0.000 
#
# Total GULP energy -311762.676515 kJ/mol
# GULP energy per Si atom -5567.190652 kJ/mol
# Density = 2.429422 g / cm^3
# Si number density = 24.349639 Si / 1000 Ang^3
#
#
#
# Elastic Constant Matrix: (Units=GPa)
#
#
# Indices 1 2 3 4 5 6 
#
# 1 176.1228 21.5673 21.6688 0.0000 0.0000 0.0000
# 2 21.5673 76.1010 26.9989 0.0000 0.0000 0.0000
# 3 21.6688 26.9989 73.9287 0.0000 0.0000 0.0000
# 4 0.0000 0.0000 0.0000 27.6814 0.0000 0.0000
# 5 0.0000 0.0000 0.0000 0.0000 2.4496 0.0000
# 6 0.0000 0.0000 0.0000 0.0000 0.0000 25.9240
#
#
#
# Elastic Compliance Matrix: (Units=1/GPa)
#
#
# Indices 1 2 3 4 5 6 
#
# 1 0.005990 -0.001235 -0.001305 0.000000 0.000000 0.000000
# 2 -0.001235 0.015351 -0.005244 0.000000 0.000000 0.000000
# 3 -0.001305 -0.005244 0.015824 0.000000 0.000000 0.000000
# 4 0.000000 0.000000 0.000000 0.036125 0.000000 0.000000
# 5 0.000000 0.000000 0.000000 0.000000 0.408235 0.000000
# 6 0.000000 0.000000 0.000000 0.000000 0.000000 0.038574
#
#
# Mechanical properties :
#
#
# Convention : Reuss Voigt Hill
#
# Bulk Modulus (GPa) = 46.30175 51.84694 49.07435
# Shear Modulus (GPa) = 9.21038 28.27215 18.74127
#
# Velocity S-wave (km/s) = 1.94699 3.41118 2.77731
# Velocity P-wave (km/s) = 4.91030 6.07073 5.52108
#
# Compressibility (1/GPa) = 0.02159745
#
# Stress axis : x y z
#
# Youngs Moduli (GPa) = 166.95723 65.14279 63.19431
#
# Poissons Ratio (x) = 0.08042 0.08245
# Poissons Ratio (y) = 0.20612 0.33141
# Poissons Ratio (z) = 0.21783 0.34163
#
# Static dielectric constant tensor:
#      x y z
#    x 2.134680 0.000000 0.000000 
#    y 0.000000 1.940080 0.000000 
#    z 0.000000 0.000000 1.910180 
# 
# From -- ./inp_files/9821.got.cif
#   From: 2010.05.17/outbox.cif.g08.bks.cpg/sg56_5_cif.got.tgz:9821.got - 2010.06.03 13:42:01.
