data_PCOD9430370
_publ_section_title
;
Structure prediction by ZEFSAII (Michael W. Deem and Ramdas Pophale) SiO2 
 PCOD9430370
Probable space group: P C C N
;
_chemical_formula_sum "Si O2"
_cell_formula_units_Z 36
_cell_length_a 7.643170
_cell_length_b 17.054745
_cell_length_c 13.160504
_cell_angle_alpha 90.000000
_cell_angle_beta 90.000000
_cell_angle_gamma 90.000000
_cell_volume 1715.502167
_symmetry_space_group_name_H-M "P C C N"
_symmetry_group_IT_number 56
_symmetry_cell_setting 'orthorhombic'
loop_
_space_group_symop_operation_xyz
x,y,z
1/2-x,1/2-y,z
1/2+x,-y,1/2-z
-x,1/2+y,1/2-z
-x,-y,-z
1/2+x,1/2+y,-z
1/2-x,y,1/2+z
x,1/2-y,1/2+z
loop_
_atom_site_type_symbol
_atom_site_label
_atom_site_fract_x
_atom_site_fract_y
_atom_site_fract_z
Si Si1 0.946672 0.104394 0.412504
Si Si2 0.250000 0.750000 0.005116
Si Si3 0.203032 0.338160 0.307709
Si Si4 0.901816 0.684415 0.467575
Si Si5 0.154587 0.066197 0.618343
O O1 0.828758 0.180571 0.426556
O O2 0.114086 0.122157 0.342235
O O3 0.024197 0.087581 0.525796
O O4 0.847631 0.027141 0.374869
O O5 0.409983 0.716725 0.938582
O O6 0.250000 0.250000 0.272420
O O7 0.094313 0.330225 0.411378
O O8 0.110428 0.389856 0.222601
O O9 0.750000 0.750000 0.454372
O O10 0.838579 0.605882 0.413231
#
# Coordination Sequence:
#
# PCOD9430370 Si02
#       5
#     8   4   8   8   8
#     4  10  23  40  63  96 127 168 211 265 319 383
#     4  12  20  40  64  90 130 164 216 254 318 384
#     4  10  19  39  65  88 126 174 200 261 326 363
#     4  10  20  40  64  90 129 167 198 272 317 359
#     4  10  21  41  66  89 131 168 211 261 324 377
#
# _framework density 20.985111
#
# number of rings (size 3 to 8) (size 9 to 14) (size 15 to 20)
#    0.000    1.778    6.667    0.667    0.000    2.667 
#    0.000    8.889    0.000    0.000    0.000    0.000 
#    0.000    0.000    0.000    0.000    0.000    0.000 
#
# Total GULP energy -201050.738021 kJ/mol
# GULP energy per Si atom -5584.742723 kJ/mol
# Density = 2.093735 g / cm^3
# Si number density = 20.985111 Si / 1000 Ang^3
#
#
#
# Elastic Constant Matrix: (Units=GPa)
#
#
# Indices 1 2 3 4 5 6 
#
# 1 107.9478 41.2711 0.8164 0.0000 0.0000 0.0000
# 2 41.2711 160.6910 19.4047 0.0000 0.0000 0.0000
# 3 0.8164 19.4047 75.2902 0.0000 0.0000 0.0000
# 4 0.0000 0.0000 0.0000 -37.7115 0.0000 0.0000
# 5 0.0000 0.0000 0.0000 0.0000 -2.0200 0.0000
# 6 0.0000 0.0000 0.0000 0.0000 0.0000 40.7548
#
#
#
# Elastic Compliance Matrix: (Units=1/GPa)
#
#
# Indices 1 2 3 4 5 6 
#
# 1 0.010298 -0.002716 0.000588 0.000000 0.000000 0.000000
# 2 -0.002716 0.007139 -0.001811 0.000000 0.000000 0.000000
# 3 0.000588 -0.001811 0.013742 0.000000 0.000000 0.000000
# 4 0.000000 0.000000 0.000000 -0.026517 0.000000 0.000000
# 5 0.000000 0.000000 0.000000 0.000000 -0.495052 0.000000
# 6 0.000000 0.000000 0.000000 0.000000 0.000000 0.024537
#
#
# Mechanical properties :
#
#
# Convention : Reuss Voigt Hill
#
# Bulk Modulus (GPa) = 42.91312 51.87925 47.39619
# Shear Modulus (GPa) = -11.10596 19.03377 3.96391
#
# Velocity S-wave (km/s) = -2.30300 3.01493 1.37587
# Velocity P-wave (km/s) = 3.66360 6.07416 5.01584
#
# Compressibility (1/GPa) = 0.02330290
#
# Stress axis : x y z
#
# Youngs Moduli (GPa) = 97.10982 140.07002 72.76853
#
# Poissons Ratio (x) = 0.38041 -0.04281
# Poissons Ratio (y) = 0.26373 0.13175
# Poissons Ratio (z) = -0.05713 0.25361
#
# Static dielectric constant tensor:
#      x y z
#    x 1.772780 0.000000 0.000000 
#    y 0.000000 1.772980 0.000000 
#    z 0.000000 0.000000 1.764410 
# 
# From -- ./inp_files/10473.got.cif
#   From: 2010.05.17/outbox.cif.g08.bks.cpg/sg56_6_cif.got.tgz:10473.got - 2010.06.03 13:42:01.
