data_PCOD9430952
_publ_section_title
;
Structure prediction by ZEFSAII (Michael W. Deem and Ramdas Pophale) SiO2 
 PCOD9430952
Probable space group: P C C N
;
_chemical_formula_sum "Si O2"
_cell_formula_units_Z 52
_cell_length_a 23.468675
_cell_length_b 4.879790
_cell_length_c 18.085132
_cell_angle_alpha 90.000000
_cell_angle_beta 90.000000
_cell_angle_gamma 90.000000
_cell_volume 2071.149205
_symmetry_space_group_name_H-M "P C C N"
_symmetry_group_IT_number 56
_symmetry_cell_setting 'orthorhombic'
loop_
_space_group_symop_operation_xyz
x,y,z
1/2-x,1/2-y,z
1/2+x,-y,1/2-z
-x,1/2+y,1/2-z
-x,-y,-z
1/2+x,1/2+y,-z
1/2-x,y,1/2+z
x,1/2-y,1/2+z
loop_
_atom_site_type_symbol
_atom_site_label
_atom_site_fract_x
_atom_site_fract_y
_atom_site_fract_z
Si Si1 0.750000 0.250000 0.729830
Si Si2 0.402045 0.991939 0.938856
Si Si3 0.658918 0.416942 0.802764
Si Si4 0.431240 0.953435 0.244891
Si Si5 0.475625 0.013647 0.393333
Si Si6 0.675396 0.775016 0.675051
Si Si7 0.410907 0.235210 0.093553
O O1 0.700771 0.160365 0.800755
O O2 0.785047 0.460744 0.668846
O O3 0.454914 0.185887 0.914038
O O4 0.346880 0.106489 0.895453
O O5 0.424342 0.691362 0.917636
O O6 0.394567 0.045015 0.025507
O O7 0.599389 0.337596 0.764369
O O8 0.697815 0.551827 0.736627
O O9 0.641249 0.585883 0.873608
O O10 0.481027 0.978651 0.303953
O O11 0.382515 0.127599 0.285869
O O12 0.434732 0.055695 0.161629
O O13 0.535847 0.929056 0.427561
#
# Coordination Sequence:
#
# PCOD9430952 Si02
#       7
#     4   8   8   8   8   8   8
#     4  10  20  38  70  92 124 170 234 292 348 402
#     4  11  24  43  62  97 136 184 222 280 338 415
#     4  10  20  39  60  95 125 168 222 287 336 398
#     4   9  21  36  59  91 124 172 223 273 322 396
#     4  11  24  41  64  91 139 187 232 264 337 414
#     4   9  19  39  63  90 125 168 222 278 332 410
#     4  11  25  36  64  95 139 176 225 284 343 398
#
# _framework density 25.106835
#
# number of rings (size 3 to 8) (size 9 to 14) (size 15 to 20)
#    0.000    1.846    1.538    1.385    6.462    0.000 
#    0.000    0.769    0.000    9.231    0.000    0.000 
#    0.000    0.000    0.000    0.000    0.000    0.000 
#
# Total GULP energy -289927.952479 kJ/mol
# GULP energy per Si atom -5575.537548 kJ/mol
# Density = 2.504969 g / cm^3
# Si number density = 25.106835 Si / 1000 Ang^3
#
#
#
# Elastic Constant Matrix: (Units=GPa)
#
#
# Indices 1 2 3 4 5 6 
#
# 1 117.2156 17.2392 22.1457 0.0000 0.0000 0.0000
# 2 17.2392 91.9649 18.2398 0.0000 0.0000 0.0000
# 3 22.1457 18.2398 141.8824 0.0000 0.0000 0.0000
# 4 0.0000 0.0000 0.0000 37.5843 0.0000 0.0000
# 5 0.0000 0.0000 0.0000 0.0000 23.7899 0.0000
# 6 0.0000 0.0000 0.0000 0.0000 0.0000 39.6595
#
#
#
# Elastic Compliance Matrix: (Units=1/GPa)
#
#
# Indices 1 2 3 4 5 6 
#
# 1 0.008973 -0.001441 -0.001215 0.000000 0.000000 0.000000
# 2 -0.001441 0.011390 -0.001239 0.000000 0.000000 0.000000
# 3 -0.001215 -0.001239 0.007397 0.000000 0.000000 0.000000
# 4 0.000000 0.000000 0.000000 0.026607 0.000000 0.000000
# 5 0.000000 0.000000 0.000000 0.000000 0.042035 0.000000
# 6 0.000000 0.000000 0.000000 0.000000 0.000000 0.025215
#
#
# Mechanical properties :
#
#
# Convention : Reuss Voigt Hill
#
# Bulk Modulus (GPa) = 50.07891 51.81246 50.94569
# Shear Modulus (GPa) = 36.74769 39.76927 38.25848
#
# Velocity S-wave (km/s) = 3.82992 3.98427 3.90786
# Velocity P-wave (km/s) = 6.28867 6.46896 6.37945
#
# Compressibility (1/GPa) = 0.01996849
#
# Stress axis : x y z
#
# Youngs Moduli (GPa) = 111.44775 87.79919 135.18822
#
# Poissons Ratio (x) = 0.12652 0.16429
# Poissons Ratio (y) = 0.16059 0.16754
# Poissons Ratio (z) = 0.13544 0.10881
#
# Static dielectric constant tensor:
#      x y z
#    x 2.122530 0.000000 0.000000 
#    y 0.000000 2.231110 0.000000 
#    z 0.000000 0.000000 2.076400 
# 
# From -- ./inp_files/17005.got.cif
#   From: 2010.05.17/outbox.cif.g08.bks.cpg/sg56_9_cif.got.tgz:17005.got - 2010.06.03 13:42:01.
