data_PCOD9430864
_publ_section_title
;
Structure prediction by ZEFSAII (Michael W. Deem and Ramdas Pophale) SiO2 
 PCOD9430864
Probable space group: P C C N
;
_chemical_formula_sum "Si O2"
_cell_formula_units_Z 48
_cell_length_a 24.077884
_cell_length_b 7.211742
_cell_length_c 11.141882
_cell_angle_alpha 90.000000
_cell_angle_beta 90.000000
_cell_angle_gamma 90.000000
_cell_volume 1934.715246
_symmetry_space_group_name_H-M "P C C N"
_symmetry_group_IT_number 56
_symmetry_cell_setting 'orthorhombic'
loop_
_space_group_symop_operation_xyz
x,y,z
1/2-x,1/2-y,z
1/2+x,-y,1/2-z
-x,1/2+y,1/2-z
-x,-y,-z
1/2+x,1/2+y,-z
1/2-x,y,1/2+z
x,1/2-y,1/2+z
loop_
_atom_site_type_symbol
_atom_site_label
_atom_site_fract_x
_atom_site_fract_y
_atom_site_fract_z
Si Si1 0.874187 0.409205 0.818032
Si Si2 0.055132 0.480863 0.380831
Si Si3 0.218084 0.440305 0.863079
Si Si4 0.594701 0.862892 0.036733
Si Si5 0.953802 0.134486 0.715741
Si Si6 0.748469 0.523683 0.388182
O O1 0.888241 0.519771 0.696989
O O2 0.901684 0.210092 0.793969
O O3 0.810875 0.439196 0.850129
O O4 0.909680 0.511169 0.920124
O O5 0.072569 0.344618 0.487073
O O6 0.041017 0.698885 0.383212
O O7 0.005303 0.396880 0.302471
O O8 0.250000 0.250000 0.840349
O O9 0.158121 0.391430 0.918486
O O10 0.214612 0.526140 0.729008
O O11 0.253357 0.536750 0.971604
O O12 0.559132 0.950896 0.143252
O O13 0.750000 0.750000 0.399340
#
# Coordination Sequence:
#
# PCOD9430864 Si02
#       6
#     8   8   8   8   8   8
#     4   9  22  38  60  89 126 156 212 256 308 381
#     4  10  20  38  61  87 123 159 207 251 308 376
#     4   9  18  31  62  88 117 160 206 245 319 374
#     4  11  20  42  62  87 126 165 197 267 313 369
#     4  10  22  38  59  90 123 160 207 254 306 372
#     4   9  16  33  56  90 117 158 203 255 308 375
#
# _framework density 24.809851999999999
#
# number of rings (size 3 to 8) (size 9 to 14) (size 15 to 20)
#    1.000    1.333    1.667    2.000    0.000    2.667 
#    3.000    4.167    0.000    4.000    0.000    0.000 
#    0.000    0.000    0.000    0.000    0.000    0.000 
#
# Total GULP energy -267370.780106 kJ/mol
# GULP energy per Si atom -5570.224586 kJ/mol
# Density = 2.475338 g / cm^3
# Si number density = 24.809852 Si / 1000 Ang^3
#
#
#
# Elastic Constant Matrix: (Units=GPa)
#
#
# Indices 1 2 3 4 5 6 
#
# 1 40.1662 17.3388 0.1925 0.0000 0.0000 0.0000
# 2 17.3388 76.0072 0.8900 0.0000 0.0000 0.0000
# 3 0.1925 0.8900 79.7994 0.0000 0.0000 0.0000
# 4 0.0000 0.0000 0.0000 22.3320 0.0000 0.0000
# 5 0.0000 0.0000 0.0000 0.0000 34.5447 0.0000
# 6 0.0000 0.0000 0.0000 0.0000 0.0000 22.2605
#
#
#
# Elastic Compliance Matrix: (Units=1/GPa)
#
#
# Indices 1 2 3 4 5 6 
#
# 1 0.027616 -0.006300 0.000004 0.000000 0.000000 0.000000
# 2 -0.006300 0.014595 -0.000148 0.000000 0.000000 0.000000
# 3 0.000004 -0.000148 0.012533 0.000000 0.000000 0.000000
# 4 0.000000 0.000000 0.000000 0.044779 0.000000 0.000000
# 5 0.000000 0.000000 0.000000 0.000000 0.028948 0.000000
# 6 0.000000 0.000000 0.000000 0.000000 0.000000 0.044923
#
#
# Mechanical properties :
#
#
# Convention : Reuss Voigt Hill
#
# Bulk Modulus (GPa) = 23.89083 25.86838 24.87960
# Shear Modulus (GPa) = 24.97081 27.66422 26.31752
#
# Velocity S-wave (km/s) = 3.17596 3.34286 3.26048
# Velocity P-wave (km/s) = 4.80619 5.03477 4.92181
#
# Compressibility (1/GPa) = 0.04185706
#
# Stress axis : x y z
#
# Youngs Moduli (GPa) = 36.21086 68.51428 79.78899
#
# Poissons Ratio (x) = 0.43163 -0.00029
# Poissons Ratio (y) = 0.22812 0.01178
# Poissons Ratio (z) = -0.00013 0.01011
#
# Static dielectric constant tensor:
#      x y z
#    x 1.939440 0.000000 0.000000 
#    y 0.000000 1.755350 0.000000 
#    z 0.000000 0.000000 2.028520 
# 
# From -- ./inp_files/6399.got.cif
#   From: 2010.05.17/outbox.cif.g08.bks.cpg/sg56_4_cif.got.tgz:6399.got - 2010.06.03 13:42:01.
