data_PCOD9430938
_publ_section_title
;
Structure prediction by ZEFSAII (Michael W. Deem and Ramdas Pophale) SiO2 
 PCOD9430938
Probable space group: P C C N
;
_chemical_formula_sum "Si O2"
_cell_formula_units_Z 60
_cell_length_a 25.155708
_cell_length_b 9.588516
_cell_length_c 10.021020
_cell_angle_alpha 90.000000
_cell_angle_beta 90.000000
_cell_angle_gamma 90.000000
_cell_volume 2417.129235
_symmetry_space_group_name_H-M "P C C N"
_symmetry_group_IT_number 56
_symmetry_cell_setting 'orthorhombic'
loop_
_space_group_symop_operation_xyz
x,y,z
1/2-x,1/2-y,z
1/2+x,-y,1/2-z
-x,1/2+y,1/2-z
-x,-y,-z
1/2+x,1/2+y,-z
1/2-x,y,1/2+z
x,1/2-y,1/2+z
loop_
_atom_site_type_symbol
_atom_site_label
_atom_site_fract_x
_atom_site_fract_y
_atom_site_fract_z
Si Si1 0.998408 0.483908 0.341024
Si Si2 0.661109 0.064316 0.756702
Si Si3 0.128599 0.054779 0.465284
Si Si4 0.677186 0.022642 0.469995
Si Si5 0.928220 0.741541 0.213995
Si Si6 0.805803 0.677217 0.250696
Si Si7 0.400780 0.842660 0.747878
Si Si8 0.250000 0.750000 0.616581
O O1 0.969121 0.623962 0.279055
O O2 0.959332 0.357375 0.304029
O O3 0.000000 0.500000 0.500000
O O4 0.051877 0.402415 0.290762
O O5 0.664452 0.979814 0.619505
O O6 0.619258 0.188072 0.734855
O O7 0.715757 0.145172 0.793017
O O8 0.632072 0.727620 0.773939
O O9 0.086097 0.178437 0.434771
O O10 0.181868 0.086735 0.381021
O O11 0.144905 0.016095 0.611604
O O12 0.104866 0.921025 0.388286
O O13 0.631676 0.074667 0.367332
O O14 0.712323 0.160540 0.476832
O O15 0.705581 0.903502 0.387640
O O16 0.750000 0.750000 0.223499
#
# Coordination Sequence:
#
# PCOD9430938 Si02
#       8
#     8   8   8   8   8   8   8   4
#     4  11  23  47  79 118 162 205 271 343 397 486
#     4  11  20  36  69 107 151 199 267 328 399 472
#     4   8  19  40  68 105 151 203 265 318 395 491
#     4  10  20  38  67 105 146 194 254 326 391 476
#     4   9  23  48  81 113 158 210 273 325 410 482
#     4   9  20  47  80 100 156 209 261 320 406 497
#     4   9  19  39  66 103 152 203 247 321 403 470
#     4  10  22  36  62 104 148 196 256 324 402 488
#
# _framework density 24.822834
#
# number of rings (size 3 to 8) (size 9 to 14) (size 15 to 20)
#    0.800    1.600    1.333    2.000    0.000    5.333 
#    0.000   12.667    0.000    0.000    0.000    0.000 
#    0.000    0.000    0.000    0.000    0.000    0.000 
#
# Total GULP energy -334664.562871 kJ/mol
# GULP energy per Si atom -5577.742715 kJ/mol
# Density = 2.476634 g / cm^3
# Si number density = 24.822834 Si / 1000 Ang^3
#
#
#
# Elastic Constant Matrix: (Units=GPa)
#
#
# Indices 1 2 3 4 5 6 
#
# 1 93.1790 33.4003 12.4915 0.0000 0.0000 0.0000
# 2 33.4003 86.9310 33.8528 0.0000 0.0000 0.0000
# 3 12.4915 33.8528 119.0678 0.0000 0.0000 0.0000
# 4 0.0000 0.0000 0.0000 20.8058 0.0000 0.0000
# 5 0.0000 0.0000 0.0000 0.0000 3.9488 0.0000
# 6 0.0000 0.0000 0.0000 0.0000 0.0000 38.3139
#
#
#
# Elastic Compliance Matrix: (Units=1/GPa)
#
#
# Indices 1 2 3 4 5 6 
#
# 1 0.012447 -0.004806 0.000061 0.000000 0.000000 0.000000
# 2 -0.004806 0.014791 -0.003701 0.000000 0.000000 0.000000
# 3 0.000061 -0.003701 0.009445 0.000000 0.000000 0.000000
# 4 0.000000 0.000000 0.000000 0.048063 0.000000 0.000000
# 5 0.000000 0.000000 0.000000 0.000000 0.253244 0.000000
# 6 0.000000 0.000000 0.000000 0.000000 0.000000 0.026100
#
#
# Mechanical properties :
#
#
# Convention : Reuss Voigt Hill
#
# Bulk Modulus (GPa) = 50.53182 50.96298 50.74740
# Shear Modulus (GPa) = 12.90058 27.24259 20.07159
#
# Velocity S-wave (km/s) = 2.28218 3.31642 2.84666
# Velocity P-wave (km/s) = 5.22931 5.93634 5.59400
#
# Compressibility (1/GPa) = 0.01978951
#
# Stress axis : x y z
#
# Youngs Moduli (GPa) = 80.34358 67.60808 105.88153
#
# Poissons Ratio (x) = 0.32491 -0.00641
# Poissons Ratio (y) = 0.38611 0.39189
# Poissons Ratio (z) = -0.00487 0.25023
#
# Static dielectric constant tensor:
#      x y z
#    x 2.005830 0.000000 0.000000 
#    y 0.000000 2.048650 0.000000 
#    z 0.000000 0.000000 1.947380 
# 
# From -- ./inp_files/9072.got.cif
#   From: 2010.05.17/outbox.cif.g08.bks.cpg/sg56_5_cif.got.tgz:9072.got - 2010.06.03 13:42:01.
