data_PCOD9430046
_publ_section_title
;
Structure prediction by ZEFSAII (Michael W. Deem and Ramdas Pophale) SiO2 
 PCOD9430046
Probable space group: P C C N
;
_chemical_formula_sum "Si O2"
_cell_formula_units_Z 60
_cell_length_a 12.844370
_cell_length_b 12.314338
_cell_length_c 19.088772
_cell_angle_alpha 90.000000
_cell_angle_beta 90.000000
_cell_angle_gamma 90.000000
_cell_volume 3019.269418
_symmetry_space_group_name_H-M "P C C N"
_symmetry_group_IT_number 56
_symmetry_cell_setting 'orthorhombic'
loop_
_space_group_symop_operation_xyz
x,y,z
1/2-x,1/2-y,z
1/2+x,-y,1/2-z
-x,1/2+y,1/2-z
-x,-y,-z
1/2+x,1/2+y,-z
1/2-x,y,1/2+z
x,1/2-y,1/2+z
loop_
_atom_site_type_symbol
_atom_site_label
_atom_site_fract_x
_atom_site_fract_y
_atom_site_fract_z
Si Si1 0.221260 0.484134 0.980440
Si Si2 0.640185 0.788817 0.720224
Si Si3 0.234184 0.986524 0.770558
Si Si4 0.250000 0.250000 0.545952
Si Si5 0.332570 0.658833 0.894246
Si Si6 0.628635 0.018639 0.873485
Si Si7 0.950948 0.726526 0.864214
Si Si8 0.089096 0.089027 0.353903
O O1 0.312460 0.555454 0.945175
O O2 0.130883 0.471383 0.922499
O O3 0.243959 0.359731 0.001049
O O4 0.178677 0.538450 0.051313
O O5 0.750000 0.750000 0.752983
O O6 0.657144 0.914867 0.705645
O O7 0.556705 0.763151 0.780002
O O8 0.626576 0.712979 0.653417
O O9 0.213618 0.979034 0.688116
O O10 0.350518 0.025030 0.791518
O O11 0.201273 0.884216 0.817031
O O12 0.350177 0.229551 0.595152
O O13 0.250000 0.750000 0.916415
O O14 0.445217 0.715373 0.891235
O O15 0.568310 0.902301 0.876015
O O16 0.534129 0.095053 0.852077
#
# Coordination Sequence:
#
# PCOD9430046 Si02
#       8
#     8   8   8   4   8   8   8   8
#     4  10  23  37  60  88 125 163 211 254 308 380
#     4   9  17  31  58  89 120 151 205 253 305 354
#     4   9  20  35  57  89 118 153 208 260 308 367
#     4  10  22  38  62  88 118 160 214 260 308 364
#     4  11  23  40  62  87 130 164 202 254 321 378
#     4  10  20  39  60  89 118 165 215 250 310 379
#     4  10  19  36  61  86 117 162 199 255 315 368
#     4  10  19  32  59  82 118 159 200 255 300 369
#
# _framework density 19.872356
#
# number of rings (size 3 to 8) (size 9 to 14) (size 15 to 20)
#    0.000    2.133    0.667    2.800    6.533    1.600 
#    0.000    0.667    2.933    0.000    0.000    0.000 
#    0.000    0.000    0.000    0.000    0.000    0.000 
#
# Total GULP energy -334294.126661 kJ/mol
# GULP energy per Si atom -5571.568778 kJ/mol
# Density = 1.982713 g / cm^3
# Si number density = 19.872356 Si / 1000 Ang^3
#
#
#
# Elastic Constant Matrix: (Units=GPa)
#
#
# Indices 1 2 3 4 5 6 
#
# 1 76.1800 12.2824 30.6131 0.0000 0.0000 0.0000
# 2 12.2824 38.4556 18.8083 0.0000 0.0000 0.0000
# 3 30.6131 18.8083 100.1679 0.0000 0.0000 0.0000
# 4 0.0000 0.0000 0.0000 21.9404 0.0000 0.0000
# 5 0.0000 0.0000 0.0000 0.0000 17.3033 0.0000
# 6 0.0000 0.0000 0.0000 0.0000 0.0000 22.7102
#
#
#
# Elastic Compliance Matrix: (Units=1/GPa)
#
#
# Indices 1 2 3 4 5 6 
#
# 1 0.015244 -0.002852 -0.004123 0.000000 0.000000 0.000000
# 2 -0.002852 0.029167 -0.004605 0.000000 0.000000 0.000000
# 3 -0.004123 -0.004605 0.012108 0.000000 0.000000 0.000000
# 4 0.000000 0.000000 0.000000 0.045578 0.000000 0.000000
# 5 0.000000 0.000000 0.000000 0.000000 0.057793 0.000000
# 6 0.000000 0.000000 0.000000 0.000000 0.000000 0.044033
#
#
# Mechanical properties :
#
#
# Convention : Reuss Voigt Hill
#
# Bulk Modulus (GPa) = 29.97755 37.57901 33.77828
# Shear Modulus (GPa) = 20.99056 22.59743 21.79399
#
# Velocity S-wave (km/s) = 3.25356 3.37579 3.31524
# Velocity P-wave (km/s) = 5.40666 5.84345 5.62929
#
# Compressibility (1/GPa) = 0.03335830
#
# Stress axis : x y z
#
# Youngs Moduli (GPa) = 65.60156 34.28506 82.58982
#
# Poissons Ratio (x) = 0.09778 0.34053
# Poissons Ratio (y) = 0.18710 0.38033
# Poissons Ratio (z) = 0.27049 0.15788
#
# Static dielectric constant tensor:
#      x y z
#    x 1.741620 0.000000 0.000000 
#    y 0.000000 1.774760 0.000000 
#    z 0.000000 0.000000 1.726680 
# 
# From -- ./inp_files/18809.got.cif
#   From: 2010.05.17/outbox.cif.g08.bks.cpg/sg56_10_cif.got.tgz:18809.got - 2010.06.03 13:42:01.
