data_PCOD9430880
_publ_section_title
;
Structure prediction by ZEFSAII (Michael W. Deem and Ramdas Pophale) SiO2 
 PCOD9430880
Probable space group: P C C N
;
_chemical_formula_sum "Si O2"
_cell_formula_units_Z 28
_cell_length_a 8.649157
_cell_length_b 5.158797
_cell_length_c 28.987436
_cell_angle_alpha 90.000000
_cell_angle_beta 90.000000
_cell_angle_gamma 90.000000
_cell_volume 1293.397514
_symmetry_space_group_name_H-M "P C C N"
_symmetry_group_IT_number 56
_symmetry_cell_setting 'orthorhombic'
loop_
_space_group_symop_operation_xyz
x,y,z
1/2-x,1/2-y,z
1/2+x,-y,1/2-z
-x,1/2+y,1/2-z
-x,-y,-z
1/2+x,1/2+y,-z
1/2-x,y,1/2+z
x,1/2-y,1/2+z
loop_
_atom_site_type_symbol
_atom_site_label
_atom_site_fract_x
_atom_site_fract_y
_atom_site_fract_z
Si Si1 0.429033 0.650335 0.629297
Si Si2 0.460762 0.894472 0.721997
Si Si3 0.937032 0.248863 0.473739
Si Si4 0.250000 0.250000 0.672393
O O1 0.250000 0.750000 0.627200
O O2 0.516819 0.774981 0.672940
O O3 0.492387 0.720215 0.579438
O O4 0.393078 0.348452 0.641341
O O5 0.461587 0.655838 0.757549
O O6 0.299003 0.020743 0.706234
O O7 0.750000 0.250000 0.474089
O O8 0.000000 0.500000 0.500000
O O9 0.000000 0.000000 0.500000
#
# Coordination Sequence:
#
# PCOD9430880 Si02
#       4
#     8   8   8   4
#     4   9  21  37  65  89 121 164 223 268 327 407
#     4  11  21  35  60  88 121 157 209 265 316 373
#     4  11  25  43  73 100 136 177 229 283 345 403
#     4  10  20  38  62  90 116 166 228 262 316 394
#
# _framework density 21.648409999999998
#
# number of rings (size 3 to 8) (size 9 to 14) (size 15 to 20)
#    0.000    1.714    2.857    0.857   12.000    0.000 
#    0.000    0.000   12.571    1.714    0.000    0.000 
#    0.000    0.000    0.000    0.000    0.000    0.000 
#
# Total GULP energy -155869.307581 kJ/mol
# GULP energy per Si atom -5566.760985 kJ/mol
# Density = 2.159914 g / cm^3
# Si number density = 21.648410 Si / 1000 Ang^3
#
#
#
# Elastic Constant Matrix: (Units=GPa)
#
#
# Indices 1 2 3 4 5 6 
#
# 1 30.1249 22.2923 27.1215 0.0000 0.0000 0.0000
# 2 22.2923 192.9778 100.8100 0.0000 0.0000 0.0000
# 3 27.1215 100.8100 208.2537 0.0000 0.0000 0.0000
# 4 0.0000 0.0000 0.0000 32.5041 0.0000 0.0000
# 5 0.0000 0.0000 0.0000 0.0000 31.2897 0.0000
# 6 0.0000 0.0000 0.0000 0.0000 0.0000 41.2864
#
#
#
# Elastic Compliance Matrix: (Units=1/GPa)
#
#
# Indices 1 2 3 4 5 6 
#
# 1 0.038446 -0.002444 -0.003824 0.000000 0.000000 0.000000
# 2 -0.002444 0.007091 -0.003114 0.000000 0.000000 0.000000
# 3 -0.003824 -0.003114 0.006807 0.000000 0.000000 0.000000
# 4 0.000000 0.000000 0.000000 0.030765 0.000000 0.000000
# 5 0.000000 0.000000 0.000000 0.000000 0.031959 0.000000
# 6 0.000000 0.000000 0.000000 0.000000 0.000000 0.024221
#
#
# Mechanical properties :
#
#
# Convention : Reuss Voigt Hill
#
# Bulk Modulus (GPa) = 29.77904 81.31156 55.54530
# Shear Modulus (GPa) = 29.54241 39.75821 34.65031
#
# Velocity S-wave (km/s) = 3.69812 4.29014 4.00508
# Velocity P-wave (km/s) = 5.65866 7.88556 6.86303
#
# Compressibility (1/GPa) = 0.03358067
#
# Stress axis : x y z
#
# Youngs Moduli (GPa) = 26.01042 141.02087 146.89759
#
# Poissons Ratio (x) = 0.34459 0.56175
# Poissons Ratio (y) = 0.06356 0.45750
# Poissons Ratio (z) = 0.09947 0.43920
#
# Static dielectric constant tensor:
#      x y z
#    x 1.745450 0.000000 0.000000 
#    y 0.000000 1.960990 0.000000 
#    z 0.000000 0.000000 1.837880 
# 
# From -- ./inp_files/21451.got.cif
#   From: 2010.05.17/outbox.cif.g08.bks.cpg/sg56_11_cif.got.tgz:21451.got - 2010.06.03 13:42:01.
