data_PCOD9430859
_publ_section_title
;
Structure prediction by ZEFSAII (Michael W. Deem and Ramdas Pophale) SiO2 
 PCOD9430859
Probable space group: P C C N
;
_chemical_formula_sum "Si O2"
_cell_formula_units_Z 48
_cell_length_a 4.994593
_cell_length_b 28.495095
_cell_length_c 16.557925
_cell_angle_alpha 90.000000
_cell_angle_beta 90.000000
_cell_angle_gamma 90.000000
_cell_volume 2356.547101
_symmetry_space_group_name_H-M "P C C N"
_symmetry_group_IT_number 56
_symmetry_cell_setting 'orthorhombic'
loop_
_space_group_symop_operation_xyz
x,y,z
1/2-x,1/2-y,z
1/2+x,-y,1/2-z
-x,1/2+y,1/2-z
-x,-y,-z
1/2+x,1/2+y,-z
1/2-x,y,1/2+z
x,1/2-y,1/2+z
loop_
_atom_site_type_symbol
_atom_site_label
_atom_site_fract_x
_atom_site_fract_y
_atom_site_fract_z
Si Si1 0.149833 0.373950 0.576361
Si Si2 0.722155 0.151651 0.354108
Si Si3 0.635169 0.527877 0.229357
Si Si4 0.644245 0.382879 0.684436
Si Si5 0.776522 0.909291 0.588816
Si Si6 0.982284 0.280338 0.480398
O O1 0.406261 0.362369 0.630582
O O2 0.238440 0.411011 0.507187
O O3 0.902487 0.392076 0.629407
O O4 0.058233 0.326397 0.531436
O O5 0.737158 0.150745 0.257608
O O6 0.471254 0.119870 0.377229
O O7 0.660063 0.199971 0.399054
O O8 0.970945 0.123348 0.390884
O O9 0.390871 0.491344 0.221557
O O10 0.489377 0.570823 0.275783
O O11 0.761391 0.544333 0.143614
O O12 0.750000 0.250000 0.522411
O O13 0.250000 0.250000 0.465998
#
# Coordination Sequence:
#
# PCOD9430859 Si02
#       6
#     8   8   8   8   8   8
#     4  11  22  39  61  88 121 159 195 241 305 371
#     4  10  20  38  61  84 112 158 203 233 279 361
#     4  11  22  39  61  88 119 158 207 260 300 345
#     4  11  22  39  62  88 118 156 201 245 299 361
#     4  10  20  38  61  84 116 162 200 230 292 375
#     4  11  22  39  61  88 118 155 199 245 293 353
#
# _framework density 20.368783000000001
#
# number of rings (size 3 to 8) (size 9 to 14) (size 15 to 20)
#    0.000    1.333    0.000   10.000    0.000    0.000 
#    0.000   10.000    0.000    0.000    0.000    0.000 
#    0.000    0.000    0.000    0.000    0.000    0.000 
#
# Total GULP energy -267845.704291 kJ/mol
# GULP energy per Si atom -5580.118839 kJ/mol
# Density = 2.032242 g / cm^3
# Si number density = 20.368783 Si / 1000 Ang^3
#
#
#
# Elastic Constant Matrix: (Units=GPa)
#
#
# Indices 1 2 3 4 5 6 
#
# 1 157.9357 22.3905 42.7176 0.0000 0.0000 0.0000
# 2 22.3905 57.6101 25.6424 0.0000 0.0000 0.0000
# 3 42.7176 25.6424 127.7931 0.0000 0.0000 0.0000
# 4 0.0000 0.0000 0.0000 12.7396 0.0000 0.0000
# 5 0.0000 0.0000 0.0000 0.0000 34.9214 0.0000
# 6 0.0000 0.0000 0.0000 0.0000 0.0000 41.9609
#
#
#
# Elastic Compliance Matrix: (Units=1/GPa)
#
#
# Indices 1 2 3 4 5 6 
#
# 1 0.007142 -0.001881 -0.002010 0.000000 0.000000 0.000000
# 2 -0.001881 0.019556 -0.003295 0.000000 0.000000 0.000000
# 3 -0.002010 -0.003295 0.009158 0.000000 0.000000 0.000000
# 4 0.000000 0.000000 0.000000 0.078495 0.000000 0.000000
# 5 0.000000 0.000000 0.000000 0.000000 0.028636 0.000000
# 6 0.000000 0.000000 0.000000 0.000000 0.000000 0.023832
#
#
# Mechanical properties :
#
#
# Convention : Reuss Voigt Hill
#
# Bulk Modulus (GPa) = 46.54717 58.31555 52.43136
# Shear Modulus (GPa) = 26.54599 34.76362 30.65480
#
# Velocity S-wave (km/s) = 3.61400 4.13572 3.88363
# Velocity P-wave (km/s) = 6.34952 7.17618 6.77547
#
# Compressibility (1/GPa) = 0.02148358
#
# Stress axis : x y z
#
# Youngs Moduli (GPa) = 140.01660 51.13554 109.19176
#
# Poissons Ratio (x) = 0.09619 0.21947
# Poissons Ratio (y) = 0.26339 0.35981
# Poissons Ratio (z) = 0.28142 0.16850
#
# Static dielectric constant tensor:
#      x y z
#    x 1.698150 0.000000 0.000000 
#    y 0.000000 1.809740 0.000000 
#    z 0.000000 0.000000 1.787710 
# 
# From -- ./inp_files/14028.got.cif
#   From: 2010.05.17/outbox.cif.g08.bks.cpg/sg56_8_cif.got.tgz:14028.got - 2010.06.03 13:42:01.
