data_PCOD9430482
_publ_section_title
;
Structure prediction by ZEFSAII (Michael W. Deem and Ramdas Pophale) SiO2 
 PCOD9430482
Probable space group: P C C N
;
_chemical_formula_sum "Si O2"
_cell_formula_units_Z 44
_cell_length_a 5.082489
_cell_length_b 20.810847
_cell_length_c 22.411011
_cell_angle_alpha 90.000000
_cell_angle_beta 90.000000
_cell_angle_gamma 90.000000
_cell_volume 2370.432825
_symmetry_space_group_name_H-M "P C C N"
_symmetry_group_IT_number 56
_symmetry_cell_setting 'orthorhombic'
loop_
_space_group_symop_operation_xyz
x,y,z
1/2-x,1/2-y,z
1/2+x,-y,1/2-z
-x,1/2+y,1/2-z
-x,-y,-z
1/2+x,1/2+y,-z
1/2-x,y,1/2+z
x,1/2-y,1/2+z
loop_
_atom_site_type_symbol
_atom_site_label
_atom_site_fract_x
_atom_site_fract_y
_atom_site_fract_z
Si Si1 0.405625 0.918250 0.725986
Si Si2 0.452645 0.129975 0.581092
Si Si3 0.967165 0.454501 0.056792
Si Si4 0.361028 0.317257 0.686113
Si Si5 0.908340 0.531610 0.175544
Si Si6 0.250000 0.750000 0.906380
O O1 0.503201 0.857157 0.762375
O O2 0.618550 0.938500 0.676234
O O3 0.117981 0.916215 0.698060
O O4 0.404185 0.974887 0.775397
O O5 0.686725 0.080026 0.568184
O O6 0.363772 0.142241 0.650555
O O7 0.557298 0.200113 0.560678
O O8 0.190639 0.100193 0.553045
O O9 0.003214 0.499077 0.114937
O O10 0.000000 0.500000 0.000000
O O11 0.250000 0.250000 0.709117
O O12 0.570020 0.295443 0.635501
#
# Coordination Sequence:
#
# PCOD9430482 Si02
#       6
#     8   8   8   8   8   4
#     4  10  20  33  54  82 118 145 184 230 288 363
#     4  11  21  37  58  88 122 143 197 243 300 358
#     4  12  24  39  59  87 122 160 203 249 293 350
#     4  10  21  33  59  89 120 148 186 242 305 352
#     4  10  21  33  54  81 113 156 183 228 290 340
#     4  10  20  36  60  88 118 152 184 250 312 350
#
# _framework density 18.562010000000001
#
# number of rings (size 3 to 8) (size 9 to 14) (size 15 to 20)
#    0.000    1.455    3.636    1.636   10.182    0.000 
#    0.000    0.000    0.000    0.000    9.455    0.000 
#    0.000    0.000    0.000    0.000    0.000    0.000 
#
# Total GULP energy -245435.618734 kJ/mol
# GULP energy per Si atom -5578.082244 kJ/mol
# Density = 1.851976 g / cm^3
# Si number density = 18.562010 Si / 1000 Ang^3
#
#
#
# Elastic Constant Matrix: (Units=GPa)
#
#
# Indices 1 2 3 4 5 6 
#
# 1 85.3539 21.8021 16.6067 0.0000 0.0000 0.0000
# 2 21.8021 57.6776 9.2896 0.0000 0.0000 0.0000
# 3 16.6067 9.2896 39.9982 0.0000 0.0000 0.0000
# 4 0.0000 0.0000 0.0000 20.7326 0.0000 0.0000
# 5 0.0000 0.0000 0.0000 0.0000 10.0090 0.0000
# 6 0.0000 0.0000 0.0000 0.0000 0.0000 40.4808
#
#
#
# Elastic Compliance Matrix: (Units=1/GPa)
#
#
# Indices 1 2 3 4 5 6 
#
# 1 0.013763 -0.004448 -0.004681 0.000000 0.000000 0.000000
# 2 -0.004448 0.019449 -0.002670 0.000000 0.000000 0.000000
# 3 -0.004681 -0.002670 0.027565 0.000000 0.000000 0.000000
# 4 0.000000 0.000000 0.000000 0.048233 0.000000 0.000000
# 5 0.000000 0.000000 0.000000 0.000000 0.099910 0.000000
# 6 0.000000 0.000000 0.000000 0.000000 0.000000 0.024703
#
#
# Mechanical properties :
#
#
# Convention : Reuss Voigt Hill
#
# Bulk Modulus (GPa) = 26.89786 30.93629 28.91708
# Shear Modulus (GPa) = 18.54494 23.26657 20.90575
#
# Velocity S-wave (km/s) = 3.16425 3.54425 3.35963
# Velocity P-wave (km/s) = 5.27942 5.78374 5.53732
#
# Compressibility (1/GPa) = 0.03717768
#
# Stress axis : x y z
#
# Youngs Moduli (GPa) = 72.65883 51.41562 36.27821
#
# Poissons Ratio (x) = 0.22872 0.16982
# Poissons Ratio (y) = 0.32322 0.09687
# Poissons Ratio (z) = 0.34012 0.13729
#
# Static dielectric constant tensor:
#      x y z
#    x 1.722010 0.000000 0.000000 
#    y 0.000000 1.660640 0.000000 
#    z 0.000000 0.000000 1.607920 
# 
# From -- ./inp_files/20026.got.cif
#   From: 2010.05.17/outbox.cif.g08.bks.cpg/sg56_11_cif.got.tgz:20026.got - 2010.06.03 13:42:01.
