data_PCOD9430752
_publ_section_title
;
Structure prediction by ZEFSAII (Michael W. Deem and Ramdas Pophale) SiO2 
 PCOD9430752
Probable space group: P C C N
;
_chemical_formula_sum "Si O2"
_cell_formula_units_Z 64
_cell_length_a 18.220499
_cell_length_b 11.764091
_cell_length_c 14.361260
_cell_angle_alpha 90.000000
_cell_angle_beta 90.000000
_cell_angle_gamma 90.000000
_cell_volume 3078.301733
_symmetry_space_group_name_H-M "P C C N"
_symmetry_group_IT_number 56
_symmetry_cell_setting 'orthorhombic'
loop_
_space_group_symop_operation_xyz
x,y,z
1/2-x,1/2-y,z
1/2+x,-y,1/2-z
-x,1/2+y,1/2-z
-x,-y,-z
1/2+x,1/2+y,-z
1/2-x,y,1/2+z
x,1/2-y,1/2+z
loop_
_atom_site_type_symbol
_atom_site_label
_atom_site_fract_x
_atom_site_fract_y
_atom_site_fract_z
Si Si1 0.615758 0.915200 0.367175
Si Si2 0.571665 0.702329 0.040488
Si Si3 0.830460 0.110061 0.478240
Si Si4 0.978212 0.109871 0.559552
Si Si5 0.053598 0.956640 0.870516
Si Si6 0.106692 0.451021 0.184148
Si Si7 0.831936 0.764179 0.710041
Si Si8 0.662345 0.130010 0.474307
O O1 0.626991 0.833849 0.457391
O O2 0.527681 0.909268 0.356045
O O3 0.656158 0.871001 0.276631
O O4 0.639187 0.041104 0.395382
O O5 0.544579 0.582408 0.083255
O O6 0.612722 0.765097 0.123902
O O7 0.509396 0.782615 0.997905
O O8 0.890252 0.106489 0.561563
O O9 0.745460 0.097869 0.504606
O O10 0.838136 0.239727 0.441623
O O11 0.854600 0.017986 0.400460
O O12 0.027309 0.097621 0.651382
O O13 0.000000 0.000000 0.500000
O O14 0.092311 0.967583 0.771324
O O15 0.106072 0.889436 0.940833
O O16 0.151042 0.344620 0.224524
O O17 0.750000 0.750000 0.674281
#
# Coordination Sequence:
#
# PCOD9430752 Si02
#       8
#     8   8   8   8   8   8   8   8
#     4  11  21  40  67  88 127 170 213 256 315 379
#     4  10  21  41  61  88 125 165 211 264 311 375
#     4  10  21  39  65  89 129 164 208 258 320 377
#     4  10  20  37  60  87 119 163 205 254 321 372
#     4  10  22  40  65  93 122 167 217 256 307 386
#     4  10  22  42  60  93 128 161 209 268 309 370
#     4  11  24  39  61  97 128 164 217 259 320 376
#     4  10  21  40  63  93 123 173 205 255 321 374
#
# _framework density 20.790685
#
# number of rings (size 3 to 8) (size 9 to 14) (size 15 to 20)
#    0.000    1.750    1.250    3.750    3.500    0.500 
#   13.500    3.750    0.000    0.000    0.000    0.000 
#    0.000    0.000    0.000    0.000    0.000    0.000 
#
# Total GULP energy -357380.740794 kJ/mol
# GULP energy per Si atom -5584.074075 kJ/mol
# Density = 2.074336 g / cm^3
# Si number density = 20.790685 Si / 1000 Ang^3
#
#
#
# Elastic Constant Matrix: (Units=GPa)
#
#
# Indices 1 2 3 4 5 6 
#
# 1 93.1445 20.6196 -0.7258 0.0000 0.0000 0.0000
# 2 20.6196 38.9148 0.5271 0.0000 0.0000 0.0000
# 3 -0.7258 0.5271 45.4278 0.0000 0.0000 0.0000
# 4 0.0000 0.0000 0.0000 12.6582 0.0000 0.0000
# 5 0.0000 0.0000 0.0000 0.0000 13.3770 0.0000
# 6 0.0000 0.0000 0.0000 0.0000 0.0000 23.5375
#
#
#
# Elastic Compliance Matrix: (Units=1/GPa)
#
#
# Indices 1 2 3 4 5 6 
#
# 1 0.012166 -0.006450 0.000269 0.000000 0.000000 0.000000
# 2 -0.006450 0.029121 -0.000441 0.000000 0.000000 0.000000
# 3 0.000269 -0.000441 0.022022 0.000000 0.000000 0.000000
# 4 0.000000 0.000000 0.000000 0.079000 0.000000 0.000000
# 5 0.000000 0.000000 0.000000 0.000000 0.074755 0.000000
# 6 0.000000 0.000000 0.000000 0.000000 0.000000 0.042485
#
#
# Mechanical properties :
#
#
# Convention : Reuss Voigt Hill
#
# Bulk Modulus (GPa) = 19.97377 24.25877 22.11627
# Shear Modulus (GPa) = 17.27226 20.38563 18.82894
#
# Velocity S-wave (km/s) = 2.88543 3.13472 3.01266
# Velocity P-wave (km/s) = 4.55290 4.97950 4.77097
#
# Compressibility (1/GPa) = 0.05006567
#
# Stress axis : x y z
#
# Youngs Moduli (GPa) = 82.19666 34.33980 45.40834
#
# Poissons Ratio (x) = 0.22149 -0.01223
# Poissons Ratio (y) = 0.53017 0.02002
# Poissons Ratio (z) = -0.02213 0.01514
#
# Static dielectric constant tensor:
#      x y z
#    x 1.766790 0.000000 0.000000 
#    y 0.000000 1.783850 0.000000 
#    z 0.000000 0.000000 1.724160 
# 
# From -- ./inp_files/12860.got.cif
#   From: 2010.05.17/outbox.cif.g08.bks.cpg/sg56_7_cif.got.tgz:12860.got - 2010.06.03 13:42:01.
