data_PCOD9430451
_publ_section_title
;
Structure prediction by ZEFSAII (Michael W. Deem and Ramdas Pophale) SiO2 
 PCOD9430451
Probable space group: P C C N
;
_chemical_formula_sum "Si O2"
_cell_formula_units_Z 48
_cell_length_a 13.001535
_cell_length_b 15.434098
_cell_length_c 10.708942
_cell_angle_alpha 90.000000
_cell_angle_beta 90.000000
_cell_angle_gamma 90.000000
_cell_volume 2148.930893
_symmetry_space_group_name_H-M "P C C N"
_symmetry_group_IT_number 56
_symmetry_cell_setting 'orthorhombic'
loop_
_space_group_symop_operation_xyz
x,y,z
1/2-x,1/2-y,z
1/2+x,-y,1/2-z
-x,1/2+y,1/2-z
-x,-y,-z
1/2+x,1/2+y,-z
1/2-x,y,1/2+z
x,1/2-y,1/2+z
loop_
_atom_site_type_symbol
_atom_site_label
_atom_site_fract_x
_atom_site_fract_y
_atom_site_fract_z
Si Si1 0.963310 0.700933 0.606338
Si Si2 0.792414 0.852926 0.275599
Si Si3 0.575370 0.624595 0.500403
Si Si4 0.745106 0.995701 0.610487
Si Si5 0.398875 0.425395 0.101459
Si Si6 0.073628 0.923385 0.290256
O O1 0.845688 0.696396 0.660861
O O2 0.981734 0.800861 0.576777
O O3 0.966565 0.636389 0.486815
O O4 0.036798 0.659189 0.710412
O O5 0.854338 0.827202 0.397471
O O6 0.811336 0.951784 0.228560
O O7 0.676120 0.860984 0.321755
O O8 0.658729 0.567346 0.573074
O O9 0.496063 0.573724 0.413463
O O10 0.669467 0.985960 0.493298
O O11 0.807854 0.077273 0.662517
O O12 0.444515 0.493356 0.199998
#
# Coordination Sequence:
#
# PCOD9430451 Si02
#       6
#     8   8   8   8   8   8
#     4  10  20  32  50  79 112 140 171 218 271 318
#     4   8  18  31  48  75 104 136 174 207 256 310
#     4  10  20  32  50  79 112 140 171 218 271 318
#     4   9  18  34  56  78 103 140 180 220 261 312
#     4   9  18  34  56  78 103 140 180 220 261 312
#     4  10  20  34  52  76 106 139 180 218 264 320
#
# _framework density 22.336689
#
# number of rings (size 3 to 8) (size 9 to 14) (size 15 to 20)
#    0.000    2.667    0.000    1.000    0.000   12.667 
#    0.000    0.000    0.000    3.000    0.000    0.000 
#    0.000    0.000    0.000    0.000    0.000    0.000 
#
# Total GULP energy -267296.598441 kJ/mol
# GULP energy per Si atom -5568.679134 kJ/mol
# Density = 2.228585 g / cm^3
# Si number density = 22.336689 Si / 1000 Ang^3
#
#
#
# Elastic Constant Matrix: (Units=GPa)
#
#
# Indices 1 2 3 4 5 6 
#
# 1 46.0187 31.8889 10.5501 0.0000 0.0000 0.0000
# 2 31.8889 68.0942 28.0018 0.0000 0.0000 0.0000
# 3 10.5501 28.0018 81.8897 0.0000 0.0000 0.0000
# 4 0.0000 0.0000 0.0000 31.0921 0.0000 0.0000
# 5 0.0000 0.0000 0.0000 0.0000 44.7586 0.0000
# 6 0.0000 0.0000 0.0000 0.0000 0.0000 26.5306
#
#
#
# Elastic Compliance Matrix: (Units=1/GPa)
#
#
# Indices 1 2 3 4 5 6 
#
# 1 0.032267 -0.015594 0.001175 0.000000 0.000000 0.000000
# 2 -0.015594 0.024625 -0.006411 0.000000 0.000000 0.000000
# 3 0.001175 -0.006411 0.014252 0.000000 0.000000 0.000000
# 4 0.000000 0.000000 0.000000 0.032163 0.000000 0.000000
# 5 0.000000 0.000000 0.000000 0.000000 0.022342 0.000000
# 6 0.000000 0.000000 0.000000 0.000000 0.000000 0.037692
#
#
# Mechanical properties :
#
#
# Convention : Reuss Voigt Hill
#
# Bulk Modulus (GPa) = 33.91682 37.43159 35.67420
# Shear Modulus (GPa) = 23.27435 28.84706 26.06070
#
# Velocity S-wave (km/s) = 3.23147 3.59759 3.41944
# Velocity P-wave (km/s) = 5.39820 5.83534 5.62102
#
# Compressibility (1/GPa) = 0.02948390
#
# Stress axis : x y z
#
# Youngs Moduli (GPa) = 30.99165 40.60957 70.16344
#
# Poissons Ratio (x) = 0.63326 -0.08246
# Poissons Ratio (y) = 0.48328 0.44984
# Poissons Ratio (z) = -0.03642 0.26036
#
# Static dielectric constant tensor:
#      x y z
#    x 1.892400 0.000000 0.000000 
#    y 0.000000 1.884160 0.000000 
#    z 0.000000 0.000000 1.874090 
# 
# From -- ./inp_files/7811.got.cif
#   From: 2010.05.17/outbox.cif.g08.bks.cpg/sg56_4_cif.got.tgz:7811.got - 2010.06.03 13:42:01.
