data_PCOD9430704
_publ_section_title
;
Structure prediction by ZEFSAII (Michael W. Deem and Ramdas Pophale) SiO2 
 PCOD9430704
Probable space group: P C C N
;
_chemical_formula_sum "Si O2"
_cell_formula_units_Z 48
_cell_length_a 14.362658
_cell_length_b 8.986088
_cell_length_c 18.520665
_cell_angle_alpha 90.000000
_cell_angle_beta 90.000000
_cell_angle_gamma 90.000000
_cell_volume 2390.353121
_symmetry_space_group_name_H-M "P C C N"
_symmetry_group_IT_number 56
_symmetry_cell_setting 'orthorhombic'
loop_
_space_group_symop_operation_xyz
x,y,z
1/2-x,1/2-y,z
1/2+x,-y,1/2-z
-x,1/2+y,1/2-z
-x,-y,-z
1/2+x,1/2+y,-z
1/2-x,y,1/2+z
x,1/2-y,1/2+z
loop_
_atom_site_type_symbol
_atom_site_label
_atom_site_fract_x
_atom_site_fract_y
_atom_site_fract_z
Si Si1 0.012560 0.727888 0.704835
Si Si2 0.018928 0.417382 0.659514
Si Si3 0.271665 0.075220 0.664579
Si Si4 0.065785 0.655718 0.927331
Si Si5 0.899847 0.430443 0.917071
Si Si6 0.685276 0.109945 0.202240
O O1 0.968769 0.572204 0.679446
O O2 0.043847 0.827057 0.638309
O O3 0.105241 0.674845 0.745938
O O4 0.962789 0.824634 0.766215
O O5 0.123931 0.448676 0.633043
O O6 0.957797 0.316340 0.606688
O O7 0.250000 0.250000 0.661974
O O8 0.195660 0.983599 0.619081
O O9 0.267700 0.013533 0.747125
O O10 0.132980 0.568455 0.871464
O O11 0.966158 0.573097 0.929652
O O12 0.109258 0.651798 0.006496
O O13 0.750000 0.250000 0.185379
#
# Coordination Sequence:
#
# PCOD9430704 Si02
#       6
#     8   8   8   8   8   8
#     4  10  20  36  64  87 122 155 209 249 309 361
#     4  10  21  37  62  94 117 156 210 257 296 376
#     4  11  21  35  64  89 116 160 211 248 302 360
#     4  10  23  40  60  87 125 162 202 246 320 365
#     4  11  21  40  61  86 128 167 193 258 312 365
#     4  10  20  39  58  88 118 152 203 257 296 363
#
# _framework density 20.080715000000001
#
# number of rings (size 3 to 8) (size 9 to 14) (size 15 to 20)
#    0.000    1.667    3.333    3.000    0.000    0.667 
#    6.000    0.833    3.667    0.000    0.000    0.000 
#    0.000    0.000    0.000    0.000    0.000    0.000 
#
# Total GULP energy -267839.591837 kJ/mol
# GULP energy per Si atom -5579.991497 kJ/mol
# Density = 2.003501 g / cm^3
# Si number density = 20.080715 Si / 1000 Ang^3
#
#
#
# Elastic Constant Matrix: (Units=GPa)
#
#
# Indices 1 2 3 4 5 6 
#
# 1 53.0096 20.6522 45.7409 0.0000 0.0000 0.0000
# 2 20.6522 95.9277 31.4384 0.0000 0.0000 0.0000
# 3 45.7409 31.4384 124.3074 0.0000 0.0000 0.0000
# 4 0.0000 0.0000 0.0000 18.1071 0.0000 0.0000
# 5 0.0000 0.0000 0.0000 0.0000 19.4995 0.0000
# 6 0.0000 0.0000 0.0000 0.0000 0.0000 19.0369
#
#
#
# Elastic Compliance Matrix: (Units=1/GPa)
#
#
# Indices 1 2 3 4 5 6 
#
# 1 0.028376 -0.002930 -0.009701 0.000000 0.000000 0.000000
# 2 -0.002930 0.011669 -0.001873 0.000000 0.000000 0.000000
# 3 -0.009701 -0.001873 0.012088 0.000000 0.000000 0.000000
# 4 0.000000 0.000000 0.000000 0.055227 0.000000 0.000000
# 5 0.000000 0.000000 0.000000 0.000000 0.051283 0.000000
# 6 0.000000 0.000000 0.000000 0.000000 0.000000 0.052530
#
#
# Mechanical properties :
#
#
# Convention : Reuss Voigt Hill
#
# Bulk Modulus (GPa) = 43.24114 52.10084 47.67099
# Shear Modulus (GPa) = 20.17029 23.02290 21.59660
#
# Velocity S-wave (km/s) = 3.17276 3.38970 3.28302
# Velocity P-wave (km/s) = 5.91627 6.42823 6.17756
#
# Compressibility (1/GPa) = 0.02312612
#
# Stress axis : x y z
#
# Youngs Moduli (GPa) = 35.24056 85.69578 82.72831
#
# Poissons Ratio (x) = 0.25109 0.80251
# Poissons Ratio (y) = 0.10325 0.15496
# Poissons Ratio (z) = 0.34185 0.16052
#
# Static dielectric constant tensor:
#      x y z
#    x 1.753730 0.000000 0.000000 
#    y 0.000000 1.781480 0.000000 
#    z 0.000000 0.000000 1.719070 
# 
# From -- ./inp_files/14809.got.cif
#   From: 2010.05.17/outbox.cif.g08.bks.cpg/sg56_8_cif.got.tgz:14809.got - 2010.06.03 13:42:01.
