data_PCOD9430698
_publ_section_title
;
Structure prediction by ZEFSAII (Michael W. Deem and Ramdas Pophale) SiO2 
 PCOD9430698
Probable space group: P C C N
;
_chemical_formula_sum "Si O2"
_cell_formula_units_Z 64
_cell_length_a 7.825812
_cell_length_b 17.986795
_cell_length_c 21.297877
_cell_angle_alpha 90.000000
_cell_angle_beta 90.000000
_cell_angle_gamma 90.000000
_cell_volume 2997.916346
_symmetry_space_group_name_H-M "P C C N"
_symmetry_group_IT_number 56
_symmetry_cell_setting 'orthorhombic'
loop_
_space_group_symop_operation_xyz
x,y,z
1/2-x,1/2-y,z
1/2+x,-y,1/2-z
-x,1/2+y,1/2-z
-x,-y,-z
1/2+x,1/2+y,-z
1/2-x,y,1/2+z
x,1/2-y,1/2+z
loop_
_atom_site_type_symbol
_atom_site_label
_atom_site_fract_x
_atom_site_fract_y
_atom_site_fract_z
Si Si1 0.747728 0.430535 0.714157
Si Si2 0.412272 0.606658 0.532764
Si Si3 0.702597 0.664036 0.605435
Si Si4 0.085195 0.697564 0.724050
Si Si5 0.066852 0.538208 0.904668
Si Si6 0.448082 0.908553 0.603112
Si Si7 0.718252 0.957898 0.328228
Si Si8 0.091990 0.155222 0.254496
O O1 0.612796 0.363793 0.722884
O O2 0.723475 0.458241 0.643641
O O3 0.718834 0.496951 0.762673
O O4 0.918524 0.391094 0.739465
O O5 0.528553 0.669141 0.564352
O O6 0.529199 0.537770 0.558080
O O7 0.413723 0.600627 0.457932
O O8 0.218219 0.604534 0.558707
O O9 0.750000 0.750000 0.612344
O O10 0.658710 0.634693 0.675871
O O11 0.862977 0.615007 0.578656
O O12 0.250000 0.750000 0.715561
O O13 0.065926 0.648299 0.661876
O O14 0.942858 0.757204 0.741403
O O15 0.896860 0.540416 0.863161
O O16 0.413410 0.992537 0.629638
O O17 0.693675 0.873649 0.305633
#
# Coordination Sequence:
#
# PCOD9430698 Si02
#       8
#     8   8   8   8   8   8   8   8
#     4  10  20  36  63  88 127 168 205 255 328 401
#     4  10  23  45  64  90 131 171 224 273 315 382
#     4  12  24  39  68  99 125 172 228 281 322 390
#     4   9  18  35  57  86 123 162 202 255 328 389
#     4  10  22  43  66  91 129 174 211 268 329 387
#     4  10  22  40  64  92 128 174 218 271 330 386
#     4  10  21  35  60  99 129 162 206 271 331 395
#     4  11  22  35  58  98 130 156 206 274 330 390
#
# _framework density 21.348161000000001
#
# number of rings (size 3 to 8) (size 9 to 14) (size 15 to 20)
#    0.000    1.750    1.250    4.500    7.000    0.000 
#    2.250    3.125    5.500    0.000    0.000    0.000 
#    0.000    0.000    0.000    0.000    0.000    0.000 
#
# Total GULP energy -356641.381649 kJ/mol
# GULP energy per Si atom -5572.521588 kJ/mol
# Density = 2.129957 g / cm^3
# Si number density = 21.348161 Si / 1000 Ang^3
#
#
#
# Elastic Constant Matrix: (Units=GPa)
#
#
# Indices 1 2 3 4 5 6 
#
# 1 140.5508 29.2452 48.4714 0.0000 0.0000 0.0000
# 2 29.2452 66.9813 27.2880 0.0000 0.0000 0.0000
# 3 48.4714 27.2880 78.4361 0.0000 0.0000 0.0000
# 4 0.0000 0.0000 0.0000 19.9611 0.0000 0.0000
# 5 0.0000 0.0000 0.0000 0.0000 3.2547 0.0000
# 6 0.0000 0.0000 0.0000 0.0000 0.0000 31.7646
#
#
#
# Elastic Compliance Matrix: (Units=1/GPa)
#
#
# Indices 1 2 3 4 5 6 
#
# 1 0.009265 -0.001996 -0.005031 0.000000 0.000000 0.000000
# 2 -0.001996 0.017825 -0.004968 0.000000 0.000000 0.000000
# 3 -0.005031 -0.004968 0.017587 0.000000 0.000000 0.000000
# 4 0.000000 0.000000 0.000000 0.050098 0.000000 0.000000
# 5 0.000000 0.000000 0.000000 0.000000 0.307244 0.000000
# 6 0.000000 0.000000 0.000000 0.000000 0.000000 0.031482
#
#
# Mechanical properties :
#
#
# Convention : Reuss Voigt Hill
#
# Bulk Modulus (GPa) = 48.33986 55.10861 51.72423
# Shear Modulus (GPa) = 10.76692 23.06033 16.91363
#
# Velocity S-wave (km/s) = 2.24821 3.29021 2.81779
# Velocity P-wave (km/s) = 5.42512 6.34856 5.90492
#
# Compressibility (1/GPa) = 0.02068686
#
# Stress axis : x y z
#
# Youngs Moduli (GPa) = 107.92996 56.10157 56.86053
#
# Poissons Ratio (x) = 0.11196 0.28609
# Poissons Ratio (y) = 0.21538 0.28249
# Poissons Ratio (z) = 0.54304 0.27872
#
# Static dielectric constant tensor:
#      x y z
#    x 2.239420 0.000000 0.000000 
#    y 0.000000 1.836690 0.000000 
#    z 0.000000 0.000000 1.788500 
# 
# From -- ./inp_files/18368.got.cif
#   From: 2010.05.17/outbox.cif.g08.bks.cpg/sg56_10_cif.got.tgz:18368.got - 2010.06.03 13:42:01.
