data_PCOD9430958
_publ_section_title
;
Structure prediction by ZEFSAII (Michael W. Deem and Ramdas Pophale) SiO2 
 PCOD9430958
Probable space group: P C C N
;
_chemical_formula_sum "Si O2"
_cell_formula_units_Z 40
_cell_length_a 5.122285
_cell_length_b 27.910202
_cell_length_c 13.952894
_cell_angle_alpha 90.000000
_cell_angle_beta 90.000000
_cell_angle_gamma 90.000000
_cell_volume 1994.761664
_symmetry_space_group_name_H-M "P C C N"
_symmetry_group_IT_number 56
_symmetry_cell_setting 'orthorhombic'
loop_
_space_group_symop_operation_xyz
x,y,z
1/2-x,1/2-y,z
1/2+x,-y,1/2-z
-x,1/2+y,1/2-z
-x,-y,-z
1/2+x,1/2+y,-z
1/2-x,y,1/2+z
x,1/2-y,1/2+z
loop_
_atom_site_type_symbol
_atom_site_label
_atom_site_fract_x
_atom_site_fract_y
_atom_site_fract_z
Si Si1 0.688878 0.658877 0.723077
Si Si2 0.750000 0.750000 0.848646
Si Si3 0.791430 0.194945 0.864887
Si Si4 0.990827 0.988586 0.385911
Si Si5 0.250000 0.750000 0.459553
Si Si6 0.495883 0.558165 0.794270
O O1 0.651469 0.705111 0.788907
O O2 0.482994 0.668110 0.638021
O O3 0.592160 0.612112 0.777620
O O4 0.985820 0.664201 0.686697
O O5 0.498061 0.768754 0.904204
O O6 0.750000 0.250000 0.825471
O O7 0.865490 0.208163 0.972951
O O8 0.218797 0.953011 0.345454
O O9 0.710905 0.966445 0.361421
O O10 0.008091 0.033753 0.312021
O O11 0.000000 0.000000 0.500000
#
# Coordination Sequence:
#
# PCOD9430958 Si02
#       6
#     8   4   8   8   4   8
#     4  12  21  39  62  87 120 168 207 246 319 373
#     4  12  20  36  56  82 128 158 194 266 296 356
#     4  10  20  39  56  76 119 167 199 238 299 363
#     4  10  21  45  67  91 129 164 202 270 333 377
#     4  10  22  36  54  82 116 170 208 250 296 354
#     4  10  23  40  67  96 125 160 214 262 314 395
#
# _framework density 20.052523000000001
#
# number of rings (size 3 to 8) (size 9 to 14) (size 15 to 20)
#    0.600    0.800    2.000    4.200    0.000    0.000 
#   10.800    0.000    0.000    0.000    0.000    0.000 
#    0.000    0.000    0.000    0.000    0.000    0.000 
#
# Total GULP energy -222715.161442 kJ/mol
# GULP energy per Si atom -5567.879036 kJ/mol
# Density = 2.000688 g / cm^3
# Si number density = 20.052523 Si / 1000 Ang^3
#
#
#
# Elastic Constant Matrix: (Units=GPa)
#
#
# Indices 1 2 3 4 5 6 
#
# 1 97.4870 -4.0954 13.9723 0.0000 0.0000 0.0000
# 2 -4.0954 71.5335 5.9959 0.0000 0.0000 0.0000
# 3 13.9723 5.9959 86.6353 0.0000 0.0000 0.0000
# 4 0.0000 0.0000 0.0000 24.9371 0.0000 0.0000
# 5 0.0000 0.0000 0.0000 0.0000 30.6862 0.0000
# 6 0.0000 0.0000 0.0000 0.0000 0.0000 24.2069
#
#
#
# Elastic Compliance Matrix: (Units=1/GPa)
#
#
# Indices 1 2 3 4 5 6 
#
# 1 0.010540 0.000750 -0.001752 0.000000 0.000000 0.000000
# 2 0.000750 0.014114 -0.001098 0.000000 0.000000 0.000000
# 3 -0.001752 -0.001098 0.011901 0.000000 0.000000 0.000000
# 4 0.000000 0.000000 0.000000 0.040101 0.000000 0.000000
# 5 0.000000 0.000000 0.000000 0.000000 0.032588 0.000000
# 6 0.000000 0.000000 0.000000 0.000000 0.000000 0.041311
#
#
# Mechanical properties :
#
#
# Convention : Reuss Voigt Hill
#
# Bulk Modulus (GPa) = 30.90505 31.93349 31.41927
# Shear Modulus (GPa) = 30.20421 31.95159 31.07790
#
# Velocity S-wave (km/s) = 3.88526 3.99607 3.94105
# Velocity P-wave (km/s) = 5.96427 6.10335 6.03421
#
# Compressibility (1/GPa) = 0.03235717
#
# Stress axis : x y z
#
# Youngs Moduli (GPa) = 94.87321 70.84940 84.02551
#
# Poissons Ratio (x) = -0.05316 0.14720
# Poissons Ratio (y) = -0.07118 0.09225
# Poissons Ratio (z) = 0.16620 0.07778
#
# Static dielectric constant tensor:
#      x y z
#    x 1.708640 0.000000 0.000000 
#    y 0.000000 1.715300 0.000000 
#    z 0.000000 0.000000 1.738860 
# 
# From -- ./inp_files/5662.got.cif
#   From: 2010.05.17/outbox.cif.g08.bks.cpg/sg56_3_cif.got.tgz:5662.got - 2010.06.03 13:42:01.
