data_PCOD9430777
_publ_section_title
;
Structure prediction by ZEFSAII (Michael W. Deem and Ramdas Pophale) SiO2 
 PCOD9430777
Probable space group: P C C N
;
_chemical_formula_sum "Si O2"
_cell_formula_units_Z 64
_cell_length_a 11.791310
_cell_length_b 9.108641
_cell_length_c 26.640200
_cell_angle_alpha 90.000000
_cell_angle_beta 90.000000
_cell_angle_gamma 90.000000
_cell_volume 2861.232331
_symmetry_space_group_name_H-M "P C C N"
_symmetry_group_IT_number 56
_symmetry_cell_setting 'orthorhombic'
loop_
_space_group_symop_operation_xyz
x,y,z
1/2-x,1/2-y,z
1/2+x,-y,1/2-z
-x,1/2+y,1/2-z
-x,-y,-z
1/2+x,1/2+y,-z
1/2-x,y,1/2+z
x,1/2-y,1/2+z
loop_
_atom_site_type_symbol
_atom_site_label
_atom_site_fract_x
_atom_site_fract_y
_atom_site_fract_z
Si Si1 0.795556 0.584494 0.762557
Si Si2 0.960204 0.280929 0.112067
Si Si3 0.879569 0.987172 0.681922
Si Si4 0.527056 0.674692 0.178578
Si Si5 0.306556 0.598649 0.479124
Si Si6 0.329904 0.023507 0.394719
Si Si7 0.718087 0.083462 0.353556
Si Si8 0.685778 0.885462 0.936980
O O1 0.750000 0.750000 0.773223
O O2 0.696696 0.504579 0.730915
O O3 0.901840 0.601607 0.724507
O O4 0.801445 0.490735 0.812822
O O5 0.940540 0.366748 0.163907
O O6 0.889600 0.351958 0.065648
O O7 0.904659 0.121332 0.117876
O O8 0.088615 0.308721 0.096097
O O9 0.962458 0.848691 0.687044
O O10 0.783241 0.963183 0.638946
O O11 0.592341 0.653169 0.125329
O O12 0.406406 0.600318 0.170396
O O13 0.250000 0.750000 0.498200
O O14 0.210244 0.500087 0.451431
O O15 0.360087 0.501331 0.522585
O O16 0.750000 0.250000 0.366492
O O17 0.730107 0.979825 0.401791
O O18 0.750000 0.750000 0.962215
#
# Coordination Sequence:
#
# PCOD9430777 Si02
#       8
#     8   8   8   8   8   8   8   8
#     4   9  21  40  61  87 117 151 196 247 293 347
#     4  10  20  37  62  88 119 155 194 245 302 349
#     4   9  18  36  63  91 116 149 195 246 295 349
#     4  10  21  39  62  89 122 154 192 244 300 350
#     4   9  20  39  61  86 116 150 197 249 292 351
#     4   9  18  36  63  92 116 147 195 248 295 351
#     4  12  26  41  58  86 121 159 200 241 293 359
#     4  12  25  40  56  83 122 161 198 240 296 356
#
# _framework density 22.367985000000001
#
# number of rings (size 3 to 8) (size 9 to 14) (size 15 to 20)
#    0.000    2.000    0.000    4.875    0.000    7.000 
#    0.000    8.125    0.000    0.000    0.000    0.000 
#    0.000    0.000    0.000    0.000    0.000    0.000 
#
# Total GULP energy -357145.664098 kJ/mol
# GULP energy per Si atom -5580.401002 kJ/mol
# Density = 2.231707 g / cm^3
# Si number density = 22.367985 Si / 1000 Ang^3
#
#
#
# Elastic Constant Matrix: (Units=GPa)
#
#
# Indices 1 2 3 4 5 6 
#
# 1 66.5809 8.4094 -8.7600 0.0000 0.0000 0.0000
# 2 8.4094 69.8903 33.9144 0.0000 0.0000 0.0000
# 3 -8.7600 33.9144 49.7425 0.0000 0.0000 0.0000
# 4 0.0000 0.0000 0.0000 18.0082 0.0000 0.0000
# 5 0.0000 0.0000 0.0000 0.0000 17.0179 0.0000
# 6 0.0000 0.0000 0.0000 0.0000 0.0000 24.2705
#
#
#
# Elastic Compliance Matrix: (Units=1/GPa)
#
#
# Indices 1 2 3 4 5 6 
#
# 1 0.016497 -0.005073 0.006364 0.000000 0.000000 0.000000
# 2 -0.005073 0.022943 -0.016536 0.000000 0.000000 0.000000
# 3 0.006364 -0.016536 0.032498 0.000000 0.000000 0.000000
# 4 0.000000 0.000000 0.000000 0.055530 0.000000 0.000000
# 5 0.000000 0.000000 0.000000 0.000000 0.058762 0.000000
# 6 0.000000 0.000000 0.000000 0.000000 0.000000 0.041202
#
#
# Mechanical properties :
#
#
# Convention : Reuss Voigt Hill
#
# Bulk Modulus (GPa) = 24.12606 28.14904 26.13755
# Shear Modulus (GPa) = 18.40007 22.03598 20.21803
#
# Velocity S-wave (km/s) = 2.87123 3.14213 3.00973
# Velocity P-wave (km/s) = 4.66919 5.07699 4.87735
#
# Compressibility (1/GPa) = 0.04144896
#
# Stress axis : x y z
#
# Youngs Moduli (GPa) = 60.61547 43.58718 30.77085
#
# Poissons Ratio (x) = 0.22113 -0.19583
# Poissons Ratio (y) = 0.30752 0.50882
# Poissons Ratio (z) = -0.38577 0.72074
#
# Static dielectric constant tensor:
#      x y z
#    x 1.873390 0.000000 0.000000 
#    y 0.000000 1.793980 0.000000 
#    z 0.000000 0.000000 1.813670 
# 
# From -- ./inp_files/23545.got.cif
#   From: 2010.05.17/outbox.cif.g08.bks.cpg/sg56_12_cif.got.tgz:23545.got - 2010.06.03 13:42:01.
