data_PCOD9430005
_publ_section_title
;
Structure prediction by ZEFSAII (Michael W. Deem and Ramdas Pophale) SiO2 
 PCOD9430005
Probable space group: P C C N
;
_chemical_formula_sum "Si O2"
_cell_formula_units_Z 52
_cell_length_a 5.737812
_cell_length_b 20.264224
_cell_length_c 21.094146
_cell_angle_alpha 90.000000
_cell_angle_beta 90.000000
_cell_angle_gamma 90.000000
_cell_volume 2452.665033
_symmetry_space_group_name_H-M "P C C N"
_symmetry_group_IT_number 56
_symmetry_cell_setting 'orthorhombic'
loop_
_space_group_symop_operation_xyz
x,y,z
1/2-x,1/2-y,z
1/2+x,-y,1/2-z
-x,1/2+y,1/2-z
-x,-y,-z
1/2+x,1/2+y,-z
1/2-x,y,1/2+z
x,1/2-y,1/2+z
loop_
_atom_site_type_symbol
_atom_site_label
_atom_site_fract_x
_atom_site_fract_y
_atom_site_fract_z
Si Si1 0.774548 0.389241 0.420677
Si Si2 0.817817 0.015841 0.718695
Si Si3 0.256656 0.044219 0.544295
Si Si4 0.218668 0.417689 0.896769
Si Si5 0.613751 0.159197 0.550898
Si Si6 0.250000 0.250000 0.605445
Si Si7 0.013823 0.631063 0.855017
O O1 0.784337 0.468031 0.438077
O O2 0.528742 0.381154 0.385009
O O3 0.758973 0.345692 0.484099
O O4 0.034717 0.378798 0.392482
O O5 0.899427 0.090357 0.704470
O O6 0.561679 0.013795 0.752084
O O7 0.771673 0.976232 0.653806
O O8 0.200547 0.056252 0.470100
O O9 0.485315 0.088337 0.555893
O O10 0.076485 0.078384 0.592338
O O11 0.434262 0.218141 0.557163
O O12 0.773207 0.166060 0.611298
O O13 0.325133 0.311425 0.649111
#
# Coordination Sequence:
#
# PCOD9430005 Si02
#       7
#     8   8   8   8   8   4   8
#     4  11  19  31  57  91 121 163 188 239 309 387
#     4  12  27  41  60  91 131 171 216 280 330 378
#     4  10  19  31  59  94 120 166 188 248 313 398
#     4  11  20  35  55  87 125 159 202 236 320 382
#     4  10  20  34  56  91 128 157 203 243 315 386
#     4  10  24  36  60  92 126 178 204 264 318 388
#     4  11  21  40  62  89 135 161 218 257 329 397
#
# _framework density 21.201426999999999
#
# number of rings (size 3 to 8) (size 9 to 14) (size 15 to 20)
#    0.000    1.231    3.077    5.538    4.308    0.000 
#    0.000    0.000    0.000    0.000    0.000   23.692 
#    0.000    0.000    0.000    0.000    0.000    0.000 
#
# Total GULP energy -289862.705392 kJ/mol
# GULP energy per Si atom -5574.282796 kJ/mol
# Density = 2.115317 g / cm^3
# Si number density = 21.201427 Si / 1000 Ang^3
#
#
#
# Elastic Constant Matrix: (Units=GPa)
#
#
# Indices 1 2 3 4 5 6 
#
# 1 121.3793 9.3860 17.7070 0.0000 0.0000 0.0000
# 2 9.3860 60.3027 10.5804 0.0000 0.0000 0.0000
# 3 17.7070 10.5804 28.8150 0.0000 0.0000 0.0000
# 4 0.0000 0.0000 0.0000 4.8972 0.0000 0.0000
# 5 0.0000 0.0000 0.0000 0.0000 24.7141 0.0000
# 6 0.0000 0.0000 0.0000 0.0000 0.0000 31.9316
#
#
#
# Elastic Compliance Matrix: (Units=1/GPa)
#
#
# Indices 1 2 3 4 5 6 
#
# 1 0.009062 -0.000463 -0.005399 0.000000 0.000000 0.000000
# 2 -0.000463 0.017749 -0.006232 0.000000 0.000000 0.000000
# 3 -0.005399 -0.006232 0.040310 0.000000 0.000000 0.000000
# 4 0.000000 0.000000 0.000000 0.204199 0.000000 0.000000
# 5 0.000000 0.000000 0.000000 0.000000 0.040463 0.000000
# 6 0.000000 0.000000 0.000000 0.000000 0.000000 0.031317
#
#
# Mechanical properties :
#
#
# Convention : Reuss Voigt Hill
#
# Bulk Modulus (GPa) = 23.29246 31.76042 27.52644
# Shear Modulus (GPa) = 13.10279 23.83016 18.46647
#
# Velocity S-wave (km/s) = 2.48869 3.35623 2.95448
# Velocity P-wave (km/s) = 4.38956 5.48014 4.96488
#
# Compressibility (1/GPa) = 0.04293234
#
# Stress axis : x y z
#
# Youngs Moduli (GPa) = 110.35074 56.34243 24.80774
#
# Poissons Ratio (x) = 0.02610 0.13393
# Poissons Ratio (y) = 0.05112 0.15461
# Poissons Ratio (z) = 0.59574 0.35114
#
# Static dielectric constant tensor:
#      x y z
#    x 1.988070 0.000000 0.000000 
#    y 0.000000 1.770500 0.000000 
#    z 0.000000 0.000000 1.755690 
# 
# From -- ./inp_files/17568.got.cif
#   From: 2010.05.17/outbox.cif.g08.bks.cpg/sg56_9_cif.got.tgz:17568.got - 2010.06.03 13:42:01.
