data_PCOD9430778
_publ_section_title
;
Structure prediction by ZEFSAII (Michael W. Deem and Ramdas Pophale) SiO2 
 PCOD9430778
Probable space group: P C C N
;
_chemical_formula_sum "Si O2"
_cell_formula_units_Z 24
_cell_length_a 6.864141
_cell_length_b 14.411325
_cell_length_c 8.581905
_cell_angle_alpha 90.000000
_cell_angle_beta 90.000000
_cell_angle_gamma 90.000000
_cell_volume 848.933772
_symmetry_space_group_name_H-M "P C C N"
_symmetry_group_IT_number 56
_symmetry_cell_setting 'orthorhombic'
loop_
_space_group_symop_operation_xyz
x,y,z
1/2-x,1/2-y,z
1/2+x,-y,1/2-z
-x,1/2+y,1/2-z
-x,-y,-z
1/2+x,1/2+y,-z
1/2-x,y,1/2+z
x,1/2-y,1/2+z
loop_
_atom_site_type_symbol
_atom_site_label
_atom_site_fract_x
_atom_site_fract_y
_atom_site_fract_z
Si Si1 0.370337 0.544311 0.362626
Si Si2 0.030476 0.717118 0.656502
Si Si3 0.057224 0.112274 0.132513
O O1 0.500000 0.500000 0.500000
O O2 0.452435 0.639781 0.291974
O O3 0.341866 0.472477 0.220200
O O4 0.153648 0.570289 0.413246
O O5 0.250000 0.750000 0.601946
O O6 0.900518 0.669566 0.523258
O O7 0.954497 0.809756 0.735316
#
# Coordination Sequence:
#
# PCOD9430778 Si02
#       3
#     8   8   8
#     4  11  22  37  61  93 125 161 203 252 305 363
#     4  10  20  37  62  88 119 161 204 242 295 369
#     4  11  22  40  65  93 123 160 206 254 303 362
#
# _framework density 28.270755999999999
#
# number of rings (size 3 to 8) (size 9 to 14) (size 15 to 20)
#    0.000    1.333    0.000   10.000    0.000    0.000 
#    0.000    1.667    0.000   24.000    0.000    0.000 
#    0.000    0.000    0.000    0.000    0.000    0.000 
#
# Total GULP energy -134695.681979 kJ/mol
# GULP energy per Si atom -5612.320082 kJ/mol
# Density = 2.820641 g / cm^3
# Si number density = 28.270756 Si / 1000 Ang^3
#
#
#
# Elastic Constant Matrix: (Units=GPa)
#
#
# Indices 1 2 3 4 5 6 
#
# 1 93.2170 45.0479 57.3685 0.0000 0.0000 0.0000
# 2 45.0479 204.9540 73.5634 0.0000 0.0000 0.0000
# 3 57.3685 73.5634 172.7590 0.0000 0.0000 0.0000
# 4 0.0000 0.0000 0.0000 88.4805 0.0000 0.0000
# 5 0.0000 0.0000 0.0000 0.0000 51.8267 0.0000
# 6 0.0000 0.0000 0.0000 0.0000 0.0000 51.0245
#
#
#
# Elastic Compliance Matrix: (Units=1/GPa)
#
#
# Indices 1 2 3 4 5 6 
#
# 1 0.013944 -0.001656 -0.003925 0.000000 0.000000 0.000000
# 2 -0.001656 0.005956 -0.001986 0.000000 0.000000 0.000000
# 3 -0.003925 -0.001986 0.007938 0.000000 0.000000 0.000000
# 4 0.000000 0.000000 0.000000 0.011302 0.000000 0.000000
# 5 0.000000 0.000000 0.000000 0.000000 0.019295 0.000000
# 6 0.000000 0.000000 0.000000 0.000000 0.000000 0.019598
#
#
# Mechanical properties :
#
#
# Convention : Reuss Voigt Hill
#
# Bulk Modulus (GPa) = 78.72449 91.43220 85.07834
# Shear Modulus (GPa) = 51.33392 57.92969 54.63180
#
# Velocity S-wave (km/s) = 4.26584 4.53161 4.40073
# Velocity P-wave (km/s) = 7.22290 7.73256 7.48207
#
# Compressibility (1/GPa) = 0.01270253
#
# Stress axis : x y z
#
# Youngs Moduli (GPa) = 71.71785 167.89695 125.98194
#
# Poissons Ratio (x) = 0.27802 0.49450
# Poissons Ratio (y) = 0.11876 0.25024
# Poissons Ratio (z) = 0.28150 0.33349
#
# Static dielectric constant tensor:
#      x y z
#    x 2.333180 0.000000 0.000000 
#    y 0.000000 2.081690 0.000000 
#    z 0.000000 0.000000 2.180090 
# 
# From -- ./inp_files/1750.got.cif
#   From: 2010.05.17/outbox.cif.g08.bks.cpg/sg56_1_cif.got.tgz:1750.got - 2010.06.03 13:42:01.
