data_PCOD9430750
_publ_section_title
;
Structure prediction by ZEFSAII (Michael W. Deem and Ramdas Pophale) SiO2 
 PCOD9430750
Probable space group: P C C N
;
_chemical_formula_sum "Si O2"
_cell_formula_units_Z 64
_cell_length_a 24.075611
_cell_length_b 8.257069
_cell_length_c 14.714188
_cell_angle_alpha 90.000000
_cell_angle_beta 90.000000
_cell_angle_gamma 90.000000
_cell_volume 2925.092013
_symmetry_space_group_name_H-M "P C C N"
_symmetry_group_IT_number 56
_symmetry_cell_setting 'orthorhombic'
loop_
_space_group_symop_operation_xyz
x,y,z
1/2-x,1/2-y,z
1/2+x,-y,1/2-z
-x,1/2+y,1/2-z
-x,-y,-z
1/2+x,1/2+y,-z
1/2-x,y,1/2+z
x,1/2-y,1/2+z
loop_
_atom_site_type_symbol
_atom_site_label
_atom_site_fract_x
_atom_site_fract_y
_atom_site_fract_z
Si Si1 0.547782 0.594378 0.140349
Si Si2 0.221325 0.423186 0.015771
Si Si3 0.386080 0.238616 0.512757
Si Si4 0.676804 0.098694 0.454101
Si Si5 0.922284 0.264999 0.163890
Si Si6 0.566226 0.254764 0.875456
Si Si7 0.034781 0.098003 0.639955
Si Si8 0.800438 0.332393 0.126399
O O1 0.570674 0.413152 0.119726
O O2 0.485293 0.625894 0.102713
O O3 0.547726 0.610223 0.250982
O O4 0.586602 0.722674 0.087066
O O5 0.250000 0.250000 0.017292
O O6 0.157021 0.384729 0.033548
O O7 0.260497 0.542791 0.075807
O O8 0.220331 0.499569 0.915011
O O9 0.433680 0.259274 0.587602
O O10 0.352064 0.072467 0.523771
O O11 0.628307 0.189602 0.399452
O O12 0.688644 0.213484 0.540133
O O13 0.937918 0.240577 0.267626
O O14 0.861125 0.338764 0.166802
O O15 0.969184 0.381566 0.125271
O O16 0.553309 0.071531 0.904212
O O17 0.750000 0.250000 0.180938
#
# Coordination Sequence:
#
# PCOD9430750 Si02
#       8
#     8   8   8   8   8   8   8   8
#     4  10  22  39  60  90 130 166 205 261 316 388
#     4   9  21  38  60  87 119 154 205 264 308 368
#     4  11  21  38  65  89 121 170 208 251 328 374
#     4  10  20  38  63  84 118 158 210 256 305 376
#     4  10  21  40  59  87 128 162 202 263 313 376
#     4  10  22  38  59  91 123 163 206 258 324 370
#     4  10  23  38  58  95 131 160 208 267 315 381
#     4  10  20  37  60  85 112 158 206 253 305 371
#
# _framework density 21.879653999999999
#
# number of rings (size 3 to 8) (size 9 to 14) (size 15 to 20)
#    0.000    2.000    1.250    1.500    3.500    2.500 
#    0.000    4.375    0.000    0.000    0.000    0.000 
#    0.000    0.000    0.000    0.000    0.000    0.000 
#
# Total GULP energy -356433.608837 kJ/mol
# GULP energy per Si atom -5569.275138 kJ/mol
# Density = 2.182985 g / cm^3
# Si number density = 21.879654 Si / 1000 Ang^3
#
#
#
# Elastic Constant Matrix: (Units=GPa)
#
#
# Indices 1 2 3 4 5 6 
#
# 1 149.5326 25.2436 18.7061 0.0000 0.0000 0.0000
# 2 25.2436 47.0513 14.9146 0.0000 0.0000 0.0000
# 3 18.7061 14.9146 41.4746 0.0000 0.0000 0.0000
# 4 0.0000 0.0000 0.0000 16.5557 0.0000 0.0000
# 5 0.0000 0.0000 0.0000 0.0000 67.0958 0.0000
# 6 0.0000 0.0000 0.0000 0.0000 0.0000 33.1183
#
#
#
# Elastic Compliance Matrix: (Units=1/GPa)
#
#
# Indices 1 2 3 4 5 6 
#
# 1 0.007526 -0.003343 -0.002192 0.000000 0.000000 0.000000
# 2 -0.003343 0.025473 -0.007652 0.000000 0.000000 0.000000
# 3 -0.002192 -0.007652 0.027852 0.000000 0.000000 0.000000
# 4 0.000000 0.000000 0.000000 0.060402 0.000000 0.000000
# 5 0.000000 0.000000 0.000000 0.000000 0.014904 0.000000
# 6 0.000000 0.000000 0.000000 0.000000 0.000000 0.030195
#
#
# Mechanical properties :
#
#
# Convention : Reuss Voigt Hill
#
# Bulk Modulus (GPa) = 29.00635 39.53191 34.26913
# Shear Modulus (GPa) = 24.48357 35.30024 29.89190
#
# Velocity S-wave (km/s) = 3.34879 4.02105 3.70022
# Velocity P-wave (km/s) = 5.31399 6.29806 5.82684
#
# Compressibility (1/GPa) = 0.03447521
#
# Stress axis : x y z
#
# Youngs Moduli (GPa) = 132.87095 39.25784 35.90428
#
# Poissons Ratio (x) = 0.13124 0.07871
# Poissons Ratio (y) = 0.44418 0.27476
# Poissons Ratio (z) = 0.29130 0.30042
#
# Static dielectric constant tensor:
#      x y z
#    x 1.907400 0.000000 0.000000 
#    y 0.000000 1.839700 0.000000 
#    z 0.000000 0.000000 1.782530 
# 
# From -- ./inp_files/13291.got.cif
#   From: 2010.05.17/outbox.cif.g08.bks.cpg/sg56_7_cif.got.tgz:13291.got - 2010.06.03 13:42:01.
