data_PCOD9430185
_publ_section_title
;
Structure prediction by ZEFSAII (Michael W. Deem and Ramdas Pophale) SiO2 
 PCOD9430185
Probable space group: P C C N
;
_chemical_formula_sum "Si O2"
_cell_formula_units_Z 64
_cell_length_a 9.807135
_cell_length_b 13.165662
_cell_length_c 22.524386
_cell_angle_alpha 90.000000
_cell_angle_beta 90.000000
_cell_angle_gamma 90.000000
_cell_volume 2908.290711
_symmetry_space_group_name_H-M "P C C N"
_symmetry_group_IT_number 56
_symmetry_cell_setting 'orthorhombic'
loop_
_space_group_symop_operation_xyz
x,y,z
1/2-x,1/2-y,z
1/2+x,-y,1/2-z
-x,1/2+y,1/2-z
-x,-y,-z
1/2+x,1/2+y,-z
1/2-x,y,1/2+z
x,1/2-y,1/2+z
loop_
_atom_site_type_symbol
_atom_site_label
_atom_site_fract_x
_atom_site_fract_y
_atom_site_fract_z
Si Si1 0.112846 0.310797 0.297718
Si Si2 0.975111 0.362464 0.539825
Si Si3 0.010624 0.895583 0.708323
Si Si4 0.422096 0.080182 0.416241
Si Si5 0.609252 0.577989 0.576072
Si Si6 0.764229 0.521585 0.278608
Si Si7 0.468716 0.638997 0.458154
Si Si8 0.751846 0.639835 0.391866
O O1 0.250000 0.250000 0.317285
O O2 0.018364 0.220737 0.273821
O O3 0.045584 0.371032 0.352561
O O4 0.167991 0.391094 0.250373
O O5 0.978027 0.386099 0.469599
O O6 0.913765 0.251919 0.552716
O O7 0.134414 0.353128 0.557736
O O8 0.922969 0.457674 0.577905
O O9 0.963679 0.907727 0.639547
O O10 0.905054 0.969569 0.743139
O O11 0.166225 0.924798 0.720944
O O12 0.265043 0.114519 0.425627
O O13 0.517772 0.631418 0.526181
O O14 0.618479 0.459048 0.557841
O O15 0.790231 0.553650 0.345954
O O16 0.604917 0.622609 0.419375
O O17 0.750000 0.750000 0.360793
#
# Coordination Sequence:
#
# PCOD9430185 Si02
#       8
#     8   8   8   8   8   8   8   8
#     4  10  21  39  64  87 112 161 210 254 293 367
#     4  10  23  35  57  91 124 154 189 251 310 365
#     4  11  23  40  64  89 120 160 209 256 308 359
#     4  11  21  38  60  90 118 155 207 246 301 371
#     4  11  20  37  63  89 118 156 207 251 296 371
#     4  11  23  39  60  89 120 156 207 255 304 363
#     4  10  21  36  60  89 121 155 195 247 306 363
#     4  10  19  35  59  85 114 151 194 239 295 362
#
# _framework density 22.006053000000001
#
# number of rings (size 3 to 8) (size 9 to 14) (size 15 to 20)
#    0.000    1.500    5.000    1.875    1.750    0.500 
#    0.000    0.625    2.750    0.000    0.000    0.000 
#    0.000    0.000    0.000    0.000    0.000    0.000 
#
# Total GULP energy -357346.607925 kJ/mol
# GULP energy per Si atom -5583.540749 kJ/mol
# Density = 2.195597 g / cm^3
# Si number density = 22.006053 Si / 1000 Ang^3
#
#
#
# Elastic Constant Matrix: (Units=GPa)
#
#
# Indices 1 2 3 4 5 6 
#
# 1 49.7465 -2.6053 -2.6890 0.0000 0.0000 0.0000
# 2 -2.6053 81.8147 -12.6473 0.0000 0.0000 0.0000
# 3 -2.6890 -12.6473 59.2543 0.0000 0.0000 0.0000
# 4 0.0000 0.0000 0.0000 24.6389 0.0000 0.0000
# 5 0.0000 0.0000 0.0000 0.0000 11.4544 0.0000
# 6 0.0000 0.0000 0.0000 0.0000 0.0000 29.3858
#
#
#
# Elastic Compliance Matrix: (Units=1/GPa)
#
#
# Indices 1 2 3 4 5 6 
#
# 1 0.020203 0.000812 0.001090 0.000000 0.000000 0.000000
# 2 0.000812 0.012672 0.002742 0.000000 0.000000 0.000000
# 3 0.001090 0.002742 0.017511 0.000000 0.000000 0.000000
# 4 0.000000 0.000000 0.000000 0.040586 0.000000 0.000000
# 5 0.000000 0.000000 0.000000 0.000000 0.087303 0.000000
# 6 0.000000 0.000000 0.000000 0.000000 0.000000 0.034030
#
#
# Mechanical properties :
#
#
# Convention : Reuss Voigt Hill
#
# Bulk Modulus (GPa) = 16.75766 17.21469 16.98617
# Shear Modulus (GPa) = 22.43055 27.01294 24.72174
#
# Velocity S-wave (km/s) = 3.19610 3.50740 3.35536
# Velocity P-wave (km/s) = 4.60994 4.92364 4.76937
#
# Compressibility (1/GPa) = 0.05967420
#
# Stress axis : x y z
#
# Youngs Moduli (GPa) = 49.49666 78.91158 57.10675
#
# Poissons Ratio (x) = -0.06407 -0.06225
# Poissons Ratio (y) = -0.04019 -0.15657
# Poissons Ratio (z) = -0.05396 -0.21635
#
# Static dielectric constant tensor:
#      x y z
#    x 1.788360 0.000000 0.000000 
#    y 0.000000 1.860680 0.000000 
#    z 0.000000 0.000000 1.794850 
# 
# From -- ./inp_files/21017.got.cif
#   From: 2010.05.17/outbox.cif.g08.bks.cpg/sg56_11_cif.got.tgz:21017.got - 2010.06.03 13:42:01.
