data_PCOD9430108
_publ_section_title
;
Structure prediction by ZEFSAII (Michael W. Deem and Ramdas Pophale) SiO2 
 PCOD9430108
Probable space group: P C C N
;
_chemical_formula_sum "Si O2"
_cell_formula_units_Z 52
_cell_length_a 5.591013
_cell_length_b 21.560999
_cell_length_c 22.801919
_cell_angle_alpha 90.000000
_cell_angle_beta 90.000000
_cell_angle_gamma 90.000000
_cell_volume 2748.721757
_symmetry_space_group_name_H-M "P C C N"
_symmetry_group_IT_number 56
_symmetry_cell_setting 'orthorhombic'
loop_
_space_group_symop_operation_xyz
x,y,z
1/2-x,1/2-y,z
1/2+x,-y,1/2-z
-x,1/2+y,1/2-z
-x,-y,-z
1/2+x,1/2+y,-z
1/2-x,y,1/2+z
x,1/2-y,1/2+z
loop_
_atom_site_type_symbol
_atom_site_label
_atom_site_fract_x
_atom_site_fract_y
_atom_site_fract_z
Si Si1 0.987680 0.419541 0.235132
Si Si2 0.250000 0.250000 0.048780
Si Si3 0.514860 0.144223 0.114905
Si Si4 0.401847 0.577825 0.565359
Si Si5 0.488577 0.436156 0.300890
Si Si6 0.744690 0.548103 0.462739
Si Si7 0.383782 0.843980 0.478716
O O1 0.235018 0.414713 0.272400
O O2 0.988766 0.488881 0.206844
O O3 0.984644 0.369612 0.182955
O O4 0.735776 0.414651 0.269623
O O5 0.334691 0.195596 0.091375
O O6 0.451670 0.284213 0.010059
O O7 0.438490 0.080597 0.082437
O O8 0.755744 0.166332 0.083504
O O9 0.485405 0.584397 0.631653
O O10 0.619105 0.551882 0.525935
O O11 0.212206 0.520939 0.560264
O O12 0.297803 0.637504 0.530994
O O13 0.966370 0.593652 0.467315
#
# Coordination Sequence:
#
# PCOD9430108 Si02
#       7
#     8   4   8   8   8   8   8
#     4  10  22  37  57  88 123 167 200 251 294 372
#     4  10  22  38  58  88 114 148 208 264 316 348
#     4  10  20  37  59  86 116 152 205 253 314 354
#     4  10  19  34  53  87 124 161 193 238 308 380
#     4  10  22  36  57  87 128 164 203 238 306 372
#     4   9  19  32  54  87 121 154 191 238 304 373
#     4  10  21  34  58  87 118 156 196 262 308 369
#
# _framework density 18.917884000000001
#
# number of rings (size 3 to 8) (size 9 to 14) (size 15 to 20)
#    0.000    2.154    1.538    0.923    6.462    1.231 
#    0.000    0.000    0.000    0.923    8.000    0.000 
#    0.000    0.000    0.000    0.000    0.000    0.000 
#
# Total GULP energy -289704.437703 kJ/mol
# GULP energy per Si atom -5571.239187 kJ/mol
# Density = 1.887483 g / cm^3
# Si number density = 18.917884 Si / 1000 Ang^3
#
#
#
# Elastic Constant Matrix: (Units=GPa)
#
#
# Indices 1 2 3 4 5 6 
#
# 1 96.2457 18.5364 45.5297 0.0000 0.0000 0.0000
# 2 18.5364 66.1903 23.7878 0.0000 0.0000 0.0000
# 3 45.5297 23.7878 121.9912 0.0000 0.0000 0.0000
# 4 0.0000 0.0000 0.0000 14.9450 0.0000 0.0000
# 5 0.0000 0.0000 0.0000 0.0000 -0.7628 0.0000
# 6 0.0000 0.0000 0.0000 0.0000 0.0000 27.2466
#
#
#
# Elastic Compliance Matrix: (Units=1/GPa)
#
#
# Indices 1 2 3 4 5 6 
#
# 1 0.012864 -0.002019 -0.004407 0.000000 0.000000 0.000000
# 2 -0.002019 0.016563 -0.002476 0.000000 0.000000 0.000000
# 3 -0.004407 -0.002476 0.010325 0.000000 0.000000 0.000000
# 4 0.000000 0.000000 0.000000 0.066912 0.000000 0.000000
# 5 0.000000 0.000000 0.000000 0.000000 -1.310886 0.000000
# 6 0.000000 0.000000 0.000000 0.000000 0.000000 0.036702
#
#
# Mechanical properties :
#
#
# Convention : Reuss Voigt Hill
#
# Bulk Modulus (GPa) = 45.56338 51.12610 48.34474
# Shear Modulus (GPa) = -4.37676 21.39063 8.50694
#
# Velocity S-wave (km/s) = -1.52269 3.36625 2.12286
# Velocity P-wave (km/s) = 4.58756 6.49560 5.62310
#
# Compressibility (1/GPa) = 0.02194745
#
# Stress axis : x y z
#
# Youngs Moduli (GPa) = 77.73753 60.37480 96.85086
#
# Poissons Ratio (x) = 0.12187 0.42686
# Poissons Ratio (y) = 0.15691 0.23984
# Poissons Ratio (z) = 0.34262 0.14951
#
# Static dielectric constant tensor:
#      x y z
#    x 1.788840 0.000000 0.000000 
#    y 0.000000 1.730920 0.000000 
#    z 0.000000 0.000000 1.635740 
# 
# From -- ./inp_files/17562.got.cif
#   From: 2010.05.17/outbox.cif.g08.bks.cpg/sg56_9_cif.got.tgz:17562.got - 2010.06.03 13:42:01.
