data_PCOD9430090
_publ_section_title
;
Structure prediction by ZEFSAII (Michael W. Deem and Ramdas Pophale) SiO2 
 PCOD9430090
Probable space group: P C C N
;
_chemical_formula_sum "Si O2"
_cell_formula_units_Z 56
_cell_length_a 14.272192
_cell_length_b 9.665220
_cell_length_c 17.228480
_cell_angle_alpha 90.000000
_cell_angle_beta 90.000000
_cell_angle_gamma 90.000000
_cell_volume 2376.563301
_symmetry_space_group_name_H-M "P C C N"
_symmetry_group_IT_number 56
_symmetry_cell_setting 'orthorhombic'
loop_
_space_group_symop_operation_xyz
x,y,z
1/2-x,1/2-y,z
1/2+x,-y,1/2-z
-x,1/2+y,1/2-z
-x,-y,-z
1/2+x,1/2+y,-z
1/2-x,y,1/2+z
x,1/2-y,1/2+z
loop_
_atom_site_type_symbol
_atom_site_label
_atom_site_fract_x
_atom_site_fract_y
_atom_site_fract_z
Si Si1 0.594457 0.216097 0.832493
Si Si2 0.250964 0.553076 0.982125
Si Si3 0.250000 0.250000 0.941041
Si Si4 0.750000 0.750000 0.798363
Si Si5 0.769974 0.048130 0.842114
Si Si6 0.051435 0.852733 0.487718
Si Si7 0.408940 0.324934 0.819589
Si Si8 0.955660 0.426387 0.576471
O O1 0.666403 0.093072 0.814017
O O2 0.651417 0.353069 0.806479
O O3 0.568712 0.206689 0.924982
O O4 0.492391 0.222401 0.795694
O O5 0.269442 0.598111 0.069171
O O6 0.153904 0.613708 0.953124
O O7 0.237545 0.389114 0.987305
O O8 0.343106 0.584375 0.934000
O O9 0.344591 0.270070 0.890867
O O10 0.709766 0.614080 0.839787
O O11 0.831582 0.680703 0.746936
O O12 0.007802 0.732149 0.433232
O O13 0.000000 0.000000 0.500000
O O14 0.458806 0.466421 0.851130
O O15 0.000000 0.500000 0.500000
#
# Coordination Sequence:
#
# PCOD9430090 Si02
#       8
#     8   8   4   4   8   8   8   8
#     4  10  20  40  62  86 123 166 201 261 320 373
#     4  10  19  33  59  85 124 159 202 250 315 370
#     4   9  19  32  58  88 123 159 188 250 316 381
#     4  11  25  42  62  90 119 163 228 274 304 373
#     4  10  21  39  64  85 117 163 220 266 305 362
#     4  11  21  34  58  96 133 157 200 253 315 398
#     4  10  21  39  61  86 129 158 204 252 325 384
#     4  11  20  36  62  91 127 168 196 248 327 396
#
# _framework density 23.563437
#
# number of rings (size 3 to 8) (size 9 to 14) (size 15 to 20)
#    0.000    1.714    2.857    1.714    2.000    1.143 
#    5.143    0.000   25.143    0.000    0.000    0.000 
#    0.000    0.000    0.000    0.000    0.000    0.000 
#
# Total GULP energy -312164.336938 kJ/mol
# GULP energy per Si atom -5574.363160 kJ/mol
# Density = 2.350981 g / cm^3
# Si number density = 23.563437 Si / 1000 Ang^3
#
#
#
# Elastic Constant Matrix: (Units=GPa)
#
#
# Indices 1 2 3 4 5 6 
#
# 1 111.7907 21.5233 5.8586 0.0000 0.0000 0.0000
# 2 21.5233 186.4595 21.5932 0.0000 0.0000 0.0000
# 3 5.8586 21.5932 22.2184 0.0000 0.0000 0.0000
# 4 0.0000 0.0000 0.0000 33.5915 0.0000 0.0000
# 5 0.0000 0.0000 0.0000 0.0000 -10.1754 0.0000
# 6 0.0000 0.0000 0.0000 0.0000 0.0000 34.1694
#
#
#
# Elastic Compliance Matrix: (Units=1/GPa)
#
#
# Indices 1 2 3 4 5 6 
#
# 1 0.009197 -0.000880 -0.001570 0.000000 0.000000 0.000000
# 2 -0.000880 0.006127 -0.005723 0.000000 0.000000 0.000000
# 3 -0.001570 -0.005723 0.050984 0.000000 0.000000 0.000000
# 4 0.000000 0.000000 0.000000 0.029769 0.000000 0.000000
# 5 0.000000 0.000000 0.000000 0.000000 -0.098276 0.000000
# 6 0.000000 0.000000 0.000000 0.000000 0.000000 0.029266
#
#
# Mechanical properties :
#
#
# Convention : Reuss Voigt Hill
#
# Bulk Modulus (GPa) = 20.01502 46.49096 33.25299
# Shear Modulus (GPa) = 83.23999 29.61667 56.42833
#
# Velocity S-wave (km/s) = 5.95001 3.54911 4.89892
# Velocity P-wave (km/s) = 7.46432 6.04714 6.79279
#
# Compressibility (1/GPa) = 0.04996248
#
# Stress axis : x y z
#
# Youngs Moduli (GPa) = 108.73163 163.20104 19.61409
#
# Poissons Ratio (x) = 0.14358 0.03079
# Poissons Ratio (y) = 0.09566 0.11225
# Poissons Ratio (z) = 0.17071 0.93400
#
# Static dielectric constant tensor:
#      x y z
#    x 1.901190 0.000000 0.000000 
#    y 0.000000 2.042370 0.000000 
#    z 0.000000 0.000000 1.870340 
# 
# From -- ./inp_files/19161.got.cif
#   From: 2010.05.17/outbox.cif.g08.bks.cpg/sg56_10_cif.got.tgz:19161.got - 2010.06.03 13:42:01.
