data_PCOD9430167
_publ_section_title
;
Structure prediction by ZEFSAII (Michael W. Deem and Ramdas Pophale) SiO2 
 PCOD9430167
Probable space group: P C C N
;
_chemical_formula_sum "Si O2"
_cell_formula_units_Z 60
_cell_length_a 6.494175
_cell_length_b 17.640515
_cell_length_c 27.631814
_cell_angle_alpha 90.000000
_cell_angle_beta 90.000000
_cell_angle_gamma 90.000000
_cell_volume 3165.516956
_symmetry_space_group_name_H-M "P C C N"
_symmetry_group_IT_number 56
_symmetry_cell_setting 'orthorhombic'
loop_
_space_group_symop_operation_xyz
x,y,z
1/2-x,1/2-y,z
1/2+x,-y,1/2-z
-x,1/2+y,1/2-z
-x,-y,-z
1/2+x,1/2+y,-z
1/2-x,y,1/2+z
x,1/2-y,1/2+z
loop_
_atom_site_type_symbol
_atom_site_label
_atom_site_fract_x
_atom_site_fract_y
_atom_site_fract_z
Si Si1 0.073081 0.545862 0.911552
Si Si2 0.553059 0.400568 0.022758
Si Si3 0.315646 0.960229 0.568602
Si Si4 0.750000 0.250000 0.740483
Si Si5 0.896145 0.521091 0.661612
Si Si6 0.358614 0.172212 0.279852
Si Si7 0.208567 0.334723 0.597714
Si Si8 0.954232 0.875965 0.801774
O O1 0.237340 0.572807 0.951274
O O2 0.204125 0.519694 0.865091
O O3 0.926863 0.474748 0.925785
O O4 0.916291 0.615940 0.905242
O O5 0.392465 0.467224 0.037179
O O6 0.437011 0.332885 0.050258
O O7 0.604302 0.393416 0.966261
O O8 0.431557 0.963336 0.619889
O O9 0.591690 0.301758 0.770469
O O10 0.618138 0.189066 0.710605
O O11 0.840453 0.601788 0.684345
O O12 0.973530 0.462992 0.703356
O O13 0.250000 0.250000 0.296550
O O14 0.244672 0.145757 0.230168
O O15 0.250000 0.250000 0.613190
O O16 0.084293 0.372631 0.641126
#
# Coordination Sequence:
#
# PCOD9430167 Si02
#       8
#     8   8   8   4   8   8   8   8
#     4  10  19  35  57  89 115 159 200 239 301 342
#     4   9  18  34  54  83 116 156 194 241 294 348
#     4   9  18  35  56  85 117 145 200 246 288 350
#     4  10  24  42  64  80 120 164 192 244 320 350
#     4  11  23  38  64  93 119 155 204 252 295 358
#     4  10  25  44  60  88 119 158 202 249 308 360
#     4  11  22  35  56  86 130 158 198 245 300 365
#     4  11  23  38  58  92 119 158 199 249 294 370
#
# _framework density 18.954250999999999
#
# number of rings (size 3 to 8) (size 9 to 14) (size 15 to 20)
#    0.000    1.867    4.000    1.600    5.600    3.733 
#    0.000    0.667    0.000    3.200    0.000    0.000 
#    0.000    0.000    0.000    0.000    0.000    0.000 
#
# Total GULP energy -334133.452501 kJ/mol
# GULP energy per Si atom -5568.890875 kJ/mol
# Density = 1.891111 g / cm^3
# Si number density = 18.954251 Si / 1000 Ang^3
#
#
#
# Elastic Constant Matrix: (Units=GPa)
#
#
# Indices 1 2 3 4 5 6 
#
# 1 106.4260 19.7802 25.6148 0.0000 0.0000 0.0000
# 2 19.7802 84.0614 29.8537 0.0000 0.0000 0.0000
# 3 25.6148 29.8537 51.6224 0.0000 0.0000 0.0000
# 4 0.0000 0.0000 0.0000 18.3189 0.0000 0.0000
# 5 0.0000 0.0000 0.0000 0.0000 6.4117 0.0000
# 6 0.0000 0.0000 0.0000 0.0000 0.0000 12.8669
#
#
#
# Elastic Compliance Matrix: (Units=1/GPa)
#
#
# Indices 1 2 3 4 5 6 
#
# 1 0.010713 -0.000797 -0.004855 0.000000 0.000000 0.000000
# 2 -0.000797 0.015030 -0.008297 0.000000 0.000000 0.000000
# 3 -0.004855 -0.008297 0.026579 0.000000 0.000000 0.000000
# 4 0.000000 0.000000 0.000000 0.054588 0.000000 0.000000
# 5 0.000000 0.000000 0.000000 0.000000 0.155965 0.000000
# 6 0.000000 0.000000 0.000000 0.000000 0.000000 0.077719
#
#
# Mechanical properties :
#
#
# Convention : Reuss Voigt Hill
#
# Bulk Modulus (GPa) = 40.94209 43.62304 42.28256
# Shear Modulus (GPa) = 13.27556 18.64357 15.95956
#
# Velocity S-wave (km/s) = 2.64938 3.13966 2.90488
# Velocity P-wave (km/s) = 5.56833 6.01732 5.79717
#
# Compressibility (1/GPa) = 0.02442474
#
# Stress axis : x y z
#
# Youngs Moduli (GPa) = 93.34674 66.53341 37.62438
#
# Poissons Ratio (x) = 0.05300 0.18266
# Poissons Ratio (y) = 0.07436 0.31216
# Poissons Ratio (z) = 0.45319 0.55201
#
# Static dielectric constant tensor:
#      x y z
#    x 1.694680 0.000000 0.000000 
#    y 0.000000 1.717730 0.000000 
#    z 0.000000 0.000000 1.727410 
# 
# From -- ./inp_files/22543.got.cif
#   From: 2010.05.17/outbox.cif.g08.bks.cpg/sg56_12_cif.got.tgz:22543.got - 2010.06.03 13:42:01.
