data_PCOD9430063
_publ_section_title
;
Structure prediction by ZEFSAII (Michael W. Deem and Ramdas Pophale) SiO2 
 PCOD9430063
Probable space group: P C C N
;
_chemical_formula_sum "Si O2"
_cell_formula_units_Z 48
_cell_length_a 7.151737
_cell_length_b 7.976189
_cell_length_c 32.153036
_cell_angle_alpha 90.000000
_cell_angle_beta 90.000000
_cell_angle_gamma 90.000000
_cell_volume 1834.125117
_symmetry_space_group_name_H-M "P C C N"
_symmetry_group_IT_number 56
_symmetry_cell_setting 'orthorhombic'
loop_
_space_group_symop_operation_xyz
x,y,z
1/2-x,1/2-y,z
1/2+x,-y,1/2-z
-x,1/2+y,1/2-z
-x,-y,-z
1/2+x,1/2+y,-z
1/2-x,y,1/2+z
x,1/2-y,1/2+z
loop_
_atom_site_type_symbol
_atom_site_label
_atom_site_fract_x
_atom_site_fract_y
_atom_site_fract_z
Si Si1 0.831022 0.563675 0.662324
Si Si2 0.943257 0.525395 0.814635
Si Si3 0.746846 0.053705 0.580192
Si Si4 0.452681 0.666316 0.768482
Si Si5 0.814734 0.948276 0.401623
Si Si6 0.217390 0.049508 0.508538
O O1 0.750000 0.750000 0.665789
O O2 0.646257 0.448103 0.665142
O O3 0.887235 0.533336 0.614527
O O4 0.954035 0.493445 0.700187
O O5 0.977714 0.389513 0.778786
O O6 0.806808 0.489327 0.853396
O O7 0.917112 0.692465 0.788002
O O8 0.750000 0.250000 0.586872
O O9 0.966383 0.009925 0.587048
O O10 0.686308 0.020519 0.532873
O O11 0.250000 0.750000 0.767308
O O12 0.750000 0.750000 0.398431
O O13 0.726149 0.010745 0.445145
O O14 0.250000 0.250000 0.508490
O O15 0.000000 0.000000 0.500000
#
# Coordination Sequence:
#
# PCOD9430063 Si02
#       6
#     8   8   8   8   8   8
#     4  10  19  33  54  80 106 140 189 241 289 347
#     4  10  20  35  54  76 109 150 186 238 298 350
#     4  10  19  35  58  84 111 145 191 244 293 350
#     4  10  21  35  52  79 109 143 195 242 285 350
#     4   9  19  35  54  78 110 149 186 230 294 356
#     4   9  18  35  57  81 112 151 194 241 299 367
#
# _framework density 26.170517
#
# number of rings (size 3 to 8) (size 9 to 14) (size 15 to 20)
#    0.000    2.333    0.000    4.000    0.000    3.333 
#    0.000   10.000    0.000    6.000    0.000    0.000 
#    0.000    0.000    0.000    0.000    0.000    0.000 
#
# Total GULP energy -267541.356601 kJ/mol
# GULP energy per Si atom -5573.778263 kJ/mol
# Density = 2.611095 g / cm^3
# Si number density = 26.170517 Si / 1000 Ang^3
#
#
#
# Elastic Constant Matrix: (Units=GPa)
#
#
# Indices 1 2 3 4 5 6 
#
# 1 63.5449 -20.3602 22.2079 0.0000 0.0000 0.0000
# 2 -20.3602 89.4273 47.4714 0.0000 0.0000 0.0000
# 3 22.2079 47.4714 297.2015 0.0000 0.0000 0.0000
# 4 0.0000 0.0000 0.0000 43.5223 0.0000 0.0000
# 5 0.0000 0.0000 0.0000 0.0000 28.1860 0.0000
# 6 0.0000 0.0000 0.0000 0.0000 0.0000 23.2225
#
#
#
# Elastic Compliance Matrix: (Units=1/GPa)
#
#
# Indices 1 2 3 4 5 6 
#
# 1 0.018214 0.005321 -0.002211 0.000000 0.000000 0.000000
# 2 0.005321 0.013772 -0.002597 0.000000 0.000000 0.000000
# 3 -0.002211 -0.002597 0.003945 0.000000 0.000000 0.000000
# 4 0.000000 0.000000 0.000000 0.022977 0.000000 0.000000
# 5 0.000000 0.000000 0.000000 0.000000 0.035479 0.000000
# 6 0.000000 0.000000 0.000000 0.000000 0.000000 0.043062
#
#
# Mechanical properties :
#
#
# Convention : Reuss Voigt Hill
#
# Bulk Modulus (GPa) = 27.05920 60.97913 44.01916
# Shear Modulus (GPa) = 33.61508 45.70979 39.66244
#
# Velocity S-wave (km/s) = 3.58783 4.18379 3.89722
# Velocity P-wave (km/s) = 5.24646 6.83301 6.09161
#
# Compressibility (1/GPa) = 0.03695600
#
# Stress axis : x y z
#
# Youngs Moduli (GPa) = 54.90189 72.60895 253.49805
#
# Poissons Ratio (x) = -0.38632 0.56045
# Poissons Ratio (y) = -0.29211 0.65844
# Poissons Ratio (z) = 0.12138 0.18860
#
# Static dielectric constant tensor:
#      x y z
#    x 2.201770 0.000000 0.000000 
#    y 0.000000 1.642190 0.000000 
#    z 0.000000 0.000000 2.193660 
# 
# From -- ./inp_files/23204.got.cif
#   From: 2010.05.17/outbox.cif.g08.bks.cpg/sg56_12_cif.got.tgz:23204.got - 2010.06.03 13:42:01.
