data_PCOD9430501
_publ_section_title
;
Structure prediction by ZEFSAII (Michael W. Deem and Ramdas Pophale) SiO2 
 PCOD9430501
Probable space group: P C C N
;
_chemical_formula_sum "Si O2"
_cell_formula_units_Z 48
_cell_length_a 27.088419
_cell_length_b 14.458795
_cell_length_c 5.221330
_cell_angle_alpha 90.000000
_cell_angle_beta 90.000000
_cell_angle_gamma 90.000000
_cell_volume 2045.016899
_symmetry_space_group_name_H-M "P C C N"
_symmetry_group_IT_number 56
_symmetry_cell_setting 'orthorhombic'
loop_
_space_group_symop_operation_xyz
x,y,z
1/2-x,1/2-y,z
1/2+x,-y,1/2-z
-x,1/2+y,1/2-z
-x,-y,-z
1/2+x,1/2+y,-z
1/2-x,y,1/2+z
x,1/2-y,1/2+z
loop_
_atom_site_type_symbol
_atom_site_label
_atom_site_fract_x
_atom_site_fract_y
_atom_site_fract_z
Si Si1 0.869795 0.417238 0.530070
Si Si2 0.625255 0.528768 0.520507
Si Si3 0.459340 0.340626 0.564491
Si Si4 0.983891 0.106280 0.055254
Si Si5 0.139951 0.217937 0.174512
Si Si6 0.729387 0.147669 0.681609
O O1 0.870652 0.450252 0.235760
O O2 0.855839 0.495961 0.743326
O O3 0.925326 0.385859 0.583869
O O4 0.826483 0.345676 0.585911
O O5 0.570295 0.561716 0.444032
O O6 0.585502 0.735232 0.394734
O O7 0.641679 0.619217 0.685262
O O8 0.495042 0.341041 0.807226
O O9 0.490194 0.351954 0.304979
O O10 0.000000 0.000000 0.000000
O O11 0.162674 0.215928 0.891914
O O12 0.750000 0.250000 0.727962
O O13 0.739431 0.100404 0.954550
#
# Coordination Sequence:
#
# PCOD9430501 Si02
#       6
#     8   8   8   8   8   8
#     4  12  23  36  66  98 119 168 229 279 354 401
#     4  11  20  35  57  91 131 162 222 271 320 420
#     4  11  20  35  54  80 133 193 214 260 322 395
#     4  12  21  34  55  89 133 178 216 287 332 392
#     4  10  20  34  54  75 124 183 222 247 300 391
#     4  10  23  47  76  90 125 168 216 298 357 402
#
# _framework density 23.471688
#
# number of rings (size 3 to 8) (size 9 to 14) (size 15 to 20)
#    0.000    1.000    3.333    6.500    0.000    0.000 
#    0.000    0.000   44.000    0.000    0.000    0.000 
#    0.000  186.667    0.000    0.000    0.000    0.000 
#
# Total GULP energy -267429.920486 kJ/mol
# GULP energy per Si atom -5571.456677 kJ/mol
# Density = 2.341827 g / cm^3
# Si number density = 23.471688 Si / 1000 Ang^3
#
#
#
# Elastic Constant Matrix: (Units=GPa)
#
#
# Indices 1 2 3 4 5 6 
#
# 1 56.8186 10.0203 -10.2472 0.0000 0.0000 0.0000
# 2 10.0203 62.6358 -1.2192 0.0000 0.0000 0.0000
# 3 -10.2472 -1.2192 166.6794 0.0000 0.0000 0.0000
# 4 0.0000 0.0000 0.0000 19.3753 0.0000 0.0000
# 5 0.0000 0.0000 0.0000 0.0000 21.0946 0.0000
# 6 0.0000 0.0000 0.0000 0.0000 0.0000 24.6991
#
#
#
# Elastic Compliance Matrix: (Units=1/GPa)
#
#
# Indices 1 2 3 4 5 6 
#
# 1 0.018312 -0.002908 0.001105 0.000000 0.000000 0.000000
# 2 -0.002908 0.016429 -0.000059 0.000000 0.000000 0.000000
# 3 0.001105 -0.000059 0.006067 0.000000 0.000000 0.000000
# 4 0.000000 0.000000 0.000000 0.051612 0.000000 0.000000
# 5 0.000000 0.000000 0.000000 0.000000 0.047405 0.000000
# 6 0.000000 0.000000 0.000000 0.000000 0.000000 0.040487
#
#
# Mechanical properties :
#
#
# Convention : Reuss Voigt Hill
#
# Bulk Modulus (GPa) = 26.96569 31.47128 29.21848
# Shear Modulus (GPa) = 25.45845 32.20582 28.83213
#
# Velocity S-wave (km/s) = 3.29697 3.70822 3.50863
# Velocity P-wave (km/s) = 5.09969 5.63665 5.37488
#
# Compressibility (1/GPa) = 0.03708417
#
# Stress axis : x y z
#
# Youngs Moduli (GPa) = 54.60924 60.86661 164.82561
#
# Poissons Ratio (x) = 0.17700 -0.18205
# Poissons Ratio (y) = 0.15880 0.00966
# Poissons Ratio (z) = -0.06032 0.00357
#
# Static dielectric constant tensor:
#      x y z
#    x 1.917020 0.000000 0.000000 
#    y 0.000000 2.106910 0.000000 
#    z 0.000000 0.000000 2.067150 
# 
# From -- ./inp_files/1242.got.cif
#   From: 2010.05.17/outbox.cif.g08.bks.cpg/sg56_1_cif.got.tgz:1242.got - 2010.06.03 13:42:01.
