data_PCOD9430226
_publ_section_title
;
Structure prediction by ZEFSAII (Michael W. Deem and Ramdas Pophale) SiO2 
 PCOD9430226
Probable space group: P C C N
;
_chemical_formula_sum "Si O2"
_cell_formula_units_Z 64
_cell_length_a 5.930720
_cell_length_b 27.223976
_cell_length_c 18.488898
_cell_angle_alpha 90.000000
_cell_angle_beta 90.000000
_cell_angle_gamma 90.000000
_cell_volume 2985.176406
_symmetry_space_group_name_H-M "P C C N"
_symmetry_group_IT_number 56
_symmetry_cell_setting 'orthorhombic'
loop_
_space_group_symop_operation_xyz
x,y,z
1/2-x,1/2-y,z
1/2+x,-y,1/2-z
-x,1/2+y,1/2-z
-x,-y,-z
1/2+x,1/2+y,-z
1/2-x,y,1/2+z
x,1/2-y,1/2+z
loop_
_atom_site_type_symbol
_atom_site_label
_atom_site_fract_x
_atom_site_fract_y
_atom_site_fract_z
Si Si1 0.710418 0.807087 0.283829
Si Si2 0.184132 0.018464 0.776391
Si Si3 0.531730 0.392762 0.708776
Si Si4 0.592822 0.370017 0.317407
Si Si5 0.724346 0.563778 0.586130
Si Si6 0.502641 0.399639 0.543375
Si Si7 0.112744 0.641096 0.554570
Si Si8 0.829517 0.693969 0.444960
O O1 0.750000 0.750000 0.272198
O O2 0.572662 0.831990 0.220089
O O3 0.589907 0.814223 0.362142
O O4 0.944120 0.836892 0.291130
O O5 0.196336 0.018971 0.863983
O O6 0.156184 0.074400 0.748162
O O7 0.433182 0.001494 0.747811
O O8 0.758644 0.395186 0.754855
O O9 0.546007 0.410936 0.626701
O O10 0.473525 0.410850 0.366933
O O11 0.752907 0.342621 0.374811
O O12 0.634025 0.560226 0.504092
O O13 0.923569 0.603516 0.582172
O O14 0.730683 0.388553 0.501132
O O15 0.358437 0.348487 0.541751
O O16 0.009077 0.684391 0.507278
O O17 0.750000 0.750000 0.448120
#
# Coordination Sequence:
#
# PCOD9430226 Si02
#       8
#     8   8   8   8   8   8   8   8
#     4  10  21  37  61  92 130 171 218 274 333 396
#     4  12  26  44  73 104 133 178 230 282 354 421
#     4  11  22  42  65  96 128 172 224 276 333 404
#     4  11  19  36  64  86 131 171 219 274 331 394
#     4  10  21  42  62  92 129 170 207 273 335 399
#     4   9  21  37  65  88 121 173 218 262 338 396
#     4  10  19  36  60  85 116 176 210 264 337 393
#     4   9  19  36  54  85 126 166 217 270 322 396
#
# _framework density 21.439268999999999
#
# number of rings (size 3 to 8) (size 9 to 14) (size 15 to 20)
#    0.000    1.750    2.500    1.500    1.750    1.000 
#    0.000   20.000    0.000    0.000    0.000    0.000 
#    0.000    0.000    0.000    0.000    0.000    0.000 
#
# Total GULP energy -357013.113378 kJ/mol
# GULP energy per Si atom -5578.329897 kJ/mol
# Density = 2.139047 g / cm^3
# Si number density = 21.439269 Si / 1000 Ang^3
#
#
#
# Elastic Constant Matrix: (Units=GPa)
#
#
# Indices 1 2 3 4 5 6 
#
# 1 63.6926 4.5024 32.7263 0.0000 0.0000 0.0000
# 2 4.5024 45.6214 -12.3327 0.0000 0.0000 0.0000
# 3 32.7263 -12.3327 106.6211 0.0000 0.0000 0.0000
# 4 0.0000 0.0000 0.0000 25.6542 0.0000 0.0000
# 5 0.0000 0.0000 0.0000 0.0000 1.4533 0.0000
# 6 0.0000 0.0000 0.0000 0.0000 0.0000 14.7553
#
#
#
# Elastic Compliance Matrix: (Units=1/GPa)
#
#
# Indices 1 2 3 4 5 6 
#
# 1 0.019196 -0.003600 -0.006308 0.000000 0.000000 0.000000
# 2 -0.003600 0.023302 0.003800 0.000000 0.000000 0.000000
# 3 -0.006308 0.003800 0.011755 0.000000 0.000000 0.000000
# 4 0.000000 0.000000 0.000000 0.038980 0.000000 0.000000
# 5 0.000000 0.000000 0.000000 0.000000 0.688106 0.000000
# 6 0.000000 0.000000 0.000000 0.000000 0.000000 0.067772
#
#
# Mechanical properties :
#
#
# Convention : Reuss Voigt Hill
#
# Bulk Modulus (GPa) = 23.78849 29.52523 26.65686
# Shear Modulus (GPa) = 5.71207 21.10848 13.41027
#
# Velocity S-wave (km/s) = 1.63404 3.14119 2.50371
# Velocity P-wave (km/s) = 3.83144 5.19207 4.56276
#
# Compressibility (1/GPa) = 0.04203713
#
# Stress axis : x y z
#
# Youngs Moduli (GPa) = 52.09341 42.91452 85.07085
#
# Poissons Ratio (x) = 0.15449 0.53667
# Poissons Ratio (y) = 0.18753 -0.32329
# Poissons Ratio (z) = 0.32863 -0.16309
#
# Static dielectric constant tensor:
#      x y z
#    x 1.817790 0.000000 0.000000 
#    y 0.000000 1.798300 0.000000 
#    z 0.000000 0.000000 1.798820 
# 
# From -- ./inp_files/14190.got.cif
#   From: 2010.05.17/outbox.cif.g08.bks.cpg/sg56_8_cif.got.tgz:14190.got - 2010.06.03 13:42:01.
