data_PCOD9430341
_publ_section_title
;
Structure prediction by ZEFSAII (Michael W. Deem and Ramdas Pophale) SiO2 
 PCOD9430341
Probable space group: P C C N
;
_chemical_formula_sum "Si O2"
_cell_formula_units_Z 64
_cell_length_a 12.748902
_cell_length_b 10.434449
_cell_length_c 22.889023
_cell_angle_alpha 90.000000
_cell_angle_beta 90.000000
_cell_angle_gamma 90.000000
_cell_volume 3044.875635
_symmetry_space_group_name_H-M "P C C N"
_symmetry_group_IT_number 56
_symmetry_cell_setting 'orthorhombic'
loop_
_space_group_symop_operation_xyz
x,y,z
1/2-x,1/2-y,z
1/2+x,-y,1/2-z
-x,1/2+y,1/2-z
-x,-y,-z
1/2+x,1/2+y,-z
1/2-x,y,1/2+z
x,1/2-y,1/2+z
loop_
_atom_site_type_symbol
_atom_site_label
_atom_site_fract_x
_atom_site_fract_y
_atom_site_fract_z
Si Si1 0.127416 0.779965 0.076299
Si Si2 0.376938 0.573901 0.848470
Si Si3 0.158267 0.581771 0.784718
Si Si4 0.522043 0.350104 0.812544
Si Si5 0.790572 0.105419 0.031800
Si Si6 0.595324 0.495639 0.455742
Si Si7 0.476901 0.180250 0.143295
Si Si8 0.861668 0.799684 0.746066
O O1 0.250000 0.750000 0.085778
O O2 0.079104 0.862654 0.126652
O O3 0.079482 0.639024 0.077320
O O4 0.120929 0.853906 0.014968
O O5 0.272144 0.605425 0.811336
O O6 0.444742 0.473103 0.810896
O O7 0.330910 0.531116 0.911537
O O8 0.452776 0.691987 0.865675
O O9 0.109741 0.676006 0.736662
O O10 0.067751 0.583067 0.834229
O O11 0.152616 0.450217 0.748427
O O12 0.444701 0.231561 0.804043
O O13 0.750000 0.250000 0.050498
O O14 0.701198 0.029167 0.994740
O O15 0.500000 0.500000 0.500000
O O16 0.584702 0.614165 0.410408
O O17 0.399750 0.223031 0.196204
O O18 0.750000 0.750000 0.726758
#
# Coordination Sequence:
#
# PCOD9430341 Si02
#       8
#     8   8   8   8   8   8   8   8
#     4   9  21  41  63  92 122 168 219 266 320 397
#     4  12  22  41  65  96 133 166 219 271 324 398
#     4  11  23  41  62  91 128 170 214 264 327 383
#     4  11  24  39  64  92 127 171 214 261 336 382
#     4   9  20  38  63  92 125 171 216 268 325 385
#     4  10  19  38  65  93 125 164 218 271 322 384
#     4  11  23  38  65  97 124 174 218 268 329 392
#     4  11  23  41  58  89 130 171 209 266 321 396
#
# _framework density 21.018922
#
# number of rings (size 3 to 8) (size 9 to 14) (size 15 to 20)
#    0.000    1.750    2.500    4.125    0.000    4.500 
#    0.000    0.000    0.000    0.000    0.000    0.000 
#    0.000    0.000    0.000    0.000    0.000    0.000 
#
# Total GULP energy -356473.325071 kJ/mol
# GULP energy per Si atom -5569.895704 kJ/mol
# Density = 2.097108 g / cm^3
# Si number density = 21.018922 Si / 1000 Ang^3
#
#
#
# Elastic Constant Matrix: (Units=GPa)
#
#
# Indices 1 2 3 4 5 6 
#
# 1 67.0249 19.5403 35.8820 0.0000 0.0000 0.0000
# 2 19.5403 57.9247 8.1328 0.0000 0.0000 0.0000
# 3 35.8820 8.1328 86.1381 0.0000 0.0000 0.0000
# 4 0.0000 0.0000 0.0000 23.7980 0.0000 0.0000
# 5 0.0000 0.0000 0.0000 0.0000 31.0981 0.0000
# 6 0.0000 0.0000 0.0000 0.0000 0.0000 29.4000
#
#
#
# Elastic Compliance Matrix: (Units=1/GPa)
#
#
# Indices 1 2 3 4 5 6 
#
# 1 0.021047 -0.005948 -0.008206 0.000000 0.000000 0.000000
# 2 -0.005948 0.019177 0.000667 0.000000 0.000000 0.000000
# 3 -0.008206 0.000667 0.014965 0.000000 0.000000 0.000000
# 4 0.000000 0.000000 0.000000 0.042020 0.000000 0.000000
# 5 0.000000 0.000000 0.000000 0.000000 0.032156 0.000000
# 6 0.000000 0.000000 0.000000 0.000000 0.000000 0.034014
#
#
# Mechanical properties :
#
#
# Convention : Reuss Voigt Hill
#
# Bulk Modulus (GPa) = 35.44231 37.57756 36.50993
# Shear Modulus (GPa) = 25.03052 26.69473 25.86263
#
# Velocity S-wave (km/s) = 3.45462 3.56762 3.51158
# Velocity P-wave (km/s) = 5.72811 5.90655 5.81801
#
# Compressibility (1/GPa) = 0.02821486
#
# Stress axis : x y z
#
# Youngs Moduli (GPa) = 47.51309 52.14698 66.82471
#
# Poissons Ratio (x) = 0.31016 0.54835
# Poissons Ratio (y) = 0.28260 -0.04458
# Poissons Ratio (z) = 0.38988 -0.03479
#
# Static dielectric constant tensor:
#      x y z
#    x 1.773920 0.000000 0.000000 
#    y 0.000000 1.888070 0.000000 
#    z 0.000000 0.000000 1.818130 
# 
# From -- ./inp_files/21001.got.cif
#   From: 2010.05.17/outbox.cif.g08.bks.cpg/sg56_11_cif.got.tgz:21001.got - 2010.06.03 13:42:01.
