data_PCOD9430548
_publ_section_title
;
Structure prediction by ZEFSAII (Michael W. Deem and Ramdas Pophale) SiO2 
 PCOD9430548
Probable space group: P C C N
;
_chemical_formula_sum "Si O2"
_cell_formula_units_Z 64
_cell_length_a 17.669486
_cell_length_b 13.358669
_cell_length_c 13.619323
_cell_angle_alpha 90.000000
_cell_angle_beta 90.000000
_cell_angle_gamma 90.000000
_cell_volume 3214.716099
_symmetry_space_group_name_H-M "P C C N"
_symmetry_group_IT_number 56
_symmetry_cell_setting 'orthorhombic'
loop_
_space_group_symop_operation_xyz
x,y,z
1/2-x,1/2-y,z
1/2+x,-y,1/2-z
-x,1/2+y,1/2-z
-x,-y,-z
1/2+x,1/2+y,-z
1/2-x,y,1/2+z
x,1/2-y,1/2+z
loop_
_atom_site_type_symbol
_atom_site_label
_atom_site_fract_x
_atom_site_fract_y
_atom_site_fract_z
Si Si1 0.504809 0.284760 0.304776
Si Si2 0.348182 0.247612 0.078157
Si Si3 0.705577 0.948246 0.029851
Si Si4 0.476457 0.910406 0.596606
Si Si5 0.933569 0.080109 0.480279
Si Si6 0.980950 0.260175 0.589119
Si Si7 0.673926 0.688926 0.700350
Si Si8 0.626912 0.545078 0.015167
O O1 0.532688 0.170461 0.319089
O O2 0.542945 0.359307 0.382225
O O3 0.524947 0.312267 0.193879
O O4 0.413718 0.281956 0.322898
O O5 0.434814 0.212436 0.089722
O O6 0.324905 0.297321 0.181701
O O7 0.356938 0.338321 0.002684
O O8 0.301428 0.154742 0.035230
O O9 0.683596 0.914246 0.140486
O O10 0.789405 0.994764 0.033049
O O11 0.645019 0.021842 0.981930
O O12 0.474318 0.840814 0.498008
O O13 0.560334 0.958363 0.595875
O O14 0.412436 0.993020 0.579206
O O15 0.928948 0.166506 0.563277
O O16 0.000000 0.000000 0.500000
O O17 0.750000 0.750000 0.668925
#
# Coordination Sequence:
#
# PCOD9430548 Si02
#       8
#     8   8   8   8   8   8   8   8
#     4  10  20  37  58  79 110 149 183 226 280 321
#     4  10  20  35  53  81 118 143 175 227 287 344
#     4  12  21  35  57  82 116 145 183 232 281 328
#     4   9  19  38  56  76 111 144 192 225 268 341
#     4  11  20  38  57  86 112 144 190 226 264 337
#     4   9  19  37  58  79 109 148 186 226 275 324
#     4  11  20  31  53  83 112 143 175 222 288 344
#     4  10  20  35  55  79 109 150 179 229 282 330
#
# _framework density 19.908446000000001
#
# number of rings (size 3 to 8) (size 9 to 14) (size 15 to 20)
#    0.000    1.750    2.500    4.125    0.000    1.000 
#    4.500    6.250    0.000    1.500    0.000    0.000 
#    0.000    0.000    0.000    0.000    0.000    0.000 
#
# Total GULP energy -356443.971080 kJ/mol
# GULP energy per Si atom -5569.437048 kJ/mol
# Density = 1.986313 g / cm^3
# Si number density = 19.908446 Si / 1000 Ang^3
#
#
#
# Elastic Constant Matrix: (Units=GPa)
#
#
# Indices 1 2 3 4 5 6 
#
# 1 97.9904 40.3174 24.0273 0.0000 0.0000 0.0000
# 2 40.3174 63.3443 10.5701 0.0000 0.0000 0.0000
# 3 24.0273 10.5701 79.9711 0.0000 0.0000 0.0000
# 4 0.0000 0.0000 0.0000 16.7920 0.0000 0.0000
# 5 0.0000 0.0000 0.0000 0.0000 15.5657 0.0000
# 6 0.0000 0.0000 0.0000 0.0000 0.0000 27.4642
#
#
#
# Elastic Compliance Matrix: (Units=1/GPa)
#
#
# Indices 1 2 3 4 5 6 
#
# 1 0.014598 -0.008753 -0.003229 0.000000 0.000000 0.000000
# 2 -0.008753 0.021391 -0.000198 0.000000 0.000000 0.000000
# 3 -0.003229 -0.000198 0.013501 0.000000 0.000000 0.000000
# 4 0.000000 0.000000 0.000000 0.059552 0.000000 0.000000
# 5 0.000000 0.000000 0.000000 0.000000 0.064244 0.000000
# 6 0.000000 0.000000 0.000000 0.000000 0.000000 0.036411
#
#
# Mechanical properties :
#
#
# Convention : Reuss Voigt Hill
#
# Bulk Modulus (GPa) = 39.79163 43.45950 41.62556
# Shear Modulus (GPa) = 20.62435 23.05711 21.84073
#
# Velocity S-wave (km/s) = 3.22212 3.40686 3.31578
# Velocity P-wave (km/s) = 5.82009 6.11168 5.96767
#
# Compressibility (1/GPa) = 0.02513091
#
# Stress axis : x y z
#
# Youngs Moduli (GPa) = 68.50251 46.74971 74.06964
#
# Poissons Ratio (x) = 0.40918 0.23918
# Poissons Ratio (y) = 0.59957 0.01464
# Poissons Ratio (z) = 0.22120 0.00924
#
# Static dielectric constant tensor:
#      x y z
#    x 1.740870 0.000000 0.000000 
#    y 0.000000 1.721270 0.000000 
#    z 0.000000 0.000000 1.762560 
# 
# From -- ./inp_files/12916.got.cif
#   From: 2010.05.17/outbox.cif.g08.bks.cpg/sg56_7_cif.got.tgz:12916.got - 2010.06.03 13:42:01.
