data_PCOD9430598
_publ_section_title
;
Structure prediction by ZEFSAII (Michael W. Deem and Ramdas Pophale) SiO2 
 PCOD9430598
Probable space group: P C C N
;
_chemical_formula_sum "Si O2"
_cell_formula_units_Z 56
_cell_length_a 20.092011
_cell_length_b 6.040050
_cell_length_c 22.794546
_cell_angle_alpha 90.000000
_cell_angle_beta 90.000000
_cell_angle_gamma 90.000000
_cell_volume 2766.272044
_symmetry_space_group_name_H-M "P C C N"
_symmetry_group_IT_number 56
_symmetry_cell_setting 'orthorhombic'
loop_
_space_group_symop_operation_xyz
x,y,z
1/2-x,1/2-y,z
1/2+x,-y,1/2-z
-x,1/2+y,1/2-z
-x,-y,-z
1/2+x,1/2+y,-z
1/2-x,y,1/2+z
x,1/2-y,1/2+z
loop_
_atom_site_type_symbol
_atom_site_label
_atom_site_fract_x
_atom_site_fract_y
_atom_site_fract_z
Si Si1 0.816513 0.875658 0.479724
Si Si2 0.354853 0.602502 0.809208
Si Si3 0.821721 0.639324 0.362841
Si Si4 0.750000 0.250000 0.903202
Si Si5 0.865695 0.487530 0.102168
Si Si6 0.750000 0.750000 0.670105
Si Si7 0.086546 0.547393 0.720577
Si Si8 0.032704 0.228849 0.323342
O O1 0.750000 0.750000 0.502532
O O2 0.845558 0.722550 0.426995
O O3 0.859101 0.965856 0.533312
O O4 0.788261 0.081678 0.444201
O O5 0.289310 0.451804 0.798427
O O6 0.368880 0.784737 0.759050
O O7 0.416692 0.434099 0.814467
O O8 0.352732 0.743252 0.870538
O O9 0.750000 0.750000 0.351561
O O10 0.803834 0.380960 0.366124
O O11 0.873157 0.650042 0.310576
O O12 0.807958 0.635267 0.132379
O O13 0.936152 0.581630 0.124853
O O14 0.037829 0.430222 0.766974
O O15 0.041428 0.677702 0.673876
#
# Coordination Sequence:
#
# PCOD9430598 Si02
#       8
#     8   8   8   4   8   4   8   8
#     4   9  18  35  59  84 121 158 197 246 315 373
#     4  10  22  36  57  86 123 156 202 248 310 364
#     4   9  21  40  57  88 116 159 206 251 306 361
#     4   8  18  34  56  84 112 158 196 234 314 360
#     4  10  20  35  58  91 121 153 196 254 306 372
#     4  10  20  36  52  92 124 150 192 252 308 360
#     4  11  21  43  63  81 122 170 206 255 295 383
#     4  10  22  39  60  85 114 162 211 241 307 365
#
# _framework density 20.243850999999999
#
# number of rings (size 3 to 8) (size 9 to 14) (size 15 to 20)
#    0.000    2.571    2.143    0.429    2.000    3.429 
#   21.857    0.714    0.000    1.714    0.000    0.000 
#    0.000    0.000    0.000    0.000    0.000    0.000 
#
# Total GULP energy -312087.563576 kJ/mol
# GULP energy per Si atom -5572.992207 kJ/mol
# Density = 2.019778 g / cm^3
# Si number density = 20.243851 Si / 1000 Ang^3
#
#
#
# Elastic Constant Matrix: (Units=GPa)
#
#
# Indices 1 2 3 4 5 6 
#
# 1 53.5984 8.5345 18.7112 0.0000 0.0000 0.0000
# 2 8.5345 74.7991 9.3709 0.0000 0.0000 0.0000
# 3 18.7112 9.3709 60.7285 0.0000 0.0000 0.0000
# 4 0.0000 0.0000 0.0000 -3.4633 0.0000 0.0000
# 5 0.0000 0.0000 0.0000 0.0000 14.5917 0.0000
# 6 0.0000 0.0000 0.0000 0.0000 0.0000 31.1869
#
#
#
# Elastic Compliance Matrix: (Units=1/GPa)
#
#
# Indices 1 2 3 4 5 6 
#
# 1 0.021098 -0.001624 -0.006250 0.000000 0.000000 0.000000
# 2 -0.001624 0.013758 -0.001622 0.000000 0.000000 0.000000
# 3 -0.006250 -0.001622 0.018643 0.000000 0.000000 0.000000
# 4 0.000000 0.000000 0.000000 -0.288739 0.000000 0.000000
# 5 0.000000 0.000000 0.000000 0.000000 0.068532 0.000000
# 6 0.000000 0.000000 0.000000 0.000000 0.000000 0.032065
#
#
# Mechanical properties :
#
#
# Convention : Reuss Voigt Hill
#
# Bulk Modulus (GPa) = 28.98123 29.15102 29.06613
# Shear Modulus (GPa) = -48.00810 18.63035 -14.68888
#
# Velocity S-wave (km/s) = -4.87508 3.03693 -2.69661
# Velocity P-wave (km/s) = 4.16430 5.16996 2.16646
#
# Compressibility (1/GPa) = 0.03450509
#
# Stress axis : x y z
#
# Youngs Moduli (GPa) = 47.39852 72.68639 53.64023
#
# Poissons Ratio (x) = 0.11806 0.33524
# Poissons Ratio (y) = 0.07699 0.08703
# Poissons Ratio (z) = 0.29623 0.11793
#
# Static dielectric constant tensor:
#      x y z
#    x 1.814510 0.000000 0.000000 
#    y 0.000000 1.780840 0.000000 
#    z 0.000000 0.000000 1.733810 
# 
# From -- ./inp_files/20150.got.cif
#   From: 2010.05.17/outbox.cif.g08.bks.cpg/sg56_11_cif.got.tgz:20150.got - 2010.06.03 13:42:01.
