data_PCOD9430821
_publ_section_title
;
Structure prediction by ZEFSAII (Michael W. Deem and Ramdas Pophale) SiO2 
 PCOD9430821
Probable space group: P C C N
;
_chemical_formula_sum "Si O2"
_cell_formula_units_Z 64
_cell_length_a 7.386360
_cell_length_b 26.414497
_cell_length_c 17.009313
_cell_angle_alpha 90.000000
_cell_angle_beta 90.000000
_cell_angle_gamma 90.000000
_cell_volume 3318.635760
_symmetry_space_group_name_H-M "P C C N"
_symmetry_group_IT_number 56
_symmetry_cell_setting 'orthorhombic'
loop_
_space_group_symop_operation_xyz
x,y,z
1/2-x,1/2-y,z
1/2+x,-y,1/2-z
-x,1/2+y,1/2-z
-x,-y,-z
1/2+x,1/2+y,-z
1/2-x,y,1/2+z
x,1/2-y,1/2+z
loop_
_atom_site_type_symbol
_atom_site_label
_atom_site_fract_x
_atom_site_fract_y
_atom_site_fract_z
Si Si1 0.608185 0.349975 0.498524
Si Si2 0.302747 0.808892 0.655793
Si Si3 0.481990 0.619091 0.731634
Si Si4 0.184212 0.308396 0.263894
Si Si5 0.777915 0.809506 0.418181
Si Si6 0.919140 0.125054 0.089730
Si Si7 0.302072 0.979961 0.487210
Si Si8 0.500350 0.952567 0.089655
O O1 0.736688 0.328442 0.429540
O O2 0.427539 0.319735 0.516631
O O3 0.733088 0.344279 0.576638
O O4 0.524513 0.404307 0.469671
O O5 0.250000 0.750000 0.664395
O O6 0.187764 0.845145 0.712465
O O7 0.510946 0.814616 0.680549
O O8 0.655435 0.653794 0.712370
O O9 0.465462 0.606980 0.823040
O O10 0.491472 0.570591 0.675866
O O11 0.250000 0.250000 0.268246
O O12 0.154236 0.321138 0.171170
O O13 0.750000 0.750000 0.418145
O O14 0.594646 0.841845 0.433863
O O15 0.853854 0.076813 0.039392
O O16 0.181355 0.982636 0.566302
O O17 0.500000 0.000000 0.500000
O O18 0.175439 0.012865 0.428111
#
# Coordination Sequence:
#
# PCOD9430821 Si02
#       8
#     8   8   8   8   8   8   8   8
#     4  10  22  38  56  88 123 157 198 250 297 357
#     4  11  22  35  56  85 118 164 204 246 295 352
#     4  10  21  40  60  87 124 154 206 253 295 366
#     4  10  20  38  58  83 117 164 202 242 298 355
#     4  10  22  37  58  87 122 161 199 244 295 359
#     4  10  22  40  62  87 119 159 202 246 309 365
#     4  10  20  40  66  87 116 157 196 247 315 368
#     4   9  21  39  60  88 120 151 195 255 302 352
#
# _framework density 19.285034
#
# number of rings (size 3 to 8) (size 9 to 14) (size 15 to 20)
#    0.000    2.000    1.250    1.500    1.750    5.000 
#    2.250    0.000    0.000    0.000    0.000    0.000 
#    0.000    0.000    0.000    0.000    0.000    0.000 
#
# Total GULP energy -356284.219310 kJ/mol
# GULP energy per Si atom -5566.940927 kJ/mol
# Density = 1.924114 g / cm^3
# Si number density = 19.285034 Si / 1000 Ang^3
#
#
#
# Elastic Constant Matrix: (Units=GPa)
#
#
# Indices 1 2 3 4 5 6 
#
# 1 142.8242 30.2978 35.9066 0.0000 0.0000 0.0000
# 2 30.2978 36.5486 5.9048 0.0000 0.0000 0.0000
# 3 35.9066 5.9048 28.2472 0.0000 0.0000 0.0000
# 4 0.0000 0.0000 0.0000 16.9870 0.0000 0.0000
# 5 0.0000 0.0000 0.0000 0.0000 29.0731 0.0000
# 6 0.0000 0.0000 0.0000 0.0000 0.0000 27.9656
#
#
#
# Elastic Compliance Matrix: (Units=1/GPa)
#
#
# Indices 1 2 3 4 5 6 
#
# 1 0.012125 -0.007826 -0.013777 0.000000 0.000000 0.000000
# 2 -0.007826 0.033368 0.002972 0.000000 0.000000 0.000000
# 3 -0.013777 0.002972 0.052294 0.000000 0.000000 0.000000
# 4 0.000000 0.000000 0.000000 0.058868 0.000000 0.000000
# 5 0.000000 0.000000 0.000000 0.000000 0.034396 0.000000
# 6 0.000000 0.000000 0.000000 0.000000 0.000000 0.035758
#
#
# Mechanical properties :
#
#
# Convention : Reuss Voigt Hill
#
# Bulk Modulus (GPa) = 16.52193 39.09315 27.80754
# Shear Modulus (GPa) = 17.59039 23.83919 20.71479
#
# Velocity S-wave (km/s) = 3.02342 3.51971 3.28096
# Velocity P-wave (km/s) = 4.55784 6.06902 5.36689
#
# Compressibility (1/GPa) = 0.06052563
#
# Stress axis : x y z
#
# Youngs Moduli (GPa) = 82.47144 29.96886 19.12281
#
# Poissons Ratio (x) = 0.23453 0.26346
# Poissons Ratio (y) = 0.64540 -0.05684
# Poissons Ratio (z) = 1.13624 -0.08908
#
# Static dielectric constant tensor:
#      x y z
#    x 1.695780 0.000000 0.000000 
#    y 0.000000 1.813240 0.000000 
#    z 0.000000 0.000000 1.723970 
# 
# From -- ./inp_files/14194.got.cif
#   From: 2010.05.17/outbox.cif.g08.bks.cpg/sg56_8_cif.got.tgz:14194.got - 2010.06.03 13:42:01.
