data_PCOD9430899
_publ_section_title
;
Structure prediction by ZEFSAII (Michael W. Deem and Ramdas Pophale) SiO2 
 PCOD9430899
Probable space group: P C C N
;
_chemical_formula_sum "Si O2"
_cell_formula_units_Z 64
_cell_length_a 14.902103
_cell_length_b 11.983310
_cell_length_c 17.451152
_cell_angle_alpha 90.000000
_cell_angle_beta 90.000000
_cell_angle_gamma 90.000000
_cell_volume 3116.365992
_symmetry_space_group_name_H-M "P C C N"
_symmetry_group_IT_number 56
_symmetry_cell_setting 'orthorhombic'
loop_
_space_group_symop_operation_xyz
x,y,z
1/2-x,1/2-y,z
1/2+x,-y,1/2-z
-x,1/2+y,1/2-z
-x,-y,-z
1/2+x,1/2+y,-z
1/2-x,y,1/2+z
x,1/2-y,1/2+z
loop_
_atom_site_type_symbol
_atom_site_label
_atom_site_fract_x
_atom_site_fract_y
_atom_site_fract_z
Si Si1 0.505931 0.197280 0.784353
Si Si2 0.852038 0.501467 0.509906
Si Si3 0.920314 0.152981 0.648671
Si Si4 0.125443 0.474675 0.738613
Si Si5 0.008588 0.587328 0.611639
Si Si6 0.577191 0.016469 0.888155
Si Si7 0.687104 0.343162 0.506285
Si Si8 0.748367 0.622144 0.881405
O O1 0.532128 0.257530 0.704530
O O2 0.409443 0.138059 0.777599
O O3 0.505386 0.291084 0.850333
O O4 0.569619 0.096241 0.813472
O O5 0.918565 0.425774 0.456909
O O6 0.761078 0.435867 0.530125
O O7 0.816208 0.599620 0.453934
O O8 0.913597 0.547554 0.577924
O O9 0.862211 0.204955 0.580947
O O10 0.860348 0.076614 0.704513
O O11 0.987363 0.058924 0.612820
O O12 0.045448 0.509580 0.680132
O O13 0.209917 0.451357 0.687076
O O14 0.653141 0.923407 0.893305
O O15 0.610206 0.101559 0.954158
O O16 0.750000 0.250000 0.466542
O O17 0.750000 0.750000 0.861173
#
# Coordination Sequence:
#
# PCOD9430899 Si02
#       8
#     8   8   8   8   8   8   8   8
#     4  10  20  38  63  91 115 164 205 245 314 374
#     4   9  20  38  59  87 114 156 200 255 299 372
#     4  10  22  40  59  91 125 163 204 258 313 375
#     4   9  20  37  57  84 119 151 203 244 300 373
#     4   9  18  38  63  81 117 156 199 246 308 366
#     4  10  22  42  65  86 129 167 205 254 316 381
#     4  11  23  38  60  95 126 157 211 265 318 367
#     4  10  20  39  60  86 116 159 202 243 302 371
#
# _framework density 20.536740000000002
#
# number of rings (size 3 to 8) (size 9 to 14) (size 15 to 20)
#    0.000    2.250    0.000    1.875    1.750    2.000 
#   22.500    0.000    0.000    0.000    0.000    0.000 
#    0.000    0.000    0.000    0.000    0.000    0.000 
#
# Total GULP energy -356702.579413 kJ/mol
# GULP energy per Si atom -5573.477803 kJ/mol
# Density = 2.049000 g / cm^3
# Si number density = 20.536740 Si / 1000 Ang^3
#
#
#
# Elastic Constant Matrix: (Units=GPa)
#
#
# Indices 1 2 3 4 5 6 
#
# 1 26.2092 -11.3856 9.4512 0.0000 0.0000 0.0000
# 2 -11.3856 45.2102 -1.5696 0.0000 0.0000 0.0000
# 3 9.4512 -1.5696 54.0476 0.0000 0.0000 0.0000
# 4 0.0000 0.0000 0.0000 19.0274 0.0000 0.0000
# 5 0.0000 0.0000 0.0000 0.0000 5.2521 0.0000
# 6 0.0000 0.0000 0.0000 0.0000 0.0000 17.6985
#
#
#
# Elastic Compliance Matrix: (Units=1/GPa)
#
#
# Indices 1 2 3 4 5 6 
#
# 1 0.045823 0.011273 -0.007686 0.000000 0.000000 0.000000
# 2 0.011273 0.024915 -0.001248 0.000000 0.000000 0.000000
# 3 -0.007686 -0.001248 0.019810 0.000000 0.000000 0.000000
# 4 0.000000 0.000000 0.000000 0.052556 0.000000 0.000000
# 5 0.000000 0.000000 0.000000 0.000000 0.190400 0.000000
# 6 0.000000 0.000000 0.000000 0.000000 0.000000 0.056502
#
#
# Mechanical properties :
#
#
# Convention : Reuss Voigt Hill
#
# Bulk Modulus (GPa) = 10.50120 13.16211 11.83165
# Shear Modulus (GPa) = 11.98844 16.99367 14.49106
#
# Velocity S-wave (km/s) = 2.41873 2.87971 2.65923
# Velocity P-wave (km/s) = 3.59511 4.18090 3.89902
#
# Compressibility (1/GPa) = 0.09522725
#
# Stress axis : x y z
#
# Youngs Moduli (GPa) = 21.82300 40.13715 50.47969
#
# Poissons Ratio (x) = -0.45247 0.38797
# Poissons Ratio (y) = -0.24601 0.06299
# Poissons Ratio (z) = 0.16772 0.05008
#
# Static dielectric constant tensor:
#      x y z
#    x 1.713320 0.000000 0.000000 
#    y 0.000000 1.756990 0.000000 
#    z 0.000000 0.000000 1.760990 
# 
# From -- ./inp_files/16355.got.cif
#   From: 2010.05.17/outbox.cif.g08.bks.cpg/sg56_9_cif.got.tgz:16355.got - 2010.06.03 13:42:01.
