data_PCOD9430016
_publ_section_title
;
Structure prediction by ZEFSAII (Michael W. Deem and Ramdas Pophale) SiO2 
 PCOD9430016
Probable space group: P C C N
;
_chemical_formula_sum "Si O2"
_cell_formula_units_Z 64
_cell_length_a 27.914385
_cell_length_b 18.364931
_cell_length_c 5.361865
_cell_angle_alpha 90.000000
_cell_angle_beta 90.000000
_cell_angle_gamma 90.000000
_cell_volume 2748.737328
_symmetry_space_group_name_H-M "P C C N"
_symmetry_group_IT_number 56
_symmetry_cell_setting 'orthorhombic'
loop_
_space_group_symop_operation_xyz
x,y,z
1/2-x,1/2-y,z
1/2+x,-y,1/2-z
-x,1/2+y,1/2-z
-x,-y,-z
1/2+x,1/2+y,-z
1/2-x,y,1/2+z
x,1/2-y,1/2+z
loop_
_atom_site_type_symbol
_atom_site_label
_atom_site_fract_x
_atom_site_fract_y
_atom_site_fract_z
Si Si1 0.651620 0.280539 0.593817
Si Si2 0.563095 0.179272 0.614478
Si Si3 0.893676 0.590920 0.480087
Si Si4 0.116202 0.929739 0.525077
Si Si5 0.303066 0.281188 0.679527
Si Si6 0.953958 0.037875 0.872097
Si Si7 0.041500 0.210901 0.252603
Si Si8 0.657774 0.581313 0.472688
O O1 0.675279 0.259781 0.329136
O O2 0.599181 0.243011 0.543260
O O3 0.642208 0.366213 0.640439
O O4 0.542324 0.124743 0.403966
O O5 0.516066 0.205061 0.757178
O O6 0.596383 0.121622 0.759023
O O7 0.911284 0.507837 0.500076
O O8 0.935733 0.636647 0.349642
O O9 0.853316 0.594205 0.264215
O O10 0.879707 0.611024 0.761280
O O11 0.067519 0.966517 0.409437
O O12 0.153984 0.994689 0.563794
O O13 0.250000 0.250000 0.708851
O O14 0.327012 0.240787 0.442434
O O15 0.299240 0.366264 0.609400
O O16 0.000000 0.000000 0.000000
O O17 0.055435 0.233419 0.531040
#
# Coordination Sequence:
#
# PCOD9430016 Si02
#       8
#     8   8   8   8   8   8   8   8
#     4  10  19  32  52  72  98 137 186 241 294 343
#     4  11  21  35  52  71  98 145 199 253 301 346
#     4  11  24  39  53  79 111 150 193 248 312 361
#     4  10  22  35  54  80 110 143 196 247 313 365
#     4  10  22  42  69  97 123 157 193 228 273 351
#     4  11  21  35  50  70 102 145 202 257 308 356
#     4  12  26  38  52  72 100 141 202 262 306 357
#     4  11  23  39  62  87 116 151 185 237 303 360
#
# _framework density 23.283415000000002
#
# number of rings (size 3 to 8) (size 9 to 14) (size 15 to 20)
#    0.000    1.250    3.750    3.000    1.750    4.500 
#    0.000    0.000    0.000    0.000    0.000    0.000 
#    0.000    0.000    0.000   54.000    0.000    0.000 
#
# Total GULP energy -356321.410035 kJ/mol
# GULP energy per Si atom -5567.522032 kJ/mol
# Density = 2.323042 g / cm^3
# Si number density = 23.283415 Si / 1000 Ang^3
#
#
#
# Elastic Constant Matrix: (Units=GPa)
#
#
# Indices 1 2 3 4 5 6 
#
# 1 20.5212 20.1945 -0.1515 0.0000 0.0000 0.0000
# 2 20.1945 147.2921 18.9135 0.0000 0.0000 0.0000
# 3 -0.1515 18.9135 114.8123 0.0000 0.0000 0.0000
# 4 0.0000 0.0000 0.0000 38.3923 0.0000 0.0000
# 5 0.0000 0.0000 0.0000 0.0000 12.7844 0.0000
# 6 0.0000 0.0000 0.0000 0.0000 0.0000 34.2815
#
#
#
# Elastic Compliance Matrix: (Units=1/GPa)
#
#
# Indices 1 2 3 4 5 6 
#
# 1 0.056544 -0.007930 0.001381 0.000000 0.000000 0.000000
# 2 -0.007930 0.008048 -0.001336 0.000000 0.000000 0.000000
# 3 0.001381 -0.001336 0.008932 0.000000 0.000000 0.000000
# 4 0.000000 0.000000 0.000000 0.026047 0.000000 0.000000
# 5 0.000000 0.000000 0.000000 0.000000 0.078220 0.000000
# 6 0.000000 0.000000 0.000000 0.000000 0.000000 0.029170
#
#
# Mechanical properties :
#
#
# Convention : Reuss Voigt Hill
#
# Bulk Modulus (GPa) = 17.31501 40.05984 28.68743
# Shear Modulus (GPa) = 20.66268 33.33624 26.99946
#
# Velocity S-wave (km/s) = 2.98223 3.78796 3.40898
# Velocity P-wave (km/s) = 4.39443 6.03110 5.27661
#
# Compressibility (1/GPa) = 0.05775335
#
# Stress axis : x y z
#
# Youngs Moduli (GPa) = 17.68546 124.25417 111.95930
#
# Poissons Ratio (x) = 0.98530 -0.15461
# Poissons Ratio (y) = 0.14024 0.14961
# Poissons Ratio (z) = -0.02442 0.16603
#
# Static dielectric constant tensor:
#      x y z
#    x 1.949980 0.000000 0.000000 
#    y 0.000000 1.974330 0.000000 
#    z 0.000000 0.000000 2.126560 
# 
# From -- ./inp_files/1384.got.cif
#   From: 2010.05.17/outbox.cif.g08.bks.cpg/sg56_1_cif.got.tgz:1384.got - 2010.06.03 13:42:01.
