data_PCOD9430892
_publ_section_title
;
Structure prediction by ZEFSAII (Michael W. Deem and Ramdas Pophale) SiO2 
 PCOD9430892
Probable space group: P C C N
;
_chemical_formula_sum "Si O2"
_cell_formula_units_Z 56
_cell_length_a 9.114626
_cell_length_b 13.754698
_cell_length_c 21.482754
_cell_angle_alpha 90.000000
_cell_angle_beta 90.000000
_cell_angle_gamma 90.000000
_cell_volume 2693.269840
_symmetry_space_group_name_H-M "P C C N"
_symmetry_group_IT_number 56
_symmetry_cell_setting 'orthorhombic'
loop_
_space_group_symop_operation_xyz
x,y,z
1/2-x,1/2-y,z
1/2+x,-y,1/2-z
-x,1/2+y,1/2-z
-x,-y,-z
1/2+x,1/2+y,-z
1/2-x,y,1/2+z
x,1/2-y,1/2+z
loop_
_atom_site_type_symbol
_atom_site_label
_atom_site_fract_x
_atom_site_fract_y
_atom_site_fract_z
Si Si1 0.709015 0.438488 0.639298
Si Si2 0.250000 0.250000 0.194261
Si Si3 0.936235 0.559829 0.559253
Si Si4 0.833387 0.157458 0.262132
Si Si5 0.688394 0.487551 0.853812
Si Si6 0.090725 0.151537 0.594525
Si Si7 0.250000 0.250000 0.483216
Si Si8 0.628862 0.594842 0.738695
O O1 0.828192 0.483230 0.593179
O O2 0.776912 0.369536 0.693096
O O3 0.571565 0.389924 0.604100
O O4 0.649832 0.529215 0.679902
O O5 0.382976 0.237611 0.145143
O O6 0.234098 0.344061 0.237508
O O7 0.843767 0.660864 0.548771
O O8 0.000000 0.500000 0.500000
O O9 0.081562 0.572947 0.601952
O O10 0.750000 0.250000 0.284974
O O11 0.799068 0.071320 0.310019
O O12 0.004715 0.174688 0.267307
O O13 0.785478 0.568827 0.889578
O O14 0.585140 0.533842 0.799916
O O15 0.132643 0.195105 0.527885
#
# Coordination Sequence:
#
# PCOD9430892 Si02
#       8
#     8   4   8   8   8   8   4   8
#     4  11  24  39  69  95 137 175 219 278 346 400
#     4   9  20  33  68  96 134 167 219 270 330 408
#     4  12  26  47  69  96 134 183 227 286 343 404
#     4  11  22  36  64 102 137 168 221 271 340 415
#     4  10  21  42  66  90 138 176 211 278 347 392
#     4  10  20  43  67  94 126 180 233 272 328 411
#     4  11  26  45  74  92 124 183 247 274 342 418
#     4  10  20  38  62  99 131 176 211 268 345 412
#
# _framework density 20.792569
#
# number of rings (size 3 to 8) (size 9 to 14) (size 15 to 20)
#    0.000    1.429    4.286    0.857    0.000    4.571 
#    0.000    0.000    0.000    0.000    0.000    0.000 
#    0.000    0.000    0.000    0.000    0.000    0.000 
#
# Total GULP energy -311881.275629 kJ/mol
# GULP energy per Si atom -5569.308493 kJ/mol
# Density = 2.074524 g / cm^3
# Si number density = 20.792569 Si / 1000 Ang^3
#
#
#
# Elastic Constant Matrix: (Units=GPa)
#
#
# Indices 1 2 3 4 5 6 
#
# 1 74.8760 5.2671 27.9660 0.0000 0.0000 0.0000
# 2 5.2671 68.0428 23.6653 0.0000 0.0000 0.0000
# 3 27.9660 23.6653 75.0605 0.0000 0.0000 0.0000
# 4 0.0000 0.0000 0.0000 32.2932 0.0000 0.0000
# 5 0.0000 0.0000 0.0000 0.0000 13.6752 0.0000
# 6 0.0000 0.0000 0.0000 0.0000 0.0000 37.7276
#
#
#
# Elastic Compliance Matrix: (Units=1/GPa)
#
#
# Indices 1 2 3 4 5 6 
#
# 1 0.015565 0.000912 -0.006087 0.000000 0.000000 0.000000
# 2 0.000912 0.016560 -0.005561 0.000000 0.000000 0.000000
# 3 -0.006087 -0.005561 0.017344 0.000000 0.000000 0.000000
# 4 0.000000 0.000000 0.000000 0.030966 0.000000 0.000000
# 5 0.000000 0.000000 0.000000 0.000000 0.073125 0.000000
# 6 0.000000 0.000000 0.000000 0.000000 0.000000 0.026506
#
#
# Mechanical properties :
#
#
# Convention : Reuss Voigt Hill
#
# Bulk Modulus (GPa) = 35.71763 36.86400 36.29082
# Shear Modulus (GPa) = 23.71139 27.47791 25.59465
#
# Velocity S-wave (km/s) = 3.38061 3.63922 3.51230
# Velocity P-wave (km/s) = 5.69679 5.95202 5.82580
#
# Compressibility (1/GPa) = 0.02799738
#
# Stress axis : x y z
#
# Youngs Moduli (GPa) = 64.24847 60.38595 57.65814
#
# Poissons Ratio (x) = -0.05508 0.35094
# Poissons Ratio (y) = -0.05860 0.32063
# Poissons Ratio (z) = 0.39105 0.33580
#
# Static dielectric constant tensor:
#      x y z
#    x 1.850970 0.000000 0.000000 
#    y 0.000000 1.839170 0.000000 
#    z 0.000000 0.000000 1.744510 
# 
# From -- ./inp_files/18275.got.cif
#   From: 2010.05.17/outbox.cif.g08.bks.cpg/sg56_10_cif.got.tgz:18275.got - 2010.06.03 13:42:01.
