data_PCOD9430119
_publ_section_title
;
Structure prediction by ZEFSAII (Michael W. Deem and Ramdas Pophale) SiO2 
 PCOD9430119
Probable space group: P C C N
;
_chemical_formula_sum "Si O2"
_cell_formula_units_Z 64
_cell_length_a 16.212162
_cell_length_b 8.755892
_cell_length_c 20.170057
_cell_angle_alpha 90.000000
_cell_angle_beta 90.000000
_cell_angle_gamma 90.000000
_cell_volume 2863.178712
_symmetry_space_group_name_H-M "P C C N"
_symmetry_group_IT_number 56
_symmetry_cell_setting 'orthorhombic'
loop_
_space_group_symop_operation_xyz
x,y,z
1/2-x,1/2-y,z
1/2+x,-y,1/2-z
-x,1/2+y,1/2-z
-x,-y,-z
1/2+x,1/2+y,-z
1/2-x,y,1/2+z
x,1/2-y,1/2+z
loop_
_atom_site_type_symbol
_atom_site_label
_atom_site_fract_x
_atom_site_fract_y
_atom_site_fract_z
Si Si1 0.332345 0.847683 0.099332
Si Si2 0.566349 0.952669 0.086876
Si Si3 0.899384 0.859059 0.442717
Si Si4 0.397683 0.387237 0.163110
Si Si5 0.347298 0.743093 0.464021
Si Si6 0.103113 0.707988 0.721908
Si Si7 0.589954 0.776010 0.708316
Si Si8 0.097133 0.596536 0.342277
O O1 0.250000 0.750000 0.107703
O O2 0.377812 0.839893 0.169025
O O3 0.325988 0.020433 0.072841
O O4 0.381859 0.765573 0.038831
O O5 0.583726 0.855526 0.152402
O O6 0.479638 0.047443 0.086463
O O7 0.630427 0.088207 0.074024
O O8 0.578083 0.849928 0.020450
O O9 0.881168 0.701282 0.405409
O O10 0.365524 0.553813 0.185846
O O11 0.370313 0.280415 0.223927
O O12 0.497745 0.399385 0.162863
O O13 0.250000 0.750000 0.470676
O O14 0.380372 0.875417 0.418041
O O15 0.131143 0.770646 0.793180
O O16 0.005098 0.687979 0.726839
O O17 0.627483 0.931664 0.681078
#
# Coordination Sequence:
#
# PCOD9430119 Si02
#       8
#     8   8   8   8   8   8   8   8
#     4  10  21  37  56  78 109 149 188 228 281 344
#     4  10  19  34  56  82 112 146 189 237 283 338
#     4  10  19  34  56  82 112 146 189 237 283 338
#     4  10  20  32  55  84 111 143 183 234 285 334
#     4  10  21  37  56  78 109 149 188 228 281 344
#     4  10  20  34  54  81 112 145 183 232 282 337
#     4  10  20  32  55  84 111 143 183 234 285 334
#     4  10  20  34  54  81 112 145 183 232 282 337
#
# _framework density 22.352778000000001
#
# number of rings (size 3 to 8) (size 9 to 14) (size 15 to 20)
#    0.000    2.000    2.500    1.500    3.500    1.500 
#    0.000    3.750    0.000    6.000    0.000    0.000 
#    0.000    0.000    0.000    0.000    0.000    0.000 
#
# Total GULP energy -356812.648643 kJ/mol
# GULP energy per Si atom -5575.197635 kJ/mol
# Density = 2.230190 g / cm^3
# Si number density = 22.352778 Si / 1000 Ang^3
#
#
#
# Elastic Constant Matrix: (Units=GPa)
#
#
# Indices 1 2 3 4 5 6 
#
# 1 25.1863 5.7127 -8.2564 0.0000 0.0000 0.0000
# 2 5.7127 32.5484 -14.6967 0.0000 0.0000 0.0000
# 3 -8.2564 -14.6967 74.7218 0.0000 0.0000 0.0000
# 4 0.0000 0.0000 0.0000 32.6555 0.0000 0.0000
# 5 0.0000 0.0000 0.0000 0.0000 47.6530 0.0000
# 6 0.0000 0.0000 0.0000 0.0000 0.0000 16.5495
#
#
#
# Elastic Compliance Matrix: (Units=1/GPa)
#
#
# Indices 1 2 3 4 5 6 
#
# 1 0.042176 -0.005815 0.003517 0.000000 0.000000 0.000000
# 2 -0.005815 0.034520 0.006147 0.000000 0.000000 0.000000
# 3 0.003517 0.006147 0.014981 0.000000 0.000000 0.000000
# 4 0.000000 0.000000 0.000000 0.030623 0.000000 0.000000
# 5 0.000000 0.000000 0.000000 0.000000 0.020985 0.000000
# 6 0.000000 0.000000 0.000000 0.000000 0.000000 0.060425
#
#
# Mechanical properties :
#
#
# Convention : Reuss Voigt Hill
#
# Bulk Modulus (GPa) = 10.06298 10.88617 10.47457
# Shear Modulus (GPa) = 21.82120 29.35138 25.58629
#
# Velocity S-wave (km/s) = 3.12784 3.62760 3.38695
# Velocity P-wave (km/s) = 4.19001 4.73569 4.47118
#
# Compressibility (1/GPa) = 0.09937416
#
# Stress axis : x y z
#
# Youngs Moduli (GPa) = 23.71035 28.96903 66.75304
#
# Poissons Ratio (x) = 0.16844 -0.23474
# Poissons Ratio (y) = 0.13786 -0.41033
# Poissons Ratio (z) = -0.08338 -0.17807
#
# Static dielectric constant tensor:
#      x y z
#    x 1.885290 0.000000 0.000000 
#    y 0.000000 1.873550 0.000000 
#    z 0.000000 0.000000 1.852300 
# 
# From -- ./inp_files/19325.got.cif
#   From: 2010.05.17/outbox.cif.g08.bks.cpg/sg56_10_cif.got.tgz:19325.got - 2010.06.03 13:42:01.
