data_PCOD9430461
_publ_section_title
;
Structure prediction by ZEFSAII (Michael W. Deem and Ramdas Pophale) SiO2 
 PCOD9430461
Probable space group: P C C N
;
_chemical_formula_sum "Si O2"
_cell_formula_units_Z 52
_cell_length_a 13.819677
_cell_length_b 10.075179
_cell_length_c 18.002803
_cell_angle_alpha 90.000000
_cell_angle_beta 90.000000
_cell_angle_gamma 90.000000
_cell_volume 2506.633229
_symmetry_space_group_name_H-M "P C C N"
_symmetry_group_IT_number 56
_symmetry_cell_setting 'orthorhombic'
loop_
_space_group_symop_operation_xyz
x,y,z
1/2-x,1/2-y,z
1/2+x,-y,1/2-z
-x,1/2+y,1/2-z
-x,-y,-z
1/2+x,1/2+y,-z
1/2-x,y,1/2+z
x,1/2-y,1/2+z
loop_
_atom_site_type_symbol
_atom_site_label
_atom_site_fract_x
_atom_site_fract_y
_atom_site_fract_z
Si Si1 0.410470 0.692800 0.760029
Si Si2 0.250000 0.750000 0.526039
Si Si3 0.446922 0.386612 0.936778
Si Si4 0.350179 0.921673 0.646020
Si Si5 0.112818 0.302986 0.812275
Si Si6 0.078098 0.822095 0.932069
Si Si7 0.225596 0.438067 0.251139
O O1 0.367375 0.816069 0.713280
O O2 0.510120 0.651755 0.719413
O O3 0.431460 0.719132 0.846759
O O4 0.336102 0.570936 0.756723
O O5 0.279578 0.865391 0.582974
O O6 0.343187 0.732645 0.474118
O O7 0.544290 0.430794 0.891132
O O8 0.400545 0.270052 0.890009
O O9 0.386777 0.522790 0.936702
O O10 0.483002 0.332484 0.015967
O O11 0.296597 0.047775 0.680470
O O12 0.194959 0.413835 0.815229
O O13 0.153714 0.186273 0.757966
#
# Coordination Sequence:
#
# PCOD9430461 Si02
#       7
#     8   4   8   8   8   8   8
#     4  11  21  37  62  90 118 160 206 257 308 369
#     4  10  20  32  54  96 118 158 204 244 298 374
#     4   9  19  38  57  82 117 165 192 245 309 370
#     4  10  20  37  61  88 121 161 207 249 308 364
#     4  10  23  37  62  90 121 157 208 258 311 362
#     4  10  20  33  58  83 118 155 200 243 302 364
#     4  11  21  37  62  90 118 155 208 258 300 360
#
# _framework density 20.744956999999999
#
# number of rings (size 3 to 8) (size 9 to 14) (size 15 to 20)
#    0.000    1.846    3.077    0.923    4.308    0.000 
#    0.000    0.000    6.769    3.692    0.000    0.000 
#    0.000    0.000    0.000    0.000    0.000    0.000 
#
# Total GULP energy -289944.405373 kJ/mol
# GULP energy per Si atom -5575.853949 kJ/mol
# Density = 2.069774 g / cm^3
# Si number density = 20.744957 Si / 1000 Ang^3
#
#
#
# Elastic Constant Matrix: (Units=GPa)
#
#
# Indices 1 2 3 4 5 6 
#
# 1 87.2274 33.3673 18.8460 0.0000 0.0000 0.0000
# 2 33.3673 51.5952 31.8125 0.0000 0.0000 0.0000
# 3 18.8460 31.8125 108.2342 0.0000 0.0000 0.0000
# 4 0.0000 0.0000 0.0000 27.7839 0.0000 0.0000
# 5 0.0000 0.0000 0.0000 0.0000 13.8562 0.0000
# 6 0.0000 0.0000 0.0000 0.0000 0.0000 32.1800
#
#
#
# Elastic Compliance Matrix: (Units=1/GPa)
#
#
# Indices 1 2 3 4 5 6 
#
# 1 0.015240 -0.010039 0.000297 0.000000 0.000000 0.000000
# 2 -0.010039 0.030285 -0.007153 0.000000 0.000000 0.000000
# 3 0.000297 -0.007153 0.011290 0.000000 0.000000 0.000000
# 4 0.000000 0.000000 0.000000 0.035992 0.000000 0.000000
# 5 0.000000 0.000000 0.000000 0.000000 0.072170 0.000000
# 6 0.000000 0.000000 0.000000 0.000000 0.000000 0.031075
#
#
# Mechanical properties :
#
#
# Convention : Reuss Voigt Hill
#
# Bulk Modulus (GPa) = 43.43276 46.12316 44.77796
# Shear Modulus (GPa) = 21.05101 25.63278 23.34189
#
# Velocity S-wave (km/s) = 3.18897 3.51894 3.35802
# Velocity P-wave (km/s) = 5.87719 6.22835 6.05532
#
# Compressibility (1/GPa) = 0.02302410
#
# Stress axis : x y z
#
# Youngs Moduli (GPa) = 65.61467 33.01981 88.57389
#
# Poissons Ratio (x) = 0.33150 -0.02632
# Poissons Ratio (y) = 0.65873 0.63360
# Poissons Ratio (z) = -0.01949 0.23620
#
# Static dielectric constant tensor:
#      x y z
#    x 1.791140 0.000000 0.000000 
#    y 0.000000 1.758690 0.000000 
#    z 0.000000 0.000000 1.780370 
# 
# From -- ./inp_files/19182.got.cif
#   From: 2010.05.17/outbox.cif.g08.bks.cpg/sg56_10_cif.got.tgz:19182.got - 2010.06.03 13:42:01.
