data_PCOD9430195
_publ_section_title
;
Structure prediction by ZEFSAII (Michael W. Deem and Ramdas Pophale) SiO2 
 PCOD9430195
Probable space group: P C C N
;
_chemical_formula_sum "Si O2"
_cell_formula_units_Z 64
_cell_length_a 8.178308
_cell_length_b 11.842911
_cell_length_c 31.689874
_cell_angle_alpha 90.000000
_cell_angle_beta 90.000000
_cell_angle_gamma 90.000000
_cell_volume 3069.321915
_symmetry_space_group_name_H-M "P C C N"
_symmetry_group_IT_number 56
_symmetry_cell_setting 'orthorhombic'
loop_
_space_group_symop_operation_xyz
x,y,z
1/2-x,1/2-y,z
1/2+x,-y,1/2-z
-x,1/2+y,1/2-z
-x,-y,-z
1/2+x,1/2+y,-z
1/2-x,y,1/2+z
x,1/2-y,1/2+z
loop_
_atom_site_type_symbol
_atom_site_label
_atom_site_fract_x
_atom_site_fract_y
_atom_site_fract_z
Si Si1 0.517141 0.502689 0.890049
Si Si2 0.315448 0.372105 0.650698
Si Si3 0.911477 0.584790 0.693824
Si Si4 0.702627 0.382105 0.051604
Si Si5 0.758169 0.000133 0.272003
Si Si6 0.483925 0.017872 0.902970
Si Si7 0.922696 0.187724 0.328392
Si Si8 0.216266 0.881964 0.045685
O O1 0.680648 0.538749 0.865729
O O2 0.396712 0.463965 0.853299
O O3 0.454172 0.603510 0.918742
O O4 0.567329 0.406693 0.922770
O O5 0.250000 0.250000 0.641507
O O6 0.323414 0.394819 0.700285
O O7 0.473059 0.407090 0.624874
O O8 0.771094 0.538197 0.723876
O O9 0.073439 0.532393 0.716158
O O10 0.953333 0.716595 0.688060
O O11 0.750000 0.250000 0.053304
O O12 0.827080 0.476045 0.070883
O O13 0.677805 0.411987 0.002584
O O14 0.865843 0.104315 0.290528
O O15 0.498826 0.118048 0.867583
O O16 0.626252 0.050097 0.936651
O O17 0.750000 0.250000 0.341663
O O18 0.250000 0.750000 0.047022
#
# Coordination Sequence:
#
# PCOD9430195 Si02
#       8
#     8   8   8   8   8   8   8   8
#     4  10  21  37  56  80 112 151 191 231 285 344
#     4   9  18  34  55  76 106 149 190 226 274 341
#     4  10  20  36  56  79 110 145 187 234 280 331
#     4  11  23  37  55  85 119 147 184 241 295 338
#     4   9  20  34  53  81 108 142 186 231 278 329
#     4  10  19  35  60  86 111 146 193 234 281 341
#     4   9  18  37  60  81 111 150 189 230 279 335
#     4  10  20  38  62  82 110 152 192 233 288 349
#
# _framework density 20.851512
#
# number of rings (size 3 to 8) (size 9 to 14) (size 15 to 20)
#    0.000    2.250    0.000    4.875    0.000    4.000 
#    0.000    5.625    0.000    7.500    0.000    0.000 
#    0.000    0.000    0.000    0.000    0.000    0.000 
#
# Total GULP energy -356863.809012 kJ/mol
# GULP energy per Si atom -5575.997016 kJ/mol
# Density = 2.080405 g / cm^3
# Si number density = 20.851512 Si / 1000 Ang^3
#
#
#
# Elastic Constant Matrix: (Units=GPa)
#
#
# Indices 1 2 3 4 5 6 
#
# 1 27.8469 2.7042 31.0623 0.0000 0.0000 0.0000
# 2 2.7042 82.5907 45.7168 0.0000 0.0000 0.0000
# 3 31.0623 45.7168 148.3367 0.0000 0.0000 0.0000
# 4 0.0000 0.0000 0.0000 60.5401 0.0000 0.0000
# 5 0.0000 0.0000 0.0000 0.0000 -73.5282 0.0000
# 6 0.0000 0.0000 0.0000 0.0000 0.0000 27.7551
#
#
#
# Elastic Compliance Matrix: (Units=1/GPa)
#
#
# Indices 1 2 3 4 5 6 
#
# 1 0.048418 0.004855 -0.011635 0.000000 0.000000 0.000000
# 2 0.004855 0.015085 -0.005666 0.000000 0.000000 0.000000
# 3 -0.011635 -0.005666 0.010924 0.000000 0.000000 0.000000
# 4 0.000000 0.000000 0.000000 0.016518 0.000000 0.000000
# 5 0.000000 0.000000 0.000000 0.000000 -0.013600 0.000000
# 6 0.000000 0.000000 0.000000 0.000000 0.000000 0.036029
#
#
# Mechanical properties :
#
#
# Convention : Reuss Voigt Hill
#
# Bulk Modulus (GPa) = 20.18765 46.41565 33.30165
# Shear Modulus (GPa) = 32.30435 14.90612 23.60523
#
# Velocity S-wave (km/s) = 3.94033 2.67661 3.36827
# Velocity P-wave (km/s) = 5.51400 5.64453 5.57965
#
# Compressibility (1/GPa) = 0.04953523
#
# Stress axis : x y z
#
# Youngs Moduli (GPa) = 20.65355 66.29016 91.54078
#
# Poissons Ratio (x) = -0.32185 1.06510
# Poissons Ratio (y) = -0.10028 0.51866
# Poissons Ratio (z) = 0.24031 0.37559
#
# Static dielectric constant tensor:
#      x y z
#    x 1.840210 0.000000 0.000000 
#    y 0.000000 1.765650 0.000000 
#    z 0.000000 0.000000 1.757100 
# 
# From -- ./inp_files/23385.got.cif
#   From: 2010.05.17/outbox.cif.g08.bks.cpg/sg56_12_cif.got.tgz:23385.got - 2010.06.03 13:42:01.
