data_PCOD9430934
_publ_section_title
;
Structure prediction by ZEFSAII (Michael W. Deem and Ramdas Pophale) SiO2 
 PCOD9430934
Probable space group: P C C N
;
_chemical_formula_sum "Si O2"
_cell_formula_units_Z 64
_cell_length_a 9.271131
_cell_length_b 19.150644
_cell_length_c 16.881712
_cell_angle_alpha 90.000000
_cell_angle_beta 90.000000
_cell_angle_gamma 90.000000
_cell_volume 2997.316384
_symmetry_space_group_name_H-M "P C C N"
_symmetry_group_IT_number 56
_symmetry_cell_setting 'orthorhombic'
loop_
_space_group_symop_operation_xyz
x,y,z
1/2-x,1/2-y,z
1/2+x,-y,1/2-z
-x,1/2+y,1/2-z
-x,-y,-z
1/2+x,1/2+y,-z
1/2-x,y,1/2+z
x,1/2-y,1/2+z
loop_
_atom_site_type_symbol
_atom_site_label
_atom_site_fract_x
_atom_site_fract_y
_atom_site_fract_z
Si Si1 0.478577 0.405561 0.375917
Si Si2 0.466668 0.052247 0.570558
Si Si3 0.885543 0.795712 0.928048
Si Si4 0.712892 0.822894 0.250104
Si Si5 0.980140 0.860892 0.173494
Si Si6 0.779478 0.988208 0.132824
Si Si7 0.420904 0.739359 0.553668
Si Si8 0.272075 0.535101 0.190054
O O1 0.391518 0.369147 0.303151
O O2 0.362926 0.460643 0.411619
O O3 0.531718 0.339916 0.427321
O O4 0.615852 0.447095 0.343847
O O5 0.400291 0.124861 0.543780
O O6 0.500000 0.000000 0.500000
O O7 0.628004 0.055773 0.607219
O O8 0.357453 0.018352 0.633493
O O9 0.750000 0.750000 0.956917
O O10 0.861221 0.805326 0.833580
O O11 0.023349 0.758467 0.965864
O O12 0.750000 0.750000 0.207503
O O13 0.877348 0.851552 0.251068
O O14 0.889840 0.922743 0.131049
O O15 0.007053 0.794241 0.116761
O O16 0.133711 0.894295 0.193140
O O17 0.737289 0.003735 0.222962
O O18 0.250000 0.750000 0.560251
#
# Coordination Sequence:
#
# PCOD9430934 Si02
#       8
#     8   8   8   8   8   8   8   8
#     4  11  22  38  73 105 130 174 235 279 336 418
#     4  11  24  44  67  95 139 180 221 281 350 405
#     4  11  26  43  69  97 134 182 231 279 346 414
#     4  10  20  39  62  98 132 172 220 283 336 399
#     4  10  20  38  66  95 130 174 219 273 337 398
#     4  10  22  38  68  99 129 177 221 279 341 412
#     4  12  25  43  66  98 137 182 226 284 339 416
#     4  11  21  41  68 102 137 171 222 281 347 411
#
# _framework density 21.352435
#
# number of rings (size 3 to 8) (size 9 to 14) (size 15 to 20)
#    0.000    1.250    2.500    5.250    5.250    0.000 
#    0.000    7.500    0.000    0.000    0.000    0.000 
#    0.000    0.000    0.000    0.000    0.000    0.000 
#
# Total GULP energy -356805.089703 kJ/mol
# GULP energy per Si atom -5575.079527 kJ/mol
# Density = 2.130384 g / cm^3
# Si number density = 21.352435 Si / 1000 Ang^3
#
#
#
# Elastic Constant Matrix: (Units=GPa)
#
#
# Indices 1 2 3 4 5 6 
#
# 1 141.3735 35.5931 27.2525 0.0000 0.0000 0.0000
# 2 35.5931 90.0669 11.5147 0.0000 0.0000 0.0000
# 3 27.2525 11.5147 74.3591 0.0000 0.0000 0.0000
# 4 0.0000 0.0000 0.0000 13.5335 0.0000 0.0000
# 5 0.0000 0.0000 0.0000 0.0000 135.9426 0.0000
# 6 0.0000 0.0000 0.0000 0.0000 0.0000 30.6221
#
#
#
# Elastic Compliance Matrix: (Units=1/GPa)
#
#
# Indices 1 2 3 4 5 6 
#
# 1 0.008317 -0.002956 -0.002590 0.000000 0.000000 0.000000
# 2 -0.002956 0.012377 -0.000833 0.000000 0.000000 0.000000
# 3 -0.002590 -0.000833 0.014527 0.000000 0.000000 0.000000
# 4 0.000000 0.000000 0.000000 0.073891 0.000000 0.000000
# 5 0.000000 0.000000 0.000000 0.000000 0.007356 0.000000
# 6 0.000000 0.000000 0.000000 0.000000 0.000000 0.032656
#
#
# Mechanical properties :
#
#
# Convention : Reuss Voigt Hill
#
# Bulk Modulus (GPa) = 44.51945 50.50222 47.51083
# Shear Modulus (GPa) = 29.52112 51.44892 40.48502
#
# Velocity S-wave (km/s) = 3.72232 4.91400 4.35908
# Velocity P-wave (km/s) = 6.27450 7.47661 6.90177
#
# Compressibility (1/GPa) = 0.02246209
#
# Stress axis : x y z
#
# Youngs Moduli (GPa) = 120.23667 80.79241 68.83866
#
# Poissons Ratio (x) = 0.23879 0.17832
# Poissons Ratio (y) = 0.35537 0.05737
# Poissons Ratio (z) = 0.31147 0.06734
#
# Static dielectric constant tensor:
#      x y z
#    x 1.779160 0.000000 0.000000 
#    y 0.000000 1.868720 0.000000 
#    z 0.000000 0.000000 1.822460 
# 
# From -- ./inp_files/15227.got.cif
#   From: 2010.05.17/outbox.cif.g08.bks.cpg/sg56_8_cif.got.tgz:15227.got - 2010.06.03 13:42:01.
