data_PCOD9430081
_publ_section_title
;
Structure prediction by ZEFSAII (Michael W. Deem and Ramdas Pophale) SiO2 
 PCOD9430081
Probable space group: P C C N
;
_chemical_formula_sum "Si O2"
_cell_formula_units_Z 52
_cell_length_a 18.128908
_cell_length_b 7.913001
_cell_length_c 16.358596
_cell_angle_alpha 90.000000
_cell_angle_beta 90.000000
_cell_angle_gamma 90.000000
_cell_volume 2346.707129
_symmetry_space_group_name_H-M "P C C N"
_symmetry_group_IT_number 56
_symmetry_cell_setting 'orthorhombic'
loop_
_space_group_symop_operation_xyz
x,y,z
1/2-x,1/2-y,z
1/2+x,-y,1/2-z
-x,1/2+y,1/2-z
-x,-y,-z
1/2+x,1/2+y,-z
1/2-x,y,1/2+z
x,1/2-y,1/2+z
loop_
_atom_site_type_symbol
_atom_site_label
_atom_site_fract_x
_atom_site_fract_y
_atom_site_fract_z
Si Si1 0.582783 0.864816 0.665109
Si Si2 0.433897 0.649549 0.970586
Si Si3 0.646188 0.320133 0.662559
Si Si4 0.591076 0.874160 0.409781
Si Si5 0.029506 0.044173 0.266656
Si Si6 0.250000 0.250000 0.626687
Si Si7 0.776119 0.981923 0.222031
O O1 0.539007 0.689829 0.666428
O O2 0.571767 0.982109 0.587120
O O3 0.549201 0.977680 0.738829
O O4 0.669260 0.847546 0.680682
O O5 0.374393 0.773111 0.930167
O O6 0.518402 0.708875 0.953860
O O7 0.411303 0.568274 0.056581
O O8 0.571093 0.377518 0.703819
O O9 0.680777 0.159973 0.709355
O O10 0.701707 0.474240 0.674384
O O11 0.571302 0.884858 0.313854
O O12 0.671893 0.788886 0.419161
O O13 0.261468 0.411350 0.687519
#
# Coordination Sequence:
#
# PCOD9430081 Si02
#       7
#     8   8   8   8   8   4   8
#     4  10  19  33  59  89 119 159 206 254 307 375
#     4   9  21  39  59  85 127 171 203 259 313 390
#     4  10  20  35  59  87 124 160 206 253 317 374
#     4  10  20  37  62  87 124 165 211 254 325 367
#     4  11  19  35  62  91 117 162 210 255 309 379
#     4  12  20  36  62  94 118 160 208 276 320 380
#     4  10  19  33  56  89 120 152 205 267 309 367
#
# _framework density 22.158709999999999
#
# number of rings (size 3 to 8) (size 9 to 14) (size 15 to 20)
#    0.000    1.846    3.077    2.769    0.000    0.000 
#    0.000    7.692   16.923    5.538    0.000    0.000 
#    0.000    0.000    0.000    0.000    0.000    0.000 
#
# Total GULP energy -289681.479422 kJ/mol
# GULP energy per Si atom -5570.797681 kJ/mol
# Density = 2.210828 g / cm^3
# Si number density = 22.158710 Si / 1000 Ang^3
#
#
#
# Elastic Constant Matrix: (Units=GPa)
#
#
# Indices 1 2 3 4 5 6 
#
# 1 141.9669 33.2521 24.1572 0.0000 0.0000 0.0000
# 2 33.2521 86.9414 4.4886 0.0000 0.0000 0.0000
# 3 24.1572 4.4886 29.3797 0.0000 0.0000 0.0000
# 4 0.0000 0.0000 0.0000 25.4949 0.0000 0.0000
# 5 0.0000 0.0000 0.0000 0.0000 18.1807 0.0000
# 6 0.0000 0.0000 0.0000 0.0000 0.0000 40.6027
#
#
#
# Elastic Compliance Matrix: (Units=1/GPa)
#
#
# Indices 1 2 3 4 5 6 
#
# 1 0.008931 -0.003061 -0.006876 0.000000 0.000000 0.000000
# 2 -0.003061 0.012642 0.000585 0.000000 0.000000 0.000000
# 3 -0.006876 0.000585 0.039601 0.000000 0.000000 0.000000
# 4 0.000000 0.000000 0.000000 0.039224 0.000000 0.000000
# 5 0.000000 0.000000 0.000000 0.000000 0.055003 0.000000
# 6 0.000000 0.000000 0.000000 0.000000 0.000000 0.024629
#
#
# Mechanical properties :
#
#
# Convention : Reuss Voigt Hill
#
# Bulk Modulus (GPa) = 23.54495 42.45374 32.99935
# Shear Modulus (GPa) = 23.48632 29.94834 26.71733
#
# Velocity S-wave (km/s) = 3.25916 3.68032 3.47612
# Velocity P-wave (km/s) = 4.98112 6.10411 5.57098
#
# Compressibility (1/GPa) = 0.04247195
#
# Stress axis : x y z
#
# Youngs Moduli (GPa) = 111.97261 79.09885 25.25179
#
# Poissons Ratio (x) = 0.24210 0.17362
# Poissons Ratio (y) = 0.34272 -0.01478
# Poissons Ratio (z) = 0.76988 -0.04629
#
# Static dielectric constant tensor:
#      x y z
#    x 1.959320 0.000000 0.000000 
#    y 0.000000 1.868730 0.000000 
#    z 0.000000 0.000000 1.841200 
# 
# From -- ./inp_files/16606.got.cif
#   From: 2010.05.17/outbox.cif.g08.bks.cpg/sg56_9_cif.got.tgz:16606.got - 2010.06.03 13:42:01.
