data_PCOD9430263
_publ_section_title
;
Structure prediction by ZEFSAII (Michael W. Deem and Ramdas Pophale) SiO2 
 PCOD9430263
Probable space group: P C C N
;
_chemical_formula_sum "Si O2"
_cell_formula_units_Z 64
_cell_length_a 18.513367
_cell_length_b 21.176967
_cell_length_c 8.854883
_cell_angle_alpha 90.000000
_cell_angle_beta 90.000000
_cell_angle_gamma 90.000000
_cell_volume 3471.618528
_symmetry_space_group_name_H-M "P C C N"
_symmetry_group_IT_number 56
_symmetry_cell_setting 'orthorhombic'
loop_
_space_group_symop_operation_xyz
x,y,z
1/2-x,1/2-y,z
1/2+x,-y,1/2-z
-x,1/2+y,1/2-z
-x,-y,-z
1/2+x,1/2+y,-z
1/2-x,y,1/2+z
x,1/2-y,1/2+z
loop_
_atom_site_type_symbol
_atom_site_label
_atom_site_fract_x
_atom_site_fract_y
_atom_site_fract_z
Si Si1 0.916634 0.438073 0.399083
Si Si2 0.228821 0.943757 0.920099
Si Si3 0.961100 0.337789 0.186566
Si Si4 0.451777 0.433840 0.501657
Si Si5 0.908335 0.255530 0.907582
Si Si6 0.809934 0.195861 0.145966
Si Si7 0.488643 0.559612 0.800700
Si Si8 0.340181 0.987132 0.144871
O O1 0.839186 0.454588 0.467695
O O2 0.908187 0.388656 0.264257
O O3 0.965409 0.410575 0.538826
O O4 0.962365 0.498462 0.341928
O O5 0.301197 0.947246 0.016001
O O6 0.221567 0.873760 0.853163
O O7 0.216815 0.992426 0.781980
O O8 0.968259 0.284778 0.316921
O O9 0.933510 0.301108 0.040297
O O10 0.023189 0.383578 0.125933
O O11 0.500000 0.500000 0.500000
O O12 0.467031 0.407133 0.333738
O O13 0.372345 0.454108 0.552453
O O14 0.865459 0.294909 0.782307
O O15 0.852307 0.208253 0.989902
O O16 0.750000 0.250000 0.158960
O O17 0.410809 0.542163 0.726965
#
# Coordination Sequence:
#
# PCOD9430263 Si02
#       8
#     8   8   8   8   8   8   8   8
#     4  10  19  37  59  82 113 160 190 250 298 359
#     4  11  25  35  55  78 124 159 204 248 299 359
#     4  11  21  39  60  80 117 149 208 261 290 355
#     4  10  20  35  60  85 110 151 196 251 310 362
#     4  10  25  37  54  75 108 156 214 245 293 329
#     4  11  24  37  47  71 106 163 208 245 279 335
#     4   9  20  35  57  86 111 149 204 231 315 369
#     4  10  23  36  51  86 111 160 194 238 308 366
#
# _framework density 18.435205
#
# number of rings (size 3 to 8) (size 9 to 14) (size 15 to 20)
#    0.000    1.750    3.750    0.375   10.500    2.000 
#    0.000    0.000    0.000    0.000    0.000    0.000 
#    0.000    3.000    0.000    0.000    0.000    0.000 
#
# Total GULP energy -356568.305005 kJ/mol
# GULP energy per Si atom -5571.379766 kJ/mol
# Density = 1.839325 g / cm^3
# Si number density = 18.435205 Si / 1000 Ang^3
#
#
#
# Elastic Constant Matrix: (Units=GPa)
#
#
# Indices 1 2 3 4 5 6 
#
# 1 39.6383 33.7372 26.5501 0.0000 0.0000 0.0000
# 2 33.7372 52.7513 27.8408 0.0000 0.0000 0.0000
# 3 26.5501 27.8408 110.5676 0.0000 0.0000 0.0000
# 4 0.0000 0.0000 0.0000 29.0243 0.0000 0.0000
# 5 0.0000 0.0000 0.0000 0.0000 29.0061 0.0000
# 6 0.0000 0.0000 0.0000 0.0000 0.0000 19.8456
#
#
#
# Elastic Compliance Matrix: (Units=1/GPa)
#
#
# Indices 1 2 3 4 5 6 
#
# 1 0.057924 -0.034257 -0.005283 0.000000 0.000000 0.000000
# 2 -0.034257 0.042122 -0.002380 0.000000 0.000000 0.000000
# 3 -0.005283 -0.002380 0.010912 0.000000 0.000000 0.000000
# 4 0.000000 0.000000 0.000000 0.034454 0.000000 0.000000
# 5 0.000000 0.000000 0.000000 0.000000 0.034476 0.000000
# 6 0.000000 0.000000 0.000000 0.000000 0.000000 0.050389
#
#
# Mechanical properties :
#
#
# Convention : Reuss Voigt Hill
#
# Bulk Modulus (GPa) = 36.87672 42.13482 39.50577
# Shear Modulus (GPa) = 15.47238 23.23046 19.35142
#
# Velocity S-wave (km/s) = 2.90018 3.55366 3.24342
# Velocity P-wave (km/s) = 5.59121 6.30422 5.95839
#
# Compressibility (1/GPa) = 0.02711738
#
# Stress axis : x y z
#
# Youngs Moduli (GPa) = 17.26411 23.74042 91.64025
#
# Poissons Ratio (x) = 0.81327 0.48415
# Poissons Ratio (y) = 0.59141 0.21814
# Poissons Ratio (z) = 0.09121 0.05651
#
# Static dielectric constant tensor:
#      x y z
#    x 1.653400 0.000000 0.000000 
#    y 0.000000 1.707740 0.000000 
#    z 0.000000 0.000000 1.723790 
# 
# From -- ./inp_files/4227.got.cif
#   From: 2010.05.17/outbox.cif.g08.bks.cpg/sg56_3_cif.got.tgz:4227.got - 2010.06.03 13:42:01.
