data_PCOD9430616
_publ_section_title
;
Structure prediction by ZEFSAII (Michael W. Deem and Ramdas Pophale) SiO2 
 PCOD9430616
Probable space group: P C C N
;
_chemical_formula_sum "Si O2"
_cell_formula_units_Z 48
_cell_length_a 8.625346
_cell_length_b 27.130880
_cell_length_c 9.468989
_cell_angle_alpha 90.000000
_cell_angle_beta 90.000000
_cell_angle_gamma 90.000000
_cell_volume 2215.868675
_symmetry_space_group_name_H-M "P C C N"
_symmetry_group_IT_number 56
_symmetry_cell_setting 'orthorhombic'
loop_
_space_group_symop_operation_xyz
x,y,z
1/2-x,1/2-y,z
1/2+x,-y,1/2-z
-x,1/2+y,1/2-z
-x,-y,-z
1/2+x,1/2+y,-z
1/2-x,y,1/2+z
x,1/2-y,1/2+z
loop_
_atom_site_type_symbol
_atom_site_label
_atom_site_fract_x
_atom_site_fract_y
_atom_site_fract_z
Si Si1 0.116291 0.063791 0.600221
Si Si2 0.433690 0.292227 0.858378
Si Si3 0.607388 0.049501 0.857165
Si Si4 0.411549 0.605373 0.161546
Si Si5 0.448903 0.407633 0.127506
Si Si6 0.894866 0.698386 0.302631
O O1 0.274737 0.091734 0.568010
O O2 0.979821 0.073356 0.489435
O O3 0.048271 0.080838 0.748571
O O4 0.152318 0.005641 0.601294
O O5 0.396964 0.289586 0.027612
O O6 0.556610 0.336058 0.833791
O O7 0.276727 0.304066 0.768299
O O8 0.480935 0.240083 0.789491
O O9 0.747451 0.082157 0.798275
O O10 0.477654 0.048278 0.735010
O O11 0.434070 0.589699 0.000153
O O12 0.466238 0.355793 0.207206
#
# Coordination Sequence:
#
# PCOD9430616 Si02
#       6
#     8   8   8   8   8   8
#     4  11  23  41  64  90 124 169 216 263 317 385
#     4  10  20  36  61  91 123 158 205 264 311 372
#     4  11  25  40  62  92 127 167 210 268 326 379
#     4  11  23  40  61  92 128 164 208 266 328 377
#     4  11  23  40  63  91 121 167 214 257 315 388
#     4  10  20  35  61  92 118 158 208 255 309 369
#
# _framework density 21.661933999999999
#
# number of rings (size 3 to 8) (size 9 to 14) (size 15 to 20)
#    0.000    1.333    1.667    5.000    2.333    6.667 
#    0.000    0.833    0.000    4.000    0.000    0.000 
#    0.000    0.000    0.000    0.000    0.000    0.000 
#
# Total GULP energy -267964.138867 kJ/mol
# GULP energy per Si atom -5582.586226 kJ/mol
# Density = 2.161263 g / cm^3
# Si number density = 21.661934 Si / 1000 Ang^3
#
#
#
# Elastic Constant Matrix: (Units=GPa)
#
#
# Indices 1 2 3 4 5 6 
#
# 1 57.3791 15.5675 10.2126 0.0000 0.0000 0.0000
# 2 15.5675 54.8972 24.6233 0.0000 0.0000 0.0000
# 3 10.2126 24.6233 80.6943 0.0000 0.0000 0.0000
# 4 0.0000 0.0000 0.0000 27.6592 0.0000 0.0000
# 5 0.0000 0.0000 0.0000 0.0000 26.0810 0.0000
# 6 0.0000 0.0000 0.0000 0.0000 0.0000 27.2095
#
#
#
# Elastic Compliance Matrix: (Units=1/GPa)
#
#
# Indices 1 2 3 4 5 6 
#
# 1 0.018934 -0.004975 -0.000878 0.000000 0.000000 0.000000
# 2 -0.004975 0.022412 -0.006209 0.000000 0.000000 0.000000
# 3 -0.000878 -0.006209 0.014398 0.000000 0.000000 0.000000
# 4 0.000000 0.000000 0.000000 0.036154 0.000000 0.000000
# 5 0.000000 0.000000 0.000000 0.000000 0.038342 0.000000
# 6 0.000000 0.000000 0.000000 0.000000 0.000000 0.036752
#
#
# Mechanical properties :
#
#
# Convention : Reuss Voigt Hill
#
# Bulk Modulus (GPa) = 31.62663 32.64195 32.13429
# Shear Modulus (GPa) = 24.79456 25.69444 25.24450
#
# Velocity S-wave (km/s) = 3.38689 3.44780 3.41748
# Velocity P-wave (km/s) = 5.47051 5.56339 5.51714
#
# Compressibility (1/GPa) = 0.03161892
#
# Stress axis : x y z
#
# Youngs Moduli (GPa) = 52.81478 44.61941 69.45286
#
# Poissons Ratio (x) = 0.22200 0.06098
# Poissons Ratio (y) = 0.26277 0.43124
# Poissons Ratio (z) = 0.04638 0.27705
#
# Static dielectric constant tensor:
#      x y z
#    x 1.745980 0.000000 0.000000 
#    y 0.000000 1.821490 0.000000 
#    z 0.000000 0.000000 1.776720 
# 
# From -- ./inp_files/2244.got.cif
#   From: 2010.05.17/outbox.cif.g08.bks.cpg/sg56_2_cif.got.tgz:2244.got - 2010.06.03 13:42:01.
