data_PCOD9430218
_publ_section_title
;
Structure prediction by ZEFSAII (Michael W. Deem and Ramdas Pophale) SiO2 
 PCOD9430218
Probable space group: P C C N
;
_chemical_formula_sum "Si O2"
_cell_formula_units_Z 52
_cell_length_a 8.631089
_cell_length_b 15.818609
_cell_length_c 21.650516
_cell_angle_alpha 90.000000
_cell_angle_beta 90.000000
_cell_angle_gamma 90.000000
_cell_volume 2955.984400
_symmetry_space_group_name_H-M "P C C N"
_symmetry_group_IT_number 56
_symmetry_cell_setting 'orthorhombic'
loop_
_space_group_symop_operation_xyz
x,y,z
1/2-x,1/2-y,z
1/2+x,-y,1/2-z
-x,1/2+y,1/2-z
-x,-y,-z
1/2+x,1/2+y,-z
1/2-x,y,1/2+z
x,1/2-y,1/2+z
loop_
_atom_site_type_symbol
_atom_site_label
_atom_site_fract_x
_atom_site_fract_y
_atom_site_fract_z
Si Si1 0.572592 0.246549 0.992737
Si Si2 0.551746 0.027654 0.172963
Si Si3 0.657703 0.660124 0.090573
Si Si4 0.922623 0.220077 0.637204
Si Si5 0.330039 0.414015 0.781578
Si Si6 0.455173 0.066418 0.947298
Si Si7 0.750000 0.750000 0.292621
O O1 0.750000 0.250000 0.975289
O O2 0.472663 0.317442 0.958768
O O3 0.517678 0.155937 0.969077
O O4 0.560196 0.250260 0.066648
O O5 0.582212 0.118398 0.141693
O O6 0.444358 0.045366 0.231815
O O7 0.706205 0.982948 0.197070
O O8 0.484933 0.967697 0.118796
O O9 0.750000 0.750000 0.100588
O O10 0.596866 0.625875 0.156169
O O11 0.774063 0.588742 0.064116
O O12 0.750000 0.250000 0.659763
O O13 0.084266 0.246647 0.670964
O O14 0.248207 0.334713 0.748164
O O15 0.500000 0.000000 0.000000
#
# Coordination Sequence:
#
# PCOD9430218 Si02
#       7
#     8   8   8   8   8   8   4
#     4  10  21  37  59  86 114 146 196 245 298 357
#     4  10  22  37  59  84 117 157 190 249 293 349
#     4   9  19  35  58  79 112 153 187 238 283 351
#     4  10  22  38  60  90 119 152 199 249 297 350
#     4  10  21  38  56  83 115 153 203 233 298 357
#     4  10  19  36  59  81 115 150 191 237 300 350
#     4  10  22  38  60  84 114 164 200 234 298 362
#
# _framework density 17.591434
#
# number of rings (size 3 to 8) (size 9 to 14) (size 15 to 20)
#    0.000    2.154    2.308    0.000    5.385    1.231 
#    0.000    3.846    0.000    0.000    0.000    0.000 
#    0.000    0.000    0.000    0.000    0.000    0.000 
#
# Total GULP energy -289531.459422 kJ/mol
# GULP energy per Si atom -5567.912681 kJ/mol
# Density = 1.755140 g / cm^3
# Si number density = 17.591434 Si / 1000 Ang^3
#
#
#
# Elastic Constant Matrix: (Units=GPa)
#
#
# Indices 1 2 3 4 5 6 
#
# 1 82.0665 28.2769 50.8488 0.0000 0.0000 0.0000
# 2 28.2769 55.9523 27.7692 0.0000 0.0000 0.0000
# 3 50.8488 27.7692 101.0382 0.0000 0.0000 0.0000
# 4 0.0000 0.0000 0.0000 23.5420 0.0000 0.0000
# 5 0.0000 0.0000 0.0000 0.0000 19.8362 0.0000
# 6 0.0000 0.0000 0.0000 0.0000 0.0000 25.9254
#
#
#
# Elastic Compliance Matrix: (Units=1/GPa)
#
#
# Indices 1 2 3 4 5 6 
#
# 1 0.019141 -0.005665 -0.008076 0.000000 0.000000 0.000000
# 2 -0.005665 0.022372 -0.003298 0.000000 0.000000 0.000000
# 3 -0.008076 -0.003298 0.014868 0.000000 0.000000 0.000000
# 4 0.000000 0.000000 0.000000 0.042477 0.000000 0.000000
# 5 0.000000 0.000000 0.000000 0.000000 0.050413 0.000000
# 6 0.000000 0.000000 0.000000 0.000000 0.000000 0.038572
#
#
# Mechanical properties :
#
#
# Convention : Reuss Voigt Hill
#
# Bulk Modulus (GPa) = 44.83627 50.31630 47.57629
# Shear Modulus (GPa) = 21.80018 22.67153 22.23585
#
# Velocity S-wave (km/s) = 3.52412 3.59386 3.55916
# Velocity P-wave (km/s) = 6.48861 6.77391 6.63280
#
# Compressibility (1/GPa) = 0.02230337
#
# Stress axis : x y z
#
# Youngs Moduli (GPa) = 52.24316 44.69855 67.25895
#
# Poissons Ratio (x) = 0.25323 0.54319
# Poissons Ratio (y) = 0.29598 0.22179
# Poissons Ratio (z) = 0.42192 0.14740
#
# Static dielectric constant tensor:
#      x y z
#    x 1.605620 0.000000 0.000000 
#    y 0.000000 1.573240 0.000000 
#    z 0.000000 0.000000 1.608140 
# 
# From -- ./inp_files/18124.got.cif
#   From: 2010.05.17/outbox.cif.g08.bks.cpg/sg56_10_cif.got.tgz:18124.got - 2010.06.03 13:42:01.
