data_PCOD9430447
_publ_section_title
;
Structure prediction by ZEFSAII (Michael W. Deem and Ramdas Pophale) SiO2 
 PCOD9430447
Probable space group: P C C N
;
_chemical_formula_sum "Si O2"
_cell_formula_units_Z 48
_cell_length_a 35.447999
_cell_length_b 10.963627
_cell_length_c 5.136739
_cell_angle_alpha 90.000000
_cell_angle_beta 90.000000
_cell_angle_gamma 90.000000
_cell_volume 1996.335254
_symmetry_space_group_name_H-M "P C C N"
_symmetry_group_IT_number 56
_symmetry_cell_setting 'orthorhombic'
loop_
_space_group_symop_operation_xyz
x,y,z
1/2-x,1/2-y,z
1/2+x,-y,1/2-z
-x,1/2+y,1/2-z
-x,-y,-z
1/2+x,1/2+y,-z
1/2-x,y,1/2+z
x,1/2-y,1/2+z
loop_
_atom_site_type_symbol
_atom_site_label
_atom_site_fract_x
_atom_site_fract_y
_atom_site_fract_z
Si Si1 0.226751 0.077506 0.439455
Si Si2 0.936296 0.328805 0.508330
Si Si3 0.518715 0.677731 0.115024
Si Si4 0.400705 0.424090 0.051830
Si Si5 0.183763 0.663947 0.982234
Si Si6 0.356136 0.417706 0.545552
O O1 0.243281 0.108017 0.160291
O O2 0.218786 0.931013 0.465317
O O3 0.185449 0.133328 0.488139
O O4 0.933110 0.279982 0.800288
O O5 0.905823 0.430394 0.448399
O O6 0.978628 0.381213 0.461242
O O7 0.517525 0.703525 0.423303
O O8 0.558548 0.622025 0.037589
O O9 0.369990 0.393010 0.834380
O O10 0.386975 0.380240 0.332531
O O11 0.183230 0.752688 0.228127
O O12 0.150304 0.564200 0.009646
#
# Coordination Sequence:
#
# PCOD9430447 Si02
#       6
#     8   8   8   8   8   8
#     4  10  20  35  50  70 105 145 194 233 270 321
#     4  10  22  37  57  85 116 154 194 221 268 341
#     4  10  22  40  61  86 110 144 193 237 282 338
#     4  12  21  39  58  81 119 150 182 239 289 327
#     4  10  20  32  46  68 102 143 186 229 265 310
#     4  10  24  33  50  80 105 145 189 229 273 339
#
# _framework density 24.044058
#
# number of rings (size 3 to 8) (size 9 to 14) (size 15 to 20)
#    1.000    0.667    0.000    5.500    0.000    6.000 
#    0.000    6.667    0.000    0.000    0.000    0.000 
#    0.000   46.667    0.000    0.000    0.000    0.000 
#
# Total GULP energy -268391.303532 kJ/mol
# GULP energy per Si atom -5591.485490 kJ/mol
# Density = 2.398933 g / cm^3
# Si number density = 24.044058 Si / 1000 Ang^3
#
#
#
# Elastic Constant Matrix: (Units=GPa)
#
#
# Indices 1 2 3 4 5 6 
#
# 1 80.1464 12.4868 -4.2158 0.0000 0.0000 0.0000
# 2 12.4868 68.8587 -3.3455 0.0000 0.0000 0.0000
# 3 -4.2158 -3.3455 77.4005 0.0000 0.0000 0.0000
# 4 0.0000 0.0000 0.0000 -15.6061 0.0000 0.0000
# 5 0.0000 0.0000 0.0000 0.0000 40.5108 0.0000
# 6 0.0000 0.0000 0.0000 0.0000 0.0000 27.2002
#
#
#
# Elastic Compliance Matrix: (Units=1/GPa)
#
#
# Indices 1 2 3 4 5 6 
#
# 1 0.012868 -0.002304 0.000601 0.000000 0.000000 0.000000
# 2 -0.002304 0.014966 0.000521 0.000000 0.000000 0.000000
# 3 0.000601 0.000521 0.012975 0.000000 0.000000 0.000000
# 4 0.000000 0.000000 0.000000 -0.064078 0.000000 0.000000
# 5 0.000000 0.000000 0.000000 0.000000 0.024685 0.000000
# 6 0.000000 0.000000 0.000000 0.000000 0.000000 0.036764
#
#
# Mechanical properties :
#
#
# Convention : Reuss Voigt Hill
#
# Bulk Modulus (GPa) = 26.01092 26.25073 26.13083
# Shear Modulus (GPa) = 93.70577 25.18633 59.44605
#
# Velocity S-wave (km/s) = 6.24957 3.24003 4.97770
# Velocity P-wave (km/s) = 7.93207 4.99385 6.62783
#
# Compressibility (1/GPa) = 0.03844539
#
# Stress axis : x y z
#
# Youngs Moduli (GPa) = 77.71341 66.81956 77.07073
#
# Poissons Ratio (x) = 0.15397 -0.04634
# Poissons Ratio (y) = 0.17907 -0.04018
# Poissons Ratio (z) = -0.04673 -0.03484
#
# Static dielectric constant tensor:
#      x y z
#    x 1.905040 0.000000 0.000000 
#    y 0.000000 1.981200 0.000000 
#    z 0.000000 0.000000 1.813690 
# 
# From -- ./inp_files/1330.got.cif
#   From: 2010.05.17/outbox.cif.g08.bks.cpg/sg56_1_cif.got.tgz:1330.got - 2010.06.03 13:42:01.
