data_PCOD9430630
_publ_section_title
;
Structure prediction by ZEFSAII (Michael W. Deem and Ramdas Pophale) SiO2 
 PCOD9430630
Probable space group: P C C N
;
_chemical_formula_sum "Si O2"
_cell_formula_units_Z 56
_cell_length_a 22.330929
_cell_length_b 22.263147
_cell_length_c 5.191327
_cell_angle_alpha 90.000000
_cell_angle_beta 90.000000
_cell_angle_gamma 90.000000
_cell_volume 2580.903285
_symmetry_space_group_name_H-M "P C C N"
_symmetry_group_IT_number 56
_symmetry_cell_setting 'orthorhombic'
loop_
_space_group_symop_operation_xyz
x,y,z
1/2-x,1/2-y,z
1/2+x,-y,1/2-z
-x,1/2+y,1/2-z
-x,-y,-z
1/2+x,1/2+y,-z
1/2-x,y,1/2+z
x,1/2-y,1/2+z
loop_
_atom_site_type_symbol
_atom_site_label
_atom_site_fract_x
_atom_site_fract_y
_atom_site_fract_z
Si Si1 0.985979 0.391255 0.667829
Si Si2 0.423042 0.178367 0.290414
Si Si3 0.432198 0.444138 0.543220
Si Si4 0.033445 0.767119 0.754853
Si Si5 0.215270 0.474481 0.363749
Si Si6 0.709019 0.667269 0.087670
Si Si7 0.098063 0.984229 0.051082
O O1 0.963235 0.335335 0.832812
O O2 0.941304 0.424634 0.475029
O O3 0.039083 0.357796 0.508492
O O4 0.006207 0.437684 0.886510
O O5 0.468580 0.232099 0.205183
O O6 0.356686 0.197236 0.383508
O O7 0.412476 0.126147 0.074729
O O8 0.429897 0.471843 0.828098
O O9 0.398170 0.484033 0.329324
O O10 0.063397 0.730565 0.530885
O O11 0.268431 0.481058 0.567386
O O12 0.195457 0.404839 0.407429
O O13 0.164929 0.520798 0.448171
O O14 0.753533 0.679795 0.327814
#
# Coordination Sequence:
#
# PCOD9430630 Si02
#       7
#     8   8   8   8   8   8   8
#     4  11  24  39  59  86 117 155 194 242 300 358
#     4  11  23  39  60  84 115 153 202 243 298 343
#     4  12  22  36  55  89 115 156 181 241 300 343
#     4  10  22  38  59  79 106 151 191 234 289 345
#     4  10  20  36  53  80 117 159 190 231 288 343
#     4  10  22  34  56  80 111 151 201 246 286 340
#     4  12  25  35  58  89 123 149 197 235 292 365
#
# _framework density 21.69783
#
# number of rings (size 3 to 8) (size 9 to 14) (size 15 to 20)
#    0.000    1.143    4.286    1.714    8.000    0.000 
#    0.000    0.000    0.000   10.286    0.000    0.000 
#    0.000   13.714    0.000    0.000    0.000    0.000 
#
# Total GULP energy -312031.821349 kJ/mol
# GULP energy per Si atom -5571.996810 kJ/mol
# Density = 2.164844 g / cm^3
# Si number density = 21.697830 Si / 1000 Ang^3
#
#
#
# Elastic Constant Matrix: (Units=GPa)
#
#
# Indices 1 2 3 4 5 6 
#
# 1 44.2635 26.5461 9.9241 0.0000 0.0000 0.0000
# 2 26.5461 75.5722 21.9899 0.0000 0.0000 0.0000
# 3 9.9241 21.9899 104.5692 0.0000 0.0000 0.0000
# 4 0.0000 0.0000 0.0000 27.8047 0.0000 0.0000
# 5 0.0000 0.0000 0.0000 0.0000 22.3710 0.0000
# 6 0.0000 0.0000 0.0000 0.0000 0.0000 15.6858
#
#
#
# Elastic Compliance Matrix: (Units=1/GPa)
#
#
# Indices 1 2 3 4 5 6 
#
# 1 0.028662 -0.009881 -0.000642 0.000000 0.000000 0.000000
# 2 -0.009881 0.017501 -0.002743 0.000000 0.000000 0.000000
# 3 -0.000642 -0.002743 0.010201 0.000000 0.000000 0.000000
# 4 0.000000 0.000000 0.000000 0.035965 0.000000 0.000000
# 5 0.000000 0.000000 0.000000 0.000000 0.044701 0.000000
# 6 0.000000 0.000000 0.000000 0.000000 0.000000 0.063752
#
#
# Mechanical properties :
#
#
# Convention : Reuss Voigt Hill
#
# Bulk Modulus (GPa) = 33.52098 37.92503 35.72300
# Shear Modulus (GPa) = 21.07409 24.23527 22.65468
#
# Velocity S-wave (km/s) = 3.11988 3.34570 3.23476
# Velocity P-wave (km/s) = 5.33486 5.69575 5.51826
#
# Compressibility (1/GPa) = 0.02983207
#
# Stress axis : x y z
#
# Youngs Moduli (GPa) = 34.88943 57.13845 98.03210
#
# Poissons Ratio (x) = 0.56459 0.06296
# Poissons Ratio (y) = 0.34475 0.26886
# Poissons Ratio (z) = 0.02241 0.15671
#
# Static dielectric constant tensor:
#      x y z
#    x 1.873890 0.000000 0.000000 
#    y 0.000000 1.925230 0.000000 
#    z 0.000000 0.000000 1.924290 
# 
# From -- ./inp_files/916.got.cif
#   From: 2010.05.17/outbox.cif.g08.bks.cpg/sg56_1_cif.got.tgz:916.got - 2010.06.03 13:42:01.
