data_PCOD9430418
_publ_section_title
;
Structure prediction by ZEFSAII (Michael W. Deem and Ramdas Pophale) SiO2 
 PCOD9430418
Probable space group: P C C N
;
_chemical_formula_sum "Si O2"
_cell_formula_units_Z 56
_cell_length_a 13.454648
_cell_length_b 15.384019
_cell_length_c 13.160072
_cell_angle_alpha 90.000000
_cell_angle_beta 90.000000
_cell_angle_gamma 90.000000
_cell_volume 2723.958039
_symmetry_space_group_name_H-M "P C C N"
_symmetry_group_IT_number 56
_symmetry_cell_setting 'orthorhombic'
loop_
_space_group_symop_operation_xyz
x,y,z
1/2-x,1/2-y,z
1/2+x,-y,1/2-z
-x,1/2+y,1/2-z
-x,-y,-z
1/2+x,1/2+y,-z
1/2-x,y,1/2+z
x,1/2-y,1/2+z
loop_
_atom_site_type_symbol
_atom_site_label
_atom_site_fract_x
_atom_site_fract_y
_atom_site_fract_z
Si Si1 0.750000 0.250000 0.792227
Si Si2 0.571671 0.367320 0.024342
Si Si3 0.701890 0.391517 0.462814
Si Si4 0.740437 0.593977 0.464384
Si Si5 0.575298 0.949181 0.596290
Si Si6 0.135488 0.354229 0.228527
Si Si7 0.250000 0.250000 0.385296
Si Si8 0.074815 0.806885 0.362295
O O1 0.795449 0.327945 0.863569
O O2 0.838667 0.212664 0.720675
O O3 0.689334 0.370834 0.009435
O O4 0.516051 0.382957 0.917428
O O5 0.542201 0.452710 0.086570
O O6 0.543315 0.282716 0.084104
O O7 0.693834 0.496663 0.453616
O O8 0.621928 0.362313 0.546042
O O9 0.851060 0.573625 0.503429
O O10 0.718740 0.638267 0.357071
O O11 0.711699 0.668961 0.546531
O O12 0.634042 0.938749 0.700070
O O13 0.162647 0.280976 0.310605
O O14 0.026396 0.345818 0.181811
#
# Coordination Sequence:
#
# PCOD9430418 Si02
#       8
#     4   8   8   8   8   8   4   8
#     4  12  22  40  66  96 128 176 214 264 320 390
#     4  10  19  42  63  91 129 172 209 269 317 381
#     4  11  23  43  67  95 135 169 214 269 329 382
#     4  10  24  43  70  93 134 170 216 277 324 381
#     4   9  22  41  65  93 128 170 220 264 325 383
#     4  11  25  40  64  97 123 171 222 261 324 394
#     4  10  24  46  64  94 130 170 220 270 330 380
#     4  12  25  39  65  94 134 167 218 265 328 386
#
# _framework density 20.558319000000001
#
# number of rings (size 3 to 8) (size 9 to 14) (size 15 to 20)
#    0.000    1.429    2.857    1.286    8.000    1.714 
#    2.571    0.000    0.000    0.000    0.000    0.000 
#    0.000    0.000    0.000    0.000    0.000    0.000 
#
# Total GULP energy -312010.882016 kJ/mol
# GULP energy per Si atom -5571.622893 kJ/mol
# Density = 2.051153 g / cm^3
# Si number density = 20.558319 Si / 1000 Ang^3
#
#
#
# Elastic Constant Matrix: (Units=GPa)
#
#
# Indices 1 2 3 4 5 6 
#
# 1 13.5374 1.6793 -4.2052 0.0000 0.0000 0.0000
# 2 1.6793 113.2766 42.6266 0.0000 0.0000 0.0000
# 3 -4.2052 42.6266 78.4262 0.0000 0.0000 0.0000
# 4 0.0000 0.0000 0.0000 14.9440 0.0000 0.0000
# 5 0.0000 0.0000 0.0000 0.0000 30.9612 0.0000
# 6 0.0000 0.0000 0.0000 0.0000 0.0000 14.8037
#
#
#
# Elastic Compliance Matrix: (Units=1/GPa)
#
#
# Indices 1 2 3 4 5 6 
#
# 1 0.076118 -0.003349 0.005902 0.000000 0.000000 0.000000
# 2 -0.003349 0.011245 -0.006292 0.000000 0.000000 0.000000
# 3 0.005902 -0.006292 0.016487 0.000000 0.000000 0.000000
# 4 0.000000 0.000000 0.000000 0.066916 0.000000 0.000000
# 5 0.000000 0.000000 0.000000 0.000000 0.032298 0.000000
# 6 0.000000 0.000000 0.000000 0.000000 0.000000 0.067551
#
#
# Mechanical properties :
#
#
# Convention : Reuss Voigt Hill
#
# Bulk Modulus (GPa) = 10.37647 31.71577 21.04612
# Shear Modulus (GPa) = 16.11771 23.15109 19.63440
#
# Velocity S-wave (km/s) = 2.80304 3.35941 3.09375
# Velocity P-wave (km/s) = 3.94136 5.52342 4.79805
#
# Compressibility (1/GPa) = 0.09637192
#
# Stress axis : x y z
#
# Youngs Moduli (GPa) = 13.13749 88.92701 60.65403
#
# Poissons Ratio (x) = 0.29785 -0.35797
# Poissons Ratio (y) = 0.04400 0.38161
# Poissons Ratio (z) = -0.07754 0.55950
#
# Static dielectric constant tensor:
#      x y z
#    x 1.751840 0.000000 0.000000 
#    y 0.000000 1.777590 0.000000 
#    z 0.000000 0.000000 1.754130 
# 
# From -- ./inp_files/7930.got.cif
#   From: 2010.05.17/outbox.cif.g08.bks.cpg/sg56_4_cif.got.tgz:7930.got - 2010.06.03 13:42:01.
