data_PCOD9430121
_publ_section_title
;
Structure prediction by ZEFSAII (Michael W. Deem and Ramdas Pophale) SiO2 
 PCOD9430121
Probable space group: P C C N
;
_chemical_formula_sum "Si O2"
_cell_formula_units_Z 52
_cell_length_a 8.619908
_cell_length_b 14.635756
_cell_length_c 18.726772
_cell_angle_alpha 90.000000
_cell_angle_beta 90.000000
_cell_angle_gamma 90.000000
_cell_volume 2362.548399
_symmetry_space_group_name_H-M "P C C N"
_symmetry_group_IT_number 56
_symmetry_cell_setting 'orthorhombic'
loop_
_space_group_symop_operation_xyz
x,y,z
1/2-x,1/2-y,z
1/2+x,-y,1/2-z
-x,1/2+y,1/2-z
-x,-y,-z
1/2+x,1/2+y,-z
1/2-x,y,1/2+z
x,1/2-y,1/2+z
loop_
_atom_site_type_symbol
_atom_site_label
_atom_site_fract_x
_atom_site_fract_y
_atom_site_fract_z
Si Si1 0.175223 0.057545 0.848473
Si Si2 0.116382 0.438979 0.083397
Si Si3 0.004925 0.005645 0.270176
Si Si4 0.262056 0.938474 0.969337
Si Si5 0.750000 0.750000 0.671789
Si Si6 0.489428 0.201785 0.709838
Si Si7 0.750000 0.750000 0.402608
Si Si8 0.250000 0.750000 0.394207
O O1 0.321071 0.019433 0.800675
O O2 0.231235 0.157626 0.871024
O O3 0.024320 0.056269 0.798898
O O4 0.154015 0.997587 0.917887
O O5 0.099503 0.462129 0.167169
O O6 0.160004 0.334342 0.061363
O O7 0.939073 0.451098 0.057740
O O8 0.227497 0.514235 0.046411
O O9 0.951660 0.105583 0.240816
O O10 0.223830 0.835102 0.946987
O O11 0.898794 0.754587 0.723950
O O12 0.358936 0.189983 0.649491
O O13 0.611323 0.259906 0.663696
#
# Coordination Sequence:
#
# PCOD9430121 Si02
#       8
#     8   8   8   8   4   8   4   4
#     4  10  20  34  58  84 117 151 197 246 298 357
#     4  10  21  38  61  85 121 165 197 242 306 368
#     4  10  19  34  56  86 116 146 195 244 293 351
#     4  10  22  38  60  85 117 161 202 248 302 363
#     4   9  20  33  52  88 123 147 190 254 299 349
#     4  10  20  33  59  89 113 151 195 243 297 355
#     4  11  20  39  62  90 119 165 200 240 301 379
#     4  12  20  38  60  86 114 152 200 248 302 362
#
# _framework density 22.010131999999999
#
# number of rings (size 3 to 8) (size 9 to 14) (size 15 to 20)
#    0.000    1.846    3.077    2.769    2.154    0.615 
#    0.000    1.538    0.000    0.000    0.000    0.000 
#    0.000    0.000    0.000    0.000    0.000    0.000 
#
# Total GULP energy -289518.270093 kJ/mol
# GULP energy per Si atom -5567.659040 kJ/mol
# Density = 2.196004 g / cm^3
# Si number density = 22.010132 Si / 1000 Ang^3
#
#
#
# Elastic Constant Matrix: (Units=GPa)
#
#
# Indices 1 2 3 4 5 6 
#
# 1 26.2832 -1.6472 -1.5795 0.0000 0.0000 0.0000
# 2 -1.6472 128.6076 12.0756 0.0000 0.0000 0.0000
# 3 -1.5795 12.0756 43.6061 0.0000 0.0000 0.0000
# 4 0.0000 0.0000 0.0000 -2.4532 0.0000 0.0000
# 5 0.0000 0.0000 0.0000 0.0000 -12.5215 0.0000
# 6 0.0000 0.0000 0.0000 0.0000 0.0000 24.6941
#
#
#
# Elastic Compliance Matrix: (Units=1/GPa)
#
#
# Indices 1 2 3 4 5 6 
#
# 1 0.038147 0.000368 0.001280 0.000000 0.000000 0.000000
# 2 0.000368 0.007987 -0.002198 0.000000 0.000000 0.000000
# 3 0.001280 -0.002198 0.023588 0.000000 0.000000 0.000000
# 4 0.000000 0.000000 0.000000 -0.407626 0.000000 0.000000
# 5 0.000000 0.000000 0.000000 0.000000 -0.079863 0.000000
# 6 0.000000 0.000000 0.000000 0.000000 0.000000 0.040496
#
#
# Mechanical properties :
#
#
# Convention : Reuss Voigt Hill
#
# Bulk Modulus (GPa) = 14.57275 24.02163 19.29719
# Shear Modulus (GPa) = -14.15241 14.58707 0.21733
#
# Velocity S-wave (km/s) = -2.53849 2.57717 0.31457
# Velocity P-wave (km/s) = 1.39878 4.44897 2.98637
#
# Compressibility (1/GPa) = 0.06862121
#
# Stress axis : x y z
#
# Youngs Moduli (GPa) = 26.21427 125.20777 42.39497
#
# Poissons Ratio (x) = -0.04613 -0.05426
# Poissons Ratio (y) = -0.00966 0.09320
# Poissons Ratio (z) = -0.03355 0.27525
#
# Static dielectric constant tensor:
#      x y z
#    x 1.891630 0.000000 0.000000 
#    y 0.000000 1.896770 0.000000 
#    z 0.000000 0.000000 1.806600 
# 
# From -- ./inp_files/18177.got.cif
#   From: 2010.05.17/outbox.cif.g08.bks.cpg/sg56_10_cif.got.tgz:18177.got - 2010.06.03 13:42:01.
