data_PCOD9430804
_publ_section_title
;
Structure prediction by ZEFSAII (Michael W. Deem and Ramdas Pophale) SiO2 
 PCOD9430804
Probable space group: P C C N
;
_chemical_formula_sum "Si O2"
_cell_formula_units_Z 56
_cell_length_a 5.551028
_cell_length_b 14.509192
_cell_length_c 29.556062
_cell_angle_alpha 90.000000
_cell_angle_beta 90.000000
_cell_angle_gamma 90.000000
_cell_volume 2380.472752
_symmetry_space_group_name_H-M "P C C N"
_symmetry_group_IT_number 56
_symmetry_cell_setting 'orthorhombic'
loop_
_space_group_symop_operation_xyz
x,y,z
1/2-x,1/2-y,z
1/2+x,-y,1/2-z
-x,1/2+y,1/2-z
-x,-y,-z
1/2+x,1/2+y,-z
1/2-x,y,1/2+z
x,1/2-y,1/2+z
loop_
_atom_site_type_symbol
_atom_site_label
_atom_site_fract_x
_atom_site_fract_y
_atom_site_fract_z
Si Si1 0.750000 0.750000 0.199985
Si Si2 0.999476 0.778096 0.287744
Si Si3 0.853232 0.441025 0.939673
Si Si4 0.401949 0.872460 0.966510
Si Si5 0.750000 0.750000 0.911769
Si Si6 0.345456 0.430357 0.352836
Si Si7 0.898796 0.511865 0.774599
Si Si8 0.488809 0.563715 0.894826
O O1 0.969021 0.739398 0.236278
O O2 0.725490 0.658945 0.169847
O O3 0.750000 0.750000 0.310287
O O4 0.250000 0.750000 0.309291
O O5 0.984134 0.885725 0.284156
O O6 0.620992 0.470515 0.911354
O O7 0.915323 0.541143 0.961245
O O8 0.055177 0.413425 0.903187
O O9 0.831833 0.370242 0.980865
O O10 0.534107 0.785884 0.944197
O O11 0.182840 0.902985 0.935155
O O12 0.659287 0.653493 0.887999
O O13 0.571119 0.454238 0.320315
O O14 0.179264 0.522402 0.355093
O O15 0.123602 0.480592 0.742541
#
# Coordination Sequence:
#
# PCOD9430804 Si02
#       8
#     4   8   8   8   4   8   8   8
#     4  10  22  43  62  97 132 174 226 298 355 429
#     4  10  21  42  67  98 130 173 230 290 344 429
#     4   9  20  37  61  95 128 170 229 279 345 417
#     4   9  18  37  63  89 128 179 223 281 338 420
#     4  10  20  37  66  93 136 182 236 276 351 429
#     4  11  24  41  68  98 137 177 230 296 361 418
#     4  12  24  44  74 101 135 188 238 286 367 442
#     4  10  21  39  63  96 135 183 229 286 349 425
#
# _framework density 23.524740000000001
#
# number of rings (size 3 to 8) (size 9 to 14) (size 15 to 20)
#    0.429    1.429    1.429    2.571    2.000    2.857 
#    0.000    5.714    6.286    0.000    0.000    0.000 
#    0.000    0.000    0.000    0.000    0.000    0.000 
#
# Total GULP energy -312262.944783 kJ/mol
# GULP energy per Si atom -5576.124014 kJ/mol
# Density = 2.347120 g / cm^3
# Si number density = 23.524740 Si / 1000 Ang^3
#
#
#
# Elastic Constant Matrix: (Units=GPa)
#
#
# Indices 1 2 3 4 5 6 
#
# 1 103.5541 11.9090 31.1656 0.0000 0.0000 0.0000
# 2 11.9090 90.1849 37.9780 0.0000 0.0000 0.0000
# 3 31.1656 37.9780 111.7209 0.0000 0.0000 0.0000
# 4 0.0000 0.0000 0.0000 38.8773 0.0000 0.0000
# 5 0.0000 0.0000 0.0000 0.0000 1.2840 0.0000
# 6 0.0000 0.0000 0.0000 0.0000 0.0000 23.1126
#
#
#
# Elastic Compliance Matrix: (Units=1/GPa)
#
#
# Indices 1 2 3 4 5 6 
#
# 1 0.010544 -0.000179 -0.002880 0.000000 0.000000 0.000000
# 2 -0.000179 0.012944 -0.004350 0.000000 0.000000 0.000000
# 3 -0.002880 -0.004350 0.011233 0.000000 0.000000 0.000000
# 4 0.000000 0.000000 0.000000 0.025722 0.000000 0.000000
# 5 0.000000 0.000000 0.000000 0.000000 0.778829 0.000000
# 6 0.000000 0.000000 0.000000 0.000000 0.000000 0.043266
#
#
# Mechanical properties :
#
#
# Convention : Reuss Voigt Hill
#
# Bulk Modulus (GPa) = 50.24737 51.95169 51.09953
# Shear Modulus (GPa) = 5.53102 27.61527 16.57315
#
# Velocity S-wave (km/s) = 1.53501 3.42991 2.65712
# Velocity P-wave (km/s) = 4.95453 6.14960 5.58413
#
# Compressibility (1/GPa) = 0.01990154
#
# Stress axis : x y z
#
# Youngs Moduli (GPa) = 94.83782 77.25663 89.02223
#
# Poissons Ratio (x) = 0.01386 0.25642
# Poissons Ratio (y) = 0.01701 0.38725
# Poissons Ratio (z) = 0.27318 0.33607
#
# Static dielectric constant tensor:
#      x y z
#    x 2.109070 0.000000 0.000000 
#    y 0.000000 1.868190 0.000000 
#    z 0.000000 0.000000 1.938380 
# 
# From -- ./inp_files/22922.got.cif
#   From: 2010.05.17/outbox.cif.g08.bks.cpg/sg56_12_cif.got.tgz:22922.got - 2010.06.03 13:42:01.
