data_PCOD9430319
_publ_section_title
;
Structure prediction by ZEFSAII (Michael W. Deem and Ramdas Pophale) SiO2 
 PCOD9430319
Probable space group: P C C N
;
_chemical_formula_sum "Si O2"
_cell_formula_units_Z 48
_cell_length_a 14.886431
_cell_length_b 8.851464
_cell_length_c 16.097878
_cell_angle_alpha 90.000000
_cell_angle_beta 90.000000
_cell_angle_gamma 90.000000
_cell_volume 2121.164391
_symmetry_space_group_name_H-M "P C C N"
_symmetry_group_IT_number 56
_symmetry_cell_setting 'orthorhombic'
loop_
_space_group_symop_operation_xyz
x,y,z
1/2-x,1/2-y,z
1/2+x,-y,1/2-z
-x,1/2+y,1/2-z
-x,-y,-z
1/2+x,1/2+y,-z
1/2-x,y,1/2+z
x,1/2-y,1/2+z
loop_
_atom_site_type_symbol
_atom_site_label
_atom_site_fract_x
_atom_site_fract_y
_atom_site_fract_z
Si Si1 0.426711 0.064609 0.280971
Si Si2 0.158396 0.183273 0.160396
Si Si3 0.529949 0.701982 0.465022
Si Si4 0.868168 0.144402 0.802159
Si Si5 0.061409 0.613585 0.114062
Si Si6 0.153078 0.794331 0.876456
O O1 0.378203 0.205210 0.233721
O O2 0.524961 0.114105 0.309737
O O3 0.452880 0.946468 0.207183
O O4 0.370088 0.968280 0.348824
O O5 0.250000 0.250000 0.127420
O O6 0.088050 0.177161 0.084769
O O7 0.178405 0.015194 0.189907
O O8 0.572353 0.542221 0.436212
O O9 0.519509 0.692406 0.563405
O O10 0.429106 0.728714 0.430525
O O11 0.856333 0.271420 0.872794
O O12 0.848462 0.207579 0.711650
O O13 0.250000 0.750000 0.913309
#
# Coordination Sequence:
#
# PCOD9430319 Si02
#       6
#     8   8   8   8   8   8
#     4  10  19  38  59  87 113 153 198 243 300 346
#     4  11  21  35  59  87 121 155 196 251 298 353
#     4  10  20  40  57  84 120 156 195 242 300 359
#     4  11  19  37  63  85 114 155 201 241 297 354
#     4   9  20  36  64  80 114 161 193 238 304 352
#     4  11  21  36  59  87 116 151 198 247 290 356
#
# _framework density 22.629079999999998
#
# number of rings (size 3 to 8) (size 9 to 14) (size 15 to 20)
#    0.000    1.667    5.000    2.000    0.000    0.667 
#    0.000    8.333    0.000    1.000    0.000    0.000 
#    0.000    0.000    0.000    0.000    0.000    0.000 
#
# Total GULP energy -267570.834396 kJ/mol
# GULP energy per Si atom -5574.392383 kJ/mol
# Density = 2.257758 g / cm^3
# Si number density = 22.629080 Si / 1000 Ang^3
#
#
#
# Elastic Constant Matrix: (Units=GPa)
#
#
# Indices 1 2 3 4 5 6 
#
# 1 99.8540 4.9396 1.6536 0.0000 0.0000 0.0000
# 2 4.9396 94.8566 15.4594 0.0000 0.0000 0.0000
# 3 1.6536 15.4594 40.1343 0.0000 0.0000 0.0000
# 4 0.0000 0.0000 0.0000 9.8996 0.0000 0.0000
# 5 0.0000 0.0000 0.0000 0.0000 -2.8826 0.0000
# 6 0.0000 0.0000 0.0000 0.0000 0.0000 24.9753
#
#
#
# Elastic Compliance Matrix: (Units=1/GPa)
#
#
# Indices 1 2 3 4 5 6 
#
# 1 0.010042 -0.000486 -0.000227 0.000000 0.000000 0.000000
# 2 -0.000486 0.011272 -0.004322 0.000000 0.000000 0.000000
# 3 -0.000227 -0.004322 0.026590 0.000000 0.000000 0.000000
# 4 0.000000 0.000000 0.000000 0.101014 0.000000 0.000000
# 5 0.000000 0.000000 0.000000 0.000000 -0.346911 0.000000
# 6 0.000000 0.000000 0.000000 0.000000 0.000000 0.040039
#
#
# Mechanical properties :
#
#
# Convention : Reuss Voigt Hill
#
# Bulk Modulus (GPa) = 26.42990 30.99447 28.71219
# Shear Modulus (GPa) = -36.96260 20.58463 -8.18899
#
# Velocity S-wave (km/s) = -4.04593 3.01932 -1.90438
# Velocity P-wave (km/s) = 3.18137 5.08739 2.80717
#
# Compressibility (1/GPa) = 0.03783593
#
# Stress axis : x y z
#
# Youngs Moduli (GPa) = 99.57767 88.71631 37.60752
#
# Poissons Ratio (x) = 0.04312 0.00852
# Poissons Ratio (y) = 0.04840 0.16253
# Poissons Ratio (z) = 0.02256 0.38341
#
# Static dielectric constant tensor:
#      x y z
#    x 1.849140 0.000000 0.000000 
#    y 0.000000 1.959230 0.000000 
#    z 0.000000 0.000000 1.842740 
# 
# From -- ./inp_files/12668.got.cif
#   From: 2010.05.17/outbox.cif.g08.bks.cpg/sg56_7_cif.got.tgz:12668.got - 2010.06.03 13:42:01.
