data_PCOD9430863
_publ_section_title
;
Structure prediction by ZEFSAII (Michael W. Deem and Ramdas Pophale) SiO2 
 PCOD9430863
Probable space group: P C C N
;
_chemical_formula_sum "Si O2"
_cell_formula_units_Z 36
_cell_length_a 15.047072
_cell_length_b 7.834846
_cell_length_c 12.180051
_cell_angle_alpha 90.000000
_cell_angle_beta 90.000000
_cell_angle_gamma 90.000000
_cell_volume 1435.924383
_symmetry_space_group_name_H-M "P C C N"
_symmetry_group_IT_number 56
_symmetry_cell_setting 'orthorhombic'
loop_
_space_group_symop_operation_xyz
x,y,z
1/2-x,1/2-y,z
1/2+x,-y,1/2-z
-x,1/2+y,1/2-z
-x,-y,-z
1/2+x,1/2+y,-z
1/2-x,y,1/2+z
x,1/2-y,1/2+z
loop_
_atom_site_type_symbol
_atom_site_label
_atom_site_fract_x
_atom_site_fract_y
_atom_site_fract_z
Si Si1 0.301434 0.524639 0.076782
Si Si2 0.580704 0.436991 0.217232
Si Si3 0.750000 0.250000 0.722490
Si Si4 0.479737 0.708342 0.089819
Si Si5 0.374708 0.142710 0.066095
O O1 0.281145 0.596624 0.198006
O O2 0.381011 0.657828 0.050716
O O3 0.339179 0.334682 0.076807
O O4 0.203731 0.486271 0.021841
O O5 0.665231 0.336350 0.168837
O O6 0.528432 0.532923 0.122575
O O7 0.528029 0.304180 0.292913
O O8 0.607250 0.572163 0.312272
O O9 0.538901 0.826132 0.010008
#
# Coordination Sequence:
#
# PCOD9430863 Si02
#       5
#     8   8   4   8   8
#     4   9  19  36  57  86 123 159 209 265 312 375
#     4  10  21  38  61  92 125 163 215 263 319 388
#     4   8  18  38  60  84 126 168 200 266 326 370
#     4  11  21  37  63  93 125 167 213 265 324 388
#     4  10  20  38  61  86 124 172 210 262 326 381
#
# _framework density 25.070957
#
# number of rings (size 3 to 8) (size 9 to 14) (size 15 to 20)
#    0.000    2.222    0.000    2.667    0.000    0.000 
#    0.000   23.333    0.000    2.667    0.000    0.000 
#    0.000    0.000    0.000    0.000    0.000    0.000 
#
# Total GULP energy -200731.538372 kJ/mol
# GULP energy per Si atom -5575.876066 kJ/mol
# Density = 2.501389 g / cm^3
# Si number density = 25.070957 Si / 1000 Ang^3
#
#
#
# Elastic Constant Matrix: (Units=GPa)
#
#
# Indices 1 2 3 4 5 6 
#
# 1 171.9188 89.5173 72.5383 0.0000 0.0000 0.0000
# 2 89.5173 140.9863 25.2561 0.0000 0.0000 0.0000
# 3 72.5383 25.2561 104.5326 0.0000 0.0000 0.0000
# 4 0.0000 0.0000 0.0000 -50.9663 0.0000 0.0000
# 5 0.0000 0.0000 0.0000 0.0000 21.6514 0.0000
# 6 0.0000 0.0000 0.0000 0.0000 0.0000 44.4744
#
#
#
# Elastic Compliance Matrix: (Units=1/GPa)
#
#
# Indices 1 2 3 4 5 6 
#
# 1 0.012025 -0.006418 -0.006794 0.000000 0.000000 0.000000
# 2 -0.006418 0.010839 0.001835 0.000000 0.000000 0.000000
# 3 -0.006794 0.001835 0.013838 0.000000 0.000000 0.000000
# 4 0.000000 0.000000 0.000000 -0.019621 0.000000 0.000000
# 5 0.000000 0.000000 0.000000 0.000000 0.046186 0.000000
# 6 0.000000 0.000000 0.000000 0.000000 0.000000 0.022485
#
#
# Mechanical properties :
#
#
# Convention : Reuss Voigt Hill
#
# Bulk Modulus (GPa) = 71.69682 88.00679 79.85180
# Shear Modulus (GPa) = 44.18669 18.37363 31.28016
#
# Velocity S-wave (km/s) = 4.20273 2.71009 3.53606
# Velocity P-wave (km/s) = 7.22566 6.70612 6.97073
#
# Compressibility (1/GPa) = 0.01394762
#
# Stress axis : x y z
#
# Youngs Moduli (GPa) = 83.15860 92.25667 72.26685
#
# Poissons Ratio (x) = 0.59212 0.49098
# Poissons Ratio (y) = 0.53373 -0.13260
# Poissons Ratio (z) = 0.56498 -0.16928
#
# Static dielectric constant tensor:
#      x y z
#    x 2.109540 0.000000 0.000000 
#    y 0.000000 1.963130 0.000000 
#    z 0.000000 0.000000 1.966930 
# 
# From -- ./inp_files/12021.got.cif
#   From: 2010.05.17/outbox.cif.g08.bks.cpg/sg56_7_cif.got.tgz:12021.got - 2010.06.03 13:42:01.
