data_PCOD9430680
_publ_section_title
;
Structure prediction by ZEFSAII (Michael W. Deem and Ramdas Pophale) SiO2 
 PCOD9430680
Probable space group: P C C N
;
_chemical_formula_sum "Si O2"
_cell_formula_units_Z 24
_cell_length_a 4.797918
_cell_length_b 9.967413
_cell_length_c 19.423735
_cell_angle_alpha 90.000000
_cell_angle_beta 90.000000
_cell_angle_gamma 90.000000
_cell_volume 928.897982
_symmetry_space_group_name_H-M "P C C N"
_symmetry_group_IT_number 56
_symmetry_cell_setting 'orthorhombic'
loop_
_space_group_symop_operation_xyz
x,y,z
1/2-x,1/2-y,z
1/2+x,-y,1/2-z
-x,1/2+y,1/2-z
-x,-y,-z
1/2+x,1/2+y,-z
1/2-x,y,1/2+z
x,1/2-y,1/2+z
loop_
_atom_site_type_symbol
_atom_site_label
_atom_site_fract_x
_atom_site_fract_y
_atom_site_fract_z
Si Si1 0.028706 0.653610 0.969734
Si Si2 0.370311 0.612564 0.681389
Si Si3 0.136859 0.954415 0.840523
O O1 0.250000 0.750000 0.009214
O O2 0.202052 0.622403 0.899559
O O3 0.750000 0.750000 0.963954
O O4 0.000000 0.500000 0.000000
O O5 0.250000 0.750000 0.657314
O O6 0.334278 0.605761 0.764209
O O7 0.690653 0.592158 0.665049
O O8 0.184912 0.491175 0.650081
#
# Coordination Sequence:
#
# PCOD9430680 Si02
#       3
#     8   8   8
#     4  12  27  48  72  98 134 180 230 282 336 396
#     4  10  20  36  61  94 130 167 212 268 329 398
#     4  10  22  38  61  94 128 169 215 266 333 398
#
# _framework density 25.837070000000001
#
# number of rings (size 3 to 8) (size 9 to 14) (size 15 to 20)
#    0.000    1.333    0.000    5.000    0.000    9.333 
#    0.000    0.000    0.000    0.000    0.000    0.000 
#    0.000    0.000    0.000    0.000    0.000    0.000 
#
# Total GULP energy -133937.213923 kJ/mol
# GULP energy per Si atom -5580.717247 kJ/mol
# Density = 2.577826 g / cm^3
# Si number density = 25.837070 Si / 1000 Ang^3
#
#
#
# Elastic Constant Matrix: (Units=GPa)
#
#
# Indices 1 2 3 4 5 6 
#
# 1 126.8515 23.1339 23.0804 0.0000 0.0000 0.0000
# 2 23.1339 156.9347 29.4264 0.0000 0.0000 0.0000
# 3 23.0804 29.4264 121.7638 0.0000 0.0000 0.0000
# 4 0.0000 0.0000 0.0000 -34.4024 0.0000 0.0000
# 5 0.0000 0.0000 0.0000 0.0000 18.6287 0.0000
# 6 0.0000 0.0000 0.0000 0.0000 0.0000 35.6067
#
#
#
# Elastic Compliance Matrix: (Units=1/GPa)
#
#
# Indices 1 2 3 4 5 6 
#
# 1 0.008304 -0.000973 -0.001339 0.000000 0.000000 0.000000
# 2 -0.000973 0.006789 -0.001456 0.000000 0.000000 0.000000
# 3 -0.001339 -0.001456 0.008818 0.000000 0.000000 0.000000
# 4 0.000000 0.000000 0.000000 -0.029068 0.000000 0.000000
# 5 0.000000 0.000000 0.000000 0.000000 0.053681 0.000000
# 6 0.000000 0.000000 0.000000 0.000000 0.000000 0.028085
#
#
# Mechanical properties :
#
#
# Convention : Reuss Voigt Hill
#
# Bulk Modulus (GPa) = 61.06905 61.87014 61.46960
# Shear Modulus (GPa) = 55.80150 25.96055 40.88102
#
# Velocity S-wave (km/s) = 4.65235 3.17326 3.98208
# Velocity P-wave (km/s) = 7.24891 6.11755 6.70712
#
# Compressibility (1/GPa) = 0.01637491
#
# Stress axis : x y z
#
# Youngs Moduli (GPa) = 120.41941 147.30672 113.40034
#
# Poissons Ratio (x) = 0.14334 0.15183
# Poissons Ratio (y) = 0.11718 0.16513
# Poissons Ratio (z) = 0.16123 0.21450
#
# Static dielectric constant tensor:
#      x y z
#    x 1.950550 0.000000 0.000000 
#    y 0.000000 2.138970 0.000000 
#    z 0.000000 0.000000 2.094300 
# 
# From -- ./inp_files/19712.got.cif
#   From: 2010.05.17/outbox.cif.g08.bks.cpg/sg56_10_cif.got.tgz:19712.got - 2010.06.03 13:42:01.
