data_PCOD9430726
_publ_section_title
;
Structure prediction by ZEFSAII (Michael W. Deem and Ramdas Pophale) SiO2 
 PCOD9430726
Probable space group: P C C N
;
_chemical_formula_sum "Si O2"
_cell_formula_units_Z 56
_cell_length_a 30.342078
_cell_length_b 4.911154
_cell_length_c 17.738827
_cell_angle_alpha 90.000000
_cell_angle_beta 90.000000
_cell_angle_gamma 90.000000
_cell_volume 2643.344525
_symmetry_space_group_name_H-M "P C C N"
_symmetry_group_IT_number 56
_symmetry_cell_setting 'orthorhombic'
loop_
_space_group_symop_operation_xyz
x,y,z
1/2-x,1/2-y,z
1/2+x,-y,1/2-z
-x,1/2+y,1/2-z
-x,-y,-z
1/2+x,1/2+y,-z
1/2-x,y,1/2+z
x,1/2-y,1/2+z
loop_
_atom_site_type_symbol
_atom_site_label
_atom_site_fract_x
_atom_site_fract_y
_atom_site_fract_z
Si Si1 0.392710 0.942685 0.529419
Si Si2 0.998599 0.443355 0.197424
Si Si3 0.645148 0.696425 0.819366
Si Si4 0.353283 0.950014 0.374474
Si Si5 0.800983 0.303484 0.761773
Si Si6 0.096499 0.055564 0.318921
Si Si7 0.955172 0.577062 0.956614
O O1 0.358220 0.886296 0.462232
O O2 0.419713 0.667849 0.545710
O O3 0.367762 0.080952 0.599677
O O4 0.430567 0.162382 0.508518
O O5 0.954221 0.565922 0.160557
O O6 0.985150 0.181874 0.247118
O O7 0.030454 0.366464 0.129439
O O8 0.676912 0.484783 0.777321
O O9 0.602467 0.673149 0.765378
O O10 0.671106 0.981354 0.812820
O O11 0.309700 0.901650 0.324606
O O12 0.387822 0.752410 0.331563
O O13 0.370518 0.256424 0.366015
O O14 0.750000 0.250000 0.777870
O O15 0.000000 0.500000 0.000000
#
# Coordination Sequence:
#
# PCOD9430726 Si02
#       7
#     8   8   8   8   8   8   8
#     4  12  23  40  58  87 123 159 205 248 300 363
#     4  12  23  36  55  80 111 152 203 255 296 335
#     4  10  21  37  62  88 118 156 192 245 305 358
#     4  10  21  37  61  82 111 153 191 235 287 355
#     4  10  21  40  65  92 117 148 192 238 296 370
#     4  10  20  37  54  79 111 152 202 240 287 353
#     4  12  25  39  57  84 122 166 206 257 304 342
#
# _framework density 21.185281
#
# number of rings (size 3 to 8) (size 9 to 14) (size 15 to 20)
#    0.000    1.143    0.000    7.714    0.000    2.286 
#    0.000    0.714    0.000    5.143    0.000    0.000 
#    0.000    0.000    0.000    0.000    0.000    0.000 
#
# Total GULP energy -312686.233425 kJ/mol
# GULP energy per Si atom -5583.682740 kJ/mol
# Density = 2.113706 g / cm^3
# Si number density = 21.185281 Si / 1000 Ang^3
#
#
#
# Elastic Constant Matrix: (Units=GPa)
#
#
# Indices 1 2 3 4 5 6 
#
# 1 53.3376 2.1999 7.8427 0.0000 0.0000 0.0000
# 2 2.1999 74.1655 -23.1901 0.0000 0.0000 0.0000
# 3 7.8427 -23.1901 88.3062 0.0000 0.0000 0.0000
# 4 0.0000 0.0000 0.0000 18.2459 0.0000 0.0000
# 5 0.0000 0.0000 0.0000 0.0000 17.2451 0.0000
# 6 0.0000 0.0000 0.0000 0.0000 0.0000 24.7429
#
#
#
# Elastic Compliance Matrix: (Units=1/GPa)
#
#
# Indices 1 2 3 4 5 6 
#
# 1 0.019093 -0.001195 -0.002009 0.000000 0.000000 0.000000
# 2 -0.001195 0.014764 0.003983 0.000000 0.000000 0.000000
# 3 -0.002009 0.003983 0.012549 0.000000 0.000000 0.000000
# 4 0.000000 0.000000 0.000000 0.054807 0.000000 0.000000
# 5 0.000000 0.000000 0.000000 0.000000 0.057988 0.000000
# 6 0.000000 0.000000 0.000000 0.000000 0.000000 0.040416
#
#
# Mechanical properties :
#
#
# Convention : Reuss Voigt Hill
#
# Bulk Modulus (GPa) = 20.84862 21.05715 20.95289
# Shear Modulus (GPa) = 23.35945 27.31056 25.33501
#
# Velocity S-wave (km/s) = 3.32418 3.59434 3.46190
# Velocity P-wave (km/s) = 4.95944 5.21410 5.08836
#
# Compressibility (1/GPa) = 0.04796480
#
# Stress axis : x y z
#
# Youngs Moduli (GPa) = 52.37457 67.73087 79.68913
#
# Poissons Ratio (x) = 0.08092 0.16013
# Poissons Ratio (y) = 0.06257 -0.31743
# Poissons Ratio (z) = 0.10524 -0.26980
#
# Static dielectric constant tensor:
#      x y z
#    x 1.777730 0.000000 0.000000 
#    y 0.000000 1.759650 0.000000 
#    z 0.000000 0.000000 1.859760 
# 
# From -- ./inp_files/13447.got.cif
#   From: 2010.05.17/outbox.cif.g08.bks.cpg/sg56_7_cif.got.tgz:13447.got - 2010.06.03 13:42:01.
