data_PCOD9430613
_publ_section_title
;
Structure prediction by ZEFSAII (Michael W. Deem and Ramdas Pophale) SiO2 
 PCOD9430613
Probable space group: P C C N
;
_chemical_formula_sum "Si O2"
_cell_formula_units_Z 64
_cell_length_a 16.311748
_cell_length_b 11.284077
_cell_length_c 17.138454
_cell_angle_alpha 90.000000
_cell_angle_beta 90.000000
_cell_angle_gamma 90.000000
_cell_volume 3154.555609
_symmetry_space_group_name_H-M "P C C N"
_symmetry_group_IT_number 56
_symmetry_cell_setting 'orthorhombic'
loop_
_space_group_symop_operation_xyz
x,y,z
1/2-x,1/2-y,z
1/2+x,-y,1/2-z
-x,1/2+y,1/2-z
-x,-y,-z
1/2+x,1/2+y,-z
1/2-x,y,1/2+z
x,1/2-y,1/2+z
loop_
_atom_site_type_symbol
_atom_site_label
_atom_site_fract_x
_atom_site_fract_y
_atom_site_fract_z
Si Si1 0.102632 0.509903 0.645845
Si Si2 0.953781 0.073688 0.609370
Si Si3 0.453855 0.169478 0.373230
Si Si4 0.312131 0.642108 0.288310
Si Si5 0.507503 0.116448 0.763995
Si Si6 0.264134 0.117971 0.120270
Si Si7 0.095124 0.355335 0.999945
Si Si8 0.335724 0.496679 0.774875
O O1 0.030094 0.583662 0.604552
O O2 0.144410 0.599205 0.708718
O O3 0.178756 0.449039 0.602606
O O4 0.056209 0.406839 0.694521
O O5 0.881842 0.151414 0.646470
O O6 0.022772 0.145699 0.564107
O O7 0.918421 0.974283 0.550846
O O8 0.993669 0.996859 0.679142
O O9 0.488579 0.266810 0.312321
O O10 0.416239 0.242566 0.444557
O O11 0.385086 0.096135 0.327128
O O12 0.250000 0.750000 0.277401
O O13 0.250332 0.535127 0.311811
O O14 0.600318 0.104963 0.735385
O O15 0.250000 0.250000 0.152210
O O16 0.319903 0.133786 0.044664
O O17 0.312111 0.048726 0.188552
#
# Coordination Sequence:
#
# PCOD9430613 Si02
#       8
#     8   8   8   8   8   8   8   8
#     4   9  20  36  56  91 121 144 201 256 294 356
#     4   9  19  38  59  79 112 158 205 226 281 373
#     4  10  20  36  62  92 116 155 200 249 297 353
#     4  10  20  36  58  89 118 151 188 251 306 342
#     4   9  16  34  62  85 116 157 191 241 298 360
#     4  11  22  38  58  86 122 160 193 244 310 358
#     4  10  21  39  61  80 116 167 202 232 292 368
#     4  10  20  35  60  92 119 147 197 253 295 354
#
# _framework density 20.288118999999998
#
# number of rings (size 3 to 8) (size 9 to 14) (size 15 to 20)
#    0.000    2.250    1.250    1.500    0.000    2.000 
#    6.750    0.625    0.000    0.000    0.000    0.000 
#    0.000    0.000    0.000    0.000    0.000    0.000 
#
# Total GULP energy -357334.425593 kJ/mol
# GULP energy per Si atom -5583.350400 kJ/mol
# Density = 2.024194 g / cm^3
# Si number density = 20.288119 Si / 1000 Ang^3
#
#
#
# Elastic Constant Matrix: (Units=GPa)
#
#
# Indices 1 2 3 4 5 6 
#
# 1 102.2617 25.0935 47.6927 0.0000 0.0000 0.0000
# 2 25.0935 57.3630 21.4134 0.0000 0.0000 0.0000
# 3 47.6927 21.4134 57.9123 0.0000 0.0000 0.0000
# 4 0.0000 0.0000 0.0000 15.5029 0.0000 0.0000
# 5 0.0000 0.0000 0.0000 0.0000 27.9599 0.0000
# 6 0.0000 0.0000 0.0000 0.0000 0.0000 26.4816
#
#
#
# Elastic Compliance Matrix: (Units=1/GPa)
#
#
# Indices 1 2 3 4 5 6 
#
# 1 0.016166 -0.002439 -0.012411 0.000000 0.000000 0.000000
# 2 -0.002439 0.020592 -0.005606 0.000000 0.000000 0.000000
# 3 -0.012411 -0.005606 0.029561 0.000000 0.000000 0.000000
# 4 0.000000 0.000000 0.000000 0.064504 0.000000 0.000000
# 5 0.000000 0.000000 0.000000 0.000000 0.035766 0.000000
# 6 0.000000 0.000000 0.000000 0.000000 0.000000 0.037762
#
#
# Mechanical properties :
#
#
# Convention : Reuss Voigt Hill
#
# Bulk Modulus (GPa) = 39.35788 45.10402 42.23095
# Shear Modulus (GPa) = 19.70589 22.21136 20.95863
#
# Velocity S-wave (km/s) = 3.11995 3.31236 3.21760
# Velocity P-wave (km/s) = 5.69389 6.07528 5.88767
#
# Compressibility (1/GPa) = 0.02540787
#
# Stress axis : x y z
#
# Youngs Moduli (GPa) = 61.85998 48.56200 33.82800
#
# Poissons Ratio (x) = 0.11842 0.41985
# Poissons Ratio (y) = 0.15085 0.18963
# Poissons Ratio (z) = 0.76776 0.27223
#
# Static dielectric constant tensor:
#      x y z
#    x 1.726770 0.000000 0.000000 
#    y 0.000000 1.736000 0.000000 
#    z 0.000000 0.000000 1.711750 
# 
# From -- ./inp_files/16359.got.cif
#   From: 2010.05.17/outbox.cif.g08.bks.cpg/sg56_9_cif.got.tgz:16359.got - 2010.06.03 13:42:01.
