data_PCOD9430712
_publ_section_title
;
Structure prediction by ZEFSAII (Michael W. Deem and Ramdas Pophale) SiO2 
 PCOD9430712
Probable space group: P C C N
;
_chemical_formula_sum "Si O2"
_cell_formula_units_Z 52
_cell_length_a 20.358869
_cell_length_b 12.356633
_cell_length_c 8.969953
_cell_angle_alpha 90.000000
_cell_angle_beta 90.000000
_cell_angle_gamma 90.000000
_cell_volume 2256.544817
_symmetry_space_group_name_H-M "P C C N"
_symmetry_group_IT_number 56
_symmetry_cell_setting 'orthorhombic'
loop_
_space_group_symop_operation_xyz
x,y,z
1/2-x,1/2-y,z
1/2+x,-y,1/2-z
-x,1/2+y,1/2-z
-x,-y,-z
1/2+x,1/2+y,-z
1/2-x,y,1/2+z
x,1/2-y,1/2+z
loop_
_atom_site_type_symbol
_atom_site_label
_atom_site_fract_x
_atom_site_fract_y
_atom_site_fract_z
Si Si1 0.661054 0.963248 0.017281
Si Si2 0.335191 0.649869 0.008710
Si Si3 0.382983 0.278865 0.027093
Si Si4 0.250000 0.750000 0.767079
Si Si5 0.025675 0.258275 0.278561
Si Si6 0.063034 0.834504 0.466648
Si Si7 0.205124 0.445052 0.641937
O O1 0.625078 0.850673 0.980738
O O2 0.691077 0.949983 0.183248
O O3 0.611999 0.065154 0.015090
O O4 0.721354 0.977950 0.902870
O O5 0.281501 0.662673 0.878007
O O6 0.395656 0.722841 0.960080
O O7 0.305094 0.703036 0.158714
O O8 0.343674 0.527132 0.055188
O O9 0.416634 0.314207 0.873603
O O10 0.435232 0.308900 0.154582
O O11 0.314255 0.330261 0.072384
O O12 0.978417 0.337703 0.186008
O O13 0.984585 0.184055 0.392282
#
# Coordination Sequence:
#
# PCOD9430712 Si02
#       7
#     8   8   8   4   8   8   8
#     4  12  27  46  74 106 149 189 237 302 363 435
#     4  11  21  40  63 102 142 175 235 284 357 433
#     4  11  25  50  68 103 142 193 249 289 355 425
#     4  10  20  36  64  96 146 184 216 288 356 428
#     4  10  24  47  72  98 140 191 245 292 344 426
#     4  11  24  46  71 107 140 189 241 300 366 415
#     4  12  26  44  71 109 144 190 235 295 369 426
#
# _framework density 23.044079
#
# number of rings (size 3 to 8) (size 9 to 14) (size 15 to 20)
#    0.000    0.923    1.538    6.000    2.154    4.923 
#    5.538    2.308    0.000    0.000    0.000    0.000 
#    0.000    0.000    0.000    0.000    0.000    0.000 
#
# Total GULP energy -290965.269935 kJ/mol
# GULP energy per Si atom -5595.485960 kJ/mol
# Density = 2.299163 g / cm^3
# Si number density = 23.044079 Si / 1000 Ang^3
#
#
#
# Elastic Constant Matrix: (Units=GPa)
#
#
# Indices 1 2 3 4 5 6 
#
# 1 82.8097 40.1772 39.3325 0.0000 0.0000 0.0000
# 2 40.1772 83.7593 22.0051 0.0000 0.0000 0.0000
# 3 39.3325 22.0051 143.1811 0.0000 0.0000 0.0000
# 4 0.0000 0.0000 0.0000 17.6826 0.0000 0.0000
# 5 0.0000 0.0000 0.0000 0.0000 42.3384 0.0000
# 6 0.0000 0.0000 0.0000 0.0000 0.0000 30.0999
#
#
#
# Elastic Compliance Matrix: (Units=1/GPa)
#
#
# Indices 1 2 3 4 5 6 
#
# 1 0.017388 -0.007384 -0.003642 0.000000 0.000000 0.000000
# 2 -0.007384 0.015577 -0.000366 0.000000 0.000000 0.000000
# 3 -0.003642 -0.000366 0.008041 0.000000 0.000000 0.000000
# 4 0.000000 0.000000 0.000000 0.056553 0.000000 0.000000
# 5 0.000000 0.000000 0.000000 0.000000 0.023619 0.000000
# 6 0.000000 0.000000 0.000000 0.000000 0.000000 0.033223
#
#
# Mechanical properties :
#
#
# Convention : Reuss Voigt Hill
#
# Bulk Modulus (GPa) = 54.87489 56.97550 55.92519
# Shear Modulus (GPa) = 27.28402 31.90652 29.59527
#
# Velocity S-wave (km/s) = 3.44465 3.72504 3.58759
# Velocity P-wave (km/s) = 6.29965 6.57871 6.44069
#
# Compressibility (1/GPa) = 0.01822327
#
# Stress axis : x y z
#
# Youngs Moduli (GPa) = 57.51062 64.19779 124.36633
#
# Poissons Ratio (x) = 0.47403 0.45291
# Poissons Ratio (y) = 0.42465 0.04547
# Poissons Ratio (z) = 0.20944 0.02347
#
# Static dielectric constant tensor:
#      x y z
#    x 1.898470 0.000000 0.000000 
#    y 0.000000 1.889630 0.000000 
#    z 0.000000 0.000000 1.877970 
# 
# From -- ./inp_files/4454.got.cif
#   From: 2010.05.17/outbox.cif.g08.bks.cpg/sg56_3_cif.got.tgz:4454.got - 2010.06.03 13:42:01.
