data_PCOD9431937
_publ_section_title
;
Structure prediction by ZEFSAII (Michael W. Deem and Ramdas Pophale) SiO2 
 PCOD9431937
Probable space group: P C C N
;
_chemical_formula_sum "Si O2"
_cell_formula_units_Z 64
_cell_length_a 20.704656
_cell_length_b 14.816769
_cell_length_c 9.132879
_cell_angle_alpha 90.000000
_cell_angle_beta 90.000000
_cell_angle_gamma 90.000000
_cell_volume 2801.749049
_symmetry_space_group_name_H-M "P C C N"
_symmetry_group_IT_number 56
_symmetry_cell_setting 'orthorhombic'
loop_
_space_group_symop_operation_xyz
x,y,z
1/2-x,1/2-y,z
1/2+x,-y,1/2-z
-x,1/2+y,1/2-z
-x,-y,-z
1/2+x,1/2+y,-z
1/2-x,y,1/2+z
x,1/2-y,1/2+z
loop_
_atom_site_type_symbol
_atom_site_label
_atom_site_fract_x
_atom_site_fract_y
_atom_site_fract_z
Si Si1 0.311967 0.927807 0.036887
Si Si2 0.013614 0.251834 0.015441
Si Si3 0.546110 0.432226 0.598655
Si Si4 0.793664 0.856923 0.516957
Si Si5 0.945637 0.431805 0.437874
Si Si6 0.324653 0.136713 0.304114
Si Si7 0.095548 0.215415 0.275633
Si Si8 0.815663 0.426506 0.634259
O O1 0.316096 0.886392 0.200996
O O2 0.299220 0.035868 0.014358
O O3 0.383833 0.919452 0.973903
O O4 0.248691 0.892927 0.949302
O O5 0.073216 0.211232 0.110402
O O6 0.982701 0.331146 0.111336
O O7 0.035943 0.310370 0.876070
O O8 0.969980 0.170050 0.965014
O O9 0.500000 0.500000 0.500000
O O10 0.558916 0.460697 0.767210
O O11 0.806997 0.822010 0.354049
O O12 0.722471 0.831684 0.568782
O O13 0.843263 0.833578 0.649336
O O14 0.877330 0.429308 0.525585
O O15 0.000000 0.500000 0.500000
O O16 0.394923 0.178084 0.316286
O O17 0.315468 0.031473 0.315452
#
# Coordination Sequence:
#
# PCOD9431937 Si02
#       8
#     8   8   8   8   8   8   8   8
#     4  10  22  42  68  97 133 179 227 287 349 417
#     4  12  28  45  65  99 139 178 236 291 351 430
#     4  12  27  46  73 103 142 187 235 293 361 419
#     4  10  22  37  59  89 129 173 221 271 335 411
#     4  12  27  45  72 106 140 185 237 293 358 421
#     4  10  22  38  57  91 128 173 222 271 333 414
#     4  12  23  40  61  89 134 178 220 280 343 411
#     4  10  22  43  69  98 136 176 231 287 348 418
#
# _framework density 22.842873000000001
#
# number of rings (size 3 to 8) (size 9 to 14) (size 15 to 20)
#    0.000    1.000    2.500    3.375    8.750    2.000 
#    0.000    0.625    0.000    3.000    0.000    0.000 
#    0.000    0.000    0.000    0.000    0.000    0.000 
#
# Total GULP energy -356394.530434 kJ/mol
# GULP energy per Si atom -5568.664538 kJ/mol
# Density = 2.279088 g / cm^3
# Si number density = 22.842873 Si / 1000 Ang^3
#
#
#
# Elastic Constant Matrix: (Units=GPa)
#
#
# Indices 1 2 3 4 5 6 
#
# 1 146.7064 5.9897 86.9027 0.0000 0.0000 0.0000
# 2 5.9897 30.8315 7.9451 0.0000 0.0000 0.0000
# 3 86.9027 7.9451 209.8709 0.0000 0.0000 0.0000
# 4 0.0000 0.0000 0.0000 19.0089 0.0000 0.0000
# 5 0.0000 0.0000 0.0000 0.0000 -11.7197 0.0000
# 6 0.0000 0.0000 0.0000 0.0000 0.0000 15.3647
#
#
#
# Elastic Compliance Matrix: (Units=1/GPa)
#
#
# Indices 1 2 3 4 5 6 
#
# 1 0.009051 -0.000800 -0.003718 0.000000 0.000000 0.000000
# 2 -0.000800 0.032825 -0.000911 0.000000 0.000000 0.000000
# 3 -0.003718 -0.000911 0.006339 0.000000 0.000000 0.000000
# 4 0.000000 0.000000 0.000000 0.052607 0.000000 0.000000
# 5 0.000000 0.000000 0.000000 0.000000 -0.085327 0.000000
# 6 0.000000 0.000000 0.000000 0.000000 0.000000 0.065084
#
#
# Mechanical properties :
#
#
# Convention : Reuss Voigt Hill
#
# Bulk Modulus (GPa) = 26.76933 65.45375 46.11154
# Shear Modulus (GPa) = 48.12800 23.63553 35.88176
#
# Velocity S-wave (km/s) = 4.59509 3.22017 3.96764
# Velocity P-wave (km/s) = 6.31645 6.52243 6.42026
#
# Compressibility (1/GPa) = 0.03735618
#
# Stress axis : x y z
#
# Youngs Moduli (GPa) = 110.48324 30.46485 157.76125
#
# Poissons Ratio (x) = 0.02438 0.58649
# Poissons Ratio (y) = 0.08843 0.14376
# Poissons Ratio (z) = 0.41073 0.02776
#
# Static dielectric constant tensor:
#      x y z
#    x 1.938340 0.000000 0.000000 
#    y 0.000000 1.939410 0.000000 
#    z 0.000000 0.000000 1.942380 
# 
# From -- ./inp_files/4578.got.cif
#   From: 2010.05.17/outbox.cif.g08.bks.cpg/sg56_3_cif.got.tgz:4578.got - 2010.06.03 13:42:01.
