data_PCOD9431268
_publ_section_title
;
Structure prediction by ZEFSAII (Michael W. Deem and Ramdas Pophale) SiO2 
 PCOD9431268
Probable space group: P C C N
;
_chemical_formula_sum "Si O2"
_cell_formula_units_Z 60
_cell_length_a 13.287650
_cell_length_b 20.543716
_cell_length_c 11.620181
_cell_angle_alpha 90.000000
_cell_angle_beta 90.000000
_cell_angle_gamma 90.000000
_cell_volume 3172.050375
_symmetry_space_group_name_H-M "P C C N"
_symmetry_group_IT_number 56
_symmetry_cell_setting 'orthorhombic'
loop_
_space_group_symop_operation_xyz
x,y,z
1/2-x,1/2-y,z
1/2+x,-y,1/2-z
-x,1/2+y,1/2-z
-x,-y,-z
1/2+x,1/2+y,-z
1/2-x,y,1/2+z
x,1/2-y,1/2+z
loop_
_atom_site_type_symbol
_atom_site_label
_atom_site_fract_x
_atom_site_fract_y
_atom_site_fract_z
Si Si1 0.250000 0.250000 0.953841
Si Si2 0.007964 0.607909 0.037277
Si Si3 0.437264 0.334285 0.698606
Si Si4 0.656430 0.502153 0.028709
Si Si5 0.215616 0.370578 0.617866
Si Si6 0.128743 0.991516 0.400489
Si Si7 0.466345 0.557913 0.161761
Si Si8 0.924078 0.693298 0.210292
O O1 0.160722 0.280195 0.878237
O O2 0.288046 0.309179 0.031856
O O3 0.093515 0.556319 0.004211
O O4 0.988303 0.647046 0.921079
O O5 0.910647 0.562830 0.064349
O O6 0.013662 0.658847 0.140899
O O7 0.322649 0.361276 0.683774
O O8 0.492367 0.371508 0.802390
O O9 0.445697 0.257736 0.717438
O O10 0.752088 0.485595 0.106416
O O11 0.562400 0.520379 0.109167
O O12 0.694167 0.563636 0.951564
O O13 0.617886 0.448619 0.937048
O O14 0.127856 0.360111 0.709537
O O15 0.074594 0.972454 0.281254
#
# Coordination Sequence:
#
# PCOD9431268 Si02
#       8
#     4   8   8   8   8   8   8   8
#     4  12  18  30  46  82 118 158 198 226 306 390
#     4  10  21  35  55  89 113 161 212 239 303 375
#     4  11  20  35  53  83 127 152 199 244 301 374
#     4  11  23  40  60  84 125 157 202 268 306 363
#     4  12  21  32  54  85 119 166 189 235 320 378
#     4  10  21  39  62  82 122 164 208 257 302 375
#     4  10  25  38  57  94 114 159 210 249 312 362
#     4  12  20  32  54  84 125 161 197 247 304 388
#
# _framework density 18.915210999999999
#
# number of rings (size 3 to 8) (size 9 to 14) (size 15 to 20)
#    0.000    1.067    5.333    1.600    3.733    0.000 
#    0.000    0.000    0.000    0.800    0.000    3.733 
#    0.000    0.000    0.000    0.000    0.000    0.000 
#
# Total GULP energy -334892.005642 kJ/mol
# GULP energy per Si atom -5581.533427 kJ/mol
# Density = 1.887216 g / cm^3
# Si number density = 18.915211 Si / 1000 Ang^3
#
#
#
# Elastic Constant Matrix: (Units=GPa)
#
#
# Indices 1 2 3 4 5 6 
#
# 1 62.0406 16.2527 10.9260 0.0000 0.0000 0.0000
# 2 16.2527 62.9905 27.3322 0.0000 0.0000 0.0000
# 3 10.9260 27.3322 39.6422 0.0000 0.0000 0.0000
# 4 0.0000 0.0000 0.0000 19.6096 0.0000 0.0000
# 5 0.0000 0.0000 0.0000 0.0000 12.4090 0.0000
# 6 0.0000 0.0000 0.0000 0.0000 0.0000 18.0518
#
#
#
# Elastic Compliance Matrix: (Units=1/GPa)
#
#
# Indices 1 2 3 4 5 6 
#
# 1 0.017450 -0.003447 -0.002433 0.000000 0.000000 0.000000
# 2 -0.003447 0.023333 -0.015138 0.000000 0.000000 0.000000
# 3 -0.002433 -0.015138 0.036333 0.000000 0.000000 0.000000
# 4 0.000000 0.000000 0.000000 0.050995 0.000000 0.000000
# 5 0.000000 0.000000 0.000000 0.000000 0.080586 0.000000
# 6 0.000000 0.000000 0.000000 0.000000 0.000000 0.055396
#
#
# Mechanical properties :
#
#
# Convention : Reuss Voigt Hill
#
# Bulk Modulus (GPa) = 28.50505 30.41058 29.45781
# Shear Modulus (GPa) = 15.73204 17.35823 16.54514
#
# Velocity S-wave (km/s) = 2.88707 3.03262 2.96074
# Velocity P-wave (km/s) = 5.12018 5.32678 5.22450
#
# Compressibility (1/GPa) = 0.03508151
#
# Stress axis : x y z
#
# Youngs Moduli (GPa) = 57.30703 42.85761 27.52308
#
# Poissons Ratio (x) = 0.14772 0.06697
# Poissons Ratio (y) = 0.19752 0.41663
# Poissons Ratio (z) = 0.13943 0.64876
#
# Static dielectric constant tensor:
#      x y z
#    x 1.657080 0.000000 0.000000 
#    y 0.000000 1.669410 0.000000 
#    z 0.000000 0.000000 1.697990 
# 
# From -- ./inp_files/7348.got.cif
#   From: 2010.05.17/outbox.cif.g08.bks.cpg/sg56_4_cif.got.tgz:7348.got - 2010.06.03 13:42:01.
