data_PCOD9431232
_publ_section_title
;
Structure prediction by ZEFSAII (Michael W. Deem and Ramdas Pophale) SiO2 
 PCOD9431232
Probable space group: P C C N
;
_chemical_formula_sum "Si O2"
_cell_formula_units_Z 48
_cell_length_a 8.229690
_cell_length_b 11.346038
_cell_length_c 22.733992
_cell_angle_alpha 90.000000
_cell_angle_beta 90.000000
_cell_angle_gamma 90.000000
_cell_volume 2122.772305
_symmetry_space_group_name_H-M "P C C N"
_symmetry_group_IT_number 56
_symmetry_cell_setting 'orthorhombic'
loop_
_space_group_symop_operation_xyz
x,y,z
1/2-x,1/2-y,z
1/2+x,-y,1/2-z
-x,1/2+y,1/2-z
-x,-y,-z
1/2+x,1/2+y,-z
1/2-x,y,1/2+z
x,1/2-y,1/2+z
loop_
_atom_site_type_symbol
_atom_site_label
_atom_site_fract_x
_atom_site_fract_y
_atom_site_fract_z
Si Si1 0.933064 0.243291 0.135428
Si Si2 0.849312 0.870392 0.269859
Si Si3 0.860398 0.633398 0.099223
Si Si4 0.954655 0.971857 0.145771
Si Si5 0.114372 0.149043 0.538024
Si Si6 0.296956 0.950698 0.131547
O O1 0.750000 0.250000 0.153437
O O2 0.027321 0.323403 0.181378
O O3 0.959332 0.296322 0.070707
O O4 0.994740 0.110100 0.140054
O O5 0.750000 0.750000 0.255564
O O6 0.921728 0.923407 0.210795
O O7 0.774091 0.980265 0.306260
O O8 0.750000 0.750000 0.109266
O O9 0.722058 0.538010 0.114604
O O10 0.031608 0.621064 0.133934
O O11 0.903913 0.624576 0.030434
O O12 0.113452 0.902207 0.120759
O O13 0.250000 0.250000 0.544273
O O14 0.170406 0.039387 0.577296
#
# Coordination Sequence:
#
# PCOD9431232 Si02
#       6
#     8   8   8   8   8   8
#     4  11  23  42  71 107 134 186 242 291 354 435
#     4  11  24  45  69 100 148 177 232 304 352 422
#     4  11  27  46  66 102 147 182 234 308 352 414
#     4  12  25  43  72 105 136 192 242 284 365 438
#     4  10  20  47  69  98 146 180 234 301 353 414
#     4  11  23  44  74 100 138 191 237 287 362 430
#
# _framework density 22.611939
#
# number of rings (size 3 to 8) (size 9 to 14) (size 15 to 20)
#    0.000    1.000    3.333    4.000    4.667    2.667 
#    6.000    0.000    0.000    0.000    0.000    0.000 
#    0.000    0.000    0.000    0.000    0.000    0.000 
#
# Total GULP energy -267831.989787 kJ/mol
# GULP energy per Si atom -5579.833121 kJ/mol
# Density = 2.256047 g / cm^3
# Si number density = 22.611939 Si / 1000 Ang^3
#
#
#
# Elastic Constant Matrix: (Units=GPa)
#
#
# Indices 1 2 3 4 5 6 
#
# 1 134.4894 25.1875 26.6091 0.0000 0.0000 0.0000
# 2 25.1875 58.9860 37.6398 0.0000 0.0000 0.0000
# 3 26.6091 37.6398 103.3088 0.0000 0.0000 0.0000
# 4 0.0000 0.0000 0.0000 12.1955 0.0000 0.0000
# 5 0.0000 0.0000 0.0000 0.0000 354.6492 0.0000
# 6 0.0000 0.0000 0.0000 0.0000 0.0000 39.9612
#
#
#
# Elastic Compliance Matrix: (Units=1/GPa)
#
#
# Indices 1 2 3 4 5 6 
#
# 1 0.008174 -0.002797 -0.001086 0.000000 0.000000 0.000000
# 2 -0.002797 0.023046 -0.007676 0.000000 0.000000 0.000000
# 3 -0.001086 -0.007676 0.012756 0.000000 0.000000 0.000000
# 4 0.000000 0.000000 0.000000 0.081997 0.000000 0.000000
# 5 0.000000 0.000000 0.000000 0.000000 0.002820 0.000000
# 6 0.000000 0.000000 0.000000 0.000000 0.000000 0.025024
#
#
# Mechanical properties :
#
#
# Convention : Reuss Voigt Hill
#
# Bulk Modulus (GPa) = 47.94542 52.85080 50.39811
# Shear Modulus (GPa) = 27.19024 95.18437 61.18731
#
# Velocity S-wave (km/s) = 3.47143 6.49508 5.20754
# Velocity P-wave (km/s) = 6.10880 8.92591 7.64818
#
# Compressibility (1/GPa) = 0.02085705
#
# Stress axis : x y z
#
# Youngs Moduli (GPa) = 122.33397 43.39172 78.39306
#
# Poissons Ratio (x) = 0.12138 0.08516
# Poissons Ratio (y) = 0.34221 0.60175
# Poissons Ratio (z) = 0.13289 0.33308
#
# Static dielectric constant tensor:
#      x y z
#    x 1.890310 0.000000 0.000000 
#    y 0.000000 2.011570 0.000000 
#    z 0.000000 0.000000 1.789270 
# 
# From -- ./inp_files/20492.got.cif
#   From: 2010.05.17/outbox.cif.g08.bks.cpg/sg56_11_cif.got.tgz:20492.got - 2010.06.03 13:42:01.
