data_PCOD9431802
_publ_section_title
;
Structure prediction by ZEFSAII (Michael W. Deem and Ramdas Pophale) SiO2 
 PCOD9431802
Probable space group: P C C N
;
_chemical_formula_sum "Si O2"
_cell_formula_units_Z 52
_cell_length_a 23.624971
_cell_length_b 8.660584
_cell_length_c 11.876210
_cell_angle_alpha 90.000000
_cell_angle_beta 90.000000
_cell_angle_gamma 90.000000
_cell_volume 2429.944368
_symmetry_space_group_name_H-M "P C C N"
_symmetry_group_IT_number 56
_symmetry_cell_setting 'orthorhombic'
loop_
_space_group_symop_operation_xyz
x,y,z
1/2-x,1/2-y,z
1/2+x,-y,1/2-z
-x,1/2+y,1/2-z
-x,-y,-z
1/2+x,1/2+y,-z
1/2-x,y,1/2+z
x,1/2-y,1/2+z
loop_
_atom_site_type_symbol
_atom_site_label
_atom_site_fract_x
_atom_site_fract_y
_atom_site_fract_z
Si Si1 0.317934 0.511355 0.430981
Si Si2 0.024878 0.241800 0.162295
Si Si3 0.115456 0.002166 0.201266
Si Si4 0.935576 0.996420 0.180383
Si Si5 0.874175 0.790591 0.993002
Si Si6 0.750000 0.250000 0.689892
Si Si7 0.357688 0.822000 0.153526
O O1 0.356302 0.521137 0.320399
O O2 0.327826 0.333966 0.468782
O O3 0.261387 0.598776 0.387941
O O4 0.340618 0.612871 0.533556
O O5 0.023237 0.377408 0.253189
O O6 0.067269 0.284521 0.058729
O O7 0.061343 0.106856 0.220647
O O8 0.968099 0.147831 0.131556
O O9 0.107335 0.836559 0.145354
O O10 0.149545 0.105671 0.110072
O O11 0.893777 0.057145 0.276214
O O12 0.898756 0.903038 0.089134
O O13 0.697714 0.215524 0.772245
#
# Coordination Sequence:
#
# PCOD9431802 Si02
#       7
#     8   8   8   8   8   4   8
#     4  11  21  46  73  97 142 180 232 293 352 418
#     4  10  22  39  61 106 136 185 225 272 343 425
#     4   9  22  38  67 100 139 183 227 275 346 420
#     4  12  22  41  67  96 147 185 232 285 349 420
#     4  10  21  42  68  97 145 181 229 284 348 410
#     4  10  26  42  76 100 130 172 250 286 356 420
#     4  11  23  43  69 100 134 186 224 297 352 411
#
# _framework density 21.399668999999999
#
# number of rings (size 3 to 8) (size 9 to 14) (size 15 to 20)
#    0.923    0.615    3.077    1.846    4.308    0.000 
#    0.000    2.308    0.000    0.000    0.000    0.000 
#    0.000    0.000    0.000    0.000    0.000    0.000 
#
# Total GULP energy -289547.691956 kJ/mol
# GULP energy per Si atom -5568.224845 kJ/mol
# Density = 2.135096 g / cm^3
# Si number density = 21.399669 Si / 1000 Ang^3
#
#
#
# Elastic Constant Matrix: (Units=GPa)
#
#
# Indices 1 2 3 4 5 6 
#
# 1 43.1351 38.1392 10.4333 0.0000 0.0000 0.0000
# 2 38.1392 103.9449 50.0665 0.0000 0.0000 0.0000
# 3 10.4333 50.0665 104.9831 0.0000 0.0000 0.0000
# 4 0.0000 0.0000 0.0000 94.2649 0.0000 0.0000
# 5 0.0000 0.0000 0.0000 0.0000 9.6661 0.0000
# 6 0.0000 0.0000 0.0000 0.0000 0.0000 40.4154
#
#
#
# Elastic Compliance Matrix: (Units=1/GPa)
#
#
# Indices 1 2 3 4 5 6 
#
# 1 0.035258 -0.014604 0.003461 0.000000 0.000000 0.000000
# 2 -0.014604 0.018538 -0.007390 0.000000 0.000000 0.000000
# 3 0.003461 -0.007390 0.012705 0.000000 0.000000 0.000000
# 4 0.000000 0.000000 0.000000 0.010608 0.000000 0.000000
# 5 0.000000 0.000000 0.000000 0.000000 0.103454 0.000000
# 6 0.000000 0.000000 0.000000 0.000000 0.000000 0.024743
#
#
# Mechanical properties :
#
#
# Convention : Reuss Voigt Hill
#
# Bulk Modulus (GPa) = 33.97142 49.92679 41.94911
# Shear Modulus (GPa) = 19.82673 39.09755 29.46214
#
# Velocity S-wave (km/s) = 3.04714 4.27900 3.71449
# Velocity P-wave (km/s) = 5.31877 6.91335 6.16781
#
# Compressibility (1/GPa) = 0.02943651
#
# Stress axis : x y z
#
# Youngs Moduli (GPa) = 28.36215 53.94299 78.70609
#
# Poissons Ratio (x) = 0.78777 -0.27236
# Poissons Ratio (y) = 0.41419 0.58160
# Poissons Ratio (z) = -0.09815 0.39861
#
# Static dielectric constant tensor:
#      x y z
#    x 1.817410 0.000000 0.000000 
#    y 0.000000 1.821560 0.000000 
#    z 0.000000 0.000000 1.752720 
# 
# From -- ./inp_files/9048.got.cif
#   From: 2010.05.17/outbox.cif.g08.bks.cpg/sg56_5_cif.got.tgz:9048.got - 2010.06.03 13:42:01.
