data_PCOD9431551
_publ_section_title
;
Structure prediction by ZEFSAII (Michael W. Deem and Ramdas Pophale) SiO2 
 PCOD9431551
Probable space group: P C C N
;
_chemical_formula_sum "Si O2"
_cell_formula_units_Z 60
_cell_length_a 13.418610
_cell_length_b 8.464024
_cell_length_c 24.959242
_cell_angle_alpha 90.000000
_cell_angle_beta 90.000000
_cell_angle_gamma 90.000000
_cell_volume 2834.756820
_symmetry_space_group_name_H-M "P C C N"
_symmetry_group_IT_number 56
_symmetry_cell_setting 'orthorhombic'
loop_
_space_group_symop_operation_xyz
x,y,z
1/2-x,1/2-y,z
1/2+x,-y,1/2-z
-x,1/2+y,1/2-z
-x,-y,-z
1/2+x,1/2+y,-z
1/2-x,y,1/2+z
x,1/2-y,1/2+z
loop_
_atom_site_type_symbol
_atom_site_label
_atom_site_fract_x
_atom_site_fract_y
_atom_site_fract_z
Si Si1 0.360470 0.447083 0.285678
Si Si2 0.048315 0.056858 0.445789
Si Si3 0.087127 0.092330 0.969401
Si Si4 0.507104 0.242011 0.725208
Si Si5 0.250000 0.250000 0.548478
Si Si6 0.810841 0.413194 0.773034
Si Si7 0.098328 0.105749 0.632925
Si Si8 0.746235 0.940967 0.100976
O O1 0.435840 0.590847 0.273125
O O2 0.428957 0.294967 0.273295
O O3 0.268388 0.456907 0.245271
O O4 0.304203 0.476460 0.341930
O O5 0.042677 0.246303 0.444756
O O6 0.163518 0.009625 0.442106
O O7 0.000000 0.000000 0.500000
O O8 0.993299 0.974287 0.397172
O O9 0.146616 0.004510 0.921056
O O10 0.173370 0.149900 0.011273
O O11 0.000000 0.000000 0.000000
O O12 0.599074 0.120164 0.731395
O O13 0.443090 0.251829 0.670476
O O14 0.178249 0.153352 0.588320
O O15 0.750000 0.250000 0.778687
O O16 0.857392 0.475243 0.827429
O O17 0.750000 0.750000 0.100980
#
# Coordination Sequence:
#
# PCOD9431551 Si02
#       8
#     8   8   8   8   4   8   8   8
#     4  11  23  41  67  95 139 181 228 287 339 419
#     4  11  20  43  70  92 139 177 222 293 350 410
#     4  11  24  45  72 105 136 181 239 292 354 434
#     4  11  22  42  64  98 134 180 234 273 346 417
#     4  12  24  44  66 100 142 172 236 290 344 426
#     4  10  24  42  61  99 139 170 228 287 329 416
#     4  12  23  41  72  97 135 190 223 283 364 404
#     4  10  21  39  65  98 135 183 224 280 363 414
#
# _framework density 21.165837
#
# number of rings (size 3 to 8) (size 9 to 14) (size 15 to 20)
#    0.000    1.067    6.000    0.800    1.867    2.133 
#    0.000    4.667    0.000    0.000    0.000    0.000 
#    0.000    0.000    0.000    0.000    0.000    0.000 
#
# Total GULP energy -334626.725808 kJ/mol
# GULP energy per Si atom -5577.112097 kJ/mol
# Density = 2.111766 g / cm^3
# Si number density = 21.165837 Si / 1000 Ang^3
#
#
#
# Elastic Constant Matrix: (Units=GPa)
#
#
# Indices 1 2 3 4 5 6 
#
# 1 142.4119 45.5585 55.1098 0.0000 0.0000 0.0000
# 2 45.5585 44.2563 22.3811 0.0000 0.0000 0.0000
# 3 55.1098 22.3811 96.8589 0.0000 0.0000 0.0000
# 4 0.0000 0.0000 0.0000 27.8562 0.0000 0.0000
# 5 0.0000 0.0000 0.0000 0.0000 49.9605 0.0000
# 6 0.0000 0.0000 0.0000 0.0000 0.0000 44.3252
#
#
#
# Elastic Compliance Matrix: (Units=1/GPa)
#
#
# Indices 1 2 3 4 5 6 
#
# 1 0.011978 -0.010059 -0.004491 0.000000 0.000000 0.000000
# 2 -0.010059 0.034033 -0.002141 0.000000 0.000000 0.000000
# 3 -0.004491 -0.002141 0.013374 0.000000 0.000000 0.000000
# 4 0.000000 0.000000 0.000000 0.035899 0.000000 0.000000
# 5 0.000000 0.000000 0.000000 0.000000 0.020016 0.000000
# 6 0.000000 0.000000 0.000000 0.000000 0.000000 0.022561
#
#
# Mechanical properties :
#
#
# Convention : Reuss Voigt Hill
#
# Bulk Modulus (GPa) = 38.45542 58.84733 48.65138
# Shear Modulus (GPa) = 27.79188 35.12688 31.45938
#
# Velocity S-wave (km/s) = 3.62754 4.07824 3.85948
# Velocity P-wave (km/s) = 5.97942 7.07385 6.54954
#
# Compressibility (1/GPa) = 0.02600413
#
# Stress axis : x y z
#
# Youngs Moduli (GPa) = 83.48933 29.38296 74.77226
#
# Poissons Ratio (x) = 0.29557 0.33577
# Poissons Ratio (y) = 0.83983 0.16007
# Poissons Ratio (z) = 0.37491 0.06290
#
# Static dielectric constant tensor:
#      x y z
#    x 1.798420 0.000000 0.000000 
#    y 0.000000 1.806010 0.000000 
#    z 0.000000 0.000000 1.810560 
# 
# From -- ./inp_files/22340.got.cif
#   From: 2010.05.17/outbox.cif.g08.bks.cpg/sg56_12_cif.got.tgz:22340.got - 2010.06.03 13:42:01.
