data_PCOD9431580
_publ_section_title
;
Structure prediction by ZEFSAII (Michael W. Deem and Ramdas Pophale) SiO2 
 PCOD9431580
Probable space group: P C C N
;
_chemical_formula_sum "Si O2"
_cell_formula_units_Z 64
_cell_length_a 12.833159
_cell_length_b 17.091613
_cell_length_c 14.659016
_cell_angle_alpha 90.000000
_cell_angle_beta 90.000000
_cell_angle_gamma 90.000000
_cell_volume 3215.299586
_symmetry_space_group_name_H-M "P C C N"
_symmetry_group_IT_number 56
_symmetry_cell_setting 'orthorhombic'
loop_
_space_group_symop_operation_xyz
x,y,z
1/2-x,1/2-y,z
1/2+x,-y,1/2-z
-x,1/2+y,1/2-z
-x,-y,-z
1/2+x,1/2+y,-z
1/2-x,y,1/2+z
x,1/2-y,1/2+z
loop_
_atom_site_type_symbol
_atom_site_label
_atom_site_fract_x
_atom_site_fract_y
_atom_site_fract_z
Si Si1 0.998785 0.615763 0.743361
Si Si2 0.626822 0.259947 0.870348
Si Si3 0.833990 0.941881 0.945129
Si Si4 0.869596 0.974265 0.744519
Si Si5 0.509173 0.700975 0.955531
Si Si6 0.051500 0.640501 0.269809
Si Si7 0.167969 0.314787 0.115548
Si Si8 0.158220 0.009324 0.857229
O O1 0.912406 0.654072 0.808934
O O2 0.931225 0.572133 0.665647
O O3 0.081662 0.674364 0.698906
O O4 0.062683 0.546397 0.792491
O O5 0.750000 0.250000 0.879502
O O6 0.590869 0.180099 0.821579
O O7 0.572333 0.280697 0.965882
O O8 0.846463 0.989600 0.851642
O O9 0.734987 0.884946 0.927959
O O10 0.932443 0.883165 0.959227
O O11 0.827008 0.994665 0.034523
O O12 0.764863 0.963766 0.689219
O O13 0.939280 0.896780 0.747923
O O14 0.458978 0.699942 0.854574
O O15 0.599048 0.766766 0.956955
O O16 0.122825 0.570527 0.308567
O O17 0.250000 0.250000 0.153279
#
# Coordination Sequence:
#
# PCOD9431580 Si02
#       8
#     8   8   8   8   8   8   8   8
#     4  11  22  41  67  90 128 173 218 266 329 385
#     4  12  25  42  64  90 130 175 218 263 327 394
#     4  10  21  39  69  97 128 167 217 267 329 393
#     4  10  23  40  63  96 129 164 217 268 323 391
#     4  10  22  41  63  97 128 166 215 270 324 389
#     4  10  24  42  63  91 132 169 214 270 319 392
#     4  10  21  42  66  98 132 165 214 282 330 384
#     4  11  22  41  66  94 129 172 217 263 332 388
#
# _framework density 19.904831000000001
#
# number of rings (size 3 to 8) (size 9 to 14) (size 15 to 20)
#    0.000    1.500    3.750    0.750    3.500    2.000 
#    2.250    0.625    0.000    0.000    0.000    0.000 
#    0.000    0.000    0.000    0.000    0.000    0.000 
#
# Total GULP energy -357253.773377 kJ/mol
# GULP energy per Si atom -5582.090209 kJ/mol
# Density = 1.985953 g / cm^3
# Si number density = 19.904831 Si / 1000 Ang^3
#
#
#
# Elastic Constant Matrix: (Units=GPa)
#
#
# Indices 1 2 3 4 5 6 
#
# 1 124.7210 27.4119 41.3944 0.0000 0.0000 0.0000
# 2 27.4119 53.1241 12.5313 0.0000 0.0000 0.0000
# 3 41.3944 12.5313 62.3094 0.0000 0.0000 0.0000
# 4 0.0000 0.0000 0.0000 19.7051 0.0000 0.0000
# 5 0.0000 0.0000 0.0000 0.0000 28.8380 0.0000
# 6 0.0000 0.0000 0.0000 0.0000 0.0000 26.9734
#
#
#
# Elastic Compliance Matrix: (Units=1/GPa)
#
#
# Indices 1 2 3 4 5 6 
#
# 1 0.011108 -0.004190 -0.006537 0.000000 0.000000 0.000000
# 2 -0.004190 0.021342 -0.001509 0.000000 0.000000 0.000000
# 3 -0.006537 -0.001509 0.020695 0.000000 0.000000 0.000000
# 4 0.000000 0.000000 0.000000 0.050748 0.000000 0.000000
# 5 0.000000 0.000000 0.000000 0.000000 0.034676 0.000000
# 6 0.000000 0.000000 0.000000 0.000000 0.000000 0.037074
#
#
# Mechanical properties :
#
#
# Convention : Reuss Voigt Hill
#
# Bulk Modulus (GPa) = 34.87467 44.75884 39.81675
# Shear Modulus (GPa) = 23.84670 25.69111 24.76890
#
# Velocity S-wave (km/s) = 3.46502 3.59652 3.53138
# Velocity P-wave (km/s) = 5.79372 6.30729 6.05595
#
# Compressibility (1/GPa) = 0.02867411
#
# Stress axis : x y z
#
# Youngs Moduli (GPa) = 90.02192 46.85663 48.32051
#
# Poissons Ratio (x) = 0.19633 0.31587
# Poissons Ratio (y) = 0.37718 0.07290
# Poissons Ratio (z) = 0.58848 0.07069
#
# Static dielectric constant tensor:
#      x y z
#    x 1.706690 0.000000 0.000000 
#    y 0.000000 1.745630 0.000000 
#    z 0.000000 0.000000 1.692370 
# 
# From -- ./inp_files/11836.got.cif
#   From: 2010.05.17/outbox.cif.g08.bks.cpg/sg56_6_cif.got.tgz:11836.got - 2010.06.03 13:42:01.
