data_PCOD9431632
_publ_section_title
;
Structure prediction by ZEFSAII (Michael W. Deem and Ramdas Pophale) SiO2 
 PCOD9431632
Probable space group: P C C N
;
_chemical_formula_sum "Si O2"
_cell_formula_units_Z 48
_cell_length_a 21.570601
_cell_length_b 9.081467
_cell_length_c 10.633647
_cell_angle_alpha 90.000000
_cell_angle_beta 90.000000
_cell_angle_gamma 90.000000
_cell_volume 2083.053834
_symmetry_space_group_name_H-M "P C C N"
_symmetry_group_IT_number 56
_symmetry_cell_setting 'orthorhombic'
loop_
_space_group_symop_operation_xyz
x,y,z
1/2-x,1/2-y,z
1/2+x,-y,1/2-z
-x,1/2+y,1/2-z
-x,-y,-z
1/2+x,1/2+y,-z
1/2-x,y,1/2+z
x,1/2-y,1/2+z
loop_
_atom_site_type_symbol
_atom_site_label
_atom_site_fract_x
_atom_site_fract_y
_atom_site_fract_z
Si Si1 0.212096 0.385819 0.546695
Si Si2 0.521530 0.648973 0.184798
Si Si3 0.687814 0.202004 0.562856
Si Si4 0.407736 0.215169 0.054320
Si Si5 0.825798 0.466437 0.885344
Si Si6 0.925384 0.154538 0.207599
O O1 0.250000 0.250000 0.482504
O O2 0.196753 0.530209 0.466565
O O3 0.146797 0.326847 0.594651
O O4 0.263595 0.443590 0.644712
O O5 0.549428 0.683665 0.324633
O O6 0.557628 0.723506 0.068435
O O7 0.525720 0.472116 0.167506
O O8 0.455386 0.728497 0.197963
O O9 0.750000 0.250000 0.640923
O O10 0.691539 0.312165 0.444993
O O11 0.616868 0.231964 0.604585
O O12 0.368822 0.066847 0.023906
O O13 0.870230 0.438498 0.770423
#
# Coordination Sequence:
#
# PCOD9431632 Si02
#       6
#     8   8   8   8   8   8
#     4   9  18  41  65  93 129 171 225 287 341 405
#     4  11  26  42  69  95 142 181 227 280 330 416
#     4  10  21  40  64  94 128 172 225 283 342 404
#     4  10  22  45  65 101 130 178 227 276 344 403
#     4   9  22  40  64  93 135 172 219 288 342 400
#     4  11  25  43  62  99 134 180 228 276 338 406
#
# _framework density 23.043089999999999
#
# number of rings (size 3 to 8) (size 9 to 14) (size 15 to 20)
#    0.000    2.000    1.667    0.000    4.667    5.333 
#    9.000    0.000    0.000    0.000    0.000    0.000 
#    0.000    0.000    0.000    0.000    0.000    0.000 
#
# Total GULP energy -267260.565686 kJ/mol
# GULP energy per Si atom -5567.928452 kJ/mol
# Density = 2.299064 g / cm^3
# Si number density = 23.043090 Si / 1000 Ang^3
#
#
#
# Elastic Constant Matrix: (Units=GPa)
#
#
# Indices 1 2 3 4 5 6 
#
# 1 52.1616 11.1635 -3.3261 0.0000 0.0000 0.0000
# 2 11.1635 94.7998 11.0832 0.0000 0.0000 0.0000
# 3 -3.3261 11.0832 33.3448 0.0000 0.0000 0.0000
# 4 0.0000 0.0000 0.0000 15.6374 0.0000 0.0000
# 5 0.0000 0.0000 0.0000 0.0000 22.1485 0.0000
# 6 0.0000 0.0000 0.0000 0.0000 0.0000 40.3056
#
#
#
# Elastic Compliance Matrix: (Units=1/GPa)
#
#
# Indices 1 2 3 4 5 6 
#
# 1 0.019929 -0.002684 0.002880 0.000000 0.000000 0.000000
# 2 -0.002684 0.011336 -0.004036 0.000000 0.000000 0.000000
# 3 0.002880 -0.004036 0.031618 0.000000 0.000000 0.000000
# 4 0.000000 0.000000 0.000000 0.063949 0.000000 0.000000
# 5 0.000000 0.000000 0.000000 0.000000 0.045150 0.000000
# 6 0.000000 0.000000 0.000000 0.000000 0.000000 0.024810
#
#
# Mechanical properties :
#
#
# Convention : Reuss Voigt Hill
#
# Bulk Modulus (GPa) = 18.11424 24.23859 21.17641
# Shear Modulus (GPa) = 22.43423 26.37735 24.40579
#
# Velocity S-wave (km/s) = 3.12361 3.38701 3.25797
# Velocity P-wave (km/s) = 4.57026 5.08305 4.83346
#
# Compressibility (1/GPa) = 0.05520519
#
# Stress axis : x y z
#
# Youngs Moduli (GPa) = 50.17780 88.21162 31.62720
#
# Poissons Ratio (x) = 0.23672 -0.09108
# Poissons Ratio (y) = 0.13465 0.12764
# Poissons Ratio (z) = -0.14451 0.35599
#
# Static dielectric constant tensor:
#      x y z
#    x 2.113710 0.000000 0.000000 
#    y 0.000000 1.951470 0.000000 
#    z 0.000000 0.000000 1.892240 
# 
# From -- ./inp_files/6391.got.cif
#   From: 2010.05.17/outbox.cif.g08.bks.cpg/sg56_4_cif.got.tgz:6391.got - 2010.06.03 13:42:01.
