data_PCOD9431841
_publ_section_title
;
Structure prediction by ZEFSAII (Michael W. Deem and Ramdas Pophale) SiO2 
 PCOD9431841
Probable space group: P C C N
;
_chemical_formula_sum "Si O2"
_cell_formula_units_Z 48
_cell_length_a 15.151755
_cell_length_b 7.871824
_cell_length_c 17.870987
_cell_angle_alpha 90.000000
_cell_angle_beta 90.000000
_cell_angle_gamma 90.000000
_cell_volume 2131.507444
_symmetry_space_group_name_H-M "P C C N"
_symmetry_group_IT_number 56
_symmetry_cell_setting 'orthorhombic'
loop_
_space_group_symop_operation_xyz
x,y,z
1/2-x,1/2-y,z
1/2+x,-y,1/2-z
-x,1/2+y,1/2-z
-x,-y,-z
1/2+x,1/2+y,-z
1/2-x,y,1/2+z
x,1/2-y,1/2+z
loop_
_atom_site_type_symbol
_atom_site_label
_atom_site_fract_x
_atom_site_fract_y
_atom_site_fract_z
Si Si1 0.026410 0.601050 0.635013
Si Si2 0.418252 0.603516 0.401907
Si Si3 0.424389 0.260698 0.496046
Si Si4 0.705909 0.982967 0.420546
Si Si5 0.250000 0.250000 0.705970
Si Si6 0.250000 0.750000 0.961675
Si Si7 0.564068 0.623662 0.735200
O O1 0.127773 0.604910 0.609589
O O2 0.022700 0.432551 0.685789
O O3 0.966852 0.624218 0.561552
O O4 0.997818 0.752967 0.688544
O O5 0.401392 0.424412 0.445958
O O6 0.503948 0.678766 0.443069
O O7 0.337964 0.733480 0.413224
O O8 0.426183 0.543174 0.316598
O O9 0.344575 0.172967 0.539308
O O10 0.759491 0.911216 0.350109
O O11 0.753463 0.089296 0.483462
O O12 0.160109 0.289444 0.750934
#
# Coordination Sequence:
#
# PCOD9431841 Si02
#       7
#     8   8   8   8   4   4   8
#     4  10  22  40  66  94 125 172 221 264 326 395
#     4  10  23  40  66  95 130 168 222 275 329 393
#     4  10  21  43  68  95 124 174 228 274 322 395
#     4  11  23  40  66  95 128 175 219 275 329 390
#     4  10  24  44  60  94 138 176 208 264 352 386
#     4  12  24  38  64 104 130 162 222 284 330 384
#     4  10  24  41  63  96 134 174 213 267 333 406
#
# _framework density 22.519272000000001
#
# number of rings (size 3 to 8) (size 9 to 14) (size 15 to 20)
#    0.000    1.667    1.667    1.500    4.667    4.000 
#    0.000    3.333    0.000    0.000    0.000    0.000 
#    0.000    0.000    0.000    0.000    0.000    0.000 
#
# Total GULP energy -268288.756789 kJ/mol
# GULP energy per Si atom -5589.349100 kJ/mol
# Density = 2.246802 g / cm^3
# Si number density = 22.519272 Si / 1000 Ang^3
#
#
#
# Elastic Constant Matrix: (Units=GPa)
#
#
# Indices 1 2 3 4 5 6 
#
# 1 56.6263 20.3006 36.3677 0.0000 0.0000 0.0000
# 2 20.3006 54.3685 33.2900 0.0000 0.0000 0.0000
# 3 36.3677 33.2900 115.7339 0.0000 0.0000 0.0000
# 4 0.0000 0.0000 0.0000 52.6681 0.0000 0.0000
# 5 0.0000 0.0000 0.0000 0.0000 17.1326 0.0000
# 6 0.0000 0.0000 0.0000 0.0000 0.0000 33.4246
#
#
#
# Elastic Compliance Matrix: (Units=1/GPa)
#
#
# Indices 1 2 3 4 5 6 
#
# 1 0.023236 -0.005104 -0.005833 0.000000 0.000000 0.000000
# 2 -0.005104 0.023446 -0.005140 0.000000 0.000000 0.000000
# 3 -0.005833 -0.005140 0.011952 0.000000 0.000000 0.000000
# 4 0.000000 0.000000 0.000000 0.018987 0.000000 0.000000
# 5 0.000000 0.000000 0.000000 0.000000 0.058368 0.000000
# 6 0.000000 0.000000 0.000000 0.000000 0.000000 0.029918
#
#
# Mechanical properties :
#
#
# Convention : Reuss Voigt Hill
#
# Bulk Modulus (GPa) = 37.76625 45.18281 41.47453
# Shear Modulus (GPa) = 24.16752 29.76310 26.96531
#
# Velocity S-wave (km/s) = 3.27952 3.63943 3.46415
# Velocity P-wave (km/s) = 5.58098 6.14558 5.87007
#
# Compressibility (1/GPa) = 0.02647867
#
# Stress axis : x y z
#
# Youngs Moduli (GPa) = 43.03673 42.65075 83.66727
#
# Poissons Ratio (x) = 0.21770 0.48806
# Poissons Ratio (y) = 0.21967 0.43007
# Poissons Ratio (z) = 0.25105 0.21923
#
# Static dielectric constant tensor:
#      x y z
#    x 1.849630 0.000000 0.000000 
#    y 0.000000 1.883840 0.000000 
#    z 0.000000 0.000000 1.819910 
# 
# From -- ./inp_files/16208.got.cif
#   From: 2010.05.17/outbox.cif.g08.bks.cpg/sg56_9_cif.got.tgz:16208.got - 2010.06.03 13:42:01.
