data_PCOD9431376
_publ_section_title
;
Structure prediction by ZEFSAII (Michael W. Deem and Ramdas Pophale) SiO2 
 PCOD9431376
Probable space group: P C C N
;
_chemical_formula_sum "Si O2"
_cell_formula_units_Z 52
_cell_length_a 6.530474
_cell_length_b 19.309673
_cell_length_c 18.563096
_cell_angle_alpha 90.000000
_cell_angle_beta 90.000000
_cell_angle_gamma 90.000000
_cell_volume 2340.830862
_symmetry_space_group_name_H-M "P C C N"
_symmetry_group_IT_number 56
_symmetry_cell_setting 'orthorhombic'
loop_
_space_group_symop_operation_xyz
x,y,z
1/2-x,1/2-y,z
1/2+x,-y,1/2-z
-x,1/2+y,1/2-z
-x,-y,-z
1/2+x,1/2+y,-z
1/2-x,y,1/2+z
x,1/2-y,1/2+z
loop_
_atom_site_type_symbol
_atom_site_label
_atom_site_fract_x
_atom_site_fract_y
_atom_site_fract_z
Si Si1 0.355950 0.113027 0.556648
Si Si2 0.469922 0.459485 0.819651
Si Si3 0.750000 0.750000 0.192331
Si Si4 0.585670 0.854976 0.804940
Si Si5 0.255520 0.583608 0.378575
Si Si6 0.639089 0.018354 0.908931
Si Si7 0.167268 0.364638 0.915601
O O1 0.599310 0.108746 0.561067
O O2 0.266034 0.156417 0.491232
O O3 0.258452 0.138383 0.632892
O O4 0.281657 0.032970 0.544323
O O5 0.428252 0.425025 0.743009
O O6 0.384133 0.537252 0.825570
O O7 0.336865 0.413488 0.875816
O O8 0.705791 0.461810 0.844225
O O9 0.618050 0.704147 0.246833
O O10 0.869695 0.697760 0.139589
O O11 0.367259 0.851521 0.843381
O O12 0.443289 0.532733 0.398593
O O13 0.533607 0.089679 0.931383
#
# Coordination Sequence:
#
# PCOD9431376 Si02
#       7
#     8   8   4   8   8   8   8
#     4  10  21  37  62  97 124 159 209 270 333 383
#     4   9  20  34  58  92 127 164 206 257 327 394
#     4  10  24  46  62  84 120 182 224 260 312 388
#     4  10  22  38  60  87 128 168 214 265 320 382
#     4   9  20  33  60  93 125 157 200 260 325 381
#     4   9  19  36  61  94 128 159 196 259 327 390
#     4  10  21  40  63  87 125 168 217 265 317 385
#
# _framework density 22.214335999999999
#
# number of rings (size 3 to 8) (size 9 to 14) (size 15 to 20)
#    0.000    2.462    0.000    0.462    6.462   11.077 
#    0.000    6.923    0.000    1.846    0.000    0.000 
#    0.000    0.000    0.000    0.000    0.000    0.000 
#
# Total GULP energy -289974.332174 kJ/mol
# GULP energy per Si atom -5576.429465 kJ/mol
# Density = 2.216378 g / cm^3
# Si number density = 22.214336 Si / 1000 Ang^3
#
#
#
# Elastic Constant Matrix: (Units=GPa)
#
#
# Indices 1 2 3 4 5 6 
#
# 1 117.7290 21.1515 36.5714 0.0000 0.0000 0.0000
# 2 21.1515 71.7690 24.8406 0.0000 0.0000 0.0000
# 3 36.5714 24.8406 95.6354 0.0000 0.0000 0.0000
# 4 0.0000 0.0000 0.0000 23.9943 0.0000 0.0000
# 5 0.0000 0.0000 0.0000 0.0000 24.0701 0.0000
# 6 0.0000 0.0000 0.0000 0.0000 0.0000 10.2850
#
#
#
# Elastic Compliance Matrix: (Units=1/GPa)
#
#
# Indices 1 2 3 4 5 6 
#
# 1 0.009836 -0.001755 -0.003306 0.000000 0.000000 0.000000
# 2 -0.001755 0.015623 -0.003387 0.000000 0.000000 0.000000
# 3 -0.003306 -0.003387 0.012600 0.000000 0.000000 0.000000
# 4 0.000000 0.000000 0.000000 0.041677 0.000000 0.000000
# 5 0.000000 0.000000 0.000000 0.000000 0.041545 0.000000
# 6 0.000000 0.000000 0.000000 0.000000 0.000000 0.097229
#
#
# Mechanical properties :
#
#
# Convention : Reuss Voigt Hill
#
# Bulk Modulus (GPa) = 47.24827 50.02893 48.63860
# Shear Modulus (GPa) = 20.62197 25.17454 22.89826
#
# Velocity S-wave (km/s) = 3.05014 3.37004 3.21407
# Velocity P-wave (km/s) = 5.80688 6.14107 5.97631
#
# Compressibility (1/GPa) = 0.02116480
#
# Stress axis : x y z
#
# Youngs Moduli (GPa) = 101.66527 64.00805 79.36385
#
# Poissons Ratio (x) = 0.11232 0.26235
# Poissons Ratio (y) = 0.17840 0.26880
# Poissons Ratio (z) = 0.33607 0.21679
#
# Static dielectric constant tensor:
#      x y z
#    x 1.821810 0.000000 0.000000 
#    y 0.000000 1.857990 0.000000 
#    z 0.000000 0.000000 1.887460 
# 
# From -- ./inp_files/17556.got.cif
#   From: 2010.05.17/outbox.cif.g08.bks.cpg/sg56_9_cif.got.tgz:17556.got - 2010.06.03 13:42:01.
