data_PCOD9431264
_publ_section_title
;
Structure prediction by ZEFSAII (Michael W. Deem and Ramdas Pophale) SiO2 
 PCOD9431264
Probable space group: P C C N
;
_chemical_formula_sum "Si O2"
_cell_formula_units_Z 64
_cell_length_a 17.367134
_cell_length_b 27.926018
_cell_length_c 5.537214
_cell_angle_alpha 90.000000
_cell_angle_beta 90.000000
_cell_angle_gamma 90.000000
_cell_volume 2685.520532
_symmetry_space_group_name_H-M "P C C N"
_symmetry_group_IT_number 56
_symmetry_cell_setting 'orthorhombic'
loop_
_space_group_symop_operation_xyz
x,y,z
1/2-x,1/2-y,z
1/2+x,-y,1/2-z
-x,1/2+y,1/2-z
-x,-y,-z
1/2+x,1/2+y,-z
1/2-x,y,1/2+z
x,1/2-y,1/2+z
loop_
_atom_site_type_symbol
_atom_site_label
_atom_site_fract_x
_atom_site_fract_y
_atom_site_fract_z
Si Si1 0.919998 0.036228 0.812670
Si Si2 0.940513 0.930597 0.888520
Si Si3 0.560764 0.225520 0.975175
Si Si4 0.612498 0.875094 0.796803
Si Si5 0.872517 0.773521 0.488916
Si Si6 0.206753 0.454654 0.971187
Si Si7 0.547133 0.120210 0.988957
Si Si8 0.233321 0.562618 0.461753
O O1 0.909046 0.075355 0.603110
O O2 0.855981 0.047210 0.014003
O O3 0.911870 0.979803 0.761285
O O4 0.007329 0.045192 0.897974
O O5 0.000914 0.899430 0.740202
O O6 0.881465 0.895683 0.026321
O O7 0.585442 0.245618 0.236016
O O8 0.466317 0.228071 0.983764
O O9 0.586762 0.170413 0.941951
O O10 0.649628 0.826175 0.889482
O O11 0.637448 0.917382 0.976581
O O12 0.520941 0.866235 0.822872
O O13 0.847594 0.760831 0.764000
O O14 0.254168 0.442464 0.217334
O O15 0.216483 0.513086 0.971204
O O16 0.247034 0.588407 0.210963
#
# Coordination Sequence:
#
# PCOD9431264 Si02
#       8
#     8   8   8   8   8   8   8   8
#     4  10  22  37  52  83 119 154 197 237 284 349
#     4  10  21  35  54  82 117 159 189 234 290 343
#     4   9  19  33  54  80 116 146 184 227 279 349
#     4  10  22  34  57  82 109 147 199 239 285 353
#     4   9  19  32  52  80 108 143 182 236 298 343
#     4  10  22  37  55  79 100 141 193 246 278 320
#     4  10  22  33  58  84 116 157 183 234 293 347
#     4  10  22  37  58  77 106 152 194 236 279 318
#
# _framework density 23.831506999999998
#
# number of rings (size 3 to 8) (size 9 to 14) (size 15 to 20)
#    0.000    2.250    0.000    1.875   17.500    0.000 
#    0.000    0.000    0.000    2.250    0.000    0.000 
#    0.000    3.000    0.000    0.000    0.000    0.000 
#
# Total GULP energy -356712.129771 kJ/mol
# GULP energy per Si atom -5573.627028 kJ/mol
# Density = 2.377727 g / cm^3
# Si number density = 23.831507 Si / 1000 Ang^3
#
#
#
# Elastic Constant Matrix: (Units=GPa)
#
#
# Indices 1 2 3 4 5 6 
#
# 1 17.5559 1.6792 -18.6696 0.0000 0.0000 0.0000
# 2 1.6792 84.5736 17.5324 0.0000 0.0000 0.0000
# 3 -18.6696 17.5324 104.8511 0.0000 0.0000 0.0000
# 4 0.0000 0.0000 0.0000 18.5085 0.0000 0.0000
# 5 0.0000 0.0000 0.0000 0.0000 25.7336 0.0000
# 6 0.0000 0.0000 0.0000 0.0000 0.0000 4.9845
#
#
#
# Elastic Compliance Matrix: (Units=1/GPa)
#
#
# Indices 1 2 3 4 5 6 
#
# 1 0.071688 -0.004216 0.013470 0.000000 0.000000 0.000000
# 2 -0.004216 0.012497 -0.002840 0.000000 0.000000 0.000000
# 3 0.013470 -0.002840 0.012411 0.000000 0.000000 0.000000
# 4 0.000000 0.000000 0.000000 0.054029 0.000000 0.000000
# 5 0.000000 0.000000 0.000000 0.000000 0.038860 0.000000
# 6 0.000000 0.000000 0.000000 0.000000 0.000000 0.200622
#
#
# Mechanical properties :
#
#
# Convention : Reuss Voigt Hill
#
# Bulk Modulus (GPa) = 9.13889 23.11830 16.12860
# Shear Modulus (GPa) = 12.08452 23.60790 17.84621
#
# Velocity S-wave (km/s) = 2.25429 3.15082 2.73948
# Velocity P-wave (km/s) = 3.25866 4.79152 4.09741
#
# Compressibility (1/GPa) = 0.10942245
#
# Stress axis : x y z
#
# Youngs Moduli (GPa) = 13.94934 80.02235 80.57625
#
# Poissons Ratio (x) = 0.33735 -1.08532
# Poissons Ratio (y) = 0.05881 0.22885
# Poissons Ratio (z) = -0.18789 0.22728
#
# Static dielectric constant tensor:
#      x y z
#    x 2.055820 0.000000 0.000000 
#    y 0.000000 1.897540 0.000000 
#    z 0.000000 0.000000 2.018620 
# 
# From -- ./inp_files/974.got.cif
#   From: 2010.05.17/outbox.cif.g08.bks.cpg/sg56_1_cif.got.tgz:974.got - 2010.06.03 13:42:01.
