data_PCOD9431562
_publ_section_title
;
Structure prediction by ZEFSAII (Michael W. Deem and Ramdas Pophale) SiO2 
 PCOD9431562
Probable space group: P C C N
;
_chemical_formula_sum "Si O2"
_cell_formula_units_Z 64
_cell_length_a 22.496224
_cell_length_b 14.778359
_cell_length_c 8.451841
_cell_angle_alpha 90.000000
_cell_angle_beta 90.000000
_cell_angle_gamma 90.000000
_cell_volume 2809.876023
_symmetry_space_group_name_H-M "P C C N"
_symmetry_group_IT_number 56
_symmetry_cell_setting 'orthorhombic'
loop_
_space_group_symop_operation_xyz
x,y,z
1/2-x,1/2-y,z
1/2+x,-y,1/2-z
-x,1/2+y,1/2-z
-x,-y,-z
1/2+x,1/2+y,-z
1/2-x,y,1/2+z
x,1/2-y,1/2+z
loop_
_atom_site_type_symbol
_atom_site_label
_atom_site_fract_x
_atom_site_fract_y
_atom_site_fract_z
Si Si1 0.126407 0.879770 0.081101
Si Si2 0.602912 0.192492 0.769681
Si Si3 0.889856 0.696523 0.549473
Si Si4 0.689738 0.560212 0.886524
Si Si5 0.477451 0.256009 0.689639
Si Si6 0.022796 0.949916 0.286584
Si Si7 0.315703 0.376706 0.479904
Si Si8 0.591685 0.011827 0.907165
O O1 0.131025 0.789205 0.187868
O O2 0.065967 0.930552 0.140532
O O3 0.179135 0.952388 0.102414
O O4 0.119620 0.842877 0.903879
O O5 0.531353 0.206945 0.776493
O O6 0.617903 0.111808 0.889665
O O7 0.859497 0.603906 0.501971
O O8 0.917026 0.721192 0.717895
O O9 0.952050 0.699332 0.453549
O O10 0.841187 0.774901 0.514524
O O11 0.681827 0.591394 0.704062
O O12 0.750924 0.601635 0.951991
O O13 0.505254 0.351845 0.642999
O O14 0.059983 0.999181 0.422712
O O15 0.959063 0.997879 0.273949
O O16 0.358449 0.436849 0.589861
#
# Coordination Sequence:
#
# PCOD9431562 Si02
#       8
#     8   8   8   8   8   8   8   8
#     4  11  25  47  72 108 147 194 249 304 369 442
#     4  11  25  43  71 105 152 188 233 303 367 441
#     4  12  25  43  71 106 148 186 233 294 357 444
#     4  12  30  49  77 101 144 193 257 308 360 440
#     4  11  22  40  65 108 146 186 228 280 364 443
#     4  10  21  39  67 106 147 188 230 290 366 440
#     4  12  28  50  72 104 144 191 249 308 368 437
#     4  11  23  41  73 100 148 189 237 297 371 433
#
# _framework density 22.776806000000001
#
# number of rings (size 3 to 8) (size 9 to 14) (size 15 to 20)
#    0.000    0.750    3.750    4.125    8.750    1.500 
#    0.000    0.625    0.000    0.000    0.000    0.000 
#    0.000    0.000    0.000    0.000    0.000    0.000 
#
# Total GULP energy -357660.272716 kJ/mol
# GULP energy per Si atom -5588.441761 kJ/mol
# Density = 2.272496 g / cm^3
# Si number density = 22.776806 Si / 1000 Ang^3
#
#
#
# Elastic Constant Matrix: (Units=GPa)
#
#
# Indices 1 2 3 4 5 6 
#
# 1 39.3916 -1.4786 1.9646 0.0000 0.0000 0.0000
# 2 -1.4786 88.5703 8.7475 0.0000 0.0000 0.0000
# 3 1.9646 8.7475 71.5015 0.0000 0.0000 0.0000
# 4 0.0000 0.0000 0.0000 34.0284 0.0000 0.0000
# 5 0.0000 0.0000 0.0000 0.0000 22.1473 0.0000
# 6 0.0000 0.0000 0.0000 0.0000 0.0000 32.5331
#
#
#
# Elastic Compliance Matrix: (Units=1/GPa)
#
#
# Indices 1 2 3 4 5 6 
#
# 1 0.025443 0.000500 -0.000760 0.000000 0.000000 0.000000
# 2 0.000500 0.011438 -0.001413 0.000000 0.000000 0.000000
# 3 -0.000760 -0.001413 0.014179 0.000000 0.000000 0.000000
# 4 0.000000 0.000000 0.000000 0.029387 0.000000 0.000000
# 5 0.000000 0.000000 0.000000 0.000000 0.045152 0.000000
# 6 0.000000 0.000000 0.000000 0.000000 0.000000 0.030738
#
#
# Mechanical properties :
#
#
# Convention : Reuss Voigt Hill
#
# Bulk Modulus (GPa) = 20.95833 24.21447 22.58640
# Shear Modulus (GPa) = 28.47550 30.42376 29.44963
#
# Velocity S-wave (km/s) = 3.53965 3.65873 3.59968
# Velocity P-wave (km/s) = 5.09186 5.33879 5.21679
#
# Compressibility (1/GPa) = 0.04771372
#
# Stress axis : x y z
#
# Youngs Moduli (GPa) = 39.30383 87.42501 70.52437
#
# Poissons Ratio (x) = -0.04370 0.05361
# Poissons Ratio (y) = -0.01965 0.09966
# Poissons Ratio (z) = 0.02988 0.12354
#
# Static dielectric constant tensor:
#      x y z
#    x 1.828760 0.000000 0.000000 
#    y 0.000000 1.857810 0.000000 
#    z 0.000000 0.000000 2.047640 
# 
# From -- ./inp_files/4829.got.cif
#   From: 2010.05.17/outbox.cif.g08.bks.cpg/sg56_3_cif.got.tgz:4829.got - 2010.06.03 13:42:01.
