data_PCOD9431110
_publ_section_title
;
Structure prediction by ZEFSAII (Michael W. Deem and Ramdas Pophale) SiO2 
 PCOD9431110
Probable space group: P C C N
;
_chemical_formula_sum "Si O2"
_cell_formula_units_Z 56
_cell_length_a 10.935918
_cell_length_b 9.385293
_cell_length_c 24.313010
_cell_angle_alpha 90.000000
_cell_angle_beta 90.000000
_cell_angle_gamma 90.000000
_cell_volume 2495.409415
_symmetry_space_group_name_H-M "P C C N"
_symmetry_group_IT_number 56
_symmetry_cell_setting 'orthorhombic'
loop_
_space_group_symop_operation_xyz
x,y,z
1/2-x,1/2-y,z
1/2+x,-y,1/2-z
-x,1/2+y,1/2-z
-x,-y,-z
1/2+x,1/2+y,-z
1/2-x,y,1/2+z
x,1/2-y,1/2+z
loop_
_atom_site_type_symbol
_atom_site_label
_atom_site_fract_x
_atom_site_fract_y
_atom_site_fract_z
Si Si1 0.659587 0.142890 0.524878
Si Si2 0.828929 0.065289 0.745383
Si Si3 0.769560 0.081313 0.364624
Si Si4 0.020643 0.293801 0.726837
Si Si5 0.834861 0.628307 0.683138
Si Si6 0.392290 0.923252 0.031705
Si Si7 0.019299 0.051750 0.117517
O O1 0.750000 0.250000 0.559123
O O2 0.760458 0.041575 0.496859
O O3 0.603349 0.252651 0.480113
O O4 0.555527 0.082547 0.562868
O O5 0.747120 0.050311 0.800298
O O6 0.607748 0.281405 0.740880
O O7 0.940430 0.949875 0.750604
O O8 0.746783 0.010146 0.695532
O O9 0.750000 0.250000 0.370303
O O10 0.884907 0.046621 0.403195
O O11 0.656817 0.995850 0.390422
O O12 0.118275 0.196394 0.759335
O O13 0.023223 0.317455 0.661304
O O14 0.750000 0.750000 0.656910
O O15 0.949062 0.578502 0.647708
O O16 0.500000 0.000000 0.000000
#
# Coordination Sequence:
#
# PCOD9431110 Si02
#       7
#     8   8   8   8   8   8   8
#     4   8  21  42  62  97 123 163 218 276 335 409
#     4  10  23  35  65  91 137 175 227 264 327 402
#     4  11  22  41  65  96 124 179 222 271 338 400
#     4  10  20  41  56  93 130 180 211 270 323 397
#     4  10  22  40  57  96 137 171 225 271 324 403
#     4   9  20  44  67  92 130 166 217 282 341 408
#     4  11  23  40  67  96 135 174 224 278 336 404
#
# _framework density 22.441208
#
# number of rings (size 3 to 8) (size 9 to 14) (size 15 to 20)
#    0.857    1.143    4.286    0.000    4.000    1.714 
#    2.571    2.143    0.000    0.000    0.000    0.000 
#    0.000    0.000    0.000    0.000    0.000    0.000 
#
# Total GULP energy -312043.387226 kJ/mol
# GULP energy per Si atom -5572.203343 kJ/mol
# Density = 2.239013 g / cm^3
# Si number density = 22.441208 Si / 1000 Ang^3
#
#
#
# Elastic Constant Matrix: (Units=GPa)
#
#
# Indices 1 2 3 4 5 6 
#
# 1 59.2846 27.4266 28.0379 0.0000 0.0000 0.0000
# 2 27.4266 68.1445 27.3995 0.0000 0.0000 0.0000
# 3 28.0379 27.3995 71.5930 0.0000 0.0000 0.0000
# 4 0.0000 0.0000 0.0000 -10.9517 0.0000 0.0000
# 5 0.0000 0.0000 0.0000 0.0000 37.0883 0.0000
# 6 0.0000 0.0000 0.0000 0.0000 0.0000 46.8092
#
#
#
# Elastic Compliance Matrix: (Units=1/GPa)
#
#
# Indices 1 2 3 4 5 6 
#
# 1 0.023005 -0.006661 -0.006460 0.000000 0.000000 0.000000
# 2 -0.006661 0.019273 -0.004767 0.000000 0.000000 0.000000
# 3 -0.006460 -0.004767 0.018322 0.000000 0.000000 0.000000
# 4 0.000000 0.000000 0.000000 -0.091310 0.000000 0.000000
# 5 0.000000 0.000000 0.000000 0.000000 0.026963 0.000000
# 6 0.000000 0.000000 0.000000 0.000000 0.000000 0.021363
#
#
# Mechanical properties :
#
#
# Convention : Reuss Voigt Hill
#
# Bulk Modulus (GPa) = 40.28587 40.52779 40.40683
# Shear Modulus (GPa) = 81.08182 22.33303 51.70743
#
# Velocity S-wave (km/s) = 6.01741 3.15807 4.80534
# Velocity P-wave (km/s) = 8.14062 5.60327 6.98807
#
# Compressibility (1/GPa) = 0.02482260
#
# Stress axis : x y z
#
# Youngs Moduli (GPa) = 43.46946 51.88738 54.57891
#
# Poissons Ratio (x) = 0.34565 0.35257
# Poissons Ratio (y) = 0.28957 0.26018
# Poissons Ratio (z) = 0.28081 0.24735
#
# Static dielectric constant tensor:
#      x y z
#    x 1.943000 0.000000 0.000000 
#    y 0.000000 1.871200 0.000000 
#    z 0.000000 0.000000 1.847760 
# 
# From -- ./inp_files/20973.got.cif
#   From: 2010.05.17/outbox.cif.g08.bks.cpg/sg56_11_cif.got.tgz:20973.got - 2010.06.03 13:42:01.
