data_PCOD9431885
_publ_section_title
;
Structure prediction by ZEFSAII (Michael W. Deem and Ramdas Pophale) SiO2 
 PCOD9431885
Probable space group: P C C N
;
_chemical_formula_sum "Si O2"
_cell_formula_units_Z 28
_cell_length_a 11.900341
_cell_length_b 7.800611
_cell_length_c 14.035479
_cell_angle_alpha 90.000000
_cell_angle_beta 90.000000
_cell_angle_gamma 90.000000
_cell_volume 1302.912546
_symmetry_space_group_name_H-M "P C C N"
_symmetry_group_IT_number 56
_symmetry_cell_setting 'orthorhombic'
loop_
_space_group_symop_operation_xyz
x,y,z
1/2-x,1/2-y,z
1/2+x,-y,1/2-z
-x,1/2+y,1/2-z
-x,-y,-z
1/2+x,1/2+y,-z
1/2-x,y,1/2+z
x,1/2-y,1/2+z
loop_
_atom_site_type_symbol
_atom_site_label
_atom_site_fract_x
_atom_site_fract_y
_atom_site_fract_z
Si Si1 0.250000 0.250000 0.214107
Si Si2 0.123239 0.770470 0.053635
Si Si3 0.164004 0.603544 0.259634
Si Si4 0.540355 0.848352 0.400371
O O1 0.234758 0.428136 0.268165
O O2 0.138543 0.251955 0.150994
O O3 0.250000 0.750000 0.015030
O O4 0.125690 0.663862 0.152657
O O5 0.100011 0.973971 0.068740
O O6 0.021671 0.735697 0.980922
O O7 0.250000 0.750000 0.289962
O O8 0.055857 0.598472 0.325941
#
# Coordination Sequence:
#
# PCOD9431885 Si02
#       4
#     4   8   8   8
#     4  12  24  40  70 100 130 178 226 268 336 410
#     4  10  21  45  66  95 137 173 219 286 327 396
#     4  11  23  45  68  98 139 172 222 284 330 400
#     4  11  23  42  70  98 135 179 223 269 346 396
#
# _framework density 21.490316
#
# number of rings (size 3 to 8) (size 9 to 14) (size 15 to 20)
#    0.000    1.143    5.714    2.571    0.000    1.143 
#    0.000   10.000    0.000    0.000    0.000    0.000 
#    0.000    0.000    0.000    0.000    0.000    0.000 
#
# Total GULP energy -156209.935165 kJ/mol
# GULP energy per Si atom -5578.926256 kJ/mol
# Density = 2.144140 g / cm^3
# Si number density = 21.490316 Si / 1000 Ang^3
#
#
#
# Elastic Constant Matrix: (Units=GPa)
#
#
# Indices 1 2 3 4 5 6 
#
# 1 148.1676 48.9085 28.9719 0.0000 0.0000 0.0000
# 2 48.9085 124.6701 17.8938 0.0000 0.0000 0.0000
# 3 28.9719 17.8938 59.4796 0.0000 0.0000 0.0000
# 4 0.0000 0.0000 0.0000 -42.8195 0.0000 0.0000
# 5 0.0000 0.0000 0.0000 0.0000 90.1868 0.0000
# 6 0.0000 0.0000 0.0000 0.0000 0.0000 38.2498
#
#
#
# Elastic Compliance Matrix: (Units=1/GPa)
#
#
# Indices 1 2 3 4 5 6 
#
# 1 0.008298 -0.002796 -0.003201 0.000000 0.000000 0.000000
# 2 -0.002796 0.009325 -0.001444 0.000000 0.000000 0.000000
# 3 -0.003201 -0.001444 0.018806 0.000000 0.000000 0.000000
# 4 0.000000 0.000000 0.000000 -0.023354 0.000000 0.000000
# 5 0.000000 0.000000 0.000000 0.000000 0.011088 0.000000
# 6 0.000000 0.000000 0.000000 0.000000 0.000000 0.026144
#
#
# Mechanical properties :
#
#
# Convention : Reuss Voigt Hill
#
# Bulk Modulus (GPa) = 46.40670 58.20730 52.30700
# Shear Modulus (GPa) = 69.08936 32.89297 50.99116
#
# Velocity S-wave (km/s) = 5.67617 3.91653 4.87637
# Velocity P-wave (km/s) = 8.03739 6.89901 7.48986
#
# Compressibility (1/GPa) = 0.02154861
#
# Stress axis : x y z
#
# Youngs Moduli (GPa) = 120.51317 107.23636 53.17519
#
# Poissons Ratio (x) = 0.29982 0.17020
# Poissons Ratio (y) = 0.33694 0.07676
# Poissons Ratio (z) = 0.38572 0.15480
#
# Static dielectric constant tensor:
#      x y z
#    x 1.759370 0.000000 0.000000 
#    y 0.000000 1.829540 0.000000 
#    z 0.000000 0.000000 1.882490 
# 
# From -- ./inp_files/9971.got.cif
#   From: 2010.05.17/outbox.cif.g08.bks.cpg/sg56_5_cif.got.tgz:9971.got - 2010.06.03 13:42:01.
