data_PCOD9431274
_publ_section_title
;
Structure prediction by ZEFSAII (Michael W. Deem and Ramdas Pophale) SiO2 
 PCOD9431274
Probable space group: P C C N
;
_chemical_formula_sum "Si O2"
_cell_formula_units_Z 64
_cell_length_a 14.134472
_cell_length_b 19.667684
_cell_length_c 12.078797
_cell_angle_alpha 90.000000
_cell_angle_beta 90.000000
_cell_angle_gamma 90.000000
_cell_volume 3357.812907
_symmetry_space_group_name_H-M "P C C N"
_symmetry_group_IT_number 56
_symmetry_cell_setting 'orthorhombic'
loop_
_space_group_symop_operation_xyz
x,y,z
1/2-x,1/2-y,z
1/2+x,-y,1/2-z
-x,1/2+y,1/2-z
-x,-y,-z
1/2+x,1/2+y,-z
1/2-x,y,1/2+z
x,1/2-y,1/2+z
loop_
_atom_site_type_symbol
_atom_site_label
_atom_site_fract_x
_atom_site_fract_y
_atom_site_fract_z
Si Si1 0.426989 0.386371 0.296318
Si Si2 0.639026 0.743355 0.287939
Si Si3 0.084457 0.504386 0.245283
Si Si4 0.905446 0.957277 0.015373
Si Si5 0.290402 0.006166 0.701734
Si Si6 0.423135 0.606542 0.288405
Si Si7 0.474197 0.182352 0.402773
Si Si8 0.487080 0.180759 0.023167
O O1 0.409213 0.317106 0.228421
O O2 0.519260 0.428404 0.254551
O O3 0.333859 0.433129 0.278325
O O4 0.447893 0.366160 0.423867
O O5 0.750000 0.750000 0.303929
O O6 0.613909 0.705799 0.173278
O O7 0.593095 0.700687 0.387239
O O8 0.126351 0.482134 0.364242
O O9 0.180152 0.503782 0.176638
O O10 0.010745 0.446672 0.208422
O O11 0.935924 0.878813 0.022397
O O12 0.838703 0.976506 0.915378
O O13 0.000000 0.000000 0.000000
O O14 0.332224 0.937700 0.757223
O O15 0.448912 0.654712 0.184749
O O16 0.430133 0.646427 0.403978
O O17 0.512681 0.247159 0.467853
#
# Coordination Sequence:
#
# PCOD9431274 Si02
#       8
#     8   8   8   8   8   8   8   8
#     4  10  22  39  58  88 126 152 202 249 302 367
#     4  10  22  37  56  88 122 159 199 246 306 382
#     4  10  23  38  59  91 118 156 204 254 296 362
#     4  11  19  39  65  85 116 168 203 248 310 363
#     4  11  22  37  64  88 119 158 205 254 294 370
#     4   9  20  39  56  86 120 152 202 248 297 360
#     4   9  19  37  56  84 115 154 203 239 298 365
#     4  10  21  35  60  82 121 161 180 257 314 349
#
# _framework density 19.060026000000001
#
# number of rings (size 3 to 8) (size 9 to 14) (size 15 to 20)
#    0.000    2.000    3.750    0.750    5.250    6.000 
#    2.250    0.000    0.000    8.250    0.000    0.000 
#    0.000    0.000    0.000    0.000    0.000    0.000 
#
# Total GULP energy -356847.857977 kJ/mol
# GULP energy per Si atom -5575.747781 kJ/mol
# Density = 1.901664 g / cm^3
# Si number density = 19.060026 Si / 1000 Ang^3
#
#
#
# Elastic Constant Matrix: (Units=GPa)
#
#
# Indices 1 2 3 4 5 6 
#
# 1 62.2175 27.1814 4.0922 0.0000 0.0000 0.0000
# 2 27.1814 100.7726 37.3289 0.0000 0.0000 0.0000
# 3 4.0922 37.3289 76.0772 0.0000 0.0000 0.0000
# 4 0.0000 0.0000 0.0000 28.4253 0.0000 0.0000
# 5 0.0000 0.0000 0.0000 0.0000 10.6607 0.0000
# 6 0.0000 0.0000 0.0000 0.0000 0.0000 10.5271
#
#
#
# Elastic Compliance Matrix: (Units=1/GPa)
#
#
# Indices 1 2 3 4 5 6 
#
# 1 0.018412 -0.005621 0.001768 0.000000 0.000000 0.000000
# 2 -0.005621 0.013844 -0.006490 0.000000 0.000000 0.000000
# 3 0.001768 -0.006490 0.016234 0.000000 0.000000 0.000000
# 4 0.000000 0.000000 0.000000 0.035180 0.000000 0.000000
# 5 0.000000 0.000000 0.000000 0.000000 0.093803 0.000000
# 6 0.000000 0.000000 0.000000 0.000000 0.000000 0.094993
#
#
# Mechanical properties :
#
#
# Convention : Reuss Voigt Hill
#
# Bulk Modulus (GPa) = 35.96809 41.80805 38.88807
# Shear Modulus (GPa) = 16.53328 21.28694 18.91011
#
# Velocity S-wave (km/s) = 2.94842 3.34554 3.15323
# Velocity P-wave (km/s) = 5.52293 6.07503 5.80555
#
# Compressibility (1/GPa) = 0.02780243
#
# Stress axis : x y z
#
# Youngs Moduli (GPa) = 54.31210 72.23488 61.59876
#
# Poissons Ratio (x) = 0.40604 -0.10889
# Poissons Ratio (y) = 0.30529 0.39980
# Poissons Ratio (z) = -0.09601 0.46883
#
# Static dielectric constant tensor:
#      x y z
#    x 1.675420 0.000000 0.000000 
#    y 0.000000 1.691540 0.000000 
#    z 0.000000 0.000000 1.639660 
# 
# From -- ./inp_files/8044.got.cif
#   From: 2010.05.17/outbox.cif.g08.bks.cpg/sg56_5_cif.got.tgz:8044.got - 2010.06.03 13:42:01.
