data_PCOD9431575
_publ_section_title
;
Structure prediction by ZEFSAII (Michael W. Deem and Ramdas Pophale) SiO2 
 PCOD9431575
Probable space group: P C C N
;
_chemical_formula_sum "Si O2"
_cell_formula_units_Z 40
_cell_length_a 23.708319
_cell_length_b 7.617978
_cell_length_c 8.581116
_cell_angle_alpha 90.000000
_cell_angle_beta 90.000000
_cell_angle_gamma 90.000000
_cell_volume 1549.830663
_symmetry_space_group_name_H-M "P C C N"
_symmetry_group_IT_number 56
_symmetry_cell_setting 'orthorhombic'
loop_
_space_group_symop_operation_xyz
x,y,z
1/2-x,1/2-y,z
1/2+x,-y,1/2-z
-x,1/2+y,1/2-z
-x,-y,-z
1/2+x,1/2+y,-z
1/2-x,y,1/2+z
x,1/2-y,1/2+z
loop_
_atom_site_type_symbol
_atom_site_label
_atom_site_fract_x
_atom_site_fract_y
_atom_site_fract_z
Si Si1 0.937087 0.972036 0.641011
Si Si2 0.333956 0.991984 0.687168
Si Si3 0.128090 0.913271 0.662434
Si Si4 0.736975 0.038975 0.006892
Si Si5 0.531786 0.588740 0.141692
O O1 0.959235 0.785915 0.588513
O O2 0.093625 0.931800 0.500798
O O3 0.891491 0.913433 0.773086
O O4 0.986627 0.082463 0.717754
O O5 0.355378 0.789496 0.687741
O O6 0.297387 0.040681 0.537330
O O7 0.290881 0.009884 0.830794
O O8 0.188826 0.999368 0.622762
O O9 0.088717 0.992435 0.797671
O O10 0.750000 0.250000 0.007609
O O11 0.500000 0.500000 0.000000
#
# Coordination Sequence:
#
# PCOD9431575 Si02
#       5
#     8   8   8   8   8
#     4  11  25  44  66  98 138 181 229 285 349 415
#     4  10  21  39  68  97 129 172 220 275 331 403
#     4  10  22  42  64  94 134 175 223 282 342 412
#     4   9  18  35  63  96 125 164 217 270 332 405
#     4  12  26  44  68  99 134 182 234 288 346 407
#
# _framework density 25.809270999999999
#
# number of rings (size 3 to 8) (size 9 to 14) (size 15 to 20)
#    0.000    1.600    0.000    4.800    0.000   11.200 
#    0.000    1.000    0.000   12.000    0.000    0.000 
#    0.000    0.000    0.000    0.000    0.000    0.000 
#
# Total GULP energy -224110.134245 kJ/mol
# GULP energy per Si atom -5602.753356 kJ/mol
# Density = 2.575053 g / cm^3
# Si number density = 25.809271 Si / 1000 Ang^3
#
#
#
# Elastic Constant Matrix: (Units=GPa)
#
#
# Indices 1 2 3 4 5 6 
#
# 1 142.0609 8.4625 51.0173 0.0000 0.0000 0.0000
# 2 8.4625 30.5850 33.3539 0.0000 0.0000 0.0000
# 3 51.0173 33.3539 85.8314 0.0000 0.0000 0.0000
# 4 0.0000 0.0000 0.0000 8.2013 0.0000 0.0000
# 5 0.0000 0.0000 0.0000 0.0000 59.3506 0.0000
# 6 0.0000 0.0000 0.0000 0.0000 0.0000 34.6861
#
#
#
# Elastic Compliance Matrix: (Units=1/GPa)
#
#
# Indices 1 2 3 4 5 6 
#
# 1 0.009578 0.006175 -0.008092 0.000000 0.000000 0.000000
# 2 0.006175 0.060723 -0.027267 0.000000 0.000000 0.000000
# 3 -0.008092 -0.027267 0.027057 0.000000 0.000000 0.000000
# 4 0.000000 0.000000 0.000000 0.121931 0.000000 0.000000
# 5 0.000000 0.000000 0.000000 0.000000 0.016849 0.000000
# 6 0.000000 0.000000 0.000000 0.000000 0.000000 0.028830
#
#
# Mechanical properties :
#
#
# Convention : Reuss Voigt Hill
#
# Bulk Modulus (GPa) = 25.64885 49.34940 37.49913
# Shear Modulus (GPa) = 14.86624 31.49052 23.17838
#
# Velocity S-wave (km/s) = 2.40261 3.49682 3.00002
# Velocity P-wave (km/s) = 4.20192 5.95533 5.15374
#
# Compressibility (1/GPa) = 0.03898810
#
# Stress axis : x y z
#
# Youngs Moduli (GPa) = 104.41078 16.46827 36.95936
#
# Poissons Ratio (x) = -0.10169 0.29909
# Poissons Ratio (y) = -0.64474 1.00778
# Poissons Ratio (z) = 0.84493 0.44904
#
# Static dielectric constant tensor:
#      x y z
#    x 2.069050 0.000000 0.000000 
#    y 0.000000 1.980460 0.000000 
#    z 0.000000 0.000000 2.077960 
# 
# From -- ./inp_files/8596.got.cif
#   From: 2010.05.17/outbox.cif.g08.bks.cpg/sg56_5_cif.got.tgz:8596.got - 2010.06.03 13:42:01.
