data_PCOD9431162
_publ_section_title
;
Structure prediction by ZEFSAII (Michael W. Deem and Ramdas Pophale) SiO2 
 PCOD9431162
Probable space group: P C C N
;
_chemical_formula_sum "Si O2"
_cell_formula_units_Z 40
_cell_length_a 7.810231
_cell_length_b 16.988393
_cell_length_c 12.794001
_cell_angle_alpha 90.000000
_cell_angle_beta 90.000000
_cell_angle_gamma 90.000000
_cell_volume 1697.549936
_symmetry_space_group_name_H-M "P C C N"
_symmetry_group_IT_number 56
_symmetry_cell_setting 'orthorhombic'
loop_
_space_group_symop_operation_xyz
x,y,z
1/2-x,1/2-y,z
1/2+x,-y,1/2-z
-x,1/2+y,1/2-z
-x,-y,-z
1/2+x,1/2+y,-z
1/2-x,y,1/2+z
x,1/2-y,1/2+z
loop_
_atom_site_type_symbol
_atom_site_label
_atom_site_fract_x
_atom_site_fract_y
_atom_site_fract_z
Si Si1 0.496912 0.024024 0.340548
Si Si2 0.868441 0.089053 0.321609
Si Si3 0.250000 0.750000 0.276073
Si Si4 0.306182 0.099939 0.953110
Si Si5 0.750000 0.750000 0.190829
Si Si6 0.035866 0.155231 0.663012
O O1 0.697119 0.042071 0.356396
O O2 0.361605 0.047169 0.430975
O O3 0.462653 0.083429 0.243248
O O4 0.445144 0.941273 0.289412
O O5 0.821015 0.181055 0.304050
O O6 0.016135 0.068151 0.405147
O O7 0.348354 0.689744 0.356547
O O8 0.277352 0.176226 0.881632
O O9 0.346097 0.131020 0.067916
O O10 0.899765 0.770788 0.269785
#
# Coordination Sequence:
#
# PCOD9431162 Si02
#       6
#     8   8   4   8   4   8
#     4  10  23  42  66  94 131 173 215 275 322 386
#     4  11  21  43  68  92 135 177 213 266 336 378
#     4  10  22  42  64  94 134 168 212 276 322 386
#     4  11  22  41  68  93 129 174 216 266 330 390
#     4  10  20  42  64  90 136 168 210 276 330 382
#     4  10  22  40  64  96 128 167 222 269 320 388
#
# _framework density 23.563369999999999
#
# number of rings (size 3 to 8) (size 9 to 14) (size 15 to 20)
#    0.000    1.600    4.000    0.600    0.000    1.600 
#    3.600    1.000    0.000    0.000    0.000    0.000 
#    0.000    0.000    0.000    0.000    0.000    0.000 
#
# Total GULP energy -222985.855286 kJ/mol
# GULP energy per Si atom -5574.646382 kJ/mol
# Density = 2.350974 g / cm^3
# Si number density = 23.563370 Si / 1000 Ang^3
#
#
#
# Elastic Constant Matrix: (Units=GPa)
#
#
# Indices 1 2 3 4 5 6 
#
# 1 134.4596 29.8562 32.2669 0.0000 0.0000 0.0000
# 2 29.8562 89.8920 6.3771 0.0000 0.0000 0.0000
# 3 32.2669 6.3771 75.5707 0.0000 0.0000 0.0000
# 4 0.0000 0.0000 0.0000 -31.1636 0.0000 0.0000
# 5 0.0000 0.0000 0.0000 0.0000 74.1954 0.0000
# 6 0.0000 0.0000 0.0000 0.0000 0.0000 86.3838
#
#
#
# Elastic Compliance Matrix: (Units=1/GPa)
#
#
# Indices 1 2 3 4 5 6 
#
# 1 0.008893 -0.002701 -0.003569 0.000000 0.000000 0.000000
# 2 -0.002701 0.012012 0.000139 0.000000 0.000000 0.000000
# 3 -0.003569 0.000139 0.014745 0.000000 0.000000 0.000000
# 4 0.000000 0.000000 0.000000 -0.032089 0.000000 0.000000
# 5 0.000000 0.000000 0.000000 0.000000 0.013478 0.000000
# 6 0.000000 0.000000 0.000000 0.000000 0.000000 0.011576
#
#
# Mechanical properties :
#
#
# Convention : Reuss Voigt Hill
#
# Bulk Modulus (GPa) = 42.75540 48.54697 45.65118
# Shear Modulus (GPa) = 102.72746 41.31126 72.01936
#
# Velocity S-wave (km/s) = 6.60991 4.19166 5.53448
# Velocity P-wave (km/s) = 8.74293 6.63884 7.76250
#
# Compressibility (1/GPa) = 0.02338886
#
# Stress axis : x y z
#
# Youngs Moduli (GPa) = 112.44305 83.25344 67.82002
#
# Poissons Ratio (x) = 0.22483 0.24207
# Poissons Ratio (y) = 0.30366 -0.00946
# Poissons Ratio (z) = 0.40135 -0.01161
#
# Static dielectric constant tensor:
#      x y z
#    x 4.900660 0.000000 0.000000 
#    y 0.000000 1.916390 0.000000 
#    z 0.000000 0.000000 1.899100 
# 
# From -- ./inp_files/6220.got.cif
#   From: 2010.05.17/outbox.cif.g08.bks.cpg/sg56_4_cif.got.tgz:6220.got - 2010.06.03 13:42:01.
