data_PCOD9431082
_publ_section_title
;
Structure prediction by ZEFSAII (Michael W. Deem and Ramdas Pophale) SiO2 
 PCOD9431082
Probable space group: P C C N
;
_chemical_formula_sum "Si O2"
_cell_formula_units_Z 48
_cell_length_a 9.260494
_cell_length_b 21.130912
_cell_length_c 9.684200
_cell_angle_alpha 90.000000
_cell_angle_beta 90.000000
_cell_angle_gamma 90.000000
_cell_volume 1895.030246
_symmetry_space_group_name_H-M "P C C N"
_symmetry_group_IT_number 56
_symmetry_cell_setting 'orthorhombic'
loop_
_space_group_symop_operation_xyz
x,y,z
1/2-x,1/2-y,z
1/2+x,-y,1/2-z
-x,1/2+y,1/2-z
-x,-y,-z
1/2+x,1/2+y,-z
1/2-x,y,1/2+z
x,1/2-y,1/2+z
loop_
_atom_site_type_symbol
_atom_site_label
_atom_site_fract_x
_atom_site_fract_y
_atom_site_fract_z
Si Si1 0.337051 0.382889 0.660518
Si Si2 0.405038 0.561578 0.483738
Si Si3 0.628661 0.046305 0.655300
Si Si4 0.972974 0.677086 0.376201
Si Si5 0.085942 0.272185 0.355549
Si Si6 0.175338 0.515100 0.668015
O O1 0.468069 0.388153 0.550519
O O2 0.194290 0.345967 0.609922
O O3 0.401706 0.341197 0.784416
O O4 0.271523 0.451151 0.705478
O O5 0.500000 0.500000 0.500000
O O6 0.159587 0.514717 0.498674
O O7 0.324665 0.565942 0.635126
O O8 0.572725 0.116555 0.623154
O O9 0.812610 0.053915 0.666103
O O10 0.489218 0.006500 0.699762
O O11 0.982457 0.720268 0.243046
O O12 0.002440 0.720611 0.506360
O O13 0.250000 0.250000 0.380986
#
# Coordination Sequence:
#
# PCOD9431082 Si02
#       6
#     8   8   8   8   8   8
#     4   9  20  36  61  96 131 174 223 278 339 408
#     4  10  21  38  60  91 132 173 220 273 332 404
#     4  11  23  40  62  97 134 180 229 281 342 414
#     4  10  23  40  68  98 133 180 236 291 346 411
#     4  10  20  40  67  98 130 176 234 291 346 415
#     4  10  21  36  59  92 135 179 219 270 338 418
#
# _framework density 25.329411
#
# number of rings (size 3 to 8) (size 9 to 14) (size 15 to 20)
#    0.000    2.000    0.000    4.000    0.000   12.000 
#    0.000    0.833    0.000    6.000    0.000    0.000 
#    0.000    0.000    0.000    0.000    0.000    0.000 
#
# Total GULP energy -267361.063456 kJ/mol
# GULP energy per Si atom -5570.022155 kJ/mol
# Density = 2.527176 g / cm^3
# Si number density = 25.329411 Si / 1000 Ang^3
#
#
#
# Elastic Constant Matrix: (Units=GPa)
#
#
# Indices 1 2 3 4 5 6 
#
# 1 163.7404 8.0828 121.7229 0.0000 0.0000 0.0000
# 2 8.0828 123.8943 0.1126 0.0000 0.0000 0.0000
# 3 121.7229 0.1126 130.8565 0.0000 0.0000 0.0000
# 4 0.0000 0.0000 0.0000 44.9733 0.0000 0.0000
# 5 0.0000 0.0000 0.0000 0.0000 10.9839 0.0000
# 6 0.0000 0.0000 0.0000 0.0000 0.0000 -93.7072
#
#
#
# Elastic Compliance Matrix: (Units=1/GPa)
#
#
# Indices 1 2 3 4 5 6 
#
# 1 0.020000 -0.001288 -0.018603 0.000000 0.000000 0.000000
# 2 -0.001288 0.008154 0.001191 0.000000 0.000000 0.000000
# 3 -0.018603 0.001191 0.024945 0.000000 0.000000 0.000000
# 4 0.000000 0.000000 0.000000 0.022235 0.000000 0.000000
# 5 0.000000 0.000000 0.000000 0.000000 0.091043 0.000000
# 6 0.000000 0.000000 0.000000 0.000000 0.000000 -0.010672
#
#
# Mechanical properties :
#
#
# Convention : Reuss Voigt Hill
#
# Bulk Modulus (GPa) = 63.69398 75.36977 69.53187
# Shear Modulus (GPa) = 25.20932 11.68819 18.44875
#
# Velocity S-wave (km/s) = 3.15819 2.15046 2.70173
# Velocity P-wave (km/s) = 6.20482 5.99887 6.10271
#
# Compressibility (1/GPa) = 0.01570007
#
# Stress axis : x y z
#
# Youngs Moduli (GPa) = 49.99992 122.63419 40.08752
#
# Poissons Ratio (x) = 0.15794 0.74575
# Poissons Ratio (y) = 0.06439 -0.04774
# Poissons Ratio (z) = 0.93015 -0.14606
#
# Static dielectric constant tensor:
#      x y z
#    x 2.495730 0.000000 0.000000 
#    y 0.000000 1.972050 0.000000 
#    z 0.000000 0.000000 -1.709190 
# 
# From -- ./inp_files/6426.got.cif
#   From: 2010.05.17/outbox.cif.g08.bks.cpg/sg56_4_cif.got.tgz:6426.got - 2010.06.03 13:42:01.
