data_PCOD9431324
_publ_section_title
;
Structure prediction by ZEFSAII (Michael W. Deem and Ramdas Pophale) SiO2 
 PCOD9431324
Probable space group: P C C N
;
_chemical_formula_sum "Si O2"
_cell_formula_units_Z 60
_cell_length_a 10.887939
_cell_length_b 16.563067
_cell_length_c 14.844150
_cell_angle_alpha 90.000000
_cell_angle_beta 90.000000
_cell_angle_gamma 90.000000
_cell_volume 2676.959322
_symmetry_space_group_name_H-M "P C C N"
_symmetry_group_IT_number 56
_symmetry_cell_setting 'orthorhombic'
loop_
_space_group_symop_operation_xyz
x,y,z
1/2-x,1/2-y,z
1/2+x,-y,1/2-z
-x,1/2+y,1/2-z
-x,-y,-z
1/2+x,1/2+y,-z
1/2-x,y,1/2+z
x,1/2-y,1/2+z
loop_
_atom_site_type_symbol
_atom_site_label
_atom_site_fract_x
_atom_site_fract_y
_atom_site_fract_z
Si Si1 0.750000 0.750000 0.629605
Si Si2 0.148090 0.905740 0.072606
Si Si3 0.064128 0.615858 0.048582
Si Si4 0.904729 0.350851 0.154365
Si Si5 0.851956 0.074171 0.121377
Si Si6 0.937999 0.988691 0.769474
Si Si7 0.476654 0.761260 0.683817
Si Si8 0.684785 0.576877 0.607996
O O1 0.624201 0.771310 0.681394
O O2 0.720942 0.666510 0.578828
O O3 0.294897 0.910752 0.058474
O O4 0.099862 0.829118 0.128954
O O5 0.110518 0.980761 0.134405
O O6 0.090257 0.898519 0.973017
O O7 0.048880 0.680718 0.128459
O O8 0.947151 0.557642 0.063791
O O9 0.051410 0.651989 0.948300
O O10 0.759380 0.367981 0.149070
O O11 0.955265 0.430455 0.208211
O O12 0.935426 0.273250 0.213690
O O13 0.938723 0.057736 0.205415
O O14 0.789518 0.988334 0.093961
O O15 0.845232 0.931722 0.714748
#
# Coordination Sequence:
#
# PCOD9431324 Si02
#       8
#     4   8   8   8   8   8   8   8
#     4  10  22  44  62  84 126 164 212 256 318 384
#     4  10  21  39  63  94 126 164 213 266 318 378
#     4  10  22  41  62  93 130 172 208 261 323 379
#     4   9  21  40  63  96 122 166 213 258 312 382
#     4  10  21  40  63  94 129 161 213 270 312 377
#     4  10  21  36  62  90 123 166 208 261 321 365
#     4  10  21  43  65  88 130 167 210 264 321 383
#     4  10  22  38  62  89 123 168 207 262 312 384
#
# _framework density 22.413489999999999
#
# number of rings (size 3 to 8) (size 9 to 14) (size 15 to 20)
#    0.000    2.133    0.000    2.400    5.600    4.800 
#    7.200    6.667    0.000    0.000    0.000    0.000 
#    0.000    0.000    0.000    0.000    0.000    0.000 
#
# Total GULP energy -334860.861333 kJ/mol
# GULP energy per Si atom -5581.014356 kJ/mol
# Density = 2.236248 g / cm^3
# Si number density = 22.413490 Si / 1000 Ang^3
#
#
#
# Elastic Constant Matrix: (Units=GPa)
#
#
# Indices 1 2 3 4 5 6 
#
# 1 43.2372 -1.1598 20.4341 0.0000 0.0000 0.0000
# 2 -1.1598 27.0180 5.5439 0.0000 0.0000 0.0000
# 3 20.4341 5.5439 119.9906 0.0000 0.0000 0.0000
# 4 0.0000 0.0000 0.0000 20.1900 0.0000 0.0000
# 5 0.0000 0.0000 0.0000 0.0000 33.8739 0.0000
# 6 0.0000 0.0000 0.0000 0.0000 0.0000 26.9191
#
#
#
# Elastic Compliance Matrix: (Units=1/GPa)
#
#
# Indices 1 2 3 4 5 6 
#
# 1 0.025258 0.001986 -0.004393 0.000000 0.000000 0.000000
# 2 0.001986 0.037523 -0.002072 0.000000 0.000000 0.000000
# 3 -0.004393 -0.002072 0.009178 0.000000 0.000000 0.000000
# 4 0.000000 0.000000 0.000000 0.049530 0.000000 0.000000
# 5 0.000000 0.000000 0.000000 0.000000 0.029521 0.000000
# 6 0.000000 0.000000 0.000000 0.000000 0.000000 0.037148
#
#
# Mechanical properties :
#
#
# Convention : Reuss Voigt Hill
#
# Bulk Modulus (GPa) = 15.87308 26.65359 21.26334
# Shear Modulus (GPa) = 22.92360 27.22509 25.07435
#
# Velocity S-wave (km/s) = 3.20153 3.48900 3.34835
# Velocity P-wave (km/s) = 4.55672 5.30551 4.94531
#
# Compressibility (1/GPa) = 0.06299974
#
# Stress axis : x y z
#
# Youngs Moduli (GPa) = 39.59193 26.65051 108.95809
#
# Poissons Ratio (x) = -0.05292 0.47866
# Poissons Ratio (y) = -0.07861 0.22574
# Poissons Ratio (z) = 0.17393 0.05521
#
# Static dielectric constant tensor:
#      x y z
#    x 1.856730 0.000000 0.000000 
#    y 0.000000 1.898430 0.000000 
#    z 0.000000 0.000000 1.830350 
# 
# From -- ./inp_files/11816.got.cif
#   From: 2010.05.17/outbox.cif.g08.bks.cpg/sg56_6_cif.got.tgz:11816.got - 2010.06.03 13:42:01.
