data_PCOD9431436
_publ_section_title
;
Structure prediction by ZEFSAII (Michael W. Deem and Ramdas Pophale) SiO2 
 PCOD9431436
Probable space group: P C C N
;
_chemical_formula_sum "Si O2"
_cell_formula_units_Z 48
_cell_length_a 5.579275
_cell_length_b 26.121888
_cell_length_c 18.197900
_cell_angle_alpha 90.000000
_cell_angle_beta 90.000000
_cell_angle_gamma 90.000000
_cell_volume 2652.183723
_symmetry_space_group_name_H-M "P C C N"
_symmetry_group_IT_number 56
_symmetry_cell_setting 'orthorhombic'
loop_
_space_group_symop_operation_xyz
x,y,z
1/2-x,1/2-y,z
1/2+x,-y,1/2-z
-x,1/2+y,1/2-z
-x,-y,-z
1/2+x,1/2+y,-z
1/2-x,y,1/2+z
x,1/2-y,1/2+z
loop_
_atom_site_type_symbol
_atom_site_label
_atom_site_fract_x
_atom_site_fract_y
_atom_site_fract_z
Si Si1 0.168400 0.055874 0.322937
Si Si2 0.812927 0.306629 0.939232
Si Si3 0.178801 0.153629 0.903278
Si Si4 0.589900 0.109156 0.527427
Si Si5 0.990536 0.045923 0.158716
Si Si6 0.183705 0.520652 0.060039
O O1 0.313039 0.105423 0.348626
O O2 0.082810 0.058617 0.239448
O O3 0.948116 0.055005 0.379487
O O4 0.307379 0.001969 0.334124
O O5 0.750000 0.250000 0.967444
O O6 0.788214 0.349704 0.002546
O O7 0.923655 0.181358 0.889549
O O8 0.073916 0.314305 0.902583
O O9 0.144015 0.132743 0.987564
O O10 0.601348 0.094275 0.612315
O O11 0.632702 0.056176 0.483536
O O12 0.201139 0.024543 0.106745
O O13 0.000000 0.500000 0.000000
#
# Coordination Sequence:
#
# PCOD9431436 Si02
#       6
#     8   8   8   8   8   8
#     4  12  22  36  53  85 129 168 202 237 294 366
#     4  10  21  39  66  92 110 146 206 268 315 357
#     4  10  21  38  62  90 117 154 202 254 303 359
#     4  10  22  34  61  88 116 156 204 251 300 354
#     4  12  23  35  52  88 123 170 196 241 292 366
#     4  12  21  35  57  81 127 161 209 238 291 354
#
# _framework density 18.098293999999999
#
# number of rings (size 3 to 8) (size 9 to 14) (size 15 to 20)
#    1.000    0.000    6.667    2.000    0.000    0.000 
#    0.000    0.000    0.000    1.000    4.333    0.000 
#    0.000    0.000    0.000    0.000    0.000    0.000 
#
# Total GULP energy -267266.919861 kJ/mol
# GULP energy per Si atom -5568.060830 kJ/mol
# Density = 1.805710 g / cm^3
# Si number density = 18.098294 Si / 1000 Ang^3
#
#
#
# Elastic Constant Matrix: (Units=GPa)
#
#
# Indices 1 2 3 4 5 6 
#
# 1 89.6423 5.7113 20.2660 0.0000 0.0000 0.0000
# 2 5.7113 36.7072 4.3162 0.0000 0.0000 0.0000
# 3 20.2660 4.3162 104.6820 0.0000 0.0000 0.0000
# 4 0.0000 0.0000 0.0000 7.2082 0.0000 0.0000
# 5 0.0000 0.0000 0.0000 0.0000 14.5886 0.0000
# 6 0.0000 0.0000 0.0000 0.0000 0.0000 24.6175
#
#
#
# Elastic Compliance Matrix: (Units=1/GPa)
#
#
# Indices 1 2 3 4 5 6 
#
# 1 0.011755 -0.001569 -0.002211 0.000000 0.000000 0.000000
# 2 -0.001569 0.027585 -0.000834 0.000000 0.000000 0.000000
# 3 -0.002211 -0.000834 0.010015 0.000000 0.000000 0.000000
# 4 0.000000 0.000000 0.000000 0.138731 0.000000 0.000000
# 5 0.000000 0.000000 0.000000 0.000000 0.068547 0.000000
# 6 0.000000 0.000000 0.000000 0.000000 0.000000 0.040621
#
#
# Mechanical properties :
#
#
# Convention : Reuss Voigt Hill
#
# Bulk Modulus (GPa) = 24.92037 32.40204 28.66120
# Shear Modulus (GPa) = 15.63196 22.66539 19.14867
#
# Velocity S-wave (km/s) = 2.94211 3.54269 3.25628
# Velocity P-wave (km/s) = 5.03395 5.88867 5.47801
#
# Compressibility (1/GPa) = 0.04012782
#
# Stress axis : x y z
#
# Youngs Moduli (GPa) = 85.06810 36.25189 99.84851
#
# Poissons Ratio (x) = 0.05688 0.22077
# Poissons Ratio (y) = 0.13347 0.08323
# Poissons Ratio (z) = 0.18809 0.03022
#
# Static dielectric constant tensor:
#      x y z
#    x 1.707470 0.000000 0.000000 
#    y 0.000000 1.679940 0.000000 
#    z 0.000000 0.000000 1.597830 
# 
# From -- ./inp_files/13998.got.cif
#   From: 2010.05.17/outbox.cif.g08.bks.cpg/sg56_7_cif.got.tgz:13998.got - 2010.06.03 13:42:01.
