data_PCOD9431015
_publ_section_title
;
Structure prediction by ZEFSAII (Michael W. Deem and Ramdas Pophale) SiO2 
 PCOD9431015
Probable space group: P C C N
;
_chemical_formula_sum "Si O2"
_cell_formula_units_Z 32
_cell_length_a 7.909687
_cell_length_b 10.360425
_cell_length_c 15.973379
_cell_angle_alpha 90.000000
_cell_angle_beta 90.000000
_cell_angle_gamma 90.000000
_cell_volume 1308.981973
_symmetry_space_group_name_H-M "P C C N"
_symmetry_group_IT_number 56
_symmetry_cell_setting 'orthorhombic'
loop_
_space_group_symop_operation_xyz
x,y,z
1/2-x,1/2-y,z
1/2+x,-y,1/2-z
-x,1/2+y,1/2-z
-x,-y,-z
1/2+x,1/2+y,-z
1/2-x,y,1/2+z
x,1/2-y,1/2+z
loop_
_atom_site_type_symbol
_atom_site_label
_atom_site_fract_x
_atom_site_fract_y
_atom_site_fract_z
Si Si1 0.564705 0.909548 0.200457
Si Si2 0.390089 0.529454 0.860821
Si Si3 0.054485 0.709529 0.563242
Si Si4 0.045330 0.894351 0.429823
O O1 0.762142 0.940621 0.194230
O O2 0.527209 0.794257 0.137463
O O3 0.492152 0.889374 0.292514
O O4 0.485118 0.040103 0.156396
O O5 0.249184 0.602691 0.915993
O O6 0.509962 0.436652 0.914374
O O7 0.250000 0.750000 0.568852
O O8 0.985783 0.762753 0.473745
O O9 0.000000 0.000000 0.500000
#
# Coordination Sequence:
#
# PCOD9431015 Si02
#       4
#     8   8   8   8
#     4   9  20  39  62  93 125 164 220 278 326 395
#     4  10  20  39  69  89 132 172 219 286 333 396
#     4  11  21  38  65  92 131 178 217 275 346 407
#     4   8  20  38  63  88 129 169 220 275 333 416
#
# _framework density 24.446480999999999
#
# number of rings (size 3 to 8) (size 9 to 14) (size 15 to 20)
#    1.500    1.000    0.000    2.250    0.000    1.000 
#    4.500    0.000   11.000    0.000    0.000    0.000 
#    0.000    0.000    0.000    0.000    0.000    0.000 
#
# Total GULP energy -178337.004683 kJ/mol
# GULP energy per Si atom -5573.031396 kJ/mol
# Density = 2.439084 g / cm^3
# Si number density = 24.446481 Si / 1000 Ang^3
#
#
#
# Elastic Constant Matrix: (Units=GPa)
#
#
# Indices 1 2 3 4 5 6 
#
# 1 62.0938 -1.1449 34.1761 0.0000 0.0000 0.0000
# 2 -1.1449 66.4116 45.7683 0.0000 0.0000 0.0000
# 3 34.1761 45.7683 140.1667 0.0000 0.0000 0.0000
# 4 0.0000 0.0000 0.0000 28.1704 0.0000 0.0000
# 5 0.0000 0.0000 0.0000 0.0000 47.0026 0.0000
# 6 0.0000 0.0000 0.0000 0.0000 0.0000 34.6262
#
#
#
# Elastic Compliance Matrix: (Units=1/GPa)
#
#
# Indices 1 2 3 4 5 6 
#
# 1 0.019678 0.004704 -0.006334 0.000000 0.000000 0.000000
# 2 0.004704 0.020555 -0.007859 0.000000 0.000000 0.000000
# 3 -0.006334 -0.007859 0.011245 0.000000 0.000000 0.000000
# 4 0.000000 0.000000 0.000000 0.035498 0.000000 0.000000
# 5 0.000000 0.000000 0.000000 0.000000 0.021275 0.000000
# 6 0.000000 0.000000 0.000000 0.000000 0.000000 0.028880
#
#
# Mechanical properties :
#
#
# Convention : Reuss Voigt Hill
#
# Bulk Modulus (GPa) = 30.76884 47.36348 39.06616
# Shear Modulus (GPa) = 29.95077 34.61803 32.28440
#
# Velocity S-wave (km/s) = 3.50402 3.76716 3.63797
# Velocity P-wave (km/s) = 5.38372 6.19180 5.80184
#
# Compressibility (1/GPa) = 0.03250041
#
# Stress axis : x y z
#
# Youngs Moduli (GPa) = 50.81920 48.65086 88.92979
#
# Poissons Ratio (x) = -0.22887 0.56328
# Poissons Ratio (y) = -0.23907 0.69887
# Poissons Ratio (z) = 0.32189 0.38233
#
# Static dielectric constant tensor:
#      x y z
#    x 2.005630 0.000000 0.000000 
#    y 0.000000 2.024760 0.000000 
#    z 0.000000 0.000000 1.942060 
# 
# From -- ./inp_files/11276.got.cif
#   From: 2010.05.17/outbox.cif.g08.bks.cpg/sg56_6_cif.got.tgz:11276.got - 2010.06.03 13:42:01.
