data_PCOD9431052
_publ_section_title
;
Structure prediction by ZEFSAII (Michael W. Deem and Ramdas Pophale) SiO2 
 PCOD9431052
Probable space group: P C C N
;
_chemical_formula_sum "Si O2"
_cell_formula_units_Z 44
_cell_length_a 13.719457
_cell_length_b 5.442920
_cell_length_c 26.294108
_cell_angle_alpha 90.000000
_cell_angle_beta 90.000000
_cell_angle_gamma 90.000000
_cell_volume 1963.483773
_symmetry_space_group_name_H-M "P C C N"
_symmetry_group_IT_number 56
_symmetry_cell_setting 'orthorhombic'
loop_
_space_group_symop_operation_xyz
x,y,z
1/2-x,1/2-y,z
1/2+x,-y,1/2-z
-x,1/2+y,1/2-z
-x,-y,-z
1/2+x,1/2+y,-z
1/2-x,y,1/2+z
x,1/2-y,1/2+z
loop_
_atom_site_type_symbol
_atom_site_label
_atom_site_fract_x
_atom_site_fract_y
_atom_site_fract_z
Si Si1 0.307017 0.508421 0.309866
Si Si2 0.088420 0.413970 0.037083
Si Si3 0.855316 0.615357 0.549294
Si Si4 0.250000 0.750000 0.493395
Si Si5 0.493533 0.361379 0.371646
Si Si6 0.551050 0.126125 0.270163
O O1 0.250000 0.750000 0.326437
O O2 0.406353 0.490793 0.341476
O O3 0.344306 0.554384 0.252446
O O4 0.250000 0.250000 0.314558
O O5 0.186897 0.569202 0.027736
O O6 0.056145 0.450566 0.094706
O O7 0.115000 0.159786 0.009759
O O8 0.000000 0.500000 0.000000
O O9 0.750000 0.750000 0.558871
O O10 0.831698 0.333191 0.547341
O O11 0.937362 0.692070 0.587636
O O12 0.548100 0.200049 0.329265
O O13 0.514199 0.380525 0.241913
#
# Coordination Sequence:
#
# PCOD9431052 Si02
#       6
#     8   8   8   4   8   8
#     4  11  23  44  70  99 138 175 227 289 347 403
#     4   9  20  40  60  93 129 170 219 274 339 400
#     4   9  19  39  61  95 129 169 217 274 334 397
#     4  10  20  40  64  84 138 172 216 278 342 406
#     4  10  21  41  64  98 128 173 231 273 341 412
#     4  10  22  44  65  95 135 175 218 282 346 408
#
# _framework density 22.409148999999999
#
# number of rings (size 3 to 8) (size 9 to 14) (size 15 to 20)
#    0.000    2.182    0.000    2.727    0.000    2.909 
#   60.545    0.000    0.000    0.000    0.000    0.000 
#    0.000    0.000    0.000    0.000    0.000    0.000 
#
# Total GULP energy -245143.562961 kJ/mol
# GULP energy per Si atom -5571.444613 kJ/mol
# Density = 2.235815 g / cm^3
# Si number density = 22.409149 Si / 1000 Ang^3
#
#
#
# Elastic Constant Matrix: (Units=GPa)
#
#
# Indices 1 2 3 4 5 6 
#
# 1 65.0323 20.4037 35.9815 0.0000 0.0000 0.0000
# 2 20.4037 80.5883 35.6959 0.0000 0.0000 0.0000
# 3 35.9815 35.6959 146.6286 0.0000 0.0000 0.0000
# 4 0.0000 0.0000 0.0000 6.6194 0.0000 0.0000
# 5 0.0000 0.0000 0.0000 0.0000 35.1880 0.0000
# 6 0.0000 0.0000 0.0000 0.0000 0.0000 26.0339
#
#
#
# Elastic Compliance Matrix: (Units=1/GPa)
#
#
# Indices 1 2 3 4 5 6 
#
# 1 0.018410 -0.002982 -0.003792 0.000000 0.000000 0.000000
# 2 -0.002982 0.014391 -0.002772 0.000000 0.000000 0.000000
# 3 -0.003792 -0.002772 0.008425 0.000000 0.000000 0.000000
# 4 0.000000 0.000000 0.000000 0.151070 0.000000 0.000000
# 5 0.000000 0.000000 0.000000 0.000000 0.028419 0.000000
# 6 0.000000 0.000000 0.000000 0.000000 0.000000 0.038412
#
#
# Mechanical properties :
#
#
# Convention : Reuss Voigt Hill
#
# Bulk Modulus (GPa) = 45.17459 52.93460 49.05459
# Shear Modulus (GPa) = 17.50717 26.91280 22.20999
#
# Velocity S-wave (km/s) = 2.79812 3.46927 3.15161
# Velocity P-wave (km/s) = 5.53553 6.30245 5.93140
#
# Compressibility (1/GPa) = 0.02213634
#
# Stress axis : x y z
#
# Youngs Moduli (GPa) = 54.31689 69.48588 118.69092
#
# Poissons Ratio (x) = 0.20718 0.45007
# Poissons Ratio (y) = 0.16195 0.32899
# Poissons Ratio (z) = 0.20597 0.19260
#
# Static dielectric constant tensor:
#      x y z
#    x 1.884950 0.000000 0.000000 
#    y 0.000000 1.997920 0.000000 
#    z 0.000000 0.000000 1.891710 
# 
# From -- ./inp_files/22385.got.cif
#   From: 2010.05.17/outbox.cif.g08.bks.cpg/sg56_12_cif.got.tgz:22385.got - 2010.06.03 13:42:01.
