data_PCOD9431991
_publ_section_title
;
Structure prediction by ZEFSAII (Michael W. Deem and Ramdas Pophale) SiO2 
 PCOD9431991
Probable space group: P C C N
;
_chemical_formula_sum "Si O2"
_cell_formula_units_Z 32
_cell_length_a 16.764653
_cell_length_b 7.508093
_cell_length_c 11.329706
_cell_angle_alpha 90.000000
_cell_angle_beta 90.000000
_cell_angle_gamma 90.000000
_cell_volume 1426.076596
_symmetry_space_group_name_H-M "P C C N"
_symmetry_group_IT_number 56
_symmetry_cell_setting 'orthorhombic'
loop_
_space_group_symop_operation_xyz
x,y,z
1/2-x,1/2-y,z
1/2+x,-y,1/2-z
-x,1/2+y,1/2-z
-x,-y,-z
1/2+x,1/2+y,-z
1/2-x,y,1/2+z
x,1/2-y,1/2+z
loop_
_atom_site_type_symbol
_atom_site_label
_atom_site_fract_x
_atom_site_fract_y
_atom_site_fract_z
Si Si1 0.338121 0.675747 0.692558
Si Si2 0.424711 0.514189 0.084820
Si Si3 0.613084 0.643580 0.443375
Si Si4 0.065558 0.909227 0.348636
O O1 0.250000 0.750000 0.702393
O O2 0.341260 0.472728 0.653611
O O3 0.385738 0.733521 0.809781
O O4 0.383749 0.791814 0.590665
O O5 0.366676 0.351231 0.052375
O O6 0.448578 0.493318 0.222805
O O7 0.500000 0.500000 0.000000
O O8 0.519738 0.633487 0.404432
O O9 0.614722 0.541986 0.567840
#
# Coordination Sequence:
#
# PCOD9431991 Si02
#       4
#     8   8   8   8
#     4  10  24  42  63  96 139 168 219 281 341 397
#     4  10  22  38  65  96 126 170 224 272 328 405
#     4  11  20  40  67  91 134 173 220 277 325 403
#     4   9  22  39  61 100 124 169 223 268 327 395
#
# _framework density 22.439187
#
# number of rings (size 3 to 8) (size 9 to 14) (size 15 to 20)
#    1.500    0.500    0.000    4.500    3.500    2.000 
#    0.000    0.000    5.500    0.000    0.000    0.000 
#    0.000    0.000    0.000    0.000    0.000    0.000 
#
# Total GULP energy -178581.300646 kJ/mol
# GULP energy per Si atom -5580.665645 kJ/mol
# Density = 2.238811 g / cm^3
# Si number density = 22.439187 Si / 1000 Ang^3
#
#
#
# Elastic Constant Matrix: (Units=GPa)
#
#
# Indices 1 2 3 4 5 6 
#
# 1 59.1581 -15.5677 -7.5674 0.0000 0.0000 0.0000
# 2 -15.5677 95.5138 2.4664 0.0000 0.0000 0.0000
# 3 -7.5674 2.4664 97.3674 0.0000 0.0000 0.0000
# 4 0.0000 0.0000 0.0000 29.4976 0.0000 0.0000
# 5 0.0000 0.0000 0.0000 0.0000 11.0413 0.0000
# 6 0.0000 0.0000 0.0000 0.0000 0.0000 16.9579
#
#
#
# Elastic Compliance Matrix: (Units=1/GPa)
#
#
# Indices 1 2 3 4 5 6 
#
# 1 0.017828 0.002872 0.001313 0.000000 0.000000 0.000000
# 2 0.002872 0.010939 -0.000054 0.000000 0.000000 0.000000
# 3 0.001313 -0.000054 0.010374 0.000000 0.000000 0.000000
# 4 0.000000 0.000000 0.000000 0.033901 0.000000 0.000000
# 5 0.000000 0.000000 0.000000 0.000000 0.090569 0.000000
# 6 0.000000 0.000000 0.000000 0.000000 0.000000 0.058969
#
#
# Mechanical properties :
#
#
# Convention : Reuss Voigt Hill
#
# Bulk Modulus (GPa) = 21.09623 23.41131 22.25377
# Shear Modulus (GPa) = 21.72790 29.67990 25.70390
#
# Velocity S-wave (km/s) = 3.11513 3.64081 3.38818
# Velocity P-wave (km/s) = 4.72870 5.30376 5.02447
#
# Compressibility (1/GPa) = 0.04740184
#
# Stress axis : x y z
#
# Youngs Moduli (GPa) = 56.09309 91.41474 96.39690
#
# Poissons Ratio (x) = -0.26252 -0.12655
# Poissons Ratio (y) = -0.16109 0.00520
# Poissons Ratio (z) = -0.07364 0.00493
#
# Static dielectric constant tensor:
#      x y z
#    x 1.803430 0.000000 0.000000 
#    y 0.000000 1.907950 0.000000 
#    z 0.000000 0.000000 1.870600 
# 
# From -- ./inp_files/8154.got.cif
#   From: 2010.05.17/outbox.cif.g08.bks.cpg/sg56_5_cif.got.tgz:8154.got - 2010.06.03 13:42:01.
