data_PCOD9431961
_publ_section_title
;
Structure prediction by ZEFSAII (Michael W. Deem and Ramdas Pophale) SiO2 
 PCOD9431961
Probable space group: P C C N
;
_chemical_formula_sum "Si O2"
_cell_formula_units_Z 48
_cell_length_a 28.843635
_cell_length_b 8.204787
_cell_length_c 8.800466
_cell_angle_alpha 90.000000
_cell_angle_beta 90.000000
_cell_angle_gamma 90.000000
_cell_volume 2082.682039
_symmetry_space_group_name_H-M "P C C N"
_symmetry_group_IT_number 56
_symmetry_cell_setting 'orthorhombic'
loop_
_space_group_symop_operation_xyz
x,y,z
1/2-x,1/2-y,z
1/2+x,-y,1/2-z
-x,1/2+y,1/2-z
-x,-y,-z
1/2+x,1/2+y,-z
1/2-x,y,1/2+z
x,1/2-y,1/2+z
loop_
_atom_site_type_symbol
_atom_site_label
_atom_site_fract_x
_atom_site_fract_y
_atom_site_fract_z
Si Si1 0.213352 0.109918 0.275168
Si Si2 0.113684 0.217473 0.376097
Si Si3 0.031739 0.512983 0.780860
Si Si4 0.631052 0.512172 0.321534
Si Si5 0.231520 0.571665 0.063798
Si Si6 0.950087 0.304859 0.909368
O O1 0.250000 0.250000 0.316532
O O2 0.161280 0.164857 0.294627
O O3 0.227686 0.051429 0.109965
O O4 0.219566 0.959776 0.389623
O O5 0.114762 0.409448 0.337945
O O6 0.117428 0.144711 0.546281
O O7 0.069976 0.128102 0.300435
O O8 0.036580 0.620739 0.630644
O O9 0.983027 0.427645 0.813578
O O10 0.041330 0.641883 0.917484
O O11 0.685599 0.475155 0.339798
O O12 0.602129 0.350836 0.362354
O O13 0.250000 0.750000 0.090339
#
# Coordination Sequence:
#
# PCOD9431961 Si02
#       6
#     8   8   8   8   8   8
#     4  11  22  40  61  86 118 161 206 246 301 361
#     4  10  22  38  60  88 117 155 199 248 293 361
#     4  10  22  40  62  89 123 154 199 247 300 360
#     4  10  22  40  59  89 119 155 202 246 301 358
#     4  11  24  39  59  87 123 158 200 256 303 357
#     4  10  22  40  61  89 122 156 196 248 298 361
#
# _framework density 23.047205000000002
#
# number of rings (size 3 to 8) (size 9 to 14) (size 15 to 20)
#    0.000    1.667    1.667    2.000    4.667    2.000 
#    3.000    0.000    0.000    0.000    0.000    0.000 
#    0.000    0.000    0.000    0.000    0.000    0.000 
#
# Total GULP energy -268311.324214 kJ/mol
# GULP energy per Si atom -5589.819254 kJ/mol
# Density = 2.299475 g / cm^3
# Si number density = 23.047205 Si / 1000 Ang^3
#
#
#
# Elastic Constant Matrix: (Units=GPa)
#
#
# Indices 1 2 3 4 5 6 
#
# 1 64.0218 -11.9392 0.1780 0.0000 0.0000 0.0000
# 2 -11.9392 50.9394 19.9886 0.0000 0.0000 0.0000
# 3 0.1780 19.9886 24.3447 0.0000 0.0000 0.0000
# 4 0.0000 0.0000 0.0000 29.4007 0.0000 0.0000
# 5 0.0000 0.0000 0.0000 0.0000 10.2533 0.0000
# 6 0.0000 0.0000 0.0000 0.0000 0.0000 26.7010
#
#
#
# Elastic Compliance Matrix: (Units=1/GPa)
#
#
# Indices 1 2 3 4 5 6 
#
# 1 0.016725 0.005854 -0.004929 0.000000 0.000000 0.000000
# 2 0.005854 0.031012 -0.025505 0.000000 0.000000 0.000000
# 3 -0.004929 -0.025505 0.062054 0.000000 0.000000 0.000000
# 4 0.000000 0.000000 0.000000 0.034013 0.000000 0.000000
# 5 0.000000 0.000000 0.000000 0.000000 0.097530 0.000000
# 6 0.000000 0.000000 0.000000 0.000000 0.000000 0.037452
#
#
# Mechanical properties :
#
#
# Convention : Reuss Voigt Hill
#
# Bulk Modulus (GPa) = 16.49328 17.30675 16.90001
# Shear Modulus (GPa) = 14.36139 22.00956 18.18547
#
# Velocity S-wave (km/s) = 2.49896 3.09362 2.81206
# Velocity P-wave (km/s) = 3.93678 4.50402 4.22992
#
# Compressibility (1/GPa) = 0.06063075
#
# Stress axis : x y z
#
# Youngs Moduli (GPa) = 59.79036 32.24609 16.11491
#
# Poissons Ratio (x) = -0.18877 0.07943
# Poissons Ratio (y) = -0.35002 0.41102
# Poissons Ratio (z) = 0.29470 0.82245
#
# Static dielectric constant tensor:
#      x y z
#    x 1.811040 0.000000 0.000000 
#    y 0.000000 1.967860 0.000000 
#    z 0.000000 0.000000 1.840750 
# 
# From -- ./inp_files/2241.got.cif
#   From: 2010.05.17/outbox.cif.g08.bks.cpg/sg56_2_cif.got.tgz:2241.got - 2010.06.03 13:42:01.
