data_PCOD9431109
_publ_section_title
;
Structure prediction by ZEFSAII (Michael W. Deem and Ramdas Pophale) SiO2 
 PCOD9431109
Probable space group: P C C N
;
_chemical_formula_sum "Si O2"
_cell_formula_units_Z 52
_cell_length_a 17.471704
_cell_length_b 17.977398
_cell_length_c 9.009287
_cell_angle_alpha 90.000000
_cell_angle_beta 90.000000
_cell_angle_gamma 90.000000
_cell_volume 2829.778996
_symmetry_space_group_name_H-M "P C C N"
_symmetry_group_IT_number 56
_symmetry_cell_setting 'orthorhombic'
loop_
_space_group_symop_operation_xyz
x,y,z
1/2-x,1/2-y,z
1/2+x,-y,1/2-z
-x,1/2+y,1/2-z
-x,-y,-z
1/2+x,1/2+y,-z
1/2-x,y,1/2+z
x,1/2-y,1/2+z
loop_
_atom_site_type_symbol
_atom_site_label
_atom_site_fract_x
_atom_site_fract_y
_atom_site_fract_z
Si Si1 0.250000 0.250000 0.207418
Si Si2 0.935375 0.537071 0.107511
Si Si3 0.293242 0.403678 0.581694
Si Si4 0.913313 0.690980 0.254747
Si Si5 0.070242 0.955232 0.078838
Si Si6 0.960476 0.665251 0.592508
Si Si7 0.835149 0.952653 0.122606
O O1 0.203187 0.316474 0.126386
O O2 0.321872 0.295460 0.280106
O O3 0.950675 0.618353 0.179270
O O4 0.920257 0.486218 0.253790
O O5 0.860938 0.558248 0.010865
O O6 0.000000 0.500000 0.000000
O O7 0.215531 0.407473 0.491906
O O8 0.287666 0.455141 0.727700
O O9 0.926549 0.682508 0.430218
O O10 0.954919 0.763112 0.192670
O O11 0.043932 0.870464 0.080656
O O12 0.138471 0.975146 0.966430
O O13 0.000000 0.000000 0.000000
O O14 0.907531 0.599742 0.661711
#
# Coordination Sequence:
#
# PCOD9431109 Si02
#       7
#     4   8   8   8   8   8   8
#     4  12  22  38  56  94 136 162 200 248 310 390
#     4  12  25  38  58  84 123 165 220 254 301 379
#     4  12  24  35  59  89 124 168 201 252 312 375
#     4  12  24  37  58  90 126 170 203 249 315 374
#     4  10  20  41  56  78 118 170 209 260 296 355
#     4  11  23  37  59  85 128 164 205 251 308 370
#     4  11  21  38  56  85 125 166 203 250 303 367
#
# _framework density 18.375993999999999
#
# number of rings (size 3 to 8) (size 9 to 14) (size 15 to 20)
#    0.000    0.615    6.154    4.615    2.154    1.231 
#    0.000    0.000    0.000    0.000    0.000    1.077 
#    0.000    0.000    0.000    0.000    0.000    0.000 
#
# Total GULP energy -289744.343288 kJ/mol
# GULP energy per Si atom -5572.006602 kJ/mol
# Density = 1.833417 g / cm^3
# Si number density = 18.375994 Si / 1000 Ang^3
#
#
#
# Elastic Constant Matrix: (Units=GPa)
#
#
# Indices 1 2 3 4 5 6 
#
# 1 46.0520 41.0749 21.0916 0.0000 0.0000 0.0000
# 2 41.0749 87.0364 25.4172 0.0000 0.0000 0.0000
# 3 21.0916 25.4172 96.1687 0.0000 0.0000 0.0000
# 4 0.0000 0.0000 0.0000 24.7676 0.0000 0.0000
# 5 0.0000 0.0000 0.0000 0.0000 34.1980 0.0000
# 6 0.0000 0.0000 0.0000 0.0000 0.0000 39.9960
#
#
#
# Elastic Compliance Matrix: (Units=1/GPa)
#
#
# Indices 1 2 3 4 5 6 
#
# 1 0.038857 -0.017175 -0.003983 0.000000 0.000000 0.000000
# 2 -0.017175 0.020042 -0.001530 0.000000 0.000000 0.000000
# 3 -0.003983 -0.001530 0.011676 0.000000 0.000000 0.000000
# 4 0.000000 0.000000 0.000000 0.040375 0.000000 0.000000
# 5 0.000000 0.000000 0.000000 0.000000 0.029242 0.000000
# 6 0.000000 0.000000 0.000000 0.000000 0.000000 0.025002
#
#
# Mechanical properties :
#
#
# Convention : Reuss Voigt Hill
#
# Bulk Modulus (GPa) = 39.68325 44.93604 42.30965
# Shear Modulus (GPa) = 22.83419 29.23720 26.03570
#
# Velocity S-wave (km/s) = 3.52889 3.99313 3.76817
# Velocity P-wave (km/s) = 6.18435 6.76512 6.48124
#
# Compressibility (1/GPa) = 0.02519955
#
# Stress axis : x y z
#
# Youngs Moduli (GPa) = 25.73523 49.89643 85.64319
#
# Poissons Ratio (x) = 0.85695 0.34111
# Poissons Ratio (y) = 0.44199 0.13105
# Poissons Ratio (z) = 0.10250 0.07635
#
# Static dielectric constant tensor:
#      x y z
#    x 1.688690 0.000000 0.000000 
#    y 0.000000 1.645780 0.000000 
#    z 0.000000 0.000000 1.728730 
# 
# From -- ./inp_files/4075.got.cif
#   From: 2010.05.17/outbox.cif.g08.bks.cpg/sg56_3_cif.got.tgz:4075.got - 2010.06.03 13:42:01.
