data_PCOD9431038
_publ_section_title
;
Structure prediction by ZEFSAII (Michael W. Deem and Ramdas Pophale) SiO2 
 PCOD9431038
Probable space group: P C C N
;
_chemical_formula_sum "Si O2"
_cell_formula_units_Z 60
_cell_length_a 25.169179
_cell_length_b 6.866914
_cell_length_c 18.851199
_cell_angle_alpha 90.000000
_cell_angle_beta 90.000000
_cell_angle_gamma 90.000000
_cell_volume 3258.139206
_symmetry_space_group_name_H-M "P C C N"
_symmetry_group_IT_number 56
_symmetry_cell_setting 'orthorhombic'
loop_
_space_group_symop_operation_xyz
x,y,z
1/2-x,1/2-y,z
1/2+x,-y,1/2-z
-x,1/2+y,1/2-z
-x,-y,-z
1/2+x,1/2+y,-z
1/2-x,y,1/2+z
x,1/2-y,1/2+z
loop_
_atom_site_type_symbol
_atom_site_label
_atom_site_fract_x
_atom_site_fract_y
_atom_site_fract_z
Si Si1 0.107470 0.824243 0.847595
Si Si2 0.990252 0.784814 0.528199
Si Si3 0.917254 0.522742 0.239396
Si Si4 0.750000 0.750000 0.332461
Si Si5 0.979627 0.632375 0.683546
Si Si6 0.663230 0.451885 0.864932
Si Si7 0.092127 0.971140 0.996164
Si Si8 0.800044 0.122476 0.265973
O O1 0.098650 0.595219 0.831696
O O2 0.151571 0.879727 0.789180
O O3 0.051509 0.934752 0.834599
O O4 0.122644 0.900264 0.925618
O O5 0.993134 0.753144 0.612731
O O6 0.933636 0.687735 0.507146
O O7 0.039306 0.660963 0.498021
O O8 0.000000 0.000000 0.500000
O O9 0.937730 0.737388 0.225389
O O10 0.870723 0.520954 0.296734
O O11 0.967083 0.410069 0.274109
O O12 0.790145 0.609928 0.375153
O O13 0.718080 0.594050 0.285069
O O14 0.626593 0.442485 0.933762
O O15 0.683886 0.241738 0.837547
O O16 0.750000 0.250000 0.237447
#
# Coordination Sequence:
#
# PCOD9431038 Si02
#       8
#     8   8   8   4   8   8   8   8
#     4  10  21  37  54  82 115 149 184 231 278 334
#     4  10  21  35  51  77 118 160 187 220 278 338
#     4  11  20  33  53  82 114 148 189 231 275 327
#     4  10  20  40  62  82 104 144 190 244 290 330
#     4  11  20  31  52  81 112 150 191 224 267 334
#     4  10  21  37  58  83 112 146 190 238 286 337
#     4  10  21  37  54  80 119 150 188 231 280 340
#     4   9  20  39  61  83 108 140 190 239 289 337
#
# _framework density 18.415420000000001
#
# number of rings (size 3 to 8) (size 9 to 14) (size 15 to 20)
#    0.000    1.867    2.667    1.600    0.000    2.133 
#    0.000    2.667    0.000    0.000    0.000    0.000 
#    0.000    0.000    0.000    0.000    0.000    0.000 
#
# Total GULP energy -334504.631506 kJ/mol
# GULP energy per Si atom -5575.077192 kJ/mol
# Density = 1.837351 g / cm^3
# Si number density = 18.415420 Si / 1000 Ang^3
#
#
#
# Elastic Constant Matrix: (Units=GPa)
#
#
# Indices 1 2 3 4 5 6 
#
# 1 58.6398 21.6594 24.1144 0.0000 0.0000 0.0000
# 2 21.6594 72.3199 26.4302 0.0000 0.0000 0.0000
# 3 24.1144 26.4302 82.3763 0.0000 0.0000 0.0000
# 4 0.0000 0.0000 0.0000 14.1198 0.0000 0.0000
# 5 0.0000 0.0000 0.0000 0.0000 20.8607 0.0000
# 6 0.0000 0.0000 0.0000 0.0000 0.0000 28.0954
#
#
#
# Elastic Compliance Matrix: (Units=1/GPa)
#
#
# Indices 1 2 3 4 5 6 
#
# 1 0.020600 -0.004492 -0.004589 0.000000 0.000000 0.000000
# 2 -0.004492 0.016644 -0.004025 0.000000 0.000000 0.000000
# 3 -0.004589 -0.004025 0.014774 0.000000 0.000000 0.000000
# 4 0.000000 0.000000 0.000000 0.070822 0.000000 0.000000
# 5 0.000000 0.000000 0.000000 0.000000 0.047937 0.000000
# 6 0.000000 0.000000 0.000000 0.000000 0.000000 0.035593
#
#
# Mechanical properties :
#
#
# Convention : Reuss Voigt Hill
#
# Bulk Modulus (GPa) = 38.75210 39.74933 39.25071
# Shear Modulus (GPa) = 20.73100 22.02399 21.37750
#
# Velocity S-wave (km/s) = 3.35885 3.46201 3.41082
# Velocity P-wave (km/s) = 6.01094 6.13289 6.07222
#
# Compressibility (1/GPa) = 0.02580506
#
# Stress axis : x y z
#
# Youngs Moduli (GPa) = 48.54444 60.08206 67.68578
#
# Poissons Ratio (x) = 0.26991 0.31060
# Poissons Ratio (y) = 0.21808 0.27244
# Poissons Ratio (z) = 0.22276 0.24183
#
# Static dielectric constant tensor:
#      x y z
#    x 1.663280 0.000000 0.000000 
#    y 0.000000 1.655400 0.000000 
#    z 0.000000 0.000000 1.644230 
# 
# From -- ./inp_files/14099.got.cif
#   From: 2010.05.17/outbox.cif.g08.bks.cpg/sg56_8_cif.got.tgz:14099.got - 2010.06.03 13:42:01.
