data_PCOD9431716
_publ_section_title
;
Structure prediction by ZEFSAII (Michael W. Deem and Ramdas Pophale) SiO2 
 PCOD9431716
Probable space group: P C C N
;
_chemical_formula_sum "Si O2"
_cell_formula_units_Z 56
_cell_length_a 9.681241
_cell_length_b 13.705050
_cell_length_c 20.872589
_cell_angle_alpha 90.000000
_cell_angle_beta 90.000000
_cell_angle_gamma 90.000000
_cell_volume 2769.414599
_symmetry_space_group_name_H-M "P C C N"
_symmetry_group_IT_number 56
_symmetry_cell_setting 'orthorhombic'
loop_
_space_group_symop_operation_xyz
x,y,z
1/2-x,1/2-y,z
1/2+x,-y,1/2-z
-x,1/2+y,1/2-z
-x,-y,-z
1/2+x,1/2+y,-z
1/2-x,y,1/2+z
x,1/2-y,1/2+z
loop_
_atom_site_type_symbol
_atom_site_label
_atom_site_fract_x
_atom_site_fract_y
_atom_site_fract_z
Si Si1 0.411941 0.747379 0.308944
Si Si2 0.252288 0.362544 0.859924
Si Si3 0.551847 0.597910 0.533839
Si Si4 0.941323 0.117554 0.812994
Si Si5 0.324705 0.937659 0.128293
Si Si6 0.967251 0.580715 0.244083
Si Si7 0.361954 0.165173 0.098068
O O1 0.250000 0.750000 0.325437
O O2 0.427642 0.706355 0.236465
O O3 0.480168 0.853727 0.302680
O O4 0.505131 0.684072 0.356886
O O5 0.250000 0.250000 0.880055
O O6 0.178769 0.420180 0.917524
O O7 0.407694 0.389038 0.843080
O O8 0.157670 0.373222 0.796640
O O9 0.500000 0.500000 0.500000
O O10 0.423456 0.621566 0.579839
O O11 0.593794 0.669243 0.476598
O O12 0.821538 0.113855 0.864957
O O13 0.918155 0.022465 0.769627
O O14 0.405056 0.934070 0.195851
O O15 0.312082 0.053122 0.110288
O O16 0.250000 0.250000 0.111740
#
# Coordination Sequence:
#
# PCOD9431716 Si02
#       7
#     8   8   8   8   8   8   8
#     4  12  25  38  62  97 132 164 208 261 333 392
#     4  11  23  39  66  93 125 172 221 263 319 394
#     4   9  22  44  66  87 123 174 220 266 327 376
#     4  12  23  38  63 100 131 158 213 268 321 390
#     4  10  21  41  64  91 127 173 204 264 325 380
#     4  11  22  38  59  95 134 166 204 258 328 388
#     4  11  23  43  65  90 126 168 220 266 314 391
#
# _framework density 20.220880999999999
#
# number of rings (size 3 to 8) (size 9 to 14) (size 15 to 20)
#    0.000    1.143    4.286    2.143    2.000    0.000 
#    0.000    5.714    0.000    0.000    0.000    0.000 
#    0.000    0.000    0.000    0.000    0.000    0.000 
#
# Total GULP energy -312808.331424 kJ/mol
# GULP energy per Si atom -5585.863061 kJ/mol
# Density = 2.017486 g / cm^3
# Si number density = 20.220881 Si / 1000 Ang^3
#
#
#
# Elastic Constant Matrix: (Units=GPa)
#
#
# Indices 1 2 3 4 5 6 
#
# 1 168.9750 5.7803 47.5566 0.0000 0.0000 0.0000
# 2 5.7803 40.3516 -4.8366 0.0000 0.0000 0.0000
# 3 47.5566 -4.8366 69.3009 0.0000 0.0000 0.0000
# 4 0.0000 0.0000 0.0000 33.7890 0.0000 0.0000
# 5 0.0000 0.0000 0.0000 0.0000 13.9592 0.0000
# 6 0.0000 0.0000 0.0000 0.0000 0.0000 24.1807
#
#
#
# Elastic Compliance Matrix: (Units=1/GPa)
#
#
# Indices 1 2 3 4 5 6 
#
# 1 0.007448 -0.001694 -0.005229 0.000000 0.000000 0.000000
# 2 -0.001694 0.025376 0.002933 0.000000 0.000000 0.000000
# 3 -0.005229 0.002933 0.018223 0.000000 0.000000 0.000000
# 4 0.000000 0.000000 0.000000 0.029595 0.000000 0.000000
# 5 0.000000 0.000000 0.000000 0.000000 0.071637 0.000000
# 6 0.000000 0.000000 0.000000 0.000000 0.000000 0.041355
#
#
# Mechanical properties :
#
#
# Convention : Reuss Voigt Hill
#
# Bulk Modulus (GPa) = 23.21903 41.73645 32.47774
# Shear Modulus (GPa) = 23.15139 29.72760 26.43950
#
# Velocity S-wave (km/s) = 3.38734 3.83840 3.61991
# Velocity P-wave (km/s) = 5.17749 6.35056 5.79379
#
# Compressibility (1/GPa) = 0.04306811
#
# Stress axis : x y z
#
# Youngs Moduli (GPa) = 134.27080 39.40677 54.87612
#
# Poissons Ratio (x) = 0.06674 0.28695
# Poissons Ratio (y) = 0.22740 -0.16097
# Poissons Ratio (z) = 0.70210 -0.11559
#
# Static dielectric constant tensor:
#      x y z
#    x 1.677870 0.000000 0.000000 
#    y 0.000000 1.730690 0.000000 
#    z 0.000000 0.000000 1.731660 
# 
# From -- ./inp_files/18246.got.cif
#   From: 2010.05.17/outbox.cif.g08.bks.cpg/sg56_10_cif.got.tgz:18246.got - 2010.06.03 13:42:01.
