data_PCOD9431922
_publ_section_title
;
Structure prediction by ZEFSAII (Michael W. Deem and Ramdas Pophale) SiO2 
 PCOD9431922
Probable space group: P C C N
;
_chemical_formula_sum "Si O2"
_cell_formula_units_Z 64
_cell_length_a 14.233220
_cell_length_b 24.370176
_cell_length_c 8.521240
_cell_angle_alpha 90.000000
_cell_angle_beta 90.000000
_cell_angle_gamma 90.000000
_cell_volume 2955.729085
_symmetry_space_group_name_H-M "P C C N"
_symmetry_group_IT_number 56
_symmetry_cell_setting 'orthorhombic'
loop_
_space_group_symop_operation_xyz
x,y,z
1/2-x,1/2-y,z
1/2+x,-y,1/2-z
-x,1/2+y,1/2-z
-x,-y,-z
1/2+x,1/2+y,-z
1/2-x,y,1/2+z
x,1/2-y,1/2+z
loop_
_atom_site_type_symbol
_atom_site_label
_atom_site_fract_x
_atom_site_fract_y
_atom_site_fract_z
Si Si1 0.643924 0.619560 0.314116
Si Si2 0.136332 0.492022 0.588386
Si Si3 0.036678 0.330253 0.906165
Si Si4 0.849090 0.721147 0.614062
Si Si5 0.287620 0.557277 0.794812
Si Si6 0.135421 0.612839 0.983714
Si Si7 0.851105 0.869561 0.862611
Si Si8 0.003699 0.030822 0.667189
O O1 0.610840 0.634775 0.489309
O O2 0.608234 0.673612 0.223823
O O3 0.753332 0.621021 0.272521
O O4 0.601865 0.559262 0.295094
O O5 0.214008 0.513844 0.716475
O O6 0.155848 0.528792 0.436035
O O7 0.141283 0.427451 0.549037
O O8 0.040216 0.499962 0.685511
O O9 0.075916 0.269052 0.906127
O O10 0.056176 0.357318 0.736978
O O11 0.929659 0.336142 0.964096
O O12 0.750000 0.750000 0.660546
O O13 0.831422 0.685701 0.458717
O O14 0.345574 0.579872 0.646189
O O15 0.231025 0.607277 0.882670
O O16 0.064280 0.581880 0.867622
O O17 0.000000 0.000000 0.500000
#
# Coordination Sequence:
#
# PCOD9431922 Si02
#       8
#     8   8   8   8   8   8   8   8
#     4  11  23  38  61  87 127 170 213 251 313 383
#     4  10  22  36  58  91 123 165 210 258 319 378
#     4  11  23  40  61  89 127 169 214 261 312 365
#     4  12  24  40  60  90 126 170 216 261 304 369
#     4   9  20  38  63  89 127 162 206 262 322 379
#     4   9  20  39  63  93 122 166 207 261 322 379
#     4  12  24  37  60  92 127 170 215 252 307 380
#     4  10  22  38  59  88 131 169 209 261 316 381
#
# _framework density 21.652864999999998
#
# number of rings (size 3 to 8) (size 9 to 14) (size 15 to 20)
#    0.000    1.500    2.500    2.250    8.750    1.000 
#    0.000    1.875    0.000    0.000    0.000   49.875 
#    0.000    0.000    0.000    0.000    0.000    0.000 
#
# Total GULP energy -356750.599773 kJ/mol
# GULP energy per Si atom -5574.228121 kJ/mol
# Density = 2.160358 g / cm^3
# Si number density = 21.652865 Si / 1000 Ang^3
#
#
#
# Elastic Constant Matrix: (Units=GPa)
#
#
# Indices 1 2 3 4 5 6 
#
# 1 79.1444 43.0318 24.4220 0.0000 0.0000 0.0000
# 2 43.0318 108.3011 17.5251 0.0000 0.0000 0.0000
# 3 24.4220 17.5251 89.0078 0.0000 0.0000 0.0000
# 4 0.0000 0.0000 0.0000 21.2797 0.0000 0.0000
# 5 0.0000 0.0000 0.0000 0.0000 33.9655 0.0000
# 6 0.0000 0.0000 0.0000 0.0000 0.0000 19.4639
#
#
#
# Elastic Compliance Matrix: (Units=1/GPa)
#
#
# Indices 1 2 3 4 5 6 
#
# 1 0.017091 -0.006231 -0.003463 0.000000 0.000000 0.000000
# 2 -0.006231 0.011809 -0.000616 0.000000 0.000000 0.000000
# 3 -0.003463 -0.000616 0.012306 0.000000 0.000000 0.000000
# 4 0.000000 0.000000 0.000000 0.046993 0.000000 0.000000
# 5 0.000000 0.000000 0.000000 0.000000 0.029442 0.000000
# 6 0.000000 0.000000 0.000000 0.000000 0.000000 0.051377
#
#
# Mechanical properties :
#
#
# Convention : Reuss Voigt Hill
#
# Bulk Modulus (GPa) = 48.57067 49.60125 49.08596
# Shear Modulus (GPa) = 25.44543 27.70678 26.57611
#
# Velocity S-wave (km/s) = 3.43177 3.58102 3.50719
# Velocity P-wave (km/s) = 6.17923 6.32894 6.25453
#
# Compressibility (1/GPa) = 0.02058856
#
# Stress axis : x y z
#
# Youngs Moduli (GPa) = 58.50922 84.68289 81.25940
#
# Poissons Ratio (x) = 0.52763 0.28138
# Poissons Ratio (y) = 0.36455 0.05002
# Poissons Ratio (z) = 0.20260 0.05212
#
# Static dielectric constant tensor:
#      x y z
#    x 1.894890 0.000000 0.000000 
#    y 0.000000 1.795260 0.000000 
#    z 0.000000 0.000000 1.925620 
# 
# From -- ./inp_files/3700.got.cif
#   From: 2010.05.17/outbox.cif.g08.bks.cpg/sg56_2_cif.got.tgz:3700.got - 2010.06.03 13:42:01.
