data_PCOD9431351
_publ_section_title
;
Structure prediction by ZEFSAII (Michael W. Deem and Ramdas Pophale) SiO2 
 PCOD9431351
Probable space group: P C C N
;
_chemical_formula_sum "Si O2"
_cell_formula_units_Z 48
_cell_length_a 12.922988
_cell_length_b 13.705978
_cell_length_c 14.689138
_cell_angle_alpha 90.000000
_cell_angle_beta 90.000000
_cell_angle_gamma 90.000000
_cell_volume 2601.772280
_symmetry_space_group_name_H-M "P C C N"
_symmetry_group_IT_number 56
_symmetry_cell_setting 'orthorhombic'
loop_
_space_group_symop_operation_xyz
x,y,z
1/2-x,1/2-y,z
1/2+x,-y,1/2-z
-x,1/2+y,1/2-z
-x,-y,-z
1/2+x,1/2+y,-z
1/2-x,y,1/2+z
x,1/2-y,1/2+z
loop_
_atom_site_type_symbol
_atom_site_label
_atom_site_fract_x
_atom_site_fract_y
_atom_site_fract_z
Si Si1 0.483247 0.133824 0.267593
Si Si2 0.750000 0.865916 0.462329
Si Si3 0.750000 0.864940 0.180578
Si Si4 0.983247 0.866176 0.732407
Si Si5 0.546320 0.523386 0.401644
Si Si6 0.953680 0.523386 0.401644
O O1 0.362075 0.101573 0.282916
O O2 0.489817 0.250000 0.276064
O O3 0.514057 0.095788 0.167583
O O4 0.548290 0.076934 0.344111
O O5 0.750000 0.750000 0.441544
O O6 0.750000 0.876960 0.571626
O O7 0.848454 0.919870 0.421766
O O8 0.651546 0.919870 0.421766
O O9 0.750000 0.750000 0.201085
O O10 0.637925 0.898427 0.217085
O O11 0.014057 0.904212 0.832417
O O12 0.048290 0.923066 0.655889
O O13 0.500000 0.500000 0.500000
O O14 0.000000 0.500000 0.500000
#
# Coordination Sequence:
#
# PCOD9431351 Si02
#       6
#     8   8   8   8   8   8
#     4  10  21  37  58  87 124 159 195 242 294 347
#     4  11  21  37  62  88 116 151 197 248 297 348
#     4   9  17  33  59  88 116 151 190 232 284 344
#     4  10  21  37  58  87 124 159 195 242 294 347
#     4  11  22  36  59  90 119 152 200 246 292 349
#     4  11  22  36  59  90 119 152 200 246 292 349
#
# _framework density 18.448964
#
# number of rings (size 3 to 8) (size 9 to 14) (size 15 to 20)
#    0.000    1.667    3.333    2.000    0.000    2.667 
#    0.000    0.833    0.000    0.000    0.000    3.500 
#    0.000    0.000    0.000    0.000    0.000    0.000 
#
# Total GULP energy -267483.572946 kJ/mol
# GULP energy per Si atom -5572.574436 kJ/mol
# Density = 1.840697 g / cm^3
# Si number density = 18.448964 Si / 1000 Ang^3
#
#
#
# Elastic Constant Matrix: (Units=GPa)
#
#
# Indices 1 2 3 4 5 6 
#
# 1 58.1740 53.2875 46.8144 0.0000 0.0000 0.0000
# 2 53.2875 150.6771 70.8885 0.0000 0.0000 0.0000
# 3 46.8144 70.8885 163.7342 0.0000 0.0000 0.0000
# 4 0.0000 0.0000 0.0000 28.9936 0.0000 0.0000
# 5 0.0000 0.0000 0.0000 0.0000 -26.8211 0.0000
# 6 0.0000 0.0000 0.0000 0.0000 0.0000 33.9795
#
#
#
# Elastic Compliance Matrix: (Units=1/GPa)
#
#
# Indices 1 2 3 4 5 6 
#
# 1 0.028009 -0.007708 -0.004671 0.000000 0.000000 0.000000
# 2 -0.007708 0.010455 -0.002323 0.000000 0.000000 0.000000
# 3 -0.004671 -0.002323 0.008449 0.000000 0.000000 0.000000
# 4 0.000000 0.000000 0.000000 0.034490 0.000000 0.000000
# 5 0.000000 0.000000 0.000000 0.000000 -0.037284 0.000000
# 6 0.000000 0.000000 0.000000 0.000000 0.000000 0.029430
#
#
# Mechanical properties :
#
#
# Convention : Reuss Voigt Hill
#
# Bulk Modulus (GPa) = 57.11172 79.39622 68.25397
# Shear Modulus (GPa) = 45.96009 20.67005 33.31507
#
# Velocity S-wave (km/s) = 4.99661 3.35086 4.25408
# Velocity P-wave (km/s) = 8.01947 7.62234 7.82342
#
# Compressibility (1/GPa) = 0.01750954
#
# Stress axis : x y z
#
# Youngs Moduli (GPa) = 35.70230 95.64359 118.36130
#
# Poissons Ratio (x) = 0.73722 0.55289
# Poissons Ratio (y) = 0.27519 0.27494
# Poissons Ratio (z) = 0.16677 0.22217
#
# Static dielectric constant tensor:
#      x y z
#    x 1.691890 0.000000 0.000000 
#    y 0.000000 1.632660 0.000000 
#    z 0.000000 0.000000 1.695820 
# 
# From -- ./inp_files/11583.got.cif
#   From: 2010.05.17/outbox.cif.g08.bks.cpg/sg56_6_cif.got.tgz:11583.got - 2010.06.03 13:42:01.
