data_PCOD9431960
_publ_section_title
;
Structure prediction by ZEFSAII (Michael W. Deem and Ramdas Pophale) SiO2 
 PCOD9431960
Probable space group: P C C N
;
_chemical_formula_sum "Si O2"
_cell_formula_units_Z 40
_cell_length_a 12.430425
_cell_length_b 12.105753
_cell_length_c 9.098248
_cell_angle_alpha 90.000000
_cell_angle_beta 90.000000
_cell_angle_gamma 90.000000
_cell_volume 1369.101218
_symmetry_space_group_name_H-M "P C C N"
_symmetry_group_IT_number 56
_symmetry_cell_setting 'orthorhombic'
loop_
_space_group_symop_operation_xyz
x,y,z
1/2-x,1/2-y,z
1/2+x,-y,1/2-z
-x,1/2+y,1/2-z
-x,-y,-z
1/2+x,1/2+y,-z
1/2-x,y,1/2+z
x,1/2-y,1/2+z
loop_
_atom_site_type_symbol
_atom_site_label
_atom_site_fract_x
_atom_site_fract_y
_atom_site_fract_z
Si Si1 0.101363 0.805484 0.152699
Si Si2 0.750000 0.750000 0.177486
Si Si3 0.649886 0.602849 0.431137
Si Si4 0.500000 0.000000 0.500000
Si Si5 0.758755 0.100807 0.091110
Si Si6 0.032670 0.558581 0.228456
O O1 0.177235 0.851260 0.286625
O O2 0.007875 0.883714 0.092864
O O3 0.177603 0.815578 0.012177
O O4 0.133260 0.959207 0.843681
O O5 0.695764 0.664610 0.290152
O O6 0.831938 0.684164 0.068869
O O7 0.705929 0.490048 0.486516
O O8 0.438850 0.680685 0.673152
O O9 0.440522 0.060331 0.648782
O O10 0.962764 0.952802 0.377928
#
# Coordination Sequence:
#
# PCOD9431960 Si02
#       6
#     8   4   8   4   8   8
#     4  11  25  43  80 112 154 195 254 334 394 456
#     4  10  22  38  60 102 160 194 232 310 410 448
#     4  11  21  39  65 108 147 190 248 317 380 459
#     4  10  28  52  64 112 164 208 244 300 408 506
#     4  11  22  39  77 120 143 178 261 341 382 445
#     4  11  24  43  76 109 148 200 255 329 384 468
#
# _framework density 29.216248
#
# number of rings (size 3 to 8) (size 9 to 14) (size 15 to 20)
#    0.000    1.200    4.000    0.600    8.400    0.000 
#    3.600    1.000    0.000    0.000    0.000    0.000 
#    0.000    0.000    0.000    0.000    0.000    0.000 
#
# Total GULP energy -222748.487966 kJ/mol
# GULP energy per Si atom -5568.712199 kJ/mol
# Density = 2.914975 g / cm^3
# Si number density = 29.216248 Si / 1000 Ang^3
#
#
#
# Elastic Constant Matrix: (Units=GPa)
#
#
# Indices 1 2 3 4 5 6 
#
# 1 83.5496 18.6508 50.0914 0.0000 0.0000 0.0000
# 2 18.6508 121.5287 73.9638 0.0000 0.0000 0.0000
# 3 50.0914 73.9638 221.8274 0.0000 0.0000 0.0000
# 4 0.0000 0.0000 0.0000 62.7456 0.0000 0.0000
# 5 0.0000 0.0000 0.0000 0.0000 23.3823 0.0000
# 6 0.0000 0.0000 0.0000 0.0000 0.0000 21.0783
#
#
#
# Elastic Compliance Matrix: (Units=1/GPa)
#
#
# Indices 1 2 3 4 5 6 
#
# 1 0.013851 -0.000279 -0.003035 0.000000 0.000000 0.000000
# 2 -0.000279 0.010329 -0.003381 0.000000 0.000000 0.000000
# 3 -0.003035 -0.003381 0.006321 0.000000 0.000000 0.000000
# 4 0.000000 0.000000 0.000000 0.015937 0.000000 0.000000
# 5 0.000000 0.000000 0.000000 0.000000 0.042767 0.000000
# 6 0.000000 0.000000 0.000000 0.000000 0.000000 0.047442
#
#
# Mechanical properties :
#
#
# Convention : Reuss Voigt Hill
#
# Bulk Modulus (GPa) = 58.44078 79.14641 68.79360
# Shear Modulus (GPa) = 32.10483 40.38791 36.24637
#
# Velocity S-wave (km/s) = 3.31852 3.72207 3.52607
# Velocity P-wave (km/s) = 5.89319 6.75429 6.33838
#
# Compressibility (1/GPa) = 0.01711134
#
# Stress axis : x y z
#
# Youngs Moduli (GPa) = 72.19916 96.81445 158.21187
#
# Poissons Ratio (x) = 0.02698 0.48013
# Poissons Ratio (y) = 0.02012 0.53493
# Poissons Ratio (z) = 0.21910 0.32734
#
# Static dielectric constant tensor:
#      x y z
#    x 2.113620 0.000000 0.000000 
#    y 0.000000 2.454170 0.000000 
#    z 0.000000 0.000000 2.126700 
# 
# From -- ./inp_files/3252.got.cif
#   From: 2010.05.17/outbox.cif.g08.bks.cpg/sg56_2_cif.got.tgz:3252.got - 2010.06.03 13:42:01.
