data_PCOD9431556
_publ_section_title
;
Structure prediction by ZEFSAII (Michael W. Deem and Ramdas Pophale) SiO2 
 PCOD9431556
Probable space group: P C C N
;
_chemical_formula_sum "Si O2"
_cell_formula_units_Z 36
_cell_length_a 5.603151
_cell_length_b 25.460261
_cell_length_c 10.698001
_cell_angle_alpha 90.000000
_cell_angle_beta 90.000000
_cell_angle_gamma 90.000000
_cell_volume 1526.152077
_symmetry_space_group_name_H-M "P C C N"
_symmetry_group_IT_number 56
_symmetry_cell_setting 'orthorhombic'
loop_
_space_group_symop_operation_xyz
x,y,z
1/2-x,1/2-y,z
1/2+x,-y,1/2-z
-x,1/2+y,1/2-z
-x,-y,-z
1/2+x,1/2+y,-z
1/2-x,y,1/2+z
x,1/2-y,1/2+z
loop_
_atom_site_type_symbol
_atom_site_label
_atom_site_fract_x
_atom_site_fract_y
_atom_site_fract_z
Si Si1 0.750000 0.250000 0.498860
Si Si2 0.378231 0.468023 0.735354
Si Si3 0.131298 0.307570 0.870026
Si Si4 0.599697 0.940663 0.497033
Si Si5 0.061247 0.161023 0.100919
O O1 0.636337 0.293480 0.408837
O O2 0.579921 0.215490 0.585233
O O3 0.637644 0.496485 0.738124
O O4 0.324898 0.444336 0.598070
O O5 0.375283 0.430152 0.855837
O O6 0.250000 0.250000 0.855008
O O7 0.242282 0.334215 0.992177
O O8 0.150300 0.337966 0.741590
O O9 0.441588 0.894861 0.432636
O O10 0.500000 0.000000 0.500000
#
# Coordination Sequence:
#
# PCOD9431556 Si02
#       5
#     4   8   8   8   8
#     4  10  22  40  64  98 126 164 224 274 340 400
#     4  10  21  42  67  93 138 180 226 279 334 407
#     4  10  21  39  66  90 128 165 216 277 327 400
#     4  10  22  42  63  97 133 176 222 275 336 408
#     4  11  22  42  65  96 129 174 222 272 343 395
#
# _framework density 23.588736999999998
#
# number of rings (size 3 to 8) (size 9 to 14) (size 15 to 20)
#    0.000    1.778    0.000    4.667    0.000    1.778 
#   32.000    0.000    0.000    0.000    0.000    0.000 
#    0.000    0.000    0.000    0.000    0.000    0.000 
#
# Total GULP energy -200616.699239 kJ/mol
# GULP energy per Si atom -5572.686090 kJ/mol
# Density = 2.353505 g / cm^3
# Si number density = 23.588737 Si / 1000 Ang^3
#
#
#
# Elastic Constant Matrix: (Units=GPa)
#
#
# Indices 1 2 3 4 5 6 
#
# 1 56.9079 14.9011 24.9883 0.0000 0.0000 0.0000
# 2 14.9011 112.7763 44.6947 0.0000 0.0000 0.0000
# 3 24.9883 44.6947 150.5317 0.0000 0.0000 0.0000
# 4 0.0000 0.0000 0.0000 45.4907 0.0000 0.0000
# 5 0.0000 0.0000 0.0000 0.0000 9.1234 0.0000
# 6 0.0000 0.0000 0.0000 0.0000 0.0000 20.0898
#
#
#
# Elastic Compliance Matrix: (Units=1/GPa)
#
#
# Indices 1 2 3 4 5 6 
#
# 1 0.019158 -0.001440 -0.002753 0.000000 0.000000 0.000000
# 2 -0.001440 0.010158 -0.002777 0.000000 0.000000 0.000000
# 3 -0.002753 -0.002777 0.007925 0.000000 0.000000 0.000000
# 4 0.000000 0.000000 0.000000 0.021983 0.000000 0.000000
# 5 0.000000 0.000000 0.000000 0.000000 0.109608 0.000000
# 6 0.000000 0.000000 0.000000 0.000000 0.000000 0.049776
#
#
# Mechanical properties :
#
#
# Convention : Reuss Voigt Hill
#
# Bulk Modulus (GPa) = 42.91714 54.37602 48.64658
# Shear Modulus (GPa) = 20.80612 30.64959 25.72785
#
# Velocity S-wave (km/s) = 2.97313 3.60853 3.30613
# Velocity P-wave (km/s) = 5.47900 6.36111 5.93646
#
# Compressibility (1/GPa) = 0.02330071
#
# Stress axis : x y z
#
# Youngs Moduli (GPa) = 52.19732 98.44492 126.19036
#
# Poissons Ratio (x) = 0.14181 0.34734
# Poissons Ratio (y) = 0.07519 0.35042
# Poissons Ratio (z) = 0.14368 0.27337
#
# Static dielectric constant tensor:
#      x y z
#    x 2.112500 0.000000 0.000000 
#    y 0.000000 2.026880 0.000000 
#    z 0.000000 0.000000 1.892820 
# 
# From -- ./inp_files/5545.got.cif
#   From: 2010.05.17/outbox.cif.g08.bks.cpg/sg56_3_cif.got.tgz:5545.got - 2010.06.03 13:42:01.
