data_PCOD9431855
_publ_section_title
;
Structure prediction by ZEFSAII (Michael W. Deem and Ramdas Pophale) SiO2 
 PCOD9431855
Probable space group: P C C N
;
_chemical_formula_sum "Si O2"
_cell_formula_units_Z 40
_cell_length_a 8.989897
_cell_length_b 10.728000
_cell_length_c 18.707693
_cell_angle_alpha 90.000000
_cell_angle_beta 90.000000
_cell_angle_gamma 90.000000
_cell_volume 1804.237542
_symmetry_space_group_name_H-M "P C C N"
_symmetry_group_IT_number 56
_symmetry_cell_setting 'orthorhombic'
loop_
_space_group_symop_operation_xyz
x,y,z
1/2-x,1/2-y,z
1/2+x,-y,1/2-z
-x,1/2+y,1/2-z
-x,-y,-z
1/2+x,1/2+y,-z
1/2-x,y,1/2+z
x,1/2-y,1/2+z
loop_
_atom_site_type_symbol
_atom_site_label
_atom_site_fract_x
_atom_site_fract_y
_atom_site_fract_z
Si Si1 0.134359 0.353216 0.055943
Si Si2 0.394868 0.969225 0.567414
Si Si3 0.111937 0.467452 0.317497
Si Si4 0.464704 0.268320 0.399474
Si Si5 0.555110 0.031692 0.171530
O O1 0.250000 0.250000 0.084248
O O2 0.233399 0.477759 0.053627
O O3 0.996370 0.380220 0.106890
O O4 0.090837 0.313084 0.976551
O O5 0.481334 0.030727 0.635117
O O6 0.396141 0.822809 0.584485
O O7 0.500000 0.000000 0.500000
O O8 0.268511 0.537157 0.314225
O O9 0.135936 0.338980 0.361708
O O10 0.042582 0.438569 0.240904
O O11 0.481964 0.388679 0.350607
#
# Coordination Sequence:
#
# PCOD9431855 Si02
#       5
#     8   8   8   8   8
#     4  12  23  43  73 104 143 191 238 292 360 426
#     4  10  21  43  71 103 141 186 232 293 355 418
#     4  10  25  45  68 105 146 184 237 297 351 425
#     4  10  24  46  75 100 147 184 237 300 357 428
#     4  12  24  45  75 103 142 195 238 289 368 427
#
# _framework density 22.170027999999999
#
# number of rings (size 3 to 8) (size 9 to 14) (size 15 to 20)
#    1.200    0.000    2.000    4.800    0.000    4.000 
#    0.000    3.000    0.000    0.000    0.000    0.000 
#    0.000    0.000    0.000    0.000    0.000    0.000 
#
# Total GULP energy -223266.974863 kJ/mol
# GULP energy per Si atom -5581.674372 kJ/mol
# Density = 2.211957 g / cm^3
# Si number density = 22.170028 Si / 1000 Ang^3
#
#
#
# Elastic Constant Matrix: (Units=GPa)
#
#
# Indices 1 2 3 4 5 6 
#
# 1 114.9767 21.7293 57.6733 0.0000 0.0000 0.0000
# 2 21.7293 38.9783 3.8653 0.0000 0.0000 0.0000
# 3 57.6733 3.8653 133.0464 0.0000 0.0000 0.0000
# 4 0.0000 0.0000 0.0000 21.4025 0.0000 0.0000
# 5 0.0000 0.0000 0.0000 0.0000 14.5920 0.0000
# 6 0.0000 0.0000 0.0000 0.0000 0.0000 39.7739
#
#
#
# Elastic Compliance Matrix: (Units=1/GPa)
#
#
# Indices 1 2 3 4 5 6 
#
# 1 0.012558 -0.006480 -0.005256 0.000000 0.000000 0.000000
# 2 -0.006480 0.029073 0.001964 0.000000 0.000000 0.000000
# 3 -0.005256 0.001964 0.009737 0.000000 0.000000 0.000000
# 4 0.000000 0.000000 0.000000 0.046724 0.000000 0.000000
# 5 0.000000 0.000000 0.000000 0.000000 0.068531 0.000000
# 6 0.000000 0.000000 0.000000 0.000000 0.000000 0.025142
#
#
# Mechanical properties :
#
#
# Convention : Reuss Voigt Hill
#
# Bulk Modulus (GPa) = 31.42060 50.39301 40.90680
# Shear Modulus (GPa) = 22.53111 28.73591 25.63351
#
# Velocity S-wave (km/s) = 3.19138 3.60413 3.40402
# Velocity P-wave (km/s) = 5.27098 6.33240 5.82591
#
# Compressibility (1/GPa) = 0.03182625
#
# Stress axis : x y z
#
# Youngs Moduli (GPa) = 79.62921 34.39648 102.69804
#
# Poissons Ratio (x) = 0.22288 0.53973
# Poissons Ratio (y) = 0.51597 -0.20172
# Poissons Ratio (z) = 0.41849 -0.06756
#
# Static dielectric constant tensor:
#      x y z
#    x 1.883190 0.000000 0.000000 
#    y 0.000000 1.858100 0.000000 
#    z 0.000000 0.000000 1.800680 
# 
# From -- ./inp_files/14474.got.cif
#   From: 2010.05.17/outbox.cif.g08.bks.cpg/sg56_8_cif.got.tgz:14474.got - 2010.06.03 13:42:01.
