data_PCOD9431273
_publ_section_title
;
Structure prediction by ZEFSAII (Michael W. Deem and Ramdas Pophale) SiO2 
 PCOD9431273
Probable space group: P C C N
;
_chemical_formula_sum "Si O2"
_cell_formula_units_Z 64
_cell_length_a 9.199685
_cell_length_b 10.650886
_cell_length_c 28.529533
_cell_angle_alpha 90.000000
_cell_angle_beta 90.000000
_cell_angle_gamma 90.000000
_cell_volume 2795.460476
_symmetry_space_group_name_H-M "P C C N"
_symmetry_group_IT_number 56
_symmetry_cell_setting 'orthorhombic'
loop_
_space_group_symop_operation_xyz
x,y,z
1/2-x,1/2-y,z
1/2+x,-y,1/2-z
-x,1/2+y,1/2-z
-x,-y,-z
1/2+x,1/2+y,-z
1/2-x,y,1/2+z
x,1/2-y,1/2+z
loop_
_atom_site_type_symbol
_atom_site_label
_atom_site_fract_x
_atom_site_fract_y
_atom_site_fract_z
Si Si1 0.600064 0.693795 0.020206
Si Si2 0.236643 0.502997 0.612238
Si Si3 0.037819 0.921517 0.940718
Si Si4 0.781727 0.889276 0.291436
Si Si5 0.302394 0.961472 0.352398
Si Si6 0.113382 0.595162 0.767625
Si Si7 0.958393 0.615108 0.104954
Si Si8 0.037970 0.675180 0.673062
O O1 0.750000 0.750000 0.000603
O O2 0.609440 0.550400 0.039627
O O3 0.565118 0.785403 0.063394
O O4 0.476502 0.683132 0.980468
O O5 0.127043 0.461755 0.572083
O O6 0.243558 0.402328 0.653927
O O7 0.396519 0.536818 0.595454
O O8 0.164180 0.622207 0.639046
O O9 0.108292 0.884331 0.891236
O O10 0.750000 0.750000 0.274694
O O11 0.950414 0.925553 0.286245
O O12 0.678696 0.979494 0.261714
O O13 0.223596 0.889164 0.310486
O O14 0.177996 0.029912 0.382587
O O15 0.412241 0.067412 0.331022
O O16 0.091568 0.695174 0.725914
O O17 0.980785 0.697621 0.151506
#
# Coordination Sequence:
#
# PCOD9431273 Si02
#       8
#     8   8   8   8   8   8   8   8
#     4  11  21  40  70 105 129 180 233 294 373 427
#     4  10  22  40  63  96 139 179 232 286 349 425
#     4  10  23  41  68  95 142 181 230 294 361 435
#     4  11  25  43  66 100 149 197 235 291 357 417
#     4  11  20  38  66  96 144 181 230 292 348 424
#     4  11  23  40  65 103 142 191 248 283 345 429
#     4  12  20  37  72 105 132 178 245 297 352 413
#     4  10  21  35  59  98 140 181 225 292 345 402
#
# _framework density 22.894259999999999
#
# number of rings (size 3 to 8) (size 9 to 14) (size 15 to 20)
#    0.000    1.250    6.250    0.750    1.750    0.500 
#    0.000    1.250    2.750    1.500    0.000    0.000 
#    0.000    0.000    0.000    0.000    0.000    0.000 
#
# Total GULP energy -357904.078178 kJ/mol
# GULP energy per Si atom -5592.251222 kJ/mol
# Density = 2.284215 g / cm^3
# Si number density = 22.894260 Si / 1000 Ang^3
#
#
#
# Elastic Constant Matrix: (Units=GPa)
#
#
# Indices 1 2 3 4 5 6 
#
# 1 119.4053 28.3098 27.9692 0.0000 0.0000 0.0000
# 2 28.3098 54.7321 26.6151 0.0000 0.0000 0.0000
# 3 27.9692 26.6151 115.7695 0.0000 0.0000 0.0000
# 4 0.0000 0.0000 0.0000 8.2176 0.0000 0.0000
# 5 0.0000 0.0000 0.0000 0.0000 43.5871 0.0000
# 6 0.0000 0.0000 0.0000 0.0000 0.0000 14.0945
#
#
#
# Elastic Compliance Matrix: (Units=1/GPa)
#
#
# Indices 1 2 3 4 5 6 
#
# 1 0.009728 -0.004378 -0.001344 0.000000 0.000000 0.000000
# 2 -0.004378 0.022541 -0.004124 0.000000 0.000000 0.000000
# 3 -0.001344 -0.004124 0.009911 0.000000 0.000000 0.000000
# 4 0.000000 0.000000 0.000000 0.121690 0.000000 0.000000
# 5 0.000000 0.000000 0.000000 0.000000 0.022943 0.000000
# 6 0.000000 0.000000 0.000000 0.000000 0.000000 0.070950
#
#
# Mechanical properties :
#
#
# Convention : Reuss Voigt Hill
#
# Bulk Modulus (GPa) = 44.47028 50.63280 47.55154
# Shear Modulus (GPa) = 17.54696 26.98069 22.26382
#
# Velocity S-wave (km/s) = 2.77146 3.43664 3.12182
# Velocity P-wave (km/s) = 5.45048 6.15721 5.81459
#
# Compressibility (1/GPa) = 0.02248693
#
# Stress axis : x y z
#
# Youngs Moduli (GPa) = 102.80058 44.36367 100.90164
#
# Poissons Ratio (x) = 0.19423 0.13557
# Poissons Ratio (y) = 0.45008 0.41616
# Poissons Ratio (z) = 0.13812 0.18297
#
# Static dielectric constant tensor:
#      x y z
#    x 1.905080 0.000000 0.000000 
#    y 0.000000 1.871960 0.000000 
#    z 0.000000 0.000000 1.878620 
# 
# From -- ./inp_files/23393.got.cif
#   From: 2010.05.17/outbox.cif.g08.bks.cpg/sg56_12_cif.got.tgz:23393.got - 2010.06.03 13:42:01.
