data_PCOD9431948
_publ_section_title
;
Structure prediction by ZEFSAII (Michael W. Deem and Ramdas Pophale) SiO2 
 PCOD9431948
Probable space group: P C C N
;
_chemical_formula_sum "Si O2"
_cell_formula_units_Z 32
_cell_length_a 5.400921
_cell_length_b 16.999076
_cell_length_c 14.137041
_cell_angle_alpha 90.000000
_cell_angle_beta 90.000000
_cell_angle_gamma 90.000000
_cell_volume 1297.931157
_symmetry_space_group_name_H-M "P C C N"
_symmetry_group_IT_number 56
_symmetry_cell_setting 'orthorhombic'
loop_
_space_group_symop_operation_xyz
x,y,z
1/2-x,1/2-y,z
1/2+x,-y,1/2-z
-x,1/2+y,1/2-z
-x,-y,-z
1/2+x,1/2+y,-z
1/2-x,y,1/2+z
x,1/2-y,1/2+z
loop_
_atom_site_type_symbol
_atom_site_label
_atom_site_fract_x
_atom_site_fract_y
_atom_site_fract_z
Si Si1 0.003844 0.698100 0.692837
Si Si2 0.048856 0.031304 0.104116
Si Si3 0.340462 0.662966 0.980954
Si Si4 0.550188 0.063013 0.151484
O O1 0.750000 0.750000 0.692973
O O2 0.004988 0.628967 0.769931
O O3 0.250000 0.750000 0.711838
O O4 0.054263 0.663234 0.587165
O O5 0.315536 0.008370 0.137858
O O6 0.806454 0.015781 0.165459
O O7 0.044524 0.126830 0.090314
O O8 0.000000 0.000000 0.000000
O O9 0.250000 0.750000 0.960783
O O10 0.112119 0.606881 0.949202
#
# Coordination Sequence:
#
# PCOD9431948 Si02
#       4
#     8   8   8   8
#     4  11  23  38  59  97 129 154 207 258 317 382
#     4  10  22  40  61  88 121 167 211 253 305 379
#     4   9  23  36  63  90 124 159 202 256 318 367
#     4  10  22  37  64  83 127 158 210 245 321 356
#
# _framework density 24.654620999999999
#
# number of rings (size 3 to 8) (size 9 to 14) (size 15 to 20)
#    1.500    0.500    0.000    3.000   10.500    0.000 
#    0.000    2.500    0.000    0.000    0.000    0.000 
#    0.000    0.000    0.000    0.000    0.000    0.000 
#
# Total GULP energy -178511.309438 kJ/mol
# GULP energy per Si atom -5578.478420 kJ/mol
# Density = 2.459851 g / cm^3
# Si number density = 24.654621 Si / 1000 Ang^3
#
#
#
# Elastic Constant Matrix: (Units=GPa)
#
#
# Indices 1 2 3 4 5 6 
#
# 1 214.5945 34.8921 58.9934 0.0000 0.0000 0.0000
# 2 34.8921 56.2285 34.4605 0.0000 0.0000 0.0000
# 3 58.9934 34.4605 133.9584 0.0000 0.0000 0.0000
# 4 0.0000 0.0000 0.0000 54.6674 0.0000 0.0000
# 5 0.0000 0.0000 0.0000 0.0000-1022.9213 0.0000
# 6 0.0000 0.0000 0.0000 0.0000 0.0000 21.0132
#
#
#
# Elastic Compliance Matrix: (Units=1/GPa)
#
#
# Indices 1 2 3 4 5 6 
#
# 1 0.005543 -0.002307 -0.001847 0.000000 0.000000 0.000000
# 2 -0.002307 0.022074 -0.004662 0.000000 0.000000 0.000000
# 3 -0.001847 -0.004662 0.009478 0.000000 0.000000 0.000000
# 4 0.000000 0.000000 0.000000 0.018292 0.000000 0.000000
# 5 0.000000 0.000000 0.000000 0.000000 -0.000978 0.000000
# 6 0.000000 0.000000 0.000000 0.000000 0.000000 0.047589
#
#
# Mechanical properties :
#
#
# Convention : Reuss Voigt Hill
#
# Bulk Modulus (GPa) = 51.38637 73.49704 62.44170
# Shear Modulus (GPa) = 39.64479 -171.01912 -65.68717
#
# Velocity S-wave (km/s) = 4.01435 -8.33766 -5.16728
# Velocity P-wave (km/s) = 6.50956 7.92549 3.19679
#
# Compressibility (1/GPa) = 0.01946041
#
# Stress axis : x y z
#
# Youngs Moduli (GPa) = 180.40728 45.30264 105.50782
#
# Poissons Ratio (x) = 0.10453 0.19492
# Poissons Ratio (y) = 0.41627 0.49191
# Poissons Ratio (z) = 0.33330 0.21121
#
# Static dielectric constant tensor:
#      x y z
#    x 2.058700 0.000000 0.000000 
#    y 0.000000 2.063870 0.000000 
#    z 0.000000 0.000000 1.955370 
# 
# From -- ./inp_files/9392.got.cif
#   From: 2010.05.17/outbox.cif.g08.bks.cpg/sg56_5_cif.got.tgz:9392.got - 2010.06.03 13:42:01.
