data_PCOD9431249
_publ_section_title
;
Structure prediction by ZEFSAII (Michael W. Deem and Ramdas Pophale) SiO2 
 PCOD9431249
Probable space group: P C C N
;
_chemical_formula_sum "Si O2"
_cell_formula_units_Z 56
_cell_length_a 15.875772
_cell_length_b 20.533566
_cell_length_c 8.847972
_cell_angle_alpha 90.000000
_cell_angle_beta 90.000000
_cell_angle_gamma 90.000000
_cell_volume 2884.316878
_symmetry_space_group_name_H-M "P C C N"
_symmetry_group_IT_number 56
_symmetry_cell_setting 'orthorhombic'
loop_
_space_group_symop_operation_xyz
x,y,z
1/2-x,1/2-y,z
1/2+x,-y,1/2-z
-x,1/2+y,1/2-z
-x,-y,-z
1/2+x,1/2+y,-z
1/2-x,y,1/2+z
x,1/2-y,1/2+z
loop_
_atom_site_type_symbol
_atom_site_label
_atom_site_fract_x
_atom_site_fract_y
_atom_site_fract_z
Si Si1 0.341380 0.742318 0.424448
Si Si2 0.582098 0.457389 0.523627
Si Si3 0.651133 0.116701 0.285188
Si Si4 0.077832 0.829128 0.681760
Si Si5 0.764516 0.499714 0.855058
Si Si6 0.972010 0.394641 0.544261
Si Si7 0.377354 0.032080 0.424204
O O1 0.250000 0.750000 0.501739
O O2 0.334301 0.677976 0.320002
O O3 0.414648 0.723829 0.545883
O O4 0.356686 0.799354 0.302962
O O5 0.500000 0.500000 0.500000
O O6 0.588737 0.430558 0.691950
O O7 0.586821 0.396220 0.409839
O O8 0.666695 0.496695 0.487810
O O9 0.601366 0.133987 0.436658
O O10 0.734350 0.073922 0.314117
O O11 0.008627 0.850590 0.808563
O O12 0.813408 0.533016 0.716760
O O13 0.680047 0.529738 0.925131
O O14 0.929988 0.464270 0.592172
O O15 0.054718 0.411423 0.448021
#
# Coordination Sequence:
#
# PCOD9431249 Si02
#       7
#     8   8   8   8   8   8   8
#     4  11  23  38  56  85 120 160 211 250 292 358
#     4  11  22  35  55  84 121 163 201 249 308 365
#     4  10  22  36  56  83 122 167 202 244 289 362
#     4  11  23  37  57  78 117 161 208 249 296 360
#     4  11  19  34  53  83 117 159 203 241 303 353
#     4  10  21  37  53  79 112 163 200 244 307 346
#     4  10  21  33  55  77 118 152 200 248 296 365
#
# _framework density 19.415343
#
# number of rings (size 3 to 8) (size 9 to 14) (size 15 to 20)
#    0.000    1.429    2.857    3.000    4.000    2.286 
#    0.000    0.714    0.000    0.000    0.000    0.000 
#    0.000   65.143    0.000    0.000    0.000    0.000 
#
# Total GULP energy -311822.492188 kJ/mol
# GULP energy per Si atom -5568.258789 kJ/mol
# Density = 1.937115 g / cm^3
# Si number density = 19.415343 Si / 1000 Ang^3
#
#
#
# Elastic Constant Matrix: (Units=GPa)
#
#
# Indices 1 2 3 4 5 6 
#
# 1 69.1736 26.4504 14.8250 0.0000 0.0000 0.0000
# 2 26.4504 47.8541 11.2565 0.0000 0.0000 0.0000
# 3 14.8250 11.2565 89.0932 0.0000 0.0000 0.0000
# 4 0.0000 0.0000 0.0000 23.6242 0.0000 0.0000
# 5 0.0000 0.0000 0.0000 0.0000 31.8569 0.0000
# 6 0.0000 0.0000 0.0000 0.0000 0.0000 14.7858
#
#
#
# Elastic Compliance Matrix: (Units=1/GPa)
#
#
# Indices 1 2 3 4 5 6 
#
# 1 0.018623 -0.009857 -0.001853 0.000000 0.000000 0.000000
# 2 -0.009857 0.026755 -0.001740 0.000000 0.000000 0.000000
# 3 -0.001853 -0.001740 0.011752 0.000000 0.000000 0.000000
# 4 0.000000 0.000000 0.000000 0.042329 0.000000 0.000000
# 5 0.000000 0.000000 0.000000 0.000000 0.031390 0.000000
# 6 0.000000 0.000000 0.000000 0.000000 0.000000 0.067632
#
#
# Mechanical properties :
#
#
# Convention : Reuss Voigt Hill
#
# Bulk Modulus (GPa) = 33.08170 34.57608 33.82889
# Shear Modulus (GPa) = 21.23503 24.29265 22.76384
#
# Velocity S-wave (km/s) = 3.31074 3.54108 3.42784
# Velocity P-wave (km/s) = 5.62944 5.87931 5.75573
#
# Compressibility (1/GPa) = 0.03022819
#
# Stress axis : x y z
#
# Youngs Moduli (GPa) = 53.69744 37.37665 85.08865
#
# Poissons Ratio (x) = 0.36844 0.15770
# Poissons Ratio (y) = 0.52932 0.14806
# Poissons Ratio (z) = 0.09952 0.06504
#
# Static dielectric constant tensor:
#      x y z
#    x 1.667260 0.000000 0.000000 
#    y 0.000000 1.727590 0.000000 
#    z 0.000000 0.000000 1.744490 
# 
# From -- ./inp_files/3589.got.cif
#   From: 2010.05.17/outbox.cif.g08.bks.cpg/sg56_2_cif.got.tgz:3589.got - 2010.06.03 13:42:01.
