data_PCOD9431367
_publ_section_title
;
Structure prediction by ZEFSAII (Michael W. Deem and Ramdas Pophale) SiO2 
 PCOD9431367
Probable space group: P C C N
;
_chemical_formula_sum "Si O2"
_cell_formula_units_Z 64
_cell_length_a 5.212249
_cell_length_b 26.877258
_cell_length_c 19.785914
_cell_angle_alpha 90.000000
_cell_angle_beta 90.000000
_cell_angle_gamma 90.000000
_cell_volume 2771.827709
_symmetry_space_group_name_H-M "P C C N"
_symmetry_group_IT_number 56
_symmetry_cell_setting 'orthorhombic'
loop_
_space_group_symop_operation_xyz
x,y,z
1/2-x,1/2-y,z
1/2+x,-y,1/2-z
-x,1/2+y,1/2-z
-x,-y,-z
1/2+x,1/2+y,-z
1/2-x,y,1/2+z
x,1/2-y,1/2+z
loop_
_atom_site_type_symbol
_atom_site_label
_atom_site_fract_x
_atom_site_fract_y
_atom_site_fract_z
Si Si1 0.177233 0.416755 0.143821
Si Si2 0.262290 0.609319 0.668271
Si Si3 0.673788 0.144576 0.686980
Si Si4 0.323624 0.951559 0.964821
Si Si5 0.089527 0.990678 0.215863
Si Si6 0.008376 0.718611 0.427636
Si Si7 0.635022 0.550322 0.590859
Si Si8 0.995526 0.369998 0.470498
O O1 0.430072 0.387652 0.164190
O O2 0.234659 0.470788 0.174399
O O3 0.939037 0.383427 0.169711
O O4 0.077708 0.429764 0.069754
O O5 0.314330 0.645773 0.730967
O O6 0.058851 0.565258 0.686805
O O7 0.507801 0.573307 0.657071
O O8 0.183539 0.635030 0.597274
O O9 0.623639 0.193026 0.640726
O O10 0.215509 0.998420 0.922319
O O11 0.393387 0.964039 0.042043
O O12 0.136665 0.905607 0.974247
O O13 0.304793 0.986256 0.275779
O O14 0.750000 0.750000 0.413264
O O15 0.250000 0.750000 0.454290
O O16 0.941387 0.678902 0.486814
O O17 0.774095 0.597639 0.559034
#
# Coordination Sequence:
#
# PCOD9431367 Si02
#       8
#     8   8   8   8   8   8   8   8
#     4  12  22  39  67 101 147 197 244 288 332 417
#     4  11  25  39  67 106 150 195 237 294 367 428
#     4  12  26  45  74 105 140 187 248 310 372 429
#     4  10  21  37  61 103 146 200 245 280 336 424
#     4  12  23  39  58 102 154 206 245 273 326 427
#     4  12  29  55  84 107 132 182 256 320 390 460
#     4  10  22  38  62 100 151 196 237 278 350 435
#     4  11  25  44  73 104 149 191 243 307 372 439
#
# _framework density 23.089458
#
# number of rings (size 3 to 8) (size 9 to 14) (size 15 to 20)
#    0.000    0.750    5.000    1.875    7.000    1.000 
#    0.000    0.625    0.000    0.000    0.000    0.000 
#    0.000    0.000    0.000    0.000    0.000    0.000 
#
# Total GULP energy -356974.126221 kJ/mol
# GULP energy per Si atom -5577.720722 kJ/mol
# Density = 2.303691 g / cm^3
# Si number density = 23.089458 Si / 1000 Ang^3
#
#
#
# Elastic Constant Matrix: (Units=GPa)
#
#
# Indices 1 2 3 4 5 6 
#
# 1 118.9615 28.2678 24.7076 0.0000 0.0000 0.0000
# 2 28.2678 88.7460 48.5271 0.0000 0.0000 0.0000
# 3 24.7076 48.5271 121.3642 0.0000 0.0000 0.0000
# 4 0.0000 0.0000 0.0000 22.7829 0.0000 0.0000
# 5 0.0000 0.0000 0.0000 0.0000 16.7037 0.0000
# 6 0.0000 0.0000 0.0000 0.0000 0.0000 36.4631
#
#
#
# Elastic Compliance Matrix: (Units=1/GPa)
#
#
# Indices 1 2 3 4 5 6 
#
# 1 0.009170 -0.002432 -0.000894 0.000000 0.000000 0.000000
# 2 -0.002432 0.015066 -0.005529 0.000000 0.000000 0.000000
# 3 -0.000894 -0.005529 0.010633 0.000000 0.000000 0.000000
# 4 0.000000 0.000000 0.000000 0.043893 0.000000 0.000000
# 5 0.000000 0.000000 0.000000 0.000000 0.059867 0.000000
# 6 0.000000 0.000000 0.000000 0.000000 0.000000 0.027425
#
#
# Mechanical properties :
#
#
# Convention : Reuss Voigt Hill
#
# Bulk Modulus (GPa) = 58.28248 59.11963 58.70105
# Shear Modulus (GPa) = 26.38767 30.36123 28.37445
#
# Velocity S-wave (km/s) = 3.38427 3.63014 3.50936
# Velocity P-wave (km/s) = 6.36929 6.57501 6.47297
#
# Compressibility (1/GPa) = 0.01715782
#
# Stress axis : x y z
#
# Youngs Moduli (GPa) = 109.05511 66.37464 94.05092
#
# Poissons Ratio (x) = 0.16140 0.08413
# Poissons Ratio (y) = 0.26518 0.52001
# Poissons Ratio (z) = 0.09755 0.36699
#
# Static dielectric constant tensor:
#      x y z
#    x 1.942260 0.000000 0.000000 
#    y 0.000000 1.957550 0.000000 
#    z 0.000000 0.000000 2.046720 
# 
# From -- ./inp_files/17701.got.cif
#   From: 2010.05.17/outbox.cif.g08.bks.cpg/sg56_9_cif.got.tgz:17701.got - 2010.06.03 13:42:01.
