data_PCOD9431073
_publ_section_title
;
Structure prediction by ZEFSAII (Michael W. Deem and Ramdas Pophale) SiO2 
 PCOD9431073
Probable space group: P C C N
;
_chemical_formula_sum "Si O2"
_cell_formula_units_Z 64
_cell_length_a 9.292144
_cell_length_b 14.436363
_cell_length_c 20.776442
_cell_angle_alpha 90.000000
_cell_angle_beta 90.000000
_cell_angle_gamma 90.000000
_cell_volume 2787.050905
_symmetry_space_group_name_H-M "P C C N"
_symmetry_group_IT_number 56
_symmetry_cell_setting 'orthorhombic'
loop_
_space_group_symop_operation_xyz
x,y,z
1/2-x,1/2-y,z
1/2+x,-y,1/2-z
-x,1/2+y,1/2-z
-x,-y,-z
1/2+x,1/2+y,-z
1/2-x,y,1/2+z
x,1/2-y,1/2+z
loop_
_atom_site_type_symbol
_atom_site_label
_atom_site_fract_x
_atom_site_fract_y
_atom_site_fract_z
Si Si1 0.584523 0.902824 0.912393
Si Si2 0.995414 0.022363 0.872322
Si Si3 0.077160 0.766335 0.336444
Si Si4 0.086679 0.351247 0.554949
Si Si5 0.809666 0.397688 0.872864
Si Si6 0.001983 0.611590 0.247866
Si Si7 0.273670 0.143444 0.854891
Si Si8 0.009152 0.193775 0.463142
O O1 0.491888 0.866604 0.851061
O O2 0.743980 0.856652 0.924650
O O3 0.620228 0.009677 0.903881
O O4 0.493363 0.872230 0.974593
O O5 0.994579 0.956650 0.808630
O O6 0.976521 0.953296 0.932998
O O7 0.136743 0.082365 0.868895
O O8 0.859135 0.089328 0.873205
O O9 0.250000 0.750000 0.337838
O O10 0.014070 0.716705 0.273848
O O11 0.003802 0.709443 0.394403
O O12 0.055060 0.295125 0.489434
O O13 0.862536 0.398061 0.799339
O O14 0.874702 0.314980 0.915355
O O15 0.865578 0.598664 0.202246
O O16 0.250000 0.250000 0.835678
O O17 0.364241 0.151654 0.920154
#
# Coordination Sequence:
#
# PCOD9431073 Si02
#       8
#     8   8   8   8   8   8   8   8
#     4  10  20  40  66  90 126 177 227 272 330 408
#     4  10  22  43  67  96 128 174 230 274 322 403
#     4  10  21  36  61  95 128 167 221 278 327 390
#     4   9  20  41  68  93 123 169 223 276 328 395
#     4  10  22  38  62  96 130 170 217 279 342 386
#     4  10  23  40  61  93 133 175 217 269 333 397
#     4  11  24  41  66  96 133 178 219 270 339 400
#     4  10  20  41  63  91 132 170 214 272 338 399
#
# _framework density 22.963342999999998
#
# number of rings (size 3 to 8) (size 9 to 14) (size 15 to 20)
#    0.000    2.000    0.000    3.375    0.000   10.000 
#    0.000   17.500    0.000    0.000    0.000    0.000 
#    0.000    0.000    0.000    0.000    0.000    0.000 
#
# Total GULP energy -357569.024944 kJ/mol
# GULP energy per Si atom -5587.016015 kJ/mol
# Density = 2.291108 g / cm^3
# Si number density = 22.963343 Si / 1000 Ang^3
#
#
#
# Elastic Constant Matrix: (Units=GPa)
#
#
# Indices 1 2 3 4 5 6 
#
# 1 135.1440 56.8406 37.4526 0.0000 0.0000 0.0000
# 2 56.8406 87.7213 43.1944 0.0000 0.0000 0.0000
# 3 37.4526 43.1944 111.9795 0.0000 0.0000 0.0000
# 4 0.0000 0.0000 0.0000 -68.5144 0.0000 0.0000
# 5 0.0000 0.0000 0.0000 0.0000 -2.8864 0.0000
# 6 0.0000 0.0000 0.0000 0.0000 0.0000 7.6779
#
#
#
# Elastic Compliance Matrix: (Units=1/GPa)
#
#
# Indices 1 2 3 4 5 6 
#
# 1 0.010275 -0.006130 -0.001072 0.000000 0.000000 0.000000
# 2 -0.006130 0.017730 -0.004789 0.000000 0.000000 0.000000
# 3 -0.001072 -0.004789 0.011136 0.000000 0.000000 0.000000
# 4 0.000000 0.000000 0.000000 -0.014595 0.000000 0.000000
# 5 0.000000 0.000000 0.000000 0.000000 -0.346455 0.000000
# 6 0.000000 0.000000 0.000000 0.000000 0.000000 0.130244
#
#
# Mechanical properties :
#
#
# Convention : Reuss Voigt Hill
#
# Bulk Modulus (GPa) = 65.96675 67.75780 66.86227
# Shear Modulus (GPa) = -30.74435 0.41257 -15.16589
#
# Velocity S-wave (km/s) = -3.66299 0.42433 -2.57269
# Velocity P-wave (km/s) = 3.30141 5.45995 4.51167
#
# Compressibility (1/GPa) = 0.01515915
#
# Stress axis : x y z
#
# Youngs Moduli (GPa) = 97.32568 56.40251 89.79938
#
# Poissons Ratio (x) = 0.34574 0.09626
# Poissons Ratio (y) = 0.59659 0.43003
# Poissons Ratio (z) = 0.10433 0.27010
#
# Static dielectric constant tensor:
#      x y z
#    x 1.850470 0.000000 0.000000 
#    y 0.000000 1.930750 0.000000 
#    z 0.000000 0.000000 1.894760 
# 
# From -- ./inp_files/18391.got.cif
#   From: 2010.05.17/outbox.cif.g08.bks.cpg/sg56_10_cif.got.tgz:18391.got - 2010.06.03 13:42:01.
