data_PCOD9431317
_publ_section_title
;
Structure prediction by ZEFSAII (Michael W. Deem and Ramdas Pophale) SiO2 
 PCOD9431317
Probable space group: P C C N
;
_chemical_formula_sum "Si O2"
_cell_formula_units_Z 40
_cell_length_a 14.100276
_cell_length_b 16.250744
_cell_length_c 8.168510
_cell_angle_alpha 90.000000
_cell_angle_beta 90.000000
_cell_angle_gamma 90.000000
_cell_volume 1871.732182
_symmetry_space_group_name_H-M "P C C N"
_symmetry_group_IT_number 56
_symmetry_cell_setting 'orthorhombic'
loop_
_space_group_symop_operation_xyz
x,y,z
1/2-x,1/2-y,z
1/2+x,-y,1/2-z
-x,1/2+y,1/2-z
-x,-y,-z
1/2+x,1/2+y,-z
1/2-x,y,1/2+z
x,1/2-y,1/2+z
loop_
_atom_site_type_symbol
_atom_site_label
_atom_site_fract_x
_atom_site_fract_y
_atom_site_fract_z
Si Si1 0.291089 0.496063 0.135347
Si Si2 0.352580 0.709746 0.581560
Si Si3 0.058160 0.560425 0.880777
Si Si4 0.604821 0.962570 0.663520
Si Si5 0.622889 0.134765 0.562847
O O1 0.358840 0.510336 0.289993
O O2 0.187824 0.474950 0.201277
O O3 0.339992 0.436415 0.001631
O O4 0.296495 0.583759 0.038295
O O5 0.250000 0.750000 0.539630
O O6 0.396449 0.638377 0.470147
O O7 0.414939 0.791925 0.549018
O O8 0.349458 0.677221 0.766302
O O9 0.980985 0.585295 0.743357
O O10 0.000000 0.500000 0.000000
O O11 0.563629 0.054082 0.617763
#
# Coordination Sequence:
#
# PCOD9431317 Si02
#       5
#     8   8   8   8   8
#     4  10  21  38  60  89 130 174 230 280 344 401
#     4  12  22  36  57  91 133 182 224 278 350 411
#     4  12  22  39  61  90 136 183 230 282 348 416
#     4  10  21  36  60  87 127 177 224 286 343 408
#     4  10  22  35  58  89 132 178 220 284 344 417
#
# _framework density 21.370577999999998
#
# number of rings (size 3 to 8) (size 9 to 14) (size 15 to 20)
#    1.200    0.000    2.000    6.000    0.000    0.000 
#    0.000    1.000    0.000    0.000    0.000    1.400 
#    0.000    0.000    0.000    0.000    0.000    0.000 
#
# Total GULP energy -222986.010713 kJ/mol
# GULP energy per Si atom -5574.650268 kJ/mol
# Density = 2.132194 g / cm^3
# Si number density = 21.370578 Si / 1000 Ang^3
#
#
#
# Elastic Constant Matrix: (Units=GPa)
#
#
# Indices 1 2 3 4 5 6 
#
# 1 102.9394 50.6920 39.3180 0.0000 0.0000 0.0000
# 2 50.6920 76.6659 52.9142 0.0000 0.0000 0.0000
# 3 39.3180 52.9142 128.7737 0.0000 0.0000 0.0000
# 4 0.0000 0.0000 0.0000 39.1850 0.0000 0.0000
# 5 0.0000 0.0000 0.0000 0.0000 43.6687 0.0000
# 6 0.0000 0.0000 0.0000 0.0000 0.0000 33.1566
#
#
#
# Elastic Compliance Matrix: (Units=1/GPa)
#
#
# Indices 1 2 3 4 5 6 
#
# 1 0.014447 -0.009084 -0.000678 0.000000 0.000000 0.000000
# 2 -0.009084 0.023920 -0.007055 0.000000 0.000000 0.000000
# 3 -0.000678 -0.007055 0.010872 0.000000 0.000000 0.000000
# 4 0.000000 0.000000 0.000000 0.025520 0.000000 0.000000
# 5 0.000000 0.000000 0.000000 0.000000 0.022900 0.000000
# 6 0.000000 0.000000 0.000000 0.000000 0.000000 0.030160
#
#
# Mechanical properties :
#
#
# Convention : Reuss Voigt Hill
#
# Bulk Modulus (GPa) = 64.09045 66.02529 65.05787
# Shear Modulus (GPa) = 30.00223 34.23239 32.11731
#
# Velocity S-wave (km/s) = 3.75094 4.00665 3.88090
# Velocity P-wave (km/s) = 6.98674 7.23649 7.11271
#
# Compressibility (1/GPa) = 0.01560295
#
# Stress axis : x y z
#
# Youngs Moduli (GPa) = 69.21820 41.80664 91.98252
#
# Poissons Ratio (x) = 0.37979 0.06238
# Poissons Ratio (y) = 0.62881 0.64894
# Poissons Ratio (z) = 0.04694 0.29495
#
# Static dielectric constant tensor:
#      x y z
#    x 1.877000 0.000000 0.000000 
#    y 0.000000 1.832820 0.000000 
#    z 0.000000 0.000000 1.884060 
# 
# From -- ./inp_files/3298.got.cif
#   From: 2010.05.17/outbox.cif.g08.bks.cpg/sg56_2_cif.got.tgz:3298.got - 2010.06.03 13:42:01.
