data_PCOD9431466
_publ_section_title
;
Structure prediction by ZEFSAII (Michael W. Deem and Ramdas Pophale) SiO2 
 PCOD9431466
Probable space group: P C C N
;
_chemical_formula_sum "Si O2"
_cell_formula_units_Z 60
_cell_length_a 9.688952
_cell_length_b 11.481482
_cell_length_c 27.684424
_cell_angle_alpha 90.000000
_cell_angle_beta 90.000000
_cell_angle_gamma 90.000000
_cell_volume 3079.712996
_symmetry_space_group_name_H-M "P C C N"
_symmetry_group_IT_number 56
_symmetry_cell_setting 'orthorhombic'
loop_
_space_group_symop_operation_xyz
x,y,z
1/2-x,1/2-y,z
1/2+x,-y,1/2-z
-x,1/2+y,1/2-z
-x,-y,-z
1/2+x,1/2+y,-z
1/2-x,y,1/2+z
x,1/2-y,1/2+z
loop_
_atom_site_type_symbol
_atom_site_label
_atom_site_fract_x
_atom_site_fract_y
_atom_site_fract_z
Si Si1 0.250000 0.750000 0.932491
Si Si2 0.900637 0.225698 0.343344
Si Si3 0.406927 0.219346 0.426581
Si Si4 0.233894 0.379545 0.104939
Si Si5 0.981733 0.038751 0.790774
Si Si6 0.451080 0.952877 0.392821
Si Si7 0.827942 0.504141 0.796008
Si Si8 0.512037 0.867653 0.981092
O O1 0.155016 0.849443 0.906345
O O2 0.364471 0.824289 0.961374
O O3 0.750000 0.250000 0.365384
O O4 0.002889 0.209538 0.387548
O O5 0.950520 0.339309 0.315923
O O6 0.879190 0.127488 0.303552
O O7 0.250000 0.250000 0.417294
O O8 0.445722 0.272252 0.478582
O O9 0.423956 0.079764 0.417670
O O10 0.250000 0.250000 0.124613
O O11 0.388955 0.423634 0.093790
O O12 0.169664 0.451114 0.149042
O O13 0.130697 0.372586 0.059904
O O14 0.073420 0.056990 0.743917
O O15 0.051240 0.966536 0.834413
O O16 0.830797 0.986934 0.779423
O O17 0.500000 0.000000 0.000000
#
# Coordination Sequence:
#
# PCOD9431466 Si02
#       8
#     4   8   8   8   8   8   8   8
#     4  12  26  42  66  98 130 174 222 278 330 392
#     4   9  20  41  62  91 123 166 215 267 319 386
#     4  11  24  42  68  93 129 169 221 272 325 389
#     4  11  23  45  65  93 137 176 214 270 337 396
#     4   9  21  39  63  97 123 168 215 259 325 388
#     4  10  24  46  65  93 134 175 217 272 335 385
#     4  10  21  38  65  91 129 167 211 262 324 390
#     4  12  27  42  66 102 131 174 227 267 334 395
#
# _framework density 19.482334000000002
#
# number of rings (size 3 to 8) (size 9 to 14) (size 15 to 20)
#    0.000    1.600    1.333    2.800    2.800    5.867 
#    3.600    0.667    0.000    0.000    0.000    0.000 
#    0.000    0.000    0.000    0.000    0.000    0.000 
#
# Total GULP energy -334606.996848 kJ/mol
# GULP energy per Si atom -5576.783281 kJ/mol
# Density = 1.943799 g / cm^3
# Si number density = 19.482334 Si / 1000 Ang^3
#
#
#
# Elastic Constant Matrix: (Units=GPa)
#
#
# Indices 1 2 3 4 5 6 
#
# 1 153.8306 46.9588 87.3501 0.0000 0.0000 0.0000
# 2 46.9588 86.6509 16.4759 0.0000 0.0000 0.0000
# 3 87.3501 16.4759 85.4461 0.0000 0.0000 0.0000
# 4 0.0000 0.0000 0.0000 495.3466 0.0000 0.0000
# 5 0.0000 0.0000 0.0000 0.0000 200.2350 0.0000
# 6 0.0000 0.0000 0.0000 0.0000 0.0000 35.2959
#
#
#
# Elastic Compliance Matrix: (Units=1/GPa)
#
#
# Indices 1 2 3 4 5 6 
#
# 1 0.018633 -0.006722 -0.017752 0.000000 0.000000 0.000000
# 2 -0.006722 0.014405 0.004094 0.000000 0.000000 0.000000
# 3 -0.017752 0.004094 0.029061 0.000000 0.000000 0.000000
# 4 0.000000 0.000000 0.000000 0.002019 0.000000 0.000000
# 5 0.000000 0.000000 0.000000 0.000000 0.004994 0.000000
# 6 0.000000 0.000000 0.000000 0.000000 0.000000 0.028332
#
#
# Mechanical properties :
#
#
# Convention : Reuss Voigt Hill
#
# Bulk Modulus (GPa) = 46.86087 69.72192 58.29139
# Shear Modulus (GPa) = 34.40774 157.85170 96.12972
#
# Velocity S-wave (km/s) = 4.20706 9.01104 7.03201
# Velocity P-wave (km/s) = 6.90683 12.00542 9.79373
#
# Compressibility (1/GPa) = 0.02133977
#
# Stress axis : x y z
#
# Youngs Moduli (GPa) = 53.66888 69.42007 34.41025
#
# Poissons Ratio (x) = 0.46666 0.61084
# Poissons Ratio (y) = 0.36078 -0.14089
# Poissons Ratio (z) = 0.95272 -0.28424
#
# Static dielectric constant tensor:
#      x y z
#    x 1.692490 0.000000 0.000000 
#    y 0.000000 1.734530 0.000000 
#    z 0.000000 0.000000 1.705620 
# 
# From -- ./inp_files/22094.got.cif
#   From: 2010.05.17/outbox.cif.g08.bks.cpg/sg56_12_cif.got.tgz:22094.got - 2010.06.03 13:42:01.
