data_PCOD9431579
_publ_section_title
;
Structure prediction by ZEFSAII (Michael W. Deem and Ramdas Pophale) SiO2 
 PCOD9431579
Probable space group: P C C N
;
_chemical_formula_sum "Si O2"
_cell_formula_units_Z 64
_cell_length_a 17.690882
_cell_length_b 11.928467
_cell_length_c 15.267602
_cell_angle_alpha 90.000000
_cell_angle_beta 90.000000
_cell_angle_gamma 90.000000
_cell_volume 3221.847271
_symmetry_space_group_name_H-M "P C C N"
_symmetry_group_IT_number 56
_symmetry_cell_setting 'orthorhombic'
loop_
_space_group_symop_operation_xyz
x,y,z
1/2-x,1/2-y,z
1/2+x,-y,1/2-z
-x,1/2+y,1/2-z
-x,-y,-z
1/2+x,1/2+y,-z
1/2-x,y,1/2+z
x,1/2-y,1/2+z
loop_
_atom_site_type_symbol
_atom_site_label
_atom_site_fract_x
_atom_site_fract_y
_atom_site_fract_z
Si Si1 0.041383 0.490426 0.592921
Si Si2 0.645535 0.038248 0.804661
Si Si3 0.556878 0.857287 0.697243
Si Si4 0.074466 0.070662 0.523566
Si Si5 0.837125 0.269514 0.204908
Si Si6 0.828362 0.678905 0.127808
Si Si7 0.489424 0.750246 0.871234
Si Si8 0.319381 0.009488 0.706909
O O1 0.004357 0.380124 0.632858
O O2 0.129119 0.474778 0.620052
O O3 0.000000 0.500000 0.500000
O O4 0.012633 0.599957 0.641403
O O5 0.643184 0.167403 0.772191
O O6 0.732014 0.002120 0.815254
O O7 0.607492 0.961702 0.729615
O O8 0.607382 0.000582 0.895128
O O9 0.608428 0.772366 0.644613
O O10 0.522079 0.801653 0.782612
O O11 0.138055 0.099398 0.450035
O O12 0.039100 0.189541 0.554885
O O13 0.000000 0.000000 0.500000
O O14 0.750000 0.250000 0.176716
O O15 0.841401 0.390947 0.249299
O O16 0.899486 0.269089 0.128145
O O17 0.750000 0.750000 0.112345
O O18 0.825427 0.605369 0.217856
#
# Coordination Sequence:
#
# PCOD9431579 Si02
#       8
#     8   8   8   8   8   8   8   8
#     4  12  25  39  64 102 136 172 225 288 346 413
#     4  10  23  43  66  96 132 174 227 282 340 417
#     4  11  22  40  67  98 131 178 230 278 346 427
#     4  11  27  42  68 103 137 179 233 293 356 419
#     4  10  21  39  69  96 126 177 229 270 336 422
#     4  12  25  45  71 101 140 184 235 292 359 435
#     4  11  22  41  66  95 133 176 222 280 339 418
#     4  11  23  44  68  95 134 182 222 275 357 414
#
# _framework density 19.864381999999999
#
# number of rings (size 3 to 8) (size 9 to 14) (size 15 to 20)
#    0.000    1.000    5.000    1.500    3.500    3.000 
#    0.000    1.250    0.000    2.250    0.000    0.000 
#    0.000    0.000    0.000    0.000    0.000    0.000 
#
# Total GULP energy -356767.915545 kJ/mol
# GULP energy per Si atom -5574.498680 kJ/mol
# Density = 1.981917 g / cm^3
# Si number density = 19.864382 Si / 1000 Ang^3
#
#
#
# Elastic Constant Matrix: (Units=GPa)
#
#
# Indices 1 2 3 4 5 6 
#
# 1 117.7303 15.8236 28.7064 0.0000 0.0000 0.0000
# 2 15.8236 80.4544 13.5885 0.0000 0.0000 0.0000
# 3 28.7064 13.5885 64.4600 0.0000 0.0000 0.0000
# 4 0.0000 0.0000 0.0000 13.5941 0.0000 0.0000
# 5 0.0000 0.0000 0.0000 0.0000 22.9002 0.0000
# 6 0.0000 0.0000 0.0000 0.0000 0.0000 35.2246
#
#
#
# Elastic Compliance Matrix: (Units=1/GPa)
#
#
# Indices 1 2 3 4 5 6 
#
# 1 0.009642 -0.001214 -0.004038 0.000000 0.000000 0.000000
# 2 -0.001214 0.013041 -0.002208 0.000000 0.000000 0.000000
# 3 -0.004038 -0.002208 0.017777 0.000000 0.000000 0.000000
# 4 0.000000 0.000000 0.000000 0.073561 0.000000 0.000000
# 5 0.000000 0.000000 0.000000 0.000000 0.043668 0.000000
# 6 0.000000 0.000000 0.000000 0.000000 0.000000 0.028389
#
#
# Mechanical properties :
#
#
# Convention : Reuss Voigt Hill
#
# Bulk Modulus (GPa) = 39.15562 42.09797 40.62680
# Shear Modulus (GPa) = 23.86492 27.97887 25.92190
#
# Velocity S-wave (km/s) = 3.46987 3.75706 3.61632
# Velocity P-wave (km/s) = 5.98395 6.32925 6.15902
#
# Compressibility (1/GPa) = 0.02553912
#
# Stress axis : x y z
#
# Youngs Moduli (GPa) = 103.71547 76.67996 56.25168
#
# Poissons Ratio (x) = 0.09312 0.22714
# Poissons Ratio (y) = 0.12595 0.12422
# Poissons Ratio (z) = 0.41879 0.16934
#
# Static dielectric constant tensor:
#      x y z
#    x 1.781680 0.000000 0.000000 
#    y 0.000000 1.733050 0.000000 
#    z 0.000000 0.000000 1.716240 
# 
# From -- ./inp_files/12876.got.cif
#   From: 2010.05.17/outbox.cif.g08.bks.cpg/sg56_7_cif.got.tgz:12876.got - 2010.06.03 13:42:01.
