data_PCOD9431931
_publ_section_title
;
Structure prediction by ZEFSAII (Michael W. Deem and Ramdas Pophale) SiO2 
 PCOD9431931
Probable space group: P C C N
;
_chemical_formula_sum "Si O2"
_cell_formula_units_Z 56
_cell_length_a 17.745429
_cell_length_b 13.848663
_cell_length_c 9.140740
_cell_angle_alpha 90.000000
_cell_angle_beta 90.000000
_cell_angle_gamma 90.000000
_cell_volume 2246.341115
_symmetry_space_group_name_H-M "P C C N"
_symmetry_group_IT_number 56
_symmetry_cell_setting 'orthorhombic'
loop_
_space_group_symop_operation_xyz
x,y,z
1/2-x,1/2-y,z
1/2+x,-y,1/2-z
-x,1/2+y,1/2-z
-x,-y,-z
1/2+x,1/2+y,-z
1/2-x,y,1/2+z
x,1/2-y,1/2+z
loop_
_atom_site_type_symbol
_atom_site_label
_atom_site_fract_x
_atom_site_fract_y
_atom_site_fract_z
Si Si1 0.250000 0.750000 0.670610
Si Si2 0.855345 0.992841 0.518368
Si Si3 0.391453 0.360359 0.708074
Si Si4 0.406472 0.688194 0.536827
Si Si5 0.631043 0.581415 0.982755
Si Si6 0.250000 0.250000 0.603493
Si Si7 0.999851 0.185987 0.179098
Si Si8 0.726898 0.039831 0.291726
O O1 0.323599 0.726829 0.575750
O O2 0.267403 0.849003 0.755506
O O3 0.900454 0.089310 0.555428
O O4 0.803814 0.015272 0.375837
O O5 0.800304 0.975455 0.654937
O O6 0.904495 0.906507 0.453261
O O7 0.309447 0.311579 0.694576
O O8 0.450186 0.275732 0.734847
O O9 0.393540 0.427170 0.850046
O O10 0.449945 0.770793 0.451119
O O11 0.447235 0.657630 0.686935
O O12 0.694290 0.669032 0.971422
O O13 0.559954 0.610568 0.883345
O O14 0.666282 0.484455 0.917103
#
# Coordination Sequence:
#
# PCOD9431931 Si02
#       8
#     4   8   8   8   8   4   8   8
#     4  10  26  50  80 100 144 194 256 320 370 434
#     4  11  25  42  73 104 151 185 255 303 368 444
#     4  11  23  42  67 109 152 199 234 308 371 459
#     4  11  25  49  70 104 138 196 253 314 372 451
#     4  11  23  42  70 108 157 192 243 301 375 458
#     4  10  22  36  74 106 152 190 236 288 374 450
#     4  11  25  45  70 103 154 197 248 299 398 448
#     4  11  24  44  72 113 141 192 245 311 361 440
#
# _framework density 24.929428999999999
#
# number of rings (size 3 to 8) (size 9 to 14) (size 15 to 20)
#    0.000    1.143    2.857    2.143    2.000   10.286 
#    2.571    1.429    0.000    0.857    0.000    0.000 
#    0.000    0.000    0.000    0.000    0.000    0.000 
#
# Total GULP energy -313272.100841 kJ/mol
# GULP energy per Si atom -5594.144658 kJ/mol
# Density = 2.487269 g / cm^3
# Si number density = 24.929429 Si / 1000 Ang^3
#
#
#
# Elastic Constant Matrix: (Units=GPa)
#
#
# Indices 1 2 3 4 5 6 
#
# 1 109.9592 9.2292 7.9123 0.0000 0.0000 0.0000
# 2 9.2292 61.7302 -5.6470 0.0000 0.0000 0.0000
# 3 7.9123 -5.6470 74.2232 0.0000 0.0000 0.0000
# 4 0.0000 0.0000 0.0000 24.8575 0.0000 0.0000
# 5 0.0000 0.0000 0.0000 0.0000 36.7851 0.0000
# 6 0.0000 0.0000 0.0000 0.0000 0.0000 29.7462
#
#
#
# Elastic Compliance Matrix: (Units=1/GPa)
#
#
# Indices 1 2 3 4 5 6 
#
# 1 0.009299 -0.001491 -0.001105 0.000000 0.000000 0.000000
# 2 -0.001491 0.016552 0.001418 0.000000 0.000000 0.000000
# 3 -0.001105 0.001418 0.013699 0.000000 0.000000 0.000000
# 4 0.000000 0.000000 0.000000 0.040229 0.000000 0.000000
# 5 0.000000 0.000000 0.000000 0.000000 0.027185 0.000000
# 6 0.000000 0.000000 0.000000 0.000000 0.000000 0.033618
#
#
# Mechanical properties :
#
#
# Convention : Reuss Voigt Hill
#
# Bulk Modulus (GPa) = 26.88594 29.87795 28.38195
# Shear Modulus (GPa) = 32.18844 33.90563 33.04704
#
# Velocity S-wave (km/s) = 3.59720 3.69191 3.64486
# Velocity P-wave (km/s) = 5.29730 5.49405 5.39657
#
# Compressibility (1/GPa) = 0.03719417
#
# Stress axis : x y z
#
# Youngs Moduli (GPa) = 107.53904 60.41482 73.00038
#
# Poissons Ratio (x) = 0.09010 0.08065
# Poissons Ratio (y) = 0.16038 -0.10354
# Poissons Ratio (z) = 0.11880 -0.08569
#
# Static dielectric constant tensor:
#      x y z
#    x 1.968260 0.000000 0.000000 
#    y 0.000000 2.064370 0.000000 
#    z 0.000000 0.000000 1.944040 
# 
# From -- ./inp_files/4517.got.cif
#   From: 2010.05.17/outbox.cif.g08.bks.cpg/sg56_3_cif.got.tgz:4517.got - 2010.06.03 13:42:01.
