data_PCOD9431862
_publ_section_title
;
Structure prediction by ZEFSAII (Michael W. Deem and Ramdas Pophale) SiO2 
 PCOD9431862
Probable space group: P C C N
;
_chemical_formula_sum "Si O2"
_cell_formula_units_Z 48
_cell_length_a 14.722335
_cell_length_b 18.682189
_cell_length_c 8.398764
_cell_angle_alpha 90.000000
_cell_angle_beta 90.000000
_cell_angle_gamma 90.000000
_cell_volume 2310.041782
_symmetry_space_group_name_H-M "P C C N"
_symmetry_group_IT_number 56
_symmetry_cell_setting 'orthorhombic'
loop_
_space_group_symop_operation_xyz
x,y,z
1/2-x,1/2-y,z
1/2+x,-y,1/2-z
-x,1/2+y,1/2-z
-x,-y,-z
1/2+x,1/2+y,-z
1/2-x,y,1/2+z
x,1/2-y,1/2+z
loop_
_atom_site_type_symbol
_atom_site_label
_atom_site_fract_x
_atom_site_fract_y
_atom_site_fract_z
Si Si1 0.470701 0.331239 0.216911
Si Si2 0.186276 0.684204 0.872597
Si Si3 0.563795 0.220709 0.404796
Si Si4 0.872498 0.535349 0.336900
Si Si5 0.458059 0.530421 0.661238
Si Si6 0.280698 0.532295 0.856600
O O1 0.478992 0.256813 0.310380
O O2 0.528872 0.322039 0.056898
O O3 0.383210 0.378025 0.168069
O O4 0.519747 0.385763 0.336558
O O5 0.250000 0.750000 0.824084
O O6 0.131005 0.718463 0.020872
O O7 0.117702 0.674302 0.724752
O O8 0.246369 0.613091 0.893634
O O9 0.808240 0.511144 0.193271
O O10 0.973690 0.505145 0.302129
O O11 0.330206 0.497422 0.006164
O O12 0.500000 0.500000 0.500000
O O13 0.353770 0.524797 0.712040
#
# Coordination Sequence:
#
# PCOD9431862 Si02
#       6
#     8   8   8   8   8   8
#     4   9  23  43  66  97 132 175 230 272 345 403
#     4  11  25  35  63 102 141 174 218 264 346 420
#     4  10  21  44  64  94 138 181 219 282 336 425
#     4  10  26  41  66  99 136 175 229 279 346 410
#     4  10  23  43  62  97 137 179 221 272 341 406
#     4  12  24  41  68  98 136 181 223 285 341 405
#
# _framework density 20.778846000000001
#
# number of rings (size 3 to 8) (size 9 to 14) (size 15 to 20)
#    1.000    0.667    0.000    4.000   11.667    0.000 
#    3.000    0.000    0.000    3.000    0.000    0.000 
#    0.000    0.000    0.000    0.000    0.000    0.000 
#
# Total GULP energy -267417.620613 kJ/mol
# GULP energy per Si atom -5571.200429 kJ/mol
# Density = 2.073155 g / cm^3
# Si number density = 20.778846 Si / 1000 Ang^3
#
#
#
# Elastic Constant Matrix: (Units=GPa)
#
#
# Indices 1 2 3 4 5 6 
#
# 1 85.0547 41.5707 10.0182 0.0000 0.0000 0.0000
# 2 41.5707 73.8388 21.5662 0.0000 0.0000 0.0000
# 3 10.0182 21.5662 73.4599 0.0000 0.0000 0.0000
# 4 0.0000 0.0000 0.0000 23.9828 0.0000 0.0000
# 5 0.0000 0.0000 0.0000 0.0000 36.4344 0.0000
# 6 0.0000 0.0000 0.0000 0.0000 0.0000 18.6245
#
#
#
# Elastic Compliance Matrix: (Units=1/GPa)
#
#
# Indices 1 2 3 4 5 6 
#
# 1 0.016238 -0.009292 0.000513 0.000000 0.000000 0.000000
# 2 -0.009292 0.020130 -0.004643 0.000000 0.000000 0.000000
# 3 0.000513 -0.004643 0.014906 0.000000 0.000000 0.000000
# 4 0.000000 0.000000 0.000000 0.041696 0.000000 0.000000
# 5 0.000000 0.000000 0.000000 0.000000 0.027447 0.000000
# 6 0.000000 0.000000 0.000000 0.000000 0.000000 0.053693
#
#
# Mechanical properties :
#
#
# Convention : Reuss Voigt Hill
#
# Bulk Modulus (GPa) = 40.92996 42.07375 41.50185
# Shear Modulus (GPa) = 23.91244 26.42156 25.16700
#
# Velocity S-wave (km/s) = 3.39604 3.56976 3.48398
# Velocity P-wave (km/s) = 5.92605 6.10600 6.01670
#
# Compressibility (1/GPa) = 0.02443198
#
# Stress axis : x y z
#
# Youngs Moduli (GPa) = 61.58356 49.67648 67.08792
#
# Poissons Ratio (x) = 0.46159 -0.03444
# Poissons Ratio (y) = 0.57223 0.31146
# Poissons Ratio (z) = -0.03162 0.23063
#
# Static dielectric constant tensor:
#      x y z
#    x 1.793580 0.000000 0.000000 
#    y 0.000000 1.791340 0.000000 
#    z 0.000000 0.000000 1.819660 
# 
# From -- ./inp_files/2776.got.cif
#   From: 2010.05.17/outbox.cif.g08.bks.cpg/sg56_2_cif.got.tgz:2776.got - 2010.06.03 13:42:01.
