data_PCOD9431353
_publ_section_title
;
Structure prediction by ZEFSAII (Michael W. Deem and Ramdas Pophale) SiO2 
 PCOD9431353
Probable space group: P C C N
;
_chemical_formula_sum "Si O2"
_cell_formula_units_Z 56
_cell_length_a 4.937010
_cell_length_b 20.516296
_cell_length_c 26.004499
_cell_angle_alpha 90.000000
_cell_angle_beta 90.000000
_cell_angle_gamma 90.000000
_cell_volume 2633.973821
_symmetry_space_group_name_H-M "P C C N"
_symmetry_group_IT_number 56
_symmetry_cell_setting 'orthorhombic'
loop_
_space_group_symop_operation_xyz
x,y,z
1/2-x,1/2-y,z
1/2+x,-y,1/2-z
-x,1/2+y,1/2-z
-x,-y,-z
1/2+x,1/2+y,-z
1/2-x,y,1/2+z
x,1/2-y,1/2+z
loop_
_atom_site_type_symbol
_atom_site_label
_atom_site_fract_x
_atom_site_fract_y
_atom_site_fract_z
Si Si1 0.639309 0.680570 0.440872
Si Si2 0.846860 0.357327 0.625109
Si Si3 0.703196 0.020076 0.816946
Si Si4 0.499104 0.793654 0.270316
Si Si5 0.290424 0.415763 0.771275
Si Si6 0.707197 0.559823 0.505592
Si Si7 0.449525 0.989888 0.411768
O O1 0.750000 0.750000 0.458974
O O2 0.367398 0.682686 0.407971
O O3 0.360839 0.833784 0.316712
O O4 0.860859 0.654238 0.400178
O O5 0.402234 0.370737 0.512911
O O6 0.779420 0.433855 0.617247
O O7 0.903700 0.073443 0.790216
O O8 0.809797 0.008641 0.873826
O O9 0.399816 0.044678 0.810565
O O10 0.735305 0.954273 0.783058
O O11 0.750000 0.750000 0.291069
O O12 0.659416 0.844905 0.234521
O O13 0.250000 0.750000 0.248675
O O14 0.500000 0.500000 0.500000
O O15 0.807958 0.553057 0.563969
O O16 0.939517 0.545364 0.463330
#
# Coordination Sequence:
#
# PCOD9431353 Si02
#       7
#     8   8   8   8   8   8   8
#     4  11  22  36  56  81 121 158 200 244 294 374
#     4  11  21  36  56  87 120 156 196 235 311 372
#     4  10  21  38  62  84 120 151 199 256 290 352
#     4  12  23  37  58  86 126 163 196 243 303 377
#     4  10  22  38  57  90 114 157 202 235 303 353
#     4  10  21  37  58  89 121 160 200 250 320 359
#     4  10  21  37  60  90 121 155 198 260 306 365
#
# _framework density 21.260652
#
# number of rings (size 3 to 8) (size 9 to 14) (size 15 to 20)
#    0.000    1.429    2.857    3.429    2.000    0.000 
#    0.000    0.000    0.000    2.571    0.000    0.000 
#    0.000    0.000    0.000    0.000    0.000    0.000 
#
# Total GULP energy -312834.322941 kJ/mol
# GULP energy per Si atom -5586.327195 kJ/mol
# Density = 2.121226 g / cm^3
# Si number density = 21.260652 Si / 1000 Ang^3
#
#
#
# Elastic Constant Matrix: (Units=GPa)
#
#
# Indices 1 2 3 4 5 6 
#
# 1 65.6449 -0.8269 -3.3686 0.0000 0.0000 0.0000
# 2 -0.8269 91.8059 14.3623 0.0000 0.0000 0.0000
# 3 -3.3686 14.3623 56.7281 0.0000 0.0000 0.0000
# 4 0.0000 0.0000 0.0000 12.3894 0.0000 0.0000
# 5 0.0000 0.0000 0.0000 0.0000 10.2076 0.0000
# 6 0.0000 0.0000 0.0000 0.0000 0.0000 22.0084
#
#
#
# Elastic Compliance Matrix: (Units=1/GPa)
#
#
# Indices 1 2 3 4 5 6 
#
# 1 0.015280 -0.000005 0.000909 0.000000 0.000000 0.000000
# 2 -0.000005 0.011342 -0.002872 0.000000 0.000000 0.000000
# 3 0.000909 -0.002872 0.018409 0.000000 0.000000 0.000000
# 4 0.000000 0.000000 0.000000 0.080714 0.000000 0.000000
# 5 0.000000 0.000000 0.000000 0.000000 0.097967 0.000000
# 6 0.000000 0.000000 0.000000 0.000000 0.000000 0.045437
#
#
# Mechanical properties :
#
#
# Convention : Reuss Voigt Hill
#
# Bulk Modulus (GPa) = 24.33370 26.05694 25.19532
# Shear Modulus (GPa) = 17.43481 22.52189 19.97835
#
# Velocity S-wave (km/s) = 2.86676 3.25825 3.06876
# Velocity P-wave (km/s) = 4.73582 5.14174 4.94295
#
# Compressibility (1/GPa) = 0.04109527
#
# Stress axis : x y z
#
# Youngs Moduli (GPa) = 65.44487 88.16973 54.32137
#
# Poissons Ratio (x) = 0.00040 -0.04935
# Poissons Ratio (y) = 0.00029 0.15600
# Poissons Ratio (z) = -0.05946 0.25320
#
# Static dielectric constant tensor:
#      x y z
#    x 1.830350 0.000000 0.000000 
#    y 0.000000 2.465000 0.000000 
#    z 0.000000 0.000000 1.769630 
# 
# From -- ./inp_files/20131.got.cif
#   From: 2010.05.17/outbox.cif.g08.bks.cpg/sg56_11_cif.got.tgz:20131.got - 2010.06.03 13:42:01.
