data_PCOD9431267
_publ_section_title
;
Structure prediction by ZEFSAII (Michael W. Deem and Ramdas Pophale) SiO2 
 PCOD9431267
Probable space group: P C C N
;
_chemical_formula_sum "Si O2"
_cell_formula_units_Z 60
_cell_length_a 13.503666
_cell_length_b 21.815454
_cell_length_c 11.825519
_cell_angle_alpha 90.000000
_cell_angle_beta 90.000000
_cell_angle_gamma 90.000000
_cell_volume 3483.663139
_symmetry_space_group_name_H-M "P C C N"
_symmetry_group_IT_number 56
_symmetry_cell_setting 'orthorhombic'
loop_
_space_group_symop_operation_xyz
x,y,z
1/2-x,1/2-y,z
1/2+x,-y,1/2-z
-x,1/2+y,1/2-z
-x,-y,-z
1/2+x,1/2+y,-z
1/2-x,y,1/2+z
x,1/2-y,1/2+z
loop_
_atom_site_type_symbol
_atom_site_label
_atom_site_fract_x
_atom_site_fract_y
_atom_site_fract_z
Si Si1 0.455199 0.536805 0.333227
Si Si2 0.848960 0.475763 0.928656
Si Si3 0.767341 0.347870 0.841635
Si Si4 0.250000 0.750000 0.471823
Si Si5 0.542242 0.161320 0.271117
Si Si6 0.924447 0.214654 0.179922
Si Si7 0.483261 0.606564 0.986657
Si Si8 0.366526 0.497117 0.089151
O O1 0.382142 0.532234 0.440785
O O2 0.554393 0.499448 0.363070
O O3 0.487600 0.607136 0.313205
O O4 0.404662 0.513239 0.216422
O O5 0.810582 0.413417 0.871525
O O6 0.749884 0.516226 0.918439
O O7 0.746040 0.310661 0.954490
O O8 0.662662 0.345973 0.777265
O O9 0.851240 0.311794 0.774413
O O10 0.351049 0.749963 0.404179
O O11 0.513127 0.229977 0.234675
O O12 0.504296 0.143363 0.395988
O O13 0.968283 0.156740 0.111989
O O14 0.571944 0.560468 0.956835
O O15 0.393662 0.557895 0.013459
#
# Coordination Sequence:
#
# PCOD9431267 Si02
#       8
#     8   8   8   4   8   8   8   8
#     4  10  23  37  53  86 111 153 200 233 297 345
#     4  11  22  37  58  79 117 152 190 250 291 344
#     4  12  20  31  50  80 112 152 179 219 297 356
#     4  12  18  30  46  78 114 152 180 212 292 364
#     4  11  20  35  50  82 119 144 191 232 285 353
#     4  12  20  31  52  78 119 150 184 231 287 364
#     4  10  21  35  55  85 110 151 198 232 292 353
#     4  10  21  39  59  83 117 152 198 244 289 352
#
# _framework density 17.223251000000001
#
# number of rings (size 3 to 8) (size 9 to 14) (size 15 to 20)
#    0.000    1.067    6.667    1.600    1.867    3.200 
#    0.000    0.000    0.000    0.800    0.000    3.733 
#    0.000    0.000    0.000    0.000    0.000    0.000 
#
# Total GULP energy -334519.970965 kJ/mol
# GULP energy per Si atom -5575.332849 kJ/mol
# Density = 1.718405 g / cm^3
# Si number density = 17.223251 Si / 1000 Ang^3
#
#
#
# Elastic Constant Matrix: (Units=GPa)
#
#
# Indices 1 2 3 4 5 6 
#
# 1 55.7181 21.4235 26.3364 0.0000 0.0000 0.0000
# 2 21.4235 103.9558 41.4245 0.0000 0.0000 0.0000
# 3 26.3364 41.4245 74.0661 0.0000 0.0000 0.0000
# 4 0.0000 0.0000 0.0000 44.7275 0.0000 0.0000
# 5 0.0000 0.0000 0.0000 0.0000 11.5626 0.0000
# 6 0.0000 0.0000 0.0000 0.0000 0.0000 27.1115
#
#
#
# Elastic Compliance Matrix: (Units=1/GPa)
#
#
# Indices 1 2 3 4 5 6 
#
# 1 0.021835 -0.001809 -0.006752 0.000000 0.000000 0.000000
# 2 -0.001809 0.012528 -0.006364 0.000000 0.000000 0.000000
# 3 -0.006752 -0.006364 0.019461 0.000000 0.000000 0.000000
# 4 0.000000 0.000000 0.000000 0.022358 0.000000 0.000000
# 5 0.000000 0.000000 0.000000 0.000000 0.086486 0.000000
# 6 0.000000 0.000000 0.000000 0.000000 0.000000 0.036885
#
#
# Mechanical properties :
#
#
# Convention : Reuss Voigt Hill
#
# Bulk Modulus (GPa) = 41.71089 45.78985 43.75037
# Shear Modulus (GPa) = 21.06211 26.31738 23.68974
#
# Velocity S-wave (km/s) = 3.50078 3.91322 3.71273
# Velocity P-wave (km/s) = 6.37267 6.86014 6.62089
#
# Compressibility (1/GPa) = 0.02397456
#
# Stress axis : x y z
#
# Youngs Moduli (GPa) = 45.79878 79.82080 51.38369
#
# Poissons Ratio (x) = 0.14441 0.34695
# Poissons Ratio (y) = 0.08286 0.32698
# Poissons Ratio (z) = 0.30924 0.50794
#
# Static dielectric constant tensor:
#      x y z
#    x 1.570080 0.000000 0.000000 
#    y 0.000000 1.624330 0.000000 
#    z 0.000000 0.000000 1.623720 
# 
# From -- ./inp_files/8102.got.cif
#   From: 2010.05.17/outbox.cif.g08.bks.cpg/sg56_5_cif.got.tgz:8102.got - 2010.06.03 13:42:01.
