data_PCOD9431220
_publ_section_title
;
Structure prediction by ZEFSAII (Michael W. Deem and Ramdas Pophale) SiO2 
 PCOD9431220
Probable space group: P C C N
;
_chemical_formula_sum "Si O2"
_cell_formula_units_Z 32
_cell_length_a 6.124414
_cell_length_b 12.105112
_cell_length_c 18.688640
_cell_angle_alpha 90.000000
_cell_angle_beta 90.000000
_cell_angle_gamma 90.000000
_cell_volume 1385.514422
_symmetry_space_group_name_H-M "P C C N"
_symmetry_group_IT_number 56
_symmetry_cell_setting 'orthorhombic'
loop_
_space_group_symop_operation_xyz
x,y,z
1/2-x,1/2-y,z
1/2+x,-y,1/2-z
-x,1/2+y,1/2-z
-x,-y,-z
1/2+x,1/2+y,-z
1/2-x,y,1/2+z
x,1/2-y,1/2+z
loop_
_atom_site_type_symbol
_atom_site_label
_atom_site_fract_x
_atom_site_fract_y
_atom_site_fract_z
Si Si1 0.750000 0.250000 0.489268
Si Si2 0.250000 0.250000 0.347130
Si Si3 0.115070 0.861067 0.740309
Si Si4 0.935713 0.836695 0.892812
Si Si5 0.634214 0.078668 0.387352
O O1 0.555123 0.223992 0.542844
O O2 0.797620 0.148315 0.436870
O O3 0.387811 0.334210 0.297724
O O4 0.422800 0.162275 0.384028
O O5 0.250000 0.750000 0.729559
O O6 0.260078 0.942408 0.691740
O O7 0.086483 0.870271 0.824819
O O8 0.750000 0.750000 0.867972
O O9 0.877740 0.957993 0.920835
#
# Coordination Sequence:
#
# PCOD9431220 Si02
#       5
#     4   4   8   8   8
#     4  12  26  50  64 104 154 186 238 280 350 448
#     4  10  20  44  74  94 138 176 238 280 356 398
#     4  10  21  43  68 103 136 176 239 295 344 411
#     4  12  28  43  72 106 143 185 236 294 356 419
#     4  11  26  46  74 103 138 192 235 290 358 418
#
# _framework density 23.096115000000001
#
# number of rings (size 3 to 8) (size 9 to 14) (size 15 to 20)
#    0.000    1.000    6.250    0.750    5.250    3.000 
#    0.000    0.000    0.000    0.000    0.000    0.000 
#    0.000    0.000    0.000    0.000    0.000    0.000 
#
# Total GULP energy -178283.943514 kJ/mol
# GULP energy per Si atom -5571.373235 kJ/mol
# Density = 2.304355 g / cm^3
# Si number density = 23.096115 Si / 1000 Ang^3
#
#
#
# Elastic Constant Matrix: (Units=GPa)
#
#
# Indices 1 2 3 4 5 6 
#
# 1 42.9820 43.7161 32.9702 0.0000 0.0000 0.0000
# 2 43.7161 123.7594 22.6004 0.0000 0.0000 0.0000
# 3 32.9702 22.6004 117.0191 0.0000 0.0000 0.0000
# 4 0.0000 0.0000 0.0000 5.2655 0.0000 0.0000
# 5 0.0000 0.0000 0.0000 0.0000 35.4734 0.0000
# 6 0.0000 0.0000 0.0000 0.0000 0.0000 1.6441
#
#
#
# Elastic Compliance Matrix: (Units=1/GPa)
#
#
# Indices 1 2 3 4 5 6 
#
# 1 0.045435 -0.014213 -0.010056 0.000000 0.000000 0.000000
# 2 -0.014213 0.012822 0.001528 0.000000 0.000000 0.000000
# 3 -0.010056 0.001528 0.011084 0.000000 0.000000 0.000000
# 4 0.000000 0.000000 0.000000 0.189916 0.000000 0.000000
# 5 0.000000 0.000000 0.000000 0.000000 0.028190 0.000000
# 6 0.000000 0.000000 0.000000 0.000000 0.000000 0.608242
#
#
# Mechanical properties :
#
#
# Convention : Reuss Voigt Hill
#
# Bulk Modulus (GPa) = 41.91376 53.59264 47.75320
# Shear Modulus (GPa) = 5.26802 20.77485 13.02143
#
# Velocity S-wave (km/s) = 1.51191 3.00241 2.37701
# Velocity P-wave (km/s) = 4.60812 5.93918 5.31548
#
# Compressibility (1/GPa) = 0.02385851
#
# Stress axis : x y z
#
# Youngs Moduli (GPa) = 22.00945 77.99356 90.22128
#
# Poissons Ratio (x) = 1.10850 0.90730
# Poissons Ratio (y) = 0.31282 -0.13787
# Poissons Ratio (z) = 0.22134 -0.11919
#
# Static dielectric constant tensor:
#      x y z
#    x 2.072170 0.000000 0.000000 
#    y 0.000000 1.977400 0.000000 
#    z 0.000000 0.000000 1.916550 
# 
# From -- ./inp_files/17302.got.cif
#   From: 2010.05.17/outbox.cif.g08.bks.cpg/sg56_9_cif.got.tgz:17302.got - 2010.06.03 13:42:01.
