data_PCOD9431886
_publ_section_title
;
Structure prediction by ZEFSAII (Michael W. Deem and Ramdas Pophale) SiO2 
 PCOD9431886
Probable space group: P C C N
;
_chemical_formula_sum "Si O2"
_cell_formula_units_Z 48
_cell_length_a 11.469677
_cell_length_b 8.168046
_cell_length_c 22.982553
_cell_angle_alpha 90.000000
_cell_angle_beta 90.000000
_cell_angle_gamma 90.000000
_cell_volume 2153.117015
_symmetry_space_group_name_H-M "P C C N"
_symmetry_group_IT_number 56
_symmetry_cell_setting 'orthorhombic'
loop_
_space_group_symop_operation_xyz
x,y,z
1/2-x,1/2-y,z
1/2+x,-y,1/2-z
-x,1/2+y,1/2-z
-x,-y,-z
1/2+x,1/2+y,-z
1/2-x,y,1/2+z
x,1/2-y,1/2+z
loop_
_atom_site_type_symbol
_atom_site_label
_atom_site_fract_x
_atom_site_fract_y
_atom_site_fract_z
Si Si1 0.428986 0.507540 0.699771
Si Si2 0.612255 0.268112 0.191987
Si Si3 0.250000 0.250000 0.682444
Si Si4 0.250000 0.750000 0.994016
Si Si5 0.847742 0.612210 0.521016
Si Si6 0.941035 0.919390 0.892329
Si Si7 0.059785 0.765012 0.590745
O O1 0.431615 0.637056 0.751120
O O2 0.546909 0.403822 0.697136
O O3 0.314959 0.396919 0.714838
O O4 0.425889 0.590540 0.636281
O O5 0.750000 0.250000 0.189849
O O6 0.562807 0.364978 0.135681
O O7 0.351964 0.195092 0.640270
O O8 0.359432 0.797030 0.035157
O O9 0.290580 0.570249 0.967729
O O10 0.750000 0.750000 0.510777
O O11 0.923113 0.597000 0.461327
O O12 0.933809 0.696269 0.568765
O O13 0.898286 0.101202 0.876737
#
# Coordination Sequence:
#
# PCOD9431886 Si02
#       7
#     8   8   4   4   8   8   8
#     4  11  25  45  71 105 143 185 244 297 371 433
#     4  11  27  44  72 102 139 189 230 304 359 442
#     4  10  22  40  74 100 134 186 242 294 346 452
#     4  10  22  42  70 108 136 196 238 302 360 436
#     4  11  24  45  72 104 149 194 245 302 363 446
#     4  10  21  45  67 103 140 185 243 292 359 433
#     4  11  24  43  71 104 144 188 242 303 365 434
#
# _framework density 22.293261999999999
#
# number of rings (size 3 to 8) (size 9 to 14) (size 15 to 20)
#    0.000    1.333    0.833    5.000   10.500    2.000 
#   12.000    0.000    0.000    0.000    0.000    0.000 
#    0.000    0.000    0.000    0.000    0.000    0.000 
#
# Total GULP energy -267751.064272 kJ/mol
# GULP energy per Si atom -5578.147172 kJ/mol
# Density = 2.224252 g / cm^3
# Si number density = 22.293262 Si / 1000 Ang^3
#
#
#
# Elastic Constant Matrix: (Units=GPa)
#
#
# Indices 1 2 3 4 5 6 
#
# 1 118.7523 48.4581 39.5690 0.0000 0.0000 0.0000
# 2 48.4581 99.0591 22.8777 0.0000 0.0000 0.0000
# 3 39.5690 22.8777 35.6814 0.0000 0.0000 0.0000
# 4 0.0000 0.0000 0.0000 62.7929 0.0000 0.0000
# 5 0.0000 0.0000 0.0000 0.0000 17.7678 0.0000
# 6 0.0000 0.0000 0.0000 0.0000 0.0000 41.9397
#
#
#
# Elastic Compliance Matrix: (Units=1/GPa)
#
#
# Indices 1 2 3 4 5 6 
#
# 1 0.014587 -0.003991 -0.013617 0.000000 0.000000 0.000000
# 2 -0.003991 0.012941 -0.003872 0.000000 0.000000 0.000000
# 3 -0.013617 -0.003872 0.045609 0.000000 0.000000 0.000000
# 4 0.000000 0.000000 0.000000 0.015925 0.000000 0.000000
# 5 0.000000 0.000000 0.000000 0.000000 0.056282 0.000000
# 6 0.000000 0.000000 0.000000 0.000000 0.000000 0.023844
#
#
# Mechanical properties :
#
#
# Convention : Reuss Voigt Hill
#
# Bulk Modulus (GPa) = 33.13744 52.81138 42.97441
# Shear Modulus (GPa) = 22.50150 34.00594 28.25372
#
# Velocity S-wave (km/s) = 3.18046 3.90986 3.56387
# Velocity P-wave (km/s) = 5.32764 6.64255 6.02110
#
# Compressibility (1/GPa) = 0.03017734
#
# Stress axis : x y z
#
# Youngs Moduli (GPa) = 68.55576 77.27129 21.92535
#
# Poissons Ratio (x) = 0.30836 0.29856
# Poissons Ratio (y) = 0.27358 0.08490
# Poissons Ratio (z) = 0.93354 0.29920
#
# Static dielectric constant tensor:
#      x y z
#    x 1.914990 0.000000 0.000000 
#    y 0.000000 1.958530 0.000000 
#    z 0.000000 0.000000 1.826670 
# 
# From -- ./inp_files/22259.got.cif
#   From: 2010.05.17/outbox.cif.g08.bks.cpg/sg56_12_cif.got.tgz:22259.got - 2010.06.03 13:42:01.
