data_PCOD9431661
_publ_section_title
;
Structure prediction by ZEFSAII (Michael W. Deem and Ramdas Pophale) SiO2 
 PCOD9431661
Probable space group: P C C N
;
_chemical_formula_sum "Si O2"
_cell_formula_units_Z 48
_cell_length_a 22.305555
_cell_length_b 7.495566
_cell_length_c 12.065596
_cell_angle_alpha 90.000000
_cell_angle_beta 90.000000
_cell_angle_gamma 90.000000
_cell_volume 2017.280292
_symmetry_space_group_name_H-M "P C C N"
_symmetry_group_IT_number 56
_symmetry_cell_setting 'orthorhombic'
loop_
_space_group_symop_operation_xyz
x,y,z
1/2-x,1/2-y,z
1/2+x,-y,1/2-z
-x,1/2+y,1/2-z
-x,-y,-z
1/2+x,1/2+y,-z
1/2-x,y,1/2+z
x,1/2-y,1/2+z
loop_
_atom_site_type_symbol
_atom_site_label
_atom_site_fract_x
_atom_site_fract_y
_atom_site_fract_z
Si Si1 0.191753 0.508202 0.128118
Si Si2 0.422217 0.086273 0.240748
Si Si3 0.581501 0.406110 0.022101
Si Si4 0.375148 0.979598 0.909681
Si Si5 0.505560 0.688343 0.626708
Si Si6 0.672238 0.062600 0.334882
O O1 0.145827 0.393946 0.202446
O O2 0.178532 0.719165 0.156525
O O3 0.261844 0.484081 0.146885
O O4 0.173289 0.468491 0.001749
O O5 0.470118 0.244495 0.253004
O O6 0.422857 0.024679 0.368679
O O7 0.451542 0.942769 0.159298
O O8 0.611864 0.226822 0.068284
O O9 0.523551 0.331677 0.956447
O O10 0.625224 0.490030 0.930088
O O11 0.437335 0.086323 0.922778
O O12 0.352339 0.991211 0.784664
#
# Coordination Sequence:
#
# PCOD9431661 Si02
#       6
#     8   8   8   8   8   8
#     4  10  23  38  68  95 124 171 216 269 315 375
#     4  12  24  41  64  97 131 169 217 267 323 386
#     4  11  21  41  65  98 127 170 213 269 319 383
#     4  11  22  41  65  93 131 166 213 265 326 384
#     4  12  25  40  65  96 135 169 212 263 331 389
#     4  10  21  40  67  98 122 168 219 267 311 376
#
# _framework density 23.794414
#
# number of rings (size 3 to 8) (size 9 to 14) (size 15 to 20)
#    0.000    1.000    5.000    3.000    4.667    1.333 
#    0.000    0.833    0.000    0.000    0.000    0.000 
#    0.000    0.000    0.000    0.000    0.000    0.000 
#
# Total GULP energy -268639.262217 kJ/mol
# GULP energy per Si atom -5596.651296 kJ/mol
# Density = 2.374026 g / cm^3
# Si number density = 23.794414 Si / 1000 Ang^3
#
#
#
# Elastic Constant Matrix: (Units=GPa)
#
#
# Indices 1 2 3 4 5 6 
#
# 1 177.5096 19.8100 86.2433 0.0000 0.0000 0.0000
# 2 19.8100 29.8477 24.7114 0.0000 0.0000 0.0000
# 3 86.2433 24.7114 161.4483 0.0000 0.0000 0.0000
# 4 0.0000 0.0000 0.0000 25.3397 0.0000 0.0000
# 5 0.0000 0.0000 0.0000 0.0000 37.4499 0.0000
# 6 0.0000 0.0000 0.0000 0.0000 0.0000 21.3437
#
#
#
# Elastic Compliance Matrix: (Units=1/GPa)
#
#
# Indices 1 2 3 4 5 6 
#
# 1 0.007706 -0.001954 -0.003817 0.000000 0.000000 0.000000
# 2 -0.001954 0.038861 -0.004904 0.000000 0.000000 0.000000
# 3 -0.003817 -0.004904 0.008984 0.000000 0.000000 0.000000
# 4 0.000000 0.000000 0.000000 0.039464 0.000000 0.000000
# 5 0.000000 0.000000 0.000000 0.000000 0.026702 0.000000
# 6 0.000000 0.000000 0.000000 0.000000 0.000000 0.046852
#
#
# Mechanical properties :
#
#
# Convention : Reuss Voigt Hill
#
# Bulk Modulus (GPa) = 29.24051 70.03724 49.63888
# Shear Modulus (GPa) = 24.83604 32.69606 28.76605
#
# Velocity S-wave (km/s) = 3.23426 3.71092 3.48076
# Velocity P-wave (km/s) = 5.12472 6.91805 6.08778
#
# Compressibility (1/GPa) = 0.03419913
#
# Stress axis : x y z
#
# Youngs Moduli (GPa) = 129.76372 25.73300 111.31119
#
# Poissons Ratio (x) = 0.05029 0.42493
# Poissons Ratio (y) = 0.25357 0.54589
# Poissons Ratio (z) = 0.49537 0.12620
#
# Static dielectric constant tensor:
#      x y z
#    x 1.871520 0.000000 0.000000 
#    y 0.000000 2.056100 0.000000 
#    z 0.000000 0.000000 1.860550 
# 
# From -- ./inp_files/8869.got.cif
#   From: 2010.05.17/outbox.cif.g08.bks.cpg/sg56_5_cif.got.tgz:8869.got - 2010.06.03 13:42:01.
