data_PCOD9431731
_publ_section_title
;
Structure prediction by ZEFSAII (Michael W. Deem and Ramdas Pophale) SiO2 
 PCOD9431731
Probable space group: P C C N
;
_chemical_formula_sum "Si O2"
_cell_formula_units_Z 40
_cell_length_a 8.934457
_cell_length_b 8.812435
_cell_length_c 22.423988
_cell_angle_alpha 90.000000
_cell_angle_beta 90.000000
_cell_angle_gamma 90.000000
_cell_volume 1765.537482
_symmetry_space_group_name_H-M "P C C N"
_symmetry_group_IT_number 56
_symmetry_cell_setting 'orthorhombic'
loop_
_space_group_symop_operation_xyz
x,y,z
1/2-x,1/2-y,z
1/2+x,-y,1/2-z
-x,1/2+y,1/2-z
-x,-y,-z
1/2+x,1/2+y,-z
1/2-x,y,1/2+z
x,1/2-y,1/2+z
loop_
_atom_site_type_symbol
_atom_site_label
_atom_site_fract_x
_atom_site_fract_y
_atom_site_fract_z
Si Si1 0.624012 0.008729 0.919130
Si Si2 0.738306 0.567189 0.169737
Si Si3 0.937441 0.999842 0.767796
Si Si4 0.214840 0.427854 0.958426
Si Si5 0.250000 0.750000 0.171561
Si Si6 0.250000 0.250000 0.157474
O O1 0.644798 0.848681 0.885920
O O2 0.458028 0.047710 0.940461
O O3 0.673016 0.131609 0.871838
O O4 0.730989 0.008010 0.977861
O O5 0.750000 0.750000 0.168773
O O6 0.609953 0.506064 0.213871
O O7 0.893935 0.513006 0.198669
O O8 0.702573 0.518298 0.101951
O O9 0.850005 0.863291 0.801884
O O10 0.870056 0.158844 0.790194
O O11 0.250000 0.250000 0.966633
#
# Coordination Sequence:
#
# PCOD9431731 Si02
#       6
#     8   8   8   8   4   4
#     4  10  21  42  66  93 131 177 217 281 331 401
#     4  11  25  43  68  99 137 176 225 278 333 402
#     4  11  25  42  70  98 138 181 224 282 332 403
#     4  10  21  41  66  93 131 175 221 273 333 399
#     4  10  22  40  64  94 134 174 222 270 342 390
#     4  10  22  44  66  98 134 174 230 274 340 396
#
# _framework density 22.655989999999999
#
# number of rings (size 3 to 8) (size 9 to 14) (size 15 to 20)
#    0.000    1.600    2.000    2.400    8.400    0.000 
#    7.200    3.000    0.000    0.000    0.000    0.000 
#    0.000    0.000    0.000    0.000    0.000    0.000 
#
# Total GULP energy -223688.324387 kJ/mol
# GULP energy per Si atom -5592.208110 kJ/mol
# Density = 2.260442 g / cm^3
# Si number density = 22.655990 Si / 1000 Ang^3
#
#
#
# Elastic Constant Matrix: (Units=GPa)
#
#
# Indices 1 2 3 4 5 6 
#
# 1 75.1953 25.6388 14.5065 0.0000 0.0000 0.0000
# 2 25.6388 91.9727 34.2462 0.0000 0.0000 0.0000
# 3 14.5065 34.2462 127.0711 0.0000 0.0000 0.0000
# 4 0.0000 0.0000 0.0000 9.9333 0.0000 0.0000
# 5 0.0000 0.0000 0.0000 0.0000 22.4702 0.0000
# 6 0.0000 0.0000 0.0000 0.0000 0.0000 28.7715
#
#
#
# Elastic Compliance Matrix: (Units=1/GPa)
#
#
# Indices 1 2 3 4 5 6 
#
# 1 0.014742 -0.003871 -0.000640 0.000000 0.000000 0.000000
# 2 -0.003871 0.013102 -0.003089 0.000000 0.000000 0.000000
# 3 -0.000640 -0.003089 0.008775 0.000000 0.000000 0.000000
# 4 0.000000 0.000000 0.000000 0.100672 0.000000 0.000000
# 5 0.000000 0.000000 0.000000 0.000000 0.044503 0.000000
# 6 0.000000 0.000000 0.000000 0.000000 0.000000 0.034757
#
#
# Mechanical properties :
#
#
# Convention : Reuss Voigt Hill
#
# Bulk Modulus (GPa) = 46.68713 49.22467 47.95590
# Shear Modulus (GPa) = 20.93004 26.89151 23.91077
#
# Velocity S-wave (km/s) = 3.04274 3.44895 3.25219
# Velocity P-wave (km/s) = 5.74422 6.13470 5.94267
#
# Compressibility (1/GPa) = 0.02141918
#
# Stress axis : x y z
#
# Youngs Moduli (GPa) = 67.83291 76.32268 113.95800
#
# Poissons Ratio (x) = 0.29548 0.07289
# Poissons Ratio (y) = 0.26261 0.35203
# Poissons Ratio (z) = 0.04339 0.23577
#
# Static dielectric constant tensor:
#      x y z
#    x 1.845100 0.000000 0.000000 
#    y 0.000000 1.835390 0.000000 
#    z 0.000000 0.000000 1.898310 
# 
# From -- ./inp_files/20358.got.cif
#   From: 2010.05.17/outbox.cif.g08.bks.cpg/sg56_11_cif.got.tgz:20358.got - 2010.06.03 13:42:01.
