data_PCOD9431830
_publ_section_title
;
Structure prediction by ZEFSAII (Michael W. Deem and Ramdas Pophale) SiO2 
 PCOD9431830
Probable space group: P C C N
;
_chemical_formula_sum "Si O2"
_cell_formula_units_Z 48
_cell_length_a 18.799709
_cell_length_b 11.960826
_cell_length_c 9.321424
_cell_angle_alpha 90.000000
_cell_angle_beta 90.000000
_cell_angle_gamma 90.000000
_cell_volume 2096.015850
_symmetry_space_group_name_H-M "P C C N"
_symmetry_group_IT_number 56
_symmetry_cell_setting 'orthorhombic'
loop_
_space_group_symop_operation_xyz
x,y,z
1/2-x,1/2-y,z
1/2+x,-y,1/2-z
-x,1/2+y,1/2-z
-x,-y,-z
1/2+x,1/2+y,-z
1/2-x,y,1/2+z
x,1/2-y,1/2+z
loop_
_atom_site_type_symbol
_atom_site_label
_atom_site_fract_x
_atom_site_fract_y
_atom_site_fract_z
Si Si1 0.469203 0.808770 0.487536
Si Si2 0.392278 0.683448 0.271036
Si Si3 0.910221 0.953287 0.119824
Si Si4 0.181419 0.120050 0.663668
Si Si5 0.750000 0.250000 0.559964
Si Si6 0.694772 0.033017 0.390876
Si Si7 0.750000 0.750000 0.595104
O O1 0.458155 0.710379 0.373818
O O2 0.416380 0.772504 0.615941
O O3 0.541065 0.852981 0.560085
O O4 0.443318 0.923496 0.408525
O O5 0.320263 0.731336 0.342318
O O6 0.367614 0.560208 0.223007
O O7 0.891287 0.937667 0.287004
O O8 0.840708 0.961448 0.017343
O O9 0.191717 0.209648 0.789101
O O10 0.203206 0.172504 0.512387
O O11 0.242862 0.029419 0.688486
O O12 0.730090 0.142978 0.462640
#
# Coordination Sequence:
#
# PCOD9431830 Si02
#       7
#     8   8   8   8   4   8   4
#     4  10  24  41  63  90 137 182 221 264 329 416
#     4  11  22  39  61 102 130 173 224 267 335 410
#     4  10  21  43  65  88 134 186 217 268 336 394
#     4  11  22  43  65  99 130 172 225 288 335 397
#     4  12  22  38  68 110 138 170 212 288 352 406
#     4  11  23  39  70 106 138 172 216 292 349 399
#     4  10  24  40  64  94 126 166 232 276 326 392
#
# _framework density 22.900590000000001
#
# number of rings (size 3 to 8) (size 9 to 14) (size 15 to 20)
#    0.000    1.333    5.000    1.500    2.333    1.333 
#    0.000    0.000    0.000    4.000    0.000    0.000 
#    0.000    0.000    0.000    0.000    0.000    0.000 
#
# Total GULP energy -267339.510451 kJ/mol
# GULP energy per Si atom -5569.573134 kJ/mol
# Density = 2.284847 g / cm^3
# Si number density = 22.900590 Si / 1000 Ang^3
#
#
#
# Elastic Constant Matrix: (Units=GPa)
#
#
# Indices 1 2 3 4 5 6 
#
# 1 70.2017 18.7026 23.5010 0.0000 0.0000 0.0000
# 2 18.7026 18.8765 23.1002 0.0000 0.0000 0.0000
# 3 23.5010 23.1002 79.1088 0.0000 0.0000 0.0000
# 4 0.0000 0.0000 0.0000 40.2205 0.0000 0.0000
# 5 0.0000 0.0000 0.0000 0.0000 30.0135 0.0000
# 6 0.0000 0.0000 0.0000 0.0000 0.0000 41.6981
#
#
#
# Elastic Compliance Matrix: (Units=1/GPa)
#
#
# Indices 1 2 3 4 5 6 
#
# 1 0.019356 -0.018892 -0.000234 0.000000 0.000000 0.000000
# 2 -0.018892 0.100871 -0.023843 0.000000 0.000000 0.000000
# 3 -0.000234 -0.023843 0.019672 0.000000 0.000000 0.000000
# 4 0.000000 0.000000 0.000000 0.024863 0.000000 0.000000
# 5 0.000000 0.000000 0.000000 0.000000 0.033318 0.000000
# 6 0.000000 0.000000 0.000000 0.000000 0.000000 0.023982
#
#
# Mechanical properties :
#
#
# Convention : Reuss Voigt Hill
#
# Bulk Modulus (GPa) = 18.53111 33.19942 25.86526
# Shear Modulus (GPa) = 15.33806 29.24529 22.29168
#
# Velocity S-wave (km/s) = 2.59079 3.57747 3.12334
# Velocity P-wave (km/s) = 4.13027 5.62077 4.93215
#
# Compressibility (1/GPa) = 0.05396332
#
# Stress axis : x y z
#
# Youngs Moduli (GPa) = 51.66400 9.91365 50.83255
#
# Poissons Ratio (x) = 0.18729 0.01187
# Poissons Ratio (y) = 0.97602 1.21199
# Poissons Ratio (z) = 0.01207 0.23637
#
# Static dielectric constant tensor:
#      x y z
#    x 1.974190 0.000000 0.000000 
#    y 0.000000 1.983130 0.000000 
#    z 0.000000 0.000000 1.886740 
# 
# From -- ./inp_files/4015.got.cif
#   From: 2010.05.17/outbox.cif.g08.bks.cpg/sg56_3_cif.got.tgz:4015.got - 2010.06.03 13:42:01.
