data_PCOD9431200
_publ_section_title
;
Structure prediction by ZEFSAII (Michael W. Deem and Ramdas Pophale) SiO2 
 PCOD9431200
Probable space group: P C C N
;
_chemical_formula_sum "Si O2"
_cell_formula_units_Z 24
_cell_length_a 10.052129
_cell_length_b 10.040616
_cell_length_c 9.546681
_cell_angle_alpha 90.000000
_cell_angle_beta 90.000000
_cell_angle_gamma 90.000000
_cell_volume 963.542382
_symmetry_space_group_name_H-M "P C C N"
_symmetry_group_IT_number 56
_symmetry_cell_setting 'orthorhombic'
loop_
_space_group_symop_operation_xyz
x,y,z
1/2-x,1/2-y,z
1/2+x,-y,1/2-z
-x,1/2+y,1/2-z
-x,-y,-z
1/2+x,1/2+y,-z
1/2-x,y,1/2+z
x,1/2-y,1/2+z
loop_
_atom_site_type_symbol
_atom_site_label
_atom_site_fract_x
_atom_site_fract_y
_atom_site_fract_z
Si Si1 0.173837 0.489266 0.625221
Si Si2 0.043573 0.924957 0.666432
Si Si3 0.464617 0.709724 0.946753
O O1 0.327275 0.483117 0.661501
O O2 0.139503 0.617864 0.532014
O O3 0.086583 0.490778 0.766959
O O4 0.107724 0.365479 0.542478
O O5 0.071403 0.809030 0.784054
O O6 0.026902 0.850761 0.520199
#
# Coordination Sequence:
#
# PCOD9431200 Si02
#       3
#     8   8   8
#     4   9  21  40  70 101 134 181 237 281 353 418
#     4  10  20  43  73  94 141 180 234 287 353 416
#     4   9  21  41  71  97 132 186 233 281 352 414
#
# _framework density 24.908090000000001
#
# number of rings (size 3 to 8) (size 9 to 14) (size 15 to 20)
#    2.000    0.667    0.000    1.000    0.000    5.333 
#    0.000    8.333   22.000    0.000    0.000    0.000 
#    0.000    0.000    0.000    0.000    0.000    0.000 
#
# Total GULP energy -134145.959449 kJ/mol
# GULP energy per Si atom -5589.414977 kJ/mol
# Density = 2.485140 g / cm^3
# Si number density = 24.908090 Si / 1000 Ang^3
#
#
#
# Elastic Constant Matrix: (Units=GPa)
#
#
# Indices 1 2 3 4 5 6 
#
# 1 166.7047 21.1769 26.7042 0.0000 0.0000 0.0000
# 2 21.1769 37.1111 4.3499 0.0000 0.0000 0.0000
# 3 26.7042 4.3499 121.0838 0.0000 0.0000 0.0000
# 4 0.0000 0.0000 0.0000 59.1856 0.0000 0.0000
# 5 0.0000 0.0000 0.0000 0.0000 36.2984 0.0000
# 6 0.0000 0.0000 0.0000 0.0000 0.0000 17.6584
#
#
#
# Elastic Compliance Matrix: (Units=1/GPa)
#
#
# Indices 1 2 3 4 5 6 
#
# 1 0.006678 -0.003653 -0.001341 0.000000 0.000000 0.000000
# 2 -0.003653 0.029059 -0.000238 0.000000 0.000000 0.000000
# 3 -0.001341 -0.000238 0.008563 0.000000 0.000000 0.000000
# 4 0.000000 0.000000 0.000000 0.016896 0.000000 0.000000
# 5 0.000000 0.000000 0.000000 0.000000 0.027549 0.000000
# 6 0.000000 0.000000 0.000000 0.000000 0.000000 0.056630
#
#
# Mechanical properties :
#
#
# Convention : Reuss Voigt Hill
#
# Bulk Modulus (GPa) = 29.55642 47.70685 38.63163
# Shear Modulus (GPa) = 29.91881 40.80638 35.36259
#
# Velocity S-wave (km/s) = 3.46955 4.05196 3.77201
# Velocity P-wave (km/s) = 5.28605 6.40983 5.87487
#
# Compressibility (1/GPa) = 0.03383360
#
# Stress axis : x y z
#
# Youngs Moduli (GPa) = 149.75450 34.41310 116.77945
#
# Poissons Ratio (x) = 0.12572 0.15665
# Poissons Ratio (y) = 0.54709 0.02782
# Poissons Ratio (z) = 0.20089 0.00820
#
# Static dielectric constant tensor:
#      x y z
#    x 1.921240 0.000000 0.000000 
#    y 0.000000 2.037440 0.000000 
#    z 0.000000 0.000000 1.958930 
# 
# From -- ./inp_files/1795.got.cif
#   From: 2010.05.17/outbox.cif.g08.bks.cpg/sg56_1_cif.got.tgz:1795.got - 2010.06.03 13:42:01.
