data_PCOD9431861
_publ_section_title
;
Structure prediction by ZEFSAII (Michael W. Deem and Ramdas Pophale) SiO2 
 PCOD9431861
Probable space group: P C C N
;
_chemical_formula_sum "Si O2"
_cell_formula_units_Z 40
_cell_length_a 16.244349
_cell_length_b 8.060674
_cell_length_c 11.839690
_cell_angle_alpha 90.000000
_cell_angle_beta 90.000000
_cell_angle_gamma 90.000000
_cell_volume 1550.293764
_symmetry_space_group_name_H-M "P C C N"
_symmetry_group_IT_number 56
_symmetry_cell_setting 'orthorhombic'
loop_
_space_group_symop_operation_xyz
x,y,z
1/2-x,1/2-y,z
1/2+x,-y,1/2-z
-x,1/2+y,1/2-z
-x,-y,-z
1/2+x,1/2+y,-z
1/2-x,y,1/2+z
x,1/2-y,1/2+z
loop_
_atom_site_type_symbol
_atom_site_label
_atom_site_fract_x
_atom_site_fract_y
_atom_site_fract_z
Si Si1 0.247257 0.924753 0.947543
Si Si2 0.417831 0.532771 0.810007
Si Si3 0.083272 0.613406 0.864988
Si Si4 0.473282 0.264131 0.440696
Si Si5 0.829860 0.672326 0.883115
O O1 0.250000 0.750000 0.012135
O O2 0.318856 0.903479 0.854544
O O3 0.160969 0.956724 0.892108
O O4 0.277610 0.066401 0.028134
O O5 0.441446 0.724941 0.793203
O O6 0.479666 0.410311 0.876022
O O7 0.384119 0.437482 0.701195
O O8 0.051236 0.423845 0.862212
O O9 0.052815 0.675356 0.989368
O O10 0.400085 0.245006 0.536043
O O11 0.750000 0.750000 0.817574
#
# Coordination Sequence:
#
# PCOD9431861 Si02
#       5
#     8   8   8   8   8
#     4   9  20  40  62  86 119 155 199 254 305 358
#     4  11  22  40  64  89 121 162 205 248 311 365
#     4   9  21  40  64  87 119 161 197 253 309 367
#     4  10  21  44  63  87 127 161 200 254 315 363
#     4  11  23  37  60  92 117 159 207 250 297 372
#
# _framework density 25.801561
#
# number of rings (size 3 to 8) (size 9 to 14) (size 15 to 20)
#    0.000    2.000    2.000    0.600    5.600    2.400 
#   10.800    0.000    0.000    0.000    0.000    0.000 
#    0.000    0.000    0.000    0.000    0.000    0.000 
#
# Total GULP energy -223278.052170 kJ/mol
# GULP energy per Si atom -5581.951304 kJ/mol
# Density = 2.574284 g / cm^3
# Si number density = 25.801561 Si / 1000 Ang^3
#
#
#
# Elastic Constant Matrix: (Units=GPa)
#
#
# Indices 1 2 3 4 5 6 
#
# 1 91.6112 32.9424 10.2711 0.0000 0.0000 0.0000
# 2 32.9424 118.2872 33.0125 0.0000 0.0000 0.0000
# 3 10.2711 33.0125 46.0145 0.0000 0.0000 0.0000
# 4 0.0000 0.0000 0.0000 26.5159 0.0000 0.0000
# 5 0.0000 0.0000 0.0000 0.0000 32.2539 0.0000
# 6 0.0000 0.0000 0.0000 0.0000 0.0000 46.4888
#
#
#
# Elastic Compliance Matrix: (Units=1/GPa)
#
#
# Indices 1 2 3 4 5 6 
#
# 1 0.012135 -0.003280 -0.000355 0.000000 0.000000 0.000000
# 2 -0.003280 0.011457 -0.007488 0.000000 0.000000 0.000000
# 3 -0.000355 -0.007488 0.027183 0.000000 0.000000 0.000000
# 4 0.000000 0.000000 0.000000 0.037713 0.000000 0.000000
# 5 0.000000 0.000000 0.000000 0.000000 0.031004 0.000000
# 6 0.000000 0.000000 0.000000 0.000000 0.000000 0.021511
#
#
# Mechanical properties :
#
#
# Convention : Reuss Voigt Hill
#
# Bulk Modulus (GPa) = 35.05171 45.37388 40.21279
# Shear Modulus (GPa) = 28.94186 33.03083 30.98635
#
# Velocity S-wave (km/s) = 3.35283 3.58185 3.46923
# Velocity P-wave (km/s) = 5.34820 5.89323 5.62731
#
# Compressibility (1/GPa) = 0.02852928
#
# Stress axis : x y z
#
# Youngs Moduli (GPa) = 82.40533 87.28060 36.78705
#
# Poissons Ratio (x) = 0.28632 0.01307
# Poissons Ratio (y) = 0.27033 0.27545
# Poissons Ratio (z) = 0.02927 0.65353
#
# Static dielectric constant tensor:
#      x y z
#    x 2.081860 0.000000 0.000000 
#    y 0.000000 2.166670 0.000000 
#    z 0.000000 0.000000 2.032700 
# 
# From -- ./inp_files/6161.got.cif
#   From: 2010.05.17/outbox.cif.g08.bks.cpg/sg56_4_cif.got.tgz:6161.got - 2010.06.03 13:42:01.
