data_PCOD9431251
_publ_section_title
;
Structure prediction by ZEFSAII (Michael W. Deem and Ramdas Pophale) SiO2 
 PCOD9431251
Probable space group: P C C N
;
_chemical_formula_sum "Si O2"
_cell_formula_units_Z 40
_cell_length_a 20.058793
_cell_length_b 14.432447
_cell_length_c 5.095706
_cell_angle_alpha 90.000000
_cell_angle_beta 90.000000
_cell_angle_gamma 90.000000
_cell_volume 1475.193979
_symmetry_space_group_name_H-M "P C C N"
_symmetry_group_IT_number 56
_symmetry_cell_setting 'orthorhombic'
loop_
_space_group_symop_operation_xyz
x,y,z
1/2-x,1/2-y,z
1/2+x,-y,1/2-z
-x,1/2+y,1/2-z
-x,-y,-z
1/2+x,1/2+y,-z
1/2-x,y,1/2+z
x,1/2-y,1/2+z
loop_
_atom_site_type_symbol
_atom_site_label
_atom_site_fract_x
_atom_site_fract_y
_atom_site_fract_z
Si Si1 0.992163 0.804845 0.710427
Si Si2 0.346431 0.503067 0.099241
Si Si3 0.929617 0.471726 0.876015
Si Si4 0.834389 0.688007 0.248395
Si Si5 0.322909 0.794587 0.413872
O O1 0.000403 0.780777 0.405835
O O2 0.044643 0.882819 0.788047
O O3 0.914512 0.832440 0.743257
O O4 0.381944 0.535184 0.370775
O O5 0.304475 0.412551 0.182382
O O6 0.315006 0.597240 0.979410
O O7 0.393226 0.470777 0.852709
O O8 0.000000 0.500000 0.000000
O O9 0.820644 0.763827 0.471820
O O10 0.250000 0.750000 0.377729
O O11 0.356487 0.762970 0.145060
#
# Coordination Sequence:
#
# PCOD9431251 Si02
#       5
#     8   8   8   8   8
#     4  10  21  34  50  71 110 167 215 260 306 353
#     4  12  24  38  64  89 123 171 220 271 332 399
#     4  12  24  36  53  84 128 169 221 267 319 377
#     4  10  21  36  55  81 118 163 214 251 298 379
#     4  10  23  45  70  98 128 161 213 286 355 422
#
# _framework density 27.115079999999999
#
# number of rings (size 3 to 8) (size 9 to 14) (size 15 to 20)
#    0.000    1.200    2.000    4.200    5.600    4.800 
#    0.000    0.000    0.000    0.000    0.000   16.800 
#    0.000    0.000    0.000    0.000    0.000    0.000 
#
# Total GULP energy -223812.882106 kJ/mol
# GULP energy per Si atom -5595.322053 kJ/mol
# Density = 2.705337 g / cm^3
# Si number density = 27.115080 Si / 1000 Ang^3
#
#
#
# Elastic Constant Matrix: (Units=GPa)
#
#
# Indices 1 2 3 4 5 6 
#
# 1 67.2711 15.2426 10.3948 0.0000 0.0000 0.0000
# 2 15.2426 136.6997 8.0016 0.0000 0.0000 0.0000
# 3 10.3948 8.0016 173.1552 0.0000 0.0000 0.0000
# 4 0.0000 0.0000 0.0000 49.9034 0.0000 0.0000
# 5 0.0000 0.0000 0.0000 0.0000 65.6956 0.0000
# 6 0.0000 0.0000 0.0000 0.0000 0.0000 26.7633
#
#
#
# Elastic Compliance Matrix: (Units=1/GPa)
#
#
# Indices 1 2 3 4 5 6 
#
# 1 0.015373 -0.001665 -0.000846 0.000000 0.000000 0.000000
# 2 -0.001665 0.007515 -0.000247 0.000000 0.000000 0.000000
# 3 -0.000846 -0.000247 0.005837 0.000000 0.000000 0.000000
# 4 0.000000 0.000000 0.000000 0.020039 0.000000 0.000000
# 5 0.000000 0.000000 0.000000 0.000000 0.015222 0.000000
# 6 0.000000 0.000000 0.000000 0.000000 0.000000 0.037365
#
#
# Mechanical properties :
#
#
# Convention : Reuss Voigt Hill
#
# Bulk Modulus (GPa) = 43.08491 49.37823 46.23157
# Shear Modulus (GPa) = 43.62868 51.37160 47.50014
#
# Velocity S-wave (km/s) = 4.01561 4.35740 4.18999
# Velocity P-wave (km/s) = 6.11754 6.60046 6.36358
#
# Compressibility (1/GPa) = 0.02320998
#
# Stress axis : x y z
#
# Youngs Moduli (GPa) = 65.04855 133.06016 171.30971
#
# Poissons Ratio (x) = 0.22150 0.14492
# Poissons Ratio (y) = 0.10828 0.04238
# Poissons Ratio (z) = 0.05503 0.03291
#
# Static dielectric constant tensor:
#      x y z
#    x 1.966530 0.000000 0.000000 
#    y 0.000000 2.281650 0.000000 
#    z 0.000000 0.000000 2.099510 
# 
# From -- ./inp_files/1314.got.cif
#   From: 2010.05.17/outbox.cif.g08.bks.cpg/sg56_1_cif.got.tgz:1314.got - 2010.06.03 13:42:01.
