data_PCOD9431763
_publ_section_title
;
Structure prediction by ZEFSAII (Michael W. Deem and Ramdas Pophale) SiO2 
 PCOD9431763
Probable space group: P C C N
;
_chemical_formula_sum "Si O2"
_cell_formula_units_Z 24
_cell_length_a 7.198094
_cell_length_b 5.404666
_cell_length_c 25.431665
_cell_angle_alpha 90.000000
_cell_angle_beta 90.000000
_cell_angle_gamma 90.000000
_cell_volume 989.375538
_symmetry_space_group_name_H-M "P C C N"
_symmetry_group_IT_number 56
_symmetry_cell_setting 'orthorhombic'
loop_
_space_group_symop_operation_xyz
x,y,z
1/2-x,1/2-y,z
1/2+x,-y,1/2-z
-x,1/2+y,1/2-z
-x,-y,-z
1/2+x,1/2+y,-z
1/2-x,y,1/2+z
x,1/2-y,1/2+z
loop_
_atom_site_type_symbol
_atom_site_label
_atom_site_fract_x
_atom_site_fract_y
_atom_site_fract_z
Si Si1 0.049724 0.994980 0.606309
Si Si2 0.541546 0.843083 0.220299
Si Si3 0.529116 0.501221 0.937948
O O1 0.951898 0.755092 0.583204
O O2 0.058269 0.947971 0.668273
O O3 0.957633 0.251891 0.590017
O O4 0.253345 0.999561 0.579344
O O5 0.750000 0.750000 0.208113
O O6 0.449949 0.588847 0.242637
O O7 0.500000 0.500000 0.000000
#
# Coordination Sequence:
#
# PCOD9431763 Si02
#       3
#     8   8   8
#     4  10  23  43  68 104 142 189 245 311 375 451
#     4  12  28  48  78 110 153 203 261 320 392 466
#     4  10  21  41  72 100 138 192 245 305 375 449
#
# _framework density 24.257724
#
# number of rings (size 3 to 8) (size 9 to 14) (size 15 to 20)
#    0.000    1.333    0.000    4.000   14.000    0.000 
#   18.000    0.000    0.000    0.000    0.000    0.000 
#    0.000    0.000    0.000    0.000    0.000    0.000 
#
# Total GULP energy -134149.190780 kJ/mol
# GULP energy per Si atom -5589.549616 kJ/mol
# Density = 2.420251 g / cm^3
# Si number density = 24.257724 Si / 1000 Ang^3
#
#
#
# Elastic Constant Matrix: (Units=GPa)
#
#
# Indices 1 2 3 4 5 6 
#
# 1 140.9254 20.0470 40.6656 0.0000 0.0000 0.0000
# 2 20.0470 294.1418 83.8126 0.0000 0.0000 0.0000
# 3 40.6656 83.8126 191.5546 0.0000 0.0000 0.0000
# 4 0.0000 0.0000 0.0000 57.7890 0.0000 0.0000
# 5 0.0000 0.0000 0.0000 0.0000 37.4520 0.0000
# 6 0.0000 0.0000 0.0000 0.0000 0.0000 -14.6554
#
#
#
# Elastic Compliance Matrix: (Units=1/GPa)
#
#
# Indices 1 2 3 4 5 6 
#
# 1 0.007560 -0.000066 -0.001576 0.000000 0.000000 0.000000
# 2 -0.000066 0.003885 -0.001686 0.000000 0.000000 0.000000
# 3 -0.001576 -0.001686 0.006293 0.000000 0.000000 0.000000
# 4 0.000000 0.000000 0.000000 0.017304 0.000000 0.000000
# 5 0.000000 0.000000 0.000000 0.000000 0.026701 0.000000
# 6 0.000000 0.000000 0.000000 0.000000 0.000000 -0.068234
#
#
# Mechanical properties :
#
#
# Convention : Reuss Voigt Hill
#
# Bulk Modulus (GPa) = 90.23930 101.74137 95.99034
# Shear Modulus (GPa) = 1296.14113 48.25688 672.19900
#
# Velocity S-wave (km/s) = 23.14046 4.46504 16.66460
# Velocity P-wave (km/s) = 27.40904 8.28342 20.24686
#
# Compressibility (1/GPa) = 0.01108165
#
# Stress axis : x y z
#
# Youngs Moduli (GPa) = 132.27268 257.43209 158.91876
#
# Poissons Ratio (x) = 0.01704 0.25046
# Poissons Ratio (y) = 0.00876 0.26787
# Poissons Ratio (z) = 0.20846 0.43392
#
# Static dielectric constant tensor:
#      x y z
#    x 1.887990 0.000000 0.000000 
#    y 0.000000 1.962120 0.000000 
#    z 0.000000 0.000000 1.940040 
# 
# From -- ./inp_files/19736.got.cif
#   From: 2010.05.17/outbox.cif.g08.bks.cpg/sg56_10_cif.got.tgz:19736.got - 2010.06.03 13:42:01.
