data_PCOD9431365
_publ_section_title
;
Structure prediction by ZEFSAII (Michael W. Deem and Ramdas Pophale) SiO2 
 PCOD9431365
Probable space group: P C C N
;
_chemical_formula_sum "Si O2"
_cell_formula_units_Z 32
_cell_length_a 4.900775
_cell_length_b 25.498744
_cell_length_c 9.124318
_cell_angle_alpha 90.000000
_cell_angle_beta 90.000000
_cell_angle_gamma 90.000000
_cell_volume 1140.207690
_symmetry_space_group_name_H-M "P C C N"
_symmetry_group_IT_number 56
_symmetry_cell_setting 'orthorhombic'
loop_
_space_group_symop_operation_xyz
x,y,z
1/2-x,1/2-y,z
1/2+x,-y,1/2-z
-x,1/2+y,1/2-z
-x,-y,-z
1/2+x,1/2+y,-z
1/2-x,y,1/2+z
x,1/2-y,1/2+z
loop_
_atom_site_type_symbol
_atom_site_label
_atom_site_fract_x
_atom_site_fract_y
_atom_site_fract_z
Si Si1 0.558376 0.561205 0.022256
Si Si2 0.121144 0.191923 0.132739
Si Si3 0.515100 0.539754 0.725823
Si Si4 0.889157 0.344213 0.315427
O O1 0.489869 0.580346 0.859597
O O2 0.791004 0.505601 0.769736
O O3 0.868943 0.564180 0.075833
O O4 0.380048 0.594178 0.137020
O O5 0.250000 0.250000 0.133235
O O6 0.116505 0.340533 0.189158
O O7 0.879903 0.183956 0.253391
O O8 0.006308 0.180234 0.968701
O O9 0.000000 0.500000 0.500000
#
# Coordination Sequence:
#
# PCOD9431365 Si02
#       4
#     8   8   8   8
#     4  10  23  41  67 104 150 195 242 298 361 454
#     4  12  28  52  78 112 150 194 257 330 392 459
#     4  10  21  37  60  93 141 200 246 291 354 427
#     4  12  27  48  80 115 153 203 255 313 395 468
#
# _framework density 28.065059999999999
#
# number of rings (size 3 to 8) (size 9 to 14) (size 15 to 20)
#    0.000    1.000    0.000    5.250    0.000   18.000 
#    0.000    1.250    0.000    0.000    0.000    0.000 
#    0.000    0.000    0.000    0.000    0.000    0.000 
#
# Total GULP energy -178991.957553 kJ/mol
# GULP energy per Si atom -5593.498674 kJ/mol
# Density = 2.800118 g / cm^3
# Si number density = 28.065060 Si / 1000 Ang^3
#
#
#
# Elastic Constant Matrix: (Units=GPa)
#
#
# Indices 1 2 3 4 5 6 
#
# 1 144.2920 -4.5108 11.3499 0.0000 0.0000 0.0000
# 2 -4.5108 122.9314 15.1339 0.0000 0.0000 0.0000
# 3 11.3499 15.1339 139.9839 0.0000 0.0000 0.0000
# 4 0.0000 0.0000 0.0000 42.2079 0.0000 0.0000
# 5 0.0000 0.0000 0.0000 0.0000 66.8547 0.0000
# 6 0.0000 0.0000 0.0000 0.0000 0.0000 13.3173
#
#
#
# Elastic Compliance Matrix: (Units=1/GPa)
#
#
# Indices 1 2 3 4 5 6 
#
# 1 0.006988 0.000331 -0.000602 0.000000 0.000000 0.000000
# 2 0.000331 0.008260 -0.000920 0.000000 0.000000 0.000000
# 3 -0.000602 -0.000920 0.007292 0.000000 0.000000 0.000000
# 4 0.000000 0.000000 0.000000 0.023692 0.000000 0.000000
# 5 0.000000 0.000000 0.000000 0.000000 0.014958 0.000000
# 6 0.000000 0.000000 0.000000 0.000000 0.000000 0.075090
#
#
# Mechanical properties :
#
#
# Convention : Reuss Voigt Hill
#
# Bulk Modulus (GPa) = 49.61076 50.12813 49.86944
# Shear Modulus (GPa) = 34.39200 50.15826 42.27513
#
# Velocity S-wave (km/s) = 3.50442 4.23213 3.88535
# Velocity P-wave (km/s) = 5.83867 6.46386 6.15920
#
# Compressibility (1/GPa) = 0.02015692
#
# Stress axis : x y z
#
# Youngs Moduli (GPa) = 143.10030 121.06557 137.13740
#
# Poissons Ratio (x) = -0.04002 0.08260
# Poissons Ratio (y) = -0.04731 0.12614
# Poissons Ratio (z) = 0.08619 0.11136
#
# Static dielectric constant tensor:
#      x y z
#    x 2.564990 0.000000 0.000000 
#    y 0.000000 2.345950 0.000000 
#    z 0.000000 0.000000 2.481560 
# 
# From -- ./inp_files/1550.got.cif
#   From: 2010.05.17/outbox.cif.g08.bks.cpg/sg56_1_cif.got.tgz:1550.got - 2010.06.03 13:42:01.
