data_PCOD9431329
_publ_section_title
;
Structure prediction by ZEFSAII (Michael W. Deem and Ramdas Pophale) SiO2 
 PCOD9431329
Probable space group: P C C N
;
_chemical_formula_sum "Si O2"
_cell_formula_units_Z 60
_cell_length_a 25.247916
_cell_length_b 8.017792
_cell_length_c 13.768100
_cell_angle_alpha 90.000000
_cell_angle_beta 90.000000
_cell_angle_gamma 90.000000
_cell_volume 2787.111439
_symmetry_space_group_name_H-M "P C C N"
_symmetry_group_IT_number 56
_symmetry_cell_setting 'orthorhombic'
loop_
_space_group_symop_operation_xyz
x,y,z
1/2-x,1/2-y,z
1/2+x,-y,1/2-z
-x,1/2+y,1/2-z
-x,-y,-z
1/2+x,1/2+y,-z
1/2-x,y,1/2+z
x,1/2-y,1/2+z
loop_
_atom_site_type_symbol
_atom_site_label
_atom_site_fract_x
_atom_site_fract_y
_atom_site_fract_z
Si Si1 0.054289 0.861745 0.271415
Si Si2 0.288267 0.908389 0.267663
Si Si3 0.369268 0.718799 0.910041
Si Si4 0.750000 0.750000 0.823339
Si Si5 0.446890 0.075959 0.450172
Si Si6 0.137817 0.151733 0.115305
Si Si7 0.871018 0.247840 0.870134
Si Si8 0.051813 0.243808 0.245576
O O1 0.106488 0.855898 0.338249
O O2 0.071206 0.746202 0.180047
O O3 0.997854 0.813129 0.314588
O O4 0.045311 0.047238 0.237861
O O5 0.250000 0.750000 0.257162
O O6 0.317474 0.876119 0.370875
O O7 0.333743 0.868475 0.189700
O O8 0.261673 0.085545 0.243275
O O9 0.415607 0.583305 0.909943
O O10 0.365683 0.788416 0.017505
O O11 0.802037 0.784743 0.888872
O O12 0.404776 0.156350 0.526796
O O13 0.454007 0.191651 0.355599
O O14 0.500000 0.000000 0.500000
O O15 0.109684 0.262577 0.199404
O O16 0.142526 0.951415 0.136575
#
# Coordination Sequence:
#
# PCOD9431329 Si02
#       8
#     8   8   8   4   8   8   8   8
#     4  10  21  36  63  94 128 172 210 273 331 396
#     4  11  23  42  68  94 133 176 223 280 336 397
#     4  10  21  40  64  97 124 172 219 263 339 403
#     4  12  24  42  68  96 132 176 224 276 336 400
#     4  11  22  42  66  95 134 173 217 282 344 404
#     4  10  22  40  63  91 130 174 220 274 337 403
#     4   9  20  42  64  88 134 171 213 274 341 388
#     4  11  21  38  62  91 129 167 216 266 327 402
#
# _framework density 21.527664000000001
#
# number of rings (size 3 to 8) (size 9 to 14) (size 15 to 20)
#    0.000    1.600    1.333    4.800    0.000    2.667 
#    0.000   10.667    0.000    0.000    0.000    0.000 
#    0.000    0.000    0.000    0.000    0.000    0.000 
#
# Total GULP energy -334369.531514 kJ/mol
# GULP energy per Si atom -5572.825525 kJ/mol
# Density = 2.147867 g / cm^3
# Si number density = 21.527664 Si / 1000 Ang^3
#
#
#
# Elastic Constant Matrix: (Units=GPa)
#
#
# Indices 1 2 3 4 5 6 
#
# 1 126.6243 22.1919 18.5633 0.0000 0.0000 0.0000
# 2 22.1919 35.0468 -12.8247 0.0000 0.0000 0.0000
# 3 18.5633 -12.8247 84.8207 0.0000 0.0000 0.0000
# 4 0.0000 0.0000 0.0000 24.2221 0.0000 0.0000
# 5 0.0000 0.0000 0.0000 0.0000 21.5087 0.0000
# 6 0.0000 0.0000 0.0000 0.0000 0.0000 29.0515
#
#
#
# Elastic Compliance Matrix: (Units=1/GPa)
#
#
# Indices 1 2 3 4 5 6 
#
# 1 0.009645 -0.007282 -0.003212 0.000000 0.000000 0.000000
# 2 -0.007282 0.035703 0.006992 0.000000 0.000000 0.000000
# 3 -0.003212 0.006992 0.013550 0.000000 0.000000 0.000000
# 4 0.000000 0.000000 0.000000 0.041285 0.000000 0.000000
# 5 0.000000 0.000000 0.000000 0.000000 0.046493 0.000000
# 6 0.000000 0.000000 0.000000 0.000000 0.000000 0.034422
#
#
# Mechanical properties :
#
#
# Convention : Reuss Voigt Hill
#
# Bulk Modulus (GPa) = 19.27043 33.59476 26.43260
# Shear Modulus (GPa) = 24.34296 29.52720 26.93508
#
# Velocity S-wave (km/s) = 3.36635 3.70752 3.54105
# Velocity P-wave (km/s) = 4.90720 5.82811 5.38737
#
# Compressibility (1/GPa) = 0.05189297
#
# Stress axis : x y z
#
# Youngs Moduli (GPa) = 103.68604 28.00885 73.80261
#
# Poissons Ratio (x) = 0.20397 0.23704
# Poissons Ratio (y) = 0.75507 -0.51602
# Poissons Ratio (z) = 0.33302 -0.19584
#
# Static dielectric constant tensor:
#      x y z
#    x 1.870650 0.000000 0.000000 
#    y 0.000000 1.774290 0.000000 
#    z 0.000000 0.000000 1.909710 
# 
# From -- ./inp_files/13228.got.cif
#   From: 2010.05.17/outbox.cif.g08.bks.cpg/sg56_7_cif.got.tgz:13228.got - 2010.06.03 13:42:01.
