data_PCOD9431542
_publ_section_title
;
Structure prediction by ZEFSAII (Michael W. Deem and Ramdas Pophale) SiO2 
 PCOD9431542
Probable space group: P C C N
;
_chemical_formula_sum "Si O2"
_cell_formula_units_Z 32
_cell_length_a 4.930464
_cell_length_b 8.292160
_cell_length_c 34.797900
_cell_angle_alpha 90.000000
_cell_angle_beta 90.000000
_cell_angle_gamma 90.000000
_cell_volume 1422.684177
_symmetry_space_group_name_H-M "P C C N"
_symmetry_group_IT_number 56
_symmetry_cell_setting 'orthorhombic'
loop_
_space_group_symop_operation_xyz
x,y,z
1/2-x,1/2-y,z
1/2+x,-y,1/2-z
-x,1/2+y,1/2-z
-x,-y,-z
1/2+x,1/2+y,-z
1/2-x,y,1/2+z
x,1/2-y,1/2+z
loop_
_atom_site_type_symbol
_atom_site_label
_atom_site_fract_x
_atom_site_fract_y
_atom_site_fract_z
Si Si1 0.230445 0.059667 0.601621
Si Si2 0.634459 0.576314 0.732709
Si Si3 0.227394 0.559890 0.348286
Si Si4 0.983224 0.138249 0.968530
O O1 0.250000 0.250000 0.590431
O O2 0.419627 0.034600 0.638872
O O3 0.923937 0.028429 0.615199
O O4 0.355238 0.944526 0.569445
O O5 0.750000 0.750000 0.743511
O O6 0.325361 0.549276 0.744430
O O7 0.682174 0.543082 0.687857
O O8 0.250000 0.750000 0.338657
O O9 0.750000 0.250000 0.984965
O O10 0.250000 0.250000 0.962537
O O11 0.000000 0.000000 0.000000
#
# Coordination Sequence:
#
# PCOD9431542 Si02
#       4
#     8   8   8   8
#     4  10  22  41  65  93 128 168 211 261 322 383
#     4  12  25  42  65  94 129 170 217 269 322 383
#     4  10  21  39  64  93 127 167 210 263 323 384
#     4  12  26  44  68  98 133 173 216 267 319 382
#
# _framework density 22.492694
#
# number of rings (size 3 to 8) (size 9 to 14) (size 15 to 20)
#    0.000    1.000    0.000    6.750    0.000    8.000 
#    0.000    0.000    0.000    0.000    0.000    0.000 
#    0.000    0.000    0.000    0.000    0.000    0.000 
#
# Total GULP energy -179027.473846 kJ/mol
# GULP energy per Si atom -5594.608558 kJ/mol
# Density = 2.244150 g / cm^3
# Si number density = 22.492694 Si / 1000 Ang^3
#
#
#
# Elastic Constant Matrix: (Units=GPa)
#
#
# Indices 1 2 3 4 5 6 
#
# 1 102.6697 34.3613 -10.2580 0.0000 0.0000 0.0000
# 2 34.3613 93.8182 37.7714 0.0000 0.0000 0.0000
# 3 -10.2580 37.7714 44.1605 0.0000 0.0000 0.0000
# 4 0.0000 0.0000 0.0000 29.7893 0.0000 0.0000
# 5 0.0000 0.0000 0.0000 0.0000 34.4294 0.0000
# 6 0.0000 0.0000 0.0000 0.0000 0.0000 44.5420
#
#
#
# Elastic Compliance Matrix: (Units=1/GPa)
#
#
# Indices 1 2 3 4 5 6 
#
# 1 0.014278 -0.010012 0.011880 0.000000 0.000000 0.000000
# 2 -0.010012 0.023278 -0.022236 0.000000 0.000000 0.000000
# 3 0.011880 -0.022236 0.044423 0.000000 0.000000 0.000000
# 4 0.000000 0.000000 0.000000 0.033569 0.000000 0.000000
# 5 0.000000 0.000000 0.000000 0.000000 0.029045 0.000000
# 6 0.000000 0.000000 0.000000 0.000000 0.000000 0.022451
#
#
# Mechanical properties :
#
#
# Convention : Reuss Voigt Hill
#
# Bulk Modulus (GPa) = 24.24640 40.48866 32.36753
# Shear Modulus (GPa) = 22.57047 33.67038 28.12043
#
# Velocity S-wave (km/s) = 3.17118 3.87324 3.53966
# Velocity P-wave (km/s) = 4.92052 6.16786 5.57916
#
# Compressibility (1/GPa) = 0.04124324
#
# Stress axis : x y z
#
# Youngs Moduli (GPa) = 70.03825 42.95846 22.51069
#
# Poissons Ratio (x) = 0.43012 -0.26744
# Poissons Ratio (y) = 0.70125 0.50055
# Poissons Ratio (z) = -0.83208 0.95523
#
# Static dielectric constant tensor:
#      x y z
#    x 1.832920 0.000000 0.000000 
#    y 0.000000 1.733740 0.000000 
#    z 0.000000 0.000000 1.803840 
# 
# From -- ./inp_files/22653.got.cif
#   From: 2010.05.17/outbox.cif.g08.bks.cpg/sg56_12_cif.got.tgz:22653.got - 2010.06.03 13:42:01.
