data_PCOD9431282
_publ_section_title
;
Structure prediction by ZEFSAII (Michael W. Deem and Ramdas Pophale) SiO2 
 PCOD9431282
Probable space group: P C C N
;
_chemical_formula_sum "Si O2"
_cell_formula_units_Z 48
_cell_length_a 15.828832
_cell_length_b 18.394178
_cell_length_c 7.820122
_cell_angle_alpha 90.000000
_cell_angle_beta 90.000000
_cell_angle_gamma 90.000000
_cell_volume 2276.893844
_symmetry_space_group_name_H-M "P C C N"
_symmetry_group_IT_number 56
_symmetry_cell_setting 'orthorhombic'
loop_
_space_group_symop_operation_xyz
x,y,z
1/2-x,1/2-y,z
1/2+x,-y,1/2-z
-x,1/2+y,1/2-z
-x,-y,-z
1/2+x,1/2+y,-z
1/2-x,y,1/2+z
x,1/2-y,1/2+z
loop_
_atom_site_type_symbol
_atom_site_label
_atom_site_fract_x
_atom_site_fract_y
_atom_site_fract_z
Si Si1 0.527215 0.612129 0.386668
Si Si2 0.465068 0.581750 0.010351
Si Si3 0.875370 0.034769 0.484419
Si Si4 0.621148 0.638730 0.892242
Si Si5 0.344675 0.225050 0.947987
Si Si6 0.192150 0.982210 0.128295
O O1 0.491060 0.613012 0.194978
O O2 0.577693 0.536435 0.412746
O O3 0.442868 0.600162 0.503080
O O4 0.592669 0.675603 0.437116
O O5 0.365070 0.571027 0.011782
O O6 0.500000 0.500000 0.000000
O O7 0.522248 0.619783 0.867459
O O8 0.788659 0.041349 0.380917
O O9 0.845007 0.019613 0.679753
O O10 0.656555 0.680806 0.728108
O O11 0.675486 0.566248 0.928203
O O12 0.618594 0.694262 0.049298
O O13 0.250000 0.250000 0.000326
#
# Coordination Sequence:
#
# PCOD9431282 Si02
#       6
#     8   8   8   8   8   8
#     4  10  21  40  58  85 124 166 213 255 325 382
#     4   9  21  38  59  85 119 165 214 268 327 374
#     4  10  21  35  62  87 119 159 207 268 316 373
#     4  11  23  37  57  84 125 167 209 258 319 385
#     4  12  24  39  57  87 127 173 211 251 314 393
#     4  10  21  37  59  93 119 158 216 266 322 378
#
# _framework density 21.081351000000002
#
# number of rings (size 3 to 8) (size 9 to 14) (size 15 to 20)
#    0.000    1.667    1.667    2.500    7.000    0.000 
#    0.000    0.833    0.000    1.000    0.000    7.000 
#    0.000    0.000    0.000    0.000    0.000    0.000 
#
# Total GULP energy -267382.153991 kJ/mol
# GULP energy per Si atom -5570.461541 kJ/mol
# Density = 2.103337 g / cm^3
# Si number density = 21.081351 Si / 1000 Ang^3
#
#
#
# Elastic Constant Matrix: (Units=GPa)
#
#
# Indices 1 2 3 4 5 6 
#
# 1 153.8848 54.0285 44.2984 0.0000 0.0000 0.0000
# 2 54.0285 64.7192 26.3431 0.0000 0.0000 0.0000
# 3 44.2984 26.3431 55.6099 0.0000 0.0000 0.0000
# 4 0.0000 0.0000 0.0000 7.5606 0.0000 0.0000
# 5 0.0000 0.0000 0.0000 0.0000 25.1570 0.0000
# 6 0.0000 0.0000 0.0000 0.0000 0.0000 36.5055
#
#
#
# Elastic Compliance Matrix: (Units=1/GPa)
#
#
# Indices 1 2 3 4 5 6 
#
# 1 0.010236 -0.006475 -0.005087 0.000000 0.000000 0.000000
# 2 -0.006475 0.023238 -0.005850 0.000000 0.000000 0.000000
# 3 -0.005087 -0.005850 0.024806 0.000000 0.000000 0.000000
# 4 0.000000 0.000000 0.000000 0.132264 0.000000 0.000000
# 5 0.000000 0.000000 0.000000 0.000000 0.039750 0.000000
# 6 0.000000 0.000000 0.000000 0.000000 0.000000 0.027393
#
#
# Mechanical properties :
#
#
# Convention : Reuss Voigt Hill
#
# Bulk Modulus (GPa) = 42.63291 58.17267 50.40279
# Shear Modulus (GPa) = 16.64837 23.81421 20.23129
#
# Velocity S-wave (km/s) = 2.81325 3.36465 3.10123
# Velocity P-wave (km/s) = 5.55152 6.53825 6.06499
#
# Compressibility (1/GPa) = 0.02345606
#
# Stress axis : x y z
#
# Youngs Moduli (GPa) = 97.69569 43.03339 40.31294
#
# Poissons Ratio (x) = 0.27862 0.20506
# Poissons Ratio (y) = 0.63254 0.23585
# Poissons Ratio (z) = 0.49695 0.25177
#
# Static dielectric constant tensor:
#      x y z
#    x 1.513460 0.000000 0.000000 
#    y 0.000000 1.757000 0.000000 
#    z 0.000000 0.000000 1.871910 
# 
# From -- ./inp_files/3359.got.cif
#   From: 2010.05.17/outbox.cif.g08.bks.cpg/sg56_2_cif.got.tgz:3359.got - 2010.06.03 13:42:01.
