data_PCOD9431293
_publ_section_title
;
Structure prediction by ZEFSAII (Michael W. Deem and Ramdas Pophale) SiO2 
 PCOD9431293
Probable space group: P C C N
;
_chemical_formula_sum "Si O2"
_cell_formula_units_Z 64
_cell_length_a 19.506333
_cell_length_b 5.312091
_cell_length_c 31.846482
_cell_angle_alpha 90.000000
_cell_angle_beta 90.000000
_cell_angle_gamma 90.000000
_cell_volume 3299.913866
_symmetry_space_group_name_H-M "P C C N"
_symmetry_group_IT_number 56
_symmetry_cell_setting 'orthorhombic'
loop_
_space_group_symop_operation_xyz
x,y,z
1/2-x,1/2-y,z
1/2+x,-y,1/2-z
-x,1/2+y,1/2-z
-x,-y,-z
1/2+x,1/2+y,-z
1/2-x,y,1/2+z
x,1/2-y,1/2+z
loop_
_atom_site_type_symbol
_atom_site_label
_atom_site_fract_x
_atom_site_fract_y
_atom_site_fract_z
Si Si1 0.670935 0.767684 0.575961
Si Si2 0.532320 0.197889 0.031869
Si Si3 0.669251 0.746361 0.907639
Si Si4 0.470732 0.806766 0.303600
Si Si5 0.105948 0.405913 0.508477
Si Si6 0.612779 0.283779 0.613159
Si Si7 0.833147 0.247577 0.361520
Si Si8 0.059191 0.691974 0.207337
O O1 0.750000 0.750000 0.562523
O O2 0.622559 0.752705 0.534279
O O3 0.657089 0.536234 0.607385
O O4 0.652296 0.033936 0.597349
O O5 0.467336 0.386335 0.031970
O O6 0.551171 0.160557 0.080027
O O7 0.600168 0.312386 0.009656
O O8 0.500000 0.000000 0.000000
O O9 0.750000 0.750000 0.900017
O O10 0.657617 0.679147 0.956067
O O11 0.641978 0.512402 0.880635
O O12 0.644264 0.018645 0.892269
O O13 0.417860 0.769496 0.341388
O O14 0.435354 0.799531 0.257746
O O15 0.522520 0.570210 0.304292
O O16 0.511669 0.070827 0.306144
O O17 0.750000 0.250000 0.358718
O O18 0.869404 0.208360 0.317096
#
# Coordination Sequence:
#
# PCOD9431293 Si02
#       8
#     8   8   8   8   8   8   8   8
#     4  11  23  41  60  80 116 158 198 243 286 335
#     4  10  21  36  53  83 119 148 192 241 291 345
#     4  10  22  37  56  84 115 152 198 233 276 349
#     4  10  22  39  63  91 118 148 194 239 288 353
#     4  10  22  36  54  82 114 155 194 237 289 341
#     4  11  23  39  60  88 116 151 196 245 291 344
#     4  10  22  38  56  86 120 151 190 236 286 349
#     4  10  21  39  62  90 118 153 186 234 298 349
#
# _framework density 19.394447
#
# number of rings (size 3 to 8) (size 9 to 14) (size 15 to 20)
#    0.000    1.750    1.250    2.250    5.250    0.000 
#    0.000    3.750    0.000    1.500    0.000    0.000 
#    0.000    0.000    0.000    0.000    0.000    0.000 
#
# Total GULP energy -356587.187404 kJ/mol
# GULP energy per Si atom -5571.674803 kJ/mol
# Density = 1.935030 g / cm^3
# Si number density = 19.394447 Si / 1000 Ang^3
#
#
#
# Elastic Constant Matrix: (Units=GPa)
#
#
# Indices 1 2 3 4 5 6 
#
# 1 36.4232 16.1093 25.7959 0.0000 0.0000 0.0000
# 2 16.1093 107.9397 20.1673 0.0000 0.0000 0.0000
# 3 25.7959 20.1673 79.0093 0.0000 0.0000 0.0000
# 4 0.0000 0.0000 0.0000 19.1307 0.0000 0.0000
# 5 0.0000 0.0000 0.0000 0.0000 35.0764 0.0000
# 6 0.0000 0.0000 0.0000 0.0000 0.0000 12.3160
#
#
#
# Elastic Compliance Matrix: (Units=1/GPa)
#
#
# Indices 1 2 3 4 5 6 
#
# 1 0.036875 -0.003417 -0.011167 0.000000 0.000000 0.000000
# 2 -0.003417 0.010045 -0.001448 0.000000 0.000000 0.000000
# 3 -0.011167 -0.001448 0.016673 0.000000 0.000000 0.000000
# 4 0.000000 0.000000 0.000000 0.052272 0.000000 0.000000
# 5 0.000000 0.000000 0.000000 0.000000 0.028509 0.000000
# 6 0.000000 0.000000 0.000000 0.000000 0.000000 0.081195
#
#
# Mechanical properties :
#
#
# Convention : Reuss Voigt Hill
#
# Bulk Modulus (GPa) = 31.71835 38.61303 35.16569
# Shear Modulus (GPa) = 18.64672 24.05792 21.35232
#
# Velocity S-wave (km/s) = 3.10408 3.52583 3.32166
# Velocity P-wave (km/s) = 5.40712 6.04383 5.73432
#
# Compressibility (1/GPa) = 0.03152749
#
# Stress axis : x y z
#
# Youngs Moduli (GPa) = 27.11842 99.55201 59.97900
#
# Poissons Ratio (x) = 0.34016 0.66981
# Poissons Ratio (y) = 0.09266 0.08687
# Poissons Ratio (z) = 0.30284 0.14419
#
# Static dielectric constant tensor:
#      x y z
#    x 1.714080 0.000000 0.000000 
#    y 0.000000 1.809040 0.000000 
#    z 0.000000 0.000000 1.699540 
# 
# From -- ./inp_files/23705.got.cif
#   From: 2010.05.17/outbox.cif.g08.bks.cpg/sg56_12_cif.got.tgz:23705.got - 2010.06.03 13:42:01.
