data_PCOD9431116
_publ_section_title
;
Structure prediction by ZEFSAII (Michael W. Deem and Ramdas Pophale) SiO2 
 PCOD9431116
Probable space group: P C C N
;
_chemical_formula_sum "Si O2"
_cell_formula_units_Z 36
_cell_length_a 13.480376
_cell_length_b 8.146800
_cell_length_c 15.687476
_cell_angle_alpha 90.000000
_cell_angle_beta 90.000000
_cell_angle_gamma 90.000000
_cell_volume 1722.828847
_symmetry_space_group_name_H-M "P C C N"
_symmetry_group_IT_number 56
_symmetry_cell_setting 'orthorhombic'
loop_
_space_group_symop_operation_xyz
x,y,z
1/2-x,1/2-y,z
1/2+x,-y,1/2-z
-x,1/2+y,1/2-z
-x,-y,-z
1/2+x,1/2+y,-z
1/2-x,y,1/2+z
x,1/2-y,1/2+z
loop_
_atom_site_type_symbol
_atom_site_label
_atom_site_fract_x
_atom_site_fract_y
_atom_site_fract_z
Si Si1 0.213724 0.985691 0.781928
Si Si2 0.409354 0.173610 0.792149
Si Si3 0.035468 0.718181 0.557962
Si Si4 0.750000 0.250000 0.372370
Si Si5 0.961015 0.136206 0.122173
O O1 0.326258 0.034368 0.802292
O O2 0.150341 0.154440 0.783351
O O3 0.219469 0.898468 0.690536
O O4 0.152707 0.870620 0.846556
O O5 0.481527 0.167273 0.873325
O O6 0.473292 0.160462 0.706215
O O7 0.152855 0.709314 0.573812
O O8 0.018181 0.752636 0.458331
O O9 0.989845 0.542365 0.585072
#
# Coordination Sequence:
#
# PCOD9431116 Si02
#       5
#     8   8   8   4   8
#     4  10  22  37  65  89 121 161 207 253 311 371
#     4  10  20  42  62  90 122 164 204 254 319 372
#     4  10  22  37  62  89 124 160 203 254 317 368
#     4  12  20  38  60  90 116 158 206 254 304 372
#     4  10  20  41  62  88 124 162 202 262 309 367
#
# _framework density 20.895864
#
# number of rings (size 3 to 8) (size 9 to 14) (size 15 to 20)
#    0.000    1.778    4.444    0.000    0.000    0.889 
#    4.000    3.333    0.000    0.000    0.000    0.000 
#    0.000    0.000    0.000    0.000    0.000    0.000 
#
# Total GULP energy -200911.158434 kJ/mol
# GULP energy per Si atom -5580.865512 kJ/mol
# Density = 2.084830 g / cm^3
# Si number density = 20.895864 Si / 1000 Ang^3
#
#
#
# Elastic Constant Matrix: (Units=GPa)
#
#
# Indices 1 2 3 4 5 6 
#
# 1 145.3033 9.7459 87.5623 0.0000 0.0000 0.0000
# 2 9.7459 31.1211 13.7661 0.0000 0.0000 0.0000
# 3 87.5623 13.7661 177.1246 0.0000 0.0000 0.0000
# 4 0.0000 0.0000 0.0000 29.7590 0.0000 0.0000
# 5 0.0000 0.0000 0.0000 0.0000 14.9567 0.0000
# 6 0.0000 0.0000 0.0000 0.0000 0.0000 16.7918
#
#
#
# Elastic Compliance Matrix: (Units=1/GPa)
#
#
# Indices 1 2 3 4 5 6 
#
# 1 0.009830 -0.000962 -0.004785 0.000000 0.000000 0.000000
# 2 -0.000962 0.033371 -0.002118 0.000000 0.000000 0.000000
# 3 -0.004785 -0.002118 0.008176 0.000000 0.000000 0.000000
# 4 0.000000 0.000000 0.000000 0.033603 0.000000 0.000000
# 5 0.000000 0.000000 0.000000 0.000000 0.066860 0.000000
# 6 0.000000 0.000000 0.000000 0.000000 0.000000 0.059553
#
#
# Mechanical properties :
#
#
# Convention : Reuss Voigt Hill
#
# Bulk Modulus (GPa) = 28.05285 63.96638 46.00962
# Shear Modulus (GPa) = 20.92016 28.46649 24.69332
#
# Velocity S-wave (km/s) = 3.16755 3.69494 3.44136
# Velocity P-wave (km/s) = 5.17996 6.99156 6.15280
#
# Compressibility (1/GPa) = 0.03564700
#
# Stress axis : x y z
#
# Youngs Moduli (GPa) = 101.72878 29.96648 122.31319
#
# Poissons Ratio (x) = 0.02882 0.58524
# Poissons Ratio (y) = 0.09785 0.25907
# Poissons Ratio (z) = 0.48675 0.06347
#
# Static dielectric constant tensor:
#      x y z
#    x 1.738970 0.000000 0.000000 
#    y 0.000000 1.821790 0.000000 
#    z 0.000000 0.000000 1.743420 
# 
# From -- ./inp_files/7600.got.cif
#   From: 2010.05.17/outbox.cif.g08.bks.cpg/sg56_4_cif.got.tgz:7600.got - 2010.06.03 13:42:01.
