data_PCOD9431585
_publ_section_title
;
Structure prediction by ZEFSAII (Michael W. Deem and Ramdas Pophale) SiO2 
 PCOD9431585
Probable space group: P C C N
;
_chemical_formula_sum "Si O2"
_cell_formula_units_Z 48
_cell_length_a 14.985080
_cell_length_b 27.097426
_cell_length_c 5.266134
_cell_angle_alpha 90.000000
_cell_angle_beta 90.000000
_cell_angle_gamma 90.000000
_cell_volume 2138.351081
_symmetry_space_group_name_H-M "P C C N"
_symmetry_group_IT_number 56
_symmetry_cell_setting 'orthorhombic'
loop_
_space_group_symop_operation_xyz
x,y,z
1/2-x,1/2-y,z
1/2+x,-y,1/2-z
-x,1/2+y,1/2-z
-x,-y,-z
1/2+x,1/2+y,-z
1/2-x,y,1/2+z
x,1/2-y,1/2+z
loop_
_atom_site_type_symbol
_atom_site_label
_atom_site_fract_x
_atom_site_fract_y
_atom_site_fract_z
Si Si1 0.939057 0.365214 0.716676
Si Si2 0.546818 0.849370 0.783962
Si Si3 0.807188 0.564132 0.790741
Si Si4 0.054079 0.517478 0.249607
Si Si5 0.149823 0.728481 0.154307
Si Si6 0.286748 0.304664 0.895071
O O1 0.930869 0.423786 0.749731
O O2 0.855972 0.329158 0.778826
O O3 0.971900 0.355193 0.430976
O O4 0.010283 0.348142 0.931232
O O5 0.612851 0.896543 0.759248
O O6 0.612916 0.805423 0.703917
O O7 0.735961 0.569230 0.566520
O O8 0.852743 0.510948 0.758647
O O9 0.000000 0.500000 0.500000
O O10 0.000000 0.500000 0.000000
O O11 0.250000 0.750000 0.129390
O O12 0.105861 0.757972 0.386774
O O13 0.250000 0.250000 0.937959
O O14 0.227365 0.328555 0.670835
#
# Coordination Sequence:
#
# PCOD9431585 Si02
#       6
#     8   8   8   8   8   8
#     4  12  24  44  72 104 131 190 226 282 363 410
#     4  12  23  41  68  97 140 180 225 277 342 427
#     4  12  24  41  67 101 143 184 229 282 354 427
#     4  12  23  46  70 103 145 179 232 296 349 430
#     4  10  23  48  72  97 137 180 231 301 353 407
#     4  10  21  40  57  86 127 177 220 276 327 386
#
# _framework density 22.447201
#
# number of rings (size 3 to 8) (size 9 to 14) (size 15 to 20)
#    0.000    0.667    3.333    5.000    0.000    0.000 
#   24.000    0.000    0.000    0.000    0.000    0.000 
#    0.000    0.000    0.000    0.000    0.000    0.000 
#
# Total GULP energy -268378.859132 kJ/mol
# GULP energy per Si atom -5591.226232 kJ/mol
# Density = 2.239611 g / cm^3
# Si number density = 22.447201 Si / 1000 Ang^3
#
#
#
# Elastic Constant Matrix: (Units=GPa)
#
#
# Indices 1 2 3 4 5 6 
#
# 1 52.0022 29.3170 8.0594 0.0000 0.0000 0.0000
# 2 29.3170 138.8806 11.9317 0.0000 0.0000 0.0000
# 3 8.0594 11.9317 161.4693 0.0000 0.0000 0.0000
# 4 0.0000 0.0000 0.0000 28.5806 0.0000 0.0000
# 5 0.0000 0.0000 0.0000 0.0000 30.7274 0.0000
# 6 0.0000 0.0000 0.0000 0.0000 0.0000 53.7169
#
#
#
# Elastic Compliance Matrix: (Units=1/GPa)
#
#
# Indices 1 2 3 4 5 6 
#
# 1 0.021919 -0.004562 -0.000757 0.000000 0.000000 0.000000
# 2 -0.004562 0.008196 -0.000378 0.000000 0.000000 0.000000
# 3 -0.000757 -0.000378 0.006259 0.000000 0.000000 0.000000
# 4 0.000000 0.000000 0.000000 0.034989 0.000000 0.000000
# 5 0.000000 0.000000 0.000000 0.000000 0.032544 0.000000
# 6 0.000000 0.000000 0.000000 0.000000 0.000000 0.018616
#
#
# Mechanical properties :
#
#
# Convention : Reuss Voigt Hill
#
# Bulk Modulus (GPa) = 40.03176 50.10760 45.06968
# Shear Modulus (GPa) = 35.15100 42.80791 38.97945
#
# Velocity S-wave (km/s) = 3.96149 4.37171 4.17165
# Velocity P-wave (km/s) = 6.22872 6.91762 6.58219
#
# Compressibility (1/GPa) = 0.02498017
#
# Stress axis : x y z
#
# Youngs Moduli (GPa) = 45.62217 122.01203 159.77407
#
# Poissons Ratio (x) = 0.55662 0.12094
# Poissons Ratio (y) = 0.20813 0.06038
# Poissons Ratio (z) = 0.03453 0.04611
#
# Static dielectric constant tensor:
#      x y z
#    x 1.755170 0.000000 0.000000 
#    y 0.000000 1.938310 0.000000 
#    z 0.000000 0.000000 1.891830 
# 
# From -- ./inp_files/525.got.cif
#   From: 2010.05.17/outbox.cif.g08.bks.cpg/sg56_1_cif.got.tgz:525.got - 2010.06.03 13:42:01.
