data_PCOD9431628
_publ_section_title
;
Structure prediction by ZEFSAII (Michael W. Deem and Ramdas Pophale) SiO2 
 PCOD9431628
Probable space group: P C C N
;
_chemical_formula_sum "Si O2"
_cell_formula_units_Z 40
_cell_length_a 7.533126
_cell_length_b 8.121354
_cell_length_c 24.925168
_cell_angle_alpha 90.000000
_cell_angle_beta 90.000000
_cell_angle_gamma 90.000000
_cell_volume 1524.901414
_symmetry_space_group_name_H-M "P C C N"
_symmetry_group_IT_number 56
_symmetry_cell_setting 'orthorhombic'
loop_
_space_group_symop_operation_xyz
x,y,z
1/2-x,1/2-y,z
1/2+x,-y,1/2-z
-x,1/2+y,1/2-z
-x,-y,-z
1/2+x,1/2+y,-z
1/2-x,y,1/2+z
x,1/2-y,1/2+z
loop_
_atom_site_type_symbol
_atom_site_label
_atom_site_fract_x
_atom_site_fract_y
_atom_site_fract_z
Si Si1 0.403444 0.859872 0.712963
Si Si2 0.133171 0.439525 0.813784
Si Si3 0.189470 0.565779 0.419323
Si Si4 0.215933 0.057529 0.031495
Si Si5 0.726990 0.940832 0.859896
O O1 0.250000 0.750000 0.686428
O O2 0.310247 0.938861 0.765397
O O3 0.573304 0.741393 0.709996
O O4 0.406139 0.008563 0.671288
O O5 0.241621 0.452710 0.869622
O O6 0.944635 0.528138 0.824945
O O7 0.250000 0.750000 0.403356
O O8 0.276354 0.528998 0.477176
O O9 0.985296 0.546933 0.442051
O O10 0.250000 0.250000 0.021107
O O11 0.317129 0.982569 0.082478
O O12 0.750000 0.750000 0.870055
#
# Coordination Sequence:
#
# PCOD9431628 Si02
#       5
#     8   8   8   8   8
#     4  10  23  40  63  98 134 174 234 298 364 440
#     4  11  23  41  66  95 134 182 235 294 364 443
#     4  11  24  42  69  98 134 186 238 294 362 435
#     4  10  24  43  64  99 139 180 238 297 356 432
#     4  10  21  40  64  90 129 176 225 290 357 425
#
# _framework density 26.231204000000002
#
# number of rings (size 3 to 8) (size 9 to 14) (size 15 to 20)
#    0.000    1.600    0.000    4.200    0.000   12.000 
#    0.000    5.000    0.000    0.000    0.000    0.000 
#    0.000    0.000    0.000    0.000    0.000    0.000 
#
# Total GULP energy -222742.204636 kJ/mol
# GULP energy per Si atom -5568.555116 kJ/mol
# Density = 2.617150 g / cm^3
# Si number density = 26.231204 Si / 1000 Ang^3
#
#
#
# Elastic Constant Matrix: (Units=GPa)
#
#
# Indices 1 2 3 4 5 6 
#
# 1 91.7395 -10.5544 12.1583 0.0000 0.0000 0.0000
# 2 -10.5544 77.8753 43.4914 0.0000 0.0000 0.0000
# 3 12.1583 43.4914 170.5390 0.0000 0.0000 0.0000
# 4 0.0000 0.0000 0.0000 43.6005 0.0000 0.0000
# 5 0.0000 0.0000 0.0000 0.0000 -45.7251 0.0000
# 6 0.0000 0.0000 0.0000 0.0000 0.0000 16.5015
#
#
#
# Elastic Compliance Matrix: (Units=1/GPa)
#
#
# Indices 1 2 3 4 5 6 
#
# 1 0.011353 0.002321 -0.001401 0.000000 0.000000 0.000000
# 2 0.002321 0.015448 -0.004105 0.000000 0.000000 0.000000
# 3 -0.001401 -0.004105 0.007011 0.000000 0.000000 0.000000
# 4 0.000000 0.000000 0.000000 0.022936 0.000000 0.000000
# 5 0.000000 0.000000 0.000000 0.000000 -0.021870 0.000000
# 6 0.000000 0.000000 0.000000 0.000000 0.000000 0.060601
#
#
# Mechanical properties :
#
#
# Convention : Reuss Voigt Hill
#
# Bulk Modulus (GPa) = 36.44099 47.81606 42.12852
# Shear Modulus (GPa) = 45.04669 22.54595 33.79632
#
# Velocity S-wave (km/s) = 4.14852 2.93492 3.59332
# Velocity P-wave (km/s) = 6.07201 5.45466 5.77159
#
# Compressibility (1/GPa) = 0.02744163
#
# Stress axis : x y z
#
# Youngs Moduli (GPa) = 88.08072 64.73215 142.64148
#
# Poissons Ratio (x) = -0.15027 0.19990
# Poissons Ratio (y) = -0.20447 0.58557
# Poissons Ratio (z) = 0.12344 0.26574
#
# Static dielectric constant tensor:
#      x y z
#    x 2.300030 0.000000 0.000000 
#    y 0.000000 2.381510 0.000000 
#    z 0.000000 0.000000 2.068950 
# 
# From -- ./inp_files/20328.got.cif
#   From: 2010.05.17/outbox.cif.g08.bks.cpg/sg56_11_cif.got.tgz:20328.got - 2010.06.03 13:42:01.
