data_PCOD9431480
_publ_section_title
;
Structure prediction by ZEFSAII (Michael W. Deem and Ramdas Pophale) SiO2 
 PCOD9431480
Probable space group: P C C N
;
_chemical_formula_sum "Si O2"
_cell_formula_units_Z 60
_cell_length_a 9.116882
_cell_length_b 11.570593
_cell_length_c 24.565566
_cell_angle_alpha 90.000000
_cell_angle_beta 90.000000
_cell_angle_gamma 90.000000
_cell_volume 2591.365819
_symmetry_space_group_name_H-M "P C C N"
_symmetry_group_IT_number 56
_symmetry_cell_setting 'orthorhombic'
loop_
_space_group_symop_operation_xyz
x,y,z
1/2-x,1/2-y,z
1/2+x,-y,1/2-z
-x,1/2+y,1/2-z
-x,-y,-z
1/2+x,1/2+y,-z
1/2-x,y,1/2+z
x,1/2-y,1/2+z
loop_
_atom_site_type_symbol
_atom_site_label
_atom_site_fract_x
_atom_site_fract_y
_atom_site_fract_z
Si Si1 0.283193 0.500810 0.704612
Si Si2 0.234414 0.117900 0.912593
Si Si3 0.286858 0.385211 0.036808
Si Si4 0.587128 0.226873 0.155371
Si Si5 0.410927 0.725835 0.726952
Si Si6 0.020892 0.474082 0.635802
Si Si7 0.750000 0.750000 0.236774
Si Si8 0.466506 0.484002 0.594374
O O1 0.371449 0.591173 0.741816
O O2 0.121012 0.532085 0.681999
O O3 0.273050 0.370523 0.728874
O O4 0.373878 0.513693 0.648209
O O5 0.250000 0.250000 0.895630
O O6 0.397202 0.066424 0.913920
O O7 0.169342 0.115776 0.973837
O O8 0.128074 0.043136 0.874584
O O9 0.250000 0.250000 0.051627
O O10 0.398073 0.448873 0.077908
O O11 0.140426 0.462055 0.044263
O O12 0.750000 0.250000 0.137129
O O13 0.593261 0.194266 0.218813
O O14 0.499197 0.343876 0.154823
O O15 0.525276 0.139467 0.112629
O O16 0.250000 0.750000 0.697239
O O17 0.584288 0.731589 0.709747
#
# Coordination Sequence:
#
# PCOD9431480 Si02
#       8
#     8   8   8   8   8   8   4   8
#     4  11  25  44  68 101 132 180 227 293 347 416
#     4  11  25  42  61 101 141 186 221 275 357 430
#     4  10  21  38  69 102 137 170 230 291 348 412
#     4  11  20  38  69 100 127 169 234 300 332 400
#     4  11  27  44  68 104 141 173 238 293 354 411
#     4  11  21  41  70  95 136 178 229 284 352 415
#     4  12  24  46  74 100 142 178 234 294 362 410
#     4  11  21  41  70  97 131 175 231 285 340 412
#
# _framework density 23.153811999999999
#
# number of rings (size 3 to 8) (size 9 to 14) (size 15 to 20)
#    0.000    1.067    5.333    0.800    3.733    1.067 
#    3.600    2.000    0.000    0.000    0.000    0.000 
#    0.000    0.000    0.000    0.000    0.000    0.000 
#
# Total GULP energy -334367.638683 kJ/mol
# GULP energy per Si atom -5572.793978 kJ/mol
# Density = 2.310111 g / cm^3
# Si number density = 23.153812 Si / 1000 Ang^3
#
#
#
# Elastic Constant Matrix: (Units=GPa)
#
#
# Indices 1 2 3 4 5 6 
#
# 1 146.9913 29.4345 5.3881 0.0000 0.0000 0.0000
# 2 29.4345 80.9868 -1.0710 0.0000 0.0000 0.0000
# 3 5.3881 -1.0710 44.9588 0.0000 0.0000 0.0000
# 4 0.0000 0.0000 0.0000 24.8154 0.0000 0.0000
# 5 0.0000 0.0000 0.0000 0.0000 25.4805 0.0000
# 6 0.0000 0.0000 0.0000 0.0000 0.0000 39.2977
#
#
#
# Elastic Compliance Matrix: (Units=1/GPa)
#
#
# Indices 1 2 3 4 5 6 
#
# 1 0.007377 -0.002694 -0.000948 0.000000 0.000000 0.000000
# 2 -0.002694 0.013335 0.000641 0.000000 0.000000 0.000000
# 3 -0.000948 0.000641 0.022371 0.000000 0.000000 0.000000
# 4 0.000000 0.000000 0.000000 0.040298 0.000000 0.000000
# 5 0.000000 0.000000 0.000000 0.000000 0.039246 0.000000
# 6 0.000000 0.000000 0.000000 0.000000 0.000000 0.025447
#
#
# Mechanical properties :
#
#
# Convention : Reuss Voigt Hill
#
# Bulk Modulus (GPa) = 26.96811 37.82666 32.39739
# Shear Modulus (GPa) = 30.04131 33.86442 31.95287
#
# Velocity S-wave (km/s) = 3.60595 3.82852 3.71890
# Velocity P-wave (km/s) = 5.38607 5.99300 5.69762
#
# Compressibility (1/GPa) = 0.03708083
#
# Stress axis : x y z
#
# Youngs Moduli (GPa) = 135.55081 74.98942 44.69976
#
# Poissons Ratio (x) = 0.20201 0.04239
# Poissons Ratio (y) = 0.36515 -0.02863
# Poissons Ratio (z) = 0.12854 -0.04803
#
# Static dielectric constant tensor:
#      x y z
#    x 1.935560 0.000000 0.000000 
#    y 0.000000 1.930630 0.000000 
#    z 0.000000 0.000000 1.915700 
# 
# From -- ./inp_files/22101.got.cif
#   From: 2010.05.17/outbox.cif.g08.bks.cpg/sg56_12_cif.got.tgz:22101.got - 2010.06.03 13:42:01.
