data_PCOD9431004
_publ_section_title
;
Structure prediction by ZEFSAII (Michael W. Deem and Ramdas Pophale) SiO2 
 PCOD9431004
Probable space group: P C C N
;
_chemical_formula_sum "Si O2"
_cell_formula_units_Z 36
_cell_length_a 13.663656
_cell_length_b 5.465434
_cell_length_c 20.414952
_cell_angle_alpha 90.000000
_cell_angle_beta 90.000000
_cell_angle_gamma 90.000000
_cell_volume 1524.543908
_symmetry_space_group_name_H-M "P C C N"
_symmetry_group_IT_number 56
_symmetry_cell_setting 'orthorhombic'
loop_
_space_group_symop_operation_xyz
x,y,z
1/2-x,1/2-y,z
1/2+x,-y,1/2-z
-x,1/2+y,1/2-z
-x,-y,-z
1/2+x,1/2+y,-z
1/2-x,y,1/2+z
x,1/2-y,1/2+z
loop_
_atom_site_type_symbol
_atom_site_label
_atom_site_fract_x
_atom_site_fract_y
_atom_site_fract_z
Si Si1 0.250000 0.250000 0.621924
Si Si2 0.096179 0.913168 0.804384
Si Si3 0.118916 0.021162 0.509892
Si Si4 0.900355 0.481015 0.542226
Si Si5 0.369876 0.416882 0.239147
O O1 0.330510 0.394204 0.577984
O O2 0.189401 0.423049 0.671164
O O3 0.144709 0.659445 0.781823
O O4 0.985260 0.914177 0.777771
O O5 0.087131 0.923625 0.882177
O O6 0.146935 0.157090 0.775612
O O7 0.151168 0.750942 0.490320
O O8 0.145003 0.250433 0.464002
O O9 0.000000 0.000000 0.500000
O O10 0.000000 0.500000 0.500000
#
# Coordination Sequence:
#
# PCOD9431004 Si02
#       5
#     4   8   8   8   8
#     4  12  26  46  70 104 138 184 250 296 366 442
#     4  10  21  42  65  94 132 178 228 275 354 419
#     4  10  23  40  66  99 136 180 229 297 362 429
#     4  10  20  39  66  96 134 178 222 284 355 425
#     4  10  23  39  66  95 130 178 226 288 337 424
#
# _framework density 23.613620999999998
#
# number of rings (size 3 to 8) (size 9 to 14) (size 15 to 20)
#    0.000    1.778    0.000    4.000    0.000   14.222 
#    0.000    6.667    0.000    0.000    0.000    0.000 
#    0.000    0.000    0.000    0.000    0.000    0.000 
#
# Total GULP energy -201022.763380 kJ/mol
# GULP energy per Si atom -5583.965649 kJ/mol
# Density = 2.355987 g / cm^3
# Si number density = 23.613621 Si / 1000 Ang^3
#
#
#
# Elastic Constant Matrix: (Units=GPa)
#
#
# Indices 1 2 3 4 5 6 
#
# 1 127.3126 56.4894 26.4028 0.0000 0.0000 0.0000
# 2 56.4894 231.0780 99.8378 0.0000 0.0000 0.0000
# 3 26.4028 99.8378 169.1743 0.0000 0.0000 0.0000
# 4 0.0000 0.0000 0.0000 -233.4075 0.0000 0.0000
# 5 0.0000 0.0000 0.0000 0.0000 36.7013 0.0000
# 6 0.0000 0.0000 0.0000 0.0000 0.0000 -3.3675
#
#
#
# Elastic Compliance Matrix: (Units=1/GPa)
#
#
# Indices 1 2 3 4 5 6 
#
# 1 0.008813 -0.002094 -0.000140 0.000000 0.000000 0.000000
# 2 -0.002094 0.006306 -0.003395 0.000000 0.000000 0.000000
# 3 -0.000140 -0.003395 0.007936 0.000000 0.000000 0.000000
# 4 0.000000 0.000000 0.000000 -0.004284 0.000000 0.000000
# 5 0.000000 0.000000 0.000000 0.000000 0.027247 0.000000
# 6 0.000000 0.000000 0.000000 0.000000 0.000000 -0.296956
#
#
# Mechanical properties :
#
#
# Convention : Reuss Voigt Hill
#
# Bulk Modulus (GPa) = 84.75737 99.22501 91.99119
# Shear Modulus (GPa) = -21.20900 -17.02575 -19.11738
#
# Velocity S-wave (km/s) = -3.00020 -2.68808 -2.84842
# Velocity P-wave (km/s) = 4.89589 5.69887 5.31257
#
# Compressibility (1/GPa) = 0.01179838
#
# Stress axis : x y z
#
# Youngs Moduli (GPa) = 113.47158 158.57479 126.00402
#
# Poissons Ratio (x) = 0.33207 0.01759
# Poissons Ratio (y) = 0.23762 0.42775
# Poissons Ratio (z) = 0.01584 0.53832
#
# Static dielectric constant tensor:
#      x y z
#    x 1.967270 0.000000 0.000000 
#    y 0.000000 1.469520 0.000000 
#    z 0.000000 0.000000 1.835410 
# 
# From -- ./inp_files/18929.got.cif
#   From: 2010.05.17/outbox.cif.g08.bks.cpg/sg56_10_cif.got.tgz:18929.got - 2010.06.03 13:42:01.
