data_PCOD9431364
_publ_section_title
;
Structure prediction by ZEFSAII (Michael W. Deem and Ramdas Pophale) SiO2 
 PCOD9431364
Probable space group: P C C N
;
_chemical_formula_sum "Si O2"
_cell_formula_units_Z 48
_cell_length_a 17.287087
_cell_length_b 7.740081
_cell_length_c 18.388068
_cell_angle_alpha 90.000000
_cell_angle_beta 90.000000
_cell_angle_gamma 90.000000
_cell_volume 2460.387004
_symmetry_space_group_name_H-M "P C C N"
_symmetry_group_IT_number 56
_symmetry_cell_setting 'orthorhombic'
loop_
_space_group_symop_operation_xyz
x,y,z
1/2-x,1/2-y,z
1/2+x,-y,1/2-z
-x,1/2+y,1/2-z
-x,-y,-z
1/2+x,1/2+y,-z
1/2-x,y,1/2+z
x,1/2-y,1/2+z
loop_
_atom_site_type_symbol
_atom_site_label
_atom_site_fract_x
_atom_site_fract_y
_atom_site_fract_z
Si Si1 0.332017 0.333010 0.073695
Si Si2 0.329488 0.333587 0.244573
Si Si3 0.004759 0.373404 0.067701
Si Si4 0.933096 0.532993 0.695918
Si Si5 0.930287 0.125617 0.716899
Si Si6 0.082555 0.954709 0.964885
O O1 0.250000 0.250000 0.051293
O O2 0.323741 0.374484 0.158913
O O3 0.409614 0.213282 0.067425
O O4 0.352254 0.493574 0.021677
O O5 0.250000 0.250000 0.270216
O O6 0.354493 0.507812 0.284977
O O7 0.391144 0.181328 0.258375
O O8 0.985216 0.433700 0.149520
O O9 0.932661 0.242716 0.054960
O O10 0.000000 0.500000 0.000000
O O11 0.918126 0.331911 0.716123
O O12 0.910586 0.553405 0.611621
O O13 0.023643 0.567505 0.710546
O O14 0.000000 0.000000 0.000000
#
# Coordination Sequence:
#
# PCOD9431364 Si02
#       6
#     8   8   8   8   8   8
#     4  10  21  41  61  87 123 160 204 252 316 367
#     4  11  24  41  62  91 125 163 203 259 317 362
#     4  10  21  37  60  92 117 159 214 246 297 377
#     4  11  21  37  62  92 121 160 209 251 304 372
#     4  11  21  38  64  91 122 163 208 256 305 372
#     4   9  20  36  58  87 119 157 198 252 301 359
#
# _framework density 19.509125000000001
#
# number of rings (size 3 to 8) (size 9 to 14) (size 15 to 20)
#    0.000    1.667    3.333    2.000    4.667    2.667 
#    0.000    0.833    0.000    0.000    0.000    0.000 
#    0.000    0.000    0.000    0.000    0.000    0.000 
#
# Total GULP energy -267389.700371 kJ/mol
# GULP energy per Si atom -5570.618758 kJ/mol
# Density = 1.946472 g / cm^3
# Si number density = 19.509125 Si / 1000 Ang^3
#
#
#
# Elastic Constant Matrix: (Units=GPa)
#
#
# Indices 1 2 3 4 5 6 
#
# 1 74.8597 10.4781 4.0473 0.0000 0.0000 0.0000
# 2 10.4781 58.0345 21.3269 0.0000 0.0000 0.0000
# 3 4.0473 21.3269 72.3129 0.0000 0.0000 0.0000
# 4 0.0000 0.0000 0.0000 19.7833 0.0000 0.0000
# 5 0.0000 0.0000 0.0000 0.0000 25.6128 0.0000
# 6 0.0000 0.0000 0.0000 0.0000 0.0000 34.5814
#
#
#
# Elastic Compliance Matrix: (Units=1/GPa)
#
#
# Indices 1 2 3 4 5 6 
#
# 1 0.013705 -0.002459 -0.000042 0.000000 0.000000 0.000000
# 2 -0.002459 0.019767 -0.005692 0.000000 0.000000 0.000000
# 3 -0.000042 -0.005692 0.015510 0.000000 0.000000 0.000000
# 4 0.000000 0.000000 0.000000 0.050548 0.000000 0.000000
# 5 0.000000 0.000000 0.000000 0.000000 0.039043 0.000000
# 6 0.000000 0.000000 0.000000 0.000000 0.000000 0.028917
#
#
# Mechanical properties :
#
#
# Convention : Reuss Voigt Hill
#
# Bulk Modulus (GPa) = 30.67899 30.76798 30.72349
# Shear Modulus (GPa) = 25.67519 27.28583 26.48051
#
# Velocity S-wave (km/s) = 3.63169 3.74387 3.68821
# Velocity P-wave (km/s) = 5.77453 5.87316 5.82405
#
# Compressibility (1/GPa) = 0.03259560
#
# Stress axis : x y z
#
# Youngs Moduli (GPa) = 72.96724 50.58967 64.47503
#
# Poissons Ratio (x) = 0.12440 0.00270
# Poissons Ratio (y) = 0.17943 0.36700
# Poissons Ratio (z) = 0.00305 0.28796
#
# Static dielectric constant tensor:
#      x y z
#    x 1.773570 0.000000 0.000000 
#    y 0.000000 1.707900 0.000000 
#    z 0.000000 0.000000 1.764870 
# 
# From -- ./inp_files/12689.got.cif
#   From: 2010.05.17/outbox.cif.g08.bks.cpg/sg56_7_cif.got.tgz:12689.got - 2010.06.03 13:42:01.
