data_PCOD9431417
_publ_section_title
;
Structure prediction by ZEFSAII (Michael W. Deem and Ramdas Pophale) SiO2 
 PCOD9431417
Probable space group: P C C N
;
_chemical_formula_sum "Si O2"
_cell_formula_units_Z 60
_cell_length_a 31.707198
_cell_length_b 8.854238
_cell_length_c 9.927888
_cell_angle_alpha 90.000000
_cell_angle_beta 90.000000
_cell_angle_gamma 90.000000
_cell_volume 2787.185829
_symmetry_space_group_name_H-M "P C C N"
_symmetry_group_IT_number 56
_symmetry_cell_setting 'orthorhombic'
loop_
_space_group_symop_operation_xyz
x,y,z
1/2-x,1/2-y,z
1/2+x,-y,1/2-z
-x,1/2+y,1/2-z
-x,-y,-z
1/2+x,1/2+y,-z
1/2-x,y,1/2+z
x,1/2-y,1/2+z
loop_
_atom_site_type_symbol
_atom_site_label
_atom_site_fract_x
_atom_site_fract_y
_atom_site_fract_z
Si Si1 0.283793 0.036457 0.754316
Si Si2 0.489561 0.614970 0.880917
Si Si3 0.195264 0.373102 0.246778
Si Si4 0.377831 0.551463 0.599606
Si Si5 0.174484 0.935294 0.008002
Si Si6 0.528252 0.570656 0.382352
Si Si7 0.750000 0.250000 0.075222
Si Si8 0.394384 0.728162 0.869862
O O1 0.298805 0.202019 0.800431
O O2 0.239463 0.075925 0.679395
O O3 0.321442 0.999424 0.654234
O O4 0.270123 0.890490 0.840782
O O5 0.488614 0.510875 0.750501
O O6 0.522680 0.750334 0.876349
O O7 0.444275 0.702318 0.885122
O O8 0.500000 0.500000 0.000000
O O9 0.158336 0.434267 0.148084
O O10 0.190346 0.461472 0.386507
O O11 0.422955 0.471340 0.605906
O O12 0.379957 0.684185 0.717057
O O13 0.377084 0.622898 0.448372
O O14 0.209612 0.803075 0.009225
O O15 0.127959 0.896060 0.963215
O O16 0.500000 0.500000 0.500000
#
# Coordination Sequence:
#
# PCOD9431417 Si02
#       8
#     8   8   8   8   8   8   4   8
#     4  10  21  38  61  86 122 164 210 257 316 371
#     4  11  24  42  66  96 129 172 217 266 330 397
#     4   9  22  41  58  87 128 163 209 263 320 376
#     4  10  22  42  65  96 131 169 216 270 330 394
#     4  10  22  38  58  89 123 159 214 257 318 383
#     4  11  22  41  67  95 130 170 218 269 329 396
#     4  10  22  36  60  90 116 168 214 258 310 386
#     4  10  23  39  64  93 132 165 210 274 322 389
#
# _framework density 21.527092
#
# number of rings (size 3 to 8) (size 9 to 14) (size 15 to 20)
#    0.000    1.867    1.333    1.200    9.333    5.333 
#    0.000    2.667    0.000    0.000    0.000    0.000 
#    0.000    0.000    0.000    0.000    0.000    0.000 
#
# Total GULP energy -334227.834932 kJ/mol
# GULP energy per Si atom -5570.463916 kJ/mol
# Density = 2.147810 g / cm^3
# Si number density = 21.527092 Si / 1000 Ang^3
#
#
#
# Elastic Constant Matrix: (Units=GPa)
#
#
# Indices 1 2 3 4 5 6 
#
# 1 53.0572 13.6294 15.1491 0.0000 0.0000 0.0000
# 2 13.6294 101.4418 12.2768 0.0000 0.0000 0.0000
# 3 15.1491 12.2768 44.8213 0.0000 0.0000 0.0000
# 4 0.0000 0.0000 0.0000 21.6620 0.0000 0.0000
# 5 0.0000 0.0000 0.0000 0.0000 19.8088 0.0000
# 6 0.0000 0.0000 0.0000 0.0000 0.0000 26.1906
#
#
#
# Elastic Compliance Matrix: (Units=1/GPa)
#
#
# Indices 1 2 3 4 5 6 
#
# 1 0.021267 -0.002056 -0.006625 0.000000 0.000000 0.000000
# 2 -0.002056 0.010395 -0.002152 0.000000 0.000000 0.000000
# 3 -0.006625 -0.002152 0.025140 0.000000 0.000000 0.000000
# 4 0.000000 0.000000 0.000000 0.046164 0.000000 0.000000
# 5 0.000000 0.000000 0.000000 0.000000 0.050483 0.000000
# 6 0.000000 0.000000 0.000000 0.000000 0.000000 0.038182
#
#
# Mechanical properties :
#
#
# Convention : Reuss Voigt Hill
#
# Bulk Modulus (GPa) = 28.46141 31.27012 29.86577
# Shear Modulus (GPa) = 22.22153 24.08329 23.15241
#
# Velocity S-wave (km/s) = 3.21636 3.34839 3.28304
# Velocity P-wave (km/s) = 5.20031 5.43198 5.31741
#
# Compressibility (1/GPa) = 0.03513529
#
# Stress axis : x y z
#
# Youngs Moduli (GPa) = 47.02067 96.20438 39.77796
#
# Poissons Ratio (x) = 0.19776 0.26353
# Poissons Ratio (y) = 0.09666 0.08562
# Poissons Ratio (z) = 0.31151 0.20706
#
# Static dielectric constant tensor:
#      x y z
#    x 1.950600 0.000000 0.000000 
#    y 0.000000 1.849550 0.000000 
#    z 0.000000 0.000000 1.800120 
# 
# From -- ./inp_files/9169.got.cif
#   From: 2010.05.17/outbox.cif.g08.bks.cpg/sg56_5_cif.got.tgz:9169.got - 2010.06.03 13:42:01.
