data_PCOD9431390
_publ_section_title
;
Structure prediction by ZEFSAII (Michael W. Deem and Ramdas Pophale) SiO2 
 PCOD9431390
Probable space group: P C C N
;
_chemical_formula_sum "Si O2"
_cell_formula_units_Z 56
_cell_length_a 15.324042
_cell_length_b 6.160021
_cell_length_c 29.424574
_cell_angle_alpha 90.000000
_cell_angle_beta 90.000000
_cell_angle_gamma 90.000000
_cell_volume 2777.574461
_symmetry_space_group_name_H-M "P C C N"
_symmetry_group_IT_number 56
_symmetry_cell_setting 'orthorhombic'
loop_
_space_group_symop_operation_xyz
x,y,z
1/2-x,1/2-y,z
1/2+x,-y,1/2-z
-x,1/2+y,1/2-z
-x,-y,-z
1/2+x,1/2+y,-z
1/2-x,y,1/2+z
x,1/2-y,1/2+z
loop_
_atom_site_type_symbol
_atom_site_label
_atom_site_fract_x
_atom_site_fract_y
_atom_site_fract_z
Si Si1 0.250000 0.750000 0.687274
Si Si2 0.377633 0.095228 0.468433
Si Si3 0.599685 0.525524 0.598183
Si Si4 0.462615 0.223466 0.557188
Si Si5 0.116152 0.420537 0.225265
Si Si6 0.959364 0.788697 0.690830
Si Si7 0.750000 0.250000 0.557959
Si Si8 0.598690 0.540378 0.848343
O O1 0.301728 0.575866 0.717566
O O2 0.179062 0.624257 0.657155
O O3 0.368953 0.256392 0.426245
O O4 0.399609 0.230431 0.513774
O O5 0.459789 0.940347 0.457155
O O6 0.294001 0.939769 0.471684
O O7 0.511352 0.442886 0.572975
O O8 0.580175 0.567962 0.650573
O O9 0.673749 0.348567 0.588931
O O10 0.414625 0.127572 0.601111
O O11 0.109754 0.305516 0.273756
O O12 0.114249 0.239576 0.185911
O O13 0.029671 0.568213 0.218610
O O14 0.013059 0.592477 0.667439
#
# Coordination Sequence:
#
# PCOD9431390 Si02
#       8
#     4   8   8   8   8   8   4   8
#     4  10  26  41  63  92 136 160 204 263 333 368
#     4  10  21  40  61  96 127 168 207 270 312 383
#     4  11  21  41  65  96 125 172 209 270 309 383
#     4  10  21  37  69  93 123 162 221 257 318 373
#     4  11  22  43  65  96 124 166 207 270 311 389
#     4  11  22  38  74  90 123 166 221 256 321 370
#     4  10  24  41  61  88 140 166 212 257 323 370
#     4  11  21  42  64  96 124 165 208 267 309 386
#
# _framework density 20.161477000000001
#
# number of rings (size 3 to 8) (size 9 to 14) (size 15 to 20)
#    0.000    1.429    4.286    1.286    0.000    0.571 
#    0.000    7.143    0.000    0.000    0.000    0.000 
#    0.000    0.000    0.000    0.000    0.000    0.000 
#
# Total GULP energy -313000.927567 kJ/mol
# GULP energy per Si atom -5589.302278 kJ/mol
# Density = 2.011559 g / cm^3
# Si number density = 20.161477 Si / 1000 Ang^3
#
#
#
# Elastic Constant Matrix: (Units=GPa)
#
#
# Indices 1 2 3 4 5 6 
#
# 1 81.8570 17.6438 33.1048 0.0000 0.0000 0.0000
# 2 17.6438 51.4073 7.1890 0.0000 0.0000 0.0000
# 3 33.1048 7.1890 98.2812 0.0000 0.0000 0.0000
# 4 0.0000 0.0000 0.0000 26.2673 0.0000 0.0000
# 5 0.0000 0.0000 0.0000 0.0000 9.4736 0.0000
# 6 0.0000 0.0000 0.0000 0.0000 0.0000 22.9184
#
#
#
# Elastic Compliance Matrix: (Units=1/GPa)
#
#
# Indices 1 2 3 4 5 6 
#
# 1 0.015117 -0.004522 -0.004761 0.000000 0.000000 0.000000
# 2 -0.004522 0.021007 -0.000013 0.000000 0.000000 0.000000
# 3 -0.004761 -0.000013 0.011780 0.000000 0.000000 0.000000
# 4 0.000000 0.000000 0.000000 0.038070 0.000000 0.000000
# 5 0.000000 0.000000 0.000000 0.000000 0.105556 0.000000
# 6 0.000000 0.000000 0.000000 0.000000 0.000000 0.043633
#
#
# Mechanical properties :
#
#
# Convention : Reuss Voigt Hill
#
# Bulk Modulus (GPa) = 34.11892 38.60229 36.36060
# Shear Modulus (GPa) = 18.97348 23.30570 21.13959
#
# Velocity S-wave (km/s) = 3.07102 3.40362 3.24159
# Velocity P-wave (km/s) = 5.43456 5.88509 5.66431
#
# Compressibility (1/GPa) = 0.02930925
#
# Stress axis : x y z
#
# Youngs Moduli (GPa) = 66.15195 47.60423 84.89274
#
# Poissons Ratio (x) = 0.21529 0.40418
# Poissons Ratio (y) = 0.29917 0.00112
# Poissons Ratio (z) = 0.31495 0.00063
#
# Static dielectric constant tensor:
#      x y z
#    x 1.721410 0.000000 0.000000 
#    y 0.000000 1.724350 0.000000 
#    z 0.000000 0.000000 1.667700 
# 
# From -- ./inp_files/22923.got.cif
#   From: 2010.05.17/outbox.cif.g08.bks.cpg/sg56_12_cif.got.tgz:22923.got - 2010.06.03 13:42:01.
