data_PCOD9431484
_publ_section_title
;
Structure prediction by ZEFSAII (Michael W. Deem and Ramdas Pophale) SiO2 
 PCOD9431484
Probable space group: P C C N
;
_chemical_formula_sum "Si O2"
_cell_formula_units_Z 64
_cell_length_a 18.433208
_cell_length_b 16.338865
_cell_length_c 10.300588
_cell_angle_alpha 90.000000
_cell_angle_beta 90.000000
_cell_angle_gamma 90.000000
_cell_volume 3102.307372
_symmetry_space_group_name_H-M "P C C N"
_symmetry_group_IT_number 56
_symmetry_cell_setting 'orthorhombic'
loop_
_space_group_symop_operation_xyz
x,y,z
1/2-x,1/2-y,z
1/2+x,-y,1/2-z
-x,1/2+y,1/2-z
-x,-y,-z
1/2+x,1/2+y,-z
1/2-x,y,1/2+z
x,1/2-y,1/2+z
loop_
_atom_site_type_symbol
_atom_site_label
_atom_site_fract_x
_atom_site_fract_y
_atom_site_fract_z
Si Si1 0.818465 0.187879 0.842411
Si Si2 0.386393 0.511122 0.499272
Si Si3 0.011812 0.106357 0.632642
Si Si4 0.400899 0.763097 0.906360
Si Si5 0.234802 0.493143 0.355700
Si Si6 0.888636 0.101645 0.249336
Si Si7 0.817978 0.507099 0.382026
Si Si8 0.983716 0.010586 0.849758
O O1 0.750000 0.250000 0.836339
O O2 0.849740 0.183783 0.693411
O O3 0.805393 0.092645 0.882859
O O4 0.867735 0.227904 0.958890
O O5 0.413053 0.428665 0.574532
O O6 0.452818 0.537943 0.410034
O O7 0.312374 0.504976 0.422539
O O8 0.376309 0.586268 0.599500
O O9 0.977126 0.189404 0.579146
O O10 0.002514 0.099748 0.788576
O O11 0.409629 0.686845 0.809910
O O12 0.184605 0.570404 0.319382
O O13 0.258050 0.456925 0.216592
O O14 0.189698 0.455091 0.474532
O O15 0.956818 0.044749 0.219420
O O16 0.900272 0.515061 0.335327
O O17 0.000000 0.000000 0.000000
#
# Coordination Sequence:
#
# PCOD9431484 Si02
#       8
#     8   8   8   8   8   8   8   8
#     4  12  25  34  51  81 122 164 192 234 291 359
#     4  10  21  39  57  81 119 162 203 249 297 358
#     4  10  22  37  57  80 116 164 202 246 297 361
#     4  12  23  38  54  85 120 160 199 243 299 366
#     4  12  21  37  59  87 117 156 202 249 293 361
#     4  11  23  34  59  86 120 154 204 250 302 362
#     4  12  24  38  57  84 121 157 197 239 296 355
#     4  11  20  38  56  80 115 156 199 253 295 348
#
# _framework density 20.629805000000001
#
# number of rings (size 3 to 8) (size 9 to 14) (size 15 to 20)
#    0.000    0.750    6.250    1.875    3.500    0.000 
#    0.000    0.000    0.000    0.000    0.000    0.875 
#    7.500    0.000    0.000    0.000    0.000    0.000 
#
# Total GULP energy -356458.514000 kJ/mol
# GULP energy per Si atom -5569.664281 kJ/mol
# Density = 2.058285 g / cm^3
# Si number density = 20.629805 Si / 1000 Ang^3
#
#
#
# Elastic Constant Matrix: (Units=GPa)
#
#
# Indices 1 2 3 4 5 6 
#
# 1 101.8678 30.6653 10.6717 0.0000 0.0000 0.0000
# 2 30.6653 24.1191 4.3468 0.0000 0.0000 0.0000
# 3 10.6717 4.3468 109.2347 0.0000 0.0000 0.0000
# 4 0.0000 0.0000 0.0000 17.0485 0.0000 0.0000
# 5 0.0000 0.0000 0.0000 0.0000 38.4282 0.0000
# 6 0.0000 0.0000 0.0000 0.0000 0.0000 19.8374
#
#
#
# Elastic Compliance Matrix: (Units=1/GPa)
#
#
# Indices 1 2 3 4 5 6 
#
# 1 0.015965 -0.020162 -0.000757 0.000000 0.000000 0.000000
# 2 -0.020162 0.067222 -0.000705 0.000000 0.000000 0.000000
# 3 -0.000757 -0.000705 0.009257 0.000000 0.000000 0.000000
# 4 0.000000 0.000000 0.000000 0.058656 0.000000 0.000000
# 5 0.000000 0.000000 0.000000 0.000000 0.026023 0.000000
# 6 0.000000 0.000000 0.000000 0.000000 0.000000 0.050410
#
#
# Mechanical properties :
#
#
# Convention : Reuss Voigt Hill
#
# Bulk Modulus (GPa) = 20.32734 36.28770 28.30752
# Shear Modulus (GPa) = 17.41064 27.69866 22.55465
#
# Velocity S-wave (km/s) = 2.90824 3.66820 3.31010
# Velocity P-wave (km/s) = 4.59912 5.96398 5.32546
#
# Compressibility (1/GPa) = 0.04919482
#
# Stress axis : x y z
#
# Youngs Moduli (GPa) = 62.63556 14.87603 108.03034
#
# Poissons Ratio (x) = 0.29993 0.08182
# Poissons Ratio (y) = 1.26286 0.07619
# Poissons Ratio (z) = 0.04744 0.01049
#
# Static dielectric constant tensor:
#      x y z
#    x 1.686150 0.000000 0.000000 
#    y 0.000000 1.780270 0.000000 
#    z 0.000000 0.000000 1.850990 
# 
# From -- ./inp_files/8485.got.cif
#   From: 2010.05.17/outbox.cif.g08.bks.cpg/sg56_5_cif.got.tgz:8485.got - 2010.06.03 13:42:01.
