data_PCOD9431262
_publ_section_title
;
Structure prediction by ZEFSAII (Michael W. Deem and Ramdas Pophale) SiO2 
 PCOD9431262
Probable space group: P C C N
;
_chemical_formula_sum "Si O2"
_cell_formula_units_Z 52
_cell_length_a 18.068654
_cell_length_b 9.228838
_cell_length_c 13.838191
_cell_angle_alpha 90.000000
_cell_angle_beta 90.000000
_cell_angle_gamma 90.000000
_cell_volume 2307.555445
_symmetry_space_group_name_H-M "P C C N"
_symmetry_group_IT_number 56
_symmetry_cell_setting 'orthorhombic'
loop_
_space_group_symop_operation_xyz
x,y,z
1/2-x,1/2-y,z
1/2+x,-y,1/2-z
-x,1/2+y,1/2-z
-x,-y,-z
1/2+x,1/2+y,-z
1/2-x,y,1/2+z
x,1/2-y,1/2+z
loop_
_atom_site_type_symbol
_atom_site_label
_atom_site_fract_x
_atom_site_fract_y
_atom_site_fract_z
Si Si1 0.557707 0.322569 0.992795
Si Si2 0.033611 0.782339 0.800262
Si Si3 0.250000 0.750000 0.768797
Si Si4 0.139491 0.976132 0.317638
Si Si5 0.105334 0.329382 0.998500
Si Si6 0.628804 0.104228 0.867377
Si Si7 0.110770 0.093395 0.124700
O O1 0.479769 0.231964 0.988082
O O2 0.621025 0.217050 0.954899
O O3 0.565046 0.463444 0.926038
O O4 0.569033 0.357200 0.105004
O O5 0.063835 0.618109 0.804333
O O6 0.060360 0.857537 0.703394
O O7 0.947241 0.804406 0.817481
O O8 0.298513 0.855844 0.834669
O O9 0.197317 0.847350 0.699327
O O10 0.129809 0.096506 0.399009
O O11 0.159567 0.034258 0.210918
O O12 0.118390 0.450569 0.081267
O O13 0.146486 0.187032 0.039565
#
# Coordination Sequence:
#
# PCOD9431262 Si02
#       7
#     8   8   4   8   8   8   8
#     4  11  21  40  62 103 139 171 214 275 356 413
#     4  10  21  34  62  95 134 167 213 272 334 407
#     4  10  24  46  68  90 132 186 244 272 332 416
#     4  11  23  43  66  98 132 187 233 273 335 408
#     4  11  24  38  68 104 136 168 224 283 347 403
#     4  11  22  40  66  95 129 178 229 280 325 400
#     4  11  24  38  65 101 147 168 210 285 352 409
#
# _framework density 22.534668
#
# number of rings (size 3 to 8) (size 9 to 14) (size 15 to 20)
#    0.000    1.231    4.615    3.231    6.462    1.846 
#    0.000    0.769    0.000    5.538    0.000    0.000 
#    0.000    0.000    0.000    0.000    0.000    0.000 
#
# Total GULP energy -290020.231286 kJ/mol
# GULP energy per Si atom -5577.312140 kJ/mol
# Density = 2.248338 g / cm^3
# Si number density = 22.534668 Si / 1000 Ang^3
#
#
#
# Elastic Constant Matrix: (Units=GPa)
#
#
# Indices 1 2 3 4 5 6 
#
# 1 35.0725 26.2346 7.0827 0.0000 0.0000 0.0000
# 2 26.2346 130.3407 45.4787 0.0000 0.0000 0.0000
# 3 7.0827 45.4787 134.5247 0.0000 0.0000 0.0000
# 4 0.0000 0.0000 0.0000 38.0023 0.0000 0.0000
# 5 0.0000 0.0000 0.0000 0.0000 18.9288 0.0000
# 6 0.0000 0.0000 0.0000 0.0000 0.0000 28.4441
#
#
#
# Elastic Compliance Matrix: (Units=1/GPa)
#
#
# Indices 1 2 3 4 5 6 
#
# 1 0.033607 -0.006969 0.000587 0.000000 0.000000 0.000000
# 2 -0.006969 0.010143 -0.003062 0.000000 0.000000 0.000000
# 3 0.000587 -0.003062 0.008438 0.000000 0.000000 0.000000
# 4 0.000000 0.000000 0.000000 0.026314 0.000000 0.000000
# 5 0.000000 0.000000 0.000000 0.000000 0.052830 0.000000
# 6 0.000000 0.000000 0.000000 0.000000 0.000000 0.035157
#
#
# Mechanical properties :
#
#
# Convention : Reuss Voigt Hill
#
# Bulk Modulus (GPa) = 30.03107 50.83668 40.43387
# Shear Modulus (GPa) = 25.44822 31.81783 28.63302
#
# Velocity S-wave (km/s) = 3.36414 3.76167 3.56844
# Velocity P-wave (km/s) = 5.33343 6.44012 5.91272
#
# Compressibility (1/GPa) = 0.03329885
#
# Stress axis : x y z
#
# Youngs Moduli (GPa) = 29.75594 98.58649 118.51218
#
# Poissons Ratio (x) = 0.68704 -0.06952
# Poissons Ratio (y) = 0.20737 0.36291
# Poissons Ratio (z) = -0.01745 0.30190
#
# Static dielectric constant tensor:
#      x y z
#    x 1.891250 0.000000 0.000000 
#    y 0.000000 1.930160 0.000000 
#    z 0.000000 0.000000 1.876000 
# 
# From -- ./inp_files/13021.got.cif
#   From: 2010.05.17/outbox.cif.g08.bks.cpg/sg56_7_cif.got.tgz:13021.got - 2010.06.03 13:42:01.
