data_PCOD9431888
_publ_section_title
;
Structure prediction by ZEFSAII (Michael W. Deem and Ramdas Pophale) SiO2 
 PCOD9431888
Probable space group: P C C N
;
_chemical_formula_sum "Si O2"
_cell_formula_units_Z 40
_cell_length_a 8.646857
_cell_length_b 15.601080
_cell_length_c 13.264730
_cell_angle_alpha 90.000000
_cell_angle_beta 90.000000
_cell_angle_gamma 90.000000
_cell_volume 1789.416160
_symmetry_space_group_name_H-M "P C C N"
_symmetry_group_IT_number 56
_symmetry_cell_setting 'orthorhombic'
loop_
_space_group_symop_operation_xyz
x,y,z
1/2-x,1/2-y,z
1/2+x,-y,1/2-z
-x,1/2+y,1/2-z
-x,-y,-z
1/2+x,1/2+y,-z
1/2-x,y,1/2+z
x,1/2-y,1/2+z
loop_
_atom_site_type_symbol
_atom_site_label
_atom_site_fract_x
_atom_site_fract_y
_atom_site_fract_z
Si Si1 0.134576 0.331001 0.418002
Si Si2 0.070374 0.753037 0.437306
Si Si3 0.610904 0.103638 0.925648
Si Si4 0.178514 0.995691 0.388811
Si Si5 0.348722 0.841791 0.733681
O O1 0.250000 0.250000 0.400741
O O2 0.220387 0.419381 0.393954
O O3 0.049481 0.319444 0.527816
O O4 0.989806 0.335413 0.342815
O O5 0.250000 0.750000 0.473102
O O6 0.011464 0.834536 0.501247
O O7 0.095432 0.774880 0.320747
O O8 0.497135 0.030823 0.885515
O O9 0.698013 0.156230 0.839299
O O10 0.716973 0.055786 0.008068
O O11 0.185353 0.928136 0.298166
#
# Coordination Sequence:
#
# PCOD9431888 Si02
#       5
#     8   8   8   8   8
#     4  12  25  45  71 106 146 181 240 309 356 422
#     4  11  24  43  67  97 137 184 229 290 355 420
#     4  10  21  45  68  94 145 177 229 283 354 429
#     4  10  23  44  71 103 137 184 230 299 352 426
#     4  11  25  44  70 101 136 193 238 283 362 439
#
# _framework density 22.353660999999999
#
# number of rings (size 3 to 8) (size 9 to 14) (size 15 to 20)
#    0.000    1.200    4.000    1.200    2.800    1.600 
#    7.200    0.000    0.000    0.000    0.000    0.000 
#    0.000    0.000    0.000    0.000    0.000    0.000 
#
# Total GULP energy -222714.021126 kJ/mol
# GULP energy per Si atom -5567.850528 kJ/mol
# Density = 2.230278 g / cm^3
# Si number density = 22.353661 Si / 1000 Ang^3
#
#
#
# Elastic Constant Matrix: (Units=GPa)
#
#
# Indices 1 2 3 4 5 6 
#
# 1 72.7397 41.9910 41.6302 0.0000 0.0000 0.0000
# 2 41.9910 98.7730 47.5159 0.0000 0.0000 0.0000
# 3 41.6302 47.5159 150.6086 0.0000 0.0000 0.0000
# 4 0.0000 0.0000 0.0000 38.2178 0.0000 0.0000
# 5 0.0000 0.0000 0.0000 0.0000 17.0182 0.0000
# 6 0.0000 0.0000 0.0000 0.0000 0.0000 38.1590
#
#
#
# Elastic Compliance Matrix: (Units=1/GPa)
#
#
# Indices 1 2 3 4 5 6 
#
# 1 0.019496 -0.006715 -0.003270 0.000000 0.000000 0.000000
# 2 -0.006715 0.014249 -0.002639 0.000000 0.000000 0.000000
# 3 -0.003270 -0.002639 0.008376 0.000000 0.000000 0.000000
# 4 0.000000 0.000000 0.000000 0.026166 0.000000 0.000000
# 5 0.000000 0.000000 0.000000 0.000000 0.058761 0.000000
# 6 0.000000 0.000000 0.000000 0.000000 0.000000 0.026206
#
#
# Mechanical properties :
#
#
# Convention : Reuss Voigt Hill
#
# Bulk Modulus (GPa) = 59.27112 64.93283 62.10198
# Shear Modulus (GPa) = 27.15531 31.41126 29.28329
#
# Velocity S-wave (km/s) = 3.48918 3.75266 3.62332
# Velocity P-wave (km/s) = 6.54257 6.92009 6.73398
#
# Compressibility (1/GPa) = 0.01687162
#
# Stress axis : x y z
#
# Youngs Moduli (GPa) = 51.29342 70.18267 119.38363
#
# Poissons Ratio (x) = 0.47127 0.39043
# Poissons Ratio (y) = 0.34443 0.31508
# Poissons Ratio (z) = 0.16775 0.18523
#
# Static dielectric constant tensor:
#      x y z
#    x 1.905600 0.000000 0.000000 
#    y 0.000000 2.000120 0.000000 
#    z 0.000000 0.000000 1.805360 
# 
# From -- ./inp_files/6159.got.cif
#   From: 2010.05.17/outbox.cif.g08.bks.cpg/sg56_4_cif.got.tgz:6159.got - 2010.06.03 13:42:01.
