data_PCOD9431153
_publ_section_title
;
Structure prediction by ZEFSAII (Michael W. Deem and Ramdas Pophale) SiO2 
 PCOD9431153
Probable space group: P C C N
;
_chemical_formula_sum "Si O2"
_cell_formula_units_Z 48
_cell_length_a 21.369087
_cell_length_b 11.050953
_cell_length_c 8.979426
_cell_angle_alpha 90.000000
_cell_angle_beta 90.000000
_cell_angle_gamma 90.000000
_cell_volume 2120.480460
_symmetry_space_group_name_H-M "P C C N"
_symmetry_group_IT_number 56
_symmetry_cell_setting 'orthorhombic'
loop_
_space_group_symop_operation_xyz
x,y,z
1/2-x,1/2-y,z
1/2+x,-y,1/2-z
-x,1/2+y,1/2-z
-x,-y,-z
1/2+x,1/2+y,-z
1/2-x,y,1/2+z
x,1/2-y,1/2+z
loop_
_atom_site_type_symbol
_atom_site_label
_atom_site_fract_x
_atom_site_fract_y
_atom_site_fract_z
Si Si1 0.644142 0.090415 0.217325
Si Si2 0.975790 0.326722 0.362527
Si Si3 0.750000 0.750000 0.146787
Si Si4 0.788081 0.589618 0.390131
Si Si5 0.159740 0.945505 0.607599
Si Si6 0.536228 0.409841 0.205073
Si Si7 0.750000 0.250000 0.290130
O O1 0.589029 0.173799 0.270937
O O2 0.711542 0.153609 0.196014
O O3 0.659085 0.007605 0.360791
O O4 0.630664 0.035056 0.056139
O O5 0.997967 0.190050 0.315220
O O6 0.966777 0.348842 0.539621
O O7 0.007134 0.453786 0.307826
O O8 0.712171 0.658782 0.043379
O O9 0.796532 0.680291 0.253847
O O10 0.717018 0.539523 0.372966
O O11 0.105601 0.938394 0.729935
O O12 0.197451 0.819082 0.617620
#
# Coordination Sequence:
#
# PCOD9431153 Si02
#       7
#     8   8   4   8   8   8   4
#     4  11  22  39  64  99 132 173 218 278 343 409
#     4  11  26  48  71 100 135 180 235 295 351 418
#     4  10  20  42  56  84 136 178 220 258 322 408
#     4  10  22  38  62  92 134 176 221 275 336 413
#     4  11  22  39  64  99 132 173 218 278 343 409
#     4  11  26  48  71 100 135 180 235 295 351 418
#     4  10  22  34  68 100 138 166 210 272 340 406
#
# _framework density 22.636379999999999
#
# number of rings (size 3 to 8) (size 9 to 14) (size 15 to 20)
#    0.000    1.333    3.333    1.500    2.333    4.000 
#    6.000    0.000    0.000    0.000    0.000    0.000 
#    0.000    0.000    0.000    0.000    0.000    0.000 
#
# Total GULP energy -267389.236625 kJ/mol
# GULP energy per Si atom -5570.609096 kJ/mol
# Density = 2.258486 g / cm^3
# Si number density = 22.636380 Si / 1000 Ang^3
#
#
#
# Elastic Constant Matrix: (Units=GPa)
#
#
# Indices 1 2 3 4 5 6 
#
# 1 38.8632 11.0658 10.7075 0.0000 0.0000 0.0000
# 2 11.0658 78.8129 11.4178 0.0000 0.0000 0.0000
# 3 10.7075 11.4178 94.1410 0.0000 0.0000 0.0000
# 4 0.0000 0.0000 0.0000 25.1052 0.0000 0.0000
# 5 0.0000 0.0000 0.0000 0.0000 11.4875 0.0000
# 6 0.0000 0.0000 0.0000 0.0000 0.0000 20.8413
#
#
#
# Elastic Compliance Matrix: (Units=1/GPa)
#
#
# Indices 1 2 3 4 5 6 
#
# 1 0.027463 -0.003464 -0.002703 0.000000 0.000000 0.000000
# 2 -0.003464 0.013352 -0.001225 0.000000 0.000000 0.000000
# 3 -0.002703 -0.001225 0.011078 0.000000 0.000000 0.000000
# 4 0.000000 0.000000 0.000000 0.039832 0.000000 0.000000
# 5 0.000000 0.000000 0.000000 0.000000 0.087051 0.000000
# 6 0.000000 0.000000 0.000000 0.000000 0.000000 0.047982
#
#
# Mechanical properties :
#
#
# Convention : Reuss Voigt Hill
#
# Bulk Modulus (GPa) = 26.94901 30.91102 28.93001
# Shear Modulus (GPa) = 19.69176 23.39521 21.54349
#
# Velocity S-wave (km/s) = 2.95263 3.21833 3.08834
# Velocity P-wave (km/s) = 4.85336 5.24360 5.05225
#
# Compressibility (1/GPa) = 0.03710712
#
# Stress axis : x y z
#
# Youngs Moduli (GPa) = 36.41328 74.89405 90.26519
#
# Poissons Ratio (x) = 0.25945 0.24402
# Poissons Ratio (y) = 0.12614 0.11061
# Poissons Ratio (z) = 0.09844 0.09177
#
# Static dielectric constant tensor:
#      x y z
#    x 1.822360 0.000000 0.000000 
#    y 0.000000 1.907600 0.000000 
#    z 0.000000 0.000000 1.868400 
# 
# From -- ./inp_files/2798.got.cif
#   From: 2010.05.17/outbox.cif.g08.bks.cpg/sg56_2_cif.got.tgz:2798.got - 2010.06.03 13:42:01.
