data_PCOD9431786
_publ_section_title
;
Structure prediction by ZEFSAII (Michael W. Deem and Ramdas Pophale) SiO2 
 PCOD9431786
Probable space group: P C C N
;
_chemical_formula_sum "Si O2"
_cell_formula_units_Z 56
_cell_length_a 11.206647
_cell_length_b 17.160898
_cell_length_c 13.615581
_cell_angle_alpha 90.000000
_cell_angle_beta 90.000000
_cell_angle_gamma 90.000000
_cell_volume 2618.495792
_symmetry_space_group_name_H-M "P C C N"
_symmetry_group_IT_number 56
_symmetry_cell_setting 'orthorhombic'
loop_
_space_group_symop_operation_xyz
x,y,z
1/2-x,1/2-y,z
1/2+x,-y,1/2-z
-x,1/2+y,1/2-z
-x,-y,-z
1/2+x,1/2+y,-z
1/2-x,y,1/2+z
x,1/2-y,1/2+z
loop_
_atom_site_type_symbol
_atom_site_label
_atom_site_fract_x
_atom_site_fract_y
_atom_site_fract_z
Si Si1 0.986216 0.898469 0.101483
Si Si2 0.002885 0.182706 0.698065
Si Si3 0.749870 0.334768 0.113221
Si Si4 0.902280 0.950091 0.442277
Si Si5 0.813531 0.506255 0.319055
Si Si6 0.020048 0.349542 0.622479
Si Si7 0.755024 0.996846 0.095505
O O1 0.891496 0.969742 0.097687
O O2 0.956407 0.843355 0.193963
O O3 0.110676 0.938325 0.130583
O O4 0.987226 0.856535 0.996262
O O5 0.857975 0.179491 0.689364
O O6 0.054187 0.265300 0.664042
O O7 0.043155 0.121095 0.616063
O O8 0.750000 0.250000 0.059400
O O9 0.619046 0.354335 0.156995
O O10 0.769623 0.415681 0.055283
O O11 0.819537 0.992549 0.362039
O O12 0.808056 0.932381 0.528278
O O13 0.000000 0.000000 0.500000
O O14 0.802023 0.500194 0.202664
O O15 0.887992 0.584915 0.342448
#
# Coordination Sequence:
#
# PCOD9431786 Si02
#       7
#     8   8   8   8   8   8   8
#     4  12  23  45  70  99 130 182 229 277 331 407
#     4  11  25  45  65  99 140 172 223 283 336 399
#     4  10  21  42  66  96 133 168 218 281 330 391
#     4  12  24  41  67  99 135 175 217 279 337 398
#     4  12  24  41  70 101 130 179 226 277 337 407
#     4  11  25  44  69  96 136 177 225 277 337 402
#     4  12  23  42  69 100 131 174 228 273 332 401
#
# _framework density 21.386323999999998
#
# number of rings (size 3 to 8) (size 9 to 14) (size 15 to 20)
#    0.000    0.571    7.143    1.286    0.000    1.714 
#    0.000    9.286    0.000    0.000    0.000    0.000 
#    0.000    0.000    0.000    0.000    0.000    0.000 
#
# Total GULP energy -312414.550685 kJ/mol
# GULP energy per Si atom -5578.831262 kJ/mol
# Density = 2.133765 g / cm^3
# Si number density = 21.386324 Si / 1000 Ang^3
#
#
#
# Elastic Constant Matrix: (Units=GPa)
#
#
# Indices 1 2 3 4 5 6 
#
# 1 67.0135 25.6887 9.4174 0.0000 0.0000 0.0000
# 2 25.6887 131.1177 56.9526 0.0000 0.0000 0.0000
# 3 9.4174 56.9526 113.8707 0.0000 0.0000 0.0000
# 4 0.0000 0.0000 0.0000 17.2576 0.0000 0.0000
# 5 0.0000 0.0000 0.0000 0.0000 26.5578 0.0000
# 6 0.0000 0.0000 0.0000 0.0000 0.0000 22.4806
#
#
#
# Elastic Compliance Matrix: (Units=1/GPa)
#
#
# Indices 1 2 3 4 5 6 
#
# 1 0.016143 -0.003300 0.000315 0.000000 0.000000 0.000000
# 2 -0.003300 0.010418 -0.004938 0.000000 0.000000 0.000000
# 3 0.000315 -0.004938 0.011225 0.000000 0.000000 0.000000
# 4 0.000000 0.000000 0.000000 0.057945 0.000000 0.000000
# 5 0.000000 0.000000 0.000000 0.000000 0.037654 0.000000
# 6 0.000000 0.000000 0.000000 0.000000 0.000000 0.044483
#
#
# Mechanical properties :
#
#
# Convention : Reuss Voigt Hill
#
# Bulk Modulus (GPa) = 45.57438 55.12438 50.34938
# Shear Modulus (GPa) = 24.87235 27.92208 26.39721
#
# Velocity S-wave (km/s) = 3.41398 3.61723 3.51708
# Velocity P-wave (km/s) = 6.07426 6.57855 6.33143
#
# Compressibility (1/GPa) = 0.02194215
#
# Stress axis : x y z
#
# Youngs Moduli (GPa) = 61.94655 95.98811 89.08370
#
# Poissons Ratio (x) = 0.31673 -0.02809
# Poissons Ratio (y) = 0.20440 0.43987
# Poissons Ratio (z) = -0.01953 0.47396
#
# Static dielectric constant tensor:
#      x y z
#    x 1.890700 0.000000 0.000000 
#    y 0.000000 1.816180 0.000000 
#    z 0.000000 0.000000 1.767590 
# 
# From -- ./inp_files/11684.got.cif
#   From: 2010.05.17/outbox.cif.g08.bks.cpg/sg56_6_cif.got.tgz:11684.got - 2010.06.03 13:42:01.
