data_PCOD9431406
_publ_section_title
;
Structure prediction by ZEFSAII (Michael W. Deem and Ramdas Pophale) SiO2 
 PCOD9431406
Probable space group: P C C N
;
_chemical_formula_sum "Si O2"
_cell_formula_units_Z 64
_cell_length_a 17.360845
_cell_length_b 5.728106
_cell_length_c 31.362577
_cell_angle_alpha 90.000000
_cell_angle_beta 90.000000
_cell_angle_gamma 90.000000
_cell_volume 3118.843956
_symmetry_space_group_name_H-M "P C C N"
_symmetry_group_IT_number 56
_symmetry_cell_setting 'orthorhombic'
loop_
_space_group_symop_operation_xyz
x,y,z
1/2-x,1/2-y,z
1/2+x,-y,1/2-z
-x,1/2+y,1/2-z
-x,-y,-z
1/2+x,1/2+y,-z
1/2-x,y,1/2+z
x,1/2-y,1/2+z
loop_
_atom_site_type_symbol
_atom_site_label
_atom_site_fract_x
_atom_site_fract_y
_atom_site_fract_z
Si Si1 0.544870 0.031047 0.853691
Si Si2 0.205243 0.007072 0.242905
Si Si3 0.330571 0.624146 0.153469
Si Si4 0.665316 0.822025 0.510973
Si Si5 0.528934 0.911379 0.063406
Si Si6 0.968638 0.404677 0.230856
Si Si7 0.562467 0.300096 0.008354
Si Si8 0.840863 0.773382 0.911433
O O1 0.498573 0.894358 0.817952
O O2 0.603762 0.890130 0.884139
O O3 0.601489 0.210729 0.830651
O O4 0.486897 0.143084 0.888013
O O5 0.250000 0.250000 0.256539
O O6 0.250000 0.750000 0.244727
O O7 0.185204 0.049109 0.192644
O O8 0.123020 0.958789 0.265522
O O9 0.250000 0.750000 0.145687
O O10 0.359153 0.524990 0.108446
O O11 0.750000 0.750000 0.523307
O O12 0.603236 0.712447 0.542918
O O13 0.651815 0.749534 0.461815
O O14 0.647233 0.096828 0.509522
O O15 0.544262 0.182117 0.053253
O O16 0.456703 0.857507 0.032297
O O17 0.007624 0.647001 0.250153
O O18 0.500000 0.500000 0.000000
O O19 0.750000 0.750000 0.901178
#
# Coordination Sequence:
#
# PCOD9431406 Si02
#       8
#     8   8   8   8   8   8   8   8
#     4  12  24  39  64  93 130 171 216 278 334 405
#     4  11  24  44  74  97 138 186 223 279 351 423
#     4  11  22  37  60  95 130 165 203 266 341 415
#     4  10  22  38  60  89 127 169 220 278 327 388
#     4  10  21  38  60  86 121 172 216 258 325 388
#     4  12  26  47  69 107 140 177 233 287 347 421
#     4   9  17  35  58  83 119 157 212 258 315 387
#     4  11  21  35  57  94 132 164 210 267 339 408
#
# _framework density 20.520422
#
# number of rings (size 3 to 8) (size 9 to 14) (size 15 to 20)
#    0.000    1.250    2.500    4.875    3.500    1.500 
#    0.000    0.625    2.750    0.000    0.000    0.000 
#    0.000    0.000    0.000    0.000    0.000    0.000 
#
# Total GULP energy -356408.084143 kJ/mol
# GULP energy per Si atom -5568.876315 kJ/mol
# Density = 2.047372 g / cm^3
# Si number density = 20.520422 Si / 1000 Ang^3
#
#
#
# Elastic Constant Matrix: (Units=GPa)
#
#
# Indices 1 2 3 4 5 6 
#
# 1 122.4447 35.7845 35.0251 0.0000 0.0000 0.0000
# 2 35.7845 64.7937 4.4496 0.0000 0.0000 0.0000
# 3 35.0251 4.4496 74.9999 0.0000 0.0000 0.0000
# 4 0.0000 0.0000 0.0000 19.9112 0.0000 0.0000
# 5 0.0000 0.0000 0.0000 0.0000 18.7769 0.0000
# 6 0.0000 0.0000 0.0000 0.0000 0.0000 37.6618
#
#
#
# Elastic Compliance Matrix: (Units=1/GPa)
#
#
# Indices 1 2 3 4 5 6 
#
# 1 0.011302 -0.005903 -0.004928 0.000000 0.000000 0.000000
# 2 -0.005903 0.018580 0.001655 0.000000 0.000000 0.000000
# 3 -0.004928 0.001655 0.015536 0.000000 0.000000 0.000000
# 4 0.000000 0.000000 0.000000 0.050223 0.000000 0.000000
# 5 0.000000 0.000000 0.000000 0.000000 0.053257 0.000000
# 6 0.000000 0.000000 0.000000 0.000000 0.000000 0.026552
#
#
# Mechanical properties :
#
#
# Convention : Reuss Voigt Hill
#
# Bulk Modulus (GPa) = 36.94747 45.86186 41.40466
# Shear Modulus (GPa) = 24.65174 27.73526 26.19350
#
# Velocity S-wave (km/s) = 3.46978 3.68039 3.57663
# Velocity P-wave (km/s) = 5.83924 6.36068 6.10553
#
# Compressibility (1/GPa) = 0.02706546
#
# Stress axis : x y z
#
# Youngs Moduli (GPa) = 88.48164 53.82037 64.36480
#
# Poissons Ratio (x) = 0.31772 0.31717
# Poissons Ratio (y) = 0.52234 -0.10650
# Poissons Ratio (z) = 0.43601 -0.08905
#
# Static dielectric constant tensor:
#      x y z
#    x 1.764720 0.000000 0.000000 
#    y 0.000000 1.920040 0.000000 
#    z 0.000000 0.000000 1.721940 
# 
# From -- ./inp_files/23692.got.cif
#   From: 2010.05.17/outbox.cif.g08.bks.cpg/sg56_12_cif.got.tgz:23692.got - 2010.06.03 13:42:01.
