data_PCOD9431388
_publ_section_title
;
Structure prediction by ZEFSAII (Michael W. Deem and Ramdas Pophale) SiO2 
 PCOD9431388
Probable space group: P C C N
;
_chemical_formula_sum "Si O2"
_cell_formula_units_Z 60
_cell_length_a 17.838490
_cell_length_b 6.439645
_cell_length_c 23.927677
_cell_angle_alpha 90.000000
_cell_angle_beta 90.000000
_cell_angle_gamma 90.000000
_cell_volume 2748.657031
_symmetry_space_group_name_H-M "P C C N"
_symmetry_group_IT_number 56
_symmetry_cell_setting 'orthorhombic'
loop_
_space_group_symop_operation_xyz
x,y,z
1/2-x,1/2-y,z
1/2+x,-y,1/2-z
-x,1/2+y,1/2-z
-x,-y,-z
1/2+x,1/2+y,-z
1/2-x,y,1/2+z
x,1/2-y,1/2+z
loop_
_atom_site_type_symbol
_atom_site_label
_atom_site_fract_x
_atom_site_fract_y
_atom_site_fract_z
Si Si1 0.076106 0.371637 0.897578
Si Si2 0.539712 0.297340 0.976196
Si Si3 0.250000 0.250000 0.638151
Si Si4 0.513072 0.799211 0.825737
Si Si5 0.830032 0.296411 0.063588
Si Si6 0.626065 0.031732 0.669501
Si Si7 0.352049 0.550608 0.712870
Si Si8 0.124964 0.558112 0.632059
O O1 0.155978 0.475897 0.910847
O O2 0.033758 0.323442 0.955289
O O3 0.020614 0.540797 0.870492
O O4 0.089361 0.179359 0.855230
O O5 0.586980 0.325018 0.919337
O O6 0.500000 0.500000 0.000000
O O7 0.600411 0.232965 0.022008
O O8 0.302011 0.400305 0.674767
O O9 0.194434 0.417465 0.610119
O O10 0.437741 0.687637 0.806392
O O11 0.564270 0.611268 0.847747
O O12 0.566344 0.937776 0.787465
O O13 0.750000 0.250000 0.036728
O O14 0.837927 0.139248 0.115601
O O15 0.678283 0.025508 0.723944
O O16 0.355543 0.775432 0.681474
#
# Coordination Sequence:
#
# PCOD9431388 Si02
#       8
#     8   8   4   8   8   8   8   8
#     4  11  22  46  71  96 143 180 231 294 347 422
#     4  12  22  47  75  99 139 189 237 291 357 420
#     4  10  26  44  66 102 138 192 232 278 362 418
#     4  10  21  37  66 104 127 173 224 288 346 406
#     4  11  27  44  65 105 139 185 238 290 356 428
#     4  11  24  42  68  98 139 180 233 286 357 422
#     4  11  24  40  70  96 143 183 230 290 351 426
#     4  11  23  45  67 100 140 175 236 287 350 419
#
# _framework density 21.828842000000002
#
# number of rings (size 3 to 8) (size 9 to 14) (size 15 to 20)
#    0.000    1.067    4.000    1.600    3.733    6.933 
#    2.400    0.000    0.000    0.000    0.000    0.000 
#    0.000    0.000    0.000    0.000    0.000    0.000 
#
# Total GULP energy -334372.091575 kJ/mol
# GULP energy per Si atom -5572.868193 kJ/mol
# Density = 2.177916 g / cm^3
# Si number density = 21.828842 Si / 1000 Ang^3
#
#
#
# Elastic Constant Matrix: (Units=GPa)
#
#
# Indices 1 2 3 4 5 6 
#
# 1 63.6666 30.4128 0.9210 0.0000 0.0000 0.0000
# 2 30.4128 107.5710 23.1273 0.0000 0.0000 0.0000
# 3 0.9210 23.1273 72.4744 0.0000 0.0000 0.0000
# 4 0.0000 0.0000 0.0000 22.6602 0.0000 0.0000
# 5 0.0000 0.0000 0.0000 0.0000 -0.0975 0.0000
# 6 0.0000 0.0000 0.0000 0.0000 0.0000 27.1719
#
#
#
# Elastic Compliance Matrix: (Units=1/GPa)
#
#
# Indices 1 2 3 4 5 6 
#
# 1 0.018315 -0.005506 0.001524 0.000000 0.000000 0.000000
# 2 -0.005506 0.011636 -0.003643 0.000000 0.000000 0.000000
# 3 0.001524 -0.003643 0.014941 0.000000 0.000000 0.000000
# 4 0.000000 0.000000 0.000000 0.044130 0.000000 0.000000
# 5 0.000000 0.000000 0.000000 0.000000-10.255470 0.000000
# 6 0.000000 0.000000 0.000000 0.000000 0.000000 0.036803
#
#
# Mechanical properties :
#
#
# Convention : Reuss Voigt Hill
#
# Bulk Modulus (GPa) = 33.73528 39.18157 36.45843
# Shear Modulus (GPa) = -0.49483 22.56365 11.03441
#
# Velocity S-wave (km/s) = -0.47663 3.21855 2.25076
# Velocity P-wave (km/s) = 3.89681 5.63919 4.84694
#
# Compressibility (1/GPa) = 0.02964256
#
# Stress axis : x y z
#
# Youngs Moduli (GPa) = 54.60071 85.93979 66.92903
#
# Poissons Ratio (x) = 0.47316 -0.10201
# Poissons Ratio (y) = 0.30062 0.24384
# Poissons Ratio (z) = -0.08322 0.31310
#
# Static dielectric constant tensor:
#      x y z
#    x 1.844330 0.000000 0.000000 
#    y 0.000000 1.861140 0.000000 
#    z 0.000000 0.000000 1.832970 
# 
# From -- ./inp_files/22534.got.cif
#   From: 2010.05.17/outbox.cif.g08.bks.cpg/sg56_12_cif.got.tgz:22534.got - 2010.06.03 13:42:01.
