data_PCOD9431852
_publ_section_title
;
Structure prediction by ZEFSAII (Michael W. Deem and Ramdas Pophale) SiO2 
 PCOD9431852
Probable space group: P C C N
;
_chemical_formula_sum "Si O2"
_cell_formula_units_Z 48
_cell_length_a 8.396686
_cell_length_b 17.755540
_cell_length_c 13.957159
_cell_angle_alpha 90.000000
_cell_angle_beta 90.000000
_cell_angle_gamma 90.000000
_cell_volume 2080.840652
_symmetry_space_group_name_H-M "P C C N"
_symmetry_group_IT_number 56
_symmetry_cell_setting 'orthorhombic'
loop_
_space_group_symop_operation_xyz
x,y,z
1/2-x,1/2-y,z
1/2+x,-y,1/2-z
-x,1/2+y,1/2-z
-x,-y,-z
1/2+x,1/2+y,-z
1/2-x,y,1/2+z
x,1/2-y,1/2+z
loop_
_atom_site_type_symbol
_atom_site_label
_atom_site_fract_x
_atom_site_fract_y
_atom_site_fract_z
Si Si1 0.617470 0.808436 0.579444
Si Si2 0.369902 0.808780 0.435921
Si Si3 0.679607 0.582485 0.448565
Si Si4 0.477661 0.410049 0.747262
Si Si5 0.648076 0.423559 0.220165
Si Si6 0.350863 0.588045 0.563559
O O1 0.750000 0.750000 0.612922
O O2 0.500978 0.769165 0.502111
O O3 0.698459 0.871995 0.512972
O O4 0.534033 0.848809 0.668870
O O5 0.250000 0.750000 0.387662
O O6 0.427609 0.868495 0.357930
O O7 0.266986 0.855634 0.512201
O O8 0.635190 0.611371 0.342377
O O9 0.514136 0.583088 0.506297
O O10 0.727490 0.495168 0.436543
O O11 0.415715 0.491215 0.785193
O O12 0.659083 0.421144 0.710550
O O13 0.613180 0.393673 0.326545
#
# Coordination Sequence:
#
# PCOD9431852 Si02
#       6
#     8   8   8   8   8   8
#     4  12  28  46  69 100 142 187 233 282 342 415
#     4  12  26  46  67  98 141 185 233 275 345 414
#     4  10  23  43  72 100 140 176 225 297 343 405
#     4  11  25  46  70 109 135 177 235 287 352 402
#     4  11  25  44  74 107 135 181 229 292 345 412
#     4  10  21  43  71 100 135 178 226 284 348 404
#
# _framework density 23.067599000000001
#
# number of rings (size 3 to 8) (size 9 to 14) (size 15 to 20)
#    0.000    1.000    3.333    2.000    9.333    2.667 
#    3.000    0.000    0.000    0.000    0.000    0.000 
#    0.000    0.000    0.000    0.000    0.000    0.000 
#
# Total GULP energy -268681.006718 kJ/mol
# GULP energy per Si atom -5597.520973 kJ/mol
# Density = 2.301510 g / cm^3
# Si number density = 23.067599 Si / 1000 Ang^3
#
#
#
# Elastic Constant Matrix: (Units=GPa)
#
#
# Indices 1 2 3 4 5 6 
#
# 1 33.9096 -3.9925 -2.1122 0.0000 0.0000 0.0000
# 2 -3.9925 36.5905 21.0364 0.0000 0.0000 0.0000
# 3 -2.1122 21.0364 86.5556 0.0000 0.0000 0.0000
# 4 0.0000 0.0000 0.0000 -1.4121 0.0000 0.0000
# 5 0.0000 0.0000 0.0000 0.0000 27.8541 0.0000
# 6 0.0000 0.0000 0.0000 0.0000 0.0000 21.5828
#
#
#
# Elastic Compliance Matrix: (Units=1/GPa)
#
#
# Indices 1 2 3 4 5 6 
#
# 1 0.029874 0.003302 -0.000073 0.000000 0.000000 0.000000
# 2 0.003302 0.032133 -0.007729 0.000000 0.000000 0.000000
# 3 -0.000073 -0.007729 0.013430 0.000000 0.000000 0.000000
# 4 0.000000 0.000000 0.000000 -0.708164 0.000000 0.000000
# 5 0.000000 0.000000 0.000000 0.000000 0.035901 0.000000
# 6 0.000000 0.000000 0.000000 0.000000 0.000000 0.046333
#
#
# Mechanical properties :
#
#
# Convention : Reuss Voigt Hill
#
# Bulk Modulus (GPa) = 15.05197 20.76878 17.91038
# Shear Modulus (GPa) = -9.62752 19.07991 4.72619
#
# Velocity S-wave (km/s) = -2.04516 2.87911 1.43293
# Velocity P-wave (km/s) = 0.98104 4.48055 3.24328
#
# Compressibility (1/GPa) = 0.06643647
#
# Stress axis : x y z
#
# Youngs Moduli (GPa) = 33.47347 31.12029 74.46052
#
# Poissons Ratio (x) = -0.10276 0.00547
# Poissons Ratio (y) = -0.11053 0.57551
# Poissons Ratio (z) = 0.00246 0.24053
#
# Static dielectric constant tensor:
#      x y z
#    x 1.903940 0.000000 0.000000 
#    y 0.000000 1.858070 0.000000 
#    z 0.000000 0.000000 1.821140 
# 
# From -- ./inp_files/10687.got.cif
#   From: 2010.05.17/outbox.cif.g08.bks.cpg/sg56_6_cif.got.tgz:10687.got - 2010.06.03 13:42:01.
