data_PCOD9431880
_publ_section_title
;
Structure prediction by ZEFSAII (Michael W. Deem and Ramdas Pophale) SiO2 
 PCOD9431880
Probable space group: P C C N
;
_chemical_formula_sum "Si O2"
_cell_formula_units_Z 32
_cell_length_a 11.235181
_cell_length_b 11.584116
_cell_length_c 8.737462
_cell_angle_alpha 90.000000
_cell_angle_beta 90.000000
_cell_angle_gamma 90.000000
_cell_volume 1137.177534
_symmetry_space_group_name_H-M "P C C N"
_symmetry_group_IT_number 56
_symmetry_cell_setting 'orthorhombic'
loop_
_space_group_symop_operation_xyz
x,y,z
1/2-x,1/2-y,z
1/2+x,-y,1/2-z
-x,1/2+y,1/2-z
-x,-y,-z
1/2+x,1/2+y,-z
1/2-x,y,1/2+z
x,1/2-y,1/2+z
loop_
_atom_site_type_symbol
_atom_site_label
_atom_site_fract_x
_atom_site_fract_y
_atom_site_fract_z
Si Si1 0.673981 0.405129 0.506369
Si Si2 0.379993 0.382660 0.313257
Si Si3 0.496202 0.799605 0.493036
Si Si4 0.865110 0.527886 0.686628
O O1 0.395262 0.514366 0.371918
O O2 0.625483 0.275223 0.516014
O O3 0.808067 0.446867 0.551075
O O4 0.642097 0.449907 0.337839
O O5 0.414409 0.302731 0.454552
O O6 0.240048 0.379752 0.279639
O O7 0.459092 0.348690 0.168477
O O8 0.526868 0.898129 0.618244
#
# Coordination Sequence:
#
# PCOD9431880 Si02
#       4
#     8   8   8   8
#     4  10  23  44  75 116 158 200 271 325 394 486
#     4  10  22  40  68 114 155 190 267 321 377 493
#     4  12  22  42  77 114 154 209 257 331 404 462
#     4  10  21  44  72 115 153 199 269 320 393 484
#
# _framework density 28.139845000000001
#
# number of rings (size 3 to 8) (size 9 to 14) (size 15 to 20)
#    1.500    0.000    2.500    3.000    0.000    2.000 
#    0.000   12.500    0.000    4.500   19.500    0.000 
#    0.000    0.000    0.000    0.000    0.000    0.000 
#
# Total GULP energy -179026.190085 kJ/mol
# GULP energy per Si atom -5594.568440 kJ/mol
# Density = 2.807580 g / cm^3
# Si number density = 28.139845 Si / 1000 Ang^3
#
#
#
# Elastic Constant Matrix: (Units=GPa)
#
#
# Indices 1 2 3 4 5 6 
#
# 1 135.8194 58.1531 76.8806 0.0000 0.0000 0.0000
# 2 58.1531 227.8239 79.7982 0.0000 0.0000 0.0000
# 3 76.8806 79.7982 190.7879 0.0000 0.0000 0.0000
# 4 0.0000 0.0000 0.0000 61.8931 0.0000 0.0000
# 5 0.0000 0.0000 0.0000 0.0000 52.2089 0.0000
# 6 0.0000 0.0000 0.0000 0.0000 0.0000 50.0062
#
#
#
# Elastic Compliance Matrix: (Units=1/GPa)
#
#
# Indices 1 2 3 4 5 6 
#
# 1 0.009865 -0.001319 -0.003424 0.000000 0.000000 0.000000
# 2 -0.001319 0.005319 -0.001693 0.000000 0.000000 0.000000
# 3 -0.003424 -0.001693 0.007329 0.000000 0.000000 0.000000
# 4 0.000000 0.000000 0.000000 0.016157 0.000000 0.000000
# 5 0.000000 0.000000 0.000000 0.000000 0.019154 0.000000
# 6 0.000000 0.000000 0.000000 0.000000 0.000000 0.019998
#
#
# Mechanical properties :
#
#
# Convention : Reuss Voigt Hill
#
# Bulk Modulus (GPa) = 103.71410 109.34388 106.52899
# Shear Modulus (GPa) = 53.24357 55.46160 54.35258
#
# Velocity S-wave (km/s) = 4.35455 4.44433 4.39967
# Velocity P-wave (km/s) = 7.88794 8.07946 7.98427
#
# Compressibility (1/GPa) = 0.00964189
#
# Stress axis : x y z
#
# Youngs Moduli (GPa) = 101.36357 188.00117 136.43906
#
# Poissons Ratio (x) = 0.24797 0.46713
# Poissons Ratio (y) = 0.13370 0.23102
# Poissons Ratio (z) = 0.34704 0.31833
#
# Static dielectric constant tensor:
#      x y z
#    x 2.481300 0.000000 0.000000 
#    y 0.000000 2.217810 0.000000 
#    z 0.000000 0.000000 2.106370 
# 
# From -- ./inp_files/2478.got.cif
#   From: 2010.05.17/outbox.cif.g08.bks.cpg/sg56_2_cif.got.tgz:2478.got - 2010.06.03 13:42:01.
