data_PCOD9431117
_publ_section_title
;
Structure prediction by ZEFSAII (Michael W. Deem and Ramdas Pophale) SiO2 
 PCOD9431117
Probable space group: P C C N
;
_chemical_formula_sum "Si O2"
_cell_formula_units_Z 56
_cell_length_a 16.368607
_cell_length_b 8.817079
_cell_length_c 19.286734
_cell_angle_alpha 90.000000
_cell_angle_beta 90.000000
_cell_angle_gamma 90.000000
_cell_volume 2783.525117
_symmetry_space_group_name_H-M "P C C N"
_symmetry_group_IT_number 56
_symmetry_cell_setting 'orthorhombic'
loop_
_space_group_symop_operation_xyz
x,y,z
1/2-x,1/2-y,z
1/2+x,-y,1/2-z
-x,1/2+y,1/2-z
-x,-y,-z
1/2+x,1/2+y,-z
1/2-x,y,1/2+z
x,1/2-y,1/2+z
loop_
_atom_site_type_symbol
_atom_site_label
_atom_site_fract_x
_atom_site_fract_y
_atom_site_fract_z
Si Si1 0.336558 0.455226 0.823880
Si Si2 0.555667 0.620376 0.536953
Si Si3 0.163634 0.336580 0.092957
Si Si4 0.988575 0.942792 0.078766
Si Si5 0.711008 0.417327 0.316257
Si Si6 0.884434 0.920794 0.815128
Si Si7 0.851534 0.588420 0.169616
O O1 0.403777 0.494338 0.882833
O O2 0.344890 0.547126 0.751212
O O3 0.239901 0.478124 0.837704
O O4 0.343849 0.271434 0.819457
O O5 0.500000 0.500000 0.500000
O O6 0.615855 0.684297 0.478127
O O7 0.510930 0.762034 0.571556
O O8 0.605288 0.546712 0.598986
O O9 0.250000 0.250000 0.084076
O O10 0.169967 0.513024 0.114786
O O11 0.118623 0.250541 0.156419
O O12 0.061370 0.992810 0.129191
O O13 0.000000 0.000000 0.000000
O O14 0.750000 0.250000 0.318719
O O15 0.790186 0.526700 0.311920
O O16 0.906848 0.954670 0.735865
#
# Coordination Sequence:
#
# PCOD9431117 Si02
#       7
#     8   8   8   8   8   8   8
#     4   9  19  38  64  90 122 165 218 265 313 399
#     4  11  25  40  61  95 132 162 215 271 334 392
#     4  10  21  39  67  89 123 178 213 260 324 404
#     4  11  23  40  62  92 129 171 218 263 327 400
#     4  10  21  38  63  95 126 160 216 271 327 380
#     4  10  20  41  62  89 124 165 219 263 315 393
#     4   9  19  40  67  87 118 173 221 259 322 400
#
# _framework density 20.118373999999999
#
# number of rings (size 3 to 8) (size 9 to 14) (size 15 to 20)
#    0.000    2.000    2.857    0.000    6.000    1.143 
#    7.714    0.000    0.000    0.000    0.000    0.000 
#    0.000    0.000    0.000    0.000    0.000    0.000 
#
# Total GULP energy -311767.996623 kJ/mol
# GULP energy per Si atom -5567.285654 kJ/mol
# Density = 2.007258 g / cm^3
# Si number density = 20.118374 Si / 1000 Ang^3
#
#
#
# Elastic Constant Matrix: (Units=GPa)
#
#
# Indices 1 2 3 4 5 6 
#
# 1 66.3592 8.9357 59.7026 0.0000 0.0000 0.0000
# 2 8.9357 48.8122 12.0106 0.0000 0.0000 0.0000
# 3 59.7026 12.0106 134.4214 0.0000 0.0000 0.0000
# 4 0.0000 0.0000 0.0000 25.0453 0.0000 0.0000
# 5 0.0000 0.0000 0.0000 0.0000 45.4486 0.0000
# 6 0.0000 0.0000 0.0000 0.0000 0.0000 26.0504
#
#
#
# Elastic Compliance Matrix: (Units=1/GPa)
#
#
# Indices 1 2 3 4 5 6 
#
# 1 0.025271 -0.001906 -0.011054 0.000000 0.000000 0.000000
# 2 -0.001906 0.021091 -0.001038 0.000000 0.000000 0.000000
# 3 -0.011054 -0.001038 0.012441 0.000000 0.000000 0.000000
# 4 0.000000 0.000000 0.000000 0.039928 0.000000 0.000000
# 5 0.000000 0.000000 0.000000 0.000000 0.022003 0.000000
# 6 0.000000 0.000000 0.000000 0.000000 0.000000 0.038387
#
#
# Mechanical properties :
#
#
# Convention : Reuss Voigt Hill
#
# Bulk Modulus (GPa) = 32.45924 45.65451 39.05688
# Shear Modulus (GPa) = 25.33106 30.57180 27.95143
#
# Velocity S-wave (km/s) = 3.55223 3.90243 3.73144
# Velocity P-wave (km/s) = 5.74401 6.56106 6.16608
#
# Compressibility (1/GPa) = 0.03080787
#
# Stress axis : x y z
#
# Youngs Moduli (GPa) = 39.57092 47.41354 80.37640
#
# Poissons Ratio (x) = 0.09039 0.88846
# Poissons Ratio (y) = 0.07544 0.08341
# Poissons Ratio (z) = 0.43740 0.04920
#
# Static dielectric constant tensor:
#      x y z
#    x 1.729530 0.000000 0.000000 
#    y 0.000000 1.734140 0.000000 
#    z 0.000000 0.000000 1.769560 
# 
# From -- ./inp_files/19140.got.cif
#   From: 2010.05.17/outbox.cif.g08.bks.cpg/sg56_10_cif.got.tgz:19140.got - 2010.06.03 13:42:01.
