data_PCOD9431302
_publ_section_title
;
Structure prediction by ZEFSAII (Michael W. Deem and Ramdas Pophale) SiO2 
 PCOD9431302
Probable space group: P C C N
;
_chemical_formula_sum "Si O2"
_cell_formula_units_Z 40
_cell_length_a 24.688998
_cell_length_b 8.160600
_cell_length_c 9.858202
_cell_angle_alpha 90.000000
_cell_angle_beta 90.000000
_cell_angle_gamma 90.000000
_cell_volume 1986.201330
_symmetry_space_group_name_H-M "P C C N"
_symmetry_group_IT_number 56
_symmetry_cell_setting 'orthorhombic'
loop_
_space_group_symop_operation_xyz
x,y,z
1/2-x,1/2-y,z
1/2+x,-y,1/2-z
-x,1/2+y,1/2-z
-x,-y,-z
1/2+x,1/2+y,-z
1/2-x,y,1/2+z
x,1/2-y,1/2+z
loop_
_atom_site_type_symbol
_atom_site_label
_atom_site_fract_x
_atom_site_fract_y
_atom_site_fract_z
Si Si1 0.611410 0.740797 0.733473
Si Si2 0.677929 0.078268 0.291988
Si Si3 0.059768 0.065958 0.528195
Si Si4 0.344144 0.840305 0.994296
Si Si5 0.284739 0.409425 0.674429
O O1 0.637976 0.577125 0.798527
O O2 0.569623 0.830690 0.834275
O O3 0.584023 0.679331 0.594282
O O4 0.664953 0.857851 0.729894
O O5 0.675164 0.183086 0.426293
O O6 0.739145 0.023916 0.261297
O O7 0.658706 0.184198 0.164978
O O8 0.096510 0.902531 0.534229
O O9 0.000000 0.000000 0.500000
O O10 0.308494 0.995823 0.044741
O O11 0.250000 0.250000 0.633267
#
# Coordination Sequence:
#
# PCOD9431302 Si02
#       5
#     8   8   8   8   8
#     4   9  21  40  61  85 112 151 199 240 294 362
#     4  10  21  36  56  84 120 155 190 239 295 352
#     4  10  22  41  62  85 115 152 199 250 295 346
#     4  10  22  36  54  86 118 150 196 241 288 354
#     4   9  19  35  57  82 115 154 191 238 295 356
#
# _framework density 20.138943999999999
#
# number of rings (size 3 to 8) (size 9 to 14) (size 15 to 20)
#    0.000    2.400    0.000    0.600    0.000   16.800 
#    0.000    2.000    0.000    0.000    0.000    0.000 
#    0.000    0.000    0.000    0.000    0.000    0.000 
#
# Total GULP energy -223134.913980 kJ/mol
# GULP energy per Si atom -5578.372850 kJ/mol
# Density = 2.009311 g / cm^3
# Si number density = 20.138944 Si / 1000 Ang^3
#
#
#
# Elastic Constant Matrix: (Units=GPa)
#
#
# Indices 1 2 3 4 5 6 
#
# 1 96.2886 24.6928 13.6726 0.0000 0.0000 0.0000
# 2 24.6928 55.1605 17.8711 0.0000 0.0000 0.0000
# 3 13.6726 17.8711 30.9871 0.0000 0.0000 0.0000
# 4 0.0000 0.0000 0.0000 26.8750 0.0000 0.0000
# 5 0.0000 0.0000 0.0000 0.0000 17.6159 0.0000
# 6 0.0000 0.0000 0.0000 0.0000 0.0000 22.1755
#
#
#
# Elastic Compliance Matrix: (Units=1/GPa)
#
#
# Indices 1 2 3 4 5 6 
#
# 1 0.011911 -0.004463 -0.002681 0.000000 0.000000 0.000000
# 2 -0.004463 0.023967 -0.011853 0.000000 0.000000 0.000000
# 3 -0.002681 -0.011853 0.040291 0.000000 0.000000 0.000000
# 4 0.000000 0.000000 0.000000 0.037209 0.000000 0.000000
# 5 0.000000 0.000000 0.000000 0.000000 0.056767 0.000000
# 6 0.000000 0.000000 0.000000 0.000000 0.000000 0.045095
#
#
# Mechanical properties :
#
#
# Convention : Reuss Voigt Hill
#
# Bulk Modulus (GPa) = 26.19652 32.76770 29.48211
# Shear Modulus (GPa) = 18.79986 21.74659 20.27323
#
# Velocity S-wave (km/s) = 3.05865 3.28964 3.17624
# Velocity P-wave (km/s) = 5.05073 5.54392 5.30307
#
# Compressibility (1/GPa) = 0.03817301
#
# Stress axis : x y z
#
# Youngs Moduli (GPa) = 83.95774 41.72382 24.81964
#
# Poissons Ratio (x) = 0.18622 0.06655
# Poissons Ratio (y) = 0.37472 0.29419
# Poissons Ratio (z) = 0.22513 0.49456
#
# Static dielectric constant tensor:
#      x y z
#    x 1.723950 0.000000 0.000000 
#    y 0.000000 1.758320 0.000000 
#    z 0.000000 0.000000 1.697590 
# 
# From -- ./inp_files/2036.got.cif
#   From: 2010.05.17/outbox.cif.g08.bks.cpg/sg56_2_cif.got.tgz:2036.got - 2010.06.03 13:42:01.
