data_PCOD9431300
_publ_section_title
;
Structure prediction by ZEFSAII (Michael W. Deem and Ramdas Pophale) SiO2 
 PCOD9431300
Probable space group: P C C N
;
_chemical_formula_sum "Si O2"
_cell_formula_units_Z 44
_cell_length_a 11.340641
_cell_length_b 5.725328
_cell_length_c 26.261894
_cell_angle_alpha 90.000000
_cell_angle_beta 90.000000
_cell_angle_gamma 90.000000
_cell_volume 1705.155612
_symmetry_space_group_name_H-M "P C C N"
_symmetry_group_IT_number 56
_symmetry_cell_setting 'orthorhombic'
loop_
_space_group_symop_operation_xyz
x,y,z
1/2-x,1/2-y,z
1/2+x,-y,1/2-z
-x,1/2+y,1/2-z
-x,-y,-z
1/2+x,1/2+y,-z
1/2-x,y,1/2+z
x,1/2-y,1/2+z
loop_
_atom_site_type_symbol
_atom_site_label
_atom_site_fract_x
_atom_site_fract_y
_atom_site_fract_z
Si Si1 0.750000 0.250000 0.584545
Si Si2 0.095566 0.388987 0.192195
Si Si3 0.369955 0.375969 0.848893
Si Si4 0.102198 0.685464 0.492796
Si Si5 0.972570 0.036441 0.415770
Si Si6 0.411792 0.890347 0.727277
O O1 0.833185 0.380958 0.625792
O O2 0.787518 0.429344 0.536647
O O3 0.960863 0.394410 0.215342
O O4 0.092481 0.410136 0.131085
O O5 0.143183 0.136603 0.210092
O O6 0.142294 0.638181 0.213577
O O7 0.250000 0.250000 0.832172
O O8 0.435389 0.213678 0.890165
O O9 0.465940 0.396490 0.805090
O O10 0.000000 0.500000 0.500000
O O11 0.111822 0.821986 0.545998
O O12 0.051230 0.862837 0.449707
#
# Coordination Sequence:
#
# PCOD9431300 Si02
#       6
#     4   8   8   8   8   8
#     4  12  22  36  58  82 122 152 206 258 316 350
#     4   9  18  35  57  83 112 151 189 241 288 362
#     4  11  21  34  57  88 120 154 192 258 310 361
#     4  11  22  36  56  85 116 159 206 256 300 369
#     4  10  21  36  56  83 118 157 207 243 305 366
#     4   9  19  33  56  86 115 144 193 232 300 362
#
# _framework density 25.804096000000001
#
# number of rings (size 3 to 8) (size 9 to 14) (size 15 to 20)
#    0.000    1.818    3.636    1.091    5.091    0.000 
#    0.000    0.000    0.000    3.273    0.000    0.000 
#    0.000    0.000    0.000    0.000    0.000    0.000 
#
# Total GULP energy -245131.910281 kJ/mol
# GULP energy per Si atom -5571.179779 kJ/mol
# Density = 2.574536 g / cm^3
# Si number density = 25.804096 Si / 1000 Ang^3
#
#
#
# Elastic Constant Matrix: (Units=GPa)
#
#
# Indices 1 2 3 4 5 6 
#
# 1 79.1280 46.7499 19.4542 0.0000 0.0000 0.0000
# 2 46.7499 177.0119 56.7153 0.0000 0.0000 0.0000
# 3 19.4542 56.7153 158.2726 0.0000 0.0000 0.0000
# 4 0.0000 0.0000 0.0000 76.8672 0.0000 0.0000
# 5 0.0000 0.0000 0.0000 0.0000 2219.1250 0.0000
# 6 0.0000 0.0000 0.0000 0.0000 0.0000 56.3261
#
#
#
# Elastic Compliance Matrix: (Units=1/GPa)
#
#
# Indices 1 2 3 4 5 6 
#
# 1 0.015006 -0.003810 -0.000479 0.000000 0.000000 0.000000
# 2 -0.003810 0.007349 -0.002165 0.000000 0.000000 0.000000
# 3 -0.000479 -0.002165 0.007153 0.000000 0.000000 0.000000
# 4 0.000000 0.000000 0.000000 0.013009 0.000000 0.000000
# 5 0.000000 0.000000 0.000000 0.000000 0.000451 0.000000
# 6 0.000000 0.000000 0.000000 0.000000 0.000000 0.017754
#
#
# Mechanical properties :
#
#
# Convention : Reuss Voigt Hill
#
# Bulk Modulus (GPa) = 60.24065 73.36124 66.80095
# Shear Modulus (GPa) = 63.15960 489.89655 276.52807
#
# Velocity S-wave (km/s) = 4.95275 13.79364 10.36325
# Velocity P-wave (km/s) = 7.49015 16.79814 13.00538
#
# Compressibility (1/GPa) = 0.01660009
#
# Stress axis : x y z
#
# Youngs Moduli (GPa) = 66.63812 136.06813 139.80090
#
# Poissons Ratio (x) = 0.51838 0.06701
# Poissons Ratio (y) = 0.25387 0.30270
# Poissons Ratio (z) = 0.03194 0.29462
#
# Static dielectric constant tensor:
#      x y z
#    x 1.317930 0.000000 0.000000 
#    y 0.000000 1.801810 0.000000 
#    z 0.000000 0.000000 2.122260 
# 
# From -- ./inp_files/21213.got.cif
#   From: 2010.05.17/outbox.cif.g08.bks.cpg/sg56_11_cif.got.tgz:21213.got - 2010.06.03 13:42:01.
