data_PCOD9431570
_publ_section_title
;
Structure prediction by ZEFSAII (Michael W. Deem and Ramdas Pophale) SiO2 
 PCOD9431570
Probable space group: P C C N
;
_chemical_formula_sum "Si O2"
_cell_formula_units_Z 56
_cell_length_a 30.334077
_cell_length_b 5.130823
_cell_length_c 14.219050
_cell_angle_alpha 90.000000
_cell_angle_beta 90.000000
_cell_angle_gamma 90.000000
_cell_volume 2213.035594
_symmetry_space_group_name_H-M "P C C N"
_symmetry_group_IT_number 56
_symmetry_cell_setting 'orthorhombic'
loop_
_space_group_symop_operation_xyz
x,y,z
1/2-x,1/2-y,z
1/2+x,-y,1/2-z
-x,1/2+y,1/2-z
-x,-y,-z
1/2+x,1/2+y,-z
1/2-x,y,1/2+z
x,1/2-y,1/2+z
loop_
_atom_site_type_symbol
_atom_site_label
_atom_site_fract_x
_atom_site_fract_y
_atom_site_fract_z
Si Si1 0.250000 0.250000 0.417339
Si Si2 0.591801 0.339548 0.032505
Si Si3 0.750000 0.250000 0.952450
Si Si4 0.396399 0.186394 0.619413
Si Si5 0.659064 0.937809 0.643270
Si Si6 0.010557 0.753542 0.561340
Si Si7 0.338024 0.686656 0.661248
Si Si8 0.431008 0.394666 0.316187
O O1 0.246116 0.502189 0.481315
O O2 0.297541 0.239068 0.365737
O O3 0.586983 0.637124 0.987077
O O4 0.563798 0.223194 0.944297
O O5 0.643464 0.371824 0.057701
O O6 0.574619 0.173309 0.125630
O O7 0.791526 0.301951 0.887473
O O8 0.367557 0.446162 0.624803
O O9 0.432478 0.137277 0.702012
O O10 0.362089 0.957360 0.644179
O O11 0.614193 0.769881 0.663372
O O12 0.667089 0.128757 0.729368
O O13 0.977196 0.769537 0.648317
O O14 0.000000 0.500000 0.500000
O O15 0.000000 0.000000 0.500000
#
# Coordination Sequence:
#
# PCOD9431570 Si02
#       8
#     4   8   4   8   8   8   8   8
#     4  12  30  42  72 104 136 182 250 290 352 436
#     4  11  22  42  73  98 140 188 233 287 355 422
#     4  12  26  48  64 102 142 180 234 312 346 430
#     4  11  25  41  69 105 138 191 238 289 357 428
#     4  11  24  44  70  98 138 188 238 290 362 428
#     4  10  21  39  68 101 132 182 228 283 354 413
#     4  11  25  45  68  97 142 184 236 293 365 421
#     4  10  23  44  68 103 145 182 236 296 352 428
#
# _framework density 25.304611000000001
#
# number of rings (size 3 to 8) (size 9 to 14) (size 15 to 20)
#    0.000    1.143    2.857    2.571    6.000    3.429 
#    0.000    5.714    0.000    0.000    0.000    0.000 
#    0.000    0.000    0.000    0.000    0.000    0.000 
#
# Total GULP energy -311848.471081 kJ/mol
# GULP energy per Si atom -5568.722698 kJ/mol
# Density = 2.524702 g / cm^3
# Si number density = 25.304611 Si / 1000 Ang^3
#
#
#
# Elastic Constant Matrix: (Units=GPa)
#
#
# Indices 1 2 3 4 5 6 
#
# 1 124.8360 37.2961 37.4237 0.0000 0.0000 0.0000
# 2 37.2961 149.9231 22.7896 0.0000 0.0000 0.0000
# 3 37.4237 22.7896 88.7719 0.0000 0.0000 0.0000
# 4 0.0000 0.0000 0.0000 40.1579 0.0000 0.0000
# 5 0.0000 0.0000 0.0000 0.0000 43.9570 0.0000
# 6 0.0000 0.0000 0.0000 0.0000 0.0000 41.7530
#
#
#
# Elastic Compliance Matrix: (Units=1/GPa)
#
#
# Indices 1 2 3 4 5 6 
#
# 1 0.009640 -0.001853 -0.003588 0.000000 0.000000 0.000000
# 2 -0.001853 0.007297 -0.001092 0.000000 0.000000 0.000000
# 3 -0.003588 -0.001092 0.013058 0.000000 0.000000 0.000000
# 4 0.000000 0.000000 0.000000 0.024902 0.000000 0.000000
# 5 0.000000 0.000000 0.000000 0.000000 0.022749 0.000000
# 6 0.000000 0.000000 0.000000 0.000000 0.000000 0.023950
#
#
# Mechanical properties :
#
#
# Convention : Reuss Voigt Hill
#
# Bulk Modulus (GPa) = 59.07235 62.06109 60.56672
# Shear Modulus (GPa) = 41.56098 42.90836 42.23467
#
# Velocity S-wave (km/s) = 4.05708 4.12232 4.08983
# Velocity P-wave (km/s) = 6.73363 6.87291 6.80363
#
# Compressibility (1/GPa) = 0.01692839
#
# Stress axis : x y z
#
# Youngs Moduli (GPa) = 103.73788 137.04280 76.58184
#
# Poissons Ratio (x) = 0.25389 0.27479
# Poissons Ratio (y) = 0.19219 0.08365
# Poissons Ratio (z) = 0.37223 0.14969
#
# Static dielectric constant tensor:
#      x y z
#    x 2.102760 0.000000 0.000000 
#    y 0.000000 2.093990 0.000000 
#    z 0.000000 0.000000 2.131410 
# 
# From -- ./inp_files/13500.got.cif
#   From: 2010.05.17/outbox.cif.g08.bks.cpg/sg56_7_cif.got.tgz:13500.got - 2010.06.03 13:42:01.
