data_PCOD9431384
_publ_section_title
;
Structure prediction by ZEFSAII (Michael W. Deem and Ramdas Pophale) SiO2 
 PCOD9431384
Probable space group: P C C N
;
_chemical_formula_sum "Si O2"
_cell_formula_units_Z 32
_cell_length_a 5.016930
_cell_length_b 15.298536
_cell_length_c 17.363743
_cell_angle_alpha 90.000000
_cell_angle_beta 90.000000
_cell_angle_gamma 90.000000
_cell_volume 1332.696520
_symmetry_space_group_name_H-M "P C C N"
_symmetry_group_IT_number 56
_symmetry_cell_setting 'orthorhombic'
loop_
_space_group_symop_operation_xyz
x,y,z
1/2-x,1/2-y,z
1/2+x,-y,1/2-z
-x,1/2+y,1/2-z
-x,-y,-z
1/2+x,1/2+y,-z
1/2-x,y,1/2+z
x,1/2-y,1/2+z
loop_
_atom_site_type_symbol
_atom_site_label
_atom_site_fract_x
_atom_site_fract_y
_atom_site_fract_z
Si Si1 0.308605 0.886425 0.771914
Si Si2 0.762728 0.344730 0.060873
Si Si3 0.741135 0.572871 0.502810
Si Si4 0.688304 0.592556 0.681442
O O1 0.207340 0.840883 0.848578
O O2 0.596014 0.864991 0.737907
O O3 0.103040 0.874856 0.702550
O O4 0.310356 0.988850 0.797995
O O5 0.750000 0.250000 0.021882
O O6 0.547912 0.416433 0.027414
O O7 0.077740 0.363585 0.053613
O O8 0.500000 0.500000 0.500000
O O9 0.752496 0.601084 0.591806
#
# Coordination Sequence:
#
# PCOD9431384 Si02
#       4
#     8   8   8   8
#     4  10  21  38  63  94 128 168 215 281 335 406
#     4  12  26  44  65  98 140 183 223 279 356 423
#     4  12  24  42  71 101 132 178 231 289 339 411
#     4  10  21  37  64  97 125 160 227 282 328 388
#
# _framework density 24.011469999999999
#
# number of rings (size 3 to 8) (size 9 to 14) (size 15 to 20)
#    0.000    1.000    2.500    4.500    7.000    0.000 
#    0.000    7.500    0.000    0.000    0.000    0.000 
#    0.000    0.000    0.000    0.000    0.000    0.000 
#
# Total GULP energy -178204.834776 kJ/mol
# GULP energy per Si atom -5568.901087 kJ/mol
# Density = 2.395682 g / cm^3
# Si number density = 24.011470 Si / 1000 Ang^3
#
#
#
# Elastic Constant Matrix: (Units=GPa)
#
#
# Indices 1 2 3 4 5 6 
#
# 1 157.4760 18.0180 9.3880 0.0000 0.0000 0.0000
# 2 18.0180 19.5309 -15.2570 0.0000 0.0000 0.0000
# 3 9.3880 -15.2570 114.3443 0.0000 0.0000 0.0000
# 4 0.0000 0.0000 0.0000 -284.8633 0.0000 0.0000
# 5 0.0000 0.0000 0.0000 0.0000 48.2039 0.0000
# 6 0.0000 0.0000 0.0000 0.0000 0.0000 1.2146
#
#
#
# Elastic Compliance Matrix: (Units=1/GPa)
#
#
# Indices 1 2 3 4 5 6 
#
# 1 0.007381 -0.008130 -0.001691 0.000000 0.000000 0.000000
# 2 -0.008130 0.066114 0.009489 0.000000 0.000000 0.000000
# 3 -0.001691 0.009489 0.010150 0.000000 0.000000 0.000000
# 4 0.000000 0.000000 0.000000 -0.003510 0.000000 0.000000
# 5 0.000000 0.000000 0.000000 0.000000 0.020745 0.000000
# 6 0.000000 0.000000 0.000000 0.000000 0.000000 0.823349
#
#
# Mechanical properties :
#
#
# Convention : Reuss Voigt Hill
#
# Bulk Modulus (GPa) = 12.05080 35.07212 23.56146
# Shear Modulus (GPa) = 5.24905 -28.47550 -11.61323
#
# Velocity S-wave (km/s) = 1.48014 -3.44744 -2.20160
# Velocity P-wave (km/s) = 2.81970 1.09926 1.83608
#
# Compressibility (1/GPa) = 0.08298202
#
# Stress axis : x y z
#
# Youngs Moduli (GPa) = 135.47876 15.12532 98.51738
#
# Poissons Ratio (x) = 0.12297 0.16658
# Poissons Ratio (y) = 1.10149 -0.93485
# Poissons Ratio (z) = 0.22908 -0.14353
#
# Static dielectric constant tensor:
#      x y z
#    x 1.841350 0.000000 0.000000 
#    y 0.000000 2.228770 0.000000 
#    z 0.000000 0.000000 1.451780 
# 
# From -- ./inp_files/9429.got.cif
#   From: 2010.05.17/outbox.cif.g08.bks.cpg/sg56_5_cif.got.tgz:9429.got - 2010.06.03 13:42:01.
