data_PCOD9431540
_publ_section_title
;
Structure prediction by ZEFSAII (Michael W. Deem and Ramdas Pophale) SiO2 
 PCOD9431540
Probable space group: P C C N
;
_chemical_formula_sum "Si O2"
_cell_formula_units_Z 44
_cell_length_a 9.012549
_cell_length_b 22.153254
_cell_length_c 9.524768
_cell_angle_alpha 90.000000
_cell_angle_beta 90.000000
_cell_angle_gamma 90.000000
_cell_volume 1901.689340
_symmetry_space_group_name_H-M "P C C N"
_symmetry_group_IT_number 56
_symmetry_cell_setting 'orthorhombic'
loop_
_space_group_symop_operation_xyz
x,y,z
1/2-x,1/2-y,z
1/2+x,-y,1/2-z
-x,1/2+y,1/2-z
-x,-y,-z
1/2+x,1/2+y,-z
1/2-x,y,1/2+z
x,1/2-y,1/2+z
loop_
_atom_site_type_symbol
_atom_site_label
_atom_site_fract_x
_atom_site_fract_y
_atom_site_fract_z
Si Si1 0.965502 0.293336 0.593602
Si Si2 0.698044 0.461383 0.563934
Si Si3 0.392157 0.012558 0.219337
Si Si4 0.420999 0.140180 0.348247
Si Si5 0.150047 0.671508 0.897359
Si Si6 0.250000 0.250000 0.266305
O O1 0.000379 0.350245 0.495608
O O2 0.810910 0.311571 0.665167
O O3 0.915780 0.229442 0.519912
O O4 0.110520 0.274477 0.678035
O O5 0.702107 0.500062 0.421812
O O6 0.842204 0.465387 0.662185
O O7 0.560781 0.485434 0.661043
O O8 0.661725 0.392195 0.523616
O O9 0.363230 0.076059 0.297548
O O10 0.298434 0.192188 0.353846
O O11 0.539059 0.159115 0.230068
#
# Coordination Sequence:
#
# PCOD9431540 Si02
#       6
#     8   8   8   8   8   4
#     4  10  21  39  64  89 125 167 208 279 326 398
#     4  10  23  45  64 101 131 178 222 285 336 409
#     4  10  24  42  67  94 136 171 227 275 338 407
#     4  10  22  41  60  93 126 167 217 270 337 402
#     4   9  22  40  63  92 123 164 227 268 330 399
#     4  10  22  38  58  96 126 160 210 266 336 404
#
# _framework density 23.137322000000001
#
# number of rings (size 3 to 8) (size 9 to 14) (size 15 to 20)
#    0.000    2.182    0.000    0.545    7.636    8.000 
#    6.545    0.000    0.000    0.000    0.000    0.000 
#    0.000    0.000    0.000    0.000    0.000    0.000 
#
# Total GULP energy -245346.374536 kJ/mol
# GULP energy per Si atom -5576.053967 kJ/mol
# Density = 2.308466 g / cm^3
# Si number density = 23.137322 Si / 1000 Ang^3
#
#
#
# Elastic Constant Matrix: (Units=GPa)
#
#
# Indices 1 2 3 4 5 6 
#
# 1 57.8467 17.4702 6.8297 0.0000 0.0000 0.0000
# 2 17.4702 93.3495 32.1875 0.0000 0.0000 0.0000
# 3 6.8297 32.1875 39.2775 0.0000 0.0000 0.0000
# 4 0.0000 0.0000 0.0000 23.7547 0.0000 0.0000
# 5 0.0000 0.0000 0.0000 0.0000 59.5247 0.0000
# 6 0.0000 0.0000 0.0000 0.0000 0.0000 26.6689
#
#
#
# Elastic Compliance Matrix: (Units=1/GPa)
#
#
# Indices 1 2 3 4 5 6 
#
# 1 0.018330 -0.003250 -0.000524 0.000000 0.000000 0.000000
# 2 -0.003250 0.015508 -0.012143 0.000000 0.000000 0.000000
# 3 -0.000524 -0.012143 0.035502 0.000000 0.000000 0.000000
# 4 0.000000 0.000000 0.000000 0.042097 0.000000 0.000000
# 5 0.000000 0.000000 0.000000 0.000000 0.016800 0.000000
# 6 0.000000 0.000000 0.000000 0.000000 0.000000 0.037497
#
#
# Mechanical properties :
#
#
# Convention : Reuss Voigt Hill
#
# Bulk Modulus (GPa) = 26.66250 33.71651 30.18950
# Shear Modulus (GPa) = 23.80152 30.92207 27.36179
#
# Velocity S-wave (km/s) = 3.21083 3.65973 3.44260
# Velocity P-wave (km/s) = 5.02936 5.69755 5.37385
#
# Compressibility (1/GPa) = 0.03750586
#
# Stress axis : x y z
#
# Youngs Moduli (GPa) = 54.55419 64.48402 28.16713
#
# Poissons Ratio (x) = 0.20956 0.01477
# Poissons Ratio (y) = 0.17729 0.34204
# Poissons Ratio (z) = 0.02860 0.78305
#
# Static dielectric constant tensor:
#      x y z
#    x 1.938730 0.000000 0.000000 
#    y 0.000000 1.930450 0.000000 
#    z 0.000000 0.000000 1.840030 
# 
# From -- ./inp_files/6372.got.cif
#   From: 2010.05.17/outbox.cif.g08.bks.cpg/sg56_4_cif.got.tgz:6372.got - 2010.06.03 13:42:01.
