data_PCOD9431723
_publ_section_title
;
Structure prediction by ZEFSAII (Michael W. Deem and Ramdas Pophale) SiO2 
 PCOD9431723
Probable space group: P C C N
;
_chemical_formula_sum "Si O2"
_cell_formula_units_Z 40
_cell_length_a 9.044643
_cell_length_b 16.391986
_cell_length_c 13.125270
_cell_angle_alpha 90.000000
_cell_angle_beta 90.000000
_cell_angle_gamma 90.000000
_cell_volume 1945.948086
_symmetry_space_group_name_H-M "P C C N"
_symmetry_group_IT_number 56
_symmetry_cell_setting 'orthorhombic'
loop_
_space_group_symop_operation_xyz
x,y,z
1/2-x,1/2-y,z
1/2+x,-y,1/2-z
-x,1/2+y,1/2-z
-x,-y,-z
1/2+x,1/2+y,-z
1/2-x,y,1/2+z
x,1/2-y,1/2+z
loop_
_atom_site_type_symbol
_atom_site_label
_atom_site_fract_x
_atom_site_fract_y
_atom_site_fract_z
Si Si1 0.572255 0.536107 0.867102
Si Si2 0.882334 0.203050 0.426600
Si Si3 0.131265 0.079810 0.359556
Si Si4 0.269257 0.937700 0.467387
Si Si5 0.144511 0.179583 0.982232
O O1 0.624726 0.542498 0.752443
O O2 0.395601 0.545697 0.882121
O O3 0.630272 0.612039 0.932371
O O4 0.641619 0.459570 0.928084
O O5 0.750000 0.250000 0.369151
O O6 0.804797 0.150269 0.517171
O O7 0.985754 0.135888 0.372587
O O8 0.992705 0.275071 0.459059
O O9 0.271648 0.138188 0.386061
O O10 0.147530 0.005771 0.439638
O O11 0.250000 0.250000 0.022057
#
# Coordination Sequence:
#
# PCOD9431723 Si02
#       5
#     8   8   8   8   8
#     4  10  21  41  65  91 127 167 212 260 314 383
#     4  11  21  41  64  92 131 164 210 267 320 379
#     4  10  23  40  65  94 124 171 217 259 318 382
#     4  10  22  41  65  93 127 168 209 265 319 373
#     4   9  20  40  63  91 129 165 202 264 321 376
#
# _framework density 20.555533
#
# number of rings (size 3 to 8) (size 9 to 14) (size 15 to 20)
#    0.000    2.000    2.000    0.600    2.800    2.400 
#    3.600    0.000    0.000    0.000    0.000    0.000 
#    0.000    0.000    0.000    0.000    0.000    0.000 
#
# Total GULP energy -222911.811725 kJ/mol
# GULP energy per Si atom -5572.795293 kJ/mol
# Density = 2.050875 g / cm^3
# Si number density = 20.555533 Si / 1000 Ang^3
#
#
#
# Elastic Constant Matrix: (Units=GPa)
#
#
# Indices 1 2 3 4 5 6 
#
# 1 125.4487 41.1708 38.9878 0.0000 0.0000 0.0000
# 2 41.1708 94.3404 18.1356 0.0000 0.0000 0.0000
# 3 38.9878 18.1356 62.0644 0.0000 0.0000 0.0000
# 4 0.0000 0.0000 0.0000 11.2442 0.0000 0.0000
# 5 0.0000 0.0000 0.0000 0.0000 11.9081 0.0000
# 6 0.0000 0.0000 0.0000 0.0000 0.0000 17.4644
#
#
#
# Elastic Compliance Matrix: (Units=1/GPa)
#
#
# Indices 1 2 3 4 5 6 
#
# 1 0.010989 -0.003675 -0.005829 0.000000 0.000000 0.000000
# 2 -0.003675 0.012460 -0.001332 0.000000 0.000000 0.000000
# 3 -0.005829 -0.001332 0.020163 0.000000 0.000000 0.000000
# 4 0.000000 0.000000 0.000000 0.088935 0.000000 0.000000
# 5 0.000000 0.000000 0.000000 0.000000 0.083976 0.000000
# 6 0.000000 0.000000 0.000000 0.000000 0.000000 0.057259
#
#
# Mechanical properties :
#
#
# Convention : Reuss Voigt Hill
#
# Bulk Modulus (GPa) = 45.58053 53.16022 49.37037
# Shear Modulus (GPa) = 16.51423 20.36063 18.43743
#
# Velocity S-wave (km/s) = 2.83750 3.15066 2.99817
# Velocity P-wave (km/s) = 5.74088 6.25727 6.00463
#
# Compressibility (1/GPa) = 0.02193919
#
# Stress axis : x y z
#
# Youngs Moduli (GPa) = 90.99836 80.25766 49.59470
#
# Poissons Ratio (x) = 0.29496 0.28910
# Poissons Ratio (y) = 0.33443 0.06607
# Poissons Ratio (z) = 0.53046 0.10692
#
# Static dielectric constant tensor:
#      x y z
#    x 1.847910 0.000000 0.000000 
#    y 0.000000 1.750230 0.000000 
#    z 0.000000 0.000000 1.676520 
# 
# From -- ./inp_files/6210.got.cif
#   From: 2010.05.17/outbox.cif.g08.bks.cpg/sg56_4_cif.got.tgz:6210.got - 2010.06.03 13:42:01.
