data_PCOD9431008
_publ_section_title
;
Structure prediction by ZEFSAII (Michael W. Deem and Ramdas Pophale) SiO2 
 PCOD9431008
Probable space group: P C C N
;
_chemical_formula_sum "Si O2"
_cell_formula_units_Z 52
_cell_length_a 12.566459
_cell_length_b 8.955337
_cell_length_c 20.261059
_cell_angle_alpha 90.000000
_cell_angle_beta 90.000000
_cell_angle_gamma 90.000000
_cell_volume 2280.116269
_symmetry_space_group_name_H-M "P C C N"
_symmetry_group_IT_number 56
_symmetry_cell_setting 'orthorhombic'
loop_
_space_group_symop_operation_xyz
x,y,z
1/2-x,1/2-y,z
1/2+x,-y,1/2-z
-x,1/2+y,1/2-z
-x,-y,-z
1/2+x,1/2+y,-z
1/2-x,y,1/2+z
x,1/2-y,1/2+z
loop_
_atom_site_type_symbol
_atom_site_label
_atom_site_fract_x
_atom_site_fract_y
_atom_site_fract_z
Si Si1 0.250000 0.750000 0.307412
Si Si2 0.145735 0.970870 0.410962
Si Si3 0.895500 0.517044 0.735387
Si Si4 0.750000 0.750000 0.659966
Si Si5 0.658871 0.021245 0.505209
Si Si6 0.524237 0.965051 0.388271
Si Si7 0.250000 0.250000 0.043295
Si Si8 0.423563 0.119466 0.118608
O O1 0.177400 0.854921 0.353499
O O2 0.170437 0.637736 0.270065
O O3 0.223846 0.931193 0.471785
O O4 0.020976 0.949139 0.422547
O O5 0.180579 0.133399 0.383506
O O6 0.820860 0.647483 0.707213
O O7 0.992900 0.522322 0.683601
O O8 0.926270 0.545801 0.810133
O O9 0.581381 0.053611 0.566448
O O10 0.603219 0.060333 0.435528
O O11 0.665206 0.840262 0.499378
O O12 0.563723 0.797933 0.375357
O O13 0.308014 0.120573 0.084779
#
# Coordination Sequence:
#
# PCOD9431008 Si02
#       8
#     4   8   8   4   8   8   4   8
#     4  10  20  40  66 100 134 180 226 278 354 412
#     4  11  20  38  67  98 131 186 230 291 355 426
#     4  11  22  41  67 102 143 187 232 288 358 436
#     4  10  22  34  62 100 136 180 236 282 364 416
#     4  10  20  39  67  92 136 171 245 289 354 429
#     4  10  21  40  67 101 127 192 225 298 356 424
#     4  10  24  44  64 102 138 190 236 310 362 418
#     4  11  24  41  69  98 146 181 240 291 366 430
#
# _framework density 22.805855000000001
#
# number of rings (size 3 to 8) (size 9 to 14) (size 15 to 20)
#    0.000    1.538    4.615    0.923    2.154    0.615 
#    2.769    0.000    6.769    0.000    0.000    0.000 
#    0.000    0.000    0.000    0.000    0.000    0.000 
#
# Total GULP energy -290285.588896 kJ/mol
# GULP energy per Si atom -5582.415171 kJ/mol
# Density = 2.275395 g / cm^3
# Si number density = 22.805855 Si / 1000 Ang^3
#
#
#
# Elastic Constant Matrix: (Units=GPa)
#
#
# Indices 1 2 3 4 5 6 
#
# 1 123.5324 20.1824 55.5155 0.0000 0.0000 0.0000
# 2 20.1824 80.7686 37.8804 0.0000 0.0000 0.0000
# 3 55.5155 37.8804 121.7778 0.0000 0.0000 0.0000
# 4 0.0000 0.0000 0.0000 -127.3922 0.0000 0.0000
# 5 0.0000 0.0000 0.0000 0.0000 -365.1774 0.0000
# 6 0.0000 0.0000 0.0000 0.0000 0.0000 35.7842
#
#
#
# Elastic Compliance Matrix: (Units=1/GPa)
#
#
# Indices 1 2 3 4 5 6 
#
# 1 0.010194 -0.000431 -0.004513 0.000000 0.000000 0.000000
# 2 -0.000431 0.014514 -0.004318 0.000000 0.000000 0.000000
# 3 -0.004513 -0.004318 0.011612 0.000000 0.000000 0.000000
# 4 0.000000 0.000000 0.000000 -0.007850 0.000000 0.000000
# 5 0.000000 0.000000 0.000000 0.000000 -0.002738 0.000000
# 6 0.000000 0.000000 0.000000 0.000000 0.000000 0.027945
#
#
# Mechanical properties :
#
#
# Convention : Reuss Voigt Hill
#
# Bulk Modulus (GPa) = 56.19310 61.47061 58.83186
# Shear Modulus (GPa) = 63.99329 -77.19038 -6.59855
#
# Velocity S-wave (km/s) = 5.30292 -5.82411 -1.70283
# Velocity P-wave (km/s) = 7.88593 4.26785 4.68899
#
# Compressibility (1/GPa) = 0.01779578
#
# Stress axis : x y z
#
# Youngs Moduli (GPa) = 98.10113 68.89898 86.11489
#
# Poissons Ratio (x) = 0.02966 0.38864
# Poissons Ratio (y) = 0.04224 0.37189
# Poissons Ratio (z) = 0.44274 0.29754
#
# Static dielectric constant tensor:
#      x y z
#    x 2.076250 0.000000 0.000000 
#    y 0.000000 1.840710 0.000000 
#    z 0.000000 0.000000 1.870690 
# 
# From -- ./inp_files/21111.got.cif
#   From: 2010.05.17/outbox.cif.g08.bks.cpg/sg56_11_cif.got.tgz:21111.got - 2010.06.03 13:42:01.
