data_PCOD9431323
_publ_section_title
;
Structure prediction by ZEFSAII (Michael W. Deem and Ramdas Pophale) SiO2 
 PCOD9431323
Probable space group: P C C N
;
_chemical_formula_sum "Si O2"
_cell_formula_units_Z 60
_cell_length_a 5.214533
_cell_length_b 32.542526
_cell_length_c 16.238844
_cell_angle_alpha 90.000000
_cell_angle_beta 90.000000
_cell_angle_gamma 90.000000
_cell_volume 2755.635624
_symmetry_space_group_name_H-M "P C C N"
_symmetry_group_IT_number 56
_symmetry_cell_setting 'orthorhombic'
loop_
_space_group_symop_operation_xyz
x,y,z
1/2-x,1/2-y,z
1/2+x,-y,1/2-z
-x,1/2+y,1/2-z
-x,-y,-z
1/2+x,1/2+y,-z
1/2-x,y,1/2+z
x,1/2-y,1/2+z
loop_
_atom_site_type_symbol
_atom_site_label
_atom_site_fract_x
_atom_site_fract_y
_atom_site_fract_z
Si Si1 0.571714 0.510261 0.700149
Si Si2 0.042539 0.372374 0.214166
Si Si3 0.343316 0.709776 0.285208
Si Si4 0.942227 0.668055 0.160833
Si Si5 0.509112 0.049240 0.487546
Si Si6 0.983570 0.562718 0.920034
Si Si7 0.250000 0.250000 0.341602
Si Si8 0.183397 0.910693 0.654337
O O1 0.853891 0.498870 0.731212
O O2 0.491548 0.481584 0.624076
O O3 0.539903 0.557540 0.676538
O O4 0.227346 0.356805 0.287543
O O5 0.122395 0.404757 0.145978
O O6 0.966640 0.329244 0.170767
O O7 0.812609 0.395732 0.260913
O O8 0.250000 0.750000 0.333864
O O9 0.538921 0.729458 0.218685
O O10 0.121963 0.688402 0.230978
O O11 0.849874 0.708935 0.112867
O O12 0.091855 0.632130 0.113659
O O13 0.221603 0.063113 0.507021
O O14 0.614314 0.064295 0.400100
O O15 0.725290 0.068110 0.549007
O O16 0.500000 0.000000 0.500000
#
# Coordination Sequence:
#
# PCOD9431323 Si02
#       8
#     8   8   8   8   8   8   4   8
#     4  12  24  38  63  90 119 160 211 267 319 362
#     4  10  21  36  62  90 123 157 208 265 309 368
#     4   8  15  29  53  90 128 150 185 248 317 373
#     4   9  18  32  58  89 125 150 199 254 318 370
#     4  12  28  44  60  84 125 174 216 264 318 373
#     4  12  26  43  62  88 125 166 215 263 315 373
#     4   8  14  30  52  90 128 150 180 250 322 374
#     4  11  24  36  60  84 121 161 217 259 314 373
#
# _framework density 21.773561000000001
#
# number of rings (size 3 to 8) (size 9 to 14) (size 15 to 20)
#    0.000    1.600    2.667    2.000    5.600    0.000 
#    0.000    0.000    0.000    0.000    0.000   14.933 
#    0.000    0.000    0.000    0.000    0.000    0.000 
#
# Total GULP energy -334621.073175 kJ/mol
# GULP energy per Si atom -5577.017886 kJ/mol
# Density = 2.172400 g / cm^3
# Si number density = 21.773561 Si / 1000 Ang^3
#
#
#
# Elastic Constant Matrix: (Units=GPa)
#
#
# Indices 1 2 3 4 5 6 
#
# 1 62.8052 22.1030 5.9253 0.0000 0.0000 0.0000
# 2 22.1030 172.8917 26.1102 0.0000 0.0000 0.0000
# 3 5.9253 26.1102 35.0851 0.0000 0.0000 0.0000
# 4 0.0000 0.0000 0.0000 7.2722 0.0000 0.0000
# 5 0.0000 0.0000 0.0000 0.0000 27.2070 0.0000
# 6 0.0000 0.0000 0.0000 0.0000 0.0000 39.0899
#
#
#
# Elastic Compliance Matrix: (Units=1/GPa)
#
#
# Indices 1 2 3 4 5 6 
#
# 1 0.016732 -0.001929 -0.001390 0.000000 0.000000 0.000000
# 2 -0.001929 0.006739 -0.004689 0.000000 0.000000 0.000000
# 3 -0.001390 -0.004689 0.032227 0.000000 0.000000 0.000000
# 4 0.000000 0.000000 0.000000 0.137510 0.000000 0.000000
# 5 0.000000 0.000000 0.000000 0.000000 0.036755 0.000000
# 6 0.000000 0.000000 0.000000 0.000000 0.000000 0.025582
#
#
# Mechanical properties :
#
#
# Convention : Reuss Voigt Hill
#
# Bulk Modulus (GPa) = 25.20117 42.11765 33.65941
# Shear Modulus (GPa) = 17.55685 29.15671 23.35678
#
# Velocity S-wave (km/s) = 2.84269 3.66333 3.27878
# Velocity P-wave (km/s) = 4.73010 6.10563 5.46135
#
# Compressibility (1/GPa) = 0.03968069
#
# Stress axis : x y z
#
# Youngs Moduli (GPa) = 59.76451 148.39536 31.03033
#
# Poissons Ratio (x) = 0.28628 0.04314
# Poissons Ratio (y) = 0.11530 0.14551
# Poissons Ratio (z) = 0.08308 0.69585
#
# Static dielectric constant tensor:
#      x y z
#    x 1.905550 0.000000 0.000000 
#    y 0.000000 1.871010 0.000000 
#    z 0.000000 0.000000 1.783910 
# 
# From -- ./inp_files/14154.got.cif
#   From: 2010.05.17/outbox.cif.g08.bks.cpg/sg56_8_cif.got.tgz:14154.got - 2010.06.03 13:42:01.
