data_PCOD9431619
_publ_section_title
;
Structure prediction by ZEFSAII (Michael W. Deem and Ramdas Pophale) SiO2 
 PCOD9431619
Probable space group: P C C N
;
_chemical_formula_sum "Si O2"
_cell_formula_units_Z 56
_cell_length_a 30.621991
_cell_length_b 5.126441
_cell_length_c 14.362180
_cell_angle_alpha 90.000000
_cell_angle_beta 90.000000
_cell_angle_gamma 90.000000
_cell_volume 2254.601302
_symmetry_space_group_name_H-M "P C C N"
_symmetry_group_IT_number 56
_symmetry_cell_setting 'orthorhombic'
loop_
_space_group_symop_operation_xyz
x,y,z
1/2-x,1/2-y,z
1/2+x,-y,1/2-z
-x,1/2+y,1/2-z
-x,-y,-z
1/2+x,1/2+y,-z
1/2-x,y,1/2+z
x,1/2-y,1/2+z
loop_
_atom_site_type_symbol
_atom_site_label
_atom_site_fract_x
_atom_site_fract_y
_atom_site_fract_z
Si Si1 0.286425 0.913562 0.901864
Si Si2 0.282004 0.078446 0.237158
Si Si3 0.141754 0.004352 0.838042
Si Si4 0.339067 0.526616 0.576419
Si Si5 0.392926 0.052001 0.535156
Si Si6 0.444872 0.683541 0.752991
Si Si7 0.970838 0.818176 0.854514
O O1 0.250000 0.750000 0.958673
O O2 0.324287 0.724746 0.863877
O O3 0.254229 0.001689 0.816388
O O4 0.310505 0.060604 0.985881
O O5 0.250000 0.250000 0.174264
O O6 0.307533 0.900629 0.162795
O O7 0.323878 0.201575 0.291294
O O8 0.104277 0.889141 0.774470
O O9 0.117638 0.110011 0.928084
O O10 0.371540 0.768747 0.554953
O O11 0.367999 0.270181 0.596023
O O12 0.444103 0.092836 0.555526
O O13 0.477457 0.644422 0.840779
O O14 0.449971 0.981148 0.720986
O O15 0.461190 0.479860 0.674436
#
# Coordination Sequence:
#
# PCOD9431619 Si02
#       7
#     8   8   8   8   8   8   8
#     4   9  22  41  59  89 126 160 211 263 306 367
#     4  11  23  38  62  90 123 167 213 256 312 370
#     4  10  22  39  62  91 125 165 207 260 313 372
#     4  11  25  43  65  91 126 167 206 258 316 368
#     4  11  23  41  65  93 128 161 204 258 312 375
#     4  10  22  40  65  91 124 162 206 255 309 375
#     4  10  21  40  63  93 125 161 205 255 308 375
#
# _framework density 24.838096
#
# number of rings (size 3 to 8) (size 9 to 14) (size 15 to 20)
#    0.000    1.714    0.000    3.429    0.000   14.286 
#    0.000    0.000    0.000    9.429    0.000    0.000 
#    0.000    0.000    0.000    0.000    0.000    0.000 
#
# Total GULP energy -311971.855623 kJ/mol
# GULP energy per Si atom -5570.925993 kJ/mol
# Density = 2.478156 g / cm^3
# Si number density = 24.838096 Si / 1000 Ang^3
#
#
#
# Elastic Constant Matrix: (Units=GPa)
#
#
# Indices 1 2 3 4 5 6 
#
# 1 95.8797 -11.6389 -20.8774 0.0000 0.0000 0.0000
# 2 -11.6389 66.7837 -22.1128 0.0000 0.0000 0.0000
# 3 -20.8774 -22.1128 45.8674 0.0000 0.0000 0.0000
# 4 0.0000 0.0000 0.0000 -0.2247 0.0000 0.0000
# 5 0.0000 0.0000 0.0000 0.0000 31.3120 0.0000
# 6 0.0000 0.0000 0.0000 0.0000 0.0000 27.4094
#
#
#
# Elastic Compliance Matrix: (Units=1/GPa)
#
#
# Indices 1 2 3 4 5 6 
#
# 1 0.012823 0.004959 0.008227 0.000000 0.000000 0.000000
# 2 0.004959 0.019736 0.011772 0.000000 0.000000 0.000000
# 3 0.008227 0.011772 0.031222 0.000000 0.000000 0.000000
# 4 0.000000 0.000000 0.000000 -4.450551 0.000000 0.000000
# 5 0.000000 0.000000 0.000000 0.000000 0.031937 0.000000
# 6 0.000000 0.000000 0.000000 0.000000 0.000000 0.036484
#
#
# Mechanical properties :
#
#
# Convention : Reuss Voigt Hill
#
# Bulk Modulus (GPa) = 8.79527 11.03030 9.91279
# Shear Modulus (GPa) = -1.15464 29.24334 14.04435
#
# Velocity S-wave (km/s) = -0.68255 3.43499 2.38047
# Velocity P-wave (km/s) = 1.71101 4.49252 3.39928
#
# Compressibility (1/GPa) = 0.11369747
#
# Stress axis : x y z
#
# Youngs Moduli (GPa) = 77.98364 50.66955 32.02864
#
# Poissons Ratio (x) = -0.25127 -0.26351
# Poissons Ratio (y) = -0.38672 -0.37703
# Poissons Ratio (z) = -0.64161 -0.59647
#
# Static dielectric constant tensor:
#      x y z
#    x 1.972170 0.000000 0.000000 
#    y 0.000000 2.236600 0.000000 
#    z 0.000000 0.000000 2.062790 
# 
# From -- ./inp_files/13452.got.cif
#   From: 2010.05.17/outbox.cif.g08.bks.cpg/sg56_7_cif.got.tgz:13452.got - 2010.06.03 13:42:01.
