data_PCOD9431209
_publ_section_title
;
Structure prediction by ZEFSAII (Michael W. Deem and Ramdas Pophale) SiO2 
 PCOD9431209
Probable space group: P C C N
;
_chemical_formula_sum "Si O2"
_cell_formula_units_Z 48
_cell_length_a 26.156733
_cell_length_b 6.159137
_cell_length_c 13.309167
_cell_angle_alpha 90.000000
_cell_angle_beta 90.000000
_cell_angle_gamma 90.000000
_cell_volume 2144.145427
_symmetry_space_group_name_H-M "P C C N"
_symmetry_group_IT_number 56
_symmetry_cell_setting 'orthorhombic'
loop_
_space_group_symop_operation_xyz
x,y,z
1/2-x,1/2-y,z
1/2+x,-y,1/2-z
-x,1/2+y,1/2-z
-x,-y,-z
1/2+x,1/2+y,-z
1/2-x,y,1/2+z
x,1/2-y,1/2+z
loop_
_atom_site_type_symbol
_atom_site_label
_atom_site_fract_x
_atom_site_fract_y
_atom_site_fract_z
Si Si1 0.358977 0.216399 0.587182
Si Si2 0.878985 0.481850 0.730004
Si Si3 0.030679 0.399752 0.592869
Si Si4 0.045863 0.879540 0.310572
Si Si5 0.852148 0.629290 0.114606
Si Si6 0.698539 0.115534 0.288089
O O1 0.380337 0.335487 0.685865
O O2 0.411327 0.105887 0.552452
O O3 0.341712 0.385132 0.503058
O O4 0.315536 0.051120 0.623348
O O5 0.930014 0.361624 0.698449
O O6 0.853397 0.613782 0.639435
O O7 0.845524 0.293094 0.777993
O O8 0.033607 0.532843 0.698814
O O9 0.000000 0.500000 0.500000
O O10 0.004210 0.167630 0.622284
O O11 0.091717 0.026349 0.358302
O O12 0.809461 0.519481 0.184684
O O13 0.750000 0.250000 0.297537
#
# Coordination Sequence:
#
# PCOD9431209 Si02
#       6
#     8   8   8   8   8   8
#     4  11  23  42  66 101 132 182 231 289 349 420
#     4  10  20  44  66  90 140 173 227 288 351 409
#     4  12  25  39  65  97 140 190 240 288 356 418
#     4  11  24  42  60  98 139 192 238 294 345 420
#     4  10  23  42  67  96 134 182 229 290 352 425
#     4  10  23  46  72  99 135 178 224 297 364 417
#
# _framework density 22.386541000000001
#
# number of rings (size 3 to 8) (size 9 to 14) (size 15 to 20)
#    0.000    1.333    5.000    2.000    4.667    6.000 
#    0.000    5.000    0.000    0.000    0.000    0.000 
#    0.000    0.000    0.000    0.000    0.000    0.000 
#
# Total GULP energy -267816.706802 kJ/mol
# GULP energy per Si atom -5579.514725 kJ/mol
# Density = 2.233559 g / cm^3
# Si number density = 22.386541 Si / 1000 Ang^3
#
#
#
# Elastic Constant Matrix: (Units=GPa)
#
#
# Indices 1 2 3 4 5 6 
#
# 1 88.0074 18.3915 32.3685 0.0000 0.0000 0.0000
# 2 18.3915 70.7439 20.4791 0.0000 0.0000 0.0000
# 3 32.3685 20.4791 100.7390 0.0000 0.0000 0.0000
# 4 0.0000 0.0000 0.0000 23.8526 0.0000 0.0000
# 5 0.0000 0.0000 0.0000 0.0000 14.8305 0.0000
# 6 0.0000 0.0000 0.0000 0.0000 0.0000 31.8303
#
#
#
# Elastic Compliance Matrix: (Units=1/GPa)
#
#
# Indices 1 2 3 4 5 6 
#
# 1 0.013243 -0.002349 -0.003778 0.000000 0.000000 0.000000
# 2 -0.002349 0.015436 -0.002383 0.000000 0.000000 0.000000
# 3 -0.003778 -0.002383 0.011625 0.000000 0.000000 0.000000
# 4 0.000000 0.000000 0.000000 0.041924 0.000000 0.000000
# 5 0.000000 0.000000 0.000000 0.000000 0.067428 0.000000
# 6 0.000000 0.000000 0.000000 0.000000 0.000000 0.031417
#
#
# Mechanical properties :
#
#
# Convention : Reuss Voigt Hill
#
# Bulk Modulus (GPa) = 42.94783 44.66316 43.80550
# Shear Modulus (GPa) = 24.28902 26.65278 25.47090
#
# Velocity S-wave (km/s) = 3.29748 3.45421 3.37676
# Velocity P-wave (km/s) = 5.80725 5.99191 5.90030
#
# Compressibility (1/GPa) = 0.02328406
#
# Stress axis : x y z
#
# Youngs Moduli (GPa) = 75.51177 64.78318 86.02256
#
# Poissons Ratio (x) = 0.15219 0.32495
# Poissons Ratio (y) = 0.17740 0.20500
# Poissons Ratio (z) = 0.28525 0.15439
#
# Static dielectric constant tensor:
#      x y z
#    x 1.916630 0.000000 0.000000 
#    y 0.000000 1.874040 0.000000 
#    z 0.000000 0.000000 1.898540 
# 
# From -- ./inp_files/13363.got.cif
#   From: 2010.05.17/outbox.cif.g08.bks.cpg/sg56_7_cif.got.tgz:13363.got - 2010.06.03 13:42:01.
