data_PCOD9431857
_publ_section_title
;
Structure prediction by ZEFSAII (Michael W. Deem and Ramdas Pophale) SiO2 
 PCOD9431857
Probable space group: P C C N
;
_chemical_formula_sum "Si O2"
_cell_formula_units_Z 28
_cell_length_a 9.657899
_cell_length_b 5.381020
_cell_length_c 24.245990
_cell_angle_alpha 90.000000
_cell_angle_beta 90.000000
_cell_angle_gamma 90.000000
_cell_volume 1260.048284
_symmetry_space_group_name_H-M "P C C N"
_symmetry_group_IT_number 56
_symmetry_cell_setting 'orthorhombic'
loop_
_space_group_symop_operation_xyz
x,y,z
1/2-x,1/2-y,z
1/2+x,-y,1/2-z
-x,1/2+y,1/2-z
-x,-y,-z
1/2+x,1/2+y,-z
1/2-x,y,1/2+z
x,1/2-y,1/2+z
loop_
_atom_site_type_symbol
_atom_site_label
_atom_site_fract_x
_atom_site_fract_y
_atom_site_fract_z
Si Si1 0.750000 0.750000 0.879699
Si Si2 0.250000 0.250000 0.297652
Si Si3 0.467462 0.626689 0.644799
Si Si4 0.886327 0.363310 0.463664
Si Si5 0.750000 0.250000 0.272714
O O1 0.878990 0.626369 0.848051
O O2 0.682761 0.550367 0.920377
O O3 0.378636 0.339012 0.334622
O O4 0.219563 0.502431 0.262812
O O5 0.459476 0.674582 0.579082
O O6 0.377405 0.802868 0.685610
O O7 0.750000 0.250000 0.493714
O O8 0.000000 0.500000 0.500000
#
# Coordination Sequence:
#
# PCOD9431857 Si02
#       5
#     4   4   8   8   4
#     4  10  21  43  72  88 146 184 229 291 378 426
#     4  12  29  39  74 108 142 184 253 299 352 442
#     4  11  24  44  68 102 139 188 234 304 361 437
#     4  10  23  41  68  97 131 183 232 294 365 435
#     4  12  24  46  68 102 144 196 234 294 376 428
#
# _framework density 22.221371000000001
#
# number of rings (size 3 to 8) (size 9 to 14) (size 15 to 20)
#    0.000    1.143    4.286    2.571    4.000    8.000 
#    0.000    0.000    0.000    0.000    0.000    0.000 
#    0.000    0.000    0.000    0.000    0.000    0.000 
#
# Total GULP energy -156070.221157 kJ/mol
# GULP energy per Si atom -5573.936470 kJ/mol
# Density = 2.217079 g / cm^3
# Si number density = 22.221371 Si / 1000 Ang^3
#
#
#
# Elastic Constant Matrix: (Units=GPa)
#
#
# Indices 1 2 3 4 5 6 
#
# 1 201.8485 38.8814 76.8408 0.0000 0.0000 0.0000
# 2 38.8814 105.5274 30.4641 0.0000 0.0000 0.0000
# 3 76.8408 30.4641 86.6694 0.0000 0.0000 0.0000
# 4 0.0000 0.0000 0.0000 5.3327 0.0000 0.0000
# 5 0.0000 0.0000 0.0000 0.0000 -390.6130 0.0000
# 6 0.0000 0.0000 0.0000 0.0000 0.0000 27.8820
#
#
#
# Elastic Compliance Matrix: (Units=1/GPa)
#
#
# Indices 1 2 3 4 5 6 
#
# 1 0.007562 -0.000947 -0.006372 0.000000 0.000000 0.000000
# 2 -0.000947 0.010665 -0.002909 0.000000 0.000000 0.000000
# 3 -0.006372 -0.002909 0.018210 0.000000 0.000000 0.000000
# 4 0.000000 0.000000 0.000000 0.187523 0.000000 0.000000
# 5 0.000000 0.000000 0.000000 0.000000 -0.002560 0.000000
# 6 0.000000 0.000000 0.000000 0.000000 0.000000 0.035865
#
#
# Mechanical properties :
#
#
# Convention : Reuss Voigt Hill
#
# Bulk Modulus (GPa) = 62.57325 76.26865 69.42095
# Shear Modulus (GPa) = 17.66479 -54.95573 -18.64547
#
# Velocity S-wave (km/s) = 2.82254 -4.97843 -2.89983
# Velocity P-wave (km/s) = 6.23237 1.16208 4.48291
#
# Compressibility (1/GPa) = 0.01598127
#
# Stress axis : x y z
#
# Youngs Moduli (GPa) = 132.23524 93.76527 54.91499
#
# Poissons Ratio (x) = 0.08878 0.34991
# Poissons Ratio (y) = 0.12521 0.15976
# Poissons Ratio (z) = 0.84259 0.27278
#
# Static dielectric constant tensor:
#      x y z
#    x 1.775470 0.000000 0.000000 
#    y 0.000000 2.390600 0.000000 
#    z 0.000000 0.000000 1.830350 
# 
# From -- ./inp_files/19798.got.cif
#   From: 2010.05.17/outbox.cif.g08.bks.cpg/sg56_10_cif.got.tgz:19798.got - 2010.06.03 13:42:01.
