data_PCOD9431627
_publ_section_title
;
Structure prediction by ZEFSAII (Michael W. Deem and Ramdas Pophale) SiO2 
 PCOD9431627
Probable space group: P C C N
;
_chemical_formula_sum "Si O2"
_cell_formula_units_Z 32
_cell_length_a 10.412507
_cell_length_b 9.900927
_cell_length_c 14.183642
_cell_angle_alpha 90.000000
_cell_angle_beta 90.000000
_cell_angle_gamma 90.000000
_cell_volume 1462.240895
_symmetry_space_group_name_H-M "P C C N"
_symmetry_group_IT_number 56
_symmetry_cell_setting 'orthorhombic'
loop_
_space_group_symop_operation_xyz
x,y,z
1/2-x,1/2-y,z
1/2+x,-y,1/2-z
-x,1/2+y,1/2-z
-x,-y,-z
1/2+x,1/2+y,-z
1/2-x,y,1/2+z
x,1/2-y,1/2+z
loop_
_atom_site_type_symbol
_atom_site_label
_atom_site_fract_x
_atom_site_fract_y
_atom_site_fract_z
Si Si1 0.784785 0.396551 0.335858
Si Si2 0.050972 0.309735 0.399020
Si Si3 0.098045 0.621361 0.984892
Si Si4 0.797694 0.947411 0.661820
O O1 0.750000 0.250000 0.293933
O O2 0.793924 0.105197 0.434006
O O3 0.751640 0.519002 0.266752
O O4 0.937756 0.392916 0.350281
O O5 0.095994 0.172073 0.344246
O O6 0.180057 0.395343 0.402323
O O7 0.983577 0.255671 0.494520
O O8 0.154084 0.587484 0.883315
O O9 0.000000 0.500000 0.000000
#
# Coordination Sequence:
#
# PCOD9431627 Si02
#       4
#     8   8   8   8
#     4  10  22  37  62  92 126 164 212 259 313 383
#     4   9  21  39  59  91 128 157 218 260 300 394
#     4   9  20  40  60  85 127 163 206 259 305 376
#     4  10  21  40  64  90 128 169 203 267 324 359
#
# _framework density 21.884217
#
# number of rings (size 3 to 8) (size 9 to 14) (size 15 to 20)
#    0.000    2.500    0.000    0.000   10.500    4.000 
#    4.500    2.500    0.000    0.000    0.000    0.000 
#    0.000    0.000    0.000    0.000    0.000    0.000 
#
# Total GULP energy -178259.475059 kJ/mol
# GULP energy per Si atom -5570.608596 kJ/mol
# Density = 2.183441 g / cm^3
# Si number density = 21.884217 Si / 1000 Ang^3
#
#
#
# Elastic Constant Matrix: (Units=GPa)
#
#
# Indices 1 2 3 4 5 6 
#
# 1 107.4919 11.7707 6.1539 0.0000 0.0000 0.0000
# 2 11.7707 44.6792 9.9316 0.0000 0.0000 0.0000
# 3 6.1539 9.9316 32.9304 0.0000 0.0000 0.0000
# 4 0.0000 0.0000 0.0000 27.3458 0.0000 0.0000
# 5 0.0000 0.0000 0.0000 0.0000 13.1513 0.0000
# 6 0.0000 0.0000 0.0000 0.0000 0.0000 28.0365
#
#
#
# Elastic Compliance Matrix: (Units=1/GPa)
#
#
# Indices 1 2 3 4 5 6 
#
# 1 0.009617 -0.002287 -0.001107 0.000000 0.000000 0.000000
# 2 -0.002287 0.024534 -0.006972 0.000000 0.000000 0.000000
# 3 -0.001107 -0.006972 0.032677 0.000000 0.000000 0.000000
# 4 0.000000 0.000000 0.000000 0.036569 0.000000 0.000000
# 5 0.000000 0.000000 0.000000 0.000000 0.076038 0.000000
# 6 0.000000 0.000000 0.000000 0.000000 0.000000 0.035668
#
#
# Mechanical properties :
#
#
# Convention : Reuss Voigt Hill
#
# Bulk Modulus (GPa) = 21.69455 26.75710 24.22583
# Shear Modulus (GPa) = 19.90445 24.18976 22.04710
#
# Velocity S-wave (km/s) = 3.01912 3.32829 3.17747
# Velocity P-wave (km/s) = 4.69982 5.19839 4.95538
#
# Compressibility (1/GPa) = 0.04609452
#
# Stress axis : x y z
#
# Youngs Moduli (GPa) = 103.98367 40.75950 30.60289
#
# Poissons Ratio (x) = 0.09323 0.03389
# Poissons Ratio (y) = 0.23786 0.21336
# Poissons Ratio (z) = 0.11514 0.28417
#
# Static dielectric constant tensor:
#      x y z
#    x 1.829540 0.000000 0.000000 
#    y 0.000000 1.833930 0.000000 
#    z 0.000000 0.000000 1.798740 
# 
# From -- ./inp_files/6767.got.cif
#   From: 2010.05.17/outbox.cif.g08.bks.cpg/sg56_4_cif.got.tgz:6767.got - 2010.06.03 13:42:01.
