data_PCOD9431870
_publ_section_title
;
Structure prediction by ZEFSAII (Michael W. Deem and Ramdas Pophale) SiO2 
 PCOD9431870
Probable space group: P C C N
;
_chemical_formula_sum "Si O2"
_cell_formula_units_Z 40
_cell_length_a 7.154190
_cell_length_b 11.523355
_cell_length_c 17.722919
_cell_angle_alpha 90.000000
_cell_angle_beta 90.000000
_cell_angle_gamma 90.000000
_cell_volume 1461.082247
_symmetry_space_group_name_H-M "P C C N"
_symmetry_group_IT_number 56
_symmetry_cell_setting 'orthorhombic'
loop_
_space_group_symop_operation_xyz
x,y,z
1/2-x,1/2-y,z
1/2+x,-y,1/2-z
-x,1/2+y,1/2-z
-x,-y,-z
1/2+x,1/2+y,-z
1/2-x,y,1/2+z
x,1/2-y,1/2+z
loop_
_atom_site_type_symbol
_atom_site_label
_atom_site_fract_x
_atom_site_fract_y
_atom_site_fract_z
Si Si1 0.288664 0.077131 0.457092
Si Si2 0.623223 0.144318 0.974243
Si Si3 0.598351 0.905774 0.711026
Si Si4 0.954717 0.721000 0.407361
Si Si5 0.519474 0.342477 0.250844
O O1 0.398073 0.067194 0.378869
O O2 0.406766 0.155795 0.514793
O O3 0.078935 0.125182 0.436314
O O4 0.240541 0.970958 0.513051
O O5 0.750000 0.250000 0.944718
O O6 0.567950 0.171218 0.061296
O O7 0.454799 0.795583 0.723917
O O8 0.804186 0.861491 0.729115
O O9 0.587344 0.022668 0.763589
O O10 0.750000 0.750000 0.377288
O O11 0.057488 0.665663 0.338352
#
# Coordination Sequence:
#
# PCOD9431870 Si02
#       5
#     8   8   8   8   8
#     4  10  24  44  71 102 141 181 243 302 351 425
#     4  10  22  39  71 106 134 179 235 298 370 419
#     4  11  26  47  72 104 143 190 240 299 357 441
#     4  10  21  44  68  97 140 184 225 299 359 422
#     4  11  26  46  70 100 146 190 236 289 369 428
#
# _framework density 27.376967
#
# number of rings (size 3 to 8) (size 9 to 14) (size 15 to 20)
#    0.000    1.600    2.000    1.200   11.200    5.600 
#    0.000    0.000    0.000    0.000    0.000    0.000 
#    0.000    0.000    0.000    0.000    0.000    0.000 
#
# Total GULP energy -222905.636397 kJ/mol
# GULP energy per Si atom -5572.640910 kJ/mol
# Density = 2.731466 g / cm^3
# Si number density = 27.376967 Si / 1000 Ang^3
#
#
#
# Elastic Constant Matrix: (Units=GPa)
#
#
# Indices 1 2 3 4 5 6 
#
# 1 59.5386 28.8207 9.5439 0.0000 0.0000 0.0000
# 2 28.8207 150.0728 25.4317 0.0000 0.0000 0.0000
# 3 9.5439 25.4317 124.7494 0.0000 0.0000 0.0000
# 4 0.0000 0.0000 0.0000 88.1121 0.0000 0.0000
# 5 0.0000 0.0000 0.0000 0.0000 -6.5898 0.0000
# 6 0.0000 0.0000 0.0000 0.0000 0.0000 48.4323
#
#
#
# Elastic Compliance Matrix: (Units=1/GPa)
#
#
# Indices 1 2 3 4 5 6 
#
# 1 0.018579 -0.003446 -0.000719 0.000000 0.000000 0.000000
# 2 -0.003446 0.007541 -0.001274 0.000000 0.000000 0.000000
# 3 -0.000719 -0.001274 0.008331 0.000000 0.000000 0.000000
# 4 0.000000 0.000000 0.000000 0.011349 0.000000 0.000000
# 5 0.000000 0.000000 0.000000 0.000000 -0.151749 0.000000
# 6 0.000000 0.000000 0.000000 0.000000 0.000000 0.020647
#
#
# Mechanical properties :
#
#
# Convention : Reuss Voigt Hill
#
# Bulk Modulus (GPa) = 42.42043 51.32817 46.87430
# Shear Modulus (GPa) = -75.11351 44.02855 -15.54248
#
# Velocity S-wave (km/s) = -5.24369 4.01463 -2.38527
# Velocity P-wave (km/s) = 4.59708 6.34658 3.09401
#
# Compressibility (1/GPa) = 0.02357355
#
# Stress axis : x y z
#
# Youngs Moduli (GPa) = 53.82346 132.60648 120.03763
#
# Poissons Ratio (x) = 0.45699 0.08629
# Poissons Ratio (y) = 0.18549 0.15289
# Poissons Ratio (z) = 0.03869 0.16890
#
# Static dielectric constant tensor:
#      x y z
#    x 2.123600 0.000000 0.000000 
#    y 0.000000 2.342900 0.000000 
#    z 0.000000 0.000000 2.071370 
# 
# From -- ./inp_files/14434.got.cif
#   From: 2010.05.17/outbox.cif.g08.bks.cpg/sg56_8_cif.got.tgz:14434.got - 2010.06.03 13:42:01.
