data_PCOD9431714
_publ_section_title
;
Structure prediction by ZEFSAII (Michael W. Deem and Ramdas Pophale) SiO2 
 PCOD9431714
Probable space group: P C C N
;
_chemical_formula_sum "Si O2"
_cell_formula_units_Z 40
_cell_length_a 7.695723
_cell_length_b 15.215759
_cell_length_c 15.921954
_cell_angle_alpha 90.000000
_cell_angle_beta 90.000000
_cell_angle_gamma 90.000000
_cell_volume 1864.401369
_symmetry_space_group_name_H-M "P C C N"
_symmetry_group_IT_number 56
_symmetry_cell_setting 'orthorhombic'
loop_
_space_group_symop_operation_xyz
x,y,z
1/2-x,1/2-y,z
1/2+x,-y,1/2-z
-x,1/2+y,1/2-z
-x,-y,-z
1/2+x,1/2+y,-z
1/2-x,y,1/2+z
x,1/2-y,1/2+z
loop_
_atom_site_type_symbol
_atom_site_label
_atom_site_fract_x
_atom_site_fract_y
_atom_site_fract_z
Si Si1 0.620952 0.365785 0.510167
Si Si2 0.391571 0.032419 0.681431
Si Si3 0.581701 0.703442 0.920156
Si Si4 0.504350 0.090260 0.447748
Si Si5 0.503617 0.517718 0.630547
O O1 0.552100 0.280557 0.558130
O O2 0.814074 0.363513 0.472328
O O3 0.605283 0.445144 0.576742
O O4 0.510879 0.397414 0.429306
O O5 0.466423 0.122413 0.640729
O O6 0.408494 0.035407 0.780712
O O7 0.493189 0.946002 0.646128
O O8 0.193405 0.017926 0.648787
O O9 0.750000 0.750000 0.883144
O O10 0.630677 0.655485 0.008794
O O11 0.500000 0.000000 0.500000
#
# Coordination Sequence:
#
# PCOD9431714 Si02
#       5
#     8   8   8   8   8
#     4  10  21  41  64  90 126 168 210 257 317 378
#     4  10  22  40  62  95 126 161 215 258 312 383
#     4  11  21  39  63  93 125 159 213 266 311 373
#     4   9  21  38  63  89 120 168 208 247 315 381
#     4  10  22  39  65  92 126 167 208 254 317 381
#
# _framework density 21.454605999999998
#
# number of rings (size 3 to 8) (size 9 to 14) (size 15 to 20)
#    0.000    2.000    2.000    0.600    8.400    0.000 
#    3.600    1.000    0.000    0.000    0.000    0.000 
#    0.000    0.000    0.000    0.000    0.000    0.000 
#
# Total GULP energy -223043.858837 kJ/mol
# GULP energy per Si atom -5576.096471 kJ/mol
# Density = 2.140577 g / cm^3
# Si number density = 21.454606 Si / 1000 Ang^3
#
#
#
# Elastic Constant Matrix: (Units=GPa)
#
#
# Indices 1 2 3 4 5 6 
#
# 1 33.4271 1.6709 15.1654 0.0000 0.0000 0.0000
# 2 1.6709 53.2324 15.5884 0.0000 0.0000 0.0000
# 3 15.1654 15.5884 132.3209 0.0000 0.0000 0.0000
# 4 0.0000 0.0000 0.0000 12.3304 0.0000 0.0000
# 5 0.0000 0.0000 0.0000 0.0000 27.9199 0.0000
# 6 0.0000 0.0000 0.0000 0.0000 0.0000 37.5113
#
#
#
# Elastic Compliance Matrix: (Units=1/GPa)
#
#
# Indices 1 2 3 4 5 6 
#
# 1 0.031557 0.000071 -0.003625 0.000000 0.000000 0.000000
# 2 0.000071 0.019457 -0.002300 0.000000 0.000000 0.000000
# 3 -0.003625 -0.002300 0.008244 0.000000 0.000000 0.000000
# 4 0.000000 0.000000 0.000000 0.081101 0.000000 0.000000
# 5 0.000000 0.000000 0.000000 0.000000 0.035817 0.000000
# 6 0.000000 0.000000 0.000000 0.000000 0.000000 0.026659
#
#
# Mechanical properties :
#
#
# Convention : Reuss Voigt Hill
#
# Bulk Modulus (GPa) = 21.03096 31.53663 26.28379
# Shear Modulus (GPa) = 21.70212 27.98937 24.84575
#
# Velocity S-wave (km/s) = 3.18392 3.61582 3.40672
# Velocity P-wave (km/s) = 4.83118 5.67128 5.26800
#
# Compressibility (1/GPa) = 0.04754896
#
# Stress axis : x y z
#
# Youngs Moduli (GPa) = 31.68873 51.39560 121.30248
#
# Poissons Ratio (x) = -0.00365 0.43974
# Poissons Ratio (y) = -0.00225 0.27903
# Poissons Ratio (z) = 0.11488 0.11823
#
# Static dielectric constant tensor:
#      x y z
#    x 1.938550 0.000000 0.000000 
#    y 0.000000 1.790690 0.000000 
#    z 0.000000 0.000000 1.771040 
# 
# From -- ./inp_files/10346.got.cif
#   From: 2010.05.17/outbox.cif.g08.bks.cpg/sg56_6_cif.got.tgz:10346.got - 2010.06.03 13:42:01.
