data_PCOD9431350
_publ_section_title
;
Structure prediction by ZEFSAII (Michael W. Deem and Ramdas Pophale) SiO2 
 PCOD9431350
Probable space group: P C C N
;
_chemical_formula_sum "Si O2"
_cell_formula_units_Z 32
_cell_length_a 7.332224
_cell_length_b 5.020950
_cell_length_c 36.069521
_cell_angle_alpha 90.000000
_cell_angle_beta 90.000000
_cell_angle_gamma 90.000000
_cell_volume 1327.889680
_symmetry_space_group_name_H-M "P C C N"
_symmetry_group_IT_number 56
_symmetry_cell_setting 'orthorhombic'
loop_
_space_group_symop_operation_xyz
x,y,z
1/2-x,1/2-y,z
1/2+x,-y,1/2-z
-x,1/2+y,1/2-z
-x,-y,-z
1/2+x,1/2+y,-z
1/2-x,y,1/2+z
x,1/2-y,1/2+z
loop_
_atom_site_type_symbol
_atom_site_label
_atom_site_fract_x
_atom_site_fract_y
_atom_site_fract_z
Si Si1 0.467504 0.702342 0.073584
Si Si2 0.879805 0.501829 0.650182
Si Si3 0.548105 0.133444 0.727259
Si Si4 0.966312 0.806448 0.465118
O O1 0.250000 0.750000 0.069789
O O2 0.513826 0.584942 0.113324
O O3 0.539224 0.491242 0.042543
O O4 0.960910 0.499591 0.067518
O O5 0.750000 0.750000 0.660815
O O6 0.008597 0.439588 0.685426
O O7 0.750000 0.250000 0.643016
O O8 0.750000 0.250000 0.723157
O O9 0.444731 0.371042 0.747677
O O10 0.750000 0.750000 0.463413
O O11 0.000000 0.000000 0.500000
#
# Coordination Sequence:
#
# PCOD9431350 Si02
#       4
#     8   8   8   8
#     4  10  22  40  60  86 121 158 201 252 306 368
#     4  11  23  41  63  91 124 160 205 258 309 370
#     4  11  23  42  65  93 128 165 208 260 313 373
#     4  10  21  37  58  86 119 155 200 252 304 365
#
# _framework density 24.098386999999999
#
# number of rings (size 3 to 8) (size 9 to 14) (size 15 to 20)
#    0.000    1.500    0.000    6.000    0.000    4.000 
#    0.000   10.000    0.000    0.000    0.000    0.000 
#    0.000    0.000    0.000    0.000    0.000    0.000 
#
# Total GULP energy -178783.194837 kJ/mol
# GULP energy per Si atom -5586.974839 kJ/mol
# Density = 2.404354 g / cm^3
# Si number density = 24.098387 Si / 1000 Ang^3
#
#
#
# Elastic Constant Matrix: (Units=GPa)
#
#
# Indices 1 2 3 4 5 6 
#
# 1 41.4476 35.1608 14.0549 0.0000 0.0000 0.0000
# 2 35.1608 216.7517 79.2485 0.0000 0.0000 0.0000
# 3 14.0549 79.2485 172.1531 0.0000 0.0000 0.0000
# 4 0.0000 0.0000 0.0000 30.6113 0.0000 0.0000
# 5 0.0000 0.0000 0.0000 0.0000 25.3858 0.0000
# 6 0.0000 0.0000 0.0000 0.0000 0.0000 33.5221
#
#
#
# Elastic Compliance Matrix: (Units=1/GPa)
#
#
# Indices 1 2 3 4 5 6 
#
# 1 0.027985 -0.004454 -0.000234 0.000000 0.000000 0.000000
# 2 -0.004454 0.006256 -0.002516 0.000000 0.000000 0.000000
# 3 -0.000234 -0.002516 0.006986 0.000000 0.000000 0.000000
# 4 0.000000 0.000000 0.000000 0.032668 0.000000 0.000000
# 5 0.000000 0.000000 0.000000 0.000000 0.039392 0.000000
# 6 0.000000 0.000000 0.000000 0.000000 0.000000 0.029831
#
#
# Mechanical properties :
#
#
# Convention : Reuss Voigt Hill
#
# Bulk Modulus (GPa) = 37.28868 76.36454 56.82661
# Shear Modulus (GPa) = 30.03611 38.02971 34.03291
#
# Velocity S-wave (km/s) = 3.53426 3.97684 3.76207
# Velocity P-wave (km/s) = 5.67114 7.26942 6.51944
#
# Compressibility (1/GPa) = 0.02681779
#
# Stress axis : x y z
#
# Youngs Moduli (GPa) = 35.73390 159.84492 143.13813
#
# Poissons Ratio (x) = 0.71193 0.03356
# Poissons Ratio (y) = 0.15915 0.36018
# Poissons Ratio (z) = 0.00838 0.40221
#
# Static dielectric constant tensor:
#      x y z
#    x 1.921430 0.000000 0.000000 
#    y 0.000000 1.932410 0.000000 
#    z 0.000000 0.000000 2.003580 
# 
# From -- ./inp_files/23087.got.cif
#   From: 2010.05.17/outbox.cif.g08.bks.cpg/sg56_12_cif.got.tgz:23087.got - 2010.06.03 13:42:01.
