data_PCOD9431660
_publ_section_title
;
Structure prediction by ZEFSAII (Michael W. Deem and Ramdas Pophale) SiO2 
 PCOD9431660
Probable space group: P C C N
;
_chemical_formula_sum "Si O2"
_cell_formula_units_Z 60
_cell_length_a 26.668997
_cell_length_b 4.958975
_cell_length_c 17.989267
_cell_angle_alpha 90.000000
_cell_angle_beta 90.000000
_cell_angle_gamma 90.000000
_cell_volume 2379.096560
_symmetry_space_group_name_H-M "P C C N"
_symmetry_group_IT_number 56
_symmetry_cell_setting 'orthorhombic'
loop_
_space_group_symop_operation_xyz
x,y,z
1/2-x,1/2-y,z
1/2+x,-y,1/2-z
-x,1/2+y,1/2-z
-x,-y,-z
1/2+x,1/2+y,-z
1/2-x,y,1/2+z
x,1/2-y,1/2+z
loop_
_atom_site_type_symbol
_atom_site_label
_atom_site_fract_x
_atom_site_fract_y
_atom_site_fract_z
Si Si1 0.250000 0.750000 0.881506
Si Si2 0.878531 0.539559 0.654308
Si Si3 0.018622 0.875427 0.705410
Si Si4 0.390819 0.367647 0.559112
Si Si5 0.829352 0.010077 0.716175
Si Si6 0.194792 0.128811 0.970587
Si Si7 0.116140 0.620067 0.651708
Si Si8 0.530945 0.686088 0.057967
O O1 0.274673 0.965775 0.823794
O O2 0.292747 0.669646 0.941143
O O3 0.859087 0.246759 0.673791
O O4 0.841995 0.703308 0.596966
O O5 0.931272 0.523680 0.612787
O O6 0.864517 0.743681 0.720279
O O7 0.075065 0.765478 0.704100
O O8 0.988581 0.663217 0.756838
O O9 0.000803 0.853522 0.618985
O O10 0.338590 0.218687 0.538372
O O11 0.379927 0.669062 0.584079
O O12 0.431927 0.361119 0.493857
O O13 0.407911 0.159057 0.622895
O O14 0.832100 0.094676 0.803013
O O15 0.250000 0.250000 0.973072
O O16 0.500000 0.500000 0.000000
#
# Coordination Sequence:
#
# PCOD9431660 Si02
#       8
#     4   8   8   8   8   8   8   8
#     4  10  22  40  72 100 128 174 242 290 350 426
#     4  10  22  40  68 101 130 176 230 289 347 402
#     4  12  26  45  72 103 138 187 243 297 349 422
#     4  11  27  44  67  99 141 185 228 289 358 425
#     4  11  22  43  68  96 137 176 230 292 352 413
#     4  10  21  40  67  96 132 171 230 291 341 418
#     4  12  25  46  64  99 146 182 227 288 360 428
#     4  11  24  46  71 104 142 188 237 287 353 434
#
# _framework density 25.219660000000001
#
# number of rings (size 3 to 8) (size 9 to 14) (size 15 to 20)
#    0.000    1.067    2.667    3.200    1.867    4.800 
#    2.400    0.000    0.000    0.000    0.000    0.000 
#    0.000    0.000    0.000    0.000    0.000    0.000 
#
# Total GULP energy -334558.835712 kJ/mol
# GULP energy per Si atom -5575.980595 kJ/mol
# Density = 2.516226 g / cm^3
# Si number density = 25.219660 Si / 1000 Ang^3
#
#
#
# Elastic Constant Matrix: (Units=GPa)
#
#
# Indices 1 2 3 4 5 6 
#
# 1 91.9370 10.1344 32.0977 0.0000 0.0000 0.0000
# 2 10.1344 90.9780 2.2240 0.0000 0.0000 0.0000
# 3 32.0977 2.2240 77.8155 0.0000 0.0000 0.0000
# 4 0.0000 0.0000 0.0000 31.1607 0.0000 0.0000
# 5 0.0000 0.0000 0.0000 0.0000 39.0878 0.0000
# 6 0.0000 0.0000 0.0000 0.0000 0.0000 -8.8165
#
#
#
# Elastic Compliance Matrix: (Units=1/GPa)
#
#
# Indices 1 2 3 4 5 6 
#
# 1 0.012860 -0.001304 -0.005267 0.000000 0.000000 0.000000
# 2 -0.001304 0.011132 0.000220 0.000000 0.000000 0.000000
# 3 -0.005267 0.000220 0.015017 0.000000 0.000000 0.000000
# 4 0.000000 0.000000 0.000000 0.032092 0.000000 0.000000
# 5 0.000000 0.000000 0.000000 0.000000 0.025583 0.000000
# 6 0.000000 0.000000 0.000000 0.000000 0.000000 -0.113424
#
#
# Mechanical properties :
#
#
# Convention : Reuss Voigt Hill
#
# Bulk Modulus (GPa) = 38.01427 38.84919 38.43173
# Shear Modulus (GPa) = 1057.01519 26.70471 541.85995
#
# Velocity S-wave (km/s) = 20.49472 3.25758 14.67387
# Velocity P-wave (km/s) = 23.98230 5.43938 17.38875
#
# Compressibility (1/GPa) = 0.02630591
#
# Stress axis : x y z
#
# Youngs Moduli (GPa) = 77.76276 89.83498 66.59013
#
# Poissons Ratio (x) = 0.11712 0.35074
# Poissons Ratio (y) = 0.10138 -0.01462
# Poissons Ratio (z) = 0.40959 -0.01973
#
# Static dielectric constant tensor:
#      x y z
#    x 2.088060 0.000000 0.000000 
#    y 0.000000 2.239840 0.000000 
#    z 0.000000 0.000000 2.231850 
# 
# From -- ./inp_files/17047.got.cif
#   From: 2010.05.17/outbox.cif.g08.bks.cpg/sg56_9_cif.got.tgz:17047.got - 2010.06.03 13:42:01.
