data_PCOD9431356
_publ_section_title
;
Structure prediction by ZEFSAII (Michael W. Deem and Ramdas Pophale) SiO2 
 PCOD9431356
Probable space group: P C C N
;
_chemical_formula_sum "Si O2"
_cell_formula_units_Z 60
_cell_length_a 13.161999
_cell_length_b 8.551237
_cell_length_c 23.813707
_cell_angle_alpha 90.000000
_cell_angle_beta 90.000000
_cell_angle_gamma 90.000000
_cell_volume 2680.265415
_symmetry_space_group_name_H-M "P C C N"
_symmetry_group_IT_number 56
_symmetry_cell_setting 'orthorhombic'
loop_
_space_group_symop_operation_xyz
x,y,z
1/2-x,1/2-y,z
1/2+x,-y,1/2-z
-x,1/2+y,1/2-z
-x,-y,-z
1/2+x,1/2+y,-z
1/2-x,y,1/2+z
x,1/2-y,1/2+z
loop_
_atom_site_type_symbol
_atom_site_label
_atom_site_fract_x
_atom_site_fract_y
_atom_site_fract_z
Si Si1 0.156422 0.556972 0.758721
Si Si2 0.567667 0.387074 0.382702
Si Si3 0.633714 0.969817 0.455703
Si Si4 0.017249 0.253837 0.768316
Si Si5 0.750000 0.250000 0.956448
Si Si6 0.314464 0.091577 0.328545
Si Si7 0.763293 0.922401 0.343581
Si Si8 0.930785 0.673349 0.561049
O O1 0.084240 0.403139 0.752490
O O2 0.235714 0.539205 0.809293
O O3 0.223314 0.549374 0.701521
O O4 0.076376 0.695198 0.768503
O O5 0.536478 0.295999 0.327054
O O6 0.660988 0.311318 0.416196
O O7 0.619748 0.547143 0.361962
O O8 0.470580 0.346525 0.421609
O O9 0.692192 0.928176 0.398795
O O10 0.616701 0.830899 0.499273
O O11 0.702199 0.101973 0.487025
O O12 0.527476 0.055292 0.441688
O O13 0.094300 0.112573 0.783763
O O14 0.250000 0.250000 0.322921
O O15 0.359400 0.101848 0.390796
O O16 0.750000 0.750000 0.318643
#
# Coordination Sequence:
#
# PCOD9431356 Si02
#       8
#     8   8   8   8   4   8   8   8
#     4  11  23  37  60  86 122 159 199 255 303 370
#     4   9  18  34  58  79 108 154 203 236 289 378
#     4   9  18  33  59  85 114 157 193 253 307 361
#     4  10  21  37  59  82 115 159 199 240 312 361
#     4   8  14  30  54  84 108 142 204 240 286 360
#     4   9  19  36  56  83 115 155 197 246 297 358
#     4  11  22  36  57  86 120 149 201 256 305 355
#     4   9  17  35  62  82 113 153 201 245 302 370
#
# _framework density 22.385842
#
# number of rings (size 3 to 8) (size 9 to 14) (size 15 to 20)
#    0.000    2.400    0.000    4.400    3.733    0.533 
#    0.000    0.667   17.600    0.000    0.000    0.000 
#    0.000    0.000    0.000    0.000    0.000    0.000 
#
# Total GULP energy -334472.686437 kJ/mol
# GULP energy per Si atom -5574.544774 kJ/mol
# Density = 2.233489 g / cm^3
# Si number density = 22.385842 Si / 1000 Ang^3
#
#
#
# Elastic Constant Matrix: (Units=GPa)
#
#
# Indices 1 2 3 4 5 6 
#
# 1 104.0687 24.5970 40.8772 0.0000 0.0000 0.0000
# 2 24.5970 44.6888 -4.2179 0.0000 0.0000 0.0000
# 3 40.8772 -4.2179 69.0862 0.0000 0.0000 0.0000
# 4 0.0000 0.0000 0.0000 8.8973 0.0000 0.0000
# 5 0.0000 0.0000 0.0000 0.0000 13.6443 0.0000
# 6 0.0000 0.0000 0.0000 0.0000 0.0000 44.4641
#
#
#
# Elastic Compliance Matrix: (Units=1/GPa)
#
#
# Indices 1 2 3 4 5 6 
#
# 1 0.015782 -0.009623 -0.009926 0.000000 0.000000 0.000000
# 2 -0.009623 0.028375 0.007426 0.000000 0.000000 0.000000
# 3 -0.009926 0.007426 0.020801 0.000000 0.000000 0.000000
# 4 0.000000 0.000000 0.000000 0.112393 0.000000 0.000000
# 5 0.000000 0.000000 0.000000 0.000000 0.073291 0.000000
# 6 0.000000 0.000000 0.000000 0.000000 0.000000 0.022490
#
#
# Mechanical properties :
#
#
# Convention : Reuss Voigt Hill
#
# Bulk Modulus (GPa) = 24.56250 37.81737 31.18993
# Shear Modulus (GPa) = 16.07984 23.84030 19.96007
#
# Velocity S-wave (km/s) = 2.68303 3.26693 2.98927
# Velocity P-wave (km/s) = 4.53810 5.58216 5.08699
#
# Compressibility (1/GPa) = 0.04071246
#
# Stress axis : x y z
#
# Youngs Moduli (GPa) = 63.36222 35.24267 48.07475
#
# Poissons Ratio (x) = 0.33916 0.47717
# Poissons Ratio (y) = 0.60976 -0.35702
# Poissons Ratio (z) = 0.62891 -0.26173
#
# Static dielectric constant tensor:
#      x y z
#    x 1.890780 0.000000 0.000000 
#    y 0.000000 1.917110 0.000000 
#    z 0.000000 0.000000 1.815190 
# 
# From -- ./inp_files/22312.got.cif
#   From: 2010.05.17/outbox.cif.g08.bks.cpg/sg56_12_cif.got.tgz:22312.got - 2010.06.03 13:42:01.
