data_PCOD9431569
_publ_section_title
;
Structure prediction by ZEFSAII (Michael W. Deem and Ramdas Pophale) SiO2 
 PCOD9431569
Probable space group: P C C N
;
_chemical_formula_sum "Si O2"
_cell_formula_units_Z 40
_cell_length_a 7.873991
_cell_length_b 15.548120
_cell_length_c 13.162262
_cell_angle_alpha 90.000000
_cell_angle_beta 90.000000
_cell_angle_gamma 90.000000
_cell_volume 1611.399888
_symmetry_space_group_name_H-M "P C C N"
_symmetry_group_IT_number 56
_symmetry_cell_setting 'orthorhombic'
loop_
_space_group_symop_operation_xyz
x,y,z
1/2-x,1/2-y,z
1/2+x,-y,1/2-z
-x,1/2+y,1/2-z
-x,-y,-z
1/2+x,1/2+y,-z
1/2-x,y,1/2+z
x,1/2-y,1/2+z
loop_
_atom_site_type_symbol
_atom_site_label
_atom_site_fract_x
_atom_site_fract_y
_atom_site_fract_z
Si Si1 0.274051 0.496341 0.274112
Si Si2 0.451730 0.734549 0.992905
Si Si3 0.541363 0.941328 0.401046
Si Si4 0.680677 0.162408 0.311018
Si Si5 0.006123 0.089008 0.437566
O O1 0.286405 0.458285 0.160753
O O2 0.354975 0.429640 0.351944
O O3 0.981434 0.658439 0.423635
O O4 0.097487 0.527363 0.319685
O O5 0.250000 0.750000 0.237113
O O6 0.333086 0.880228 0.120691
O O7 0.456648 0.693414 0.107095
O O8 0.542539 0.826499 0.994880
O O9 0.628955 0.088996 0.233695
O O10 0.500000 0.000000 0.500000
O O11 0.750000 0.250000 0.526511
O O12 0.000000 0.000000 0.500000
#
# Coordination Sequence:
#
# PCOD9431569 Si02
#       5
#     8   8   8   8   8
#     4  12  23  42  73 104 140 190 241 298 371 436
#     4   9  20  43  68 101 141 193 245 295 346 455
#     4  12  26  45  75 107 148 190 243 310 371 430
#     4   9  19  38  66 100 134 182 246 287 336 437
#     4  10  21  39  67  99 139 181 246 293 347 422
#
# _framework density 24.823136999999999
#
# number of rings (size 3 to 8) (size 9 to 14) (size 15 to 20)
#    0.000    2.000    4.000    2.400    0.000    2.400 
#    0.000    1.000    4.400    0.000    0.000    0.000 
#    0.000    0.000    0.000    0.000    0.000    0.000 
#
# Total GULP energy -223409.120808 kJ/mol
# GULP energy per Si atom -5585.228020 kJ/mol
# Density = 2.476664 g / cm^3
# Si number density = 24.823137 Si / 1000 Ang^3
#
#
#
# Elastic Constant Matrix: (Units=GPa)
#
#
# Indices 1 2 3 4 5 6 
#
# 1 33.5373 55.2676 39.1560 0.0000 0.0000 0.0000
# 2 55.2676 257.9016 60.0729 0.0000 0.0000 0.0000
# 3 39.1560 60.0729 100.7831 0.0000 0.0000 0.0000
# 4 0.0000 0.0000 0.0000 43.0469 0.0000 0.0000
# 5 0.0000 0.0000 0.0000 0.0000 31.5504 0.0000
# 6 0.0000 0.0000 0.0000 0.0000 0.0000 42.3586
#
#
#
# Elastic Compliance Matrix: (Units=1/GPa)
#
#
# Indices 1 2 3 4 5 6 
#
# 1 0.072809 -0.010467 -0.022049 0.000000 0.000000 0.000000
# 2 -0.010467 0.006007 0.000486 0.000000 0.000000 0.000000
# 3 -0.022049 0.000486 0.018199 0.000000 0.000000 0.000000
# 4 0.000000 0.000000 0.000000 0.023230 0.000000 0.000000
# 5 0.000000 0.000000 0.000000 0.000000 0.031695 0.000000
# 6 0.000000 0.000000 0.000000 0.000000 0.000000 0.023608
#
#
# Mechanical properties :
#
#
# Convention : Reuss Voigt Hill
#
# Bulk Modulus (GPa) = 30.34358 77.91277 54.12818
# Shear Modulus (GPa) = 19.95259 39.23955 29.59607
#
# Velocity S-wave (km/s) = 2.83819 3.98020 3.45668
# Velocity P-wave (km/s) = 4.79488 7.25106 6.14690
#
# Compressibility (1/GPa) = 0.03295590
#
# Stress axis : x y z
#
# Youngs Moduli (GPa) = 13.73454 166.46358 54.94816
#
# Poissons Ratio (x) = 1.74238 1.21153
# Poissons Ratio (y) = 0.14376 -0.02670
# Poissons Ratio (z) = 0.30283 -0.08088
#
# Static dielectric constant tensor:
#      x y z
#    x 2.173270 0.000000 0.000000 
#    y 0.000000 1.987040 0.000000 
#    z 0.000000 0.000000 2.045800 
# 
# From -- ./inp_files/10740.got.cif
#   From: 2010.05.17/outbox.cif.g08.bks.cpg/sg56_6_cif.got.tgz:10740.got - 2010.06.03 13:42:01.
