data_PCOD9431711
_publ_section_title
;
Structure prediction by ZEFSAII (Michael W. Deem and Ramdas Pophale) SiO2 
 PCOD9431711
Probable space group: P C C N
;
_chemical_formula_sum "Si O2"
_cell_formula_units_Z 48
_cell_length_a 8.112564
_cell_length_b 16.458512
_cell_length_c 17.717289
_cell_angle_alpha 90.000000
_cell_angle_beta 90.000000
_cell_angle_gamma 90.000000
_cell_volume 2365.625395
_symmetry_space_group_name_H-M "P C C N"
_symmetry_group_IT_number 56
_symmetry_cell_setting 'orthorhombic'
loop_
_space_group_symop_operation_xyz
x,y,z
1/2-x,1/2-y,z
1/2+x,-y,1/2-z
-x,1/2+y,1/2-z
-x,-y,-z
1/2+x,1/2+y,-z
1/2-x,y,1/2+z
x,1/2-y,1/2+z
loop_
_atom_site_type_symbol
_atom_site_label
_atom_site_fract_x
_atom_site_fract_y
_atom_site_fract_z
Si Si1 0.536102 0.361898 0.909463
Si Si2 0.322411 0.490656 0.173724
Si Si3 0.750000 0.750000 0.026284
Si Si4 0.750000 0.250000 0.799282
Si Si5 0.249577 0.564391 0.956334
Si Si6 0.361796 0.413977 0.533476
Si Si7 0.124984 0.602363 0.289735
O O1 0.543676 0.448132 0.864912
O O2 0.380559 0.303714 0.926113
O O3 0.646549 0.306562 0.854799
O O4 0.630055 0.387266 0.986947
O O5 0.199468 0.454387 0.111121
O O6 0.219047 0.539920 0.234660
O O7 0.433444 0.420162 0.207716
O O8 0.827760 0.680673 0.974305
O O9 0.852337 0.309059 0.745135
O O10 0.295885 0.591419 0.872525
O O11 0.058143 0.580632 0.975966
O O12 0.246232 0.466842 0.972856
#
# Coordination Sequence:
#
# PCOD9431711 Si02
#       7
#     8   8   4   4   8   8   8
#     4  10  22  40  60  85 119 155 197 245 299 352
#     4  10  22  40  59  85 122 160 196 240 297 364
#     4  12  22  34  62  94 114 144 200 260 296 338
#     4  10  24  40  56  84 118 158 196 240 300 354
#     4  10  21  41  64  84 115 162 200 237 293 368
#     4  10  22  38  61  90 117 151 200 245 295 353
#     4  11  22  38  61  86 117 156 197 239 294 354
#
# _framework density 20.290617999999998
#
# number of rings (size 3 to 8) (size 9 to 14) (size 15 to 20)
#    0.000    1.667    0.000    4.000    0.000   11.333 
#    0.000    0.000    0.000    2.000    0.000    0.000 
#    0.000    0.000    0.000    0.000    0.000    0.000 
#
# Total GULP energy -267743.789932 kJ/mol
# GULP energy per Si atom -5577.995624 kJ/mol
# Density = 2.024444 g / cm^3
# Si number density = 20.290618 Si / 1000 Ang^3
#
#
#
# Elastic Constant Matrix: (Units=GPa)
#
#
# Indices 1 2 3 4 5 6 
#
# 1 63.1045 11.5689 -10.6694 0.0000 0.0000 0.0000
# 2 11.5689 112.5382 1.7921 0.0000 0.0000 0.0000
# 3 -10.6694 1.7921 52.2862 0.0000 0.0000 0.0000
# 4 0.0000 0.0000 0.0000 4.4999 0.0000 0.0000
# 5 0.0000 0.0000 0.0000 0.0000 -23.3987 0.0000
# 6 0.0000 0.0000 0.0000 0.0000 0.0000 30.5547
#
#
#
# Elastic Compliance Matrix: (Units=1/GPa)
#
#
# Indices 1 2 3 4 5 6 
#
# 1 0.016761 -0.001779 0.003481 0.000000 0.000000 0.000000
# 2 -0.001779 0.009079 -0.000674 0.000000 0.000000 0.000000
# 3 0.003481 -0.000674 0.019859 0.000000 0.000000 0.000000
# 4 0.000000 0.000000 0.000000 0.222229 0.000000 0.000000
# 5 0.000000 0.000000 0.000000 0.000000 -0.042737 0.000000
# 6 0.000000 0.000000 0.000000 0.000000 0.000000 0.032728
#
#
# Mechanical properties :
#
#
# Convention : Reuss Voigt Hill
#
# Bulk Modulus (GPa) = 20.93930 25.92355 23.43143
# Shear Modulus (GPa) = 18.39712 17.34698 17.87205
#
# Velocity S-wave (km/s) = 3.01438 2.92708 2.97105
# Velocity P-wave (km/s) = 4.73893 4.92216 4.83141
#
# Compressibility (1/GPa) = 0.04775709
#
# Stress axis : x y z
#
# Youngs Moduli (GPa) = 59.66098 110.13894 50.35500
#
# Poissons Ratio (x) = 0.19588 -0.17530
# Poissons Ratio (y) = 0.10611 0.03394
# Poissons Ratio (z) = -0.20769 0.07425
#
# Static dielectric constant tensor:
#      x y z
#    x 1.793160 0.000000 0.000000 
#    y 0.000000 1.852980 0.000000 
#    z 0.000000 0.000000 1.714280 
# 
# From -- ./inp_files/12713.got.cif
#   From: 2010.05.17/outbox.cif.g08.bks.cpg/sg56_7_cif.got.tgz:12713.got - 2010.06.03 13:42:01.
