data_PCOD9431826
_publ_section_title
;
Structure prediction by ZEFSAII (Michael W. Deem and Ramdas Pophale) SiO2 
 PCOD9431826
Probable space group: P C C N
;
_chemical_formula_sum "Si O2"
_cell_formula_units_Z 40
_cell_length_a 12.610538
_cell_length_b 5.420842
_cell_length_c 24.103581
_cell_angle_alpha 90.000000
_cell_angle_beta 90.000000
_cell_angle_gamma 90.000000
_cell_volume 1647.714386
_symmetry_space_group_name_H-M "P C C N"
_symmetry_group_IT_number 56
_symmetry_cell_setting 'orthorhombic'
loop_
_space_group_symop_operation_xyz
x,y,z
1/2-x,1/2-y,z
1/2+x,-y,1/2-z
-x,1/2+y,1/2-z
-x,-y,-z
1/2+x,1/2+y,-z
1/2-x,y,1/2+z
x,1/2-y,1/2+z
loop_
_atom_site_type_symbol
_atom_site_label
_atom_site_fract_x
_atom_site_fract_y
_atom_site_fract_z
Si Si1 0.004456 0.994805 0.155841
Si Si2 0.358212 0.004889 0.153126
Si Si3 0.329792 0.540374 0.533353
Si Si4 0.450154 0.306650 0.957860
Si Si5 0.696961 0.997920 0.723927
O O1 0.934203 0.942351 0.100432
O O2 0.079661 0.755683 0.158828
O O3 0.926034 0.000583 0.207765
O O4 0.065527 0.254320 0.151401
O O5 0.291049 0.011798 0.096029
O O6 0.292526 0.013233 0.209726
O O7 0.250000 0.750000 0.511293
O O8 0.450344 0.621851 0.548240
O O9 0.354258 0.330165 0.488434
O O10 0.500000 0.500000 0.000000
O O11 0.750000 0.250000 0.703366
O O12 0.750000 0.750000 0.700678
#
# Coordination Sequence:
#
# PCOD9431826 Si02
#       5
#     8   8   8   8   8
#     4  11  23  43  69  92 135 184 226 270 356 415
#     4  11  22  42  70  96 131 178 229 287 340 413
#     4  10  22  40  66  99 132 178 234 289 353 403
#     4  10  21  43  62  94 136 177 225 289 336 425
#     4  12  25  43  64 101 137 171 225 283 342 418
#
# _framework density 24.276050000000001
#
# number of rings (size 3 to 8) (size 9 to 14) (size 15 to 20)
#    0.000    1.200    2.000    4.200    0.000    2.400 
#    3.600    0.000    0.000    0.000    0.000    0.000 
#    0.000    0.000    0.000    0.000    0.000    0.000 
#
# Total GULP energy -223605.692861 kJ/mol
# GULP energy per Si atom -5590.142322 kJ/mol
# Density = 2.422080 g / cm^3
# Si number density = 24.276050 Si / 1000 Ang^3
#
#
#
# Elastic Constant Matrix: (Units=GPa)
#
#
# Indices 1 2 3 4 5 6 
#
# 1 84.2611 65.0864 6.0968 0.0000 0.0000 0.0000
# 2 65.0864 212.3929 21.9348 0.0000 0.0000 0.0000
# 3 6.0968 21.9348 62.0048 0.0000 0.0000 0.0000
# 4 0.0000 0.0000 0.0000 2.3777 0.0000 0.0000
# 5 0.0000 0.0000 0.0000 0.0000 2.9498 0.0000
# 6 0.0000 0.0000 0.0000 0.0000 0.0000 67.4185
#
#
#
# Elastic Compliance Matrix: (Units=1/GPa)
#
#
# Indices 1 2 3 4 5 6 
#
# 1 0.015550 -0.004782 0.000163 0.000000 0.000000 0.000000
# 2 -0.004782 0.006357 -0.001779 0.000000 0.000000 0.000000
# 3 0.000163 -0.001779 0.016741 0.000000 0.000000 0.000000
# 4 0.000000 0.000000 0.000000 0.420574 0.000000 0.000000
# 5 0.000000 0.000000 0.000000 0.000000 0.339007 0.000000
# 6 0.000000 0.000000 0.000000 0.000000 0.000000 0.014833
#
#
# Mechanical properties :
#
#
# Convention : Reuss Voigt Hill
#
# Bulk Modulus (GPa) = 38.68150 60.54386 49.61268
# Shear Modulus (GPa) = 5.99179 32.25192 19.12185
#
# Velocity S-wave (km/s) = 1.57275 3.64888 2.80962
# Velocity P-wave (km/s) = 4.38938 6.53807 5.56835
#
# Compressibility (1/GPa) = 0.02585215
#
# Stress axis : x y z
#
# Youngs Moduli (GPa) = 64.30924 157.29816 59.73342
#
# Poissons Ratio (x) = 0.75219 -0.00972
# Poissons Ratio (y) = 0.30752 0.10625
# Poissons Ratio (z) = -0.01046 0.27980
#
# Static dielectric constant tensor:
#      x y z
#    x -0.112160 0.000000 0.000000 
#    y 0.000000 3.928890 0.000000 
#    z 0.000000 0.000000 2.010550 
# 
# From -- ./inp_files/22191.got.cif
#   From: 2010.05.17/outbox.cif.g08.bks.cpg/sg56_12_cif.got.tgz:22191.got - 2010.06.03 13:42:01.
