data_PCOD9431944
_publ_section_title
;
Structure prediction by ZEFSAII (Michael W. Deem and Ramdas Pophale) SiO2 
 PCOD9431944
Probable space group: P C C N
;
_chemical_formula_sum "Si O2"
_cell_formula_units_Z 24
_cell_length_a 17.970493
_cell_length_b 8.731554
_cell_length_c 5.506274
_cell_angle_alpha 90.000000
_cell_angle_beta 90.000000
_cell_angle_gamma 90.000000
_cell_volume 863.991271
_symmetry_space_group_name_H-M "P C C N"
_symmetry_group_IT_number 56
_symmetry_cell_setting 'orthorhombic'
loop_
_space_group_symop_operation_xyz
x,y,z
1/2-x,1/2-y,z
1/2+x,-y,1/2-z
-x,1/2+y,1/2-z
-x,-y,-z
1/2+x,1/2+y,-z
1/2-x,y,1/2+z
x,1/2-y,1/2+z
loop_
_atom_site_type_symbol
_atom_site_label
_atom_site_fract_x
_atom_site_fract_y
_atom_site_fract_z
Si Si1 0.061265 0.609922 0.384449
Si Si2 0.074360 0.321211 0.133216
Si Si3 0.220341 0.577124 0.612176
O O1 0.082306 0.503976 0.151262
O O2 0.134272 0.606802 0.547651
O O3 0.000000 0.500000 0.500000
O O4 0.012325 0.761678 0.348716
O O5 0.105736 0.246401 0.382104
O O6 0.250000 0.750000 0.642280
O O7 0.241624 0.504531 0.871851
#
# Coordination Sequence:
#
# PCOD9431944 Si02
#       3
#     8   8   8
#     4  10  23  41  70 101 134 176 234 276 336 402
#     4  10  22  37  62  97 129 163 222 273 324 378
#     4  10  24  40  65  95 137 174 225 274 340 401
#
# _framework density 27.778058000000001
#
# number of rings (size 3 to 8) (size 9 to 14) (size 15 to 20)
#    0.000    2.000    0.000    1.000   18.667    5.333 
#    0.000    0.000    0.000   24.000    0.000    0.000 
#    0.000    0.000    0.000    0.000    0.000    0.000 
#
# Total GULP energy -134105.442194 kJ/mol
# GULP energy per Si atom -5587.726758 kJ/mol
# Density = 2.771483 g / cm^3
# Si number density = 27.778058 Si / 1000 Ang^3
#
#
#
# Elastic Constant Matrix: (Units=GPa)
#
#
# Indices 1 2 3 4 5 6 
#
# 1 140.7829 -0.2477 -2.5390 0.0000 0.0000 0.0000
# 2 -0.2477 41.3554 0.1545 0.0000 0.0000 0.0000
# 3 -2.5390 0.1545 220.9116 0.0000 0.0000 0.0000
# 4 0.0000 0.0000 0.0000 34.8362 0.0000 0.0000
# 5 0.0000 0.0000 0.0000 0.0000 31.0228 0.0000
# 6 0.0000 0.0000 0.0000 0.0000 0.0000 38.9848
#
#
#
# Elastic Compliance Matrix: (Units=1/GPa)
#
#
# Indices 1 2 3 4 5 6 
#
# 1 0.007105 0.000042 0.000082 0.000000 0.000000 0.000000
# 2 0.000042 0.024181 -0.000016 0.000000 0.000000 0.000000
# 3 0.000082 -0.000016 0.004528 0.000000 0.000000 0.000000
# 4 0.000000 0.000000 0.000000 0.028706 0.000000 0.000000
# 5 0.000000 0.000000 0.000000 0.000000 0.032234 0.000000
# 6 0.000000 0.000000 0.000000 0.000000 0.000000 0.025651
#
#
# Mechanical properties :
#
#
# Convention : Reuss Voigt Hill
#
# Bulk Modulus (GPa) = 27.75601 44.19837 35.97719
# Shear Modulus (GPa) = 37.25811 48.01423 42.63617
#
# Velocity S-wave (km/s) = 3.66632 4.16203 3.92201
# Velocity P-wave (km/s) = 5.28548 6.24839 5.78700
#
# Compressibility (1/GPa) = 0.03602823
#
# Stress axis : x y z
#
# Youngs Moduli (GPa) = 140.75222 41.35482 220.86532
#
# Poissons Ratio (x) = -0.00175 -0.01803
# Poissons Ratio (y) = -0.00595 0.00363
# Poissons Ratio (z) = -0.01149 0.00068
#
# Static dielectric constant tensor:
#      x y z
#    x 2.187030 0.000000 0.000000 
#    y 0.000000 2.573960 0.000000 
#    z 0.000000 0.000000 2.521820 
# 
# From -- ./inp_files/180.got.cif
#   From: 2010.05.17/outbox.cif.g08.bks.cpg/sg56_1_cif.got.tgz:180.got - 2010.06.03 13:42:01.
