data_PCOD9431487
_publ_section_title
;
Structure prediction by ZEFSAII (Michael W. Deem and Ramdas Pophale) SiO2 
 PCOD9431487
Probable space group: P C C N
;
_chemical_formula_sum "Si O2"
_cell_formula_units_Z 60
_cell_length_a 17.721245
_cell_length_b 12.554195
_cell_length_c 12.551355
_cell_angle_alpha 90.000000
_cell_angle_beta 90.000000
_cell_angle_gamma 90.000000
_cell_volume 2792.374820
_symmetry_space_group_name_H-M "P C C N"
_symmetry_group_IT_number 56
_symmetry_cell_setting 'orthorhombic'
loop_
_space_group_symop_operation_xyz
x,y,z
1/2-x,1/2-y,z
1/2+x,-y,1/2-z
-x,1/2+y,1/2-z
-x,-y,-z
1/2+x,1/2+y,-z
1/2-x,y,1/2+z
x,1/2-y,1/2+z
loop_
_atom_site_type_symbol
_atom_site_label
_atom_site_fract_x
_atom_site_fract_y
_atom_site_fract_z
Si Si1 0.017394 0.682287 0.044528
Si Si2 0.111122 0.862474 0.958087
Si Si3 0.250000 0.750000 0.499365
Si Si4 0.999915 0.425646 0.726298
Si Si5 0.110952 0.212792 0.103025
Si Si6 0.298619 0.433192 0.964128
Si Si7 0.840680 0.448384 0.957263
Si Si8 0.117397 0.088921 0.743687
O O1 0.997747 0.633350 0.159465
O O2 0.078700 0.595521 0.998367
O O3 0.064373 0.793227 0.042900
O O4 0.945383 0.717634 0.974255
O O5 0.064231 0.877973 0.851596
O O6 0.145102 0.971507 0.001862
O O7 0.184713 0.796732 0.927691
O O8 0.289423 0.655749 0.563905
O O9 0.968910 0.547332 0.735121
O O10 0.072142 0.389649 0.659039
O O11 0.125253 0.294053 0.197617
O O12 0.180410 0.168432 0.035071
O O13 0.329132 0.417202 0.845474
O O14 0.212875 0.474715 0.972719
O O15 0.856139 0.508636 0.848170
#
# Coordination Sequence:
#
# PCOD9431487 Si02
#       8
#     8   8   4   8   8   8   8   8
#     4   9  18  35  57  85 118 150 193 247 296 348
#     4   8  16  31  54  81 112 147 188 238 293 351
#     4   8  14  32  56  80 110 146 190 240 290 344
#     4   9  19  34  54  81 112 150 193 240 296 350
#     4  11  22  36  59  87 116 156 200 245 302 360
#     4  10  21  39  59  83 118 156 196 246 301 364
#     4   9  19  38  59  84 118 156 196 242 298 359
#     4  10  22  40  59  83 117 152 195 249 300 358
#
# _framework density 21.487086999999999
#
# number of rings (size 3 to 8) (size 9 to 14) (size 15 to 20)
#    0.000    2.667    0.000    0.800    0.000    8.533 
#    0.000   39.333    0.000    0.000    0.000    0.000 
#    0.000    0.000    0.000    0.000    0.000    0.000 
#
# Total GULP energy -334048.823942 kJ/mol
# GULP energy per Si atom -5567.480399 kJ/mol
# Density = 2.143818 g / cm^3
# Si number density = 21.487087 Si / 1000 Ang^3
#
#
#
# Elastic Constant Matrix: (Units=GPa)
#
#
# Indices 1 2 3 4 5 6 
#
# 1 44.8706 27.9167 14.8070 0.0000 0.0000 0.0000
# 2 27.9167 76.4435 24.3082 0.0000 0.0000 0.0000
# 3 14.8070 24.3082 47.0228 0.0000 0.0000 0.0000
# 4 0.0000 0.0000 0.0000 5.1746 0.0000 0.0000
# 5 0.0000 0.0000 0.0000 0.0000 14.4716 0.0000
# 6 0.0000 0.0000 0.0000 0.0000 0.0000 18.0428
#
#
#
# Elastic Compliance Matrix: (Units=1/GPa)
#
#
# Indices 1 2 3 4 5 6 
#
# 1 0.029603 -0.009390 -0.004467 0.000000 0.000000 0.000000
# 2 -0.009390 0.018634 -0.006676 0.000000 0.000000 0.000000
# 3 -0.004467 -0.006676 0.026124 0.000000 0.000000 0.000000
# 4 0.000000 0.000000 0.000000 0.193250 0.000000 0.000000
# 5 0.000000 0.000000 0.000000 0.000000 0.069101 0.000000
# 6 0.000000 0.000000 0.000000 0.000000 0.000000 0.055424
#
#
# Mechanical properties :
#
#
# Convention : Reuss Voigt Hill
#
# Bulk Modulus (GPa) = 30.03562 33.60007 31.81785
# Shear Modulus (GPa) = 11.25367 14.29147 12.77257
#
# Velocity S-wave (km/s) = 2.29102 2.58179 2.44074
# Velocity P-wave (km/s) = 4.58336 4.95568 4.77315
#
# Compressibility (1/GPa) = 0.03329381
#
# Stress axis : x y z
#
# Youngs Moduli (GPa) = 33.78072 53.66662 38.27903
#
# Poissons Ratio (x) = 0.50394 0.17101
# Poissons Ratio (y) = 0.31721 0.25554
# Poissons Ratio (z) = 0.15091 0.35826
#
# Static dielectric constant tensor:
#      x y z
#    x 1.829120 0.000000 0.000000 
#    y 0.000000 1.907060 0.000000 
#    z 0.000000 0.000000 1.737640 
# 
# From -- ./inp_files/8688.got.cif
#   From: 2010.05.17/outbox.cif.g08.bks.cpg/sg56_5_cif.got.tgz:8688.got - 2010.06.03 13:42:01.
