data_PCOD9431544
_publ_section_title
;
Structure prediction by ZEFSAII (Michael W. Deem and Ramdas Pophale) SiO2 
 PCOD9431544
Probable space group: P C C N
;
_chemical_formula_sum "Si O2"
_cell_formula_units_Z 44
_cell_length_a 5.211856
_cell_length_b 20.088907
_cell_length_c 18.627610
_cell_angle_alpha 90.000000
_cell_angle_beta 90.000000
_cell_angle_gamma 90.000000
_cell_volume 1950.319903
_symmetry_space_group_name_H-M "P C C N"
_symmetry_group_IT_number 56
_symmetry_cell_setting 'orthorhombic'
loop_
_space_group_symop_operation_xyz
x,y,z
1/2-x,1/2-y,z
1/2+x,-y,1/2-z
-x,1/2+y,1/2-z
-x,-y,-z
1/2+x,1/2+y,-z
1/2-x,y,1/2+z
x,1/2-y,1/2+z
loop_
_atom_site_type_symbol
_atom_site_label
_atom_site_fract_x
_atom_site_fract_y
_atom_site_fract_z
Si Si1 0.699331 0.541545 0.449175
Si Si2 0.728733 0.011884 0.203811
Si Si3 0.250000 0.750000 0.818642
Si Si4 0.116789 0.317613 0.294486
Si Si5 0.925023 0.868375 0.836086
Si Si6 0.425437 0.074707 0.407356
O O1 0.500000 0.500000 0.500000
O O2 0.704785 0.597200 0.385370
O O3 0.847976 0.583854 0.510718
O O4 0.859019 0.481737 0.413123
O O5 0.841674 0.079541 0.171078
O O6 0.468063 0.014655 0.248220
O O7 0.699664 0.961467 0.137739
O O8 0.407671 0.796541 0.764069
O O9 0.450950 0.702326 0.859862
O O10 0.250000 0.250000 0.321744
O O11 0.322185 0.355651 0.244387
O O12 0.011699 0.361439 0.359721
#
# Coordination Sequence:
#
# PCOD9431544 Si02
#       6
#     8   8   4   8   8   8
#     4  10  24  40  62  95 137 177 221 287 358 422
#     4  11  22  35  65 102 129 169 220 283 348 408
#     4  10  22  40  62  90 130 172 234 288 336 416
#     4  10  21  39  64  95 128 173 228 282 337 407
#     4  10  22  38  63  91 132 178 222 288 347 428
#     4  10  22  39  61  95 132 173 217 277 347 412
#
# _framework density 22.560400000000001
#
# number of rings (size 3 to 8) (size 9 to 14) (size 15 to 20)
#    0.000    1.818    1.818    1.091    5.091    5.818 
#    0.000    3.636    0.000    0.000    0.000    0.000 
#    0.000    0.000    0.000    0.000    0.000    0.000 
#
# Total GULP energy -245200.821475 kJ/mol
# GULP energy per Si atom -5572.745943 kJ/mol
# Density = 2.250905 g / cm^3
# Si number density = 22.560400 Si / 1000 Ang^3
#
#
#
# Elastic Constant Matrix: (Units=GPa)
#
#
# Indices 1 2 3 4 5 6 
#
# 1 77.0106 23.4324 38.0877 0.0000 0.0000 0.0000
# 2 23.4324 120.0895 60.8991 0.0000 0.0000 0.0000
# 3 38.0877 60.8991 106.8234 0.0000 0.0000 0.0000
# 4 0.0000 0.0000 0.0000 44.9109 0.0000 0.0000
# 5 0.0000 0.0000 0.0000 0.0000 30.5181 0.0000
# 6 0.0000 0.0000 0.0000 0.0000 0.0000 28.4157
#
#
#
# Elastic Compliance Matrix: (Units=1/GPa)
#
#
# Indices 1 2 3 4 5 6 
#
# 1 0.015774 -0.000318 -0.005443 0.000000 0.000000 0.000000
# 2 -0.000318 0.011720 -0.006568 0.000000 0.000000 0.000000
# 3 -0.005443 -0.006568 0.015046 0.000000 0.000000 0.000000
# 4 0.000000 0.000000 0.000000 0.022266 0.000000 0.000000
# 5 0.000000 0.000000 0.000000 0.000000 0.032767 0.000000
# 6 0.000000 0.000000 0.000000 0.000000 0.000000 0.035192
#
#
# Mechanical properties :
#
#
# Convention : Reuss Voigt Hill
#
# Bulk Modulus (GPa) = 55.92061 60.97353 58.44707
# Shear Modulus (GPa) = 30.60267 32.86921 31.73594
#
# Velocity S-wave (km/s) = 3.68703 3.82113 3.75468
# Velocity P-wave (km/s) = 6.55488 6.82302 6.69029
#
# Compressibility (1/GPa) = 0.01788249
#
# Stress axis : x y z
#
# Youngs Moduli (GPa) = 63.39589 85.32492 66.46094
#
# Poissons Ratio (x) = 0.02710 0.36175
# Poissons Ratio (y) = 0.02013 0.43653
# Poissons Ratio (z) = 0.34507 0.56043
#
# Static dielectric constant tensor:
#      x y z
#    x 1.971140 0.000000 0.000000 
#    y 0.000000 2.006970 0.000000 
#    z 0.000000 0.000000 1.845130 
# 
# From -- ./inp_files/13962.got.cif
#   From: 2010.05.17/outbox.cif.g08.bks.cpg/sg56_7_cif.got.tgz:13962.got - 2010.06.03 13:42:01.
