data_PCOD9431157
_publ_section_title
;
Structure prediction by ZEFSAII (Michael W. Deem and Ramdas Pophale) SiO2 
 PCOD9431157
Probable space group: P C C N
;
_chemical_formula_sum "Si O2"
_cell_formula_units_Z 56
_cell_length_a 12.344967
_cell_length_b 15.858689
_cell_length_c 12.957502
_cell_angle_alpha 90.000000
_cell_angle_beta 90.000000
_cell_angle_gamma 90.000000
_cell_volume 2536.754855
_symmetry_space_group_name_H-M "P C C N"
_symmetry_group_IT_number 56
_symmetry_cell_setting 'orthorhombic'
loop_
_space_group_symop_operation_xyz
x,y,z
1/2-x,1/2-y,z
1/2+x,-y,1/2-z
-x,1/2+y,1/2-z
-x,-y,-z
1/2+x,1/2+y,-z
1/2-x,y,1/2+z
x,1/2-y,1/2+z
loop_
_atom_site_type_symbol
_atom_site_label
_atom_site_fract_x
_atom_site_fract_y
_atom_site_fract_z
Si Si1 0.250000 0.750000 0.747814
Si Si2 0.619950 0.646622 0.260281
Si Si3 0.051060 0.963200 0.754777
Si Si4 0.740955 0.402916 0.394382
Si Si5 0.359544 0.656517 0.922941
Si Si6 0.659139 0.576131 0.850035
Si Si7 0.250000 0.250000 0.908701
Si Si8 0.068376 0.261430 0.550657
O O1 0.216558 0.671541 0.678611
O O2 0.339081 0.715643 0.825180
O O3 0.547844 0.564393 0.240585
O O4 0.726155 0.607203 0.312046
O O5 0.673823 0.692137 0.162648
O O6 0.567782 0.712451 0.340170
O O7 0.126695 0.931231 0.659136
O O8 0.099488 0.927690 0.863524
O O9 0.929156 0.928093 0.758166
O O10 0.754125 0.365319 0.509377
O O11 0.820446 0.483051 0.392934
O O12 0.449477 0.709834 0.986590
O O13 0.620294 0.646576 0.929307
O O14 0.345347 0.211485 0.980579
#
# Coordination Sequence:
#
# PCOD9431157 Si02
#       8
#     4   8   8   8   8   8   4   8
#     4  10  22  44  60  90 126 170 214 270 322 374
#     4  11  22  41  62  93 133 163 208 269 321 377
#     4   9  23  38  67  90 125 170 212 261 328 381
#     4  10  22  40  65  89 127 166 211 276 316 386
#     4  10  23  40  63  96 123 167 225 261 315 395
#     4  10  20  42  61  92 126 162 211 264 313 385
#     4  12  22  36  64  94 124 172 196 264 324 376
#     4  11  23  39  60  98 128 160 216 262 312 389
#
# _framework density 22.075448999999999
#
# number of rings (size 3 to 8) (size 9 to 14) (size 15 to 20)
#    0.000    1.714    2.857    0.429    6.000    1.143 
#    5.143    0.000    0.000    3.429    0.000    0.000 
#    0.000    0.000    0.000    0.000    0.000    0.000 
#
# Total GULP energy -311888.579154 kJ/mol
# GULP energy per Si atom -5569.438913 kJ/mol
# Density = 2.202520 g / cm^3
# Si number density = 22.075449 Si / 1000 Ang^3
#
#
#
# Elastic Constant Matrix: (Units=GPa)
#
#
# Indices 1 2 3 4 5 6 
#
# 1 53.5612 19.3229 11.1236 0.0000 0.0000 0.0000
# 2 19.3229 107.4961 30.5275 0.0000 0.0000 0.0000
# 3 11.1236 30.5275 64.2268 0.0000 0.0000 0.0000
# 4 0.0000 0.0000 0.0000 12.1440 0.0000 0.0000
# 5 0.0000 0.0000 0.0000 0.0000 8.5426 0.0000
# 6 0.0000 0.0000 0.0000 0.0000 0.0000 20.4573
#
#
#
# Elastic Compliance Matrix: (Units=1/GPa)
#
#
# Indices 1 2 3 4 5 6 
#
# 1 0.020195 -0.003048 -0.002049 0.000000 0.000000 0.000000
# 2 -0.003048 0.011214 -0.004802 0.000000 0.000000 0.000000
# 3 -0.002049 -0.004802 0.018207 0.000000 0.000000 0.000000
# 4 0.000000 0.000000 0.000000 0.082345 0.000000 0.000000
# 5 0.000000 0.000000 0.000000 0.000000 0.117061 0.000000
# 6 0.000000 0.000000 0.000000 0.000000 0.000000 0.048882
#
#
# Mechanical properties :
#
#
# Convention : Reuss Voigt Hill
#
# Bulk Modulus (GPa) = 33.53666 38.58134 36.05900
# Shear Modulus (GPa) = 15.26046 19.18278 17.22162
#
# Velocity S-wave (km/s) = 2.63209 2.95102 2.79610
# Velocity P-wave (km/s) = 4.94591 5.39688 5.17631
#
# Compressibility (1/GPa) = 0.02981811
#
# Stress axis : x y z
#
# Youngs Moduli (GPa) = 49.51609 89.17079 54.92321
#
# Poissons Ratio (x) = 0.27183 0.11252
# Poissons Ratio (y) = 0.15094 0.26376
# Poissons Ratio (z) = 0.10145 0.42823
#
# Static dielectric constant tensor:
#      x y z
#    x 1.824560 0.000000 0.000000 
#    y 0.000000 1.913870 0.000000 
#    z 0.000000 0.000000 1.871980 
# 
# From -- ./inp_files/7923.got.cif
#   From: 2010.05.17/outbox.cif.g08.bks.cpg/sg56_4_cif.got.tgz:7923.got - 2010.06.03 13:42:01.
