data_PCOD9431770
_publ_section_title
;
Structure prediction by ZEFSAII (Michael W. Deem and Ramdas Pophale) SiO2 
 PCOD9431770
Probable space group: P C C N
;
_chemical_formula_sum "Si O2"
_cell_formula_units_Z 64
_cell_length_a 14.101196
_cell_length_b 25.041212
_cell_length_c 9.151177
_cell_angle_alpha 90.000000
_cell_angle_beta 90.000000
_cell_angle_gamma 90.000000
_cell_volume 3231.381614
_symmetry_space_group_name_H-M "P C C N"
_symmetry_group_IT_number 56
_symmetry_cell_setting 'orthorhombic'
loop_
_space_group_symop_operation_xyz
x,y,z
1/2-x,1/2-y,z
1/2+x,-y,1/2-z
-x,1/2+y,1/2-z
-x,-y,-z
1/2+x,1/2+y,-z
1/2-x,y,1/2+z
x,1/2-y,1/2+z
loop_
_atom_site_type_symbol
_atom_site_label
_atom_site_fract_x
_atom_site_fract_y
_atom_site_fract_z
Si Si1 0.160432 0.463961 0.769265
Si Si2 0.530161 0.512227 0.332457
Si Si3 0.844757 0.286456 0.002726
Si Si4 0.937362 0.296681 0.317443
Si Si5 0.112283 0.129672 0.755662
Si Si6 0.743064 0.602157 0.488822
Si Si7 0.711080 0.054233 0.739952
Si Si8 0.704359 0.376151 0.970963
O O1 0.210054 0.440353 0.624523
O O2 0.227848 0.509055 0.839288
O O3 0.058975 0.489790 0.741377
O O4 0.164374 0.419877 0.897086
O O5 0.500000 0.500000 0.500000
O O6 0.558923 0.573369 0.289608
O O7 0.619114 0.474729 0.299128
O O8 0.750000 0.250000 0.994789
O O9 0.880870 0.289492 0.166986
O O10 0.803589 0.343868 0.959892
O O11 0.924772 0.259258 0.902740
O O12 0.880593 0.339505 0.415938
O O13 0.037851 0.322916 0.280866
O O14 0.186228 0.140147 0.623272
O O15 0.173136 0.121600 0.904076
O O16 0.689454 0.102998 0.633336
O O17 0.781055 0.074404 0.865267
#
# Coordination Sequence:
#
# PCOD9431770 Si02
#       8
#     8   8   8   8   8   8   8   8
#     4  11  21  38  55  84 135 183 217 264 303 369
#     4  12  23  35  60  93 139 183 232 268 318 392
#     4  10  22  43  67  95 133 165 198 282 351 408
#     4  11  24  43  68  96 126 164 224 274 346 416
#     4  11  24  42  65  93 124 180 226 275 333 405
#     4  10  21  42  60  83 131 176 217 269 329 363
#     4  12  23  36  60  94 141 184 225 260 322 398
#     4  11  23  38  61  99 137 176 216 261 334 417
#
# _framework density 19.805769999999999
#
# number of rings (size 3 to 8) (size 9 to 14) (size 15 to 20)
#    0.000    1.000    5.000    3.375    5.250    0.500 
#    0.000    2.500    0.000    2.250    0.000    0.000 
#    0.000    0.000    0.000    0.000    0.000    0.000 
#
# Total GULP energy -356993.352853 kJ/mol
# GULP energy per Si atom -5578.021138 kJ/mol
# Density = 1.976069 g / cm^3
# Si number density = 19.805770 Si / 1000 Ang^3
#
#
#
# Elastic Constant Matrix: (Units=GPa)
#
#
# Indices 1 2 3 4 5 6 
#
# 1 61.8523 10.0964 -0.7736 0.0000 0.0000 0.0000
# 2 10.0964 41.4166 10.2618 0.0000 0.0000 0.0000
# 3 -0.7736 10.2618 76.9844 0.0000 0.0000 0.0000
# 4 0.0000 0.0000 0.0000 7.4466 0.0000 0.0000
# 5 0.0000 0.0000 0.0000 0.0000 16.6535 0.0000
# 6 0.0000 0.0000 0.0000 0.0000 0.0000 21.6274
#
#
#
# Elastic Compliance Matrix: (Units=1/GPa)
#
#
# Indices 1 2 3 4 5 6 
#
# 1 0.016878 -0.004299 0.000743 0.000000 0.000000 0.000000
# 2 -0.004299 0.026064 -0.003517 0.000000 0.000000 0.000000
# 3 0.000743 -0.003517 0.013466 0.000000 0.000000 0.000000
# 4 0.000000 0.000000 0.000000 0.134290 0.000000 0.000000
# 5 0.000000 0.000000 0.000000 0.000000 0.060048 0.000000
# 6 0.000000 0.000000 0.000000 0.000000 0.000000 0.046238
#
#
# Mechanical properties :
#
#
# Convention : Reuss Voigt Hill
#
# Bulk Modulus (GPa) = 23.66199 24.38027 24.02113
# Shear Modulus (GPa) = 15.37430 19.85674 17.61552
#
# Velocity S-wave (km/s) = 2.78916 3.16978 2.98554
# Velocity P-wave (km/s) = 4.72710 5.07278 4.90299
#
# Compressibility (1/GPa) = 0.04226188
#
# Stress axis : x y z
#
# Youngs Moduli (GPa) = 59.24699 38.36660 74.26122
#
# Poissons Ratio (x) = 0.16492 -0.05515
# Poissons Ratio (y) = 0.25468 0.26121
# Poissons Ratio (z) = -0.04400 0.13495
#
# Static dielectric constant tensor:
#      x y z
#    x 1.710020 0.000000 0.000000 
#    y 0.000000 1.826820 0.000000 
#    z 0.000000 0.000000 1.894660 
# 
# From -- ./inp_files/3711.got.cif
#   From: 2010.05.17/outbox.cif.g08.bks.cpg/sg56_2_cif.got.tgz:3711.got - 2010.06.03 13:42:01.
