data_PCOD9431477
_publ_section_title
;
Structure prediction by ZEFSAII (Michael W. Deem and Ramdas Pophale) SiO2 
 PCOD9431477
Probable space group: P C C N
;
_chemical_formula_sum "Si O2"
_cell_formula_units_Z 56
_cell_length_a 12.518926
_cell_length_b 16.654222
_cell_length_c 9.543269
_cell_angle_alpha 90.000000
_cell_angle_beta 90.000000
_cell_angle_gamma 90.000000
_cell_volume 1989.704524
_symmetry_space_group_name_H-M "P C C N"
_symmetry_group_IT_number 56
_symmetry_cell_setting 'orthorhombic'
loop_
_space_group_symop_operation_xyz
x,y,z
1/2-x,1/2-y,z
1/2+x,-y,1/2-z
-x,1/2+y,1/2-z
-x,-y,-z
1/2+x,1/2+y,-z
1/2-x,y,1/2+z
x,1/2-y,1/2+z
loop_
_atom_site_type_symbol
_atom_site_label
_atom_site_fract_x
_atom_site_fract_y
_atom_site_fract_z
Si Si1 0.678253 0.073336 0.377282
Si Si2 0.396180 0.817468 0.825246
Si Si3 0.636882 0.783170 0.014357
Si Si4 0.891887 0.841882 0.214275
Si Si5 0.962682 0.131025 0.138576
Si Si6 0.335338 0.416707 0.277769
Si Si7 0.909437 0.060547 0.438573
O O1 0.693747 0.155308 0.285300
O O2 0.596666 0.091816 0.504677
O O3 0.708349 0.899849 0.703638
O O4 0.650490 0.008697 0.257067
O O5 0.494995 0.871606 0.765669
O O6 0.423358 0.723307 0.837561
O O7 0.392875 0.854505 0.979675
O O8 0.750000 0.750000 0.067153
O O9 0.568142 0.715654 0.088633
O O10 0.619809 0.868261 0.087618
O O11 0.640125 0.789908 0.850489
O O12 0.930798 0.079414 0.275754
O O13 0.093430 0.122050 0.150186
O O14 0.285277 0.532393 0.557609
O O15 0.000000 0.000000 0.500000
#
# Coordination Sequence:
#
# PCOD9431477 Si02
#       7
#     8   8   8   8   8   8   8
#     4  12  29  50  78 113 156 211 272 344 410 494
#     4  12  27  47  79 114 159 211 271 328 407 495
#     4  10  21  38  68 109 154 199 257 317 399 475
#     4  11  24  43  74 115 157 206 257 327 400 479
#     4  12  27  47  79 116 158 209 270 330 412 495
#     4  11  24  45  71 112 161 201 261 331 403 479
#     4  12  28  54  79 109 151 208 271 335 418 489
#
# _framework density 28.144883
#
# number of rings (size 3 to 8) (size 9 to 14) (size 15 to 20)
#    0.000    0.571    1.429    6.000    2.000    6.857 
#    0.000    0.000    0.000    0.000    0.000    0.000 
#    0.000    0.000    0.000    0.000    0.000    0.000 
#
# Total GULP energy -312754.507482 kJ/mol
# GULP energy per Si atom -5584.901919 kJ/mol
# Density = 2.808082 g / cm^3
# Si number density = 28.144883 Si / 1000 Ang^3
#
#
#
# Elastic Constant Matrix: (Units=GPa)
#
#
# Indices 1 2 3 4 5 6 
#
# 1 127.5019 42.1682 16.7643 0.0000 0.0000 0.0000
# 2 42.1682 158.1413 39.9504 0.0000 0.0000 0.0000
# 3 16.7643 39.9504 158.2367 0.0000 0.0000 0.0000
# 4 0.0000 0.0000 0.0000 56.4712 0.0000 0.0000
# 5 0.0000 0.0000 0.0000 0.0000 45.0623 0.0000
# 6 0.0000 0.0000 0.0000 0.0000 0.0000 45.6120
#
#
#
# Elastic Compliance Matrix: (Units=1/GPa)
#
#
# Indices 1 2 3 4 5 6 
#
# 1 0.008620 -0.002209 -0.000356 0.000000 0.000000 0.000000
# 2 -0.002209 0.007320 -0.001614 0.000000 0.000000 0.000000
# 3 -0.000356 -0.001614 0.006765 0.000000 0.000000 0.000000
# 4 0.000000 0.000000 0.000000 0.017708 0.000000 0.000000
# 5 0.000000 0.000000 0.000000 0.000000 0.022191 0.000000
# 6 0.000000 0.000000 0.000000 0.000000 0.000000 0.021924
#
#
# Mechanical properties :
#
#
# Convention : Reuss Voigt Hill
#
# Bulk Modulus (GPa) = 69.69471 71.29396 70.49434
# Shear Modulus (GPa) = 51.19345 52.42892 51.81118
#
# Velocity S-wave (km/s) = 4.26951 4.32072 4.29520
# Velocity P-wave (km/s) = 7.00868 7.09067 7.04979
#
# Compressibility (1/GPa) = 0.01434829
#
# Stress axis : x y z
#
# Youngs Moduli (GPa) = 116.00569 136.60853 147.82301
#
# Poissons Ratio (x) = 0.30173 0.05257
# Poissons Ratio (y) = 0.25623 0.23861
# Poissons Ratio (z) = 0.04125 0.22051
#
# Static dielectric constant tensor:
#      x y z
#    x 2.537240 0.000000 0.000000 
#    y 0.000000 2.270970 0.000000 
#    z 0.000000 0.000000 2.203870 
# 
# From -- ./inp_files/4497.got.cif
#   From: 2010.05.17/outbox.cif.g08.bks.cpg/sg56_3_cif.got.tgz:4497.got - 2010.06.03 13:42:01.
