data_PCOD9431126
_publ_section_title
;
Structure prediction by ZEFSAII (Michael W. Deem and Ramdas Pophale) SiO2 
 PCOD9431126
Probable space group: P C C N
;
_chemical_formula_sum "Si O2"
_cell_formula_units_Z 52
_cell_length_a 14.372505
_cell_length_b 18.377763
_cell_length_c 8.479564
_cell_angle_alpha 90.000000
_cell_angle_beta 90.000000
_cell_angle_gamma 90.000000
_cell_volume 2239.745318
_symmetry_space_group_name_H-M "P C C N"
_symmetry_group_IT_number 56
_symmetry_cell_setting 'orthorhombic'
loop_
_space_group_symop_operation_xyz
x,y,z
1/2-x,1/2-y,z
1/2+x,-y,1/2-z
-x,1/2+y,1/2-z
-x,-y,-z
1/2+x,1/2+y,-z
1/2-x,y,1/2+z
x,1/2-y,1/2+z
loop_
_atom_site_type_symbol
_atom_site_label
_atom_site_fract_x
_atom_site_fract_y
_atom_site_fract_z
Si Si1 0.446056 0.825605 0.432461
Si Si2 0.171475 0.099248 0.640029
Si Si3 0.473884 0.300987 0.746508
Si Si4 0.846228 0.962642 0.707565
Si Si5 0.938118 0.465551 0.746132
Si Si6 0.634133 0.391728 0.565515
Si Si7 0.250000 0.750000 0.500199
O O1 0.520338 0.820004 0.570864
O O2 0.491320 0.781087 0.286738
O O3 0.414992 0.905751 0.384321
O O4 0.355975 0.782573 0.492812
O O5 0.277945 0.081154 0.678927
O O6 0.152887 0.079271 0.459043
O O7 0.126061 0.176932 0.677897
O O8 0.114282 0.042057 0.750922
O O9 0.552227 0.351400 0.661405
O O10 0.951150 0.972260 0.765394
O O11 0.816373 0.045900 0.670083
O O12 0.911894 0.431033 0.915845
O O13 0.707122 0.332455 0.507823
#
# Coordination Sequence:
#
# PCOD9431126 Si02
#       7
#     8   8   8   8   8   8   4
#     4  11  25  38  68  95 136 174 220 279 343 407
#     4  11  24  43  69  96 132 174 228 278 331 406
#     4  11  23  43  64  94 133 178 213 278 342 401
#     4  11  23  41  70  97 133 180 227 275 336 400
#     4  11  22  44  67  98 136 180 216 277 345 399
#     4  10  20  41  64  95 141 174 208 277 342 399
#     4  10  22  38  62 102 132 168 222 268 344 416
#
# _framework density 23.216926000000001
#
# number of rings (size 3 to 8) (size 9 to 14) (size 15 to 20)
#    0.000    1.231    3.077    3.692    2.154    9.846 
#    0.000    0.769    0.000    0.000    0.000    0.000 
#    0.000    0.000    0.000    0.000    0.000    0.000 
#
# Total GULP energy -289847.036798 kJ/mol
# GULP energy per Si atom -5573.981477 kJ/mol
# Density = 2.316408 g / cm^3
# Si number density = 23.216926 Si / 1000 Ang^3
#
#
#
# Elastic Constant Matrix: (Units=GPa)
#
#
# Indices 1 2 3 4 5 6 
#
# 1 80.0770 11.8752 -17.0475 0.0000 0.0000 0.0000
# 2 11.8752 51.4380 -12.8142 0.0000 0.0000 0.0000
# 3 -17.0475 -12.8142 32.6983 0.0000 0.0000 0.0000
# 4 0.0000 0.0000 0.0000 20.1627 0.0000 0.0000
# 5 0.0000 0.0000 0.0000 0.0000 36.6136 0.0000
# 6 0.0000 0.0000 0.0000 0.0000 0.0000 17.6447
#
#
#
# Elastic Compliance Matrix: (Units=1/GPa)
#
#
# Indices 1 2 3 4 5 6 
#
# 1 0.014163 -0.001585 0.006763 0.000000 0.000000 0.000000
# 2 -0.001585 0.021722 0.007686 0.000000 0.000000 0.000000
# 3 0.006763 0.007686 0.037121 0.000000 0.000000 0.000000
# 4 0.000000 0.000000 0.000000 0.049596 0.000000 0.000000
# 5 0.000000 0.000000 0.000000 0.000000 0.027312 0.000000
# 6 0.000000 0.000000 0.000000 0.000000 0.000000 0.056674
#
#
# Mechanical properties :
#
#
# Convention : Reuss Voigt Hill
#
# Bulk Modulus (GPa) = 10.12834 14.24891 12.18862
# Shear Modulus (GPa) = 23.38955 27.03087 25.21021
#
# Velocity S-wave (km/s) = 3.17746 3.41585 3.29881
# Velocity P-wave (km/s) = 4.22298 4.65918 4.44643
#
# Compressibility (1/GPa) = 0.09873287
#
# Stress axis : x y z
#
# Youngs Moduli (GPa) = 70.60781 46.03715 26.93925
#
# Poissons Ratio (x) = 0.07297 -0.18218
# Poissons Ratio (y) = 0.11191 -0.20706
# Poissons Ratio (z) = -0.47750 -0.35385
#
# Static dielectric constant tensor:
#      x y z
#    x 1.934070 0.000000 0.000000 
#    y 0.000000 1.896980 0.000000 
#    z 0.000000 0.000000 1.887840 
# 
# From -- ./inp_files/3514.got.cif
#   From: 2010.05.17/outbox.cif.g08.bks.cpg/sg56_2_cif.got.tgz:3514.got - 2010.06.03 13:42:01.
