data_PCOD9431429
_publ_section_title
;
Structure prediction by ZEFSAII (Michael W. Deem and Ramdas Pophale) SiO2 
 PCOD9431429
Probable space group: P C C N
;
_chemical_formula_sum "Si O2"
_cell_formula_units_Z 44
_cell_length_a 11.113930
_cell_length_b 19.933655
_cell_length_c 8.204377
_cell_angle_alpha 90.000000
_cell_angle_beta 90.000000
_cell_angle_gamma 90.000000
_cell_volume 1817.607906
_symmetry_space_group_name_H-M "P C C N"
_symmetry_group_IT_number 56
_symmetry_cell_setting 'orthorhombic'
loop_
_space_group_symop_operation_xyz
x,y,z
1/2-x,1/2-y,z
1/2+x,-y,1/2-z
-x,1/2+y,1/2-z
-x,-y,-z
1/2+x,1/2+y,-z
1/2-x,y,1/2+z
x,1/2-y,1/2+z
loop_
_atom_site_type_symbol
_atom_site_label
_atom_site_fract_x
_atom_site_fract_y
_atom_site_fract_z
Si Si1 0.591532 0.814542 0.172264
Si Si2 0.081094 0.801448 0.217414
Si Si3 0.555915 0.586394 0.397244
Si Si4 0.840404 0.452895 0.899434
Si Si5 0.250000 0.250000 0.585666
Si Si6 0.814707 0.138746 0.099058
O O1 0.589448 0.883178 0.073725
O O2 0.640323 0.766740 0.029443
O O3 0.471456 0.774246 0.227378
O O4 0.696284 0.809906 0.306013
O O5 0.197035 0.821383 0.329549
O O6 0.977132 0.853253 0.275354
O O7 0.117717 0.814599 0.031107
O O8 0.428639 0.552217 0.443639
O O9 0.647479 0.529229 0.341673
O O10 0.870260 0.401540 0.752228
O O11 0.720373 0.422871 0.976266
#
# Coordination Sequence:
#
# PCOD9431429 Si02
#       6
#     8   8   8   8   4   8
#     4  11  22  42  61  90 124 162 206 264 313 372
#     4  10  21  41  64  93 130 159 208 260 316 374
#     4  10  21  38  62  84 125 167 200 260 307 366
#     4   9  20  38  58  90 119 161 210 248 309 367
#     4  10  24  40  62  86 120 160 216 252 310 372
#     4   9  20  40  65  93 125 162 209 256 312 390
#
# _framework density 24.207640999999999
#
# number of rings (size 3 to 8) (size 9 to 14) (size 15 to 20)
#    0.000    2.182    1.818    0.000    2.545    2.182 
#    0.000   15.455    0.000    0.000    0.000    0.000 
#    0.000    0.000    0.000    0.000    0.000    0.000 
#
# Total GULP energy -245211.197400 kJ/mol
# GULP energy per Si atom -5572.981759 kJ/mol
# Density = 2.415254 g / cm^3
# Si number density = 24.207641 Si / 1000 Ang^3
#
#
#
# Elastic Constant Matrix: (Units=GPa)
#
#
# Indices 1 2 3 4 5 6 
#
# 1 45.1191 12.8148 24.2090 0.0000 0.0000 0.0000
# 2 12.8148 126.6036 25.2316 0.0000 0.0000 0.0000
# 3 24.2090 25.2316 125.4626 0.0000 0.0000 0.0000
# 4 0.0000 0.0000 0.0000 35.5134 0.0000 0.0000
# 5 0.0000 0.0000 0.0000 0.0000 31.8439 0.0000
# 6 0.0000 0.0000 0.0000 0.0000 0.0000 15.6293
#
#
#
# Elastic Compliance Matrix: (Units=1/GPa)
#
#
# Indices 1 2 3 4 5 6 
#
# 1 0.025045 -0.001638 -0.004503 0.000000 0.000000 0.000000
# 2 -0.001638 0.008336 -0.001360 0.000000 0.000000 0.000000
# 3 -0.004503 -0.001360 0.009113 0.000000 0.000000 0.000000
# 4 0.000000 0.000000 0.000000 0.028158 0.000000 0.000000
# 5 0.000000 0.000000 0.000000 0.000000 0.031403 0.000000
# 6 0.000000 0.000000 0.000000 0.000000 0.000000 0.063982
#
#
# Mechanical properties :
#
#
# Convention : Reuss Voigt Hill
#
# Bulk Modulus (GPa) = 36.37543 46.85512 41.61528
# Shear Modulus (GPa) = 26.28763 32.25931 29.27347
#
# Velocity S-wave (km/s) = 3.29891 3.65445 3.48122
# Velocity P-wave (km/s) = 5.43778 6.09953 5.77813
#
# Compressibility (1/GPa) = 0.02749108
#
# Stress axis : x y z
#
# Youngs Moduli (GPa) = 39.92816 119.96825 109.73289
#
# Poissons Ratio (x) = 0.19646 0.49416
# Poissons Ratio (y) = 0.06538 0.14928
# Poissons Ratio (z) = 0.17981 0.16320
#
# Static dielectric constant tensor:
#      x y z
#    x 2.070140 0.000000 0.000000 
#    y 0.000000 2.027890 0.000000 
#    z 0.000000 0.000000 1.900000 
# 
# From -- ./inp_files/2734.got.cif
#   From: 2010.05.17/outbox.cif.g08.bks.cpg/sg56_2_cif.got.tgz:2734.got - 2010.06.03 13:42:01.
