data_PCOD9431107
_publ_section_title
;
Structure prediction by ZEFSAII (Michael W. Deem and Ramdas Pophale) SiO2 
 PCOD9431107
Probable space group: P C C N
;
_chemical_formula_sum "Si O2"
_cell_formula_units_Z 40
_cell_length_a 17.103557
_cell_length_b 5.535781
_cell_length_c 18.908762
_cell_angle_alpha 90.000000
_cell_angle_beta 90.000000
_cell_angle_gamma 90.000000
_cell_volume 1790.310817
_symmetry_space_group_name_H-M "P C C N"
_symmetry_group_IT_number 56
_symmetry_cell_setting 'orthorhombic'
loop_
_space_group_symop_operation_xyz
x,y,z
1/2-x,1/2-y,z
1/2+x,-y,1/2-z
-x,1/2+y,1/2-z
-x,-y,-z
1/2+x,1/2+y,-z
1/2-x,y,1/2+z
x,1/2-y,1/2+z
loop_
_atom_site_type_symbol
_atom_site_label
_atom_site_fract_x
_atom_site_fract_y
_atom_site_fract_z
Si Si1 0.750000 0.750000 0.665762
Si Si2 0.629405 0.155299 0.133220
Si Si3 0.828907 0.123857 0.272162
Si Si4 0.324593 0.396949 0.589885
Si Si5 0.250000 0.750000 0.973656
Si Si6 0.515927 0.751851 0.458642
O O1 0.682854 0.589668 0.626055
O O2 0.800182 0.582738 0.718730
O O3 0.628952 0.200658 0.217267
O O4 0.542925 0.206812 0.106340
O O5 0.681500 0.328226 0.081148
O O6 0.750000 0.250000 0.298220
O O7 0.865286 0.035978 0.344722
O O8 0.250000 0.250000 0.618194
O O9 0.290676 0.561597 0.527013
O O10 0.393016 0.232779 0.560215
O O11 0.500000 0.500000 0.500000
O O12 0.500000 0.000000 0.500000
#
# Coordination Sequence:
#
# PCOD9431107 Si02
#       6
#     4   8   8   8   4   8
#     4  10  20  40  72  98 142 184 254 300 360 454
#     4  11  24  44  73 108 142 203 247 309 382 453
#     4  10  21  42  68 103 145 187 254 308 369 450
#     4  12  26  44  74 106 146 196 250 313 384 448
#     4  12  22  38  74 102 136 186 246 300 374 448
#     4  12  29  51  73 113 159 192 252 322 381 459
#
# _framework density 22.342489
#
# number of rings (size 3 to 8) (size 9 to 14) (size 15 to 20)
#    0.000    0.800    7.000    1.200    4.200    0.000 
#    3.600    0.000    0.000    0.000    0.000    0.000 
#    0.000    0.000    0.000    0.000    0.000    0.000 
#
# Total GULP energy -222823.366909 kJ/mol
# GULP energy per Si atom -5570.584173 kJ/mol
# Density = 2.229164 g / cm^3
# Si number density = 22.342489 Si / 1000 Ang^3
#
#
#
# Elastic Constant Matrix: (Units=GPa)
#
#
# Indices 1 2 3 4 5 6 
#
# 1 118.6885 27.8531 20.4636 0.0000 0.0000 0.0000
# 2 27.8531 94.9634 32.0797 0.0000 0.0000 0.0000
# 3 20.4636 32.0797 129.7837 0.0000 0.0000 0.0000
# 4 0.0000 0.0000 0.0000 30.3684 0.0000 0.0000
# 5 0.0000 0.0000 0.0000 0.0000 10.0229 0.0000
# 6 0.0000 0.0000 0.0000 0.0000 0.0000 34.5496
#
#
#
# Elastic Compliance Matrix: (Units=1/GPa)
#
#
# Indices 1 2 3 4 5 6 
#
# 1 0.009133 -0.002392 -0.000849 0.000000 0.000000 0.000000
# 2 -0.002392 0.012116 -0.002618 0.000000 0.000000 0.000000
# 3 -0.000849 -0.002618 0.008486 0.000000 0.000000 0.000000
# 4 0.000000 0.000000 0.000000 0.032929 0.000000 0.000000
# 5 0.000000 0.000000 0.000000 0.000000 0.099772 0.000000
# 6 0.000000 0.000000 0.000000 0.000000 0.000000 0.028944
#
#
# Mechanical properties :
#
#
# Convention : Reuss Voigt Hill
#
# Bulk Modulus (GPa) = 55.49924 56.02540 55.76232
# Shear Modulus (GPa) = 23.91162 32.52410 28.21786
#
# Velocity S-wave (km/s) = 3.27499 3.81951 3.55768
# Velocity P-wave (km/s) = 6.26058 6.67695 6.47212
#
# Compressibility (1/GPa) = 0.01801826
#
# Stress axis : x y z
#
# Youngs Moduli (GPa) = 109.49168 82.53373 117.84109
#
# Poissons Ratio (x) = 0.19742 0.10002
# Poissons Ratio (y) = 0.26191 0.30847
# Poissons Ratio (z) = 0.09294 0.21605
#
# Static dielectric constant tensor:
#      x y z
#    x 1.841830 0.000000 0.000000 
#    y 0.000000 1.990540 0.000000 
#    z 0.000000 0.000000 1.837880 
# 
# From -- ./inp_files/16482.got.cif
#   From: 2010.05.17/outbox.cif.g08.bks.cpg/sg56_9_cif.got.tgz:16482.got - 2010.06.03 13:42:01.
