data_PCOD9431471
_publ_section_title
;
Structure prediction by ZEFSAII (Michael W. Deem and Ramdas Pophale) SiO2 
 PCOD9431471
Probable space group: P C C N
;
_chemical_formula_sum "Si O2"
_cell_formula_units_Z 40
_cell_length_a 8.248525
_cell_length_b 23.319890
_cell_length_c 9.084927
_cell_angle_alpha 90.000000
_cell_angle_beta 90.000000
_cell_angle_gamma 90.000000
_cell_volume 1747.528368
_symmetry_space_group_name_H-M "P C C N"
_symmetry_group_IT_number 56
_symmetry_cell_setting 'orthorhombic'
loop_
_space_group_symop_operation_xyz
x,y,z
1/2-x,1/2-y,z
1/2+x,-y,1/2-z
-x,1/2+y,1/2-z
-x,-y,-z
1/2+x,1/2+y,-z
1/2-x,y,1/2+z
x,1/2-y,1/2+z
loop_
_atom_site_type_symbol
_atom_site_label
_atom_site_fract_x
_atom_site_fract_y
_atom_site_fract_z
Si Si1 0.906433 0.553737 0.072471
Si Si2 0.974345 0.741484 0.703564
Si Si3 0.137537 0.824162 0.944518
Si Si4 0.020671 0.175047 0.541377
Si Si5 0.059629 0.057745 0.077480
O O1 0.909194 0.548333 0.248695
O O2 0.989725 0.611663 0.020096
O O3 0.728581 0.565834 0.006883
O O4 0.000000 0.500000 0.000000
O O5 0.091545 0.703345 0.601292
O O6 0.901567 0.784257 0.582287
O O7 0.051730 0.786939 0.817457
O O8 0.889631 0.694127 0.808365
O O9 0.329176 0.815980 0.927511
O O10 0.064557 0.888685 0.938713
O O11 0.000000 0.000000 0.000000
#
# Coordination Sequence:
#
# PCOD9431471 Si02
#       5
#     8   8   8   8   8
#     4  12  28  49  72 101 136 179 231 287 350 413
#     4  10  21  38  67 104 139 184 227 278 325 408
#     4  11  21  40  70 102 139 179 232 276 338 397
#     4  11  21  40  70 102 139 179 232 276 338 397
#     4  12  28  49  72 101 136 179 231 287 350 413
#
# _framework density 22.889472000000001
#
# number of rings (size 3 to 8) (size 9 to 14) (size 15 to 20)
#    0.000    0.800    2.000    7.200    5.600    0.000 
#    0.000    6.000    0.000    0.000    0.000    0.000 
#    0.000    0.000    0.000    0.000    0.000    0.000 
#
# Total GULP energy -223316.792409 kJ/mol
# GULP energy per Si atom -5582.919810 kJ/mol
# Density = 2.283737 g / cm^3
# Si number density = 22.889472 Si / 1000 Ang^3
#
#
#
# Elastic Constant Matrix: (Units=GPa)
#
#
# Indices 1 2 3 4 5 6 
#
# 1 55.6814 20.1235 23.5295 0.0000 0.0000 0.0000
# 2 20.1235 142.5181 68.2606 0.0000 0.0000 0.0000
# 3 23.5295 68.2606 187.4270 0.0000 0.0000 0.0000
# 4 0.0000 0.0000 0.0000 43.3745 0.0000 0.0000
# 5 0.0000 0.0000 0.0000 0.0000 24.1505 0.0000
# 6 0.0000 0.0000 0.0000 0.0000 0.0000 25.0627
#
#
#
# Elastic Compliance Matrix: (Units=1/GPa)
#
#
# Indices 1 2 3 4 5 6 
#
# 1 0.019383 -0.001903 -0.001740 0.000000 0.000000 0.000000
# 2 -0.001903 0.008686 -0.002925 0.000000 0.000000 0.000000
# 3 -0.001740 -0.002925 0.006619 0.000000 0.000000 0.000000
# 4 0.000000 0.000000 0.000000 0.023055 0.000000 0.000000
# 5 0.000000 0.000000 0.000000 0.000000 0.041407 0.000000
# 6 0.000000 0.000000 0.000000 0.000000 0.000000 0.039900
#
#
# Mechanical properties :
#
#
# Convention : Reuss Voigt Hill
#
# Bulk Modulus (GPa) = 46.40007 67.71704 57.05856
# Shear Modulus (GPa) = 31.37365 36.76508 34.06936
#
# Velocity S-wave (km/s) = 3.70626 4.01209 3.86220
# Velocity P-wave (km/s) = 6.21534 7.14920 6.69857
#
# Compressibility (1/GPa) = 0.02155169
#
# Stress axis : x y z
#
# Youngs Moduli (GPa) = 51.59288 115.12586 151.08102
#
# Poissons Ratio (x) = 0.21913 0.26289
# Poissons Ratio (y) = 0.09820 0.44184
# Poissons Ratio (z) = 0.08977 0.33669
#
# Static dielectric constant tensor:
#      x y z
#    x 2.074740 0.000000 0.000000 
#    y 0.000000 1.455230 0.000000 
#    z 0.000000 0.000000 1.827580 
# 
# From -- ./inp_files/2064.got.cif
#   From: 2010.05.17/outbox.cif.g08.bks.cpg/sg56_2_cif.got.tgz:2064.got - 2010.06.03 13:42:01.
