data_PCOD9431625
_publ_section_title
;
Structure prediction by ZEFSAII (Michael W. Deem and Ramdas Pophale) SiO2 
 PCOD9431625
Probable space group: P C C N
;
_chemical_formula_sum "Si O2"
_cell_formula_units_Z 64
_cell_length_a 15.711638
_cell_length_b 9.424160
_cell_length_c 21.239040
_cell_angle_alpha 90.000000
_cell_angle_beta 90.000000
_cell_angle_gamma 90.000000
_cell_volume 3144.843209
_symmetry_space_group_name_H-M "P C C N"
_symmetry_group_IT_number 56
_symmetry_cell_setting 'orthorhombic'
loop_
_space_group_symop_operation_xyz
x,y,z
1/2-x,1/2-y,z
1/2+x,-y,1/2-z
-x,1/2+y,1/2-z
-x,-y,-z
1/2+x,1/2+y,-z
1/2-x,y,1/2+z
x,1/2-y,1/2+z
loop_
_atom_site_type_symbol
_atom_site_label
_atom_site_fract_x
_atom_site_fract_y
_atom_site_fract_z
Si Si1 0.437323 0.155979 0.650792
Si Si2 0.439117 0.530171 0.941517
Si Si3 0.258506 0.080179 0.611943
Si Si4 0.247940 0.905824 0.992795
Si Si5 0.428756 0.082150 0.796024
Si Si6 0.364961 0.116971 0.329254
Si Si7 0.103000 0.025364 0.688488
Si Si8 0.790474 0.095400 0.645526
O O1 0.517539 0.142459 0.605262
O O2 0.359565 0.064826 0.621209
O O3 0.442925 0.097593 0.721535
O O4 0.418169 0.321992 0.658166
O O5 0.347791 0.572852 0.967945
O O6 0.422074 0.404843 0.891402
O O7 0.500000 0.500000 0.000000
O O8 0.250000 0.250000 0.619010
O O9 0.198103 0.999757 0.662082
O O10 0.231766 0.025355 0.543493
O O11 0.250000 0.750000 0.023062
O O12 0.305231 0.906027 0.929959
O O13 0.370777 0.215984 0.816024
O O14 0.523572 0.077182 0.825617
O O15 0.374853 0.943889 0.815848
O O16 0.395009 0.048486 0.263463
O O17 0.278511 0.029854 0.342358
O O18 0.750000 0.250000 0.660728
#
# Coordination Sequence:
#
# PCOD9431625 Si02
#       8
#     8   8   8   8   8   8   8   8
#     4  10  21  40  64  90 124 169 210 258 324 379
#     4  11  21  39  67  92 123 169 216 255 321 381
#     4  10  21  41  62  88 120 170 209 260 317 376
#     4  10  23  39  60  88 127 161 205 263 317 383
#     4  11  22  39  65  94 127 164 212 268 315 377
#     4  10  22  40  61  94 128 163 212 263 312 382
#     4  10  22  37  63  90 128 160 210 261 319 378
#     4  10  23  40  63  90 125 170 211 258 325 386
#
# _framework density 20.350777000000001
#
# number of rings (size 3 to 8) (size 9 to 14) (size 15 to 20)
#    0.000    1.750    2.500    1.125    5.250    5.000 
#    0.000    1.875    0.000    0.000    0.000    0.000 
#    0.000    0.000    0.000    0.000    0.000    0.000 
#
# Total GULP energy -356543.791369 kJ/mol
# GULP energy per Si atom -5570.996740 kJ/mol
# Density = 2.030446 g / cm^3
# Si number density = 20.350777 Si / 1000 Ang^3
#
#
#
# Elastic Constant Matrix: (Units=GPa)
#
#
# Indices 1 2 3 4 5 6 
#
# 1 40.3863 20.2602 3.4380 0.0000 0.0000 0.0000
# 2 20.2602 36.9555 22.3881 0.0000 0.0000 0.0000
# 3 3.4380 22.3881 66.9937 0.0000 0.0000 0.0000
# 4 0.0000 0.0000 0.0000 23.0599 0.0000 0.0000
# 5 0.0000 0.0000 0.0000 0.0000 25.2771 0.0000
# 6 0.0000 0.0000 0.0000 0.0000 0.0000 23.4968
#
#
#
# Elastic Compliance Matrix: (Units=1/GPa)
#
#
# Indices 1 2 3 4 5 6 
#
# 1 0.035948 -0.023309 0.005945 0.000000 0.000000 0.000000
# 2 -0.023309 0.049042 -0.015193 0.000000 0.000000 0.000000
# 3 0.005945 -0.015193 0.019699 0.000000 0.000000 0.000000
# 4 0.000000 0.000000 0.000000 0.043365 0.000000 0.000000
# 5 0.000000 0.000000 0.000000 0.000000 0.039561 0.000000
# 6 0.000000 0.000000 0.000000 0.000000 0.000000 0.042559
#
#
# Mechanical properties :
#
#
# Convention : Reuss Voigt Hill
#
# Bulk Modulus (GPa) = 25.26874 26.27868 25.77371
# Shear Modulus (GPa) = 16.20842 20.91672 18.56257
#
# Velocity S-wave (km/s) = 2.82521 3.20942 3.02343
# Velocity P-wave (km/s) = 4.80479 5.16476 4.98802
#
# Compressibility (1/GPa) = 0.03957459
#
# Stress axis : x y z
#
# Youngs Moduli (GPa) = 27.81783 20.39049 50.76430
#
# Poissons Ratio (x) = 0.47529 -0.30178
# Poissons Ratio (y) = 0.64841 0.77126
# Poissons Ratio (z) = -0.16537 0.30979
#
# Static dielectric constant tensor:
#      x y z
#    x 1.809660 0.000000 0.000000 
#    y 0.000000 1.751300 0.000000 
#    z 0.000000 0.000000 1.707520 
# 
# From -- ./inp_files/19338.got.cif
#   From: 2010.05.17/outbox.cif.g08.bks.cpg/sg56_10_cif.got.tgz:19338.got - 2010.06.03 13:42:01.
