data_PCOD9431370
_publ_section_title
;
Structure prediction by ZEFSAII (Michael W. Deem and Ramdas Pophale) SiO2 
 PCOD9431370
Probable space group: P C C N
;
_chemical_formula_sum "Si O2"
_cell_formula_units_Z 60
_cell_length_a 11.362371
_cell_length_b 19.735496
_cell_length_c 11.279984
_cell_angle_alpha 90.000000
_cell_angle_beta 90.000000
_cell_angle_gamma 90.000000
_cell_volume 2529.446481
_symmetry_space_group_name_H-M "P C C N"
_symmetry_group_IT_number 56
_symmetry_cell_setting 'orthorhombic'
loop_
_space_group_symop_operation_xyz
x,y,z
1/2-x,1/2-y,z
1/2+x,-y,1/2-z
-x,1/2+y,1/2-z
-x,-y,-z
1/2+x,1/2+y,-z
1/2-x,y,1/2+z
x,1/2-y,1/2+z
loop_
_atom_site_type_symbol
_atom_site_label
_atom_site_fract_x
_atom_site_fract_y
_atom_site_fract_z
Si Si1 0.542213 0.796630 0.099654
Si Si2 0.870419 0.968622 0.255817
Si Si3 0.460344 0.914656 0.412897
Si Si4 0.735471 0.422597 0.917043
Si Si5 0.332081 0.806571 0.251105
Si Si6 0.689921 0.632260 0.801185
Si Si7 0.250000 0.250000 0.040006
Si Si8 0.960123 0.073216 0.552791
O O1 0.422268 0.771023 0.158514
O O2 0.615431 0.824011 0.210410
O O3 0.628650 0.745652 0.032916
O O4 0.511060 0.863225 0.021164
O O5 0.917466 0.020151 0.160099
O O6 0.792742 0.013679 0.348703
O O7 0.774487 0.913505 0.221125
O O8 0.980124 0.931568 0.319391
O O9 0.398522 0.922458 0.539784
O O10 0.402521 0.848875 0.349331
O O11 0.598832 0.906687 0.387898
O O12 0.819985 0.419308 0.034873
O O13 0.762297 0.360154 0.830243
O O14 0.250000 0.750000 0.306590
O O15 0.763111 0.683280 0.881554
O O16 0.000000 0.000000 0.500000
#
# Coordination Sequence:
#
# PCOD9431370 Si02
#       8
#     8   8   8   8   8   8   4   8
#     4  10  22  41  60  84 120 160 198 254 297 362
#     4  10  21  37  61  89 117 159 202 245 306 362
#     4  10  23  38  60  90 123 154 198 256 304 357
#     4   9  20  36  59  87 117 150 198 252 308 355
#     4   9  20  40  60  84 117 158 202 247 304 366
#     4  11  24  41  63  90 124 159 207 251 300 373
#     4  12  24  42  62  90 122 164 208 244 312 364
#     4   9  17  36  62  82 110 155 198 238 301 366
#
# _framework density 23.720604000000002
#
# number of rings (size 3 to 8) (size 9 to 14) (size 15 to 20)
#    0.000    2.133    1.333    2.800    7.467    1.067 
#    7.200    0.000    0.000    0.000    0.000    0.000 
#    0.000    0.000    0.000    0.000    0.000    0.000 
#
# Total GULP energy -335211.982250 kJ/mol
# GULP energy per Si atom -5586.866371 kJ/mol
# Density = 2.366662 g / cm^3
# Si number density = 23.720604 Si / 1000 Ang^3
#
#
#
# Elastic Constant Matrix: (Units=GPa)
#
#
# Indices 1 2 3 4 5 6 
#
# 1 47.4576 29.5288 -0.2392 0.0000 0.0000 0.0000
# 2 29.5288 52.0754 -3.6311 0.0000 0.0000 0.0000
# 3 -0.2392 -3.6311 32.0496 0.0000 0.0000 0.0000
# 4 0.0000 0.0000 0.0000 9.5792 0.0000 0.0000
# 5 0.0000 0.0000 0.0000 0.0000 8.8206 0.0000
# 6 0.0000 0.0000 0.0000 0.0000 0.0000 35.5714
#
#
#
# Elastic Compliance Matrix: (Units=1/GPa)
#
#
# Indices 1 2 3 4 5 6 
#
# 1 0.032670 -0.018655 -0.001870 0.000000 0.000000 0.000000
# 2 -0.018655 0.030009 0.003261 0.000000 0.000000 0.000000
# 3 -0.001870 0.003261 0.031557 0.000000 0.000000 0.000000
# 4 0.000000 0.000000 0.000000 0.104393 0.000000 0.000000
# 5 0.000000 0.000000 0.000000 0.000000 0.113371 0.000000
# 6 0.000000 0.000000 0.000000 0.000000 0.000000 0.028112
#
#
# Mechanical properties :
#
#
# Convention : Reuss Voigt Hill
#
# Bulk Modulus (GPa) = 16.74864 20.32220 18.53542
# Shear Modulus (GPa) = 12.67289 17.85584 15.26437
#
# Velocity S-wave (km/s) = 2.31391 2.74662 2.53950
# Velocity P-wave (km/s) = 3.77028 4.31792 4.05336
#
# Compressibility (1/GPa) = 0.05970633
#
# Stress axis : x y z
#
# Youngs Moduli (GPa) = 30.60950 33.32384 31.68861
#
# Poissons Ratio (x) = 0.62167 0.05925
# Poissons Ratio (y) = 0.57103 -0.10332
# Poissons Ratio (z) = 0.05723 -0.10866
#
# Static dielectric constant tensor:
#      x y z
#    x 3.754570 0.000000 0.000000 
#    y 0.000000 1.951990 0.000000 
#    z 0.000000 0.000000 1.921700 
# 
# From -- ./inp_files/7328.got.cif
#   From: 2010.05.17/outbox.cif.g08.bks.cpg/sg56_4_cif.got.tgz:7328.got - 2010.06.03 13:42:01.
