data_PCOD9431781
_publ_section_title
;
Structure prediction by ZEFSAII (Michael W. Deem and Ramdas Pophale) SiO2 
 PCOD9431781
Probable space group: P C C N
;
_chemical_formula_sum "Si O2"
_cell_formula_units_Z 36
_cell_length_a 14.526143
_cell_length_b 6.496739
_cell_length_c 17.380998
_cell_angle_alpha 90.000000
_cell_angle_beta 90.000000
_cell_angle_gamma 90.000000
_cell_volume 1640.289272
_symmetry_space_group_name_H-M "P C C N"
_symmetry_group_IT_number 56
_symmetry_cell_setting 'orthorhombic'
loop_
_space_group_symop_operation_xyz
x,y,z
1/2-x,1/2-y,z
1/2+x,-y,1/2-z
-x,1/2+y,1/2-z
-x,-y,-z
1/2+x,1/2+y,-z
1/2-x,y,1/2+z
x,1/2-y,1/2+z
loop_
_atom_site_type_symbol
_atom_site_label
_atom_site_fract_x
_atom_site_fract_y
_atom_site_fract_z
Si Si1 0.511603 0.114000 0.352657
Si Si2 0.250000 0.750000 0.337117
Si Si3 0.386725 0.964266 0.223170
Si Si4 0.420923 0.286882 0.583403
Si Si5 0.389411 0.047049 0.924906
O O1 0.591600 0.270851 0.330979
O O2 0.424200 0.247955 0.380698
O O3 0.477472 0.001895 0.275229
O O4 0.550887 0.951010 0.412986
O O5 0.309116 0.898049 0.282024
O O6 0.312454 0.595775 0.387234
O O7 0.374206 0.151860 0.164372
O O8 0.518795 0.405695 0.577157
O O9 0.366331 0.372042 0.510195
#
# Coordination Sequence:
#
# PCOD9431781 Si02
#       5
#     8   4   8   8   8
#     4  11  19  41  68  94 121 179 228 268 325 416
#     4  12  24  42  60 100 140 176 214 296 352 382
#     4  11  22  37  67  92 129 167 225 276 335 402
#     4  10  21  42  65  93 125 177 229 273 325 416
#     4  10  23  39  66  94 133 174 223 277 338 401
#
# _framework density 21.947347000000001
#
# number of rings (size 3 to 8) (size 9 to 14) (size 15 to 20)
#    0.000    1.333    4.444    2.000    0.000    1.778 
#    0.000    0.000    4.889    0.000    0.000    0.000 
#    0.000    0.000    0.000    0.000    0.000    0.000 
#
# Total GULP energy -201076.383885 kJ/mol
# GULP energy per Si atom -5585.455108 kJ/mol
# Density = 2.189739 g / cm^3
# Si number density = 21.947347 Si / 1000 Ang^3
#
#
#
# Elastic Constant Matrix: (Units=GPa)
#
#
# Indices 1 2 3 4 5 6 
#
# 1 63.5976 42.9497 51.8279 0.0000 0.0000 0.0000
# 2 42.9497 119.6024 46.3705 0.0000 0.0000 0.0000
# 3 51.8279 46.3705 124.1873 0.0000 0.0000 0.0000
# 4 0.0000 0.0000 0.0000 20.9158 0.0000 0.0000
# 5 0.0000 0.0000 0.0000 0.0000 17.9121 0.0000
# 6 0.0000 0.0000 0.0000 0.0000 0.0000 14.8984
#
#
#
# Elastic Compliance Matrix: (Units=1/GPa)
#
#
# Indices 1 2 3 4 5 6 
#
# 1 0.027379 -0.006316 -0.009068 0.000000 0.000000 0.000000
# 2 -0.006316 0.011233 -0.001558 0.000000 0.000000 0.000000
# 3 -0.009068 -0.001558 0.012419 0.000000 0.000000 0.000000
# 4 0.000000 0.000000 0.000000 0.047811 0.000000 0.000000
# 5 0.000000 0.000000 0.000000 0.000000 0.055828 0.000000
# 6 0.000000 0.000000 0.000000 0.000000 0.000000 0.067121
#
#
# Mechanical properties :
#
#
# Convention : Reuss Voigt Hill
#
# Bulk Modulus (GPa) = 58.32261 65.52038 61.92150
# Shear Modulus (GPa) = 19.12835 21.82789 20.47812
#
# Velocity S-wave (km/s) = 2.95542 3.15708 3.05791
# Velocity P-wave (km/s) = 6.18688 6.57326 6.38300
#
# Compressibility (1/GPa) = 0.01714601
#
# Stress axis : x y z
#
# Youngs Moduli (GPa) = 36.52402 89.01976 80.52416
#
# Poissons Ratio (x) = 0.56228 0.73019
# Poissons Ratio (y) = 0.23070 0.12549
# Poissons Ratio (z) = 0.33120 0.13873
#
# Static dielectric constant tensor:
#      x y z
#    x 1.787480 0.000000 0.000000 
#    y 0.000000 1.840330 0.000000 
#    z 0.000000 0.000000 1.851100 
# 
# From -- ./inp_files/18919.got.cif
#   From: 2010.05.17/outbox.cif.g08.bks.cpg/sg56_10_cif.got.tgz:18919.got - 2010.06.03 13:42:01.
