data_PCOD9431521
_publ_section_title
;
Structure prediction by ZEFSAII (Michael W. Deem and Ramdas Pophale) SiO2 
 PCOD9431521
Probable space group: P C C N
;
_chemical_formula_sum "Si O2"
_cell_formula_units_Z 64
_cell_length_a 11.022163
_cell_length_b 10.199446
_cell_length_c 26.598794
_cell_angle_alpha 90.000000
_cell_angle_beta 90.000000
_cell_angle_gamma 90.000000
_cell_volume 2990.235260
_symmetry_space_group_name_H-M "P C C N"
_symmetry_group_IT_number 56
_symmetry_cell_setting 'orthorhombic'
loop_
_space_group_symop_operation_xyz
x,y,z
1/2-x,1/2-y,z
1/2+x,-y,1/2-z
-x,1/2+y,1/2-z
-x,-y,-z
1/2+x,1/2+y,-z
1/2-x,y,1/2+z
x,1/2-y,1/2+z
loop_
_atom_site_type_symbol
_atom_site_label
_atom_site_fract_x
_atom_site_fract_y
_atom_site_fract_z
Si Si1 0.145609 0.855763 0.881201
Si Si2 0.511766 0.896487 0.044678
Si Si3 0.754424 0.105089 0.412491
Si Si4 0.695528 0.604795 0.634518
Si Si5 0.491170 0.306047 0.213561
Si Si6 0.076893 0.631159 0.496875
Si Si7 0.483680 0.486721 0.706403
Si Si8 0.233290 0.109734 0.159235
O O1 0.250000 0.750000 0.871286
O O2 0.039710 0.820198 0.842983
O O3 0.196785 0.999290 0.868506
O O4 0.110090 0.844069 0.939278
O O5 0.394995 0.925478 0.079331
O O6 0.629267 0.898743 0.079968
O O7 0.494620 0.753185 0.020694
O O8 0.500000 0.000000 0.000000
O O9 0.750000 0.250000 0.389219
O O10 0.693726 0.113090 0.467403
O O11 0.685225 0.999606 0.378830
O O12 0.750000 0.750000 0.645277
O O13 0.592790 0.550673 0.673546
O O14 0.549990 0.407988 0.251405
O O15 0.351824 0.353759 0.206483
O O16 0.516004 0.156400 0.229222
O O17 0.000000 0.500000 0.500000
O O18 0.362099 0.447741 0.676487
O O19 0.250000 0.250000 0.132353
#
# Coordination Sequence:
#
# PCOD9431521 Si02
#       8
#     8   8   8   8   8   8   8   8
#     4  12  24  45  70 102 145 190 238 296 358 435
#     4  11  23  40  66  97 137 187 228 281 343 412
#     4  10  21  39  62  95 135 177 223 278 339 404
#     4  12  26  44  72 105 148 187 239 297 364 430
#     4  11  27  45  74 103 136 186 238 294 374 425
#     4  11  23  40  65 100 144 181 238 284 344 418
#     4  11  26  48  71 105 138 184 235 307 361 435
#     4  10  23  44  71 100 135 179 237 285 353 426
#
# _framework density 21.402998
#
# number of rings (size 3 to 8) (size 9 to 14) (size 15 to 20)
#    0.000    1.000    2.500    4.125    3.500    3.500 
#    0.000    0.625    0.000    0.000    0.000    0.000 
#    0.000    0.000    0.000    0.000    0.000    0.000 
#
# Total GULP energy -357591.639048 kJ/mol
# GULP energy per Si atom -5587.369360 kJ/mol
# Density = 2.135428 g / cm^3
# Si number density = 21.402998 Si / 1000 Ang^3
#
#
#
# Elastic Constant Matrix: (Units=GPa)
#
#
# Indices 1 2 3 4 5 6 
#
# 1 52.5313 22.4438 -1.3800 0.0000 0.0000 0.0000
# 2 22.4438 157.5170 45.9912 0.0000 0.0000 0.0000
# 3 -1.3800 45.9912 64.9630 0.0000 0.0000 0.0000
# 4 0.0000 0.0000 0.0000 16.9477 0.0000 0.0000
# 5 0.0000 0.0000 0.0000 0.0000 7.7104 0.0000
# 6 0.0000 0.0000 0.0000 0.0000 0.0000 37.8508
#
#
#
# Elastic Compliance Matrix: (Units=1/GPa)
#
#
# Indices 1 2 3 4 5 6 
#
# 1 0.020785 -0.003896 0.003200 0.000000 0.000000 0.000000
# 2 -0.003896 0.008733 -0.006265 0.000000 0.000000 0.000000
# 3 0.003200 -0.006265 0.019897 0.000000 0.000000 0.000000
# 4 0.000000 0.000000 0.000000 0.059005 0.000000 0.000000
# 5 0.000000 0.000000 0.000000 0.000000 0.129694 0.000000
# 6 0.000000 0.000000 0.000000 0.000000 0.000000 0.026419
#
#
# Mechanical properties :
#
#
# Convention : Reuss Voigt Hill
#
# Bulk Modulus (GPa) = 28.17564 45.45791 36.81677
# Shear Modulus (GPa) = 17.22433 26.36555 21.79494
#
# Velocity S-wave (km/s) = 2.83991 3.51360 3.19456
# Velocity P-wave (km/s) = 4.89350 6.14375 5.55392
#
# Compressibility (1/GPa) = 0.03549165
#
# Stress axis : x y z
#
# Youngs Moduli (GPa) = 48.11223 114.50918 50.25897
#
# Poissons Ratio (x) = 0.44609 -0.16081
# Poissons Ratio (y) = 0.18743 0.31489
# Poissons Ratio (z) = -0.15394 0.71744
#
# Static dielectric constant tensor:
#      x y z
#    x 1.822670 0.000000 0.000000 
#    y 0.000000 1.814100 0.000000 
#    z 0.000000 0.000000 1.782070 
# 
# From -- ./inp_files/23534.got.cif
#   From: 2010.05.17/outbox.cif.g08.bks.cpg/sg56_12_cif.got.tgz:23534.got - 2010.06.03 13:42:01.
