data_PCOD9431790
_publ_section_title
;
Structure prediction by ZEFSAII (Michael W. Deem and Ramdas Pophale) SiO2 
 PCOD9431790
Probable space group: P C C N
;
_chemical_formula_sum "Si O2"
_cell_formula_units_Z 64
_cell_length_a 17.663970
_cell_length_b 15.424765
_cell_length_c 10.844251
_cell_angle_alpha 90.000000
_cell_angle_beta 90.000000
_cell_angle_gamma 90.000000
_cell_volume 2954.652673
_symmetry_space_group_name_H-M "P C C N"
_symmetry_group_IT_number 56
_symmetry_cell_setting 'orthorhombic'
loop_
_space_group_symop_operation_xyz
x,y,z
1/2-x,1/2-y,z
1/2+x,-y,1/2-z
-x,1/2+y,1/2-z
-x,-y,-z
1/2+x,1/2+y,-z
1/2-x,y,1/2+z
x,1/2-y,1/2+z
loop_
_atom_site_type_symbol
_atom_site_label
_atom_site_fract_x
_atom_site_fract_y
_atom_site_fract_z
Si Si1 0.650226 0.938565 0.176600
Si Si2 0.048851 0.715438 0.197872
Si Si3 0.774245 0.441457 0.585004
Si Si4 0.572017 0.960550 0.568511
Si Si5 0.088728 0.181817 0.131717
Si Si6 0.450981 0.151314 0.016768
Si Si7 0.784440 0.154918 0.339485
Si Si8 0.459092 0.589799 0.269546
O O1 0.646452 0.857823 0.269144
O O2 0.729187 0.973391 0.129114
O O3 0.604017 0.016439 0.243387
O O4 0.601954 0.911744 0.058200
O O5 0.124560 0.663529 0.167872
O O6 0.068088 0.815313 0.226955
O O7 0.996086 0.676049 0.306940
O O8 0.994592 0.712221 0.080100
O O9 0.861144 0.469859 0.573099
O O10 0.742654 0.403893 0.455378
O O11 0.762556 0.377437 0.701857
O O12 0.595931 0.876769 0.489406
O O13 0.536345 0.934042 0.698843
O O14 0.500000 0.000000 0.500000
O O15 0.095504 0.283221 0.103266
O O16 0.515276 0.100936 0.090355
O O17 0.750000 0.250000 0.360769
#
# Coordination Sequence:
#
# PCOD9431790 Si02
#       8
#     8   8   8   8   8   8   8   8
#     4  11  23  43  66  97 137 178 226 296 345 424
#     4  10  22  41  70  99 139 178 237 291 353 431
#     4  12  29  46  71 105 146 188 241 289 365 431
#     4  12  24  42  70  97 136 182 233 286 346 422
#     4  10  21  42  67 100 133 177 237 288 352 418
#     4  10  22  39  68 100 130 176 234 288 350 415
#     4  12  27  46  68 105 148 192 228 295 363 434
#     4  11  22  38  70  99 134 178 231 285 346 419
#
# _framework density 21.660751999999999
#
# number of rings (size 3 to 8) (size 9 to 14) (size 15 to 20)
#    0.000    1.000    2.500    3.750    5.250    3.000 
#    0.000    0.625    2.750    0.000    0.000    0.000 
#    0.000    0.000    0.000    0.000    0.000    0.000 
#
# Total GULP energy -357733.212141 kJ/mol
# GULP energy per Si atom -5589.581440 kJ/mol
# Density = 2.161145 g / cm^3
# Si number density = 21.660752 Si / 1000 Ang^3
#
#
#
# Elastic Constant Matrix: (Units=GPa)
#
#
# Indices 1 2 3 4 5 6 
#
# 1 83.6352 25.0669 29.8401 0.0000 0.0000 0.0000
# 2 25.0669 61.6691 25.2437 0.0000 0.0000 0.0000
# 3 29.8401 25.2437 89.0038 0.0000 0.0000 0.0000
# 4 0.0000 0.0000 0.0000 30.1306 0.0000 0.0000
# 5 0.0000 0.0000 0.0000 0.0000 19.7691 0.0000
# 6 0.0000 0.0000 0.0000 0.0000 0.0000 35.7646
#
#
#
# Elastic Compliance Matrix: (Units=1/GPa)
#
#
# Indices 1 2 3 4 5 6 
#
# 1 0.014583 -0.004442 -0.003629 0.000000 0.000000 0.000000
# 2 -0.004442 0.019698 -0.004098 0.000000 0.000000 0.000000
# 3 -0.003629 -0.004098 0.013614 0.000000 0.000000 0.000000
# 4 0.000000 0.000000 0.000000 0.033189 0.000000 0.000000
# 5 0.000000 0.000000 0.000000 0.000000 0.050584 0.000000
# 6 0.000000 0.000000 0.000000 0.000000 0.000000 0.027961
#
#
# Mechanical properties :
#
#
# Convention : Reuss Voigt Hill
#
# Bulk Modulus (GPa) = 42.44869 43.84550 43.14710
# Shear Modulus (GPa) = 26.06610 27.41002 26.73806
#
# Velocity S-wave (km/s) = 3.47274 3.56114 3.51722
# Velocity P-wave (km/s) = 5.97658 6.09875 6.03797
#
# Compressibility (1/GPa) = 0.02355785
#
# Stress axis : x y z
#
# Youngs Moduli (GPa) = 68.57330 50.76534 73.45111
#
# Poissons Ratio (x) = 0.22550 0.26658
# Poissons Ratio (y) = 0.30460 0.30098
# Poissons Ratio (z) = 0.24888 0.20802
#
# Static dielectric constant tensor:
#      x y z
#    x 1.764660 0.000000 0.000000 
#    y 0.000000 1.798440 0.000000 
#    z 0.000000 0.000000 1.872500 
# 
# From -- ./inp_files/8490.got.cif
#   From: 2010.05.17/outbox.cif.g08.bks.cpg/sg56_5_cif.got.tgz:8490.got - 2010.06.03 13:42:01.
