data_PCOD9431813
_publ_section_title
;
Structure prediction by ZEFSAII (Michael W. Deem and Ramdas Pophale) SiO2 
 PCOD9431813
Probable space group: P C C N
;
_chemical_formula_sum "Si O2"
_cell_formula_units_Z 40
_cell_length_a 11.825759
_cell_length_b 6.609377
_cell_length_c 20.280489
_cell_angle_alpha 90.000000
_cell_angle_beta 90.000000
_cell_angle_gamma 90.000000
_cell_volume 1585.141263
_symmetry_space_group_name_H-M "P C C N"
_symmetry_group_IT_number 56
_symmetry_cell_setting 'orthorhombic'
loop_
_space_group_symop_operation_xyz
x,y,z
1/2-x,1/2-y,z
1/2+x,-y,1/2-z
-x,1/2+y,1/2-z
-x,-y,-z
1/2+x,1/2+y,-z
1/2-x,y,1/2+z
x,1/2-y,1/2+z
loop_
_atom_site_type_symbol
_atom_site_label
_atom_site_fract_x
_atom_site_fract_y
_atom_site_fract_z
Si Si1 0.165409 0.411823 0.218923
Si Si2 0.250000 0.750000 0.021162
Si Si3 0.925850 0.551627 0.433941
Si Si4 0.423580 0.612348 0.412975
Si Si5 0.990096 0.761146 0.667382
Si Si6 0.250000 0.750000 0.809191
O O1 0.250000 0.250000 0.185585
O O2 0.091562 0.581794 0.182051
O O3 0.243868 0.550236 0.265735
O O4 0.078263 0.292214 0.266836
O O5 0.306671 0.559529 0.057129
O O6 0.151904 0.653011 0.976457
O O7 0.970900 0.440118 0.368640
O O8 0.000000 0.500000 0.500000
O O9 0.953722 0.787582 0.423883
O O10 0.420899 0.383604 0.388398
O O11 0.359177 0.734696 0.355304
#
# Coordination Sequence:
#
# PCOD9431813 Si02
#       6
#     8   4   8   8   8   4
#     4  12  27  43  71 111 144 200 248 301 372 445
#     4   9  22  41  68 102 136 189 241 308 370 440
#     4  10  23  44  68 101 138 184 244 307 364 430
#     4  10  21  42  70  96 138 189 242 301 365 443
#     4  12  26  44  70 106 146 192 247 308 362 440
#     4  11  20  43  68  98 138 189 247 290 364 442
#
# _framework density 25.234347
#
# number of rings (size 3 to 8) (size 9 to 14) (size 15 to 20)
#    0.000    1.200    4.000    1.200    0.000    5.600 
#    0.000    4.000    0.000    0.000    0.000    0.000 
#    0.000    0.000    0.000    0.000    0.000    0.000 
#
# Total GULP energy -223720.929043 kJ/mol
# GULP energy per Si atom -5593.023226 kJ/mol
# Density = 2.517691 g / cm^3
# Si number density = 25.234347 Si / 1000 Ang^3
#
#
#
# Elastic Constant Matrix: (Units=GPa)
#
#
# Indices 1 2 3 4 5 6 
#
# 1 102.7607 47.1192 27.7084 0.0000 0.0000 0.0000
# 2 47.1192 82.0174 25.2531 0.0000 0.0000 0.0000
# 3 27.7084 25.2531 50.3942 0.0000 0.0000 0.0000
# 4 0.0000 0.0000 0.0000 40.2736 0.0000 0.0000
# 5 0.0000 0.0000 0.0000 0.0000 -80.3425 0.0000
# 6 0.0000 0.0000 0.0000 0.0000 0.0000 55.8819
#
#
#
# Elastic Compliance Matrix: (Units=1/GPa)
#
#
# Indices 1 2 3 4 5 6 
#
# 1 0.013966 -0.006692 -0.004326 0.000000 0.000000 0.000000
# 2 -0.006692 0.017623 -0.005152 0.000000 0.000000 0.000000
# 3 -0.004326 -0.005152 0.024804 0.000000 0.000000 0.000000
# 4 0.000000 0.000000 0.000000 0.024830 0.000000 0.000000
# 5 0.000000 0.000000 0.000000 0.000000 -0.012447 0.000000
# 6 0.000000 0.000000 0.000000 0.000000 0.000000 0.017895
#
#
# Mechanical properties :
#
#
# Convention : Reuss Voigt Hill
#
# Bulk Modulus (GPa) = 41.57251 48.37039 44.97145
# Shear Modulus (GPa) = 39.36143 12.16869 25.76506
#
# Velocity S-wave (km/s) = 3.95376 2.19835 3.19882
# Velocity P-wave (km/s) = 6.11173 5.06495 5.61280
#
# Compressibility (1/GPa) = 0.02405436
#
# Stress axis : x y z
#
# Youngs Moduli (GPa) = 71.60205 56.74349 40.31665
#
# Poissons Ratio (x) = 0.37971 0.17440
# Poissons Ratio (y) = 0.47914 0.20771
# Poissons Ratio (z) = 0.30973 0.29233
#
# Static dielectric constant tensor:
#      x y z
#    x -131.946640 0.000000 0.000000 
#    y 0.000000 1.844850 0.000000 
#    z 0.000000 0.000000 1.997370 
# 
# From -- ./inp_files/22223.got.cif
#   From: 2010.05.17/outbox.cif.g08.bks.cpg/sg56_12_cif.got.tgz:22223.got - 2010.06.03 13:42:01.
