data_PCOD9431483
_publ_section_title
;
Structure prediction by ZEFSAII (Michael W. Deem and Ramdas Pophale) SiO2 
 PCOD9431483
Probable space group: P C C N
;
_chemical_formula_sum "Si O2"
_cell_formula_units_Z 56
_cell_length_a 14.739925
_cell_length_b 11.363512
_cell_length_c 13.497217
_cell_angle_alpha 90.000000
_cell_angle_beta 90.000000
_cell_angle_gamma 90.000000
_cell_volume 2260.747602
_symmetry_space_group_name_H-M "P C C N"
_symmetry_group_IT_number 56
_symmetry_cell_setting 'orthorhombic'
loop_
_space_group_symop_operation_xyz
x,y,z
1/2-x,1/2-y,z
1/2+x,-y,1/2-z
-x,1/2+y,1/2-z
-x,-y,-z
1/2+x,1/2+y,-z
1/2-x,y,1/2+z
x,1/2-y,1/2+z
loop_
_atom_site_type_symbol
_atom_site_label
_atom_site_fract_x
_atom_site_fract_y
_atom_site_fract_z
Si Si1 0.160637 0.024375 0.207148
Si Si2 0.207979 0.129438 0.562205
Si Si3 0.646787 0.236784 0.026261
Si Si4 0.389101 0.315194 0.370392
Si Si5 0.428746 0.954279 0.098153
Si Si6 0.692391 0.146534 0.732366
Si Si7 0.011725 0.596578 0.587746
O O1 0.218418 0.037314 0.104933
O O2 0.139068 0.146992 0.260684
O O3 0.229821 0.952993 0.279171
O O4 0.065663 0.961671 0.179699
O O5 0.250000 0.250000 0.600277
O O6 0.190132 0.152076 0.446954
O O7 0.108950 0.087341 0.600776
O O8 0.750000 0.250000 0.996453
O O9 0.647923 0.294036 0.135739
O O10 0.615963 0.104859 0.000332
O O11 0.581360 0.311931 0.958925
O O12 0.469964 0.407280 0.397515
O O13 0.425995 0.180812 0.384326
O O14 0.383468 0.898606 0.195248
O O15 0.750000 0.250000 0.781427
O O16 0.000000 0.500000 0.500000
#
# Coordination Sequence:
#
# PCOD9431483 Si02
#       7
#     8   8   8   8   8   8   8
#     4  11  26  45  73 106 147 196 254 307 365 462
#     4  11  25  48  71 102 151 200 242 298 379 449
#     4  10  21  38  71 104 137 190 245 304 367 431
#     4  11  26  46  73 113 148 192 253 314 374 446
#     4  10  22  44  69 103 147 183 250 313 363 434
#     4  10  21  39  70 106 138 187 248 309 368 436
#     4  11  25  48  75 105 154 195 245 312 384 435
#
# _framework density 24.770567
#
# number of rings (size 3 to 8) (size 9 to 14) (size 15 to 20)
#    0.000    1.429    0.000    5.143    8.000    1.714 
#    2.571    0.000    0.000    0.000    0.000    0.000 
#    0.000    0.000    0.000    0.000    0.000    0.000 
#
# Total GULP energy -312612.188988 kJ/mol
# GULP energy per Si atom -5582.360518 kJ/mol
# Density = 2.471419 g / cm^3
# Si number density = 24.770567 Si / 1000 Ang^3
#
#
#
# Elastic Constant Matrix: (Units=GPa)
#
#
# Indices 1 2 3 4 5 6 
#
# 1 80.7894 30.7043 40.8379 0.0000 0.0000 0.0000
# 2 30.7043 108.5834 42.8894 0.0000 0.0000 0.0000
# 3 40.8379 42.8894 141.4279 0.0000 0.0000 0.0000
# 4 0.0000 0.0000 0.0000 27.4747 0.0000 0.0000
# 5 0.0000 0.0000 0.0000 0.0000 24.4096 0.0000
# 6 0.0000 0.0000 0.0000 0.0000 0.0000 36.1090
#
#
#
# Elastic Compliance Matrix: (Units=1/GPa)
#
#
# Indices 1 2 3 4 5 6 
#
# 1 0.015270 -0.002927 -0.003522 0.000000 0.000000 0.000000
# 2 -0.002927 0.011024 -0.002498 0.000000 0.000000 0.000000
# 3 -0.003522 -0.002498 0.008845 0.000000 0.000000 0.000000
# 4 0.000000 0.000000 0.000000 0.036397 0.000000 0.000000
# 5 0.000000 0.000000 0.000000 0.000000 0.040967 0.000000
# 6 0.000000 0.000000 0.000000 0.000000 0.000000 0.027694
#
#
# Mechanical properties :
#
#
# Convention : Reuss Voigt Hill
#
# Bulk Modulus (GPa) = 57.98397 62.18490 60.08443
# Shear Modulus (GPa) = 30.51756 32.02327 31.27042
#
# Velocity S-wave (km/s) = 3.51381 3.59945 3.55688
# Velocity P-wave (km/s) = 6.31836 6.51410 6.41698
#
# Compressibility (1/GPa) = 0.01724615
#
# Stress axis : x y z
#
# Youngs Moduli (GPa) = 65.48584 90.71258 113.05590
#
# Poissons Ratio (x) = 0.26551 0.39816
# Poissons Ratio (y) = 0.19168 0.28240
# Poissons Ratio (z) = 0.23063 0.22659
#
# Static dielectric constant tensor:
#      x y z
#    x 1.958280 0.000000 0.000000 
#    y 0.000000 2.047020 0.000000 
#    z 0.000000 0.000000 1.993900 
# 
# From -- ./inp_files/12279.got.cif
#   From: 2010.05.17/outbox.cif.g08.bks.cpg/sg56_7_cif.got.tgz:12279.got - 2010.06.03 13:42:01.
