data_PCOD9431989
_publ_section_title
;
Structure prediction by ZEFSAII (Michael W. Deem and Ramdas Pophale) SiO2 
 PCOD9431989
Probable space group: P C C N
;
_chemical_formula_sum "Si O2"
_cell_formula_units_Z 64
_cell_length_a 7.459600
_cell_length_b 29.797319
_cell_length_c 12.242425
_cell_angle_alpha 90.000000
_cell_angle_beta 90.000000
_cell_angle_gamma 90.000000
_cell_volume 2721.198249
_symmetry_space_group_name_H-M "P C C N"
_symmetry_group_IT_number 56
_symmetry_cell_setting 'orthorhombic'
loop_
_space_group_symop_operation_xyz
x,y,z
1/2-x,1/2-y,z
1/2+x,-y,1/2-z
-x,1/2+y,1/2-z
-x,-y,-z
1/2+x,1/2+y,-z
1/2-x,y,1/2+z
x,1/2-y,1/2+z
loop_
_atom_site_type_symbol
_atom_site_label
_atom_site_fract_x
_atom_site_fract_y
_atom_site_fract_z
Si Si1 0.523115 0.304592 0.556970
Si Si2 0.066943 0.448480 0.007021
Si Si3 0.392558 0.384584 0.697433
Si Si4 0.009284 0.450153 0.543415
Si Si5 0.000306 0.583594 0.236570
Si Si6 0.380766 0.673813 0.674046
Si Si7 0.548251 0.204640 0.602073
Si Si8 0.048465 0.862438 0.070745
O O1 0.422701 0.336637 0.640604
O O2 0.500970 0.324302 0.435131
O O3 0.479673 0.252187 0.559680
O O4 0.736172 0.303775 0.587844
O O5 0.011552 0.430512 0.888365
O O6 0.010143 0.420644 0.116181
O O7 0.281276 0.440932 0.016876
O O8 0.000000 0.500000 0.000000
O O9 0.187519 0.398174 0.717325
O O10 0.456185 0.380732 0.821557
O O11 0.953348 0.452109 0.671040
O O12 0.000000 0.500000 0.500000
O O13 0.895577 0.409522 0.488616
O O14 0.128328 0.626148 0.234900
O O15 0.462549 0.705207 0.766385
O O16 0.183076 0.675396 0.622523
O O17 0.460345 0.165389 0.528927
#
# Coordination Sequence:
#
# PCOD9431989 Si02
#       8
#     8   8   8   8   8   8   8   8
#     4  10  22  38  66  97 131 168 222 273 330 386
#     4  11  26  43  67  98 129 173 221 269 332 402
#     4  11  23  44  67  91 132 180 212 273 337 392
#     4  11  26  43  65  99 132 168 219 274 333 396
#     4  11  24  44  67  90 136 172 216 269 328 403
#     4  11  22  40  67  93 129 174 217 272 327 393
#     4  10  22  38  65 103 128 169 223 277 325 389
#     4  11  23  41  65  96 132 174 215 275 329 391
#
# _framework density 23.51905
#
# number of rings (size 3 to 8) (size 9 to 14) (size 15 to 20)
#    0.000    1.250    5.000    0.000    5.250    2.000 
#    0.000    0.625    0.000    0.000    0.000    0.000 
#    0.000    0.000    0.000    0.000    0.000    0.000 
#
# Total GULP energy -356609.210483 kJ/mol
# GULP energy per Si atom -5572.018914 kJ/mol
# Density = 2.346552 g / cm^3
# Si number density = 23.519050 Si / 1000 Ang^3
#
#
#
# Elastic Constant Matrix: (Units=GPa)
#
#
# Indices 1 2 3 4 5 6 
#
# 1 34.3036 -0.5542 15.5993 0.0000 0.0000 0.0000
# 2 -0.5542 126.9483 46.4678 0.0000 0.0000 0.0000
# 3 15.5993 46.4678 161.9084 0.0000 0.0000 0.0000
# 4 0.0000 0.0000 0.0000 33.4156 0.0000 0.0000
# 5 0.0000 0.0000 0.0000 0.0000 27.6659 0.0000
# 6 0.0000 0.0000 0.0000 0.0000 0.0000 17.8506
#
#
#
# Elastic Compliance Matrix: (Units=1/GPa)
#
#
# Indices 1 2 3 4 5 6 
#
# 1 0.030696 0.001359 -0.003348 0.000000 0.000000 0.000000
# 2 0.001359 0.008862 -0.002674 0.000000 0.000000 0.000000
# 3 -0.003348 -0.002674 0.007266 0.000000 0.000000 0.000000
# 4 0.000000 0.000000 0.000000 0.029926 0.000000 0.000000
# 5 0.000000 0.000000 0.000000 0.000000 0.036146 0.000000
# 6 0.000000 0.000000 0.000000 0.000000 0.000000 0.056021
#
#
# Mechanical properties :
#
#
# Convention : Reuss Voigt Hill
#
# Bulk Modulus (GPa) = 26.66742 49.57624 38.12183
# Shear Modulus (GPa) = 26.21352 33.22959 29.72156
#
# Velocity S-wave (km/s) = 3.34213 3.76291 3.55874
# Velocity P-wave (km/s) = 5.12410 6.32489 5.75589
#
# Compressibility (1/GPa) = 0.03749894
#
# Stress axis : x y z
#
# Youngs Moduli (GPa) = 32.57787 112.84036 137.61960
#
# Poissons Ratio (x) = -0.15339 0.46069
# Poissons Ratio (y) = -0.04428 0.36805
# Poissons Ratio (z) = 0.10906 0.30178
#
# Static dielectric constant tensor:
#      x y z
#    x 2.050160 0.000000 0.000000 
#    y 0.000000 2.466960 0.000000 
#    z 0.000000 0.000000 1.963390 
# 
# From -- ./inp_files/6622.got.cif
#   From: 2010.05.17/outbox.cif.g08.bks.cpg/sg56_4_cif.got.tgz:6622.got - 2010.06.03 13:42:01.
