data_PCOD9431703
_publ_section_title
;
Structure prediction by ZEFSAII (Michael W. Deem and Ramdas Pophale) SiO2 
 PCOD9431703
Probable space group: P C C N
;
_chemical_formula_sum "Si O2"
_cell_formula_units_Z 48
_cell_length_a 14.595622
_cell_length_b 28.153031
_cell_length_c 5.266481
_cell_angle_alpha 90.000000
_cell_angle_beta 90.000000
_cell_angle_gamma 90.000000
_cell_volume 2164.054967
_symmetry_space_group_name_H-M "P C C N"
_symmetry_group_IT_number 56
_symmetry_cell_setting 'orthorhombic'
loop_
_space_group_symop_operation_xyz
x,y,z
1/2-x,1/2-y,z
1/2+x,-y,1/2-z
-x,1/2+y,1/2-z
-x,-y,-z
1/2+x,1/2+y,-z
1/2-x,y,1/2+z
x,1/2-y,1/2+z
loop_
_atom_site_type_symbol
_atom_site_label
_atom_site_fract_x
_atom_site_fract_y
_atom_site_fract_z
Si Si1 0.352499 0.769476 0.853431
Si Si2 0.043064 0.147674 0.287820
Si Si3 0.570674 0.363478 0.786514
Si Si4 0.311879 0.954537 0.791627
Si Si5 0.712319 0.696644 0.884040
Si Si6 0.188405 0.063318 0.292467
O O1 0.250000 0.750000 0.890589
O O2 0.398214 0.759869 0.124809
O O3 0.352257 0.823806 0.769025
O O4 0.109565 0.191365 0.213915
O O5 0.108516 0.101567 0.267988
O O6 0.004574 0.148866 0.572163
O O7 0.966567 0.142558 0.070481
O O8 0.609599 0.415558 0.737924
O O9 0.241669 0.947965 0.556788
O O10 0.346512 0.008796 0.781393
O O11 0.750000 0.750000 0.919532
O O12 0.773766 0.674069 0.660457
O O13 0.241603 0.068580 0.558063
#
# Coordination Sequence:
#
# PCOD9431703 Si02
#       6
#     8   8   8   8   8   8
#     4  10  23  43  65  87 118 173 211 258 315 383
#     4  12  24  41  64  98 133 162 208 273 324 378
#     4  12  26  41  64  99 130 164 209 268 334 371
#     4  10  23  41  68  95 128 174 217 255 300 392
#     4  10  21  41  63  84 115 165 210 250 311 372
#     4  10  21  41  68  97 128 174 219 250 308 384
#
# _framework density 22.180584
#
# number of rings (size 3 to 8) (size 9 to 14) (size 15 to 20)
#    0.000    1.333    0.000    5.000    4.667    1.333 
#   18.000    0.000    0.000    0.000    0.000    0.000 
#    0.000    0.000    0.000    0.000    0.000    0.000 
#
# Total GULP energy -268349.105858 kJ/mol
# GULP energy per Si atom -5590.606372 kJ/mol
# Density = 2.213010 g / cm^3
# Si number density = 22.180584 Si / 1000 Ang^3
#
#
#
# Elastic Constant Matrix: (Units=GPa)
#
#
# Indices 1 2 3 4 5 6 
#
# 1 45.7078 24.7272 -6.3997 0.0000 0.0000 0.0000
# 2 24.7272 103.9670 -4.4646 0.0000 0.0000 0.0000
# 3 -6.3997 -4.4646 132.9677 0.0000 0.0000 0.0000
# 4 0.0000 0.0000 0.0000 26.3611 0.0000 0.0000
# 5 0.0000 0.0000 0.0000 0.0000 31.6475 0.0000
# 6 0.0000 0.0000 0.0000 0.0000 0.0000 31.4576
#
#
#
# Elastic Compliance Matrix: (Units=1/GPa)
#
#
# Indices 1 2 3 4 5 6 
#
# 1 0.025245 -0.005961 0.001015 0.000000 0.000000 0.000000
# 2 -0.005961 0.011040 0.000084 0.000000 0.000000 0.000000
# 3 0.001015 0.000084 0.007572 0.000000 0.000000 0.000000
# 4 0.000000 0.000000 0.000000 0.037935 0.000000 0.000000
# 5 0.000000 0.000000 0.000000 0.000000 0.031598 0.000000
# 6 0.000000 0.000000 0.000000 0.000000 0.000000 0.031789
#
#
# Mechanical properties :
#
#
# Convention : Reuss Voigt Hill
#
# Bulk Modulus (GPa) = 29.29720 34.48538 31.89129
# Shear Modulus (GPa) = 30.06982 35.81188 32.94085
#
# Velocity S-wave (km/s) = 3.68595 4.02252 3.85791
# Velocity P-wave (km/s) = 5.59930 6.09553 5.85268
#
# Compressibility (1/GPa) = 0.03413295
#
# Stress axis : x y z
#
# Youngs Moduli (GPa) = 39.61218 90.58236 132.06057
#
# Poissons Ratio (x) = 0.53992 -0.13403
# Poissons Ratio (y) = 0.23611 -0.01107
# Poissons Ratio (z) = -0.04020 -0.00759
#
# Static dielectric constant tensor:
#      x y z
#    x 2.145160 0.000000 0.000000 
#    y 0.000000 1.912180 0.000000 
#    z 0.000000 0.000000 1.870080 
# 
# From -- ./inp_files/537.got.cif
#   From: 2010.05.17/outbox.cif.g08.bks.cpg/sg56_1_cif.got.tgz:537.got - 2010.06.03 13:42:01.
