data_PCOD9431036
_publ_section_title
;
Structure prediction by ZEFSAII (Michael W. Deem and Ramdas Pophale) SiO2 
 PCOD9431036
Probable space group: P C C N
;
_chemical_formula_sum "Si O2"
_cell_formula_units_Z 44
_cell_length_a 10.999431
_cell_length_b 11.020506
_cell_length_c 18.252174
_cell_angle_alpha 90.000000
_cell_angle_beta 90.000000
_cell_angle_gamma 90.000000
_cell_volume 2212.515671
_symmetry_space_group_name_H-M "P C C N"
_symmetry_group_IT_number 56
_symmetry_cell_setting 'orthorhombic'
loop_
_space_group_symop_operation_xyz
x,y,z
1/2-x,1/2-y,z
1/2+x,-y,1/2-z
-x,1/2+y,1/2-z
-x,-y,-z
1/2+x,1/2+y,-z
1/2-x,y,1/2+z
x,1/2-y,1/2+z
loop_
_atom_site_type_symbol
_atom_site_label
_atom_site_fract_x
_atom_site_fract_y
_atom_site_fract_z
Si Si1 0.025613 0.065333 0.381267
Si Si2 0.128764 0.184659 0.853273
Si Si3 0.235264 0.965847 0.941991
Si Si4 0.250000 0.750000 0.833212
Si Si5 0.753186 0.103085 0.895067
Si Si6 0.920761 0.082004 0.759677
O O1 0.050608 0.208174 0.389402
O O2 0.882471 0.048891 0.389080
O O3 0.119064 0.992194 0.433241
O O4 0.064590 0.023902 0.299505
O O5 0.250000 0.250000 0.824696
O O6 0.050392 0.122294 0.790553
O O7 0.170017 0.085718 0.912311
O O8 0.205121 0.857356 0.886039
O O9 0.201666 0.930963 0.024038
O O10 0.354486 0.807177 0.782577
O O11 0.750000 0.250000 0.888462
O O12 0.837133 0.053881 0.829764
#
# Coordination Sequence:
#
# PCOD9431036 Si02
#       6
#     8   8   8   4   8   8
#     4  10  23  41  65  92 131 168 215 269 329 380
#     4  10  22  39  63  89 131 163 211 271 331 375
#     4  10  23  40  67  92 132 170 213 271 326 393
#     4  10  20  40  62 100 124 168 220 260 320 392
#     4  12  22  42  68  95 130 170 223 264 332 390
#     4  11  23  38  69  96 126 172 218 268 319 405
#
# _framework density 19.886865
#
# number of rings (size 3 to 8) (size 9 to 14) (size 15 to 20)
#    0.000    1.455    3.636    0.545   10.182    0.727 
#    0.000    0.000   12.000    0.000    0.000    0.000 
#    0.000    0.000    0.000    0.000    0.000    0.000 
#
# Total GULP energy -245782.289696 kJ/mol
# GULP energy per Si atom -5585.961129 kJ/mol
# Density = 1.984160 g / cm^3
# Si number density = 19.886865 Si / 1000 Ang^3
#
#
#
# Elastic Constant Matrix: (Units=GPa)
#
#
# Indices 1 2 3 4 5 6 
#
# 1 79.1024 15.5251 43.8853 0.0000 0.0000 0.0000
# 2 15.5251 65.5317 35.7433 0.0000 0.0000 0.0000
# 3 43.8853 35.7433 139.8036 0.0000 0.0000 0.0000
# 4 0.0000 0.0000 0.0000 12.4439 0.0000 0.0000
# 5 0.0000 0.0000 0.0000 0.0000 10.1601 0.0000
# 6 0.0000 0.0000 0.0000 0.0000 0.0000 15.4571
#
#
#
# Elastic Compliance Matrix: (Units=1/GPa)
#
#
# Indices 1 2 3 4 5 6 
#
# 1 0.015385 -0.001174 -0.004529 0.000000 0.000000 0.000000
# 2 -0.001174 0.017822 -0.004188 0.000000 0.000000 0.000000
# 3 -0.004529 -0.004188 0.009645 0.000000 0.000000 0.000000
# 4 0.000000 0.000000 0.000000 0.080360 0.000000 0.000000
# 5 0.000000 0.000000 0.000000 0.000000 0.098424 0.000000
# 6 0.000000 0.000000 0.000000 0.000000 0.000000 0.064695
#
#
# Mechanical properties :
#
#
# Convention : Reuss Voigt Hill
#
# Bulk Modulus (GPa) = 43.34723 52.74946 48.04834
# Shear Modulus (GPa) = 15.93345 20.23118 18.08231
#
# Velocity S-wave (km/s) = 2.83363 3.19300 3.01866
# Velocity P-wave (km/s) = 5.70527 6.33845 6.03018
#
# Compressibility (1/GPa) = 0.02306953
#
# Stress axis : x y z
#
# Youngs Moduli (GPa) = 64.99789 56.10955 103.67690
#
# Poissons Ratio (x) = 0.06590 0.46957
# Poissons Ratio (y) = 0.07634 0.43419
# Poissons Ratio (z) = 0.29439 0.23498
#
# Static dielectric constant tensor:
#      x y z
#    x 1.732450 0.000000 0.000000 
#    y 0.000000 1.689230 0.000000 
#    z 0.000000 0.000000 1.672770 
# 
# From -- ./inp_files/15504.got.cif
#   From: 2010.05.17/outbox.cif.g08.bks.cpg/sg56_8_cif.got.tgz:15504.got - 2010.06.03 13:42:01.
