data_PCOD9431913
_publ_section_title
;
Structure prediction by ZEFSAII (Michael W. Deem and Ramdas Pophale) SiO2 
 PCOD9431913
Probable space group: P C C N
;
_chemical_formula_sum "Si O2"
_cell_formula_units_Z 48
_cell_length_a 5.342982
_cell_length_b 23.036254
_cell_length_c 17.858278
_cell_angle_alpha 90.000000
_cell_angle_beta 90.000000
_cell_angle_gamma 90.000000
_cell_volume 2198.037760
_symmetry_space_group_name_H-M "P C C N"
_symmetry_group_IT_number 56
_symmetry_cell_setting 'orthorhombic'
loop_
_space_group_symop_operation_xyz
x,y,z
1/2-x,1/2-y,z
1/2+x,-y,1/2-z
-x,1/2+y,1/2-z
-x,-y,-z
1/2+x,1/2+y,-z
1/2-x,y,1/2+z
x,1/2-y,1/2+z
loop_
_atom_site_type_symbol
_atom_site_label
_atom_site_fract_x
_atom_site_fract_y
_atom_site_fract_z
Si Si1 0.348242 0.402053 0.740147
Si Si2 0.712237 0.545856 0.017582
Si Si3 0.374111 0.610621 0.123837
Si Si4 0.311075 0.684167 0.491990
Si Si5 0.003681 0.515276 0.158064
Si Si6 0.301984 0.355350 0.088931
O O1 0.521273 0.366015 0.797874
O O2 0.153533 0.439942 0.789798
O O3 0.499181 0.452822 0.696495
O O4 0.220126 0.361516 0.678193
O O5 0.604809 0.597565 0.069649
O O6 0.902157 0.515048 0.073276
O O7 0.500000 0.500000 0.000000
O O8 0.763256 0.580351 0.942297
O O9 0.190177 0.645895 0.068857
O O10 0.267123 0.547653 0.147380
O O11 0.250000 0.750000 0.512741
O O12 0.574211 0.681103 0.447781
O O13 0.079258 0.662214 0.439458
#
# Coordination Sequence:
#
# PCOD9431913 Si02
#       6
#     8   8   8   8   8   8
#     4  11  24  35  61  96 141 180 208 265 331 414
#     4  10  22  35  59  95 133 178 221 260 321 405
#     4  10  22  40  60  94 127 177 223 268 328 407
#     4  11  25  49  74  93 122 174 236 297 344 383
#     4  11  21  37  57  93 140 183 218 248 336 413
#     4  11  25  42  69 100 131 171 224 286 335 394
#
# _framework density 21.83766
#
# number of rings (size 3 to 8) (size 9 to 14) (size 15 to 20)
#    0.000    1.333    3.333    1.500    9.333    1.333 
#    0.000    0.833    3.667    0.000    0.000    0.000 
#    0.000    0.000    0.000    0.000    0.000    0.000 
#
# Total GULP energy -267741.452595 kJ/mol
# GULP energy per Si atom -5577.946929 kJ/mol
# Density = 2.178796 g / cm^3
# Si number density = 21.837660 Si / 1000 Ang^3
#
#
#
# Elastic Constant Matrix: (Units=GPa)
#
#
# Indices 1 2 3 4 5 6 
#
# 1 63.4619 -9.3484 16.3294 0.0000 0.0000 0.0000
# 2 -9.3484 40.1051 -2.1343 0.0000 0.0000 0.0000
# 3 16.3294 -2.1343 141.9233 0.0000 0.0000 0.0000
# 4 0.0000 0.0000 0.0000 15.9653 0.0000 0.0000
# 5 0.0000 0.0000 0.0000 0.0000 37.2625 0.0000
# 6 0.0000 0.0000 0.0000 0.0000 0.0000 29.8760
#
#
#
# Elastic Compliance Matrix: (Units=1/GPa)
#
#
# Indices 1 2 3 4 5 6 
#
# 1 0.016802 0.003817 -0.001876 0.000000 0.000000 0.000000
# 2 0.003817 0.025821 -0.000051 0.000000 0.000000 0.000000
# 3 -0.001876 -0.000051 0.007261 0.000000 0.000000 0.000000
# 4 0.000000 0.000000 0.000000 0.062636 0.000000 0.000000
# 5 0.000000 0.000000 0.000000 0.000000 0.026837 0.000000
# 6 0.000000 0.000000 0.000000 0.000000 0.000000 0.033472
#
#
# Mechanical properties :
#
#
# Convention : Reuss Voigt Hill
#
# Bulk Modulus (GPa) = 18.63408 28.35376 23.49392
# Shear Modulus (GPa) = 26.74691 32.66365 29.70528
#
# Velocity S-wave (km/s) = 3.50352 3.87169 3.69220
# Velocity P-wave (km/s) = 4.99177 5.74445 5.38128
#
# Compressibility (1/GPa) = 0.05366510
#
# Stress axis : x y z
#
# Youngs Moduli (GPa) = 59.51528 38.72751 137.71970
#
# Poissons Ratio (x) = -0.14781 0.25834
# Poissons Ratio (y) = -0.22716 0.00700
# Poissons Ratio (z) = 0.11164 0.00197
#
# Static dielectric constant tensor:
#      x y z
#    x 1.801390 0.000000 0.000000 
#    y 0.000000 1.754170 0.000000 
#    z 0.000000 0.000000 1.872690 
# 
# From -- ./inp_files/9684.got.cif
#   From: 2010.05.17/outbox.cif.g08.bks.cpg/sg56_5_cif.got.tgz:9684.got - 2010.06.03 13:42:01.
