data_PCOD9431685
_publ_section_title
;
Structure prediction by ZEFSAII (Michael W. Deem and Ramdas Pophale) SiO2 
 PCOD9431685
Probable space group: P C C N
;
_chemical_formula_sum "Si O2"
_cell_formula_units_Z 60
_cell_length_a 13.450700
_cell_length_b 19.388727
_cell_length_c 11.048534
_cell_angle_alpha 90.000000
_cell_angle_beta 90.000000
_cell_angle_gamma 90.000000
_cell_volume 2881.368729
_symmetry_space_group_name_H-M "P C C N"
_symmetry_group_IT_number 56
_symmetry_cell_setting 'orthorhombic'
loop_
_space_group_symop_operation_xyz
x,y,z
1/2-x,1/2-y,z
1/2+x,-y,1/2-z
-x,1/2+y,1/2-z
-x,-y,-z
1/2+x,1/2+y,-z
1/2-x,y,1/2+z
x,1/2-y,1/2+z
loop_
_atom_site_type_symbol
_atom_site_label
_atom_site_fract_x
_atom_site_fract_y
_atom_site_fract_z
Si Si1 0.390630 0.936716 0.402124
Si Si2 0.250000 0.750000 0.148265
Si Si3 0.053758 0.806504 0.283045
Si Si4 0.332858 0.457125 0.241423
Si Si5 0.011756 0.161879 0.241536
Si Si6 0.204741 0.502466 0.013924
Si Si7 0.606362 0.137460 0.961390
Si Si8 0.496555 0.936548 0.650187
O O1 0.412442 0.875507 0.311642
O O2 0.470566 0.928860 0.509014
O O3 0.286044 0.941963 0.465567
O O4 0.412327 0.010697 0.341353
O O5 0.157154 0.781804 0.221914
O O6 0.301086 0.813077 0.075529
O O7 0.988766 0.738680 0.308037
O O8 0.083035 0.847297 0.401356
O O9 0.994584 0.860849 0.201685
O O10 0.396299 0.387954 0.216967
O O11 0.312913 0.460833 0.387531
O O12 0.405522 0.522344 0.213110
O O13 0.250151 0.464886 0.133291
O O14 0.987254 0.163303 0.382997
O O15 0.118584 0.554970 0.054960
#
# Coordination Sequence:
#
# PCOD9431685 Si02
#       8
#     8   4   8   8   8   8   8   8
#     4   9  19  34  60  82 115 157 200 247 294 375
#     4  10  22  34  52  86 124 160 190 238 318 390
#     4  11  22  36  57  88 125 162 194 249 311 382
#     4  10  21  41  60  93 122 163 210 266 311 372
#     4  10  24  38  57  88 128 165 205 244 314 385
#     4  11  21  37  65  90 121 157 215 266 313 358
#     4  11  23  35  57  92 122 161 193 257 315 386
#     4   9  18  37  56  85 115 156 201 241 306 366
#
# _framework density 20.823436999999998
#
# number of rings (size 3 to 8) (size 9 to 14) (size 15 to 20)
#    0.000    1.867    1.333    3.600    9.333    0.533 
#    2.400    0.000    0.000    0.800    0.000    0.000 
#    0.000    0.000    0.000    0.000    0.000    0.000 
#
# Total GULP energy -334444.942483 kJ/mol
# GULP energy per Si atom -5574.082375 kJ/mol
# Density = 2.077604 g / cm^3
# Si number density = 20.823437 Si / 1000 Ang^3
#
#
#
# Elastic Constant Matrix: (Units=GPa)
#
#
# Indices 1 2 3 4 5 6 
#
# 1 21.1689 19.0202 16.2609 0.0000 0.0000 0.0000
# 2 19.0202 114.0599 17.9138 0.0000 0.0000 0.0000
# 3 16.2609 17.9138 83.9805 0.0000 0.0000 0.0000
# 4 0.0000 0.0000 0.0000 20.2100 0.0000 0.0000
# 5 0.0000 0.0000 0.0000 0.0000 -11.1290 0.0000
# 6 0.0000 0.0000 0.0000 0.0000 0.0000 19.0812
#
#
#
# Elastic Compliance Matrix: (Units=1/GPa)
#
#
# Indices 1 2 3 4 5 6 
#
# 1 0.063185 -0.008914 -0.010333 0.000000 0.000000 0.000000
# 2 -0.008914 0.010329 -0.000477 0.000000 0.000000 0.000000
# 3 -0.010333 -0.000477 0.014010 0.000000 0.000000 0.000000
# 4 0.000000 0.000000 0.000000 0.049480 0.000000 0.000000
# 5 0.000000 0.000000 0.000000 0.000000 -0.089855 0.000000
# 6 0.000000 0.000000 0.000000 0.000000 0.000000 0.052408
#
#
# Mechanical properties :
#
#
# Convention : Reuss Voigt Hill
#
# Bulk Modulus (GPa) = 20.80037 36.17768 28.48902
# Shear Modulus (GPa) = 32.25186 16.70008 24.47597
#
# Velocity S-wave (km/s) = 3.93978 2.83501 3.43214
# Velocity P-wave (km/s) = 5.54134 5.30355 5.42375
#
# Compressibility (1/GPa) = 0.04807607
#
# Stress axis : x y z
#
# Youngs Moduli (GPa) = 15.82648 96.81767 71.37710
#
# Poissons Ratio (x) = 0.86300 0.73754
# Poissons Ratio (y) = 0.14107 0.03407
# Poissons Ratio (z) = 0.16354 0.04621
#
# Static dielectric constant tensor:
#      x y z
#    x 1.794690 0.000000 0.000000 
#    y 0.000000 1.759040 0.000000 
#    z 0.000000 0.000000 1.765490 
# 
# From -- ./inp_files/8022.got.cif
#   From: 2010.05.17/outbox.cif.g08.bks.cpg/sg56_5_cif.got.tgz:8022.got - 2010.06.03 13:42:01.
