data_PCOD9431404
_publ_section_title
;
Structure prediction by ZEFSAII (Michael W. Deem and Ramdas Pophale) SiO2 
 PCOD9431404
Probable space group: P C C N
;
_chemical_formula_sum "Si O2"
_cell_formula_units_Z 64
_cell_length_a 29.335114
_cell_length_b 5.206972
_cell_length_c 18.036312
_cell_angle_alpha 90.000000
_cell_angle_beta 90.000000
_cell_angle_gamma 90.000000
_cell_volume 2754.994663
_symmetry_space_group_name_H-M "P C C N"
_symmetry_group_IT_number 56
_symmetry_cell_setting 'orthorhombic'
loop_
_space_group_symop_operation_xyz
x,y,z
1/2-x,1/2-y,z
1/2+x,-y,1/2-z
-x,1/2+y,1/2-z
-x,-y,-z
1/2+x,1/2+y,-z
1/2-x,y,1/2+z
x,1/2-y,1/2+z
loop_
_atom_site_type_symbol
_atom_site_label
_atom_site_fract_x
_atom_site_fract_y
_atom_site_fract_z
Si Si1 0.838963 0.177142 0.014559
Si Si2 0.566519 0.036315 0.257198
Si Si3 0.500983 0.893921 0.630021
Si Si4 0.125621 0.607758 0.129264
Si Si5 0.590381 0.357657 0.125216
Si Si6 0.034403 0.401509 0.065573
Si Si7 0.302181 0.329689 0.405665
Si Si8 0.645268 0.657117 0.232738
O O1 0.889595 0.226461 0.048105
O O2 0.808672 0.397819 0.053619
O O3 0.824853 0.892651 0.041979
O O4 0.844218 0.226808 0.927609
O O5 0.596438 0.208489 0.315200
O O6 0.565241 0.155993 0.176151
O O7 0.517003 0.004200 0.291353
O O8 0.596135 0.781710 0.249667
O O9 0.554206 0.917726 0.614001
O O10 0.476363 0.101454 0.576330
O O11 0.483950 0.606165 0.625100
O O12 0.089053 0.441997 0.079917
O O13 0.157661 0.444056 0.185825
O O14 0.633506 0.428540 0.176084
O O15 0.000000 0.500000 0.000000
O O16 0.250000 0.250000 0.397257
O O17 0.324641 0.331251 0.322576
#
# Coordination Sequence:
#
# PCOD9431404 Si02
#       8
#     8   8   8   8   8   8   8   8
#     4  11  24  43  71 100 131 174 213 270 331 403
#     4  10  21  38  59  89 131 176 225 267 322 378
#     4  11  24  35  57  88 127 174 227 283 306 360
#     4  10  23  40  63  95 133 178 218 271 325 392
#     4  10  23  37  60  94 129 174 235 269 326 379
#     4  11  23  38  55  85 132 180 224 268 323 371
#     4  11  25  47  75 101 129 163 212 271 341 412
#     4  10  21  42  66  94 128 176 218 269 334 398
#
# _framework density 23.230536000000001
#
# number of rings (size 3 to 8) (size 9 to 14) (size 15 to 20)
#    0.000    1.500    2.500    1.500    5.250    3.000 
#    0.000    0.625    2.750    0.000    0.000    0.000 
#    0.000    0.000    0.000    0.000    0.000    0.000 
#
# Total GULP energy -356752.025021 kJ/mol
# GULP energy per Si atom -5574.250391 kJ/mol
# Density = 2.317766 g / cm^3
# Si number density = 23.230536 Si / 1000 Ang^3
#
#
#
# Elastic Constant Matrix: (Units=GPa)
#
#
# Indices 1 2 3 4 5 6 
#
# 1 45.5067 -2.0414 3.1190 0.0000 0.0000 0.0000
# 2 -2.0414 60.5936 11.1905 0.0000 0.0000 0.0000
# 3 3.1190 11.1905 81.9146 0.0000 0.0000 0.0000
# 4 0.0000 0.0000 0.0000 31.5697 0.0000 0.0000
# 5 0.0000 0.0000 0.0000 0.0000 14.6023 0.0000
# 6 0.0000 0.0000 0.0000 0.0000 0.0000 26.4768
#
#
#
# Elastic Compliance Matrix: (Units=1/GPa)
#
#
# Indices 1 2 3 4 5 6 
#
# 1 0.022082 0.000923 -0.000967 0.000000 0.000000 0.000000
# 2 0.000923 0.016969 -0.002353 0.000000 0.000000 0.000000
# 3 -0.000967 -0.002353 0.012566 0.000000 0.000000 0.000000
# 4 0.000000 0.000000 0.000000 0.031676 0.000000 0.000000
# 5 0.000000 0.000000 0.000000 0.000000 0.068482 0.000000
# 6 0.000000 0.000000 0.000000 0.000000 0.000000 0.037769
#
#
# Mechanical properties :
#
#
# Convention : Reuss Voigt Hill
#
# Bulk Modulus (GPa) = 21.35731 23.61679 22.48705
# Shear Modulus (GPa) = 23.81547 26.24621 25.03084
#
# Velocity S-wave (km/s) = 3.20532 3.36492 3.28609
# Velocity P-wave (km/s) = 4.78668 5.02844 4.90905
#
# Compressibility (1/GPa) = 0.04682238
#
# Stress axis : x y z
#
# Youngs Moduli (GPa) = 45.28488 58.93073 79.57890
#
# Poissons Ratio (x) = -0.05436 0.07694
# Poissons Ratio (y) = -0.04178 0.18727
# Poissons Ratio (z) = 0.04378 0.13868
#
# Static dielectric constant tensor:
#      x y z
#    x 1.907850 0.000000 0.000000 
#    y 0.000000 1.988270 0.000000 
#    z 0.000000 0.000000 1.993330 
# 
# From -- ./inp_files/17122.got.cif
#   From: 2010.05.17/outbox.cif.g08.bks.cpg/sg56_9_cif.got.tgz:17122.got - 2010.06.03 13:42:01.
