data_PCOD9431890
_publ_section_title
;
Structure prediction by ZEFSAII (Michael W. Deem and Ramdas Pophale) SiO2 
 PCOD9431890
Probable space group: P C C N
;
_chemical_formula_sum "Si O2"
_cell_formula_units_Z 60
_cell_length_a 8.488096
_cell_length_b 17.077041
_cell_length_c 17.202991
_cell_angle_alpha 90.000000
_cell_angle_beta 90.000000
_cell_angle_gamma 90.000000
_cell_volume 2493.600441
_symmetry_space_group_name_H-M "P C C N"
_symmetry_group_IT_number 56
_symmetry_cell_setting 'orthorhombic'
loop_
_space_group_symop_operation_xyz
x,y,z
1/2-x,1/2-y,z
1/2+x,-y,1/2-z
-x,1/2+y,1/2-z
-x,-y,-z
1/2+x,1/2+y,-z
1/2-x,y,1/2+z
x,1/2-y,1/2+z
loop_
_atom_site_type_symbol
_atom_site_label
_atom_site_fract_x
_atom_site_fract_y
_atom_site_fract_z
Si Si1 0.394850 0.406883 0.300927
Si Si2 0.653696 0.169148 0.228834
Si Si3 0.934133 0.153183 0.455204
Si Si4 0.370521 0.529723 0.823659
Si Si5 0.250000 0.250000 0.786452
Si Si6 0.594481 0.120718 0.534525
Si Si7 0.930548 0.774910 0.399045
Si Si8 0.018729 0.677993 0.613860
O O1 0.489110 0.393381 0.382476
O O2 0.500191 0.458841 0.242860
O O3 0.233168 0.452948 0.315094
O O4 0.359300 0.323141 0.258081
O O5 0.750000 0.250000 0.230936
O O6 0.749920 0.102312 0.186905
O O7 0.495729 0.185391 0.179465
O O8 0.626517 0.144637 0.317837
O O9 0.770688 0.125292 0.495976
O O10 0.914277 0.240414 0.419871
O O11 0.051317 0.166230 0.528091
O O12 0.434708 0.548912 0.908858
O O13 0.363316 0.296640 0.843593
O O14 0.543414 0.200692 0.580230
O O15 0.488107 0.122941 0.458122
O O16 0.750000 0.750000 0.390994
#
# Coordination Sequence:
#
# PCOD9431890 Si02
#       8
#     8   8   8   8   4   8   8   8
#     4  11  28  50  79 107 155 201 257 321 388 463
#     4  12  21  42  70 105 146 201 248 303 381 460
#     4  10  21  45  69 103 151 204 252 304 379 454
#     4  12  27  50  71 113 153 193 253 327 385 455
#     4  10  24  48  76 106 140 210 258 300 376 464
#     4  11  22  43  69 105 153 195 254 316 371 454
#     4  11  23  37  69 118 154 193 260 322 363 450
#     4  10  22  35  73 107 139 194 255 303 361 454
#
# _framework density 24.061593999999999
#
# number of rings (size 3 to 8) (size 9 to 14) (size 15 to 20)
#    0.000    1.067    2.667    4.800   11.200    0.533 
#    0.000    0.667    0.000    0.000    0.000    0.000 
#    0.000    0.000    0.000    0.000    0.000    0.000 
#
# Total GULP energy -335485.131807 kJ/mol
# GULP energy per Si atom -5591.418863 kJ/mol
# Density = 2.400683 g / cm^3
# Si number density = 24.061594 Si / 1000 Ang^3
#
#
#
# Elastic Constant Matrix: (Units=GPa)
#
#
# Indices 1 2 3 4 5 6 
#
# 1 64.3293 8.9903 18.8936 0.0000 0.0000 0.0000
# 2 8.9903 102.7504 33.3326 0.0000 0.0000 0.0000
# 3 18.8936 33.3326 161.3078 0.0000 0.0000 0.0000
# 4 0.0000 0.0000 0.0000 3.4554 0.0000 0.0000
# 5 0.0000 0.0000 0.0000 0.0000 -8.4084 0.0000
# 6 0.0000 0.0000 0.0000 0.0000 0.0000 36.5222
#
#
#
# Elastic Compliance Matrix: (Units=1/GPa)
#
#
# Indices 1 2 3 4 5 6 
#
# 1 0.016169 -0.000858 -0.001717 0.000000 0.000000 0.000000
# 2 -0.000858 0.010477 -0.002065 0.000000 0.000000 0.000000
# 3 -0.001717 -0.002065 0.006827 0.000000 0.000000 0.000000
# 4 0.000000 0.000000 0.000000 0.289398 0.000000 0.000000
# 5 0.000000 0.000000 0.000000 0.000000 -0.118928 0.000000
# 6 0.000000 0.000000 0.000000 0.000000 0.000000 0.027381
#
#
# Mechanical properties :
#
#
# Convention : Reuss Voigt Hill
#
# Bulk Modulus (GPa) = 41.33041 50.09118 45.71079
# Shear Modulus (GPa) = 20.10724 24.12523 22.11624
#
# Velocity S-wave (km/s) = 2.89391 3.16989 3.03504
# Velocity P-wave (km/s) = 5.32733 5.85327 5.59648
#
# Compressibility (1/GPa) = 0.02419526
#
# Stress axis : x y z
#
# Youngs Moduli (GPa) = 61.84647 95.44606 146.47727
#
# Poissons Ratio (x) = 0.08188 0.25144
# Poissons Ratio (y) = 0.05306 0.30240
# Poissons Ratio (z) = 0.10616 0.19705
#
# Static dielectric constant tensor:
#      x y z
#    x 2.198130 0.000000 0.000000 
#    y 0.000000 1.883340 0.000000 
#    z 0.000000 0.000000 1.962210 
# 
# From -- ./inp_files/15092.got.cif
#   From: 2010.05.17/outbox.cif.g08.bks.cpg/sg56_8_cif.got.tgz:15092.got - 2010.06.03 13:42:01.
