data_PCOD9431492
_publ_section_title
;
Structure prediction by ZEFSAII (Michael W. Deem and Ramdas Pophale) SiO2 
 PCOD9431492
Probable space group: P C C N
;
_chemical_formula_sum "Si O2"
_cell_formula_units_Z 60
_cell_length_a 30.798436
_cell_length_b 7.295483
_cell_length_c 10.539823
_cell_angle_alpha 90.000000
_cell_angle_beta 90.000000
_cell_angle_gamma 90.000000
_cell_volume 2368.187204
_symmetry_space_group_name_H-M "P C C N"
_symmetry_group_IT_number 56
_symmetry_cell_setting 'orthorhombic'
loop_
_space_group_symop_operation_xyz
x,y,z
1/2-x,1/2-y,z
1/2+x,-y,1/2-z
-x,1/2+y,1/2-z
-x,-y,-z
1/2+x,1/2+y,-z
1/2-x,y,1/2+z
x,1/2-y,1/2+z
loop_
_atom_site_type_symbol
_atom_site_label
_atom_site_fract_x
_atom_site_fract_y
_atom_site_fract_z
Si Si1 0.670753 0.553680 0.033048
Si Si2 0.580293 0.516628 0.981680
Si Si3 0.452766 0.992886 0.260066
Si Si4 0.376235 0.883930 0.952411
Si Si5 0.952317 0.061425 0.711350
Si Si6 0.250000 0.250000 0.866849
Si Si7 0.686207 0.515536 0.766937
Si Si8 0.643553 0.917721 0.800474
O O1 0.622988 0.637862 0.006257
O O2 0.709514 0.696488 0.047116
O O3 0.663931 0.481368 0.176418
O O4 0.684372 0.436314 0.909700
O O5 0.544912 0.545831 0.090807
O O6 0.603323 0.314704 0.005751
O O7 0.561313 0.534050 0.842574
O O8 0.445740 0.775615 0.258140
O O9 0.496912 0.034461 0.187963
O O10 0.408486 0.082622 0.214804
O O11 0.420052 0.985697 0.902417
O O12 0.343626 0.907634 0.832729
O O13 0.351301 0.972965 0.070019
O O14 0.233346 0.424478 0.785011
O O15 0.664036 0.716900 0.786323
#
# Coordination Sequence:
#
# PCOD9431492 Si02
#       8
#     8   8   8   8   8   4   8   8
#     4  10  21  39  68  92 129 174 208 271 335 400
#     4  10  21  43  63  90 132 181 226 274 338 398
#     4  10  23  37  61  89 133 178 228 284 328 389
#     4  11  23  40  66  95 131 179 228 272 333 409
#     4  11  22  41  59  94 132 181 231 283 335 396
#     4  10  22  40  66 104 134 158 218 282 334 392
#     4  11  22  40  67  97 130 172 219 271 336 413
#     4  10  21  39  59  93 130 172 219 273 335 390
#
# _framework density 25.335834999999999
#
# number of rings (size 3 to 8) (size 9 to 14) (size 15 to 20)
#    0.000    1.600    2.667    2.400    1.867    1.600 
#    0.000    0.667    0.000    1.600    0.000    0.000 
#    0.000    0.000    0.000    0.000    0.000    0.000 
#
# Total GULP energy -335105.387638 kJ/mol
# GULP energy per Si atom -5585.089794 kJ/mol
# Density = 2.527817 g / cm^3
# Si number density = 25.335835 Si / 1000 Ang^3
#
#
#
# Elastic Constant Matrix: (Units=GPa)
#
#
# Indices 1 2 3 4 5 6 
#
# 1 131.3001 9.7405 21.2800 0.0000 0.0000 0.0000
# 2 9.7405 86.1077 6.2124 0.0000 0.0000 0.0000
# 3 21.2800 6.2124 142.7886 0.0000 0.0000 0.0000
# 4 0.0000 0.0000 0.0000 15.1695 0.0000 0.0000
# 5 0.0000 0.0000 0.0000 0.0000 36.0919 0.0000
# 6 0.0000 0.0000 0.0000 0.0000 0.0000 24.5179
#
#
#
# Elastic Compliance Matrix: (Units=1/GPa)
#
#
# Indices 1 2 3 4 5 6 
#
# 1 0.007860 -0.000807 -0.001136 0.000000 0.000000 0.000000
# 2 -0.000807 0.011733 -0.000390 0.000000 0.000000 0.000000
# 3 -0.001136 -0.000390 0.007190 0.000000 0.000000 0.000000
# 4 0.000000 0.000000 0.000000 0.065922 0.000000 0.000000
# 5 0.000000 0.000000 0.000000 0.000000 0.027707 0.000000
# 6 0.000000 0.000000 0.000000 0.000000 0.000000 0.040786
#
#
# Mechanical properties :
#
#
# Convention : Reuss Voigt Hill
#
# Bulk Modulus (GPa) = 45.21736 48.29581 46.75658
# Shear Modulus (GPa) = 28.86222 36.68678 32.77450
#
# Velocity S-wave (km/s) = 3.37884 3.80941 3.60057
# Velocity P-wave (km/s) = 5.75396 6.20101 5.98166
#
# Compressibility (1/GPa) = 0.02211540
#
# Stress axis : x y z
#
# Youngs Moduli (GPa) = 127.22356 85.23105 139.08827
#
# Poissons Ratio (x) = 0.06880 0.15805
# Poissons Ratio (y) = 0.10269 0.05427
# Poissons Ratio (z) = 0.14456 0.03326
#
# Static dielectric constant tensor:
#      x y z
#    x 1.998280 0.000000 0.000000 
#    y 0.000000 2.131890 0.000000 
#    z 0.000000 0.000000 2.126180 
# 
# From -- ./inp_files/9078.got.cif
#   From: 2010.05.17/outbox.cif.g08.bks.cpg/sg56_5_cif.got.tgz:9078.got - 2010.06.03 13:42:01.
