data_PCOD9431489
_publ_section_title
;
Structure prediction by ZEFSAII (Michael W. Deem and Ramdas Pophale) SiO2 
 PCOD9431489
Probable space group: P C C N
;
_chemical_formula_sum "Si O2"
_cell_formula_units_Z 52
_cell_length_a 14.697377
_cell_length_b 17.624116
_cell_length_c 7.833016
_cell_angle_alpha 90.000000
_cell_angle_beta 90.000000
_cell_angle_gamma 90.000000
_cell_volume 2028.972639
_symmetry_space_group_name_H-M "P C C N"
_symmetry_group_IT_number 56
_symmetry_cell_setting 'orthorhombic'
loop_
_space_group_symop_operation_xyz
x,y,z
1/2-x,1/2-y,z
1/2+x,-y,1/2-z
-x,1/2+y,1/2-z
-x,-y,-z
1/2+x,1/2+y,-z
1/2-x,y,1/2+z
x,1/2-y,1/2+z
loop_
_atom_site_type_symbol
_atom_site_label
_atom_site_fract_x
_atom_site_fract_y
_atom_site_fract_z
Si Si1 0.750000 0.750000 0.399263
Si Si2 0.441794 0.017597 0.675223
Si Si3 0.872036 0.668552 0.138277
Si Si4 0.608140 0.475640 0.366615
Si Si5 0.828522 0.192798 0.873396
Si Si6 0.560356 0.178621 0.039225
Si Si7 0.221707 0.961375 0.974539
O O1 0.834877 0.726556 0.281219
O O2 0.716897 0.677295 0.512364
O O3 0.415061 0.101042 0.745162
O O4 0.511927 0.986248 0.820611
O O5 0.500000 0.000000 0.500000
O O6 0.344812 0.986309 0.624939
O O7 0.954383 0.686049 0.007189
O O8 0.590622 0.388570 0.412726
O O9 0.679929 0.500843 0.509416
O O10 0.669791 0.478317 0.198360
O O11 0.750000 0.250000 0.807487
O O12 0.894133 0.241904 0.991574
O O13 0.895705 0.161984 0.724882
O O14 0.779233 0.128759 0.987566
#
# Coordination Sequence:
#
# PCOD9431489 Si02
#       7
#     4   8   8   8   8   8   8
#     4  10  22  42  70  98 128 168 230 294 338 394
#     4   9  22  42  64  92 131 174 217 268 333 409
#     4  10  22  42  66  97 130 170 226 284 346 394
#     4  10  21  39  59  86 122 162 218 263 324 392
#     4  12  23  35  59  92 127 171 218 269 334 397
#     4  11  22  38  58  89 127 165 212 278 332 397
#     4  11  22  39  61  89 126 174 212 270 332 391
#
# _framework density 25.628734999999999
#
# number of rings (size 3 to 8) (size 9 to 14) (size 15 to 20)
#    0.000    1.538    1.538    3.231    0.000    4.923 
#    0.000   10.000    0.000    0.000    0.000    0.000 
#    0.000    0.000    0.000    0.000    0.000    0.000 
#
# Total GULP energy -289879.265539 kJ/mol
# GULP energy per Si atom -5574.601260 kJ/mol
# Density = 2.557040 g / cm^3
# Si number density = 25.628735 Si / 1000 Ang^3
#
#
#
# Elastic Constant Matrix: (Units=GPa)
#
#
# Indices 1 2 3 4 5 6 
#
# 1 129.2413 13.4034 0.5078 0.0000 0.0000 0.0000
# 2 13.4034 45.7367 1.4152 0.0000 0.0000 0.0000
# 3 0.5078 1.4152 101.1715 0.0000 0.0000 0.0000
# 4 0.0000 0.0000 0.0000 23.7712 0.0000 0.0000
# 5 0.0000 0.0000 0.0000 0.0000 43.2517 0.0000
# 6 0.0000 0.0000 0.0000 0.0000 0.0000 28.6392
#
#
#
# Elastic Compliance Matrix: (Units=1/GPa)
#
#
# Indices 1 2 3 4 5 6 
#
# 1 0.007980 -0.002338 -0.000007 0.000000 0.000000 0.000000
# 2 -0.002338 0.022559 -0.000304 0.000000 0.000000 0.000000
# 3 -0.000007 -0.000304 0.009888 0.000000 0.000000 0.000000
# 4 0.000000 0.000000 0.000000 0.042068 0.000000 0.000000
# 5 0.000000 0.000000 0.000000 0.000000 0.023120 0.000000
# 6 0.000000 0.000000 0.000000 0.000000 0.000000 0.034917
#
#
# Mechanical properties :
#
#
# Convention : Reuss Voigt Hill
#
# Bulk Modulus (GPa) = 28.46699 34.08913 31.27806
# Shear Modulus (GPa) = 31.73768 36.52060 34.12914
#
# Velocity S-wave (km/s) = 3.52286 3.77899 3.65317
# Velocity P-wave (km/s) = 5.26108 5.68956 5.47951
#
# Compressibility (1/GPa) = 0.03512840
#
# Stress axis : x y z
#
# Youngs Moduli (GPa) = 125.31330 44.32832 101.12760
#
# Poissons Ratio (x) = 0.10366 0.00074
# Poissons Ratio (y) = 0.29303 0.03072
# Poissons Ratio (z) = 0.00092 0.01347
#
# Static dielectric constant tensor:
#      x y z
#    x 2.030620 0.000000 0.000000 
#    y 0.000000 2.397860 0.000000 
#    z 0.000000 0.000000 2.060140 
# 
# From -- ./inp_files/3523.got.cif
#   From: 2010.05.17/outbox.cif.g08.bks.cpg/sg56_2_cif.got.tgz:3523.got - 2010.06.03 13:42:01.
