data_PCOD9431657
_publ_section_title
;
Structure prediction by ZEFSAII (Michael W. Deem and Ramdas Pophale) SiO2 
 PCOD9431657
Probable space group: P C C N
;
_chemical_formula_sum "Si O2"
_cell_formula_units_Z 60
_cell_length_a 9.540034
_cell_length_b 27.681971
_cell_length_c 11.365297
_cell_angle_alpha 90.000000
_cell_angle_beta 90.000000
_cell_angle_gamma 90.000000
_cell_volume 3001.426558
_symmetry_space_group_name_H-M "P C C N"
_symmetry_group_IT_number 56
_symmetry_cell_setting 'orthorhombic'
loop_
_space_group_symop_operation_xyz
x,y,z
1/2-x,1/2-y,z
1/2+x,-y,1/2-z
-x,1/2+y,1/2-z
-x,-y,-z
1/2+x,1/2+y,-z
1/2-x,y,1/2+z
x,1/2-y,1/2+z
loop_
_atom_site_type_symbol
_atom_site_label
_atom_site_fract_x
_atom_site_fract_y
_atom_site_fract_z
Si Si1 0.750000 0.250000 0.550917
Si Si2 0.180185 0.423804 0.398361
Si Si3 0.683221 0.014735 0.023840
Si Si4 0.463459 0.935558 0.388011
Si Si5 0.452538 0.486980 0.700434
Si Si6 0.685498 0.684279 0.043227
Si Si7 0.471544 0.274124 0.406356
Si Si8 0.540416 0.174560 0.665103
O O1 0.619381 0.269452 0.473149
O O2 0.674456 0.206766 0.623796
O O3 0.306182 0.458323 0.438515
O O4 0.121067 0.446228 0.278291
O O5 0.205091 0.367177 0.394712
O O6 0.069854 0.430801 0.504449
O O7 0.824585 0.040789 0.058548
O O8 0.563196 0.034737 0.108999
O O9 0.652492 0.015714 0.886006
O O10 0.432491 0.882820 0.335450
O O11 0.515328 0.973916 0.291129
O O12 0.842098 0.703623 0.019272
O O13 0.594582 0.721398 0.122639
O O14 0.588036 0.680933 0.927482
O O15 0.494039 0.305369 0.290495
#
# Coordination Sequence:
#
# PCOD9431657 Si02
#       8
#     4   8   8   8   8   8   8   8
#     4  10  22  42  60  94 128 158 208 252 310 394
#     4  10  22  38  63  87 121 163 200 260 309 369
#     4  10  22  38  58  87 119 159 203 253 303 367
#     4  10  23  38  62  84 123 164 199 252 316 366
#     4  10  22  38  59  87 121 158 205 253 306 372
#     4   9  22  41  63  94 120 159 218 253 309 377
#     4  10  21  40  67  89 124 168 198 265 311 367
#     4  10  22  42  62  91 125 166 206 257 318 371
#
# _framework density 19.990493000000001
#
# number of rings (size 3 to 8) (size 9 to 14) (size 15 to 20)
#    0.000    2.133    0.000    2.000    9.333    6.400 
#    9.600    0.000    0.000    0.000    0.000    0.000 
#    0.000    0.000    0.000    0.000    0.000    0.000 
#
# Total GULP energy -334671.080529 kJ/mol
# GULP energy per Si atom -5577.851342 kJ/mol
# Density = 1.994499 g / cm^3
# Si number density = 19.990493 Si / 1000 Ang^3
#
#
#
# Elastic Constant Matrix: (Units=GPa)
#
#
# Indices 1 2 3 4 5 6 
#
# 1 101.5298 17.4177 21.4412 0.0000 0.0000 0.0000
# 2 17.4177 70.5736 6.0337 0.0000 0.0000 0.0000
# 3 21.4412 6.0337 48.9179 0.0000 0.0000 0.0000
# 4 0.0000 0.0000 0.0000 15.6817 0.0000 0.0000
# 5 0.0000 0.0000 0.0000 0.0000 15.0070 0.0000
# 6 0.0000 0.0000 0.0000 0.0000 0.0000 15.1364
#
#
#
# Elastic Compliance Matrix: (Units=1/GPa)
#
#
# Indices 1 2 3 4 5 6 
#
# 1 0.011235 -0.002377 -0.004631 0.000000 0.000000 0.000000
# 2 -0.002377 0.014823 -0.000787 0.000000 0.000000 0.000000
# 3 -0.004631 -0.000787 0.022569 0.000000 0.000000 0.000000
# 4 0.000000 0.000000 0.000000 0.063768 0.000000 0.000000
# 5 0.000000 0.000000 0.000000 0.000000 0.066636 0.000000
# 6 0.000000 0.000000 0.000000 0.000000 0.000000 0.066066
#
#
# Mechanical properties :
#
#
# Convention : Reuss Voigt Hill
#
# Bulk Modulus (GPa) = 30.26771 34.53404 32.40087
# Shear Modulus (GPa) = 18.40264 20.90694 19.65479
#
# Velocity S-wave (km/s) = 3.03738 3.23746 3.13901
# Velocity P-wave (km/s) = 5.24164 5.59353 5.42044
#
# Compressibility (1/GPa) = 0.03303851
#
# Stress axis : x y z
#
# Youngs Moduli (GPa) = 89.00650 67.46054 44.30780
#
# Poissons Ratio (x) = 0.16035 0.20520
# Poissons Ratio (y) = 0.21156 0.03485
# Poissons Ratio (z) = 0.41222 0.05306
#
# Static dielectric constant tensor:
#      x y z
#    x 1.729780 0.000000 0.000000 
#    y 0.000000 1.738120 0.000000 
#    z 0.000000 0.000000 1.703870 
# 
# From -- ./inp_files/6536.got.cif
#   From: 2010.05.17/outbox.cif.g08.bks.cpg/sg56_4_cif.got.tgz:6536.got - 2010.06.03 13:42:01.
