data_PCOD9431055
_publ_section_title
;
Structure prediction by ZEFSAII (Michael W. Deem and Ramdas Pophale) SiO2 
 PCOD9431055
Probable space group: P C C N
;
_chemical_formula_sum "Si O2"
_cell_formula_units_Z 64
_cell_length_a 9.406176
_cell_length_b 16.814181
_cell_length_c 21.065576
_cell_angle_alpha 90.000000
_cell_angle_beta 90.000000
_cell_angle_gamma 90.000000
_cell_volume 3331.671374
_symmetry_space_group_name_H-M "P C C N"
_symmetry_group_IT_number 56
_symmetry_cell_setting 'orthorhombic'
loop_
_space_group_symop_operation_xyz
x,y,z
1/2-x,1/2-y,z
1/2+x,-y,1/2-z
-x,1/2+y,1/2-z
-x,-y,-z
1/2+x,1/2+y,-z
1/2-x,y,1/2+z
x,1/2-y,1/2+z
loop_
_atom_site_type_symbol
_atom_site_label
_atom_site_fract_x
_atom_site_fract_y
_atom_site_fract_z
Si Si1 0.293079 0.962517 0.595667
Si Si2 0.778775 0.054913 0.610990
Si Si3 0.835998 0.172908 0.006028
Si Si4 0.509193 0.557402 0.817479
Si Si5 0.636844 0.943810 0.007935
Si Si6 0.230371 0.333293 0.178482
Si Si7 0.900537 0.778863 0.457033
Si Si8 0.054929 0.484775 0.185816
O O1 0.338430 0.889010 0.552068
O O2 0.421221 0.988282 0.640209
O O3 0.247302 0.034247 0.548119
O O4 0.154641 0.959445 0.641522
O O5 0.749591 0.125186 0.560677
O O6 0.652295 0.064296 0.660572
O O7 0.929216 0.054332 0.645318
O O8 0.783647 0.972009 0.571497
O O9 0.750000 0.250000 0.985345
O O10 0.517539 0.289902 0.033942
O O11 0.610802 0.632370 0.832524
O O12 0.508778 0.533353 0.744081
O O13 0.572259 0.857128 0.998717
O O14 0.500000 0.000000 0.000000
O O15 0.250000 0.250000 0.214760
O O16 0.140240 0.308085 0.114923
O O17 0.150967 0.409593 0.207807
O O18 0.750000 0.750000 0.482779
#
# Coordination Sequence:
#
# PCOD9431055 Si02
#       8
#     8   8   8   8   8   8   8   8
#     4  10  22  40  61  85 128 160 207 267 315 383
#     4  11  22  34  64  90 121 159 214 258 310 391
#     4  11  24  36  60  94 129 161 204 257 333 386
#     4  11  23  39  63  96 116 168 221 266 302 372
#     4  11  19  36  62  85 120 165 198 245 330 385
#     4  10  20  40  64  87 125 159 207 269 322 365
#     4  11  21  35  59  93 125 159 195 261 330 378
#     4  11  21  41  65  86 123 172 220 256 313 385
#
# _framework density 19.209578
#
# number of rings (size 3 to 8) (size 9 to 14) (size 15 to 20)
#    0.000    1.250    3.750    5.250    1.750    1.000 
#    0.000    1.250    2.750    1.500    0.000    0.000 
#    0.000    0.000    0.000    0.000    0.000    0.000 
#
# Total GULP energy -356648.469832 kJ/mol
# GULP energy per Si atom -5572.632341 kJ/mol
# Density = 1.916586 g / cm^3
# Si number density = 19.209578 Si / 1000 Ang^3
#
#
#
# Elastic Constant Matrix: (Units=GPa)
#
#
# Indices 1 2 3 4 5 6 
#
# 1 83.5737 30.5065 4.7737 0.0000 0.0000 0.0000
# 2 30.5065 102.0919 33.3445 0.0000 0.0000 0.0000
# 3 4.7737 33.3445 47.6508 0.0000 0.0000 0.0000
# 4 0.0000 0.0000 0.0000 18.1721 0.0000 0.0000
# 5 0.0000 0.0000 0.0000 0.0000 29.1800 0.0000
# 6 0.0000 0.0000 0.0000 0.0000 0.0000 34.8689
#
#
#
# Elastic Compliance Matrix: (Units=1/GPa)
#
#
# Indices 1 2 3 4 5 6 
#
# 1 0.013564 -0.004679 0.001915 0.000000 0.000000 0.000000
# 2 -0.004679 0.014311 -0.009546 0.000000 0.000000 0.000000
# 3 0.001915 -0.009546 0.027474 0.000000 0.000000 0.000000
# 4 0.000000 0.000000 0.000000 0.055029 0.000000 0.000000
# 5 0.000000 0.000000 0.000000 0.000000 0.034270 0.000000
# 6 0.000000 0.000000 0.000000 0.000000 0.000000 0.028679
#
#
# Mechanical properties :
#
#
# Convention : Reuss Voigt Hill
#
# Bulk Modulus (GPa) = 32.54103 41.17399 36.85751
# Shear Modulus (GPa) = 24.01669 27.42363 25.72016
#
# Velocity S-wave (km/s) = 3.53972 3.78246 3.66310
# Velocity P-wave (km/s) = 5.80370 6.36841 6.09260
#
# Compressibility (1/GPa) = 0.03073044
#
# Stress axis : x y z
#
# Youngs Moduli (GPa) = 73.72514 69.87717 36.39827
#
# Poissons Ratio (x) = 0.32693 -0.06971
# Poissons Ratio (y) = 0.34493 0.34744
# Poissons Ratio (z) = -0.14119 0.66702
#
# Static dielectric constant tensor:
#      x y z
#    x 1.716560 0.000000 0.000000 
#    y 0.000000 1.728450 0.000000 
#    z 0.000000 0.000000 1.690010 
# 
# From -- ./inp_files/18366.got.cif
#   From: 2010.05.17/outbox.cif.g08.bks.cpg/sg56_10_cif.got.tgz:18366.got - 2010.06.03 13:42:01.
