data_PCOD9431463
_publ_section_title
;
Structure prediction by ZEFSAII (Michael W. Deem and Ramdas Pophale) SiO2 
 PCOD9431463
Probable space group: P C C N
;
_chemical_formula_sum "Si O2"
_cell_formula_units_Z 32
_cell_length_a 5.007698
_cell_length_b 17.274852
_cell_length_c 17.677049
_cell_angle_alpha 90.000000
_cell_angle_beta 90.000000
_cell_angle_gamma 90.000000
_cell_volume 1529.192752
_symmetry_space_group_name_H-M "P C C N"
_symmetry_group_IT_number 56
_symmetry_cell_setting 'orthorhombic'
loop_
_space_group_symop_operation_xyz
x,y,z
1/2-x,1/2-y,z
1/2+x,-y,1/2-z
-x,1/2+y,1/2-z
-x,-y,-z
1/2+x,1/2+y,-z
1/2-x,y,1/2+z
x,1/2-y,1/2+z
loop_
_atom_site_type_symbol
_atom_site_label
_atom_site_fract_x
_atom_site_fract_y
_atom_site_fract_z
Si Si1 0.011823 0.196279 0.234648
Si Si2 0.503007 0.696863 0.590948
Si Si3 0.093198 0.025319 0.204336
Si Si4 0.756207 0.462244 0.957743
O O1 0.750000 0.250000 0.230452
O O2 0.077434 0.174221 0.322563
O O3 0.250000 0.250000 0.205715
O O4 0.001523 0.114108 0.192797
O O5 0.250000 0.750000 0.601675
O O6 0.369095 0.626018 0.545570
O O7 0.750000 0.750000 0.560697
O O8 0.339024 0.020159 0.262908
O O9 0.202971 0.986336 0.128628
O O10 0.500000 0.500000 0.000000
O O11 0.000000 0.500000 0.000000
#
# Coordination Sequence:
#
# PCOD9431463 Si02
#       4
#     8   8   8   8
#     4  10  21  38  64  98 131 165 226 290 335 391
#     4  10  21  40  66  94 130 175 230 277 332 414
#     4  12  24  42  70  98 133 176 232 281 342 403
#     4  12  26  44  66 103 142 180 226 283 349 416
#
# _framework density 20.926074
#
# number of rings (size 3 to 8) (size 9 to 14) (size 15 to 20)
#    0.000    1.000    2.500    4.500    7.000    0.000 
#    0.000    7.500    0.000    0.000    0.000    0.000 
#    0.000    0.000    0.000    0.000    0.000    0.000 
#
# Total GULP energy -178294.367965 kJ/mol
# GULP energy per Si atom -5571.698999 kJ/mol
# Density = 2.087845 g / cm^3
# Si number density = 20.926074 Si / 1000 Ang^3
#
#
#
# Elastic Constant Matrix: (Units=GPa)
#
#
# Indices 1 2 3 4 5 6 
#
# 1 180.3336 60.1546 31.2962 0.0000 0.0000 0.0000
# 2 60.1546 113.3112 37.3189 0.0000 0.0000 0.0000
# 3 31.2962 37.3189 29.2818 0.0000 0.0000 0.0000
# 4 0.0000 0.0000 0.0000 314.9104 0.0000 0.0000
# 5 0.0000 0.0000 0.0000 0.0000 37.3369 0.0000
# 6 0.0000 0.0000 0.0000 0.0000 0.0000 45.2460
#
#
#
# Elastic Compliance Matrix: (Units=1/GPa)
#
#
# Indices 1 2 3 4 5 6 
#
# 1 0.007111 -0.002192 -0.004806 0.000000 0.000000 0.000000
# 2 -0.002192 0.015885 -0.017902 0.000000 0.000000 0.000000
# 3 -0.004806 -0.017902 0.062104 0.000000 0.000000 0.000000
# 4 0.000000 0.000000 0.000000 0.003176 0.000000 0.000000
# 5 0.000000 0.000000 0.000000 0.000000 0.026783 0.000000
# 6 0.000000 0.000000 0.000000 0.000000 0.000000 0.022101
#
#
# Mechanical properties :
#
#
# Convention : Reuss Voigt Hill
#
# Bulk Modulus (GPa) = 28.32985 64.49623 46.41304
# Shear Modulus (GPa) = 25.16028 92.44246 58.80137
#
# Velocity S-wave (km/s) = 3.47124 6.65369 5.30665
# Velocity P-wave (km/s) = 5.44366 9.48244 7.73144
#
# Compressibility (1/GPa) = 0.03529846
#
# Stress axis : x y z
#
# Youngs Moduli (GPa) = 140.63631 62.95250 16.10214
#
# Poissons Ratio (x) = 0.13799 0.07739
# Poissons Ratio (y) = 0.30827 0.28826
# Poissons Ratio (z) = 0.67591 1.12699
#
# Static dielectric constant tensor:
#      x y z
#    x 1.709680 0.000000 0.000000 
#    y 0.000000 1.712570 0.000000 
#    z 0.000000 0.000000 1.830790 
# 
# From -- ./inp_files/13752.got.cif
#   From: 2010.05.17/outbox.cif.g08.bks.cpg/sg56_7_cif.got.tgz:13752.got - 2010.06.03 13:42:01.
