data_PCOD9431182
_publ_section_title
;
Structure prediction by ZEFSAII (Michael W. Deem and Ramdas Pophale) SiO2 
 PCOD9431182
Probable space group: P C C N
;
_chemical_formula_sum "Si O2"
_cell_formula_units_Z 40
_cell_length_a 5.491021
_cell_length_b 24.490793
_cell_length_c 12.303859
_cell_angle_alpha 90.000000
_cell_angle_beta 90.000000
_cell_angle_gamma 90.000000
_cell_volume 1654.616298
_symmetry_space_group_name_H-M "P C C N"
_symmetry_group_IT_number 56
_symmetry_cell_setting 'orthorhombic'
loop_
_space_group_symop_operation_xyz
x,y,z
1/2-x,1/2-y,z
1/2+x,-y,1/2-z
-x,1/2+y,1/2-z
-x,-y,-z
1/2+x,1/2+y,-z
1/2-x,y,1/2+z
x,1/2-y,1/2+z
loop_
_atom_site_type_symbol
_atom_site_label
_atom_site_fract_x
_atom_site_fract_y
_atom_site_fract_z
Si Si1 0.516202 0.110516 0.122555
Si Si2 0.332120 0.002736 0.821115
Si Si3 0.754216 0.620242 0.158078
Si Si4 0.110488 0.694831 0.276535
Si Si5 0.678082 0.808382 0.497966
O O1 0.319948 0.104611 0.218834
O O2 0.715431 0.147991 0.179173
O O3 0.392111 0.148594 0.032746
O O4 0.623880 0.050595 0.104158
O O5 0.314020 0.059992 0.885052
O O6 0.074846 0.993239 0.756400
O O7 0.952414 0.666946 0.183173
O O8 0.550179 0.652919 0.088008
O O9 0.250000 0.750000 0.245023
O O10 0.952975 0.706753 0.385441
O O11 0.750000 0.750000 0.544381
#
# Coordination Sequence:
#
# PCOD9431182 Si02
#       5
#     8   8   8   8   8
#     4  10  22  42  65  88 130 171 209 269 333 385
#     4  10  20  42  68  96 130 175 226 272 327 400
#     4  10  24  40  66  94 126 169 217 268 327 390
#     4  11  22  42  64  88 128 174 208 266 333 390
#     4  11  24  40  59  96 132 161 217 270 324 397
#
# _framework density 24.174787999999999
#
# number of rings (size 3 to 8) (size 9 to 14) (size 15 to 20)
#    0.000    1.600    4.000    0.000    2.800    2.400 
#    0.000    1.000    0.000    0.000    0.000    0.000 
#    0.000    0.000    0.000    0.000    0.000    0.000 
#
# Total GULP energy -222974.373443 kJ/mol
# GULP energy per Si atom -5574.359336 kJ/mol
# Density = 2.411977 g / cm^3
# Si number density = 24.174788 Si / 1000 Ang^3
#
#
#
# Elastic Constant Matrix: (Units=GPa)
#
#
# Indices 1 2 3 4 5 6 
#
# 1 68.2977 28.0276 -6.5424 0.0000 0.0000 0.0000
# 2 28.0276 242.9567 18.4141 0.0000 0.0000 0.0000
# 3 -6.5424 18.4141 34.7845 0.0000 0.0000 0.0000
# 4 0.0000 0.0000 0.0000 25.2893 0.0000 0.0000
# 5 0.0000 0.0000 0.0000 0.0000 -10.8534 0.0000
# 6 0.0000 0.0000 0.0000 0.0000 0.0000 39.9149
#
#
#
# Elastic Compliance Matrix: (Units=1/GPa)
#
#
# Indices 1 2 3 4 5 6 
#
# 1 0.015920 -0.002150 0.004132 0.000000 0.000000 0.000000
# 2 -0.002150 0.004578 -0.002828 0.000000 0.000000 0.000000
# 3 0.004132 -0.002828 0.031023 0.000000 0.000000 0.000000
# 4 0.000000 0.000000 0.000000 0.039542 0.000000 0.000000
# 5 0.000000 0.000000 0.000000 0.000000 -0.092137 0.000000
# 6 0.000000 0.000000 0.000000 0.000000 0.000000 0.025053
#
#
# Mechanical properties :
#
#
# Convention : Reuss Voigt Hill
#
# Bulk Modulus (GPa) = 20.06822 47.31527 33.69175
# Shear Modulus (GPa) = 118.25919 31.27947 74.76933
#
# Velocity S-wave (km/s) = 7.00176 3.60097 5.56739
# Velocity P-wave (km/s) = 8.58402 6.07486 7.43604
#
# Compressibility (1/GPa) = 0.04983003
#
# Stress axis : x y z
#
# Youngs Moduli (GPa) = 62.81485 218.42222 32.23442
#
# Poissons Ratio (x) = 0.46954 -0.13320
# Poissons Ratio (y) = 0.13503 0.09116
# Poissons Ratio (z) = -0.25957 0.61769
#
# Static dielectric constant tensor:
#      x y z
#    x 2.153710 0.000000 0.000000 
#    y 0.000000 1.997480 0.000000 
#    z 0.000000 0.000000 2.326090 
# 
# From -- ./inp_files/5604.got.cif
#   From: 2010.05.17/outbox.cif.g08.bks.cpg/sg56_3_cif.got.tgz:5604.got - 2010.06.03 13:42:01.
