data_PCOD9431887
_publ_section_title
;
Structure prediction by ZEFSAII (Michael W. Deem and Ramdas Pophale) SiO2 
 PCOD9431887
Probable space group: P C C N
;
_chemical_formula_sum "Si O2"
_cell_formula_units_Z 48
_cell_length_a 5.847032
_cell_length_b 14.409705
_cell_length_c 26.189881
_cell_angle_alpha 90.000000
_cell_angle_beta 90.000000
_cell_angle_gamma 90.000000
_cell_volume 2206.602397
_symmetry_space_group_name_H-M "P C C N"
_symmetry_group_IT_number 56
_symmetry_cell_setting 'orthorhombic'
loop_
_space_group_symop_operation_xyz
x,y,z
1/2-x,1/2-y,z
1/2+x,-y,1/2-z
-x,1/2+y,1/2-z
-x,-y,-z
1/2+x,1/2+y,-z
1/2-x,y,1/2+z
x,1/2-y,1/2+z
loop_
_atom_site_type_symbol
_atom_site_label
_atom_site_fract_x
_atom_site_fract_y
_atom_site_fract_z
Si Si1 0.382193 0.836251 0.091380
Si Si2 0.945810 0.901382 0.693283
Si Si3 0.750000 0.750000 0.359840
Si Si4 0.250000 0.250000 0.482817
Si Si5 0.250000 0.750000 0.748702
Si Si6 0.894599 0.892895 0.280653
Si Si7 0.250000 0.750000 0.918913
Si Si8 0.411559 0.895984 0.497551
O O1 0.250000 0.750000 0.116811
O O2 0.525350 0.892724 0.132722
O O3 0.557526 0.790884 0.052844
O O4 0.204294 0.885291 0.053508
O O5 0.080030 0.813778 0.716323
O O6 0.706282 0.893978 0.723042
O O7 0.052665 0.000923 0.707031
O O8 0.737051 0.840985 0.322449
O O9 0.499394 0.747102 0.389192
O O10 0.362050 0.165494 0.511474
O O11 0.386449 0.826489 0.780605
O O12 0.247459 0.843488 0.955297
O O13 0.500000 0.000000 0.500000
#
# Coordination Sequence:
#
# PCOD9431887 Si02
#       8
#     8   8   4   4   4   8   4   8
#     4  10  23  42  71 105 138 188 245 310 381 458
#     4  12  25  44  72 106 147 194 247 316 381 457
#     4  12  29  47  78 108 160 210 261 313 390 480
#     4  10  21  45  68 104 146 174 247 307 384 450
#     4  12  23  47  70  98 148 194 247 313 392 426
#     4  12  27  45  73 107 149 201 252 310 381 472
#     4  12  27  51  76 112 158 206 257 327 392 460
#     4  11  25  47  75 106 147 197 251 321 385 459
#
# _framework density 21.7529
#
# number of rings (size 3 to 8) (size 9 to 14) (size 15 to 20)
#    0.000    0.667    6.667    1.000    4.667    2.000 
#    0.000    0.000    0.000    0.000    0.000    0.000 
#    0.000    0.000    0.000    0.000    0.000    0.000 
#
# Total GULP energy -267354.818926 kJ/mol
# GULP energy per Si atom -5569.892061 kJ/mol
# Density = 2.170339 g / cm^3
# Si number density = 21.752900 Si / 1000 Ang^3
#
#
#
# Elastic Constant Matrix: (Units=GPa)
#
#
# Indices 1 2 3 4 5 6 
#
# 1 73.1270 25.6261 25.0102 0.0000 0.0000 0.0000
# 2 25.6261 130.5500 26.9457 0.0000 0.0000 0.0000
# 3 25.0102 26.9457 86.8009 0.0000 0.0000 0.0000
# 4 0.0000 0.0000 0.0000 7.1774 0.0000 0.0000
# 5 0.0000 0.0000 0.0000 0.0000 -0.5445 0.0000
# 6 0.0000 0.0000 0.0000 0.0000 0.0000 35.8734
#
#
#
# Elastic Compliance Matrix: (Units=1/GPa)
#
#
# Indices 1 2 3 4 5 6 
#
# 1 0.015795 -0.002309 -0.003834 0.000000 0.000000 0.000000
# 2 -0.002309 0.008522 -0.001980 0.000000 0.000000 0.000000
# 3 -0.003834 -0.001980 0.013240 0.000000 0.000000 0.000000
# 4 0.000000 0.000000 0.000000 0.139325 0.000000 0.000000
# 5 0.000000 0.000000 0.000000 0.000000 -1.836574 0.000000
# 6 0.000000 0.000000 0.000000 0.000000 0.000000 0.027876
#
#
# Mechanical properties :
#
#
# Convention : Reuss Voigt Hill
#
# Bulk Modulus (GPa) = 46.92585 49.51574 48.22080
# Shear Modulus (GPa) = -3.10855 22.69432 9.79288
#
# Velocity S-wave (km/s) = -1.19672 3.23349 2.12406
# Velocity P-wave (km/s) = 4.43954 6.06241 5.31330
#
# Compressibility (1/GPa) = 0.02131022
#
# Stress axis : x y z
#
# Youngs Moduli (GPa) = 63.30948 117.34517 75.52807
#
# Poissons Ratio (x) = 0.27096 0.28960
# Poissons Ratio (y) = 0.14619 0.14955
# Poissons Ratio (z) = 0.24275 0.23236
#
# Static dielectric constant tensor:
#      x y z
#    x 1.936690 0.000000 0.000000 
#    y 0.000000 1.767940 0.000000 
#    z 0.000000 0.000000 1.886820 
# 
# From -- ./inp_files/21736.got.cif
#   From: 2010.05.17/outbox.cif.g08.bks.cpg/sg56_11_cif.got.tgz:21736.got - 2010.06.03 13:42:01.
