data_PCOD9431034
_publ_section_title
;
Structure prediction by ZEFSAII (Michael W. Deem and Ramdas Pophale) SiO2 
 PCOD9431034
Probable space group: P C C N
;
_chemical_formula_sum "Si O2"
_cell_formula_units_Z 48
_cell_length_a 25.121754
_cell_length_b 5.443921
_cell_length_c 14.765971
_cell_angle_alpha 90.000000
_cell_angle_beta 90.000000
_cell_angle_gamma 90.000000
_cell_volume 2019.406659
_symmetry_space_group_name_H-M "P C C N"
_symmetry_group_IT_number 56
_symmetry_cell_setting 'orthorhombic'
loop_
_space_group_symop_operation_xyz
x,y,z
1/2-x,1/2-y,z
1/2+x,-y,1/2-z
-x,1/2+y,1/2-z
-x,-y,-z
1/2+x,1/2+y,-z
1/2-x,y,1/2+z
x,1/2-y,1/2+z
loop_
_atom_site_type_symbol
_atom_site_label
_atom_site_fract_x
_atom_site_fract_y
_atom_site_fract_z
Si Si1 0.142742 0.071152 0.385042
Si Si2 0.750000 0.750000 0.571296
Si Si3 0.440336 0.370078 0.964193
Si Si4 0.479180 0.210934 0.636471
Si Si5 0.130285 0.784074 0.569061
Si Si6 0.750000 0.250000 0.951180
Si Si7 0.420198 0.849037 0.743464
O O1 0.197649 0.205918 0.369986
O O2 0.093883 0.255776 0.384443
O O3 0.139961 0.978354 0.488719
O O4 0.127487 0.861814 0.314766
O O5 0.754386 0.499712 0.512105
O O6 0.490620 0.480278 0.911631
O O7 0.458957 0.175994 0.041670
O O8 0.401390 0.565808 0.014914
O O9 0.524925 0.313590 0.701063
O O10 0.430252 0.108384 0.693369
O O11 0.192358 0.740568 0.598585
O O12 0.095859 0.827096 0.660254
#
# Coordination Sequence:
#
# PCOD9431034 Si02
#       7
#     8   4   8   8   8   4   8
#     4  11  22  41  68  92 130 174 221 276 344 400
#     4  10  22  40  74  98 128 182 220 280 348 410
#     4  10  20  40  61  87 126 174 219 275 332 405
#     4  10  22  37  57  91 131 169 225 272 334 401
#     4  10  22  41  63  93 131 168 227 273 345 404
#     4  10  20  44  70  98 132 176 224 280 350 408
#     4  11  23  39  61  96 132 174 227 282 332 412
#
# _framework density 23.769355999999998
#
# number of rings (size 3 to 8) (size 9 to 14) (size 15 to 20)
#    0.000    1.667    3.333    1.000    2.333    0.667 
#    0.000    5.833    0.000    0.000    0.000    0.000 
#    0.000    0.000    0.000    0.000    0.000    0.000 
#
# Total GULP energy -267301.228751 kJ/mol
# GULP energy per Si atom -5568.775599 kJ/mol
# Density = 2.371526 g / cm^3
# Si number density = 23.769356 Si / 1000 Ang^3
#
#
#
# Elastic Constant Matrix: (Units=GPa)
#
#
# Indices 1 2 3 4 5 6 
#
# 1 108.1803 3.4898 16.0292 0.0000 0.0000 0.0000
# 2 3.4898 49.7375 5.3630 0.0000 0.0000 0.0000
# 3 16.0292 5.3630 81.0442 0.0000 0.0000 0.0000
# 4 0.0000 0.0000 0.0000 24.2951 0.0000 0.0000
# 5 0.0000 0.0000 0.0000 0.0000 13.8651 0.0000
# 6 0.0000 0.0000 0.0000 0.0000 0.0000 31.0501
#
#
#
# Elastic Compliance Matrix: (Units=1/GPa)
#
#
# Indices 1 2 3 4 5 6 
#
# 1 0.009534 -0.000469 -0.001855 0.000000 0.000000 0.000000
# 2 -0.000469 0.020273 -0.001249 0.000000 0.000000 0.000000
# 3 -0.001855 -0.001249 0.012788 0.000000 0.000000 0.000000
# 4 0.000000 0.000000 0.000000 0.041161 0.000000 0.000000
# 5 0.000000 0.000000 0.000000 0.000000 0.072124 0.000000
# 6 0.000000 0.000000 0.000000 0.000000 0.000000 0.032206
#
#
# Mechanical properties :
#
#
# Convention : Reuss Voigt Hill
#
# Bulk Modulus (GPa) = 28.20829 32.08067 30.14448
# Shear Modulus (GPa) = 24.14909 28.11405 26.13157
#
# Velocity S-wave (km/s) = 3.19090 3.44290 3.31929
# Velocity P-wave (km/s) = 5.04668 5.41578 5.23449
#
# Compressibility (1/GPa) = 0.03545057
#
# Stress axis : x y z
#
# Youngs Moduli (GPa) = 104.89053 49.32641 78.19595
#
# Poissons Ratio (x) = 0.02313 0.14502
# Poissons Ratio (y) = 0.04919 0.09765
# Poissons Ratio (z) = 0.19453 0.06160
#
# Static dielectric constant tensor:
#      x y z
#    x 1.996360 0.000000 0.000000 
#    y 0.000000 2.102680 0.000000 
#    z 0.000000 0.000000 1.969790 
# 
# From -- ./inp_files/9719.got.cif
#   From: 2010.05.17/outbox.cif.g08.bks.cpg/sg56_5_cif.got.tgz:9719.got - 2010.06.03 13:42:01.
