data_PCOD9431461
_publ_section_title
;
Structure prediction by ZEFSAII (Michael W. Deem and Ramdas Pophale) SiO2 
 PCOD9431461
Probable space group: P C C N
;
_chemical_formula_sum "Si O2"
_cell_formula_units_Z 56
_cell_length_a 14.398792
_cell_length_b 11.434282
_cell_length_c 16.297618
_cell_angle_alpha 90.000000
_cell_angle_beta 90.000000
_cell_angle_gamma 90.000000
_cell_volume 2683.237353
_symmetry_space_group_name_H-M "P C C N"
_symmetry_group_IT_number 56
_symmetry_cell_setting 'orthorhombic'
loop_
_space_group_symop_operation_xyz
x,y,z
1/2-x,1/2-y,z
1/2+x,-y,1/2-z
-x,1/2+y,1/2-z
-x,-y,-z
1/2+x,1/2+y,-z
1/2-x,y,1/2+z
x,1/2-y,1/2+z
loop_
_atom_site_type_symbol
_atom_site_label
_atom_site_fract_x
_atom_site_fract_y
_atom_site_fract_z
Si Si1 0.281055 0.987431 0.443450
Si Si2 0.427138 0.581263 0.815161
Si Si3 0.069274 0.981300 0.076870
Si Si4 0.122991 0.815168 0.388921
Si Si5 0.957075 0.506477 0.865504
Si Si6 0.517142 0.256886 0.450492
Si Si7 0.832498 0.673767 0.976316
O O1 0.359947 0.993561 0.374516
O O2 0.330043 0.982765 0.533721
O O3 0.218334 0.877011 0.415780
O O4 0.213552 0.097684 0.451387
O O5 0.531343 0.569904 0.854223
O O6 0.387592 0.713445 0.821261
O O7 0.427306 0.528857 0.725183
O O8 0.047741 0.849256 0.106886
O O9 0.000000 0.000000 0.000000
O O10 0.083938 0.752508 0.470636
O O11 0.051093 0.917903 0.366404
O O12 0.972953 0.385563 0.913738
O O13 0.882392 0.585414 0.913898
O O14 0.412858 0.246000 0.484910
O O15 0.750000 0.750000 0.938545
#
# Coordination Sequence:
#
# PCOD9431461 Si02
#       7
#     8   8   8   8   8   8   8
#     4  11  21  42  67  96 121 176 236 269 312 397
#     4  11  25  41  63  99 141 173 215 280 348 388
#     4  10  21  38  64  94 126 168 227 264 323 389
#     4  11  21  43  68  91 130 179 223 277 320 399
#     4  11  25  43  62 100 138 176 214 271 358 396
#     4  11  20  43  67  90 128 179 221 266 325 403
#     4  11  22  40  69  98 130 172 228 273 320 401
#
# _framework density 20.870311000000001
#
# number of rings (size 3 to 8) (size 9 to 14) (size 15 to 20)
#    0.000    1.143    5.714    3.000    4.000    0.000 
#    2.571    3.571    0.000    0.000    0.000    0.000 
#    0.000    0.000    0.000    0.000    0.000    0.000 
#
# Total GULP energy -312580.025063 kJ/mol
# GULP energy per Si atom -5581.786162 kJ/mol
# Density = 2.082281 g / cm^3
# Si number density = 20.870311 Si / 1000 Ang^3
#
#
#
# Elastic Constant Matrix: (Units=GPa)
#
#
# Indices 1 2 3 4 5 6 
#
# 1 114.2598 27.1272 26.9329 0.0000 0.0000 0.0000
# 2 27.1272 96.5102 13.4335 0.0000 0.0000 0.0000
# 3 26.9329 13.4335 68.5068 0.0000 0.0000 0.0000
# 4 0.0000 0.0000 0.0000 24.8125 0.0000 0.0000
# 5 0.0000 0.0000 0.0000 0.0000 15.5581 0.0000
# 6 0.0000 0.0000 0.0000 0.0000 0.0000 30.4749
#
#
#
# Elastic Compliance Matrix: (Units=1/GPa)
#
#
# Indices 1 2 3 4 5 6 
#
# 1 0.010143 -0.002360 -0.003525 0.000000 0.000000 0.000000
# 2 -0.002360 0.011202 -0.001269 0.000000 0.000000 0.000000
# 3 -0.003525 -0.001269 0.016232 0.000000 0.000000 0.000000
# 4 0.000000 0.000000 0.000000 0.040302 0.000000 0.000000
# 5 0.000000 0.000000 0.000000 0.000000 0.064275 0.000000
# 6 0.000000 0.000000 0.000000 0.000000 0.000000 0.032814
#
#
# Mechanical properties :
#
#
# Convention : Reuss Voigt Hill
#
# Bulk Modulus (GPa) = 42.97602 46.02934 44.50268
# Shear Modulus (GPa) = 25.37661 28.28798 26.83230
#
# Velocity S-wave (km/s) = 3.49079 3.68559 3.58951
# Velocity P-wave (km/s) = 6.07323 6.34147 6.20880
#
# Compressibility (1/GPa) = 0.02326879
#
# Stress axis : x y z
#
# Youngs Moduli (GPa) = 98.58760 89.27260 61.60814
#
# Poissons Ratio (x) = 0.21072 0.21716
# Poissons Ratio (y) = 0.23271 0.07815
# Poissons Ratio (z) = 0.34751 0.11325
#
# Static dielectric constant tensor:
#      x y z
#    x 1.801750 0.000000 0.000000 
#    y 0.000000 1.828470 0.000000 
#    z 0.000000 0.000000 1.710020 
# 
# From -- ./inp_files/12275.got.cif
#   From: 2010.05.17/outbox.cif.g08.bks.cpg/sg56_7_cif.got.tgz:12275.got - 2010.06.03 13:42:01.
