data_PCOD9431854
_publ_section_title
;
Structure prediction by ZEFSAII (Michael W. Deem and Ramdas Pophale) SiO2 
 PCOD9431854
Probable space group: P C C N
;
_chemical_formula_sum "Si O2"
_cell_formula_units_Z 60
_cell_length_a 18.203111
_cell_length_b 4.994684
_cell_length_c 29.171195
_cell_angle_alpha 90.000000
_cell_angle_beta 90.000000
_cell_angle_gamma 90.000000
_cell_volume 2652.209672
_symmetry_space_group_name_H-M "P C C N"
_symmetry_group_IT_number 56
_symmetry_cell_setting 'orthorhombic'
loop_
_space_group_symop_operation_xyz
x,y,z
1/2-x,1/2-y,z
1/2+x,-y,1/2-z
-x,1/2+y,1/2-z
-x,-y,-z
1/2+x,1/2+y,-z
1/2-x,y,1/2+z
x,1/2-y,1/2+z
loop_
_atom_site_type_symbol
_atom_site_label
_atom_site_fract_x
_atom_site_fract_y
_atom_site_fract_z
Si Si1 0.803641 0.996576 0.640299
Si Si2 0.250000 0.250000 0.678966
Si Si3 0.676323 0.085986 0.242150
Si Si4 0.444852 0.282274 0.024261
Si Si5 0.968447 0.116861 0.269684
Si Si6 0.120449 0.133809 0.613584
Si Si7 0.571469 0.594577 0.569076
Si Si8 0.467406 0.629867 0.132586
O O1 0.750000 0.250000 0.639163
O O2 0.836548 0.955947 0.692082
O O3 0.868780 0.025725 0.603359
O O4 0.750000 0.750000 0.629852
O O5 0.196710 0.406697 0.714085
O O6 0.193539 0.113402 0.643789
O O7 0.750000 0.250000 0.235015
O O8 0.612174 0.287956 0.255577
O O9 0.383477 0.287468 0.064582
O O10 0.504547 0.092858 0.050631
O O11 0.500000 0.500000 0.000000
O O12 0.399336 0.185572 0.980027
O O13 0.985104 0.225035 0.320028
O O14 0.020234 0.304290 0.238153
O O15 0.062472 0.332344 0.639212
O O16 0.093292 0.828918 0.610873
O O17 0.535219 0.838386 0.598000
#
# Coordination Sequence:
#
# PCOD9431854 Si02
#       8
#     8   4   8   8   8   8   8   8
#     4  11  26  44  65  99 134 180 232 277 337 416
#     4  12  24  44  68  94 144 184 222 280 336 428
#     4  11  25  44  70  94 140 191 236 273 354 423
#     4  10  21  43  71 101 130 175 227 283 351 414
#     4  12  26  41  64 102 140 177 236 299 344 407
#     4  11  24  40  67  98 129 176 226 275 339 411
#     4  10  23  42  71  96 133 177 219 287 343 405
#     4  11  22  41  64  97 131 169 228 274 339 402
#
# _framework density 22.622648000000002
#
# number of rings (size 3 to 8) (size 9 to 14) (size 15 to 20)
#    0.000    1.067    3.333    2.400    3.733    3.200 
#    1.200    0.000    0.000    0.000    0.000    0.000 
#    0.000    0.000    0.000    0.000    0.000    0.000 
#
# Total GULP energy -334396.187852 kJ/mol
# GULP energy per Si atom -5573.269798 kJ/mol
# Density = 2.257116 g / cm^3
# Si number density = 22.622648 Si / 1000 Ang^3
#
#
#
# Elastic Constant Matrix: (Units=GPa)
#
#
# Indices 1 2 3 4 5 6 
#
# 1 89.8637 8.7337 41.6119 0.0000 0.0000 0.0000
# 2 8.7337 66.9636 2.8944 0.0000 0.0000 0.0000
# 3 41.6119 2.8944 189.3574 0.0000 0.0000 0.0000
# 4 0.0000 0.0000 0.0000 33.5444 0.0000 0.0000
# 5 0.0000 0.0000 0.0000 0.0000 48.8472 0.0000
# 6 0.0000 0.0000 0.0000 0.0000 0.0000 17.8241
#
#
#
# Elastic Compliance Matrix: (Units=1/GPa)
#
#
# Indices 1 2 3 4 5 6 
#
# 1 0.012541 -0.001518 -0.002733 0.000000 0.000000 0.000000
# 2 -0.001518 0.015127 0.000102 0.000000 0.000000 0.000000
# 3 -0.002733 0.000102 0.005880 0.000000 0.000000 0.000000
# 4 0.000000 0.000000 0.000000 0.029811 0.000000 0.000000
# 5 0.000000 0.000000 0.000000 0.000000 0.020472 0.000000
# 6 0.000000 0.000000 0.000000 0.000000 0.000000 0.056104
#
#
# Mechanical properties :
#
#
# Convention : Reuss Voigt Hill
#
# Bulk Modulus (GPa) = 39.60102 50.29610 44.94856
# Shear Modulus (GPa) = 31.91870 39.57277 35.74574
#
# Velocity S-wave (km/s) = 3.76029 4.18695 3.97934
# Velocity P-wave (km/s) = 6.03292 6.75684 6.40512
#
# Compressibility (1/GPa) = 0.02525187
#
# Stress axis : x y z
#
# Youngs Moduli (GPa) = 79.73948 66.10704 170.06870
#
# Poissons Ratio (x) = 0.10032 0.46475
# Poissons Ratio (y) = 0.12101 -0.01739
# Poissons Ratio (z) = 0.21790 -0.00676
#
# Static dielectric constant tensor:
#      x y z
#    x 1.309140 0.000000 0.000000 
#    y 0.000000 1.897320 0.000000 
#    z 0.000000 0.000000 1.945700 
# 
# From -- ./inp_files/21813.got.cif
#   From: 2010.05.17/outbox.cif.g08.bks.cpg/sg56_11_cif.got.tgz:21813.got - 2010.06.03 13:42:01.
