data_PCOD9431678
_publ_section_title
;
Structure prediction by ZEFSAII (Michael W. Deem and Ramdas Pophale) SiO2 
 PCOD9431678
Probable space group: P C C N
;
_chemical_formula_sum "Si O2"
_cell_formula_units_Z 56
_cell_length_a 31.395398
_cell_length_b 5.643367
_cell_length_c 13.892566
_cell_angle_alpha 90.000000
_cell_angle_beta 90.000000
_cell_angle_gamma 90.000000
_cell_volume 2461.425843
_symmetry_space_group_name_H-M "P C C N"
_symmetry_group_IT_number 56
_symmetry_cell_setting 'orthorhombic'
loop_
_space_group_symop_operation_xyz
x,y,z
1/2-x,1/2-y,z
1/2+x,-y,1/2-z
-x,1/2+y,1/2-z
-x,-y,-z
1/2+x,1/2+y,-z
1/2-x,y,1/2+z
x,1/2-y,1/2+z
loop_
_atom_site_type_symbol
_atom_site_label
_atom_site_fract_x
_atom_site_fract_y
_atom_site_fract_z
Si Si1 0.404430 0.776705 0.423995
Si Si2 0.155139 0.137393 0.502842
Si Si3 0.701029 0.773375 0.665976
Si Si4 0.858639 0.140258 0.743694
Si Si5 0.793564 0.106526 0.354392
Si Si6 0.089442 0.108743 0.115072
Si Si7 0.500496 0.251541 0.558489
O O1 0.380290 0.534189 0.455013
O O2 0.376501 0.836577 0.329604
O O3 0.453404 0.746088 0.391829
O O4 0.407832 0.940375 0.519278
O O5 0.173028 0.331905 0.428734
O O6 0.130011 0.226377 0.595912
O O7 0.197391 0.014205 0.544058
O O8 0.750000 0.750000 0.636133
O O9 0.677372 0.528812 0.696740
O O10 0.704230 0.936848 0.760714
O O11 0.834696 0.231090 0.837877
O O12 0.900318 0.010982 0.783965
O O13 0.750000 0.250000 0.352903
O O14 0.043981 0.237217 0.115459
O O15 0.500000 0.500000 0.500000
O O16 0.500000 0.000000 0.500000
#
# Coordination Sequence:
#
# PCOD9431678 Si02
#       7
#     8   8   8   8   8   8   8
#     4  10  22  42  64  97 133 174 224 276 340 410
#     4  11  23  40  67  95 127 174 224 276 347 410
#     4  11  24  42  62  93 130 173 222 283 340 406
#     4  11  23  41  65  96 131 176 225 273 343 404
#     4  12  24  43  67  94 133 176 227 287 341 414
#     4  11  21  41  69  96 132 177 222 280 341 413
#     4  10  21  40  70 100 136 180 226 284 349 413
#
# _framework density 22.751041000000001
#
# number of rings (size 3 to 8) (size 9 to 14) (size 15 to 20)
#    0.000    1.143    5.714    0.857    0.000    1.714 
#    5.143    4.286    0.000    0.000    0.000    0.000 
#    0.000    0.000    0.000    0.000    0.000    0.000 
#
# Total GULP energy -311926.383696 kJ/mol
# GULP energy per Si atom -5570.113995 kJ/mol
# Density = 2.269926 g / cm^3
# Si number density = 22.751041 Si / 1000 Ang^3
#
#
#
# Elastic Constant Matrix: (Units=GPa)
#
#
# Indices 1 2 3 4 5 6 
#
# 1 187.2534 49.5381 66.7755 0.0000 0.0000 0.0000
# 2 49.5381 54.0389 14.4813 0.0000 0.0000 0.0000
# 3 66.7755 14.4813 67.5069 0.0000 0.0000 0.0000
# 4 0.0000 0.0000 0.0000 41.4273 0.0000 0.0000
# 5 0.0000 0.0000 0.0000 0.0000 21.3222 0.0000
# 6 0.0000 0.0000 0.0000 0.0000 0.0000 31.7154
#
#
#
# Elastic Compliance Matrix: (Units=1/GPa)
#
#
# Indices 1 2 3 4 5 6 
#
# 1 0.010325 -0.007138 -0.008682 0.000000 0.000000 0.000000
# 2 -0.007138 0.024569 0.001790 0.000000 0.000000 0.000000
# 3 -0.008682 0.001790 0.023017 0.000000 0.000000 0.000000
# 4 0.000000 0.000000 0.000000 0.024139 0.000000 0.000000
# 5 0.000000 0.000000 0.000000 0.000000 0.046900 0.000000
# 6 0.000000 0.000000 0.000000 0.000000 0.000000 0.031530
#
#
# Mechanical properties :
#
#
# Convention : Reuss Voigt Hill
#
# Bulk Modulus (GPa) = 33.49887 63.37655 48.43771
# Shear Modulus (GPa) = 25.19040 30.75994 27.97517
#
# Velocity S-wave (km/s) = 3.33110 3.68098 3.51040
# Velocity P-wave (km/s) = 5.43609 6.78109 6.14549
#
# Compressibility (1/GPa) = 0.02985175
#
# Stress axis : x y z
#
# Youngs Moduli (GPa) = 96.85544 40.70154 43.44677
#
# Poissons Ratio (x) = 0.29054 0.37718
# Poissons Ratio (y) = 0.69138 -0.07779
# Poissons Ratio (z) = 0.84085 -0.07287
#
# Static dielectric constant tensor:
#      x y z
#    x 1.820160 0.000000 0.000000 
#    y 0.000000 0.886580 0.000000 
#    z 0.000000 0.000000 1.904520 
# 
# From -- ./inp_files/13464.got.cif
#   From: 2010.05.17/outbox.cif.g08.bks.cpg/sg56_7_cif.got.tgz:13464.got - 2010.06.03 13:42:01.
