data_PCOD9431801
_publ_section_title
;
Structure prediction by ZEFSAII (Michael W. Deem and Ramdas Pophale) SiO2 
 PCOD9431801
Probable space group: P C C N
;
_chemical_formula_sum "Si O2"
_cell_formula_units_Z 48
_cell_length_a 7.893357
_cell_length_b 23.584033
_cell_length_c 11.063540
_cell_angle_alpha 90.000000
_cell_angle_beta 90.000000
_cell_angle_gamma 90.000000
_cell_volume 2059.557540
_symmetry_space_group_name_H-M "P C C N"
_symmetry_group_IT_number 56
_symmetry_cell_setting 'orthorhombic'
loop_
_space_group_symop_operation_xyz
x,y,z
1/2-x,1/2-y,z
1/2+x,-y,1/2-z
-x,1/2+y,1/2-z
-x,-y,-z
1/2+x,1/2+y,-z
1/2-x,y,1/2+z
x,1/2-y,1/2+z
loop_
_atom_site_type_symbol
_atom_site_label
_atom_site_fract_x
_atom_site_fract_y
_atom_site_fract_z
Si Si1 0.442557 0.811844 0.215619
Si Si2 0.432932 0.615100 0.958135
Si Si3 0.063331 0.028816 0.217094
Si Si4 0.423926 0.075963 0.191661
Si Si5 0.443809 0.910217 0.054956
Si Si6 0.466734 0.683798 0.192083
O O1 0.460118 0.842944 0.343944
O O2 0.512199 0.851063 0.108539
O O3 0.517067 0.749021 0.206957
O O4 0.238284 0.812620 0.197123
O O5 0.506801 0.555795 0.909481
O O6 0.238093 0.601825 0.993484
O O7 0.510633 0.649437 0.070235
O O8 0.244876 0.056138 0.241628
O O9 0.941991 0.050812 0.325791
O O10 0.058004 0.961414 0.232381
O O11 0.461623 0.142198 0.206302
O O12 0.440648 0.063987 0.049534
#
# Coordination Sequence:
#
# PCOD9431801 Si02
#       6
#     8   8   8   8   8   8
#     4   9  20  39  68 101 130 169 229 274 332 401
#     4  10  21  42  68  96 137 171 225 279 334 406
#     4  11  27  43  67 100 136 181 229 282 341 415
#     4  12  25  43  68  96 138 180 230 283 346 398
#     4  10  22  44  67  96 135 178 225 281 336 407
#     4  10  22  36  68 101 129 175 220 276 337 399
#
# _framework density 23.305976999999999
#
# number of rings (size 3 to 8) (size 9 to 14) (size 15 to 20)
#    0.000    1.667    1.667    1.500    9.333    2.000 
#    0.000    3.333    0.000    0.000    0.000    0.000 
#    0.000    0.000    0.000    0.000    0.000    0.000 
#
# Total GULP energy -268182.503501 kJ/mol
# GULP energy per Si atom -5587.135490 kJ/mol
# Density = 2.325293 g / cm^3
# Si number density = 23.305977 Si / 1000 Ang^3
#
#
#
# Elastic Constant Matrix: (Units=GPa)
#
#
# Indices 1 2 3 4 5 6 
#
# 1 69.6925 21.0524 15.3017 0.0000 0.0000 0.0000
# 2 21.0524 146.4354 18.5656 0.0000 0.0000 0.0000
# 3 15.3017 18.5656 89.7562 0.0000 0.0000 0.0000
# 4 0.0000 0.0000 0.0000 23.6063 0.0000 0.0000
# 5 0.0000 0.0000 0.0000 0.0000 23.5277 0.0000
# 6 0.0000 0.0000 0.0000 0.0000 0.0000 17.6931
#
#
#
# Elastic Compliance Matrix: (Units=1/GPa)
#
#
# Indices 1 2 3 4 5 6 
#
# 1 0.015423 -0.001935 -0.002229 0.000000 0.000000 0.000000
# 2 -0.001935 0.007256 -0.001171 0.000000 0.000000 0.000000
# 3 -0.002229 -0.001171 0.011764 0.000000 0.000000 0.000000
# 4 0.000000 0.000000 0.000000 0.042361 0.000000 0.000000
# 5 0.000000 0.000000 0.000000 0.000000 0.042503 0.000000
# 6 0.000000 0.000000 0.000000 0.000000 0.000000 0.056519
#
#
# Mechanical properties :
#
#
# Convention : Reuss Voigt Hill
#
# Bulk Modulus (GPa) = 42.06577 46.19149 44.12863
# Shear Modulus (GPa) = 25.71765 29.69638 27.70702
#
# Velocity S-wave (km/s) = 3.32547 3.57346 3.45169
# Velocity P-wave (km/s) = 5.73005 6.07361 5.90433
#
# Compressibility (1/GPa) = 0.02377229
#
# Stress axis : x y z
#
# Youngs Moduli (GPa) = 64.84009 137.82574 85.00865
#
# Poissons Ratio (x) = 0.26664 0.18949
# Poissons Ratio (y) = 0.12544 0.09954
# Poissons Ratio (z) = 0.14453 0.16139
#
# Static dielectric constant tensor:
#      x y z
#    x 1.902790 0.000000 0.000000 
#    y 0.000000 1.912020 0.000000 
#    z 0.000000 0.000000 1.871400 
# 
# From -- ./inp_files/6414.got.cif
#   From: 2010.05.17/outbox.cif.g08.bks.cpg/sg56_4_cif.got.tgz:6414.got - 2010.06.03 13:42:01.
