data_PCOD9431189
_publ_section_title
;
Structure prediction by ZEFSAII (Michael W. Deem and Ramdas Pophale) SiO2 
 PCOD9431189
Probable space group: P C C N
;
_chemical_formula_sum "Si O2"
_cell_formula_units_Z 56
_cell_length_a 5.585291
_cell_length_b 31.674085
_cell_length_c 13.458410
_cell_angle_alpha 90.000000
_cell_angle_beta 90.000000
_cell_angle_gamma 90.000000
_cell_volume 2380.913611
_symmetry_space_group_name_H-M "P C C N"
_symmetry_group_IT_number 56
_symmetry_cell_setting 'orthorhombic'
loop_
_space_group_symop_operation_xyz
x,y,z
1/2-x,1/2-y,z
1/2+x,-y,1/2-z
-x,1/2+y,1/2-z
-x,-y,-z
1/2+x,1/2+y,-z
1/2-x,y,1/2+z
x,1/2-y,1/2+z
loop_
_atom_site_type_symbol
_atom_site_label
_atom_site_fract_x
_atom_site_fract_y
_atom_site_fract_z
Si Si1 0.131650 0.338788 0.005000
Si Si2 0.332934 0.891258 0.121476
Si Si3 0.181676 0.844422 0.297656
Si Si4 0.482932 0.900651 0.438948
Si Si5 0.750000 0.250000 0.682649
Si Si6 0.108750 0.474406 0.857095
Si Si7 0.610115 0.992509 0.368894
Si Si8 0.250000 0.250000 0.558342
O O1 0.312368 0.377344 0.000470
O O2 0.242345 0.292875 0.996072
O O3 0.017527 0.342124 0.115790
O O4 0.948280 0.347782 0.917014
O O5 0.148123 0.876980 0.206858
O O6 0.523001 0.926093 0.157323
O O7 0.223057 0.908863 0.019358
O O8 0.400030 0.866238 0.357608
O O9 0.230625 0.796022 0.265986
O O10 0.559709 0.943832 0.389893
O O11 0.500460 0.247703 0.619752
O O12 0.129875 0.497657 0.750429
O O13 0.873079 0.495051 0.906425
O O14 0.374754 0.480898 0.901984
#
# Coordination Sequence:
#
# PCOD9431189 Si02
#       8
#     8   8   8   8   4   8   8   4
#     4  10  24  42  70  99 135 186 224 283 350 408
#     4  11  25  42  65 103 136 173 231 283 343 406
#     4  10  22  44  66  95 138 179 228 283 335 417
#     4  11  23  42  67  97 132 182 223 276 350 406
#     4  10  20  42  72  98 128 186 230 266 344 396
#     4  10  23  42  65  97 131 176 227 288 337 410
#     4  10  23  41  68  92 130 181 228 277 347 408
#     4  10  20  44  70  96 138 178 228 274 336 412
#
# _framework density 23.520382000000001
#
# number of rings (size 3 to 8) (size 9 to 14) (size 15 to 20)
#    0.000    1.714    2.857    0.000    6.000    3.429 
#    2.571    0.000    0.000    0.000    0.000    0.000 
#    0.000    0.000    0.000    0.000    0.000    0.000 
#
# Total GULP energy -312496.085931 kJ/mol
# GULP energy per Si atom -5580.287249 kJ/mol
# Density = 2.346685 g / cm^3
# Si number density = 23.520382 Si / 1000 Ang^3
#
#
#
# Elastic Constant Matrix: (Units=GPa)
#
#
# Indices 1 2 3 4 5 6 
#
# 1 116.5160 40.0505 18.3615 0.0000 0.0000 0.0000
# 2 40.0505 132.9985 12.3559 0.0000 0.0000 0.0000
# 3 18.3615 12.3559 45.4666 0.0000 0.0000 0.0000
# 4 0.0000 0.0000 0.0000 8.5559 0.0000 0.0000
# 5 0.0000 0.0000 0.0000 0.0000 22.1817 0.0000
# 6 0.0000 0.0000 0.0000 0.0000 0.0000 39.1881
#
#
#
# Elastic Compliance Matrix: (Units=1/GPa)
#
#
# Indices 1 2 3 4 5 6 
#
# 1 0.010038 -0.002715 -0.003316 0.000000 0.000000 0.000000
# 2 -0.002715 0.008448 -0.001199 0.000000 0.000000 0.000000
# 3 -0.003316 -0.001199 0.023659 0.000000 0.000000 0.000000
# 4 0.000000 0.000000 0.000000 0.116878 0.000000 0.000000
# 5 0.000000 0.000000 0.000000 0.000000 0.045082 0.000000
# 6 0.000000 0.000000 0.000000 0.000000 0.000000 0.025518
#
#
# Mechanical properties :
#
#
# Convention : Reuss Voigt Hill
#
# Bulk Modulus (GPa) = 36.12101 48.50187 42.31144
# Shear Modulus (GPa) = 19.73848 28.93271 24.33559
#
# Velocity S-wave (km/s) = 2.90005 3.51110 3.22010
# Velocity P-wave (km/s) = 5.15794 6.09123 5.64391
#
# Compressibility (1/GPa) = 0.02768472
#
# Stress axis : x y z
#
# Youngs Moduli (GPa) = 99.61879 118.37366 42.26667
#
# Poissons Ratio (x) = 0.32136 0.14016
# Poissons Ratio (y) = 0.27044 0.05069
# Poissons Ratio (z) = 0.33035 0.14198
#
# Static dielectric constant tensor:
#      x y z
#    x 2.011110 0.000000 0.000000 
#    y 0.000000 1.877010 0.000000 
#    z 0.000000 0.000000 1.876910 
# 
# From -- ./inp_files/9861.got.cif
#   From: 2010.05.17/outbox.cif.g08.bks.cpg/sg56_5_cif.got.tgz:9861.got - 2010.06.03 13:42:01.
