data_PCOD9431872
_publ_section_title
;
Structure prediction by ZEFSAII (Michael W. Deem and Ramdas Pophale) SiO2 
 PCOD9431872
Probable space group: P C C N
;
_chemical_formula_sum "Si O2"
_cell_formula_units_Z 64
_cell_length_a 11.191984
_cell_length_b 24.075916
_cell_length_c 9.444236
_cell_angle_alpha 90.000000
_cell_angle_beta 90.000000
_cell_angle_gamma 90.000000
_cell_volume 2544.818018
_symmetry_space_group_name_H-M "P C C N"
_symmetry_group_IT_number 56
_symmetry_cell_setting 'orthorhombic'
loop_
_space_group_symop_operation_xyz
x,y,z
1/2-x,1/2-y,z
1/2+x,-y,1/2-z
-x,1/2+y,1/2-z
-x,-y,-z
1/2+x,1/2+y,-z
1/2-x,y,1/2+z
x,1/2-y,1/2+z
loop_
_atom_site_type_symbol
_atom_site_label
_atom_site_fract_x
_atom_site_fract_y
_atom_site_fract_z
Si Si1 0.960813 0.049357 0.290295
Si Si2 0.878754 0.275813 0.018890
Si Si3 0.152182 0.609889 0.947548
Si Si4 0.266445 0.182191 0.601011
Si Si5 0.199548 0.511549 0.729365
Si Si6 0.518117 0.780501 0.250207
Si Si7 0.097700 0.588562 0.517668
Si Si8 0.400156 0.157330 0.326247
O O1 0.930869 0.082548 0.433528
O O2 0.844732 0.005639 0.282130
O O3 0.946933 0.082863 0.142877
O O4 0.098575 0.029318 0.291735
O O5 0.750000 0.250000 0.009332
O O6 0.888180 0.331310 0.112925
O O7 0.922956 0.296752 0.866791
O O8 0.959924 0.231269 0.098300
O O9 0.280246 0.623468 0.019259
O O10 0.181929 0.565993 0.826846
O O11 0.250000 0.250000 0.584754
O O12 0.372742 0.179789 0.716367
O O13 0.303960 0.157103 0.453040
O O14 0.158541 0.149070 0.672679
O O15 0.143820 0.529053 0.577002
O O16 0.563980 0.722140 0.187105
O O17 0.000286 0.615457 0.619649
#
# Coordination Sequence:
#
# PCOD9431872 Si02
#       8
#     8   8   8   8   8   8   8   8
#     4  10  22  42  71  95 134 177 225 278 350 419
#     4  12  25  39  61  96 133 174 227 275 331 409
#     4  10  23  40  67  98 134 174 223 280 344 404
#     4  10  22  39  61  83 122 176 220 270 333 400
#     4  10  21  44  68  98 132 178 221 279 349 416
#     4  11  23  39  61  86 125 175 216 277 327 398
#     4  10  22  40  64  94 131 170 207 276 342 409
#     4  11  22  41  62  88 126 168 222 269 340 399
#
# _framework density 25.149145999999998
#
# number of rings (size 3 to 8) (size 9 to 14) (size 15 to 20)
#    0.000    1.500    1.250    3.750    3.500    4.000 
#    2.250    0.000    0.000    0.000    0.000    0.000 
#    0.000    0.000    0.000    0.000    0.000    0.000 
#
# Total GULP energy -357647.410145 kJ/mol
# GULP energy per Si atom -5588.240784 kJ/mol
# Density = 2.509191 g / cm^3
# Si number density = 25.149146 Si / 1000 Ang^3
#
#
#
# Elastic Constant Matrix: (Units=GPa)
#
#
# Indices 1 2 3 4 5 6 
#
# 1 109.4908 17.2442 5.7222 0.0000 0.0000 0.0000
# 2 17.2442 31.6973 -13.5221 0.0000 0.0000 0.0000
# 3 5.7222 -13.5221 70.3698 0.0000 0.0000 0.0000
# 4 0.0000 0.0000 0.0000 14.2731 0.0000 0.0000
# 5 0.0000 0.0000 0.0000 0.0000 45.8697 0.0000
# 6 0.0000 0.0000 0.0000 0.0000 0.0000 29.9740
#
#
#
# Elastic Compliance Matrix: (Units=1/GPa)
#
#
# Indices 1 2 3 4 5 6 
#
# 1 0.010260 -0.006468 -0.002077 0.000000 0.000000 0.000000
# 2 -0.006468 0.038443 0.007913 0.000000 0.000000 0.000000
# 3 -0.002077 0.007913 0.015900 0.000000 0.000000 0.000000
# 4 0.000000 0.000000 0.000000 0.070062 0.000000 0.000000
# 5 0.000000 0.000000 0.000000 0.000000 0.021801 0.000000
# 6 0.000000 0.000000 0.000000 0.000000 0.000000 0.033362
#
#
# Mechanical properties :
#
#
# Convention : Reuss Voigt Hill
#
# Bulk Modulus (GPa) = 15.78804 25.60516 20.69660
# Shear Modulus (GPa) = 23.56200 31.49760 27.52980
#
# Velocity S-wave (km/s) = 3.06419 3.54281 3.31216
# Velocity P-wave (km/s) = 4.33709 5.19026 4.78274
#
# Compressibility (1/GPa) = 0.06333909
#
# Stress axis : x y z
#
# Youngs Moduli (GPa) = 97.46166 26.01249 62.89264
#
# Poissons Ratio (x) = 0.16825 0.13064
# Poissons Ratio (y) = 0.63039 -0.49768
# Poissons Ratio (z) = 0.20245 -0.20584
#
# Static dielectric constant tensor:
#      x y z
#    x 2.082160 0.000000 0.000000 
#    y 0.000000 2.068700 0.000000 
#    z 0.000000 0.000000 1.962020 
# 
# From -- ./inp_files/2977.got.cif
#   From: 2010.05.17/outbox.cif.g08.bks.cpg/sg56_2_cif.got.tgz:2977.got - 2010.06.03 13:42:01.
