data_PCOD9431662
_publ_section_title
;
Structure prediction by ZEFSAII (Michael W. Deem and Ramdas Pophale) SiO2 
 PCOD9431662
Probable space group: P C C N
;
_chemical_formula_sum "Si O2"
_cell_formula_units_Z 48
_cell_length_a 21.858244
_cell_length_b 8.778735
_cell_length_c 12.299013
_cell_angle_alpha 90.000000
_cell_angle_beta 90.000000
_cell_angle_gamma 90.000000
_cell_volume 2360.029706
_symmetry_space_group_name_H-M "P C C N"
_symmetry_group_IT_number 56
_symmetry_cell_setting 'orthorhombic'
loop_
_space_group_symop_operation_xyz
x,y,z
1/2-x,1/2-y,z
1/2+x,-y,1/2-z
-x,1/2+y,1/2-z
-x,-y,-z
1/2+x,1/2+y,-z
1/2-x,y,1/2+z
x,1/2-y,1/2+z
loop_
_atom_site_type_symbol
_atom_site_label
_atom_site_fract_x
_atom_site_fract_y
_atom_site_fract_z
Si Si1 0.871713 0.925080 0.682821
Si Si2 0.816479 0.927099 0.447596
Si Si3 0.979345 0.394409 0.099014
Si Si4 0.178353 0.440858 0.585868
Si Si5 0.595233 0.597007 0.262059
Si Si6 0.937032 0.069990 0.047118
O O1 0.843483 0.960685 0.565672
O O2 0.833263 0.974480 0.787265
O O3 0.878347 0.743308 0.698618
O O4 0.936910 0.008296 0.679566
O O5 0.820922 0.742576 0.432932
O O6 0.747258 0.986027 0.443995
O O7 0.856595 0.979823 0.344566
O O8 0.944316 0.250890 0.049866
O O9 0.039753 0.343435 0.163213
O O10 0.000000 0.500000 0.000000
O O11 0.122408 0.512985 0.518962
O O12 0.571298 0.483539 0.171083
O O13 0.000000 0.000000 0.000000
#
# Coordination Sequence:
#
# PCOD9431662 Si02
#       6
#     8   8   8   8   8   8
#     4  11  22  42  64  95 130 169 221 273 335 399
#     4  10  21  40  67  98 129 173 221 272 329 400
#     4  12  24  41  67  96 136 174 217 281 341 394
#     4  10  23  38  68  99 128 171 219 277 326 396
#     4  11  22  41  68  97 129 174 223 277 333 397
#     4  12  24  42  67  99 133 168 228 279 333 399
#
# _framework density 20.338726999999999
#
# number of rings (size 3 to 8) (size 9 to 14) (size 15 to 20)
#    0.000    1.000    3.333    5.000    2.333    2.667 
#    0.000    0.833    0.000    0.000    0.000    0.000 
#    0.000    0.000    0.000    0.000    0.000    0.000 
#
# Total GULP energy -268219.923005 kJ/mol
# GULP energy per Si atom -5587.915063 kJ/mol
# Density = 2.029244 g / cm^3
# Si number density = 20.338727 Si / 1000 Ang^3
#
#
#
# Elastic Constant Matrix: (Units=GPa)
#
#
# Indices 1 2 3 4 5 6 
#
# 1 149.5659 23.8308 67.9321 0.0000 0.0000 0.0000
# 2 23.8308 62.2500 32.1770 0.0000 0.0000 0.0000
# 3 67.9321 32.1770 126.5149 0.0000 0.0000 0.0000
# 4 0.0000 0.0000 0.0000 20.3130 0.0000 0.0000
# 5 0.0000 0.0000 0.0000 0.0000 41.0109 0.0000
# 6 0.0000 0.0000 0.0000 0.0000 0.0000 23.7474
#
#
#
# Elastic Compliance Matrix: (Units=1/GPa)
#
#
# Indices 1 2 3 4 5 6 
#
# 1 0.008905 -0.001079 -0.004507 0.000000 0.000000 0.000000
# 2 -0.001079 0.018627 -0.004158 0.000000 0.000000 0.000000
# 3 -0.004507 -0.004158 0.011382 0.000000 0.000000 0.000000
# 4 0.000000 0.000000 0.000000 0.049229 0.000000 0.000000
# 5 0.000000 0.000000 0.000000 0.000000 0.024384 0.000000
# 6 0.000000 0.000000 0.000000 0.000000 0.000000 0.042110
#
#
# Mechanical properties :
#
#
# Convention : Reuss Voigt Hill
#
# Bulk Modulus (GPa) = 51.48015 65.13451 58.30733
# Shear Modulus (GPa) = 27.68549 31.30699 29.49624
#
# Velocity S-wave (km/s) = 3.69347 3.92762 3.81235
# Velocity P-wave (km/s) = 6.59965 7.25691 6.93607
#
# Compressibility (1/GPa) = 0.01942496
#
# Stress axis : x y z
#
# Youngs Moduli (GPa) = 112.29540 53.68659 87.86003
#
# Poissons Ratio (x) = 0.05795 0.39599
# Poissons Ratio (y) = 0.12121 0.36530
# Poissons Ratio (z) = 0.50612 0.22322
#
# Static dielectric constant tensor:
#      x y z
#    x 1.734870 0.000000 0.000000 
#    y 0.000000 1.725560 0.000000 
#    z 0.000000 0.000000 1.806560 
# 
# From -- ./inp_files/8873.got.cif
#   From: 2010.05.17/outbox.cif.g08.bks.cpg/sg56_5_cif.got.tgz:8873.got - 2010.06.03 13:42:01.
