data_PCOD9431244
_publ_section_title
;
Structure prediction by ZEFSAII (Michael W. Deem and Ramdas Pophale) SiO2 
 PCOD9431244
Probable space group: P C C N
;
_chemical_formula_sum "Si O2"
_cell_formula_units_Z 48
_cell_length_a 20.189881
_cell_length_b 20.757922
_cell_length_c 5.231059
_cell_angle_alpha 90.000000
_cell_angle_beta 90.000000
_cell_angle_gamma 90.000000
_cell_volume 2192.336696
_symmetry_space_group_name_H-M "P C C N"
_symmetry_group_IT_number 56
_symmetry_cell_setting 'orthorhombic'
loop_
_space_group_symop_operation_xyz
x,y,z
1/2-x,1/2-y,z
1/2+x,-y,1/2-z
-x,1/2+y,1/2-z
-x,-y,-z
1/2+x,1/2+y,-z
1/2-x,y,1/2+z
x,1/2-y,1/2+z
loop_
_atom_site_type_symbol
_atom_site_label
_atom_site_fract_x
_atom_site_fract_y
_atom_site_fract_z
Si Si1 0.488228 0.769806 0.691576
Si Si2 0.071896 0.955796 0.783443
Si Si3 0.503343 0.582731 0.282522
Si Si4 0.633139 0.714765 0.648770
Si Si5 0.787221 0.448083 0.938469
Si Si6 0.212515 0.103021 0.538444
O O1 0.449653 0.755722 0.434569
O O2 0.512136 0.842719 0.719259
O O3 0.554361 0.725942 0.670907
O O4 0.020102 0.928127 0.573825
O O5 0.142126 0.931133 0.683816
O O6 0.052232 0.938841 0.073244
O O7 0.063790 0.033632 0.765798
O O8 0.659207 0.759874 0.419089
O O9 0.650242 0.642570 0.567543
O O10 0.766936 0.428020 0.224603
O O11 0.791348 0.526047 0.963859
O O12 0.231880 0.120959 0.826631
#
# Coordination Sequence:
#
# PCOD9431244 Si02
#       6
#     8   8   8   8   8   8
#     4  10  21  36  54  80 111 147 186 234 281 349
#     4  10  21  37  61  82 115 154 188 256 285 357
#     4  10  21  38  57  87 113 151 201 235 303 343
#     4  10  21  33  47  70  93 147 185 232 275 306
#     4  10  21  37  56  83 113 149 192 241 288 335
#     4  10  21  35  49  70 104 145 193 239 265 308
#
# _framework density 21.894445000000001
#
# number of rings (size 3 to 8) (size 9 to 14) (size 15 to 20)
#    0.000    2.000    0.000    3.000    4.667    2.000 
#   12.000    0.000    0.000    0.000    0.000    0.000 
#    0.000   46.667    0.000    0.000    0.000    0.000 
#
# Total GULP energy -267835.649876 kJ/mol
# GULP energy per Si atom -5579.909372 kJ/mol
# Density = 2.184461 g / cm^3
# Si number density = 21.894445 Si / 1000 Ang^3
#
#
#
# Elastic Constant Matrix: (Units=GPa)
#
#
# Indices 1 2 3 4 5 6 
#
# 1 23.2220 -10.7347 -12.0858 0.0000 0.0000 0.0000
# 2 -10.7347 44.2353 11.1919 0.0000 0.0000 0.0000
# 3 -12.0858 11.1919 138.3842 0.0000 0.0000 0.0000
# 4 0.0000 0.0000 0.0000 21.1554 0.0000 0.0000
# 5 0.0000 0.0000 0.0000 0.0000 17.0019 0.0000
# 6 0.0000 0.0000 0.0000 0.0000 0.0000 6.3677
#
#
#
# Elastic Compliance Matrix: (Units=1/GPa)
#
#
# Indices 1 2 3 4 5 6 
#
# 1 0.050077 0.011276 0.003461 0.000000 0.000000 0.000000
# 2 0.011276 0.025618 -0.001087 0.000000 0.000000 0.000000
# 3 0.003461 -0.001087 0.007616 0.000000 0.000000 0.000000
# 4 0.000000 0.000000 0.000000 0.047269 0.000000 0.000000
# 5 0.000000 0.000000 0.000000 0.000000 0.058817 0.000000
# 6 0.000000 0.000000 0.000000 0.000000 0.000000 0.157043
#
#
# Mechanical properties :
#
#
# Convention : Reuss Voigt Hill
#
# Bulk Modulus (GPa) = 9.04052 20.28713 14.66382
# Shear Modulus (GPa) = 14.04458 23.40301 18.72380
#
# Velocity S-wave (km/s) = 2.53547 3.27295 2.92753
# Velocity P-wave (km/s) = 3.56505 4.85479 4.25902
#
# Compressibility (1/GPa) = 0.11061308
#
# Stress axis : x y z
#
# Youngs Moduli (GPa) = 19.96934 39.03520 131.29419
#
# Poissons Ratio (x) = -0.44018 -0.45447
# Poissons Ratio (y) = -0.22518 0.14272
# Poissons Ratio (z) = -0.06912 0.04243
#
# Static dielectric constant tensor:
#      x y z
#    x 1.840880 0.000000 0.000000 
#    y 0.000000 1.807150 0.000000 
#    z 0.000000 0.000000 1.934470 
# 
# From -- ./inp_files/869.got.cif
#   From: 2010.05.17/outbox.cif.g08.bks.cpg/sg56_1_cif.got.tgz:869.got - 2010.06.03 13:42:01.
