data_PCOD9431129
_publ_section_title
;
Structure prediction by ZEFSAII (Michael W. Deem and Ramdas Pophale) SiO2 
 PCOD9431129
Probable space group: P C C N
;
_chemical_formula_sum "Si O2"
_cell_formula_units_Z 40
_cell_length_a 12.925636
_cell_length_b 5.600540
_cell_length_c 24.821096
_cell_angle_alpha 90.000000
_cell_angle_beta 90.000000
_cell_angle_gamma 90.000000
_cell_volume 1796.812579
_symmetry_space_group_name_H-M "P C C N"
_symmetry_group_IT_number 56
_symmetry_cell_setting 'orthorhombic'
loop_
_space_group_symop_operation_xyz
x,y,z
1/2-x,1/2-y,z
1/2+x,-y,1/2-z
-x,1/2+y,1/2-z
-x,-y,-z
1/2+x,1/2+y,-z
1/2-x,y,1/2+z
x,1/2-y,1/2+z
loop_
_atom_site_type_symbol
_atom_site_label
_atom_site_fract_x
_atom_site_fract_y
_atom_site_fract_z
Si Si1 0.064276 0.474543 0.137863
Si Si2 0.989447 0.847479 0.067179
Si Si3 0.363217 0.644080 0.857313
Si Si4 0.869463 0.749630 0.474269
Si Si5 0.936022 0.584835 0.748912
O O1 0.115111 0.379307 0.082962
O O2 0.123015 0.434657 0.193659
O O3 0.038892 0.743895 0.121577
O O4 0.954332 0.341653 0.146518
O O5 0.895787 0.008735 0.088433
O O6 0.934941 0.665176 0.026199
O O7 0.079994 0.990523 0.037389
O O8 0.250000 0.750000 0.860333
O O9 0.371976 0.475270 0.804635
O O10 0.750000 0.750000 0.487391
O O11 0.986088 0.851278 0.746621
#
# Coordination Sequence:
#
# PCOD9431129 Si02
#       5
#     8   8   8   8   8
#     4  10  21  40  64  86 131 169 210 269 329 392
#     4  10  21  42  63  88 129 166 213 273 327 391
#     4  10  22  38  61 100 125 171 222 268 326 395
#     4  10  23  40  61  94 123 165 220 269 333 393
#     4  10  20  41  65  90 132 174 215 272 329 392
#
# _framework density 22.261642999999999
#
# number of rings (size 3 to 8) (size 9 to 14) (size 15 to 20)
#    0.000    2.000    2.000    0.600    2.800    0.800 
#    3.600    0.000    0.000    0.000    0.000    0.000 
#    0.000    0.000    0.000    0.000    0.000    0.000 
#
# Total GULP energy -222900.803994 kJ/mol
# GULP energy per Si atom -5572.520100 kJ/mol
# Density = 2.221097 g / cm^3
# Si number density = 22.261643 Si / 1000 Ang^3
#
#
#
# Elastic Constant Matrix: (Units=GPa)
#
#
# Indices 1 2 3 4 5 6 
#
# 1 84.9963 15.1789 24.6245 0.0000 0.0000 0.0000
# 2 15.1789 50.1748 11.8974 0.0000 0.0000 0.0000
# 3 24.6245 11.8974 128.2380 0.0000 0.0000 0.0000
# 4 0.0000 0.0000 0.0000 42.5720 0.0000 0.0000
# 5 0.0000 0.0000 0.0000 0.0000 16.9847 0.0000
# 6 0.0000 0.0000 0.0000 0.0000 0.0000 0.2485
#
#
#
# Elastic Compliance Matrix: (Units=1/GPa)
#
#
# Indices 1 2 3 4 5 6 
#
# 1 0.013007 -0.003418 -0.002181 0.000000 0.000000 0.000000
# 2 -0.003418 0.021277 -0.001318 0.000000 0.000000 0.000000
# 3 -0.002181 -0.001318 0.008339 0.000000 0.000000 0.000000
# 4 0.000000 0.000000 0.000000 0.023490 0.000000 0.000000
# 5 0.000000 0.000000 0.000000 0.000000 0.058877 0.000000
# 6 0.000000 0.000000 0.000000 0.000000 0.000000 4.024362
#
#
# Mechanical properties :
#
#
# Convention : Reuss Voigt Hill
#
# Bulk Modulus (GPa) = 34.73341 40.75674 37.74508
# Shear Modulus (GPa) = 1.19824 26.07493 13.63658
#
# Velocity S-wave (km/s) = 0.73445 3.42613 2.47768
# Velocity P-wave (km/s) = 4.04419 5.83086 5.01769
#
# Compressibility (1/GPa) = 0.02879072
#
# Stress axis : x y z
#
# Youngs Moduli (GPa) = 76.87960 46.99964 119.91896
#
# Poissons Ratio (x) = 0.16064 0.26149
# Poissons Ratio (y) = 0.26277 0.15801
# Poissons Ratio (z) = 0.16764 0.06193
#
# Static dielectric constant tensor:
#      x y z
#    x 1.768280 0.000000 0.000000 
#    y 0.000000 1.933170 0.000000 
#    z 0.000000 0.000000 1.934290 
# 
# From -- ./inp_files/21490.got.cif
#   From: 2010.05.17/outbox.cif.g08.bks.cpg/sg56_11_cif.got.tgz:21490.got - 2010.06.03 13:42:01.
