data_PCOD9431238
_publ_section_title
;
Structure prediction by ZEFSAII (Michael W. Deem and Ramdas Pophale) SiO2 
 PCOD9431238
Probable space group: P C C N
;
_chemical_formula_sum "Si O2"
_cell_formula_units_Z 32
_cell_length_a 9.197796
_cell_length_b 17.453618
_cell_length_c 7.979126
_cell_angle_alpha 90.000000
_cell_angle_beta 90.000000
_cell_angle_gamma 90.000000
_cell_volume 1280.927539
_symmetry_space_group_name_H-M "P C C N"
_symmetry_group_IT_number 56
_symmetry_cell_setting 'orthorhombic'
loop_
_space_group_symop_operation_xyz
x,y,z
1/2-x,1/2-y,z
1/2+x,-y,1/2-z
-x,1/2+y,1/2-z
-x,-y,-z
1/2+x,1/2+y,-z
1/2-x,y,1/2+z
x,1/2-y,1/2+z
loop_
_atom_site_type_symbol
_atom_site_label
_atom_site_fract_x
_atom_site_fract_y
_atom_site_fract_z
Si Si1 0.771614 0.161886 0.537355
Si Si2 0.057450 0.355611 0.590854
Si Si3 0.037537 0.419048 0.919791
Si Si4 0.944030 0.681775 0.782663
O O1 0.750000 0.250000 0.491104
O O2 0.885407 0.372935 0.562563
O O3 0.879822 0.121617 0.408752
O O4 0.882432 0.165369 0.697086
O O5 0.104619 0.415800 0.734592
O O6 0.076534 0.271781 0.679278
O O7 0.107359 0.344258 0.398976
O O8 0.117612 0.367690 0.061879
O O9 0.000000 0.500000 0.000000
#
# Coordination Sequence:
#
# PCOD9431238 Si02
#       4
#     8   8   8   8
#     4   8  16  29  45  70  94 136 175 199 245 311
#     4  11  15  30  47  68  95 132 178 200 239 325
#     4  10  21  30  43  73 112 131 165 221 263 286
#     4   9  18  25  46  67  90 132 170 197 255 291
#
# _framework density 24.9819
#
# number of rings (size 3 to 8) (size 9 to 14) (size 15 to 20)
#    1.500    1.000    2.500    1.500    0.000    5.000 
#    0.000    0.000    0.000    0.000    0.000    0.000 
#    0.000    6.000    0.000    0.000    0.000    0.000 
#
# Total GULP energy -178422.998489 kJ/mol
# GULP energy per Si atom -5575.718703 kJ/mol
# Density = 2.492504 g / cm^3
# Si number density = 24.981900 Si / 1000 Ang^3
#
#
#
# Elastic Constant Matrix: (Units=GPa)
#
#
# Indices 1 2 3 4 5 6 
#
# 1 88.4395 -10.0753 18.4969 0.0000 0.0000 0.0000
# 2 -10.0753 26.7621 -12.0767 0.0000 0.0000 0.0000
# 3 18.4969 -12.0767 149.8905 0.0000 0.0000 0.0000
# 4 0.0000 0.0000 0.0000 23.0163 0.0000 0.0000
# 5 0.0000 0.0000 0.0000 0.0000 35.7088 0.0000
# 6 0.0000 0.0000 0.0000 0.0000 0.0000 1.3913
#
#
#
# Elastic Compliance Matrix: (Units=1/GPa)
#
#
# Indices 1 2 3 4 5 6 
#
# 1 0.012005 0.003996 -0.001159 0.000000 0.000000 0.000000
# 2 0.003996 0.040107 0.002738 0.000000 0.000000 0.000000
# 3 -0.001159 0.002738 0.007035 0.000000 0.000000 0.000000
# 4 0.000000 0.000000 0.000000 0.043447 0.000000 0.000000
# 5 0.000000 0.000000 0.000000 0.000000 0.028004 0.000000
# 6 0.000000 0.000000 0.000000 0.000000 0.000000 0.718757
#
#
# Mechanical properties :
#
#
# Convention : Reuss Voigt Hill
#
# Bulk Modulus (GPa) = 14.22537 28.64243 21.43390
# Shear Modulus (GPa) = 5.80291 29.93977 17.87134
#
# Velocity S-wave (km/s) = 1.52574 3.46563 2.67754
# Velocity P-wave (km/s) = 2.96825 5.24445 4.26115
#
# Compressibility (1/GPa) = 0.07029692
#
# Stress axis : x y z
#
# Youngs Moduli (GPa) = 83.29905 24.93361 142.14168
#
# Poissons Ratio (x) = -0.09964 0.16481
# Poissons Ratio (y) = -0.33289 -0.38922
# Poissons Ratio (z) = 0.09658 -0.06827
#
# Static dielectric constant tensor:
#      x y z
#    x 3.701640 0.000000 0.000000 
#    y 0.000000 1.802790 0.000000 
#    z 0.000000 0.000000 2.082450 
# 
# From -- ./inp_files/3919.got.cif
#   From: 2010.05.17/outbox.cif.g08.bks.cpg/sg56_2_cif.got.tgz:3919.got - 2010.06.03 13:42:01.
