data_PCOD9431837
_publ_section_title
;
Structure prediction by ZEFSAII (Michael W. Deem and Ramdas Pophale) SiO2 
 PCOD9431837
Probable space group: P C C N
;
_chemical_formula_sum "Si O2"
_cell_formula_units_Z 48
_cell_length_a 7.361711
_cell_length_b 18.520705
_cell_length_c 14.510251
_cell_angle_alpha 90.000000
_cell_angle_beta 90.000000
_cell_angle_gamma 90.000000
_cell_volume 1978.386790
_symmetry_space_group_name_H-M "P C C N"
_symmetry_group_IT_number 56
_symmetry_cell_setting 'orthorhombic'
loop_
_space_group_symop_operation_xyz
x,y,z
1/2-x,1/2-y,z
1/2+x,-y,1/2-z
-x,1/2+y,1/2-z
-x,-y,-z
1/2+x,1/2+y,-z
1/2-x,y,1/2+z
x,1/2-y,1/2+z
loop_
_atom_site_type_symbol
_atom_site_label
_atom_site_fract_x
_atom_site_fract_y
_atom_site_fract_z
Si Si1 0.263123 0.946528 0.957659
Si Si2 0.134123 0.689465 0.023789
Si Si3 0.076327 0.291625 0.621678
Si Si4 0.229708 0.497293 0.762996
Si Si5 0.189371 0.074542 0.585098
Si Si6 0.421647 0.619455 0.710242
O O1 0.196899 0.982350 0.864095
O O2 0.480901 0.927619 0.948281
O O3 0.213376 0.865133 0.981509
O O4 0.228266 0.004035 0.036453
O O5 0.250000 0.750000 0.075203
O O6 0.036473 0.651417 0.110015
O O7 0.023735 0.732540 0.944185
O O8 0.250000 0.250000 0.665389
O O9 0.181277 0.357320 0.568818
O O10 0.959047 0.326443 0.705204
O O11 0.318038 0.439901 0.693529
O O12 0.227800 0.577836 0.717642
O O13 0.046895 0.452008 0.781147
#
# Coordination Sequence:
#
# PCOD9431837 Si02
#       6
#     8   8   8   8   8   8
#     4  11  20  41  73  97 139 184 231 292 349 410
#     4  12  26  48  70 104 145 195 229 294 374 436
#     4  11  25  46  70 103 148 182 240 293 364 433
#     4  11  21  42  72 103 134 179 240 301 342 420
#     4  10  21  43  68 101 132 184 235 285 343 428
#     4  11  25  46  70 108 140 188 245 290 369 424
#
# _framework density 24.262191000000001
#
# number of rings (size 3 to 8) (size 9 to 14) (size 15 to 20)
#    0.000    1.000    5.000    2.000    0.000    2.667 
#    6.000    2.500    0.000    0.000    0.000    0.000 
#    0.000    0.000    0.000    0.000    0.000    0.000 
#
# Total GULP energy -267328.917509 kJ/mol
# GULP energy per Si atom -5569.352448 kJ/mol
# Density = 2.420697 g / cm^3
# Si number density = 24.262191 Si / 1000 Ang^3
#
#
#
# Elastic Constant Matrix: (Units=GPa)
#
#
# Indices 1 2 3 4 5 6 
#
# 1 51.0183 32.3066 21.5661 0.0000 0.0000 0.0000
# 2 32.3066 151.9882 54.4350 0.0000 0.0000 0.0000
# 3 21.5661 54.4350 129.9767 0.0000 0.0000 0.0000
# 4 0.0000 0.0000 0.0000 28.1340 0.0000 0.0000
# 5 0.0000 0.0000 0.0000 0.0000 19.9863 0.0000
# 6 0.0000 0.0000 0.0000 0.0000 0.0000 37.8962
#
#
#
# Elastic Compliance Matrix: (Units=1/GPa)
#
#
# Indices 1 2 3 4 5 6 
#
# 1 0.023123 -0.004166 -0.002092 0.000000 0.000000 0.000000
# 2 -0.004166 0.008491 -0.002865 0.000000 0.000000 0.000000
# 3 -0.002092 -0.002865 0.009241 0.000000 0.000000 0.000000
# 4 0.000000 0.000000 0.000000 0.035544 0.000000 0.000000
# 5 0.000000 0.000000 0.000000 0.000000 0.050034 0.000000
# 6 0.000000 0.000000 0.000000 0.000000 0.000000 0.026388
#
#
# Mechanical properties :
#
#
# Convention : Reuss Voigt Hill
#
# Bulk Modulus (GPa) = 44.22949 61.06652 52.64801
# Shear Modulus (GPa) = 27.99508 32.18167 30.08838
#
# Velocity S-wave (km/s) = 3.40053 3.64595 3.52537
# Velocity P-wave (km/s) = 5.80410 6.55347 6.19013
#
# Compressibility (1/GPa) = 0.02260935
#
# Stress axis : x y z
#
# Youngs Moduli (GPa) = 43.24693 117.77178 108.21779
#
# Poissons Ratio (x) = 0.49061 0.22639
# Poissons Ratio (y) = 0.18016 0.31003
# Poissons Ratio (z) = 0.09047 0.33740
#
# Static dielectric constant tensor:
#      x y z
#    x 2.334140 0.000000 0.000000 
#    y 0.000000 2.152320 0.000000 
#    z 0.000000 0.000000 1.934080 
# 
# From -- ./inp_files/10655.got.cif
#   From: 2010.05.17/outbox.cif.g08.bks.cpg/sg56_6_cif.got.tgz:10655.got - 2010.06.03 13:42:01.
