data_PCOD9431049
_publ_section_title
;
Structure prediction by ZEFSAII (Michael W. Deem and Ramdas Pophale) SiO2 
 PCOD9431049
Probable space group: P C C N
;
_chemical_formula_sum "Si O2"
_cell_formula_units_Z 48
_cell_length_a 13.446611
_cell_length_b 9.928484
_cell_length_c 18.176670
_cell_angle_alpha 90.000000
_cell_angle_beta 90.000000
_cell_angle_gamma 90.000000
_cell_volume 2426.666552
_symmetry_space_group_name_H-M "P C C N"
_symmetry_group_IT_number 56
_symmetry_cell_setting 'orthorhombic'
loop_
_space_group_symop_operation_xyz
x,y,z
1/2-x,1/2-y,z
1/2+x,-y,1/2-z
-x,1/2+y,1/2-z
-x,-y,-z
1/2+x,1/2+y,-z
1/2-x,y,1/2+z
x,1/2-y,1/2+z
loop_
_atom_site_type_symbol
_atom_site_label
_atom_site_fract_x
_atom_site_fract_y
_atom_site_fract_z
Si Si1 0.816951 0.622683 0.656541
Si Si2 0.159314 0.850324 0.052597
Si Si3 0.542070 0.205254 0.594215
Si Si4 0.476205 0.568319 0.175638
Si Si5 0.822103 0.124368 0.699758
Si Si6 0.658654 0.844676 0.482393
O O1 0.750000 0.750000 0.674590
O O2 0.751053 0.489516 0.668170
O O3 0.847834 0.633219 0.570396
O O4 0.918819 0.626936 0.702884
O O5 0.250000 0.750000 0.068557
O O6 0.069780 0.839146 0.110840
O O7 0.180241 0.010246 0.054072
O O8 0.120216 0.825961 0.970423
O O9 0.596091 0.318220 0.642453
O O10 0.439317 0.225571 0.550321
O O11 0.512884 0.075786 0.643906
O O12 0.388170 0.564180 0.234417
O O13 0.750000 0.250000 0.721077
O O14 0.750000 0.750000 0.467642
#
# Coordination Sequence:
#
# PCOD9431049 Si02
#       6
#     8   8   8   8   8   8
#     4  11  23  42  65  93 131 168 210 268 332 370
#     4  11  20  40  69  93 123 173 216 263 315 378
#     4  11  21  43  69  92 125 173 217 264 318 385
#     4  11  23  42  62  96 130 169 215 269 319 383
#     4  12  25  43  65  94 128 175 220 261 322 406
#     4  10  20  40  63  95 126 159 211 269 316 375
#
# _framework density 19.780221000000001
#
# number of rings (size 3 to 8) (size 9 to 14) (size 15 to 20)
#    0.000    1.000    5.000    3.000    2.333    0.000 
#    9.000    2.500    0.000    0.000    0.000    0.000 
#    0.000    0.000    0.000    0.000    0.000    0.000 
#
# Total GULP energy -267746.120438 kJ/mol
# GULP energy per Si atom -5578.044176 kJ/mol
# Density = 1.973520 g / cm^3
# Si number density = 19.780221 Si / 1000 Ang^3
#
#
#
# Elastic Constant Matrix: (Units=GPa)
#
#
# Indices 1 2 3 4 5 6 
#
# 1 168.2254 62.4344 41.0281 0.0000 0.0000 0.0000
# 2 62.4344 67.9646 13.0252 0.0000 0.0000 0.0000
# 3 41.0281 13.0252 67.9013 0.0000 0.0000 0.0000
# 4 0.0000 0.0000 0.0000 7.6384 0.0000 0.0000
# 5 0.0000 0.0000 0.0000 0.0000 32.8327 0.0000
# 6 0.0000 0.0000 0.0000 0.0000 0.0000 42.7873
#
#
#
# Elastic Compliance Matrix: (Units=1/GPa)
#
#
# Indices 1 2 3 4 5 6 
#
# 1 0.010209 -0.008509 -0.004536 0.000000 0.000000 0.000000
# 2 -0.008509 0.022367 0.000851 0.000000 0.000000 0.000000
# 3 -0.004536 0.000851 0.017305 0.000000 0.000000 0.000000
# 4 0.000000 0.000000 0.000000 0.130918 0.000000 0.000000
# 5 0.000000 0.000000 0.000000 0.000000 0.030457 0.000000
# 6 0.000000 0.000000 0.000000 0.000000 0.000000 0.023371
#
#
# Mechanical properties :
#
#
# Convention : Reuss Voigt Hill
#
# Bulk Modulus (GPa) = 39.22788 59.67408 49.45098
# Shear Modulus (GPa) = 18.69072 29.15858 23.92465
#
# Velocity S-wave (km/s) = 3.07729 3.84360 3.48159
# Velocity P-wave (km/s) = 5.70098 7.06624 6.42001
#
# Compressibility (1/GPa) = 0.02549207
#
# Stress axis : x y z
#
# Youngs Moduli (GPa) = 97.95721 44.70925 57.78682
#
# Poissons Ratio (x) = 0.38041 0.26213
# Poissons Ratio (y) = 0.83347 -0.04915
# Poissons Ratio (z) = 0.44435 -0.03803
#
# Static dielectric constant tensor:
#      x y z
#    x 1.707750 0.000000 0.000000 
#    y 0.000000 1.688850 0.000000 
#    z 0.000000 0.000000 1.741590 
# 
# From -- ./inp_files/15601.got.cif
#   From: 2010.05.17/outbox.cif.g08.bks.cpg/sg56_8_cif.got.tgz:15601.got - 2010.06.03 13:42:01.
