data_PCOD9431496
_publ_section_title
;
Structure prediction by ZEFSAII (Michael W. Deem and Ramdas Pophale) SiO2 
 PCOD9431496
Probable space group: P C C N
;
_chemical_formula_sum "Si O2"
_cell_formula_units_Z 60
_cell_length_a 8.701791
_cell_length_b 26.771550
_cell_length_c 11.940761
_cell_angle_alpha 90.000000
_cell_angle_beta 90.000000
_cell_angle_gamma 90.000000
_cell_volume 2781.724851
_symmetry_space_group_name_H-M "P C C N"
_symmetry_group_IT_number 56
_symmetry_cell_setting 'orthorhombic'
loop_
_space_group_symop_operation_xyz
x,y,z
1/2-x,1/2-y,z
1/2+x,-y,1/2-z
-x,1/2+y,1/2-z
-x,-y,-z
1/2+x,1/2+y,-z
1/2-x,y,1/2+z
x,1/2-y,1/2+z
loop_
_atom_site_type_symbol
_atom_site_label
_atom_site_fract_x
_atom_site_fract_y
_atom_site_fract_z
Si Si1 0.750000 0.250000 0.539558
Si Si2 0.982274 0.918494 0.774109
Si Si3 0.159256 0.488555 0.562024
Si Si4 0.044019 0.058160 0.483687
Si Si5 0.657783 0.679365 0.875522
Si Si6 0.952890 0.175542 0.919549
Si Si7 0.986133 0.787042 0.324079
Si Si8 0.755933 0.409005 0.536774
O O1 0.624572 0.226424 0.460149
O O2 0.652408 0.287373 0.617055
O O3 0.889090 0.967086 0.818241
O O4 0.987783 0.923413 0.641689
O O5 0.889795 0.868529 0.804369
O O6 0.138894 0.915287 0.850791
O O7 0.273704 0.446309 0.511259
O O8 0.231533 0.542642 0.544405
O O9 0.000000 0.500000 0.500000
O O10 0.927331 0.091064 0.560080
O O11 0.000000 0.000000 0.500000
O O12 0.598612 0.669502 0.000702
O O13 0.567312 0.727943 0.823380
O O14 0.838019 0.689127 0.881778
O O15 0.830861 0.134327 0.961433
O O16 0.995100 0.184008 0.792306
#
# Coordination Sequence:
#
# PCOD9431496 Si02
#       8
#     4   8   8   8   8   8   8   8
#     4  10  22  36  56  88 114 152 204 244 314 386
#     4  10  21  40  61  87 127 160 203 266 302 364
#     4   9  20  38  59  86 119 156 202 251 307 370
#     4  10  22  38  60  90 119 162 208 246 314 373
#     4   9  22  39  60  89 118 161 211 248 314 380
#     4  10  21  39  60  84 119 157 199 259 311 366
#     4  10  21  39  60  86 121 157 201 257 310 374
#     4   9  21  39  59  86 118 157 206 251 308 372
#
# _framework density 21.569353
#
# number of rings (size 3 to 8) (size 9 to 14) (size 15 to 20)
#    0.000    2.400    0.000    0.400    0.000   19.200 
#    0.000    1.333    0.000    0.000    0.000    0.000 
#    0.000    0.000    0.000    0.000    0.000    0.000 
#
# Total GULP energy -334124.478110 kJ/mol
# GULP energy per Si atom -5568.741302 kJ/mol
# Density = 2.152026 g / cm^3
# Si number density = 21.569353 Si / 1000 Ang^3
#
#
#
# Elastic Constant Matrix: (Units=GPa)
#
#
# Indices 1 2 3 4 5 6 
#
# 1 122.9398 7.6698 25.2318 0.0000 0.0000 0.0000
# 2 7.6698 44.3380 -1.1500 0.0000 0.0000 0.0000
# 3 25.2318 -1.1500 33.5310 0.0000 0.0000 0.0000
# 4 0.0000 0.0000 0.0000 29.0298 0.0000 0.0000
# 5 0.0000 0.0000 0.0000 0.0000 11.7126 0.0000
# 6 0.0000 0.0000 0.0000 0.0000 0.0000 33.4754
#
#
#
# Elastic Compliance Matrix: (Units=1/GPa)
#
#
# Indices 1 2 3 4 5 6 
#
# 1 0.009774 -0.001883 -0.007420 0.000000 0.000000 0.000000
# 2 -0.001883 0.022937 0.002204 0.000000 0.000000 0.000000
# 3 -0.007420 0.002204 0.035482 0.000000 0.000000 0.000000
# 4 0.000000 0.000000 0.000000 0.034447 0.000000 0.000000
# 5 0.000000 0.000000 0.000000 0.000000 0.085378 0.000000
# 6 0.000000 0.000000 0.000000 0.000000 0.000000 0.029873
#
#
# Mechanical properties :
#
#
# Convention : Reuss Voigt Hill
#
# Bulk Modulus (GPa) = 18.52024 29.36801 23.94413
# Shear Modulus (GPa) = 19.99292 26.11401 23.05347
#
# Velocity S-wave (km/s) = 3.04783 3.48329 3.27281
# Velocity P-wave (km/s) = 4.58156 5.46103 5.04051
#
# Compressibility (1/GPa) = 0.05399497
#
# Stress axis : x y z
#
# Youngs Moduli (GPa) = 102.30849 43.59773 28.18330
#
# Poissons Ratio (x) = 0.08211 0.20911
# Poissons Ratio (y) = 0.19267 -0.06211
# Poissons Ratio (z) = 0.75910 -0.09608
#
# Static dielectric constant tensor:
#      x y z
#    x 2.044530 0.000000 0.000000 
#    y 0.000000 1.845610 0.000000 
#    z 0.000000 0.000000 1.739450 
# 
# From -- ./inp_files/6591.got.cif
#   From: 2010.05.17/outbox.cif.g08.bks.cpg/sg56_4_cif.got.tgz:6591.got - 2010.06.03 13:42:01.
