data_PCOD9431320
_publ_section_title
;
Structure prediction by ZEFSAII (Michael W. Deem and Ramdas Pophale) SiO2 
 PCOD9431320
Probable space group: P C C N
;
_chemical_formula_sum "Si O2"
_cell_formula_units_Z 60
_cell_length_a 6.697185
_cell_length_b 17.143699
_cell_length_c 27.300088
_cell_angle_alpha 90.000000
_cell_angle_beta 90.000000
_cell_angle_gamma 90.000000
_cell_volume 3134.446603
_symmetry_space_group_name_H-M "P C C N"
_symmetry_group_IT_number 56
_symmetry_cell_setting 'orthorhombic'
loop_
_space_group_symop_operation_xyz
x,y,z
1/2-x,1/2-y,z
1/2+x,-y,1/2-z
-x,1/2+y,1/2-z
-x,-y,-z
1/2+x,1/2+y,-z
1/2-x,y,1/2+z
x,1/2-y,1/2+z
loop_
_atom_site_type_symbol
_atom_site_label
_atom_site_fract_x
_atom_site_fract_y
_atom_site_fract_z
Si Si1 0.095811 0.950123 0.919405
Si Si2 0.312980 0.331717 0.032169
Si Si3 0.062074 0.876254 0.059626
Si Si4 0.475874 0.888466 0.227867
Si Si5 0.918664 0.413475 0.002274
Si Si6 0.181259 0.500296 0.311876
Si Si7 0.750000 0.750000 0.227097
Si Si8 0.919170 0.351385 0.327970
O O1 0.267785 0.912955 0.952376
O O2 0.906725 0.894381 0.930315
O O3 0.172800 0.957799 0.864341
O O4 0.042653 0.037851 0.938035
O O5 0.250000 0.250000 0.055598
O O6 0.106936 0.360826 0.010027
O O7 0.459539 0.328445 0.984593
O O8 0.061228 0.841107 0.113652
O O9 0.289808 0.891252 0.044622
O O10 0.619340 0.949442 0.198678
O O11 0.623049 0.821717 0.250413
O O12 0.305691 0.850060 0.193136
O O13 0.363119 0.937676 0.269518
O O14 0.000000 0.500000 0.000000
O O15 0.001727 0.437674 0.315011
O O16 0.577469 0.706580 0.196502
#
# Coordination Sequence:
#
# PCOD9431320 Si02
#       8
#     8   8   8   8   8   8   4   8
#     4  10  21  38  59  91 115 154 210 251 297 373
#     4  11  23  39  58  85 130 158 204 257 301 359
#     4  10  21  36  61  91 117 155 204 244 299 375
#     4  11  21  42  63  91 123 162 203 262 315 373
#     4  11  19  36  63  83 115 163 196 240 300 354
#     4  10  22  38  67  91 119 153 212 261 307 372
#     4  10  24  40  60  88 130 160 194 254 318 382
#     4  10  22  39  62  92 125 156 200 251 317 375
#
# _framework density 19.142135
#
# number of rings (size 3 to 8) (size 9 to 14) (size 15 to 20)
#    0.000    1.600    4.000    1.200    2.800    3.200 
#    3.600    0.000    2.933    0.000    0.000    0.000 
#    0.000    0.000    0.000    0.000    0.000    0.000 
#
# Total GULP energy -334494.010650 kJ/mol
# GULP energy per Si atom -5574.900177 kJ/mol
# Density = 1.909857 g / cm^3
# Si number density = 19.142135 Si / 1000 Ang^3
#
#
#
# Elastic Constant Matrix: (Units=GPa)
#
#
# Indices 1 2 3 4 5 6 
#
# 1 98.5020 11.1837 11.7807 0.0000 0.0000 0.0000
# 2 11.1837 59.0210 8.8635 0.0000 0.0000 0.0000
# 3 11.7807 8.8635 58.9446 0.0000 0.0000 0.0000
# 4 0.0000 0.0000 0.0000 10.5351 0.0000 0.0000
# 5 0.0000 0.0000 0.0000 0.0000 13.5172 0.0000
# 6 0.0000 0.0000 0.0000 0.0000 0.0000 30.0581
#
#
#
# Elastic Compliance Matrix: (Units=1/GPa)
#
#
# Indices 1 2 3 4 5 6 
#
# 1 0.010570 -0.001724 -0.001853 0.000000 0.000000 0.000000
# 2 -0.001724 0.017616 -0.002304 0.000000 0.000000 0.000000
# 3 -0.001853 -0.002304 0.017682 0.000000 0.000000 0.000000
# 4 0.000000 0.000000 0.000000 0.094920 0.000000 0.000000
# 5 0.000000 0.000000 0.000000 0.000000 0.073980 0.000000
# 6 0.000000 0.000000 0.000000 0.000000 0.000000 0.033269
#
#
# Mechanical properties :
#
#
# Convention : Reuss Voigt Hill
#
# Bulk Modulus (GPa) = 29.32236 31.12481 30.22359
# Shear Modulus (GPa) = 18.43876 23.13142 20.78509
#
# Velocity S-wave (km/s) = 3.10700 3.47998 3.29877
# Velocity P-wave (km/s) = 5.31251 5.69580 5.50749
#
# Compressibility (1/GPa) = 0.03410367
#
# Stress axis : x y z
#
# Youngs Moduli (GPa) = 94.61185 56.76684 56.55495
#
# Poissons Ratio (x) = 0.09789 0.10480
# Poissons Ratio (y) = 0.16316 0.13032
# Poissons Ratio (z) = 0.17533 0.13080
#
# Static dielectric constant tensor:
#      x y z
#    x 1.725540 0.000000 0.000000 
#    y 0.000000 1.677150 0.000000 
#    z 0.000000 0.000000 1.656690 
# 
# From -- ./inp_files/21810.got.cif
#   From: 2010.05.17/outbox.cif.g08.bks.cpg/sg56_11_cif.got.tgz:21810.got - 2010.06.03 13:42:01.
