data_PCOD9431720
_publ_section_title
;
Structure prediction by ZEFSAII (Michael W. Deem and Ramdas Pophale) SiO2 
 PCOD9431720
Probable space group: P C C N
;
_chemical_formula_sum "Si O2"
_cell_formula_units_Z 56
_cell_length_a 21.638451
_cell_length_b 9.205035
_cell_length_c 13.554154
_cell_angle_alpha 90.000000
_cell_angle_beta 90.000000
_cell_angle_gamma 90.000000
_cell_volume 2699.752974
_symmetry_space_group_name_H-M "P C C N"
_symmetry_group_IT_number 56
_symmetry_cell_setting 'orthorhombic'
loop_
_space_group_symop_operation_xyz
x,y,z
1/2-x,1/2-y,z
1/2+x,-y,1/2-z
-x,1/2+y,1/2-z
-x,-y,-z
1/2+x,1/2+y,-z
1/2-x,y,1/2+z
x,1/2-y,1/2+z
loop_
_atom_site_type_symbol
_atom_site_label
_atom_site_fract_x
_atom_site_fract_y
_atom_site_fract_z
Si Si1 0.020119 0.270008 0.536296
Si Si2 0.250000 0.750000 0.333381
Si Si3 0.630598 0.110878 0.752821
Si Si4 0.817702 0.969646 0.616960
Si Si5 0.646313 0.877936 0.905013
Si Si6 0.058971 0.892153 0.322230
Si Si7 0.532675 0.949566 0.648931
Si Si8 0.750000 0.750000 0.760880
O O1 0.085435 0.218028 0.578758
O O2 0.998819 0.417401 0.590726
O O3 0.968897 0.154779 0.572011
O O4 0.026138 0.309553 0.421109
O O5 0.300422 0.836431 0.269495
O O6 0.287573 0.629454 0.393574
O O7 0.588704 0.252350 0.733167
O O8 0.627658 0.033484 0.858130
O O9 0.603047 0.993058 0.674912
O O10 0.822742 0.897533 0.510939
O O11 0.777459 0.875350 0.691571
O O12 0.886278 0.994262 0.661250
O O13 0.694756 0.808594 0.829235
O O14 0.003437 0.938751 0.251672
#
# Coordination Sequence:
#
# PCOD9431720 Si02
#       8
#     8   4   8   8   8   8   8   4
#     4  10  23  39  65  99 133 176 223 273 352 418
#     4  10  22  50  66  92 134 182 232 288 338 410
#     4  10  22  40  67  92 131 178 221 280 345 399
#     4  11  26  43  70  99 133 182 236 284 349 422
#     4  12  25  41  68 101 130 178 232 288 342 413
#     4  10  22  42  66  98 135 177 219 280 352 414
#     4  10  21  41  64  97 139 176 217 282 345 420
#     4  12  26  48  66  98 142 182 232 296 356 398
#
# _framework density 20.742640000000002
#
# number of rings (size 3 to 8) (size 9 to 14) (size 15 to 20)
#    0.000    1.429    2.857    1.286    4.000    4.571 
#    0.000    0.000    0.000    0.000    0.000    0.000 
#    0.000    0.000    0.000    0.000    0.000    0.000 
#
# Total GULP energy -312893.638955 kJ/mol
# GULP energy per Si atom -5587.386410 kJ/mol
# Density = 2.069543 g / cm^3
# Si number density = 20.742640 Si / 1000 Ang^3
#
#
#
# Elastic Constant Matrix: (Units=GPa)
#
#
# Indices 1 2 3 4 5 6 
#
# 1 129.2101 41.6810 46.8859 0.0000 0.0000 0.0000
# 2 41.6810 50.4567 32.7522 0.0000 0.0000 0.0000
# 3 46.8859 32.7522 97.9271 0.0000 0.0000 0.0000
# 4 0.0000 0.0000 0.0000 17.8872 0.0000 0.0000
# 5 0.0000 0.0000 0.0000 0.0000 15.6834 0.0000
# 6 0.0000 0.0000 0.0000 0.0000 0.0000 27.6362
#
#
#
# Elastic Compliance Matrix: (Units=1/GPa)
#
#
# Indices 1 2 3 4 5 6 
#
# 1 0.011155 -0.007342 -0.002885 0.000000 0.000000 0.000000
# 2 -0.007342 0.030147 -0.006568 0.000000 0.000000 0.000000
# 3 -0.002885 -0.006568 0.013790 0.000000 0.000000 0.000000
# 4 0.000000 0.000000 0.000000 0.055906 0.000000 0.000000
# 5 0.000000 0.000000 0.000000 0.000000 0.063762 0.000000
# 6 0.000000 0.000000 0.000000 0.000000 0.000000 0.036184
#
#
# Mechanical properties :
#
#
# Convention : Reuss Voigt Hill
#
# Bulk Modulus (GPa) = 46.50723 57.80357 52.15540
# Shear Modulus (GPa) = 19.86493 22.65968 21.26231
#
# Velocity S-wave (km/s) = 3.09801 3.30876 3.20512
# Velocity P-wave (km/s) = 5.93857 6.52110 6.23664
#
# Compressibility (1/GPa) = 0.02150203
#
# Stress axis : x y z
#
# Youngs Moduli (GPa) = 89.64936 33.17079 72.51819
#
# Poissons Ratio (x) = 0.24353 0.20923
# Poissons Ratio (y) = 0.65818 0.47628
# Poissons Ratio (z) = 0.25865 0.21786
#
# Static dielectric constant tensor:
#      x y z
#    x 1.743360 0.000000 0.000000 
#    y 0.000000 1.770300 0.000000 
#    z 0.000000 0.000000 1.705070 
# 
# From -- ./inp_files/13103.got.cif
#   From: 2010.05.17/outbox.cif.g08.bks.cpg/sg56_7_cif.got.tgz:13103.got - 2010.06.03 13:42:01.
