data_PCOD9431453
_publ_section_title
;
Structure prediction by ZEFSAII (Michael W. Deem and Ramdas Pophale) SiO2 
 PCOD9431453
Probable space group: P C C N
;
_chemical_formula_sum "Si O2"
_cell_formula_units_Z 48
_cell_length_a 9.589923
_cell_length_b 12.409231
_cell_length_c 18.623440
_cell_angle_alpha 90.000000
_cell_angle_beta 90.000000
_cell_angle_gamma 90.000000
_cell_volume 2216.255842
_symmetry_space_group_name_H-M "P C C N"
_symmetry_group_IT_number 56
_symmetry_cell_setting 'orthorhombic'
loop_
_space_group_symop_operation_xyz
x,y,z
1/2-x,1/2-y,z
1/2+x,-y,1/2-z
-x,1/2+y,1/2-z
-x,-y,-z
1/2+x,1/2+y,-z
1/2-x,y,1/2+z
x,1/2-y,1/2+z
loop_
_atom_site_type_symbol
_atom_site_label
_atom_site_fract_x
_atom_site_fract_y
_atom_site_fract_z
Si Si1 0.472780 0.581946 0.596836
Si Si2 0.986088 0.135945 0.685215
Si Si3 0.750000 0.750000 0.866834
Si Si4 0.667493 0.088532 0.478486
Si Si5 0.250000 0.750000 0.906016
Si Si6 0.093270 0.702749 0.662024
Si Si7 0.757364 0.872212 0.508168
O O1 0.476811 0.477406 0.647772
O O2 0.327011 0.591341 0.553739
O O3 0.490822 0.688033 0.646050
O O4 0.597001 0.584906 0.539083
O O5 0.852343 0.179814 0.642300
O O6 0.950758 0.134779 0.769092
O O7 0.111937 0.221853 0.676397
O O8 0.757728 0.848740 0.923075
O O9 0.658086 0.176190 0.541183
O O10 0.585601 0.130236 0.409251
O O11 0.651502 0.971617 0.514712
O O12 0.250000 0.750000 0.672784
O O13 0.750000 0.750000 0.538495
#
# Coordination Sequence:
#
# PCOD9431453 Si02
#       7
#     8   8   4   8   4   8   8
#     4  11  20  42  70  87 140 186 224 275 365 415
#     4  12  24  45  68 102 137 188 224 287 354 422
#     4  10  24  38  66  98 144 164 232 280 344 410
#     4  11  20  39  70  97 128 180 228 290 329 413
#     4  12  22  38  82 100 124 178 244 272 344 414
#     4  10  24  42  65  99 136 175 243 278 340 423
#     4  10  21  38  64 103 134 171 231 290 346 399
#
# _framework density 21.658148000000001
#
# number of rings (size 3 to 8) (size 9 to 14) (size 15 to 20)
#    0.500    0.667    6.667    1.500    0.000    1.333 
#    1.500    5.000    0.000    0.000    0.000    0.000 
#    0.000    0.000    0.000    0.000    0.000    0.000 
#
# Total GULP energy -267710.463534 kJ/mol
# GULP energy per Si atom -5577.301324 kJ/mol
# Density = 2.160885 g / cm^3
# Si number density = 21.658148 Si / 1000 Ang^3
#
#
#
# Elastic Constant Matrix: (Units=GPa)
#
#
# Indices 1 2 3 4 5 6 
#
# 1 55.2077 21.0577 36.1094 0.0000 0.0000 0.0000
# 2 21.0577 129.4872 49.9922 0.0000 0.0000 0.0000
# 3 36.1094 49.9922 96.4517 0.0000 0.0000 0.0000
# 4 0.0000 0.0000 0.0000 34.1411 0.0000 0.0000
# 5 0.0000 0.0000 0.0000 0.0000 12.0314 0.0000
# 6 0.0000 0.0000 0.0000 0.0000 0.0000 26.3617
#
#
#
# Elastic Compliance Matrix: (Units=1/GPa)
#
#
# Indices 1 2 3 4 5 6 
#
# 1 0.024018 -0.000543 -0.008710 0.000000 0.000000 0.000000
# 2 -0.000543 0.009667 -0.004807 0.000000 0.000000 0.000000
# 3 -0.008710 -0.004807 0.016120 0.000000 0.000000 0.000000
# 4 0.000000 0.000000 0.000000 0.029290 0.000000 0.000000
# 5 0.000000 0.000000 0.000000 0.000000 0.083116 0.000000
# 6 0.000000 0.000000 0.000000 0.000000 0.000000 0.037934
#
#
# Mechanical properties :
#
#
# Convention : Reuss Voigt Hill
#
# Bulk Modulus (GPa) = 46.11666 55.05167 50.58417
# Shear Modulus (GPa) = 21.23201 26.10602 23.66902
#
# Velocity S-wave (km/s) = 3.13441 3.47561 3.30941
# Velocity P-wave (km/s) = 5.86844 6.44826 6.16517
#
# Compressibility (1/GPa) = 0.02168414
#
# Stress axis : x y z
#
# Youngs Moduli (GPa) = 41.63619 103.44408 62.03302
#
# Poissons Ratio (x) = 0.05617 0.54032
# Poissons Ratio (y) = 0.02261 0.29821
# Poissons Ratio (z) = 0.36266 0.49728
#
# Static dielectric constant tensor:
#      x y z
#    x 1.845720 0.000000 0.000000 
#    y 0.000000 1.837330 0.000000 
#    z 0.000000 0.000000 1.756160 
# 
# From -- ./inp_files/15638.got.cif
#   From: 2010.05.17/outbox.cif.g08.bks.cpg/sg56_8_cif.got.tgz:15638.got - 2010.06.03 13:42:01.
