data_PCOD9431336
_publ_section_title
;
Structure prediction by ZEFSAII (Michael W. Deem and Ramdas Pophale) SiO2 
 PCOD9431336
Probable space group: P C C N
;
_chemical_formula_sum "Si O2"
_cell_formula_units_Z 60
_cell_length_a 8.400340
_cell_length_b 19.018085
_cell_length_c 19.057114
_cell_angle_alpha 90.000000
_cell_angle_beta 90.000000
_cell_angle_gamma 90.000000
_cell_volume 3044.533663
_symmetry_space_group_name_H-M "P C C N"
_symmetry_group_IT_number 56
_symmetry_cell_setting 'orthorhombic'
loop_
_space_group_symop_operation_xyz
x,y,z
1/2-x,1/2-y,z
1/2+x,-y,1/2-z
-x,1/2+y,1/2-z
-x,-y,-z
1/2+x,1/2+y,-z
1/2-x,y,1/2+z
x,1/2-y,1/2+z
loop_
_atom_site_type_symbol
_atom_site_label
_atom_site_fract_x
_atom_site_fract_y
_atom_site_fract_z
Si Si1 0.430065 0.089131 0.688120
Si Si2 0.353524 0.519792 0.287246
Si Si3 0.591266 0.618724 0.360318
Si Si4 0.601022 0.520655 0.101811
Si Si5 0.250000 0.750000 0.677564
Si Si6 0.702353 0.404934 0.860788
Si Si7 0.937904 0.746271 0.274431
Si Si8 0.670878 0.981352 0.969759
O O1 0.239054 0.091987 0.686407
O O2 0.499510 0.050060 0.620129
O O3 0.478104 0.168699 0.697688
O O4 0.466861 0.039506 0.753942
O O5 0.440467 0.572743 0.339641
O O6 0.226173 0.479764 0.334639
O O7 0.303801 0.566191 0.219412
O O8 0.560978 0.698162 0.338188
O O9 0.650361 0.596428 0.436731
O O10 0.478724 0.584862 0.110713
O O11 0.693292 0.516665 0.028857
O O12 0.263174 0.675097 0.637383
O O13 0.415462 0.761220 0.721597
O O14 0.796214 0.460547 0.909360
O O15 0.750000 0.750000 0.248225
O O16 0.500000 0.000000 0.000000
#
# Coordination Sequence:
#
# PCOD9431336 Si02
#       8
#     8   8   8   8   4   8   8   8
#     4  10  21  36  65  95 128 167 222 283 333 402
#     4  11  20  37  69 100 124 166 230 289 332 402
#     4  11  21  40  59  96 132 167 220 272 341 406
#     4  11  23  38  69  96 130 178 224 287 342 406
#     4  12  24  42  68  98 144 172 220 288 346 414
#     4  11  25  41  66  97 133 171 226 282 346 409
#     4  10  24  39  63 101 142 173 216 284 357 411
#     4  12  25  43  66  93 134 175 229 277 343 414
#
# _framework density 19.707450999999999
#
# number of rings (size 3 to 8) (size 9 to 14) (size 15 to 20)
#    0.000    1.067    5.333    2.800    3.733    0.000 
#    0.000    1.333    2.933    0.000    0.000    0.000 
#    0.000    0.000    0.000    0.000    0.000    0.000 
#
# Total GULP energy -334407.143387 kJ/mol
# GULP energy per Si atom -5573.452390 kJ/mol
# Density = 1.966260 g / cm^3
# Si number density = 19.707451 Si / 1000 Ang^3
#
#
#
# Elastic Constant Matrix: (Units=GPa)
#
#
# Indices 1 2 3 4 5 6 
#
# 1 85.4284 17.6556 24.4737 0.0000 0.0000 0.0000
# 2 17.6556 132.0105 34.2072 0.0000 0.0000 0.0000
# 3 24.4737 34.2072 81.2734 0.0000 0.0000 0.0000
# 4 0.0000 0.0000 0.0000 16.8610 0.0000 0.0000
# 5 0.0000 0.0000 0.0000 0.0000 35.5212 0.0000
# 6 0.0000 0.0000 0.0000 0.0000 0.0000 26.1873
#
#
#
# Elastic Compliance Matrix: (Units=1/GPa)
#
#
# Indices 1 2 3 4 5 6 
#
# 1 0.012887 -0.000806 -0.003541 0.000000 0.000000 0.000000
# 2 -0.000806 0.008553 -0.003357 0.000000 0.000000 0.000000
# 3 -0.003541 -0.003357 0.014784 0.000000 0.000000 0.000000
# 4 0.000000 0.000000 0.000000 0.059308 0.000000 0.000000
# 5 0.000000 0.000000 0.000000 0.000000 0.028152 0.000000
# 6 0.000000 0.000000 0.000000 0.000000 0.000000 0.038186
#
#
# Mechanical properties :
#
#
# Convention : Reuss Voigt Hill
#
# Bulk Modulus (GPa) = 48.04367 50.15392 49.09879
# Shear Modulus (GPa) = 27.14188 30.53896 28.84042
#
# Velocity S-wave (km/s) = 3.71514 3.94079 3.82963
# Velocity P-wave (km/s) = 6.54480 6.79786 6.67253
#
# Compressibility (1/GPa) = 0.02081440
#
# Stress axis : x y z
#
# Youngs Moduli (GPa) = 77.59875 116.91998 67.64270
#
# Poissons Ratio (x) = 0.09422 0.23955
# Poissons Ratio (y) = 0.06253 0.22709
# Poissons Ratio (z) = 0.27481 0.39252
#
# Static dielectric constant tensor:
#      x y z
#    x 1.796840 0.000000 0.000000 
#    y 0.000000 1.703860 0.000000 
#    z 0.000000 0.000000 1.720380 
# 
# From -- ./inp_files/15089.got.cif
#   From: 2010.05.17/outbox.cif.g08.bks.cpg/sg56_8_cif.got.tgz:15089.got - 2010.06.03 13:42:01.
