data_PCOD9431762
_publ_section_title
;
Structure prediction by ZEFSAII (Michael W. Deem and Ramdas Pophale) SiO2 
 PCOD9431762
Probable space group: P C C N
;
_chemical_formula_sum "Si O2"
_cell_formula_units_Z 64
_cell_length_a 20.394801
_cell_length_b 14.986735
_cell_length_c 9.080123
_cell_angle_alpha 90.000000
_cell_angle_beta 90.000000
_cell_angle_gamma 90.000000
_cell_volume 2775.353015
_symmetry_space_group_name_H-M "P C C N"
_symmetry_group_IT_number 56
_symmetry_cell_setting 'orthorhombic'
loop_
_space_group_symop_operation_xyz
x,y,z
1/2-x,1/2-y,z
1/2+x,-y,1/2-z
-x,1/2+y,1/2-z
-x,-y,-z
1/2+x,1/2+y,-z
1/2-x,y,1/2+z
x,1/2-y,1/2+z
loop_
_atom_site_type_symbol
_atom_site_label
_atom_site_fract_x
_atom_site_fract_y
_atom_site_fract_z
Si Si1 0.828838 0.365274 0.516513
Si Si2 0.608617 0.847071 0.618470
Si Si3 0.308169 0.182000 0.890413
Si Si4 0.568800 0.989474 0.413122
Si Si5 0.726203 0.585890 0.309917
Si Si6 0.785198 0.115541 0.327324
Si Si7 0.586381 0.284828 0.437607
Si Si8 0.975750 0.362099 0.213033
O O1 0.874935 0.448519 0.482953
O O2 0.780652 0.339191 0.385134
O O3 0.782876 0.382944 0.652749
O O4 0.875617 0.282514 0.546229
O O5 0.627592 0.742939 0.610214
O O6 0.671347 0.899379 0.684093
O O7 0.550775 0.863303 0.734849
O O8 0.588782 0.888861 0.459870
O O9 0.250000 0.250000 0.846876
O O10 0.296085 0.105784 0.768499
O O11 0.291431 0.148954 0.053432
O O12 0.555332 0.041222 0.259004
O O13 0.500000 0.000000 0.500000
O O14 0.722264 0.487064 0.372743
O O15 0.856004 0.152447 0.374826
O O16 0.554880 0.216885 0.318051
O O17 0.536833 0.338394 0.542950
#
# Coordination Sequence:
#
# PCOD9431762 Si02
#       8
#     8   8   8   8   8   8   8   8
#     4  11  24  42  66  98 129 176 224 276 345 408
#     4  10  21  41  71  95 132 180 225 280 348 413
#     4  10  22  41  64  96 132 175 220 284 338 416
#     4   9  20  43  68  96 130 177 224 279 343 413
#     4  11  23  43  63  97 136 171 225 285 349 405
#     4  12  25  41  69  93 138 175 219 283 343 409
#     4  11  24  45  66  97 132 177 231 278 342 404
#     4  10  23  42  70  97 135 177 234 283 338 418
#
# _framework density 23.060129
#
# number of rings (size 3 to 8) (size 9 to 14) (size 15 to 20)
#    0.000    1.500    2.500    2.250    7.000    1.000 
#    0.000    0.625    5.500    0.000    0.000    0.000 
#    0.000    0.000    0.000    0.000    0.000    0.000 
#
# Total GULP energy -357215.222331 kJ/mol
# GULP energy per Si atom -5581.487849 kJ/mol
# Density = 2.300764 g / cm^3
# Si number density = 23.060129 Si / 1000 Ang^3
#
#
#
# Elastic Constant Matrix: (Units=GPa)
#
#
# Indices 1 2 3 4 5 6 
#
# 1 87.6283 15.9099 10.0391 0.0000 0.0000 0.0000
# 2 15.9099 72.2239 -6.0553 0.0000 0.0000 0.0000
# 3 10.0391 -6.0553 45.7906 0.0000 0.0000 0.0000
# 4 0.0000 0.0000 0.0000 14.9831 0.0000 0.0000
# 5 0.0000 0.0000 0.0000 0.0000 28.1497 0.0000
# 6 0.0000 0.0000 0.0000 0.0000 0.0000 25.5518
#
#
#
# Elastic Compliance Matrix: (Units=1/GPa)
#
#
# Indices 1 2 3 4 5 6 
#
# 1 0.012305 -0.002970 -0.003090 0.000000 0.000000 0.000000
# 2 -0.002970 0.014718 0.002597 0.000000 0.000000 0.000000
# 3 -0.003090 0.002597 0.022860 0.000000 0.000000 0.000000
# 4 0.000000 0.000000 0.000000 0.066742 0.000000 0.000000
# 5 0.000000 0.000000 0.000000 0.000000 0.035524 0.000000
# 6 0.000000 0.000000 0.000000 0.000000 0.000000 0.039136
#
#
# Mechanical properties :
#
#
# Convention : Reuss Voigt Hill
#
# Bulk Modulus (GPa) = 23.27925 27.27003 25.27464
# Shear Modulus (GPa) = 23.52617 26.12020 24.82319
#
# Velocity S-wave (km/s) = 3.19754 3.36921 3.28450
# Velocity P-wave (km/s) = 4.87332 5.19488 5.03667
#
# Compressibility (1/GPa) = 0.04295671
#
# Stress axis : x y z
#
# Youngs Moduli (GPa) = 81.26722 67.94495 43.74532
#
# Poissons Ratio (x) = 0.20178 0.13519
# Poissons Ratio (y) = 0.24134 -0.11362
# Poissons Ratio (z) = 0.25115 -0.17648
#
# Static dielectric constant tensor:
#      x y z
#    x 1.920940 0.000000 0.000000 
#    y 0.000000 1.945980 0.000000 
#    z 0.000000 0.000000 1.865000 
# 
# From -- ./inp_files/4827.got.cif
#   From: 2010.05.17/outbox.cif.g08.bks.cpg/sg56_3_cif.got.tgz:4827.got - 2010.06.03 13:42:01.
