data_PCOD9431643
_publ_section_title
;
Structure prediction by ZEFSAII (Michael W. Deem and Ramdas Pophale) SiO2 
 PCOD9431643
Probable space group: P C C N
;
_chemical_formula_sum "Si O2"
_cell_formula_units_Z 48
_cell_length_a 17.615800
_cell_length_b 5.041977
_cell_length_c 23.958320
_cell_angle_alpha 90.000000
_cell_angle_beta 90.000000
_cell_angle_gamma 90.000000
_cell_volume 2127.941049
_symmetry_space_group_name_H-M "P C C N"
_symmetry_group_IT_number 56
_symmetry_cell_setting 'orthorhombic'
loop_
_space_group_symop_operation_xyz
x,y,z
1/2-x,1/2-y,z
1/2+x,-y,1/2-z
-x,1/2+y,1/2-z
-x,-y,-z
1/2+x,1/2+y,-z
1/2-x,y,1/2+z
x,1/2-y,1/2+z
loop_
_atom_site_type_symbol
_atom_site_label
_atom_site_fract_x
_atom_site_fract_y
_atom_site_fract_z
Si Si1 0.832646 0.130802 0.367831
Si Si2 0.836062 0.817064 0.485086
Si Si3 0.056133 0.557882 0.926367
Si Si4 0.922677 0.149501 0.699465
Si Si5 0.052897 0.936540 0.069826
Si Si6 0.900311 0.654333 0.764901
O O1 0.750000 0.250000 0.362900
O O2 0.897273 0.357756 0.375875
O O3 0.850612 0.947123 0.315758
O O4 0.835295 0.964868 0.425355
O O5 0.750000 0.750000 0.500358
O O6 0.876545 0.000178 0.530763
O O7 0.886109 0.552317 0.474035
O O8 0.086393 0.546065 0.863171
O O9 0.994633 0.329430 0.940850
O O10 0.009160 0.831757 0.926124
O O11 0.884129 0.944613 0.741955
O O12 0.012851 0.143798 0.712793
O O13 0.895710 0.444210 0.714016
#
# Coordination Sequence:
#
# PCOD9431643 Si02
#       6
#     8   8   8   8   8   8
#     4  12  26  43  69 103 141 181 233 290 360 409
#     4  12  27  44  68 101 142 184 225 291 356 417
#     4  12  26  43  72 103 137 180 237 282 346 421
#     4  10  21  40  65  96 127 170 220 277 331 401
#     4  12  24  43  69 101 131 180 230 288 339 415
#     4  10  22  38  66  94 130 168 220 279 334 399
#
# _framework density 22.557016999999998
#
# number of rings (size 3 to 8) (size 9 to 14) (size 15 to 20)
#    0.000    0.667    5.000    2.000    9.333    0.000 
#    0.000    1.667    0.000    0.000    0.000    0.000 
#    0.000    0.000    0.000    0.000    0.000    0.000 
#
# Total GULP energy -268789.446850 kJ/mol
# GULP energy per Si atom -5599.780143 kJ/mol
# Density = 2.250568 g / cm^3
# Si number density = 22.557017 Si / 1000 Ang^3
#
#
#
# Elastic Constant Matrix: (Units=GPa)
#
#
# Indices 1 2 3 4 5 6 
#
# 1 102.9590 25.1061 31.3328 0.0000 0.0000 0.0000
# 2 25.1061 103.8372 4.5562 0.0000 0.0000 0.0000
# 3 31.3328 4.5562 86.8818 0.0000 0.0000 0.0000
# 4 0.0000 0.0000 0.0000 29.3113 0.0000 0.0000
# 5 0.0000 0.0000 0.0000 0.0000 16.2568 0.0000
# 6 0.0000 0.0000 0.0000 0.0000 0.0000 14.6942
#
#
#
# Elastic Compliance Matrix: (Units=1/GPa)
#
#
# Indices 1 2 3 4 5 6 
#
# 1 0.011581 -0.002623 -0.004039 0.000000 0.000000 0.000000
# 2 -0.002623 0.010247 0.000409 0.000000 0.000000 0.000000
# 3 -0.004039 0.000409 0.012945 0.000000 0.000000 0.000000
# 4 0.000000 0.000000 0.000000 0.034116 0.000000 0.000000
# 5 0.000000 0.000000 0.000000 0.000000 0.061513 0.000000
# 6 0.000000 0.000000 0.000000 0.000000 0.000000 0.068054
#
#
# Mechanical properties :
#
#
# Convention : Reuss Voigt Hill
#
# Bulk Modulus (GPa) = 44.91105 46.18535 45.54820
# Shear Modulus (GPa) = 22.89528 27.56466 25.22997
#
# Velocity S-wave (km/s) = 3.18936 3.49950 3.34802
# Velocity P-wave (km/s) = 5.78929 6.07026 5.93144
#
# Compressibility (1/GPa) = 0.02226624
#
# Stress axis : x y z
#
# Youngs Moduli (GPa) = 86.34531 97.59226 77.24915
#
# Poissons Ratio (x) = 0.25598 0.31202
# Poissons Ratio (y) = 0.22648 -0.03156
# Poissons Ratio (z) = 0.34876 -0.03988
#
# Static dielectric constant tensor:
#      x y z
#    x 1.805900 0.000000 0.000000 
#    y 0.000000 1.884210 0.000000 
#    z 0.000000 0.000000 1.887950 
# 
# From -- ./inp_files/19417.got.cif
#   From: 2010.05.17/outbox.cif.g08.bks.cpg/sg56_10_cif.got.tgz:19417.got - 2010.06.03 13:42:01.
