data_PCOD9431759
_publ_section_title
;
Structure prediction by ZEFSAII (Michael W. Deem and Ramdas Pophale) SiO2 
 PCOD9431759
Probable space group: P C C N
;
_chemical_formula_sum "Si O2"
_cell_formula_units_Z 48
_cell_length_a 8.999410
_cell_length_b 13.882647
_cell_length_c 16.737485
_cell_angle_alpha 90.000000
_cell_angle_beta 90.000000
_cell_angle_gamma 90.000000
_cell_volume 2091.108271
_symmetry_space_group_name_H-M "P C C N"
_symmetry_group_IT_number 56
_symmetry_cell_setting 'orthorhombic'
loop_
_space_group_symop_operation_xyz
x,y,z
1/2-x,1/2-y,z
1/2+x,-y,1/2-z
-x,1/2+y,1/2-z
-x,-y,-z
1/2+x,1/2+y,-z
1/2-x,y,1/2+z
x,1/2-y,1/2+z
loop_
_atom_site_type_symbol
_atom_site_label
_atom_site_fract_x
_atom_site_fract_y
_atom_site_fract_z
Si Si1 0.635516 0.955600 0.076893
Si Si2 0.411151 0.791507 0.287205
Si Si3 0.298785 0.495552 0.088027
Si Si4 0.120172 0.818331 0.607296
Si Si5 0.912884 0.983212 0.173989
Si Si6 0.564566 0.615172 0.340003
O O1 0.527145 0.862987 0.065581
O O2 0.753663 0.942409 0.147839
O O3 0.535440 0.048440 0.101003
O O4 0.735640 0.981450 0.000548
O O5 0.250000 0.750000 0.307184
O O6 0.432123 0.775935 0.191917
O O7 0.407489 0.904086 0.304807
O O8 0.522581 0.726218 0.337821
O O9 0.212905 0.585744 0.126300
O O10 0.469163 0.519496 0.101837
O O11 0.235018 0.405532 0.137574
O O12 0.250000 0.750000 0.569566
O O13 0.967089 0.927136 0.251969
#
# Coordination Sequence:
#
# PCOD9431759 Si02
#       6
#     8   8   8   8   8   8
#     4  11  23  44  67  98 141 186 222 290 372 426
#     4  11  21  38  69 103 126 170 245 289 343 417
#     4  11  24  43  65  98 142 181 226 286 372 424
#     4  10  21  41  69  99 132 177 232 284 340 421
#     4  12  22  42  70  99 135 183 234 297 353 418
#     4  11  22  41  70  95 130 183 237 288 345 428
#
# _framework density 22.954335
#
# number of rings (size 3 to 8) (size 9 to 14) (size 15 to 20)
#    0.000    1.000    5.000    5.500    0.000    0.667 
#    6.000    2.500    7.333    0.000    0.000    0.000 
#    0.000    0.000    0.000    0.000    0.000    0.000 
#
# Total GULP energy -267995.018302 kJ/mol
# GULP energy per Si atom -5583.229548 kJ/mol
# Density = 2.290209 g / cm^3
# Si number density = 22.954335 Si / 1000 Ang^3
#
#
#
# Elastic Constant Matrix: (Units=GPa)
#
#
# Indices 1 2 3 4 5 6 
#
# 1 112.1072 22.1124 24.7641 0.0000 0.0000 0.0000
# 2 22.1124 91.4581 12.7224 0.0000 0.0000 0.0000
# 3 24.7641 12.7224 73.9243 0.0000 0.0000 0.0000
# 4 0.0000 0.0000 0.0000 24.0352 0.0000 0.0000
# 5 0.0000 0.0000 0.0000 0.0000 22.1629 0.0000
# 6 0.0000 0.0000 0.0000 0.0000 0.0000 42.0744
#
#
#
# Elastic Compliance Matrix: (Units=1/GPa)
#
#
# Indices 1 2 3 4 5 6 
#
# 1 0.009976 -0.001995 -0.002999 0.000000 0.000000 0.000000
# 2 -0.001995 0.011601 -0.001328 0.000000 0.000000 0.000000
# 3 -0.002999 -0.001328 0.014760 0.000000 0.000000 0.000000
# 4 0.000000 0.000000 0.000000 0.041606 0.000000 0.000000
# 5 0.000000 0.000000 0.000000 0.000000 0.045120 0.000000
# 6 0.000000 0.000000 0.000000 0.000000 0.000000 0.023767
#
#
# Mechanical properties :
#
#
# Convention : Reuss Voigt Hill
#
# Bulk Modulus (GPa) = 42.20467 44.07637 43.14052
# Shear Modulus (GPa) = 29.87357 32.18056 31.02707
#
# Velocity S-wave (km/s) = 3.61145 3.74831 3.68052
# Velocity P-wave (km/s) = 5.98468 6.16251 6.07425
#
# Compressibility (1/GPa) = 0.02369406
#
# Stress axis : x y z
#
# Youngs Moduli (GPa) = 100.24196 86.19912 67.74870
#
# Poissons Ratio (x) = 0.17195 0.20315
# Poissons Ratio (y) = 0.19996 0.08999
# Poissons Ratio (z) = 0.30058 0.11450
#
# Static dielectric constant tensor:
#      x y z
#    x 1.924900 0.000000 0.000000 
#    y 0.000000 1.853610 0.000000 
#    z 0.000000 0.000000 1.915480 
# 
# From -- ./inp_files/14794.got.cif
#   From: 2010.05.17/outbox.cif.g08.bks.cpg/sg56_8_cif.got.tgz:14794.got - 2010.06.03 13:42:01.
