data_PCOD9431152
_publ_section_title
;
Structure prediction by ZEFSAII (Michael W. Deem and Ramdas Pophale) SiO2 
 PCOD9431152
Probable space group: P C C N
;
_chemical_formula_sum "Si O2"
_cell_formula_units_Z 28
_cell_length_a 5.724959
_cell_length_b 21.594855
_cell_length_c 9.096588
_cell_angle_alpha 90.000000
_cell_angle_beta 90.000000
_cell_angle_gamma 90.000000
_cell_volume 1124.608077
_symmetry_space_group_name_H-M "P C C N"
_symmetry_group_IT_number 56
_symmetry_cell_setting 'orthorhombic'
loop_
_space_group_symop_operation_xyz
x,y,z
1/2-x,1/2-y,z
1/2+x,-y,1/2-z
-x,1/2+y,1/2-z
-x,-y,-z
1/2+x,1/2+y,-z
1/2-x,y,1/2+z
x,1/2-y,1/2+z
loop_
_atom_site_type_symbol
_atom_site_label
_atom_site_fract_x
_atom_site_fract_y
_atom_site_fract_z
Si Si1 0.588371 0.665623 0.740770
Si Si2 0.131848 0.950285 0.628823
Si Si3 0.750000 0.750000 0.997474
Si Si4 0.132051 0.440789 0.367696
O O1 0.392947 0.613305 0.724398
O O2 0.616206 0.702137 0.891347
O O3 0.577678 0.713426 0.606195
O O4 0.823711 0.625075 0.710449
O O5 0.383699 0.944611 0.553013
O O6 0.879266 0.949292 0.546741
O O7 0.132423 0.006178 0.744481
#
# Coordination Sequence:
#
# PCOD9431152 Si02
#       4
#     8   8   4   8
#     4   9  20  36  64  80 128 145 216 222 316 333
#     4   8  15  32  61  86 118 146 195 247 303 345
#     4  10  20  42  54  90 114 178 182 256 266 386
#     4   8  15  32  61  86 118 146 195 247 303 345
#
# _framework density 24.897563999999999
#
# number of rings (size 3 to 8) (size 9 to 14) (size 15 to 20)
#    1.714    1.714    0.000    0.000    0.000    0.000 
#    0.000   14.286    0.000    0.000    0.000    0.000 
#    0.000    0.000    0.000    0.000    0.000    0.000 
#
# Total GULP energy -156151.106065 kJ/mol
# GULP energy per Si atom -5576.825217 kJ/mol
# Density = 2.484090 g / cm^3
# Si number density = 24.897564 Si / 1000 Ang^3
#
#
#
# Elastic Constant Matrix: (Units=GPa)
#
#
# Indices 1 2 3 4 5 6 
#
# 1 184.6578 16.4507 10.7030 0.0000 0.0000 0.0000
# 2 16.4507 121.0905 64.6657 0.0000 0.0000 0.0000
# 3 10.7030 64.6657 140.0045 0.0000 0.0000 0.0000
# 4 0.0000 0.0000 0.0000 17.7896 0.0000 0.0000
# 5 0.0000 0.0000 0.0000 0.0000 9.6127 0.0000
# 6 0.0000 0.0000 0.0000 0.0000 0.0000 12.2576
#
#
#
# Elastic Compliance Matrix: (Units=1/GPa)
#
#
# Indices 1 2 3 4 5 6 
#
# 1 0.005483 -0.000692 -0.000100 0.000000 0.000000 0.000000
# 2 -0.000692 0.011049 -0.005051 0.000000 0.000000 0.000000
# 3 -0.000100 -0.005051 0.009483 0.000000 0.000000 0.000000
# 4 0.000000 0.000000 0.000000 0.056212 0.000000 0.000000
# 5 0.000000 0.000000 0.000000 0.000000 0.104029 0.000000
# 6 0.000000 0.000000 0.000000 0.000000 0.000000 0.081582
#
#
# Mechanical properties :
#
#
# Convention : Reuss Voigt Hill
#
# Bulk Modulus (GPa) = 69.77718 69.93240 69.85479
# Shear Modulus (GPa) = 17.58705 31.52754 24.55730
#
# Velocity S-wave (km/s) = 2.66066 3.56236 3.14400
# Velocity P-wave (km/s) = 6.12579 6.71339 6.42631
#
# Compressibility (1/GPa) = 0.01433133
#
# Stress axis : x y z
#
# Youngs Moduli (GPa) = 182.38805 90.50222 105.45109
#
# Poissons Ratio (x) = 0.06259 0.01051
# Poissons Ratio (y) = 0.12614 0.53260
# Poissons Ratio (z) = 0.01818 0.45710
#
# Static dielectric constant tensor:
#      x y z
#    x 2.053930 0.000000 0.000000 
#    y 0.000000 2.065600 0.000000 
#    z 0.000000 0.000000 1.906410 
# 
# From -- ./inp_files/1536.got.cif
#   From: 2010.05.17/outbox.cif.g08.bks.cpg/sg56_1_cif.got.tgz:1536.got - 2010.06.03 13:42:01.
