data_PCOD9431124
_publ_section_title
;
Structure prediction by ZEFSAII (Michael W. Deem and Ramdas Pophale) SiO2 
 PCOD9431124
Probable space group: P C C N
;
_chemical_formula_sum "Si O2"
_cell_formula_units_Z 64
_cell_length_a 14.206601
_cell_length_b 12.604783
_cell_length_c 17.270613
_cell_angle_alpha 90.000000
_cell_angle_beta 90.000000
_cell_angle_gamma 90.000000
_cell_volume 3092.668061
_symmetry_space_group_name_H-M "P C C N"
_symmetry_group_IT_number 56
_symmetry_cell_setting 'orthorhombic'
loop_
_space_group_symop_operation_xyz
x,y,z
1/2-x,1/2-y,z
1/2+x,-y,1/2-z
-x,1/2+y,1/2-z
-x,-y,-z
1/2+x,1/2+y,-z
1/2-x,y,1/2+z
x,1/2-y,1/2+z
loop_
_atom_site_type_symbol
_atom_site_label
_atom_site_fract_x
_atom_site_fract_y
_atom_site_fract_z
Si Si1 0.262734 0.634620 0.124021
Si Si2 0.277090 0.997391 0.270666
Si Si3 0.432411 0.072478 0.756514
Si Si4 0.099258 0.618320 0.014278
Si Si5 0.461363 0.847664 0.549459
Si Si6 0.478359 0.064711 0.115180
Si Si7 0.351570 0.210809 0.212596
Si Si8 0.432727 0.963566 0.387208
O O1 0.250000 0.750000 0.161305
O O2 0.216738 0.555049 0.185347
O O3 0.204213 0.637426 0.044140
O O4 0.371132 0.619913 0.102064
O O5 0.165221 0.012232 0.274770
O O6 0.324113 0.113062 0.266665
O O7 0.335701 0.944577 0.340001
O O8 0.404599 0.195991 0.757834
O O9 0.483054 0.057750 0.673880
O O10 0.501685 0.020200 0.817895
O O11 0.039010 0.719166 0.046979
O O12 0.074623 0.504109 0.050679
O O13 0.073045 0.608643 0.924714
O O14 0.442520 0.889323 0.462320
O O15 0.549118 0.915813 0.581642
O O16 0.417943 0.161842 0.147137
O O17 0.250000 0.250000 0.181307
#
# Coordination Sequence:
#
# PCOD9431124 Si02
#       8
#     8   8   8   8   8   8   8   8
#     4  10  20  41  64  93 130 173 211 278 333 401
#     4  11  22  42  62  97 127 173 224 276 328 402
#     4  11  23  39  66  94 129 169 221 277 336 396
#     4  10  22  39  63  91 132 167 221 268 336 396
#     4  10  23  40  64  94 130 176 219 271 341 402
#     4  11  22  40  65  94 128 176 218 278 334 401
#     4  10  22  40  65  92 132 171 219 273 337 400
#     4  11  22  41  66  93 133 173 223 275 333 412
#
# _framework density 20.694106999999999
#
# number of rings (size 3 to 8) (size 9 to 14) (size 15 to 20)
#    0.000    1.500    3.750    0.750    3.500    0.000 
#    4.500    0.000    0.000    0.000    0.000    0.000 
#    0.000    0.000    0.000    0.000    0.000    0.000 
#
# Total GULP energy -356609.326112 kJ/mol
# GULP energy per Si atom -5572.020720 kJ/mol
# Density = 2.064701 g / cm^3
# Si number density = 20.694107 Si / 1000 Ang^3
#
#
#
# Elastic Constant Matrix: (Units=GPa)
#
#
# Indices 1 2 3 4 5 6 
#
# 1 66.1258 17.5043 29.4155 0.0000 0.0000 0.0000
# 2 17.5043 70.1823 18.6506 0.0000 0.0000 0.0000
# 3 29.4155 18.6506 84.7078 0.0000 0.0000 0.0000
# 4 0.0000 0.0000 0.0000 15.3699 0.0000 0.0000
# 5 0.0000 0.0000 0.0000 0.0000 29.7954 0.0000
# 6 0.0000 0.0000 0.0000 0.0000 0.0000 29.7758
#
#
#
# Elastic Compliance Matrix: (Units=1/GPa)
#
#
# Indices 1 2 3 4 5 6 
#
# 1 0.018494 -0.003087 -0.005743 0.000000 0.000000 0.000000
# 2 -0.003087 0.015649 -0.002374 0.000000 0.000000 0.000000
# 3 -0.005743 -0.002374 0.014322 0.000000 0.000000 0.000000
# 4 0.000000 0.000000 0.000000 0.065062 0.000000 0.000000
# 5 0.000000 0.000000 0.000000 0.000000 0.033562 0.000000
# 6 0.000000 0.000000 0.000000 0.000000 0.000000 0.033584
#
#
# Mechanical properties :
#
#
# Convention : Reuss Voigt Hill
#
# Bulk Modulus (GPa) = 38.37354 39.12850 38.75102
# Shear Modulus (GPa) = 23.61084 25.35125 24.48104
#
# Velocity S-wave (km/s) = 3.38145 3.50386 3.44320
# Velocity P-wave (km/s) = 5.81628 5.94294 5.87995
#
# Compressibility (1/GPa) = 0.02605962
#
# Stress axis : x y z
#
# Youngs Moduli (GPa) = 54.07055 63.90084 69.82197
#
# Poissons Ratio (x) = 0.19724 0.40097
# Poissons Ratio (y) = 0.16689 0.16574
# Poissons Ratio (z) = 0.31051 0.15168
#
# Static dielectric constant tensor:
#      x y z
#    x 1.779700 0.000000 0.000000 
#    y 0.000000 1.774960 0.000000 
#    z 0.000000 0.000000 1.753980 
# 
# From -- ./inp_files/16342.got.cif
#   From: 2010.05.17/outbox.cif.g08.bks.cpg/sg56_9_cif.got.tgz:16342.got - 2010.06.03 13:42:01.
