data_PCOD9431091
_publ_section_title
;
Structure prediction by ZEFSAII (Michael W. Deem and Ramdas Pophale) SiO2 
 PCOD9431091
Probable space group: P C C N
;
_chemical_formula_sum "Si O2"
_cell_formula_units_Z 28
_cell_length_a 7.391218
_cell_length_b 12.232476
_cell_length_c 11.585939
_cell_angle_alpha 90.000000
_cell_angle_beta 90.000000
_cell_angle_gamma 90.000000
_cell_volume 1047.518307
_symmetry_space_group_name_H-M "P C C N"
_symmetry_group_IT_number 56
_symmetry_cell_setting 'orthorhombic'
loop_
_space_group_symop_operation_xyz
x,y,z
1/2-x,1/2-y,z
1/2+x,-y,1/2-z
-x,1/2+y,1/2-z
-x,-y,-z
1/2+x,1/2+y,-z
1/2-x,y,1/2+z
x,1/2-y,1/2+z
loop_
_atom_site_type_symbol
_atom_site_label
_atom_site_fract_x
_atom_site_fract_y
_atom_site_fract_z
Si Si1 0.541513 0.727308 0.611454
Si Si2 0.500000 0.500000 0.500000
Si Si3 0.119637 0.540742 0.632900
Si Si4 0.675425 0.136488 0.670270
O O1 0.750000 0.750000 0.637110
O O2 0.528671 0.632122 0.518547
O O3 0.446367 0.842001 0.588202
O O4 0.441633 0.682921 0.724151
O O5 0.303989 0.507680 0.570826
O O6 0.163096 0.563001 0.771416
O O7 0.039050 0.547122 0.381075
O O8 0.750000 0.250000 0.616669
#
# Coordination Sequence:
#
# PCOD9431091 Si02
#       4
#     8   4   8   8
#     4  10  21  40  66  96 137 178 222 285 344 407
#     4  10  22  40  64  94 138 188 224 268 340 414
#     4  10  20  40  68  99 138 182 227 281 346 414
#     4   9  19  37  67 100 132 174 229 287 347 409
#
# _framework density 26.729845000000001
#
# number of rings (size 3 to 8) (size 9 to 14) (size 15 to 20)
#    0.000    2.286    0.000    4.286    0.000    1.143 
#    0.000   15.714    0.000   68.571    0.000    0.000 
#    0.000    0.000    0.000    0.000    0.000    0.000 
#
# Total GULP energy -155956.351813 kJ/mol
# GULP energy per Si atom -5569.869708 kJ/mol
# Density = 2.666901 g / cm^3
# Si number density = 26.729845 Si / 1000 Ang^3
#
#
#
# Elastic Constant Matrix: (Units=GPa)
#
#
# Indices 1 2 3 4 5 6 
#
# 1 161.3078 108.5646 44.0918 0.0000 0.0000 0.0000
# 2 108.5646 288.1710 68.1372 0.0000 0.0000 0.0000
# 3 44.0918 68.1372 26.6040 0.0000 0.0000 0.0000
# 4 0.0000 0.0000 0.0000 46.5723 0.0000 0.0000
# 5 0.0000 0.0000 0.0000 0.0000 56.4832 0.0000
# 6 0.0000 0.0000 0.0000 0.0000 0.0000 80.1925
#
#
#
# Elastic Compliance Matrix: (Units=1/GPa)
#
#
# Indices 1 2 3 4 5 6 
#
# 1 0.011355 0.000436 -0.019935 0.000000 0.000000 0.000000
# 2 0.000436 0.008815 -0.023298 0.000000 0.000000 0.000000
# 3 -0.019935 -0.023298 0.130299 0.000000 0.000000 0.000000
# 4 0.000000 0.000000 0.000000 0.021472 0.000000 0.000000
# 5 0.000000 0.000000 0.000000 0.000000 0.017704 0.000000
# 6 0.000000 0.000000 0.000000 0.000000 0.000000 0.012470
#
#
# Mechanical properties :
#
#
# Convention : Reuss Voigt Hill
#
# Bulk Modulus (GPa) = 15.41479 101.96333 58.68906
# Shear Modulus (GPa) = 16.16370 53.66886 34.91628
#
# Velocity S-wave (km/s) = 2.46174 4.48574 3.61815
# Velocity P-wave (km/s) = 3.72286 8.06584 6.28162
#
# Compressibility (1/GPa) = 0.06487276
#
# Stress axis : x y z
#
# Youngs Moduli (GPa) = 88.06567 113.44497 7.67468
#
# Poissons Ratio (x) = -0.04943 0.15300
# Poissons Ratio (y) = -0.03837 0.17881
# Poissons Ratio (z) = 1.75561 2.64309
#
# Static dielectric constant tensor:
#      x y z
#    x 1.999460 0.000000 0.000000 
#    y 0.000000 1.980080 0.000000 
#    z 0.000000 0.000000 1.524520 
# 
# From -- ./inp_files/5899.got.cif
#   From: 2010.05.17/outbox.cif.g08.bks.cpg/sg56_3_cif.got.tgz:5899.got - 2010.06.03 13:42:01.
