data_PCOD9431121
_publ_section_title
;
Structure prediction by ZEFSAII (Michael W. Deem and Ramdas Pophale) SiO2 
 PCOD9431121
Probable space group: P C C N
;
_chemical_formula_sum "Si O2"
_cell_formula_units_Z 48
_cell_length_a 11.378141
_cell_length_b 7.454710
_cell_length_c 27.298695
_cell_angle_alpha 90.000000
_cell_angle_beta 90.000000
_cell_angle_gamma 90.000000
_cell_volume 2315.495552
_symmetry_space_group_name_H-M "P C C N"
_symmetry_group_IT_number 56
_symmetry_cell_setting 'orthorhombic'
loop_
_space_group_symop_operation_xyz
x,y,z
1/2-x,1/2-y,z
1/2+x,-y,1/2-z
-x,1/2+y,1/2-z
-x,-y,-z
1/2+x,1/2+y,-z
1/2-x,y,1/2+z
x,1/2-y,1/2+z
loop_
_atom_site_type_symbol
_atom_site_label
_atom_site_fract_x
_atom_site_fract_y
_atom_site_fract_z
Si Si1 0.750000 0.750000 0.976557
Si Si2 0.750000 0.250000 0.728088
Si Si3 0.976374 0.406248 0.282057
Si Si4 0.300243 0.952710 0.943552
Si Si5 0.115724 0.202918 0.693421
Si Si6 0.861630 0.996358 0.144427
Si Si7 0.471610 0.288915 0.591261
O O1 0.866327 0.773437 0.943502
O O2 0.770628 0.577945 0.010909
O O3 0.643402 0.315521 0.762918
O O4 0.702515 0.100775 0.689439
O O5 0.944470 0.605459 0.298299
O O6 0.059388 0.417225 0.234840
O O7 0.058321 0.345687 0.328157
O O8 0.250000 0.750000 0.950134
O O9 0.239835 0.038855 0.895221
O O10 0.438745 0.924813 0.934440
O O11 0.250000 0.250000 0.699997
O O12 0.088060 0.129911 0.639868
O O13 0.947915 0.126587 0.112520
#
# Coordination Sequence:
#
# PCOD9431121 Si02
#       7
#     4   4   8   8   8   8   8
#     4  12  24  40  70 102 122 166 234 276 334 412
#     4  12  18  40  64  88 132 174 210 258 328 384
#     4  11  22  37  62  92 124 171 216 251 318 401
#     4  10  22  44  68  92 129 174 213 280 341 390
#     4  11  22  39  63  92 128 174 208 263 322 384
#     4  10  20  41  63  90 128 173 210 263 329 391
#     4  10  20  41  68  89 130 171 211 273 338 382
#
# _framework density 20.729904000000001
#
# number of rings (size 3 to 8) (size 9 to 14) (size 15 to 20)
#    0.000    1.333    6.667    1.500    0.000    2.667 
#    7.500    0.000   14.667    0.000    0.000    0.000 
#    0.000    0.000    0.000    0.000    0.000    0.000 
#
# Total GULP energy -267597.540068 kJ/mol
# GULP energy per Si atom -5574.948751 kJ/mol
# Density = 2.068272 g / cm^3
# Si number density = 20.729904 Si / 1000 Ang^3
#
#
#
# Elastic Constant Matrix: (Units=GPa)
#
#
# Indices 1 2 3 4 5 6 
#
# 1 167.1790 24.5951 72.8950 0.0000 0.0000 0.0000
# 2 24.5951 49.6518 33.1630 0.0000 0.0000 0.0000
# 3 72.8950 33.1630 123.1393 0.0000 0.0000 0.0000
# 4 0.0000 0.0000 0.0000 27.5721 0.0000 0.0000
# 5 0.0000 0.0000 0.0000 0.0000 102.4438 0.0000
# 6 0.0000 0.0000 0.0000 0.0000 0.0000 30.0833
#
#
#
# Elastic Compliance Matrix: (Units=1/GPa)
#
#
# Indices 1 2 3 4 5 6 
#
# 1 0.008102 -0.000988 -0.004530 0.000000 0.000000 0.000000
# 2 -0.000988 0.024678 -0.006061 0.000000 0.000000 0.000000
# 3 -0.004530 -0.006061 0.012435 0.000000 0.000000 0.000000
# 4 0.000000 0.000000 0.000000 0.036269 0.000000 0.000000
# 5 0.000000 0.000000 0.000000 0.000000 0.009761 0.000000
# 6 0.000000 0.000000 0.000000 0.000000 0.000000 0.033241
#
#
# Mechanical properties :
#
#
# Convention : Reuss Voigt Hill
#
# Bulk Modulus (GPa) = 45.33794 66.80848 56.07321
# Shear Modulus (GPa) = 32.25859 45.97432 39.11645
#
# Velocity S-wave (km/s) = 3.94907 4.71444 4.34863
# Velocity P-wave (km/s) = 6.53543 7.86973 7.23341
#
# Compressibility (1/GPa) = 0.02205658
#
# Stress axis : x y z
#
# Youngs Moduli (GPa) = 123.42222 40.52193 80.41713
#
# Poissons Ratio (x) = 0.04002 0.36432
# Poissons Ratio (y) = 0.12189 0.48745
# Poissons Ratio (z) = 0.55915 0.24562
#
# Static dielectric constant tensor:
#      x y z
#    x 1.839110 0.000000 0.000000 
#    y 0.000000 1.798610 0.000000 
#    z 0.000000 0.000000 1.744610 
# 
# From -- ./inp_files/20927.got.cif
#   From: 2010.05.17/outbox.cif.g08.bks.cpg/sg56_11_cif.got.tgz:20927.got - 2010.06.03 13:42:01.
