data_PCOD9431815
_publ_section_title
;
Structure prediction by ZEFSAII (Michael W. Deem and Ramdas Pophale) SiO2 
 PCOD9431815
Probable space group: P C C N
;
_chemical_formula_sum "Si O2"
_cell_formula_units_Z 36
_cell_length_a 23.969095
_cell_length_b 5.138982
_cell_length_c 10.417585
_cell_angle_alpha 90.000000
_cell_angle_beta 90.000000
_cell_angle_gamma 90.000000
_cell_volume 1283.204240
_symmetry_space_group_name_H-M "P C C N"
_symmetry_group_IT_number 56
_symmetry_cell_setting 'orthorhombic'
loop_
_space_group_symop_operation_xyz
x,y,z
1/2-x,1/2-y,z
1/2+x,-y,1/2-z
-x,1/2+y,1/2-z
-x,-y,-z
1/2+x,1/2+y,-z
1/2-x,y,1/2+z
x,1/2-y,1/2+z
loop_
_atom_site_type_symbol
_atom_site_label
_atom_site_fract_x
_atom_site_fract_y
_atom_site_fract_z
Si Si1 0.451800 0.239748 0.583139
Si Si2 0.750000 0.750000 0.547872
Si Si3 0.160387 0.437426 0.149944
Si Si4 0.685115 0.422491 0.703303
Si Si5 0.567902 0.019735 0.154890
O O1 0.405161 0.452539 0.624575
O O2 0.439715 0.252257 0.429756
O O3 0.439143 0.022998 0.691480
O O4 0.515447 0.315803 0.605968
O O5 0.696223 0.708146 0.459481
O O6 0.742960 0.494926 0.634299
O O7 0.185641 0.718659 0.180883
O O8 0.167831 0.219586 0.259446
O O9 0.628207 0.346848 0.628603
#
# Coordination Sequence:
#
# PCOD9431815 Si02
#       5
#     8   4   8   8   8
#     4  10  21  42  71 111 156 202 257 325 403 482
#     4  12  26  50  74 108 152 210 262 336 382 480
#     4  11  26  47  73 109 150 202 260 322 395 472
#     4  11  26  47  73 109 150 202 260 322 395 472
#     4  10  21  42  71 111 156 202 257 325 403 482
#
# _framework density 28.054767999999999
#
# number of rings (size 3 to 8) (size 9 to 14) (size 15 to 20)
#    0.000    1.333    2.222    2.000    0.000    8.000 
#    4.000    0.000    0.000    0.000    0.000    0.000 
#    0.000    0.000    0.000    0.000    0.000    0.000 
#
# Total GULP energy -200773.242643 kJ/mol
# GULP energy per Si atom -5577.034518 kJ/mol
# Density = 2.799091 g / cm^3
# Si number density = 28.054768 Si / 1000 Ang^3
#
#
#
# Elastic Constant Matrix: (Units=GPa)
#
#
# Indices 1 2 3 4 5 6 
#
# 1 184.3421 51.4354 23.5750 0.0000 0.0000 0.0000
# 2 51.4354 146.7014 42.2669 0.0000 0.0000 0.0000
# 3 23.5750 42.2669 84.7388 0.0000 0.0000 0.0000
# 4 0.0000 0.0000 0.0000 2.4661 0.0000 0.0000
# 5 0.0000 0.0000 0.0000 0.0000 52.5626 0.0000
# 6 0.0000 0.0000 0.0000 0.0000 0.0000 22.2335
#
#
#
# Elastic Compliance Matrix: (Units=1/GPa)
#
#
# Indices 1 2 3 4 5 6 
#
# 1 0.006051 -0.001911 -0.000730 0.000000 0.000000 0.000000
# 2 -0.001911 0.008564 -0.003740 0.000000 0.000000 0.000000
# 3 -0.000730 -0.003740 0.013870 0.000000 0.000000 0.000000
# 4 0.000000 0.000000 0.000000 0.405506 0.000000 0.000000
# 5 0.000000 0.000000 0.000000 0.000000 0.019025 0.000000
# 6 0.000000 0.000000 0.000000 0.000000 0.000000 0.044977
#
#
# Mechanical properties :
#
#
# Convention : Reuss Voigt Hill
#
# Bulk Modulus (GPa) = 63.60447 72.25966 67.93207
# Shear Modulus (GPa) = 9.68999 35.35277 22.52138
#
# Velocity S-wave (km/s) = 1.86050 3.55369 2.83638
# Velocity P-wave (km/s) = 5.22839 6.53076 5.91552
#
# Compressibility (1/GPa) = 0.01572217
#
# Stress axis : x y z
#
# Youngs Moduli (GPa) = 165.25163 116.76436 72.10015
#
# Poissons Ratio (x) = 0.22317 0.05265
# Poissons Ratio (y) = 0.31585 0.26966
# Poissons Ratio (z) = 0.12067 0.43670
#
# Static dielectric constant tensor:
#      x y z
#    x 2.348140 0.000000 0.000000 
#    y 0.000000 2.209350 0.000000 
#    z 0.000000 0.000000 2.429600 
# 
# From -- ./inp_files/8230.got.cif
#   From: 2010.05.17/outbox.cif.g08.bks.cpg/sg56_5_cif.got.tgz:8230.got - 2010.06.03 13:42:01.
