data_PCOD9431400
_publ_section_title
;
Structure prediction by ZEFSAII (Michael W. Deem and Ramdas Pophale) SiO2 
 PCOD9431400
Probable space group: P C C N
;
_chemical_formula_sum "Si O2"
_cell_formula_units_Z 56
_cell_length_a 15.421829
_cell_length_b 12.126011
_cell_length_c 14.039699
_cell_angle_alpha 90.000000
_cell_angle_beta 90.000000
_cell_angle_gamma 90.000000
_cell_volume 2625.497675
_symmetry_space_group_name_H-M "P C C N"
_symmetry_group_IT_number 56
_symmetry_cell_setting 'orthorhombic'
loop_
_space_group_symop_operation_xyz
x,y,z
1/2-x,1/2-y,z
1/2+x,-y,1/2-z
-x,1/2+y,1/2-z
-x,-y,-z
1/2+x,1/2+y,-z
1/2-x,y,1/2+z
x,1/2-y,1/2+z
loop_
_atom_site_type_symbol
_atom_site_label
_atom_site_fract_x
_atom_site_fract_y
_atom_site_fract_z
Si Si1 0.540672 0.061865 0.130731
Si Si2 0.669857 0.963634 0.701929
Si Si3 0.652347 0.284077 0.511906
Si Si4 0.934026 0.367249 0.834206
Si Si5 0.645976 0.523709 0.804434
Si Si6 0.572198 0.762800 0.784404
Si Si7 0.402295 0.546512 0.991281
O O1 0.467966 0.156624 0.136326
O O2 0.497201 0.945931 0.102509
O O3 0.575328 0.035507 0.237276
O O4 0.619589 0.111775 0.071780
O O5 0.765211 0.978569 0.745186
O O6 0.637166 0.841001 0.726432
O O7 0.610222 0.052080 0.758114
O O8 0.652469 0.987101 0.591326
O O9 0.750000 0.250000 0.533368
O O10 0.595309 0.175853 0.533466
O O11 0.636907 0.313729 0.401991
O O12 0.993200 0.278093 0.781986
O O13 0.617428 0.650997 0.818598
O O14 0.645547 0.468098 0.907547
O O15 0.500000 0.500000 0.000000
#
# Coordination Sequence:
#
# PCOD9431400 Si02
#       7
#     8   8   8   8   8   8   8
#     4  10  21  38  59  85 122 163 204 252 306 369
#     4  11  23  41  63  92 126 160 205 261 310 362
#     4  12  23  37  60  93 124 161 207 256 312 364
#     4  10  21  38  59  85 122 163 204 252 306 369
#     4  11  23  41  63  92 126 160 205 261 310 362
#     4  10  21  40  63  86 120 166 206 248 309 372
#     4  12  24  41  67  95 125 167 215 256 307 380
#
# _framework density 21.329288999999999
#
# number of rings (size 3 to 8) (size 9 to 14) (size 15 to 20)
#    0.000    1.143    0.000    8.571    0.000    0.000 
#    0.000    8.571    0.000    0.000    0.000    0.000 
#    0.000    0.000    0.000    0.000    0.000    0.000 
#
# Total GULP energy -313098.772400 kJ/mol
# GULP energy per Si atom -5591.049507 kJ/mol
# Density = 2.128074 g / cm^3
# Si number density = 21.329289 Si / 1000 Ang^3
#
#
#
# Elastic Constant Matrix: (Units=GPa)
#
#
# Indices 1 2 3 4 5 6 
#
# 1 101.4958 16.4257 10.4686 0.0000 0.0000 0.0000
# 2 16.4257 92.1987 -5.7264 0.0000 0.0000 0.0000
# 3 10.4686 -5.7264 46.0923 0.0000 0.0000 0.0000
# 4 0.0000 0.0000 0.0000 19.9448 0.0000 0.0000
# 5 0.0000 0.0000 0.0000 0.0000 31.0437 0.0000
# 6 0.0000 0.0000 0.0000 0.0000 0.0000 32.7989
#
#
#
# Elastic Compliance Matrix: (Units=1/GPa)
#
#
# Indices 1 2 3 4 5 6 
#
# 1 0.010451 -0.002025 -0.002625 0.000000 0.000000 0.000000
# 2 -0.002025 0.011323 0.001867 0.000000 0.000000 0.000000
# 3 -0.002625 0.001867 0.022524 0.000000 0.000000 0.000000
# 4 0.000000 0.000000 0.000000 0.050138 0.000000 0.000000
# 5 0.000000 0.000000 0.000000 0.000000 0.032213 0.000000
# 6 0.000000 0.000000 0.000000 0.000000 0.000000 0.030489
#
#
# Mechanical properties :
#
#
# Convention : Reuss Voigt Hill
#
# Bulk Modulus (GPa) = 25.81945 31.34696 28.58321
# Shear Modulus (GPa) = 28.47139 31.33207 29.90173
#
# Velocity S-wave (km/s) = 3.65752 3.83687 3.74827
# Velocity P-wave (km/s) = 5.47431 5.86151 5.67122
#
# Compressibility (1/GPa) = 0.03873049
#
# Stress axis : x y z
#
# Youngs Moduli (GPa) = 95.68352 88.31712 44.39758
#
# Poissons Ratio (x) = 0.17884 0.11656
# Poissons Ratio (y) = 0.19376 -0.08287
# Poissons Ratio (z) = 0.25119 -0.16486
#
# Static dielectric constant tensor:
#      x y z
#    x 1.785200 0.000000 0.000000 
#    y 0.000000 1.756940 0.000000 
#    z 0.000000 0.000000 1.784920 
# 
# From -- ./inp_files/12300.got.cif
#   From: 2010.05.17/outbox.cif.g08.bks.cpg/sg56_7_cif.got.tgz:12300.got - 2010.06.03 13:42:01.
