data_PCOD9431092
_publ_section_title
;
Structure prediction by ZEFSAII (Michael W. Deem and Ramdas Pophale) SiO2 
 PCOD9431092
Probable space group: P C C N
;
_chemical_formula_sum "Si O2"
_cell_formula_units_Z 44
_cell_length_a 12.218268
_cell_length_b 8.255306
_cell_length_c 17.289915
_cell_angle_alpha 90.000000
_cell_angle_beta 90.000000
_cell_angle_gamma 90.000000
_cell_volume 1743.956633
_symmetry_space_group_name_H-M "P C C N"
_symmetry_group_IT_number 56
_symmetry_cell_setting 'orthorhombic'
loop_
_space_group_symop_operation_xyz
x,y,z
1/2-x,1/2-y,z
1/2+x,-y,1/2-z
-x,1/2+y,1/2-z
-x,-y,-z
1/2+x,1/2+y,-z
1/2-x,y,1/2+z
x,1/2-y,1/2+z
loop_
_atom_site_type_symbol
_atom_site_label
_atom_site_fract_x
_atom_site_fract_y
_atom_site_fract_z
Si Si1 0.776843 0.925592 0.026399
Si Si2 0.101534 0.012416 0.248848
Si Si3 0.401024 0.351862 0.831387
Si Si4 0.750000 0.250000 0.838525
Si Si5 0.571988 0.192107 0.457065
Si Si6 0.865768 0.345043 0.095573
O O1 0.750000 0.750000 0.997059
O O2 0.797821 0.922353 0.121892
O O3 0.664972 0.024930 0.030499
O O4 0.861948 0.023734 0.973258
O O5 0.201225 0.906557 0.208909
O O6 0.085775 0.916568 0.328461
O O7 0.987201 0.981136 0.203445
O O8 0.116675 0.201730 0.272597
O O9 0.461299 0.299277 0.910509
O O10 0.849274 0.286592 0.896653
O O11 0.553411 0.236268 0.546145
O O12 0.750000 0.250000 0.107289
#
# Coordination Sequence:
#
# PCOD9431092 Si02
#       6
#     8   8   8   4   8   8
#     4  11  21  41  69  98 132 174 240 285 337 411
#     4  11  24  41  66  98 141 186 222 286 349 421
#     4  11  26  42  66 103 139 178 235 285 351 411
#     4  10  20  42  70  94 136 180 234 268 346 420
#     4  10  22  43  69  97 136 182 226 287 348 412
#     4  10  20  40  69  90 128 190 221 276 349 407
#
# _framework density 25.229987000000001
#
# number of rings (size 3 to 8) (size 9 to 14) (size 15 to 20)
#    0.000    1.455    5.455    0.545    5.091    0.727 
#    0.000    0.000   16.000    0.000    0.000    0.000 
#    0.000    0.000    0.000    0.000    0.000    0.000 
#
# Total GULP energy -245028.661111 kJ/mol
# GULP energy per Si atom -5568.833207 kJ/mol
# Density = 2.517256 g / cm^3
# Si number density = 25.229987 Si / 1000 Ang^3
#
#
#
# Elastic Constant Matrix: (Units=GPa)
#
#
# Indices 1 2 3 4 5 6 
#
# 1 38.8238 9.4785 8.8794 0.0000 0.0000 0.0000
# 2 9.4785 87.6684 39.2146 0.0000 0.0000 0.0000
# 3 8.8794 39.2146 91.5992 0.0000 0.0000 0.0000
# 4 0.0000 0.0000 0.0000 32.0090 0.0000 0.0000
# 5 0.0000 0.0000 0.0000 0.0000 37.8339 0.0000
# 6 0.0000 0.0000 0.0000 0.0000 0.0000 29.9145
#
#
#
# Elastic Compliance Matrix: (Units=1/GPa)
#
#
# Indices 1 2 3 4 5 6 
#
# 1 0.026661 -0.002135 -0.001670 0.000000 0.000000 0.000000
# 2 -0.002135 0.014279 -0.005906 0.000000 0.000000 0.000000
# 3 -0.001670 -0.005906 0.013608 0.000000 0.000000 0.000000
# 4 0.000000 0.000000 0.000000 0.031241 0.000000 0.000000
# 5 0.000000 0.000000 0.000000 0.000000 0.026431 0.000000
# 6 0.000000 0.000000 0.000000 0.000000 0.000000 0.033429
#
#
# Mechanical properties :
#
#
# Convention : Reuss Voigt Hill
#
# Bulk Modulus (GPa) = 28.47053 37.02628 32.74841
# Shear Modulus (GPa) = 28.28370 30.65275 29.46823
#
# Velocity S-wave (km/s) = 3.35182 3.48937 3.42129
# Velocity P-wave (km/s) = 5.12723 5.56252 5.34930
#
# Compressibility (1/GPa) = 0.03512404
#
# Stress axis : x y z
#
# Youngs Moduli (GPa) = 37.50836 70.03126 73.48878
#
# Poissons Ratio (x) = 0.14954 0.12274
# Poissons Ratio (y) = 0.08009 0.43404
# Poissons Ratio (z) = 0.06265 0.41361
#
# Static dielectric constant tensor:
#      x y z
#    x 3.298690 0.000000 0.000000 
#    y 0.000000 4.481350 0.000000 
#    z 0.000000 0.000000 1.984790 
# 
# From -- ./inp_files/16104.got.cif
#   From: 2010.05.17/outbox.cif.g08.bks.cpg/sg56_9_cif.got.tgz:16104.got - 2010.06.03 13:42:01.
