data_PCOD9431524
_publ_section_title
;
Structure prediction by ZEFSAII (Michael W. Deem and Ramdas Pophale) SiO2 
 PCOD9431524
Probable space group: P C C N
;
_chemical_formula_sum "Si O2"
_cell_formula_units_Z 48
_cell_length_a 8.814384
_cell_length_b 17.200585
_cell_length_c 14.222056
_cell_angle_alpha 90.000000
_cell_angle_beta 90.000000
_cell_angle_gamma 90.000000
_cell_volume 2156.242336
_symmetry_space_group_name_H-M "P C C N"
_symmetry_group_IT_number 56
_symmetry_cell_setting 'orthorhombic'
loop_
_space_group_symop_operation_xyz
x,y,z
1/2-x,1/2-y,z
1/2+x,-y,1/2-z
-x,1/2+y,1/2-z
-x,-y,-z
1/2+x,1/2+y,-z
1/2-x,y,1/2+z
x,1/2-y,1/2+z
loop_
_atom_site_type_symbol
_atom_site_label
_atom_site_fract_x
_atom_site_fract_y
_atom_site_fract_z
Si Si1 0.508830 0.326062 0.300823
Si Si2 0.243895 0.944804 0.753737
Si Si3 0.338747 0.677318 0.504123
Si Si4 0.191810 0.109183 0.826176
Si Si5 0.084649 0.937210 0.063500
Si Si6 0.490096 0.825030 0.825406
O O1 0.579305 0.407785 0.265807
O O2 0.611840 0.304116 0.389894
O O3 0.340662 0.340434 0.339826
O O4 0.512059 0.260522 0.220618
O O5 0.329345 0.968340 0.656932
O O6 0.342291 0.873476 0.793214
O O7 0.232839 0.018199 0.821529
O O8 0.250000 0.750000 0.461808
O O9 0.217284 0.608014 0.508914
O O10 0.483142 0.667585 0.437231
O O11 0.050003 0.118729 0.896715
O O12 0.129536 0.131613 0.723218
O O13 0.000000 0.000000 0.000000
#
# Coordination Sequence:
#
# PCOD9431524 Si02
#       6
#     8   8   8   8   8   8
#     4  11  22  41  64  91 127 163 206 261 309 369
#     4  10  21  39  63  87 123 171 209 246 310 381
#     4  11  23  40  65  89 119 167 211 247 306 382
#     4  11  23  40  62  93 129 160 201 268 318 358
#     4  10  22  39  61  90 125 163 208 259 311 371
#     4  11  23  41  63  90 122 164 211 253 307 371
#
# _framework density 22.260947999999999
#
# number of rings (size 3 to 8) (size 9 to 14) (size 15 to 20)
#    0.000    1.333    0.000    8.000    0.000    2.667 
#    0.000    9.167    0.000    0.000    0.000    0.000 
#    0.000    0.000    0.000    0.000    0.000    0.000 
#
# Total GULP energy -268210.783411 kJ/mol
# GULP energy per Si atom -5587.724654 kJ/mol
# Density = 2.221028 g / cm^3
# Si number density = 22.260948 Si / 1000 Ang^3
#
#
#
# Elastic Constant Matrix: (Units=GPa)
#
#
# Indices 1 2 3 4 5 6 
#
# 1 98.2448 29.3218 12.4134 0.0000 0.0000 0.0000
# 2 29.3218 77.9976 29.4855 0.0000 0.0000 0.0000
# 3 12.4134 29.4855 71.3417 0.0000 0.0000 0.0000
# 4 0.0000 0.0000 0.0000 22.0921 0.0000 0.0000
# 5 0.0000 0.0000 0.0000 0.0000 25.1940 0.0000
# 6 0.0000 0.0000 0.0000 0.0000 0.0000 28.3250
#
#
#
# Elastic Compliance Matrix: (Units=1/GPa)
#
#
# Indices 1 2 3 4 5 6 
#
# 1 0.011469 -0.004216 -0.000253 0.000000 0.000000 0.000000
# 2 -0.004216 0.016745 -0.006187 0.000000 0.000000 0.000000
# 3 -0.000253 -0.006187 0.016618 0.000000 0.000000 0.000000
# 4 0.000000 0.000000 0.000000 0.045265 0.000000 0.000000
# 5 0.000000 0.000000 0.000000 0.000000 0.039692 0.000000
# 6 0.000000 0.000000 0.000000 0.000000 0.000000 0.035304
#
#
# Mechanical properties :
#
#
# Convention : Reuss Voigt Hill
#
# Bulk Modulus (GPa) = 42.51752 43.33616 42.92684
# Shear Modulus (GPa) = 25.74067 26.87978 26.31022
#
# Velocity S-wave (km/s) = 3.40415 3.47866 3.44161
# Velocity P-wave (km/s) = 5.88150 5.97029 5.92606
#
# Compressibility (1/GPa) = 0.02351971
#
# Stress axis : x y z
#
# Youngs Moduli (GPa) = 87.19247 59.72056 60.17503
#
# Poissons Ratio (x) = 0.25177 0.01524
# Poissons Ratio (y) = 0.36759 0.37230
# Poissons Ratio (z) = 0.02208 0.36949
#
# Static dielectric constant tensor:
#      x y z
#    x 1.814790 0.000000 0.000000 
#    y 0.000000 1.831750 0.000000 
#    z 0.000000 0.000000 1.865180 
# 
# From -- ./inp_files/10675.got.cif
#   From: 2010.05.17/outbox.cif.g08.bks.cpg/sg56_6_cif.got.tgz:10675.got - 2010.06.03 13:42:01.
