data_PCOD9431794
_publ_section_title
;
Structure prediction by ZEFSAII (Michael W. Deem and Ramdas Pophale) SiO2 
 PCOD9431794
Probable space group: P C C N
;
_chemical_formula_sum "Si O2"
_cell_formula_units_Z 48
_cell_length_a 8.162762
_cell_length_b 18.425725
_cell_length_c 14.581861
_cell_angle_alpha 90.000000
_cell_angle_beta 90.000000
_cell_angle_gamma 90.000000
_cell_volume 2193.182002
_symmetry_space_group_name_H-M "P C C N"
_symmetry_group_IT_number 56
_symmetry_cell_setting 'orthorhombic'
loop_
_space_group_symop_operation_xyz
x,y,z
1/2-x,1/2-y,z
1/2+x,-y,1/2-z
-x,1/2+y,1/2-z
-x,-y,-z
1/2+x,1/2+y,-z
1/2-x,y,1/2+z
x,1/2-y,1/2+z
loop_
_atom_site_type_symbol
_atom_site_label
_atom_site_fract_x
_atom_site_fract_y
_atom_site_fract_z
Si Si1 0.346581 0.594956 0.690445
Si Si2 0.624251 0.683203 0.404792
Si Si3 0.746934 0.977374 0.945353
Si Si4 0.940887 0.272565 0.918316
Si Si5 0.531080 0.855472 0.698449
Si Si6 0.383959 0.507161 0.869840
O O1 0.360904 0.527283 0.621117
O O2 0.454780 0.660407 0.652361
O O3 0.158466 0.621027 0.689986
O O4 0.375020 0.567646 0.792478
O O5 0.750000 0.750000 0.404864
O O6 0.698847 0.606392 0.438067
O O7 0.489078 0.704179 0.480016
O O8 0.563646 0.672091 0.300736
O O9 0.753895 0.009759 0.047866
O O10 0.933892 0.985280 0.910553
O O11 0.750000 0.250000 0.918695
O O12 0.049245 0.206895 0.878045
O O13 0.632711 0.927746 0.675970
#
# Coordination Sequence:
#
# PCOD9431794 Si02
#       6
#     8   8   8   8   8   8
#     4  10  22  42  69  96 126 175 224 271 328 390
#     4  12  26  42  67 100 134 174 221 273 341 396
#     4  10  23  40  64 101 128 175 215 271 339 391
#     4  10  25  46  65  95 134 177 224 274 329 399
#     4  10  23  44  63  96 131 173 222 266 331 401
#     4  10  21  42  67  91 140 167 216 274 331 396
#
# _framework density 21.886008
#
# number of rings (size 3 to 8) (size 9 to 14) (size 15 to 20)
#    0.000    1.667    1.667    1.000    4.667    8.667 
#    0.000    0.000    0.000    0.000    0.000    0.000 
#    0.000    0.000    0.000    0.000    0.000    0.000 
#
# Total GULP energy -268425.787905 kJ/mol
# GULP energy per Si atom -5592.203915 kJ/mol
# Density = 2.183619 g / cm^3
# Si number density = 21.886008 Si / 1000 Ang^3
#
#
#
# Elastic Constant Matrix: (Units=GPa)
#
#
# Indices 1 2 3 4 5 6 
#
# 1 16.0167 16.3111 10.9867 0.0000 0.0000 0.0000
# 2 16.3111 98.7226 26.3565 0.0000 0.0000 0.0000
# 3 10.9867 26.3565 132.5667 0.0000 0.0000 0.0000
# 4 0.0000 0.0000 0.0000 -152.8564 0.0000 0.0000
# 5 0.0000 0.0000 0.0000 0.0000 6.2712 0.0000
# 6 0.0000 0.0000 0.0000 0.0000 0.0000 17.8052
#
#
#
# Elastic Compliance Matrix: (Units=1/GPa)
#
#
# Indices 1 2 3 4 5 6 
#
# 1 0.077093 -0.011650 -0.004073 0.000000 0.000000 0.000000
# 2 -0.011650 0.012458 -0.001511 0.000000 0.000000 0.000000
# 3 -0.004073 -0.001511 0.008181 0.000000 0.000000 0.000000
# 4 0.000000 0.000000 0.000000 -0.006542 0.000000 0.000000
# 5 0.000000 0.000000 0.000000 0.000000 0.159458 0.000000
# 6 0.000000 0.000000 0.000000 0.000000 0.000000 0.056164
#
#
# Mechanical properties :
#
#
# Convention : Reuss Voigt Hill
#
# Bulk Modulus (GPa) = 15.80697 39.40162 27.60429
# Shear Modulus (GPa) = 13.79814 -12.84588 0.47613
#
# Velocity S-wave (km/s) = 2.51361 -2.42532 0.46693
# Velocity P-wave (km/s) = 3.95758 3.19363 3.59595
#
# Compressibility (1/GPa) = 0.06326322
#
# Stress axis : x y z
#
# Youngs Moduli (GPa) = 12.97141 80.27163 122.22850
#
# Poissons Ratio (x) = 0.93516 0.49783
# Poissons Ratio (y) = 0.15112 0.18472
# Poissons Ratio (z) = 0.05283 0.12131
#
# Static dielectric constant tensor:
#      x y z
#    x 1.789640 0.000000 0.000000 
#    y 0.000000 1.799970 0.000000 
#    z 0.000000 0.000000 1.785840 
# 
# From -- ./inp_files/10668.got.cif
#   From: 2010.05.17/outbox.cif.g08.bks.cpg/sg56_6_cif.got.tgz:10668.got - 2010.06.03 13:42:01.
