data_PCOD9431470
_publ_section_title
;
Structure prediction by ZEFSAII (Michael W. Deem and Ramdas Pophale) SiO2 
 PCOD9431470
Probable space group: P C C N
;
_chemical_formula_sum "Si O2"
_cell_formula_units_Z 64
_cell_length_a 13.693567
_cell_length_b 9.412151
_cell_length_c 23.171299
_cell_angle_alpha 90.000000
_cell_angle_beta 90.000000
_cell_angle_gamma 90.000000
_cell_volume 2986.454197
_symmetry_space_group_name_H-M "P C C N"
_symmetry_group_IT_number 56
_symmetry_cell_setting 'orthorhombic'
loop_
_space_group_symop_operation_xyz
x,y,z
1/2-x,1/2-y,z
1/2+x,-y,1/2-z
-x,1/2+y,1/2-z
-x,-y,-z
1/2+x,1/2+y,-z
1/2-x,y,1/2+z
x,1/2-y,1/2+z
loop_
_atom_site_type_symbol
_atom_site_label
_atom_site_fract_x
_atom_site_fract_y
_atom_site_fract_z
Si Si1 0.608360 0.334301 0.302316
Si Si2 0.365598 0.781312 0.010700
Si Si3 0.201184 0.483454 0.297614
Si Si4 0.621082 0.079842 0.388549
Si Si5 0.360512 0.696267 0.880864
Si Si6 0.840402 0.975295 0.411166
Si Si7 0.114923 0.320293 0.766080
Si Si8 0.436088 0.288352 0.139125
O O1 0.673989 0.396902 0.250251
O O2 0.631149 0.180037 0.331531
O O3 0.617938 0.442943 0.355433
O O4 0.497335 0.340231 0.281317
O O5 0.250000 0.750000 0.016212
O O6 0.411633 0.683092 0.059964
O O7 0.377118 0.944029 0.031223
O O8 0.389567 0.734056 0.946420
O O9 0.159486 0.538046 0.358189
O O10 0.314525 0.439423 0.293022
O O11 0.147101 0.336234 0.284851
O O12 0.724939 0.006336 0.404484
O O13 0.549935 0.947328 0.383908
O O14 0.250000 0.750000 0.871328
O O15 0.453377 0.762218 0.847047
O O16 0.878434 0.816224 0.403185
O O17 0.125038 0.314292 0.697022
#
# Coordination Sequence:
#
# PCOD9431470 Si02
#       8
#     8   8   8   8   8   8   8   8
#     4  11  21  40  65  94 125 170 219 265 328 402
#     4   8  19  43  64  91 127 167 221 275 319 401
#     4  11  24  42  61  91 130 181 208 272 344 392
#     4  10  22  39  68  95 125 168 219 276 334 388
#     4  11  25  42  66  88 129 179 223 262 330 409
#     4  10  21  38  66  98 126 166 210 280 336 372
#     4  11  25  40  60  94 140 163 218 282 325 409
#     4  12  23  39  63  99 133 167 216 278 332 393
#
# _framework density 21.430095999999999
#
# number of rings (size 3 to 8) (size 9 to 14) (size 15 to 20)
#    0.000    1.500    2.500    3.000    3.500    3.000 
#    0.000    0.000   16.500    0.000    0.000    0.000 
#    0.000    0.000    0.000    0.000    0.000    0.000 
#
# Total GULP energy -356916.986031 kJ/mol
# GULP energy per Si atom -5576.827907 kJ/mol
# Density = 2.138132 g / cm^3
# Si number density = 21.430096 Si / 1000 Ang^3
#
#
#
# Elastic Constant Matrix: (Units=GPa)
#
#
# Indices 1 2 3 4 5 6 
#
# 1 95.1855 35.0731 17.6847 0.0000 0.0000 0.0000
# 2 35.0731 109.0166 31.0631 0.0000 0.0000 0.0000
# 3 17.6847 31.0631 72.5230 0.0000 0.0000 0.0000
# 4 0.0000 0.0000 0.0000 108.7155 0.0000 0.0000
# 5 0.0000 0.0000 0.0000 0.0000 65.7986 0.0000
# 6 0.0000 0.0000 0.0000 0.0000 0.0000 21.4724
#
#
#
# Elastic Compliance Matrix: (Units=1/GPa)
#
#
# Indices 1 2 3 4 5 6 
#
# 1 0.012052 -0.003463 -0.001456 0.000000 0.000000 0.000000
# 2 -0.003463 0.011443 -0.004057 0.000000 0.000000 0.000000
# 3 -0.001456 -0.004057 0.015881 0.000000 0.000000 0.000000
# 4 0.000000 0.000000 0.000000 0.009198 0.000000 0.000000
# 5 0.000000 0.000000 0.000000 0.000000 0.015198 0.000000
# 6 0.000000 0.000000 0.000000 0.000000 0.000000 0.046571
#
#
# Mechanical properties :
#
#
# Convention : Reuss Voigt Hill
#
# Bulk Modulus (GPa) = 46.67267 49.37411 48.02339
# Shear Modulus (GPa) = 36.91767 52.05759 44.48763
#
# Velocity S-wave (km/s) = 4.15505 4.93402 4.56119
# Velocity P-wave (km/s) = 6.69668 7.45312 7.08500
#
# Compressibility (1/GPa) = 0.02142581
#
# Stress axis : x y z
#
# Youngs Moduli (GPa) = 82.97270 87.39058 62.96683
#
# Poissons Ratio (x) = 0.30260 0.09167
# Poissons Ratio (y) = 0.28730 0.25545
# Poissons Ratio (z) = 0.12079 0.35453
#
# Static dielectric constant tensor:
#      x y z
#    x 1.851300 0.000000 0.000000 
#    y 0.000000 1.886010 0.000000 
#    z 0.000000 0.000000 1.804480 
# 
# From -- ./inp_files/21155.got.cif
#   From: 2010.05.17/outbox.cif.g08.bks.cpg/sg56_11_cif.got.tgz:21155.got - 2010.06.03 13:42:01.
