data_PCOD9431633
_publ_section_title
;
Structure prediction by ZEFSAII (Michael W. Deem and Ramdas Pophale) SiO2 
 PCOD9431633
Probable space group: P C C N
;
_chemical_formula_sum "Si O2"
_cell_formula_units_Z 56
_cell_length_a 14.695655
_cell_length_b 12.138308
_cell_length_c 13.198417
_cell_angle_alpha 90.000000
_cell_angle_beta 90.000000
_cell_angle_gamma 90.000000
_cell_volume 2354.338728
_symmetry_space_group_name_H-M "P C C N"
_symmetry_group_IT_number 56
_symmetry_cell_setting 'orthorhombic'
loop_
_space_group_symop_operation_xyz
x,y,z
1/2-x,1/2-y,z
1/2+x,-y,1/2-z
-x,1/2+y,1/2-z
-x,-y,-z
1/2+x,1/2+y,-z
1/2-x,y,1/2+z
x,1/2-y,1/2+z
loop_
_atom_site_type_symbol
_atom_site_label
_atom_site_fract_x
_atom_site_fract_y
_atom_site_fract_z
Si Si1 0.693720 0.358139 0.033680
Si Si2 0.960306 0.788879 0.616047
Si Si3 0.679425 0.524478 0.648919
Si Si4 0.344573 0.279041 0.052628
Si Si5 0.608475 0.490676 0.858668
Si Si6 0.341899 0.128788 0.247335
Si Si7 0.923583 0.101118 0.224433
O O1 0.750000 0.250000 0.005721
O O2 0.767006 0.452227 0.067311
O O3 0.635006 0.342226 0.136317
O O4 0.627169 0.399115 0.943644
O O5 0.906404 0.905868 0.611487
O O6 0.939644 0.741366 0.505169
O O7 0.911044 0.694827 0.682002
O O8 0.047089 0.820311 0.683464
O O9 0.648759 0.457374 0.749247
O O10 0.747115 0.615965 0.695142
O O11 0.250000 0.250000 0.995056
O O12 0.341990 0.402590 0.093454
O O13 0.341257 0.195817 0.145324
O O14 0.509686 0.541791 0.831682
O O15 0.370099 0.002795 0.230767
#
# Coordination Sequence:
#
# PCOD9431633 Si02
#       7
#     8   8   8   8   8   8   8
#     4  11  25  44  68  94 133 182 227 273 334 407
#     4  11  22  38  64  97 130 167 211 280 338 385
#     4  10  21  40  64  95 129 162 223 281 322 396
#     4  12  20  36  72 100 127 165 219 280 345 394
#     4  11  22  43  68  97 130 177 229 271 336 414
#     4  11  20  39  63  94 129 170 216 275 337 390
#     4  10  24  42  63  92 141 178 225 276 331 414
#
# _framework density 23.785872000000001
#
# number of rings (size 3 to 8) (size 9 to 14) (size 15 to 20)
#    0.000    1.143    4.286    4.286    0.000    3.429 
#    0.000    4.286    0.000    0.000    0.000    0.000 
#    0.000    0.000    0.000    0.000    0.000    0.000 
#
# Total GULP energy -312871.453590 kJ/mol
# GULP energy per Si atom -5586.990243 kJ/mol
# Density = 2.373173 g / cm^3
# Si number density = 23.785872 Si / 1000 Ang^3
#
#
#
# Elastic Constant Matrix: (Units=GPa)
#
#
# Indices 1 2 3 4 5 6 
#
# 1 28.7909 6.4461 -13.9546 0.0000 0.0000 0.0000
# 2 6.4461 53.3511 34.0399 0.0000 0.0000 0.0000
# 3 -13.9546 34.0399 70.9239 0.0000 0.0000 0.0000
# 4 0.0000 0.0000 0.0000 24.8187 0.0000 0.0000
# 5 0.0000 0.0000 0.0000 0.0000 24.7346 0.0000
# 6 0.0000 0.0000 0.0000 0.0000 0.0000 34.1574
#
#
#
# Elastic Compliance Matrix: (Units=1/GPa)
#
#
# Indices 1 2 3 4 5 6 
#
# 1 0.046777 -0.016611 0.017176 0.000000 0.000000 0.000000
# 2 -0.016611 0.032915 -0.019066 0.000000 0.000000 0.000000
# 3 0.017176 -0.019066 0.026630 0.000000 0.000000 0.000000
# 4 0.000000 0.000000 0.000000 0.040292 0.000000 0.000000
# 5 0.000000 0.000000 0.000000 0.000000 0.040429 0.000000
# 6 0.000000 0.000000 0.000000 0.000000 0.000000 0.029276
#
#
# Mechanical properties :
#
#
# Convention : Reuss Voigt Hill
#
# Bulk Modulus (GPa) = 14.42567 22.90318 18.66443
# Shear Modulus (GPa) = 18.08787 25.17777 21.63282
#
# Velocity S-wave (km/s) = 2.76061 3.25702 3.01903
# Velocity P-wave (km/s) = 4.02980 4.87791 4.47400
#
# Compressibility (1/GPa) = 0.06932085
#
# Stress axis : x y z
#
# Youngs Moduli (GPa) = 21.37800 30.38083 37.55201
#
# Poissons Ratio (x) = 0.50464 -0.64499
# Poissons Ratio (y) = 0.35510 0.71597
# Poissons Ratio (z) = -0.36718 0.57924
#
# Static dielectric constant tensor:
#      x y z
#    x 1.996650 0.000000 0.000000 
#    y 0.000000 1.856080 0.000000 
#    z 0.000000 0.000000 1.920300 
# 
# From -- ./inp_files/12261.got.cif
#   From: 2010.05.17/outbox.cif.g08.bks.cpg/sg56_7_cif.got.tgz:12261.got - 2010.06.03 13:42:01.
