data_PCOD9431848
_publ_section_title
;
Structure prediction by ZEFSAII (Michael W. Deem and Ramdas Pophale) SiO2 
 PCOD9431848
Probable space group: P C C N
;
_chemical_formula_sum "Si O2"
_cell_formula_units_Z 56
_cell_length_a 5.531589
_cell_length_b 15.281832
_cell_length_c 29.010873
_cell_angle_alpha 90.000000
_cell_angle_beta 90.000000
_cell_angle_gamma 90.000000
_cell_volume 2452.370725
_symmetry_space_group_name_H-M "P C C N"
_symmetry_group_IT_number 56
_symmetry_cell_setting 'orthorhombic'
loop_
_space_group_symop_operation_xyz
x,y,z
1/2-x,1/2-y,z
1/2+x,-y,1/2-z
-x,1/2+y,1/2-z
-x,-y,-z
1/2+x,1/2+y,-z
1/2-x,y,1/2+z
x,1/2-y,1/2+z
loop_
_atom_site_type_symbol
_atom_site_label
_atom_site_fract_x
_atom_site_fract_y
_atom_site_fract_z
Si Si1 0.573592 0.903343 0.018824
Si Si2 0.430427 0.410085 0.061791
Si Si3 0.946188 0.598801 0.591694
Si Si4 0.750000 0.250000 0.566845
Si Si5 0.250000 0.750000 0.049070
Si Si6 0.900147 0.458083 0.306866
Si Si7 0.608008 0.435945 0.706229
Si Si8 0.615082 0.676002 0.364945
O O1 0.670631 0.904511 0.072153
O O2 0.399374 0.819007 0.018845
O O3 0.785043 0.880648 0.983179
O O4 0.500000 0.000000 0.000000
O O5 0.455706 0.514992 0.062953
O O6 0.673233 0.353861 0.057859
O O7 0.289875 0.391950 0.109737
O O8 0.023858 0.585296 0.644695
O O9 0.065380 0.689816 0.576947
O O10 0.506623 0.271116 0.594176
O O11 0.126724 0.523283 0.299055
O O12 0.912694 0.403467 0.258961
O O13 0.630559 0.502204 0.304827
O O14 0.585825 0.365506 0.666504
O O15 0.750000 0.750000 0.335696
#
# Coordination Sequence:
#
# PCOD9431848 Si02
#       8
#     8   8   8   4   4   8   8   8
#     4  12  29  50  71 104 142 200 248 319 380 460
#     4  11  24  44  71 100 141 190 241 305 385 439
#     4  12  26  48  74 104 143 198 246 317 376 458
#     4  10  24  39  65 106 140 186 239 310 372 459
#     4  12  30  51  71 102 150 190 267 306 380 463
#     4  10  23  41  77 103 142 192 250 305 374 453
#     4  10  21  43  69 109 141 193 249 306 371 455
#     4  10  22  38  62 100 143 181 234 297 370 439
#
# _framework density 22.835045999999998
#
# number of rings (size 3 to 8) (size 9 to 14) (size 15 to 20)
#    0.000    1.143    2.857    1.714    8.000    4.571 
#    0.000    2.143    0.000    0.000    0.000    0.000 
#    0.000    0.000    0.000    0.000    0.000    0.000 
#
# Total GULP energy -311791.855715 kJ/mol
# GULP energy per Si atom -5567.711709 kJ/mol
# Density = 2.278307 g / cm^3
# Si number density = 22.835046 Si / 1000 Ang^3
#
#
#
# Elastic Constant Matrix: (Units=GPa)
#
#
# Indices 1 2 3 4 5 6 
#
# 1 65.6258 23.5378 -6.9706 0.0000 0.0000 0.0000
# 2 23.5378 113.2903 17.3204 0.0000 0.0000 0.0000
# 3 -6.9706 17.3204 97.7293 0.0000 0.0000 0.0000
# 4 0.0000 0.0000 0.0000 90.7501 0.0000 0.0000
# 5 0.0000 0.0000 0.0000 0.0000 69.8802 0.0000
# 6 0.0000 0.0000 0.0000 0.0000 0.0000 35.9099
#
#
#
# Elastic Compliance Matrix: (Units=1/GPa)
#
#
# Indices 1 2 3 4 5 6 
#
# 1 0.016790 -0.003774 0.001866 0.000000 0.000000 0.000000
# 2 -0.003774 0.009921 -0.002027 0.000000 0.000000 0.000000
# 3 0.001866 -0.002027 0.010725 0.000000 0.000000 0.000000
# 4 0.000000 0.000000 0.000000 0.011019 0.000000 0.000000
# 5 0.000000 0.000000 0.000000 0.000000 0.014310 0.000000
# 6 0.000000 0.000000 0.000000 0.000000 0.000000 0.027847
#
#
# Mechanical properties :
#
#
# Convention : Reuss Voigt Hill
#
# Bulk Modulus (GPa) = 33.82286 38.26897 36.04592
# Shear Modulus (GPa) = 46.15229 55.49188 50.82209
#
# Velocity S-wave (km/s) = 4.50056 4.93497 4.72276
# Velocity P-wave (km/s) = 6.46921 7.01906 6.74974
#
# Compressibility (1/GPa) = 0.02956580
#
# Stress axis : x y z
#
# Youngs Moduli (GPa) = 59.56062 100.79760 93.24205
#
# Poissons Ratio (x) = 0.38037 -0.17402
# Poissons Ratio (y) = 0.22476 0.18904
# Poissons Ratio (z) = -0.11116 0.20436
#
# Static dielectric constant tensor:
#      x y z
#    x 1.956260 0.000000 0.000000 
#    y 0.000000 1.960200 0.000000 
#    z 0.000000 0.000000 2.016260 
# 
# From -- ./inp_files/22907.got.cif
#   From: 2010.05.17/outbox.cif.g08.bks.cpg/sg56_12_cif.got.tgz:22907.got - 2010.06.03 13:42:01.
