data_PCOD9431469
_publ_section_title
;
Structure prediction by ZEFSAII (Michael W. Deem and Ramdas Pophale) SiO2 
 PCOD9431469
Probable space group: P C C N
;
_chemical_formula_sum "Si O2"
_cell_formula_units_Z 60
_cell_length_a 8.769614
_cell_length_b 18.835113
_cell_length_c 16.799425
_cell_angle_alpha 90.000000
_cell_angle_beta 90.000000
_cell_angle_gamma 90.000000
_cell_volume 2774.873090
_symmetry_space_group_name_H-M "P C C N"
_symmetry_group_IT_number 56
_symmetry_cell_setting 'orthorhombic'
loop_
_space_group_symop_operation_xyz
x,y,z
1/2-x,1/2-y,z
1/2+x,-y,1/2-z
-x,1/2+y,1/2-z
-x,-y,-z
1/2+x,1/2+y,-z
1/2-x,y,1/2+z
x,1/2-y,1/2+z
loop_
_atom_site_type_symbol
_atom_site_label
_atom_site_fract_x
_atom_site_fract_y
_atom_site_fract_z
Si Si1 0.671465 0.493951 0.533079
Si Si2 0.750826 0.126629 0.148776
Si Si3 0.842076 0.073780 0.908730
Si Si4 0.408353 0.793239 0.481431
Si Si5 0.750000 0.750000 0.527597
Si Si6 0.989647 0.909612 0.251470
Si Si7 0.918995 0.064213 0.294596
Si Si8 0.714089 0.876134 0.151369
O O1 0.500000 0.500000 0.500000
O O2 0.687769 0.417577 0.574274
O O3 0.801547 0.492246 0.465057
O O4 0.712855 0.552232 0.598189
O O5 0.601567 0.143360 0.201507
O O6 0.836402 0.075685 0.210900
O O7 0.864125 0.182187 0.108350
O O8 0.911144 0.138828 0.958525
O O9 0.679079 0.091832 0.869208
O O10 0.934991 0.058280 0.829046
O O11 0.250000 0.750000 0.504528
O O12 0.581793 0.761280 0.485079
O O13 0.779694 0.815489 0.586465
O O14 0.847074 0.870122 0.215208
O O15 0.950482 0.979884 0.302631
O O16 0.064744 0.113459 0.296386
#
# Coordination Sequence:
#
# PCOD9431469 Si02
#       8
#     8   8   8   8   4   8   8   8
#     4  11  20  36  67 103 129 174 232 290 358 405
#     4  10  23  41  66  99 134 177 230 287 370 410
#     4  10  21  38  66  97 131 174 230 287 357 414
#     4  11  25  49  70  94 138 189 247 294 345 423
#     4  12  28  48  66 104 140 192 244 286 348 432
#     4  11  20  40  64 102 139 168 224 287 363 428
#     4  11  20  40  66 101 137 176 219 294 365 424
#     4  12  23  41  67  99 142 179 233 286 347 433
#
# _framework density 21.622610999999999
#
# number of rings (size 3 to 8) (size 9 to 14) (size 15 to 20)
#    0.000    1.067    5.333    1.600    1.867    1.600 
#    4.800    1.333    0.000    0.000    0.000    0.000 
#    0.000    0.000    0.000    0.000    0.000    0.000 
#
# Total GULP energy -334229.957258 kJ/mol
# GULP energy per Si atom -5570.499288 kJ/mol
# Density = 2.157340 g / cm^3
# Si number density = 21.622611 Si / 1000 Ang^3
#
#
#
# Elastic Constant Matrix: (Units=GPa)
#
#
# Indices 1 2 3 4 5 6 
#
# 1 132.7106 33.0943 48.3649 0.0000 0.0000 0.0000
# 2 33.0943 41.0244 6.1933 0.0000 0.0000 0.0000
# 3 48.3649 6.1933 67.8066 0.0000 0.0000 0.0000
# 4 0.0000 0.0000 0.0000 17.3269 0.0000 0.0000
# 5 0.0000 0.0000 0.0000 0.0000 34.3541 0.0000
# 6 0.0000 0.0000 0.0000 0.0000 0.0000 27.8162
#
#
#
# Elastic Compliance Matrix: (Units=1/GPa)
#
#
# Indices 1 2 3 4 5 6 
#
# 1 0.012839 -0.009100 -0.008327 0.000000 0.000000 0.000000
# 2 -0.009100 0.031167 0.003644 0.000000 0.000000 0.000000
# 3 -0.008327 0.003644 0.020354 0.000000 0.000000 0.000000
# 4 0.000000 0.000000 0.000000 0.057714 0.000000 0.000000
# 5 0.000000 0.000000 0.000000 0.000000 0.029109 0.000000
# 6 0.000000 0.000000 0.000000 0.000000 0.000000 0.035950
#
#
# Mechanical properties :
#
#
# Convention : Reuss Voigt Hill
#
# Bulk Modulus (GPa) = 27.17777 46.31629 36.74703
# Shear Modulus (GPa) = 22.03009 26.15873 24.09441
#
# Velocity S-wave (km/s) = 3.19540 3.48197 3.34176
# Velocity P-wave (km/s) = 5.11962 6.13452 5.64990
#
# Compressibility (1/GPa) = 0.03679478
#
# Stress axis : x y z
#
# Youngs Moduli (GPa) = 77.88738 32.08553 49.13008
#
# Poissons Ratio (x) = 0.29198 0.40909
# Poissons Ratio (y) = 0.70879 -0.17904
# Poissons Ratio (z) = 0.64854 -0.11693
#
# Static dielectric constant tensor:
#      x y z
#    x 1.934640 0.000000 0.000000 
#    y 0.000000 1.813520 0.000000 
#    z 0.000000 0.000000 1.798950 
# 
# From -- ./inp_files/15105.got.cif
#   From: 2010.05.17/outbox.cif.g08.bks.cpg/sg56_8_cif.got.tgz:15105.got - 2010.06.03 13:42:01.
