data_PCOD9431013
_publ_section_title
;
Structure prediction by ZEFSAII (Michael W. Deem and Ramdas Pophale) SiO2 
 PCOD9431013
Probable space group: P C C N
;
_chemical_formula_sum "Si O2"
_cell_formula_units_Z 64
_cell_length_a 32.647536
_cell_length_b 5.251091
_cell_length_c 18.147531
_cell_angle_alpha 90.000000
_cell_angle_beta 90.000000
_cell_angle_gamma 90.000000
_cell_volume 3111.125288
_symmetry_space_group_name_H-M "P C C N"
_symmetry_group_IT_number 56
_symmetry_cell_setting 'orthorhombic'
loop_
_space_group_symop_operation_xyz
x,y,z
1/2-x,1/2-y,z
1/2+x,-y,1/2-z
-x,1/2+y,1/2-z
-x,-y,-z
1/2+x,1/2+y,-z
1/2-x,y,1/2+z
x,1/2-y,1/2+z
loop_
_atom_site_type_symbol
_atom_site_label
_atom_site_fract_x
_atom_site_fract_y
_atom_site_fract_z
Si Si1 0.607737 0.039431 0.499575
Si Si2 0.371662 0.051711 0.743976
Si Si3 0.085375 0.237214 0.378519
Si Si4 0.070487 0.255848 0.629949
Si Si5 0.297676 0.275259 0.167838
Si Si6 0.954270 0.420817 0.989470
Si Si7 0.838847 0.261338 0.884253
Si Si8 0.995395 0.534506 0.700245
O O1 0.560982 0.139882 0.504436
O O2 0.636673 0.249349 0.461474
O O3 0.616378 0.932321 0.580091
O O4 0.603237 0.846834 0.431375
O O5 0.391071 0.045082 0.824043
O O6 0.403423 0.241961 0.703454
O O7 0.326312 0.169952 0.739139
O O8 0.367559 0.811298 0.687662
O O9 0.068877 0.079487 0.447762
O O10 0.046632 0.377312 0.339657
O O11 0.055684 0.995240 0.594569
O O12 0.031199 0.435161 0.645284
O O13 0.250000 0.250000 0.183270
O O14 0.192736 0.976406 0.117972
O O15 0.315843 0.022827 0.130427
O O16 0.000000 0.500000 0.000000
O O17 0.990097 0.282668 0.752451
#
# Coordination Sequence:
#
# PCOD9431013 Si02
#       8
#     8   8   8   8   8   8   8   8
#     4  10  22  37  61  84 128 162 219 254 323 376
#     4   9  21  37  61  90 126 162 211 261 321 380
#     4  11  24  39  56  92 121 173 220 268 323 388
#     4  10  21  39  55  84 115 166 212 269 315 375
#     4  10  20  39  69 103 126 155 205 258 322 386
#     4  11  23  36  58  82 120 170 219 272 316 376
#     4   9  21  38  66  98 126 165 198 263 314 383
#     4  12  27  40  59  85 124 166 223 281 326 368
#
# _framework density 20.571335000000001
#
# number of rings (size 3 to 8) (size 9 to 14) (size 15 to 20)
#    0.750    1.000    1.250    2.625    7.000    5.000 
#    0.000    0.000    0.000    0.750    0.000    0.000 
#    0.000    0.000    0.000    0.000    0.000    0.000 
#
# Total GULP energy -356329.166872 kJ/mol
# GULP energy per Si atom -5567.643232 kJ/mol
# Density = 2.052451 g / cm^3
# Si number density = 20.571335 Si / 1000 Ang^3
#
#
#
# Elastic Constant Matrix: (Units=GPa)
#
#
# Indices 1 2 3 4 5 6 
#
# 1 94.6582 6.1231 23.4201 0.0000 0.0000 0.0000
# 2 6.1231 71.6282 22.9748 0.0000 0.0000 0.0000
# 3 23.4201 22.9748 79.7552 0.0000 0.0000 0.0000
# 4 0.0000 0.0000 0.0000 23.6416 0.0000 0.0000
# 5 0.0000 0.0000 0.0000 0.0000 16.5042 0.0000
# 6 0.0000 0.0000 0.0000 0.0000 0.0000 27.0276
#
#
#
# Elastic Compliance Matrix: (Units=1/GPa)
#
#
# Indices 1 2 3 4 5 6 
#
# 1 0.011393 0.000109 -0.003377 0.000000 0.000000 0.000000
# 2 0.000109 0.015383 -0.004464 0.000000 0.000000 0.000000
# 3 -0.003377 -0.004464 0.014816 0.000000 0.000000 0.000000
# 4 0.000000 0.000000 0.000000 0.042298 0.000000 0.000000
# 5 0.000000 0.000000 0.000000 0.000000 0.060591 0.000000
# 6 0.000000 0.000000 0.000000 0.000000 0.000000 0.036999
#
#
# Mechanical properties :
#
#
# Convention : Reuss Voigt Hill
#
# Bulk Modulus (GPa) = 38.27094 39.00862 38.63978
# Shear Modulus (GPa) = 24.31285 26.33623 25.32454
#
# Velocity S-wave (km/s) = 3.44158 3.58192 3.51245
# Velocity P-wave (km/s) = 5.86831 6.00922 5.93918
#
# Compressibility (1/GPa) = 0.02612948
#
# Stress axis : x y z
#
# Youngs Moduli (GPa) = 87.77487 65.00548 67.49551
#
# Poissons Ratio (x) = -0.00710 0.22793
# Poissons Ratio (y) = -0.00959 0.30127
# Poissons Ratio (z) = 0.29641 0.29015
#
# Static dielectric constant tensor:
#      x y z
#    x 1.798310 0.000000 0.000000 
#    y 0.000000 1.875220 0.000000 
#    z 0.000000 0.000000 1.776810 
# 
# From -- ./inp_files/17131.got.cif
#   From: 2010.05.17/outbox.cif.g08.bks.cpg/sg56_9_cif.got.tgz:17131.got - 2010.06.03 13:42:01.
