data_PCOD9431214
_publ_section_title
;
Structure prediction by ZEFSAII (Michael W. Deem and Ramdas Pophale) SiO2 
 PCOD9431214
Probable space group: P C C N
;
_chemical_formula_sum "Si O2"
_cell_formula_units_Z 64
_cell_length_a 7.992001
_cell_length_b 24.434616
_cell_length_c 14.134049
_cell_angle_alpha 90.000000
_cell_angle_beta 90.000000
_cell_angle_gamma 90.000000
_cell_volume 2760.117944
_symmetry_space_group_name_H-M "P C C N"
_symmetry_group_IT_number 56
_symmetry_cell_setting 'orthorhombic'
loop_
_space_group_symop_operation_xyz
x,y,z
1/2-x,1/2-y,z
1/2+x,-y,1/2-z
-x,1/2+y,1/2-z
-x,-y,-z
1/2+x,1/2+y,-z
1/2-x,y,1/2+z
x,1/2-y,1/2+z
loop_
_atom_site_type_symbol
_atom_site_label
_atom_site_fract_x
_atom_site_fract_y
_atom_site_fract_z
Si Si1 0.919274 0.053101 0.454820
Si Si2 0.148397 0.601902 0.404436
Si Si3 0.475864 0.030848 0.751502
Si Si4 0.952847 0.754340 0.695655
Si Si5 0.431464 0.823098 0.845805
Si Si6 0.441119 0.168195 0.957509
Si Si7 0.391298 0.085032 0.269761
Si Si8 0.067520 0.162798 0.947525
O O1 0.759109 0.071167 0.515395
O O2 0.909148 0.044118 0.342940
O O3 0.044621 0.103582 0.466088
O O4 0.000000 0.000000 0.500000
O O5 0.265087 0.640543 0.339692
O O6 0.054658 0.557649 0.341357
O O7 0.026780 0.641501 0.461983
O O8 0.292376 0.057633 0.763731
O O9 0.480016 0.965015 0.744717
O O10 0.750000 0.750000 0.710746
O O11 0.988421 0.812501 0.647842
O O12 0.008774 0.712086 0.613158
O O13 0.046696 0.732071 0.786719
O O14 0.572862 0.866021 0.805653
O O15 0.451296 0.809618 0.956166
O O16 0.250703 0.183894 0.973988
O O17 0.413619 0.113748 0.371301
#
# Coordination Sequence:
#
# PCOD9431214 Si02
#       8
#     8   8   8   8   8   8   8   8
#     4  11  24  44  68  97 145 186 238 297 363 427
#     4  11  26  41  69 104 143 190 232 302 360 443
#     4  12  24  42  68 102 140 189 246 287 366 421
#     4   9  21  40  72  99 128 176 230 294 345 429
#     4  10  22  43  69  98 138 178 230 288 367 417
#     4  10  20  44  69  98 132 181 235 293 353 432
#     4  11  23  41  68  98 139 188 238 298 347 439
#     4  10  22  43  66 100 140 179 240 292 364 419
#
# _framework density 23.187415000000001
#
# number of rings (size 3 to 8) (size 9 to 14) (size 15 to 20)
#    0.000    1.500    1.250    3.750    5.250    2.000 
#    2.250    2.500    0.000    0.000    0.000    0.000 
#    0.000    0.000    0.000    0.000    0.000    0.000 
#
# Total GULP energy -357876.453952 kJ/mol
# GULP energy per Si atom -5591.819593 kJ/mol
# Density = 2.313464 g / cm^3
# Si number density = 23.187415 Si / 1000 Ang^3
#
#
#
# Elastic Constant Matrix: (Units=GPa)
#
#
# Indices 1 2 3 4 5 6 
#
# 1 52.4396 26.5499 15.6264 0.0000 0.0000 0.0000
# 2 26.5499 93.7500 26.9580 0.0000 0.0000 0.0000
# 3 15.6264 26.9580 60.9548 0.0000 0.0000 0.0000
# 4 0.0000 0.0000 0.0000 36.1045 0.0000 0.0000
# 5 0.0000 0.0000 0.0000 0.0000 35.3568 0.0000
# 6 0.0000 0.0000 0.0000 0.0000 0.0000 15.2269
#
#
#
# Elastic Compliance Matrix: (Units=1/GPa)
#
#
# Indices 1 2 3 4 5 6 
#
# 1 0.022873 -0.005490 -0.003436 0.000000 0.000000 0.000000
# 2 -0.005490 0.013538 -0.004580 0.000000 0.000000 0.000000
# 3 -0.003436 -0.004580 0.019312 0.000000 0.000000 0.000000
# 4 0.000000 0.000000 0.000000 0.027697 0.000000 0.000000
# 5 0.000000 0.000000 0.000000 0.000000 0.028283 0.000000
# 6 0.000000 0.000000 0.000000 0.000000 0.000000 0.065673
#
#
# Mechanical properties :
#
#
# Convention : Reuss Voigt Hill
#
# Bulk Modulus (GPa) = 34.82869 38.37924 36.60396
# Shear Modulus (GPa) = 23.36898 26.53831 24.95364
#
# Velocity S-wave (km/s) = 3.17808 3.38674 3.28406
# Velocity P-wave (km/s) = 5.34041 5.64633 5.49550
#
# Compressibility (1/GPa) = 0.02871197
#
# Stress axis : x y z
#
# Youngs Moduli (GPa) = 43.72015 73.86423 51.78113
#
# Poissons Ratio (x) = 0.40548 0.17791
# Poissons Ratio (y) = 0.24000 0.23717
# Poissons Ratio (z) = 0.15021 0.33831
#
# Static dielectric constant tensor:
#      x y z
#    x 1.892090 0.000000 0.000000 
#    y 0.000000 1.904070 0.000000 
#    z 0.000000 0.000000 1.883190 
# 
# From -- ./inp_files/11072.got.cif
#   From: 2010.05.17/outbox.cif.g08.bks.cpg/sg56_6_cif.got.tgz:11072.got - 2010.06.03 13:42:01.
