data_PCOD9431757
_publ_section_title
;
Structure prediction by ZEFSAII (Michael W. Deem and Ramdas Pophale) SiO2 
 PCOD9431757
Probable space group: P C C N
;
_chemical_formula_sum "Si O2"
_cell_formula_units_Z 64
_cell_length_a 21.958979
_cell_length_b 9.235776
_cell_length_c 14.723022
_cell_angle_alpha 90.000000
_cell_angle_beta 90.000000
_cell_angle_gamma 90.000000
_cell_volume 2985.949756
_symmetry_space_group_name_H-M "P C C N"
_symmetry_group_IT_number 56
_symmetry_cell_setting 'orthorhombic'
loop_
_space_group_symop_operation_xyz
x,y,z
1/2-x,1/2-y,z
1/2+x,-y,1/2-z
-x,1/2+y,1/2-z
-x,-y,-z
1/2+x,1/2+y,-z
1/2-x,y,1/2+z
x,1/2-y,1/2+z
loop_
_atom_site_type_symbol
_atom_site_label
_atom_site_fract_x
_atom_site_fract_y
_atom_site_fract_z
Si Si1 0.251639 0.923452 0.472067
Si Si2 0.555439 0.681479 0.975249
Si Si3 0.905137 0.124015 0.733543
Si Si4 0.991474 0.972249 0.141305
Si Si5 0.836535 0.550915 0.387878
Si Si6 0.355622 0.935708 0.317091
Si Si7 0.626938 0.589651 0.583434
Si Si8 0.318941 0.216531 0.256880
O O1 0.250000 0.750000 0.484908
O O2 0.302861 0.940496 0.393195
O O3 0.277005 0.995813 0.563281
O O4 0.188873 0.006514 0.447146
O O5 0.520747 0.630735 0.882842
O O6 0.612773 0.572625 0.965317
O O7 0.508821 0.631929 0.053329
O O8 0.586029 0.832928 0.005727
O O9 0.873586 0.275546 0.712231
O O10 0.860710 0.052003 0.808560
O O11 0.908361 0.030720 0.641747
O O12 0.970684 0.109226 0.781367
O O13 0.921316 0.997823 0.160125
O O14 0.831150 0.702585 0.336835
O O15 0.329863 0.047517 0.243632
O O16 0.643609 0.713337 0.658807
O O17 0.250000 0.250000 0.282414
#
# Coordination Sequence:
#
# PCOD9431757 Si02
#       8
#     8   8   8   8   8   8   8   8
#     4  12  24  43  70 101 141 189 227 293 367 431
#     4  10  21  41  69  95 131 178 231 286 346 419
#     4  10  25  43  67  98 136 179 231 293 345 428
#     4  10  22  41  71  99 137 182 231 290 360 410
#     4  10  24  43  63  96 134 177 229 283 351 412
#     4  12  23  44  73 101 139 186 233 286 365 415
#     4  11  22  42  67  97 135 178 236 280 350 433
#     4  11  23  38  65  99 130 172 230 282 337 415
#
# _framework density 21.433717000000001
#
# number of rings (size 3 to 8) (size 9 to 14) (size 15 to 20)
#    0.000    1.250    5.000    0.000    3.500    2.000 
#    0.000    0.625    0.000    0.000    0.000    0.000 
#    0.000    0.000    0.000    0.000    0.000    0.000 
#
# Total GULP energy -356769.977271 kJ/mol
# GULP energy per Si atom -5574.530895 kJ/mol
# Density = 2.138493 g / cm^3
# Si number density = 21.433717 Si / 1000 Ang^3
#
#
#
# Elastic Constant Matrix: (Units=GPa)
#
#
# Indices 1 2 3 4 5 6 
#
# 1 63.9569 51.4480 24.5183 0.0000 0.0000 0.0000
# 2 51.4480 113.5585 36.1602 0.0000 0.0000 0.0000
# 3 24.5183 36.1602 55.5931 0.0000 0.0000 0.0000
# 4 0.0000 0.0000 0.0000 -55.6625 0.0000 0.0000
# 5 0.0000 0.0000 0.0000 0.0000 16.0860 0.0000
# 6 0.0000 0.0000 0.0000 0.0000 0.0000 29.0597
#
#
#
# Elastic Compliance Matrix: (Units=1/GPa)
#
#
# Indices 1 2 3 4 5 6 
#
# 1 0.025545 -0.010072 -0.004715 0.000000 0.000000 0.000000
# 2 -0.010072 0.015077 -0.005365 0.000000 0.000000 0.000000
# 3 -0.004715 -0.005365 0.023557 0.000000 0.000000 0.000000
# 4 0.000000 0.000000 0.000000 -0.017965 0.000000 0.000000
# 5 0.000000 0.000000 0.000000 0.000000 0.062166 0.000000
# 6 0.000000 0.000000 0.000000 0.000000 0.000000 0.034412
#
#
# Mechanical properties :
#
#
# Convention : Reuss Voigt Hill
#
# Bulk Modulus (GPa) = 41.88362 50.81796 46.35079
# Shear Modulus (GPa) = 26.17059 5.96210 16.06635
#
# Velocity S-wave (km/s) = 3.49807 1.66964 2.74082
# Velocity P-wave (km/s) = 5.99156 5.24192 5.62923
#
# Compressibility (1/GPa) = 0.02387568
#
# Stress axis : x y z
#
# Youngs Moduli (GPa) = 39.14659 66.32400 42.45027
#
# Poissons Ratio (x) = 0.66801 0.20015
# Poissons Ratio (y) = 0.39428 0.22775
# Poissons Ratio (z) = 0.18458 0.35583
#
# Static dielectric constant tensor:
#      x y z
#    x 1.826070 0.000000 0.000000 
#    y 0.000000 1.808780 0.000000 
#    z 0.000000 0.000000 1.827160 
# 
# From -- ./inp_files/13288.got.cif
#   From: 2010.05.17/outbox.cif.g08.bks.cpg/sg56_7_cif.got.tgz:13288.got - 2010.06.03 13:42:01.
