data_PCOD9431604
_publ_section_title
;
Structure prediction by ZEFSAII (Michael W. Deem and Ramdas Pophale) SiO2 
 PCOD9431604
Probable space group: P C C N
;
_chemical_formula_sum "Si O2"
_cell_formula_units_Z 48
_cell_length_a 8.510467
_cell_length_b 15.740058
_cell_length_c 18.257141
_cell_angle_alpha 90.000000
_cell_angle_beta 90.000000
_cell_angle_gamma 90.000000
_cell_volume 2445.639781
_symmetry_space_group_name_H-M "P C C N"
_symmetry_group_IT_number 56
_symmetry_cell_setting 'orthorhombic'
loop_
_space_group_symop_operation_xyz
x,y,z
1/2-x,1/2-y,z
1/2+x,-y,1/2-z
-x,1/2+y,1/2-z
-x,-y,-z
1/2+x,1/2+y,-z
1/2-x,y,1/2+z
x,1/2-y,1/2+z
loop_
_atom_site_type_symbol
_atom_site_label
_atom_site_fract_x
_atom_site_fract_y
_atom_site_fract_z
Si Si1 0.561903 0.594817 0.289021
Si Si2 0.939523 0.917625 0.458068
Si Si3 0.562296 0.571970 0.788926
Si Si4 0.939440 0.582262 0.457981
Si Si5 0.059419 0.250029 0.453630
Si Si6 0.064051 0.761375 0.711147
O O1 0.509776 0.585486 0.373468
O O2 0.484089 0.520157 0.241508
O O3 0.749794 0.583277 0.285738
O O4 0.517571 0.687010 0.258191
O O5 0.750045 0.919140 0.457963
O O6 0.989229 0.833410 0.501488
O O7 0.000000 0.000000 0.500000
O O8 0.509972 0.581710 0.873325
O O9 0.485648 0.646522 0.740976
O O10 0.989174 0.666648 0.501219
O O11 0.000000 0.500000 0.500000
O O12 0.250000 0.250000 0.447958
O O13 0.989501 0.248664 0.372711
O O14 0.250000 0.750000 0.716585
#
# Coordination Sequence:
#
# PCOD9431604 Si02
#       6
#     8   8   8   8   8   8
#     4  11  23  41  63  90 122 158 199 246 296 354
#     4  10  22  39  61  87 117 153 196 242 294 351
#     4  11  23  41  63  90 122 158 199 246 296 354
#     4  10  22  39  61  87 117 153 196 242 294 351
#     4  10  21  40  62  84 114 156 197 242 298 352
#     4  12  25  40  60  90 122 158 201 246 296 354
#
# _framework density 19.626766
#
# number of rings (size 3 to 8) (size 9 to 14) (size 15 to 20)
#    0.000    1.333    0.000    5.500    0.000   12.000 
#    0.000    1.667    0.000    0.000    0.000    0.000 
#    0.000    0.000    0.000    0.000    0.000    0.000 
#
# Total GULP energy -268544.194650 kJ/mol
# GULP energy per Si atom -5594.670722 kJ/mol
# Density = 1.958209 g / cm^3
# Si number density = 19.626766 Si / 1000 Ang^3
#
#
#
# Elastic Constant Matrix: (Units=GPa)
#
#
# Indices 1 2 3 4 5 6 
#
# 1 27.4311 -11.6533 -0.1824 0.0000 0.0000 0.0000
# 2 -11.6533 92.9112 15.5054 0.0000 0.0000 0.0000
# 3 -0.1824 15.5054 126.5211 0.0000 0.0000 0.0000
# 4 0.0000 0.0000 0.0000 45.7139 0.0000 0.0000
# 5 0.0000 0.0000 0.0000 0.0000 25.0224 0.0000
# 6 0.0000 0.0000 0.0000 0.0000 0.0000 38.2926
#
#
#
# Elastic Compliance Matrix: (Units=1/GPa)
#
#
# Indices 1 2 3 4 5 6 
#
# 1 0.038544 0.004926 -0.000548 0.000000 0.000000 0.000000
# 2 0.004926 0.011617 -0.001417 0.000000 0.000000 0.000000
# 3 -0.000548 -0.001417 0.008077 0.000000 0.000000 0.000000
# 4 0.000000 0.000000 0.000000 0.021875 0.000000 0.000000
# 5 0.000000 0.000000 0.000000 0.000000 0.039964 0.000000
# 6 0.000000 0.000000 0.000000 0.000000 0.000000 0.026115
#
#
# Mechanical properties :
#
#
# Convention : Reuss Voigt Hill
#
# Bulk Modulus (GPa) = 15.58605 28.24478 21.91541
# Shear Modulus (GPa) = 30.92981 38.01869 34.47425
#
# Velocity S-wave (km/s) = 3.97407 4.40601 4.19560
# Velocity P-wave (km/s) = 5.38666 6.34870 5.88736
#
# Compressibility (1/GPa) = 0.06415996
#
# Stress axis : x y z
#
# Youngs Moduli (GPa) = 25.94440 86.07936 123.81391
#
# Poissons Ratio (x) = -0.42401 0.06786
# Poissons Ratio (y) = -0.12780 0.17540
# Poissons Ratio (z) = 0.01422 0.12194
#
# Static dielectric constant tensor:
#      x y z
#    x 1.677570 0.000000 0.000000 
#    y 0.000000 1.638970 0.000000 
#    z 0.000000 0.000000 1.661170 
# 
# From -- ./inp_files/14829.got.cif
#   From: 2010.05.17/outbox.cif.g08.bks.cpg/sg56_8_cif.got.tgz:14829.got - 2010.06.03 13:42:01.
