data_PCOD9431638
_publ_section_title
;
Structure prediction by ZEFSAII (Michael W. Deem and Ramdas Pophale) SiO2 
 PCOD9431638
Probable space group: P C C N
;
_chemical_formula_sum "Si O2"
_cell_formula_units_Z 48
_cell_length_a 13.023642
_cell_length_b 9.038705
_cell_length_c 17.516499
_cell_angle_alpha 90.000000
_cell_angle_beta 90.000000
_cell_angle_gamma 90.000000
_cell_volume 2061.987227
_symmetry_space_group_name_H-M "P C C N"
_symmetry_group_IT_number 56
_symmetry_cell_setting 'orthorhombic'
loop_
_space_group_symop_operation_xyz
x,y,z
1/2-x,1/2-y,z
1/2+x,-y,1/2-z
-x,1/2+y,1/2-z
-x,-y,-z
1/2+x,1/2+y,-z
1/2-x,y,1/2+z
x,1/2-y,1/2+z
loop_
_atom_site_type_symbol
_atom_site_label
_atom_site_fract_x
_atom_site_fract_y
_atom_site_fract_z
Si Si1 0.522362 0.751519 0.717554
Si Si2 0.697772 0.905380 0.125158
Si Si3 0.531098 0.156355 0.532113
Si Si4 0.612678 0.063591 0.980014
Si Si5 0.110153 0.946375 0.812177
Si Si6 0.139019 0.184202 0.624354
O O1 0.591629 0.642453 0.665695
O O2 0.421081 0.664846 0.744607
O O3 0.527375 0.917074 0.682991
O O4 0.580964 0.785647 0.797211
O O5 0.750000 0.750000 0.100936
O O6 0.777105 0.980837 0.184673
O O7 0.679889 0.009110 0.052119
O O8 0.595229 0.261759 0.476255
O O9 0.425935 0.234681 0.558411
O O10 0.500000 0.000000 0.500000
O O11 0.597322 0.140106 0.608717
O O12 0.500000 0.000000 0.000000
O O13 0.646736 0.984437 0.903111
O O14 0.250000 0.250000 0.630656
#
# Coordination Sequence:
#
# PCOD9431638 Si02
#       6
#     8   8   8   8   8   8
#     4  10  23  41  66  97 130 173 221 274 332 401
#     4  10  22  41  69  99 129 179 226 276 338 417
#     4  10  24  40  57  95 131 165 214 280 329 385
#     4  10  23  38  66  93 127 175 221 271 332 402
#     4  10  23  40  66  92 134 172 219 277 336 399
#     4  10  21  40  65  92 123 172 220 270 331 406
#
# _framework density 23.278516
#
# number of rings (size 3 to 8) (size 9 to 14) (size 15 to 20)
#    0.000    2.000    0.000    2.000   18.667    0.667 
#    0.000    0.000    0.000    0.000    0.000    0.000 
#    0.000    0.000    0.000    0.000    0.000    0.000 
#
# Total GULP energy -268291.767262 kJ/mol
# GULP energy per Si atom -5589.411818 kJ/mol
# Density = 2.322553 g / cm^3
# Si number density = 23.278516 Si / 1000 Ang^3
#
#
#
# Elastic Constant Matrix: (Units=GPa)
#
#
# Indices 1 2 3 4 5 6 
#
# 1 44.3236 15.3803 13.5190 0.0000 0.0000 0.0000
# 2 15.3803 112.1002 30.4067 0.0000 0.0000 0.0000
# 3 13.5190 30.4067 68.7207 0.0000 0.0000 0.0000
# 4 0.0000 0.0000 0.0000 41.0530 0.0000 0.0000
# 5 0.0000 0.0000 0.0000 0.0000 31.2349 0.0000
# 6 0.0000 0.0000 0.0000 0.0000 0.0000 27.3669
#
#
#
# Elastic Compliance Matrix: (Units=1/GPa)
#
#
# Indices 1 2 3 4 5 6 
#
# 1 0.024529 -0.002337 -0.003791 0.000000 0.000000 0.000000
# 2 -0.002337 0.010360 -0.004124 0.000000 0.000000 0.000000
# 3 -0.003791 -0.004124 0.017122 0.000000 0.000000 0.000000
# 4 0.000000 0.000000 0.000000 0.024359 0.000000 0.000000
# 5 0.000000 0.000000 0.000000 0.000000 0.032015 0.000000
# 6 0.000000 0.000000 0.000000 0.000000 0.000000 0.036540
#
#
# Mechanical properties :
#
#
# Convention : Reuss Voigt Hill
#
# Bulk Modulus (GPa) = 31.74009 38.19517 34.96763
# Shear Modulus (GPa) = 28.41998 30.98685 29.70342
#
# Velocity S-wave (km/s) = 3.49788 3.65243 3.57599
# Velocity P-wave (km/s) = 5.47523 5.85069 5.66607
#
# Compressibility (1/GPa) = 0.03150589
#
# Stress axis : x y z
#
# Youngs Moduli (GPa) = 40.76862 96.52603 58.40332
#
# Poissons Ratio (x) = 0.22558 0.22143
# Poissons Ratio (y) = 0.09528 0.24087
# Poissons Ratio (z) = 0.15457 0.39809
#
# Static dielectric constant tensor:
#      x y z
#    x 1.872550 0.000000 0.000000 
#    y 0.000000 1.829940 0.000000 
#    z 0.000000 0.000000 1.845870 
# 
# From -- ./inp_files/16149.got.cif
#   From: 2010.05.17/outbox.cif.g08.bks.cpg/sg56_9_cif.got.tgz:16149.got - 2010.06.03 13:42:01.
