data_PCOD9431314
_publ_section_title
;
Structure prediction by ZEFSAII (Michael W. Deem and Ramdas Pophale) SiO2 
 PCOD9431314
Probable space group: P C C N
;
_chemical_formula_sum "Si O2"
_cell_formula_units_Z 64
_cell_length_a 5.345471
_cell_length_b 25.818039
_cell_length_c 22.215267
_cell_angle_alpha 90.000000
_cell_angle_beta 90.000000
_cell_angle_gamma 90.000000
_cell_volume 3065.919641
_symmetry_space_group_name_H-M "P C C N"
_symmetry_group_IT_number 56
_symmetry_cell_setting 'orthorhombic'
loop_
_space_group_symop_operation_xyz
x,y,z
1/2-x,1/2-y,z
1/2+x,-y,1/2-z
-x,1/2+y,1/2-z
-x,-y,-z
1/2+x,1/2+y,-z
1/2-x,y,1/2+z
x,1/2-y,1/2+z
loop_
_atom_site_type_symbol
_atom_site_label
_atom_site_fract_x
_atom_site_fract_y
_atom_site_fract_z
Si Si1 0.094733 0.886866 0.097305
Si Si2 0.344842 0.042192 0.705506
Si Si3 0.129218 0.377591 0.114881
Si Si4 0.177164 0.001749 0.893644
Si Si5 0.997758 0.283184 0.200246
Si Si6 0.369658 0.597770 0.957950
Si Si7 0.501655 0.215745 0.338203
Si Si8 0.938377 0.444484 0.825500
O O1 0.328711 0.894758 0.142375
O O2 0.957704 0.942522 0.105108
O O3 0.968428 0.834533 0.120005
O O4 0.144559 0.884585 0.026628
O O5 0.171411 0.078721 0.665528
O O6 0.371743 0.066769 0.771394
O O7 0.586552 0.033065 0.663023
O O8 0.244866 0.983588 0.709864
O O9 0.057809 0.326557 0.151517
O O10 0.386416 0.378272 0.075651
O O11 0.891897 0.389089 0.073541
O O12 0.457011 0.019806 0.879641
O O13 0.120112 0.964815 0.949488
O O14 0.250000 0.250000 0.202554
O O15 0.959300 0.302486 0.268841
O O16 0.750000 0.250000 0.184737
O O17 0.250000 0.250000 0.341384
O O18 0.750000 0.250000 0.353779
#
# Coordination Sequence:
#
# PCOD9431314 Si02
#       8
#     8   8   8   8   8   8   8   8
#     4  11  27  41  67  96 130 189 229 266 337 401
#     4  10  21  36  58  97 134 169 219 272 338 394
#     4  11  24  42  68  91 131 176 214 276 335 386
#     4  10  22  39  62  94 136 179 219 274 321 399
#     4  10  22  43  69  98 127 161 218 285 351 410
#     4  11  25  45  64  99 139 180 227 268 315 404
#     4  10  25  46  69  97 132 165 217 287 344 396
#     4  11  21  36  62  94 135 173 220 272 331 410
#
# _framework density 20.874652000000001
#
# number of rings (size 3 to 8) (size 9 to 14) (size 15 to 20)
#    0.000    1.500    2.500    1.125    5.250    4.500 
#    0.000    3.750    0.000    0.000    0.000    0.000 
#    0.000    0.000    0.000    0.000    0.000    0.000 
#
# Total GULP energy -356915.459553 kJ/mol
# GULP energy per Si atom -5576.804056 kJ/mol
# Density = 2.082714 g / cm^3
# Si number density = 20.874652 Si / 1000 Ang^3
#
#
#
# Elastic Constant Matrix: (Units=GPa)
#
#
# Indices 1 2 3 4 5 6 
#
# 1 106.9981 34.7128 44.6406 0.0000 0.0000 0.0000
# 2 34.7128 89.8398 64.5237 0.0000 0.0000 0.0000
# 3 44.6406 64.5237 143.8972 0.0000 0.0000 0.0000
# 4 0.0000 0.0000 0.0000 20.6921 0.0000 0.0000
# 5 0.0000 0.0000 0.0000 0.0000 20.2318 0.0000
# 6 0.0000 0.0000 0.0000 0.0000 0.0000 28.9642
#
#
#
# Elastic Compliance Matrix: (Units=1/GPa)
#
#
# Indices 1 2 3 4 5 6 
#
# 1 0.011160 -0.002693 -0.002255 0.000000 0.000000 0.000000
# 2 -0.002693 0.017068 -0.006818 0.000000 0.000000 0.000000
# 3 -0.002255 -0.006818 0.010706 0.000000 0.000000 0.000000
# 4 0.000000 0.000000 0.000000 0.048328 0.000000 0.000000
# 5 0.000000 0.000000 0.000000 0.000000 0.049427 0.000000
# 6 0.000000 0.000000 0.000000 0.000000 0.000000 0.034525
#
#
# Mechanical properties :
#
#
# Convention : Reuss Voigt Hill
#
# Bulk Modulus (GPa) = 64.92069 69.83215 67.37642
# Shear Modulus (GPa) = 25.01500 27.10150 26.05825
#
# Velocity S-wave (km/s) = 3.46547 3.60710 3.53699
# Velocity P-wave (km/s) = 6.86880 7.13260 7.00194
#
# Compressibility (1/GPa) = 0.01540341
#
# Stress axis : x y z
#
# Youngs Moduli (GPa) = 89.60359 58.58871 93.40474
#
# Poissons Ratio (x) = 0.15777 0.21061
# Poissons Ratio (y) = 0.24128 0.63683
# Poissons Ratio (z) = 0.20203 0.39946
#
# Static dielectric constant tensor:
#      x y z
#    x 1.864010 0.000000 0.000000 
#    y 0.000000 1.749720 0.000000 
#    z 0.000000 0.000000 1.782990 
# 
# From -- ./inp_files/17711.got.cif
#   From: 2010.05.17/outbox.cif.g08.bks.cpg/sg56_9_cif.got.tgz:17711.got - 2010.06.03 13:42:01.
