data_PCOD9431132
_publ_section_title
;
Structure prediction by ZEFSAII (Michael W. Deem and Ramdas Pophale) SiO2 
 PCOD9431132
Probable space group: P C C N
;
_chemical_formula_sum "Si O2"
_cell_formula_units_Z 48
_cell_length_a 8.723793
_cell_length_b 12.772581
_cell_length_c 17.489132
_cell_angle_alpha 90.000000
_cell_angle_beta 90.000000
_cell_angle_gamma 90.000000
_cell_volume 1948.732702
_symmetry_space_group_name_H-M "P C C N"
_symmetry_group_IT_number 56
_symmetry_cell_setting 'orthorhombic'
loop_
_space_group_symop_operation_xyz
x,y,z
1/2-x,1/2-y,z
1/2+x,-y,1/2-z
-x,1/2+y,1/2-z
-x,-y,-z
1/2+x,1/2+y,-z
1/2-x,y,1/2+z
x,1/2-y,1/2+z
loop_
_atom_site_type_symbol
_atom_site_label
_atom_site_fract_x
_atom_site_fract_y
_atom_site_fract_z
Si Si1 0.436651 0.388164 0.534190
Si Si2 0.104773 0.448791 0.566349
Si Si3 0.571806 0.499409 0.664852
Si Si4 0.070298 0.269508 0.895824
Si Si5 0.818025 0.353762 0.335018
Si Si6 0.388939 0.929726 0.303338
O O1 0.500000 0.500000 0.500000
O O2 0.252076 0.389448 0.533946
O O3 0.500249 0.401818 0.619563
O O4 0.482781 0.287504 0.484079
O O5 0.187159 0.542574 0.614403
O O6 0.000000 0.500000 0.500000
O O7 0.997676 0.388851 0.628450
O O8 0.532589 0.615294 0.636138
O O9 0.753966 0.493989 0.656995
O O10 0.503639 0.504032 0.749834
O O11 0.250000 0.250000 0.893422
O O12 0.993558 0.183781 0.841461
O O13 0.750000 0.250000 0.375329
O O14 0.720358 0.365168 0.256509
#
# Coordination Sequence:
#
# PCOD9431132 Si02
#       6
#     8   8   8   8   8   8
#     4  10  20  41  66 101 135 184 239 290 356 447
#     4  12  24  44  74 104 142 195 256 299 367 464
#     4  11  21  41  69  97 136 189 245 280 363 446
#     4  11  23  40  69 101 140 182 230 306 375 424
#     4  12  23  43  69 103 146 189 241 307 383 433
#     4  12  23  42  71 103 140 193 247 296 359 467
#
# _framework density 24.631392999999999
#
# number of rings (size 3 to 8) (size 9 to 14) (size 15 to 20)
#    0.000    0.667    5.000    5.000    0.000    0.000 
#    0.000    4.167    0.000    0.000    0.000    0.000 
#    0.000    0.000    0.000    0.000    0.000    0.000 
#
# Total GULP energy -267607.348758 kJ/mol
# GULP energy per Si atom -5575.153099 kJ/mol
# Density = 2.457533 g / cm^3
# Si number density = 24.631393 Si / 1000 Ang^3
#
#
#
# Elastic Constant Matrix: (Units=GPa)
#
#
# Indices 1 2 3 4 5 6 
#
# 1 143.3868 11.3677 49.5427 0.0000 0.0000 0.0000
# 2 11.3677 73.5972 26.7772 0.0000 0.0000 0.0000
# 3 49.5427 26.7772 131.3822 0.0000 0.0000 0.0000
# 4 0.0000 0.0000 0.0000 38.3430 0.0000 0.0000
# 5 0.0000 0.0000 0.0000 0.0000 54.0977 0.0000
# 6 0.0000 0.0000 0.0000 0.0000 0.0000 40.6507
#
#
#
# Elastic Compliance Matrix: (Units=1/GPa)
#
#
# Indices 1 2 3 4 5 6 
#
# 1 0.008020 -0.000150 -0.002994 0.000000 0.000000 0.000000
# 2 -0.000150 0.014679 -0.002935 0.000000 0.000000 0.000000
# 3 -0.002994 -0.002935 0.009339 0.000000 0.000000 0.000000
# 4 0.000000 0.000000 0.000000 0.026080 0.000000 0.000000
# 5 0.000000 0.000000 0.000000 0.000000 0.018485 0.000000
# 6 0.000000 0.000000 0.000000 0.000000 0.000000 0.024600
#
#
# Mechanical properties :
#
#
# Convention : Reuss Voigt Hill
#
# Bulk Modulus (GPa) = 50.30153 58.19348 54.24750
# Shear Modulus (GPa) = 41.67117 43.99686 42.83402
#
# Velocity S-wave (km/s) = 4.11760 4.23094 4.17466
# Velocity P-wave (km/s) = 6.56294 6.89528 6.73116
#
# Compressibility (1/GPa) = 0.01988011
#
# Stress axis : x y z
#
# Youngs Moduli (GPa) = 124.68113 68.12673 107.08237
#
# Poissons Ratio (x) = 0.01019 0.32060
# Poissons Ratio (y) = 0.01864 0.31432
# Poissons Ratio (z) = 0.37329 0.19997
#
# Static dielectric constant tensor:
#      x y z
#    x 2.058670 0.000000 0.000000 
#    y 0.000000 2.021280 0.000000 
#    z 0.000000 0.000000 2.236130 
# 
# From -- ./inp_files/14754.got.cif
#   From: 2010.05.17/outbox.cif.g08.bks.cpg/sg56_8_cif.got.tgz:14754.got - 2010.06.03 13:42:01.
