data_PCOD9431552
_publ_section_title
;
Structure prediction by ZEFSAII (Michael W. Deem and Ramdas Pophale) SiO2 
 PCOD9431552
Probable space group: P C C N
;
_chemical_formula_sum "Si O2"
_cell_formula_units_Z 48
_cell_length_a 8.508198
_cell_length_b 30.218093
_cell_length_c 8.802941
_cell_angle_alpha 90.000000
_cell_angle_beta 90.000000
_cell_angle_gamma 90.000000
_cell_volume 2263.249498
_symmetry_space_group_name_H-M "P C C N"
_symmetry_group_IT_number 56
_symmetry_cell_setting 'orthorhombic'
loop_
_space_group_symop_operation_xyz
x,y,z
1/2-x,1/2-y,z
1/2+x,-y,1/2-z
-x,1/2+y,1/2-z
-x,-y,-z
1/2+x,1/2+y,-z
1/2-x,y,1/2+z
x,1/2-y,1/2+z
loop_
_atom_site_type_symbol
_atom_site_label
_atom_site_fract_x
_atom_site_fract_y
_atom_site_fract_z
Si Si1 0.362757 0.357674 0.885666
Si Si2 0.415981 0.044292 0.437337
Si Si3 0.093516 0.226218 0.104170
Si Si4 0.574890 0.959023 0.918966
Si Si5 0.892157 0.215061 0.396139
Si Si6 0.973696 0.863323 0.465102
O O1 0.454381 0.402300 0.942129
O O2 0.173620 0.362495 0.915099
O O3 0.408278 0.351337 0.706444
O O4 0.394200 0.315485 0.991658
O O5 0.248294 0.045492 0.516445
O O6 0.409872 0.035416 0.259182
O O7 0.500000 0.000000 0.500000
O O8 0.250000 0.250000 0.171629
O O9 0.965280 0.213969 0.229694
O O10 0.027185 0.264979 0.000933
O O11 0.479561 0.914373 0.952127
O O12 0.500000 0.000000 0.000000
O O13 0.750000 0.250000 0.400845
O O14 0.883924 0.166541 0.470966
#
# Coordination Sequence:
#
# PCOD9431552 Si02
#       6
#     8   8   8   8   8   8
#     4  10  21  39  68 100 124 166 228 277 320 397
#     4  10  21  39  65  99 133 168 215 273 330 388
#     4  12  24  41  68  95 123 174 230 274 327 404
#     4  10  21  39  66  96 132 172 217 264 327 403
#     4  12  26  43  63  94 135 172 216 282 348 394
#     4  10  21  40  66  97 129 170 219 274 332 393
#
# _framework density 21.208445000000001
#
# number of rings (size 3 to 8) (size 9 to 14) (size 15 to 20)
#    0.000    1.333    1.667    4.000    0.000    4.000 
#    3.000    0.833    3.667    0.000    0.000    0.000 
#    0.000    0.000    0.000    0.000    0.000    0.000 
#
# Total GULP energy -267468.924778 kJ/mol
# GULP energy per Si atom -5572.269266 kJ/mol
# Density = 2.116017 g / cm^3
# Si number density = 21.208445 Si / 1000 Ang^3
#
#
#
# Elastic Constant Matrix: (Units=GPa)
#
#
# Indices 1 2 3 4 5 6 
#
# 1 38.6671 34.5778 15.7505 0.0000 0.0000 0.0000
# 2 34.5778 163.0274 68.7766 0.0000 0.0000 0.0000
# 3 15.7505 68.7766 105.9325 0.0000 0.0000 0.0000
# 4 0.0000 0.0000 0.0000 34.2610 0.0000 0.0000
# 5 0.0000 0.0000 0.0000 0.0000 18.7223 0.0000
# 6 0.0000 0.0000 0.0000 0.0000 0.0000 42.9171
#
#
#
# Elastic Compliance Matrix: (Units=1/GPa)
#
#
# Indices 1 2 3 4 5 6 
#
# 1 0.031933 -0.006569 -0.000483 0.000000 0.000000 0.000000
# 2 -0.006569 0.009799 -0.005385 0.000000 0.000000 0.000000
# 3 -0.000483 -0.005385 0.013008 0.000000 0.000000 0.000000
# 4 0.000000 0.000000 0.000000 0.029188 0.000000 0.000000
# 5 0.000000 0.000000 0.000000 0.000000 0.053412 0.000000
# 6 0.000000 0.000000 0.000000 0.000000 0.000000 0.023301
#
#
# Mechanical properties :
#
#
# Convention : Reuss Voigt Hill
#
# Bulk Modulus (GPa) = 33.48349 60.64852 47.06601
# Shear Modulus (GPa) = 25.57921 31.74821 28.66371
#
# Velocity S-wave (km/s) = 3.47664 3.87326 3.68030
# Velocity P-wave (km/s) = 5.65138 6.97576 6.34821
#
# Compressibility (1/GPa) = 0.02986547
#
# Stress axis : x y z
#
# Youngs Moduli (GPa) = 31.31557 102.04917 76.87443
#
# Poissons Ratio (x) = 0.67038 0.03712
# Poissons Ratio (y) = 0.20572 0.41400
# Poissons Ratio (z) = 0.01512 0.54957
#
# Static dielectric constant tensor:
#      x y z
#    x 1.786160 0.000000 0.000000 
#    y 0.000000 1.887370 0.000000 
#    z 0.000000 0.000000 1.750440 
# 
# From -- ./inp_files/2239.got.cif
#   From: 2010.05.17/outbox.cif.g08.bks.cpg/sg56_2_cif.got.tgz:2239.got - 2010.06.03 13:42:01.
