data_PCOD9431900
_publ_section_title
;
Structure prediction by ZEFSAII (Michael W. Deem and Ramdas Pophale) SiO2 
 PCOD9431900
Probable space group: P C C N
;
_chemical_formula_sum "Si O2"
_cell_formula_units_Z 36
_cell_length_a 13.165539
_cell_length_b 7.778816
_cell_length_c 14.852499
_cell_angle_alpha 90.000000
_cell_angle_beta 90.000000
_cell_angle_gamma 90.000000
_cell_volume 1521.078664
_symmetry_space_group_name_H-M "P C C N"
_symmetry_group_IT_number 56
_symmetry_cell_setting 'orthorhombic'
loop_
_space_group_symop_operation_xyz
x,y,z
1/2-x,1/2-y,z
1/2+x,-y,1/2-z
-x,1/2+y,1/2-z
-x,-y,-z
1/2+x,1/2+y,-z
1/2-x,y,1/2+z
x,1/2-y,1/2+z
loop_
_atom_site_type_symbol
_atom_site_label
_atom_site_fract_x
_atom_site_fract_y
_atom_site_fract_z
Si Si1 0.771764 0.527952 0.961640
Si Si2 0.538042 0.734893 0.387794
Si Si3 0.750000 0.750000 0.630350
Si Si4 0.458396 0.116069 0.798117
Si Si5 0.090290 0.802988 0.061217
O O1 0.848123 0.663902 0.912864
O O2 0.841220 0.359871 0.968089
O O3 0.667338 0.458513 0.919946
O O4 0.738987 0.593762 0.059864
O O5 0.523000 0.870065 0.307572
O O6 0.478915 0.564720 0.348608
O O7 0.489245 0.809122 0.479018
O O8 0.846891 0.803878 0.687241
O O9 0.533858 0.244431 0.849468
#
# Coordination Sequence:
#
# PCOD9431900 Si02
#       5
#     8   8   4   8   8
#     4  10  22  41  71  93 130 177 227 281 336 413
#     4  11  23  46  66 100 136 182 231 288 345 423
#     4  12  22  40  62  98 130 172 222 284 340 400
#     4  11  25  41  67  97 139 173 227 286 344 413
#     4  10  21  47  68  91 133 187 225 274 349 414
#
# _framework density 23.667414000000001
#
# number of rings (size 3 to 8) (size 9 to 14) (size 15 to 20)
#    0.000    1.333    4.444    1.333    3.111    5.333 
#    0.000    2.222    0.000    0.000    0.000    0.000 
#    0.000    0.000    0.000    0.000    0.000    0.000 
#
# Total GULP energy -201217.101925 kJ/mol
# GULP energy per Si atom -5589.363942 kJ/mol
# Density = 2.361355 g / cm^3
# Si number density = 23.667414 Si / 1000 Ang^3
#
#
#
# Elastic Constant Matrix: (Units=GPa)
#
#
# Indices 1 2 3 4 5 6 
#
# 1 119.8232 31.2833 15.3741 0.0000 0.0000 0.0000
# 2 31.2833 125.9503 9.9221 0.0000 0.0000 0.0000
# 3 15.3741 9.9221 92.3447 0.0000 0.0000 0.0000
# 4 0.0000 0.0000 0.0000 36.4016 0.0000 0.0000
# 5 0.0000 0.0000 0.0000 0.0000 -31.7022 0.0000
# 6 0.0000 0.0000 0.0000 0.0000 0.0000 38.9795
#
#
#
# Elastic Compliance Matrix: (Units=1/GPa)
#
#
# Indices 1 2 3 4 5 6 
#
# 1 0.009072 -0.002152 -0.001279 0.000000 0.000000 0.000000
# 2 -0.002152 0.008518 -0.000557 0.000000 0.000000 0.000000
# 3 -0.001279 -0.000557 0.011102 0.000000 0.000000 0.000000
# 4 0.000000 0.000000 0.000000 0.027471 0.000000 0.000000
# 5 0.000000 0.000000 0.000000 0.000000 -0.031544 0.000000
# 6 0.000000 0.000000 0.000000 0.000000 0.000000 0.025655
#
#
# Mechanical properties :
#
#
# Convention : Reuss Voigt Hill
#
# Bulk Modulus (GPa) = 48.27457 50.14191 49.20824
# Shear Modulus (GPa) = 76.73948 27.50504 52.12226
#
# Velocity S-wave (km/s) = 5.70039 3.41273 4.69794
# Velocity P-wave (km/s) = 7.98545 6.06308 7.08972
#
# Compressibility (1/GPa) = 0.02071484
#
# Stress axis : x y z
#
# Youngs Moduli (GPa) = 110.23296 117.39665 90.07576
#
# Poissons Ratio (x) = 0.25269 0.11521
# Poissons Ratio (y) = 0.23727 0.05016
# Poissons Ratio (z) = 0.14099 0.06538
#
# Static dielectric constant tensor:
#      x y z
#    x 1.929860 0.000000 0.000000 
#    y 0.000000 1.998900 0.000000 
#    z 0.000000 0.000000 1.832330 
# 
# From -- ./inp_files/10288.got.cif
#   From: 2010.05.17/outbox.cif.g08.bks.cpg/sg56_6_cif.got.tgz:10288.got - 2010.06.03 13:42:01.
