data_PCOD9431163
_publ_section_title
;
Structure prediction by ZEFSAII (Michael W. Deem and Ramdas Pophale) SiO2 
 PCOD9431163
Probable space group: P C C N
;
_chemical_formula_sum "Si O2"
_cell_formula_units_Z 48
_cell_length_a 10.131534
_cell_length_b 8.810879
_cell_length_c 26.589479
_cell_angle_alpha 90.000000
_cell_angle_beta 90.000000
_cell_angle_gamma 90.000000
_cell_volume 2373.582171
_symmetry_space_group_name_H-M "P C C N"
_symmetry_group_IT_number 56
_symmetry_cell_setting 'orthorhombic'
loop_
_space_group_symop_operation_xyz
x,y,z
1/2-x,1/2-y,z
1/2+x,-y,1/2-z
-x,1/2+y,1/2-z
-x,-y,-z
1/2+x,1/2+y,-z
1/2-x,y,1/2+z
x,1/2-y,1/2+z
loop_
_atom_site_type_symbol
_atom_site_label
_atom_site_fract_x
_atom_site_fract_y
_atom_site_fract_z
Si Si1 0.546727 0.530888 0.694638
Si Si2 0.774471 0.906855 0.893889
Si Si3 0.981082 0.568539 0.555208
Si Si4 0.895746 0.325419 0.890372
Si Si5 0.202344 0.583146 0.367531
Si Si6 0.949484 0.682504 0.302514
O O1 0.467802 0.659023 0.662920
O O2 0.679514 0.495227 0.663185
O O3 0.472727 0.365968 0.699769
O O4 0.570057 0.604369 0.748849
O O5 0.750000 0.750000 0.921148
O O6 0.829023 0.869892 0.838185
O O7 0.896362 0.992503 0.916746
O O8 0.641914 0.001012 0.900564
O O9 0.014442 0.744404 0.567730
O O10 0.000000 0.500000 0.500000
O O11 0.851765 0.513683 0.585339
O O12 0.750000 0.250000 0.885491
O O13 0.250000 0.750000 0.385080
O O14 0.081453 0.615839 0.329183
#
# Coordination Sequence:
#
# PCOD9431163 Si02
#       6
#     8   8   8   8   8   8
#     4  11  23  39  63  96 134 177 221 266 324 391
#     4  10  20  42  64  91 127 168 219 267 321 404
#     4  10  23  45  67  92 126 167 215 284 349 394
#     4  10  23  40  66  91 127 165 219 272 324 400
#     4   9  22  42  62  92 134 168 223 270 324 402
#     4  10  23  37  62  94 131 182 212 263 323 386
#
# _framework density 20.222598000000001
#
# number of rings (size 3 to 8) (size 9 to 14) (size 15 to 20)
#    0.000    2.000    1.667    0.000    9.333    3.333 
#    3.000    0.833    0.000    0.000    0.000    0.000 
#    0.000    0.000    0.000    0.000    0.000    0.000 
#
# Total GULP energy -267321.164447 kJ/mol
# GULP energy per Si atom -5569.190926 kJ/mol
# Density = 2.017657 g / cm^3
# Si number density = 20.222598 Si / 1000 Ang^3
#
#
#
# Elastic Constant Matrix: (Units=GPa)
#
#
# Indices 1 2 3 4 5 6 
#
# 1 79.3019 35.8850 41.0983 0.0000 0.0000 0.0000
# 2 35.8850 89.4279 50.8300 0.0000 0.0000 0.0000
# 3 41.0983 50.8300 133.2721 0.0000 0.0000 0.0000
# 4 0.0000 0.0000 0.0000 25.1788 0.0000 0.0000
# 5 0.0000 0.0000 0.0000 0.0000 5.1337 0.0000
# 6 0.0000 0.0000 0.0000 0.0000 0.0000 26.0612
#
#
#
# Elastic Compliance Matrix: (Units=1/GPa)
#
#
# Indices 1 2 3 4 5 6 
#
# 1 0.016448 -0.004746 -0.003262 0.000000 0.000000 0.000000
# 2 -0.004746 0.015647 -0.004504 0.000000 0.000000 0.000000
# 3 -0.003262 -0.004504 0.010227 0.000000 0.000000 0.000000
# 4 0.000000 0.000000 0.000000 0.039716 0.000000 0.000000
# 5 0.000000 0.000000 0.000000 0.000000 0.194790 0.000000
# 6 0.000000 0.000000 0.000000 0.000000 0.000000 0.038371
#
#
# Mechanical properties :
#
#
# Convention : Reuss Voigt Hill
#
# Bulk Modulus (GPa) = 57.81116 61.95874 59.88495
# Shear Modulus (GPa) = 14.45128 22.88731 18.66929
#
# Velocity S-wave (km/s) = 2.67612 3.36783 3.04170
# Velocity P-wave (km/s) = 6.18048 6.76963 6.48175
#
# Compressibility (1/GPa) = 0.01729770
#
# Stress axis : x y z
#
# Youngs Moduli (GPa) = 60.79651 63.91106 97.77761
#
# Poissons Ratio (x) = 0.30333 0.31897
# Poissons Ratio (y) = 0.28855 0.44040
# Poissons Ratio (z) = 0.19833 0.28786
#
# Static dielectric constant tensor:
#      x y z
#    x 1.745680 0.000000 0.000000 
#    y 0.000000 1.748460 0.000000 
#    z 0.000000 0.000000 1.749480 
# 
# From -- ./inp_files/20903.got.cif
#   From: 2010.05.17/outbox.cif.g08.bks.cpg/sg56_11_cif.got.tgz:20903.got - 2010.06.03 13:42:01.
