data_PCOD9431635
_publ_section_title
;
Structure prediction by ZEFSAII (Michael W. Deem and Ramdas Pophale) SiO2 
 PCOD9431635
Probable space group: P C C N
;
_chemical_formula_sum "Si O2"
_cell_formula_units_Z 40
_cell_length_a 8.254009
_cell_length_b 7.984917
_cell_length_c 28.269435
_cell_angle_alpha 90.000000
_cell_angle_beta 90.000000
_cell_angle_gamma 90.000000
_cell_volume 1863.169958
_symmetry_space_group_name_H-M "P C C N"
_symmetry_group_IT_number 56
_symmetry_cell_setting 'orthorhombic'
loop_
_space_group_symop_operation_xyz
x,y,z
1/2-x,1/2-y,z
1/2+x,-y,1/2-z
-x,1/2+y,1/2-z
-x,-y,-z
1/2+x,1/2+y,-z
1/2-x,y,1/2+z
x,1/2-y,1/2+z
loop_
_atom_site_type_symbol
_atom_site_label
_atom_site_fract_x
_atom_site_fract_y
_atom_site_fract_z
Si Si1 0.350409 0.490494 0.803970
Si Si2 0.145555 0.502449 0.124828
Si Si3 0.500000 0.000000 0.500000
Si Si4 0.005317 0.850797 0.284931
Si Si5 0.498689 0.147413 0.393765
Si Si6 0.250000 0.250000 0.551643
O O1 0.429431 0.362794 0.766865
O O2 0.451370 0.662618 0.799217
O O3 0.170678 0.542413 0.788727
O O4 0.367339 0.420698 0.856764
O O5 0.026448 0.653983 0.111201
O O6 0.328457 0.570040 0.122457
O O7 0.132421 0.355559 0.086228
O O8 0.112061 0.431923 0.176517
O O9 0.525722 0.912506 0.552882
O O10 0.644561 0.879832 0.478130
#
# Coordination Sequence:
#
# PCOD9431635 Si02
#       6
#     8   8   4   8   8   4
#     4  11  24  39  59  90 125 162 210 258 318 382
#     4  10  21  40  65  90 123 164 208 257 318 377
#     4  10  22  40  64  92 128 168 214 266 320 376
#     4  11  23  39  60  89 124 163 205 262 319 382
#     4  10  22  41  63  92 124 164 213 262 314 378
#     4  10  22  42  66  94 128 170 214 268 326 384
#
# _framework density 21.468786000000001
#
# number of rings (size 3 to 8) (size 9 to 14) (size 15 to 20)
#    0.000    1.600    0.000    4.800    0.000   10.400 
#    0.000   14.000    0.000    0.000    0.000    0.000 
#    0.000    0.000    0.000    0.000    0.000    0.000 
#
# Total GULP energy -222779.729889 kJ/mol
# GULP energy per Si atom -5569.493247 kJ/mol
# Density = 2.141992 g / cm^3
# Si number density = 21.468786 Si / 1000 Ang^3
#
#
#
# Elastic Constant Matrix: (Units=GPa)
#
#
# Indices 1 2 3 4 5 6 
#
# 1 35.9780 17.5866 21.3638 0.0000 0.0000 0.0000
# 2 17.5866 86.9747 33.3745 0.0000 0.0000 0.0000
# 3 21.3638 33.3745 131.3596 0.0000 0.0000 0.0000
# 4 0.0000 0.0000 0.0000 -4.4819 0.0000 0.0000
# 5 0.0000 0.0000 0.0000 0.0000 2.1754 0.0000
# 6 0.0000 0.0000 0.0000 0.0000 0.0000 17.2869
#
#
#
# Elastic Compliance Matrix: (Units=1/GPa)
#
#
# Indices 1 2 3 4 5 6 
#
# 1 0.032658 -0.005059 -0.004026 0.000000 0.000000 0.000000
# 2 -0.005059 0.013523 -0.002613 0.000000 0.000000 0.000000
# 3 -0.004026 -0.002613 0.008931 0.000000 0.000000 0.000000
# 4 0.000000 0.000000 0.000000 -0.223117 0.000000 0.000000
# 5 0.000000 0.000000 0.000000 0.000000 0.459688 0.000000
# 6 0.000000 0.000000 0.000000 0.000000 0.000000 0.057847
#
#
# Mechanical properties :
#
#
# Convention : Reuss Voigt Hill
#
# Bulk Modulus (GPa) = 31.52889 44.32915 37.92902
# Shear Modulus (GPa) = 13.03783 15.12855 14.08319
#
# Velocity S-wave (km/s) = 2.46700 2.65745 2.56400
# Velocity P-wave (km/s) = 4.77835 5.48718 5.14498
#
# Compressibility (1/GPa) = 0.03171694
#
# Stress axis : x y z
#
# Youngs Moduli (GPa) = 30.62013 73.94698 111.96446
#
# Poissons Ratio (x) = 0.37407 0.45079
# Poissons Ratio (y) = 0.15490 0.29258
# Poissons Ratio (z) = 0.12328 0.19323
#
# Static dielectric constant tensor:
#      x y z
#    x 1.791220 0.000000 0.000000 
#    y 0.000000 1.805650 0.000000 
#    z 0.000000 0.000000 1.719030 
# 
# From -- ./inp_files/20355.got.cif
#   From: 2010.05.17/outbox.cif.g08.bks.cpg/sg56_11_cif.got.tgz:20355.got - 2010.06.03 13:42:01.
