data_PCOD9431133
_publ_section_title
;
Structure prediction by ZEFSAII (Michael W. Deem and Ramdas Pophale) SiO2 
 PCOD9431133
Probable space group: P C C N
;
_chemical_formula_sum "Si O2"
_cell_formula_units_Z 48
_cell_length_a 10.883779
_cell_length_b 8.316754
_cell_length_c 24.949626
_cell_angle_alpha 90.000000
_cell_angle_beta 90.000000
_cell_angle_gamma 90.000000
_cell_volume 2258.383074
_symmetry_space_group_name_H-M "P C C N"
_symmetry_group_IT_number 56
_symmetry_cell_setting 'orthorhombic'
loop_
_space_group_symop_operation_xyz
x,y,z
1/2-x,1/2-y,z
1/2+x,-y,1/2-z
-x,1/2+y,1/2-z
-x,-y,-z
1/2+x,1/2+y,-z
1/2-x,y,1/2+z
x,1/2-y,1/2+z
loop_
_atom_site_type_symbol
_atom_site_label
_atom_site_fract_x
_atom_site_fract_y
_atom_site_fract_z
Si Si1 0.711844 0.433195 0.418058
Si Si2 0.072972 0.606701 0.372225
Si Si3 0.208123 0.064959 0.307901
Si Si4 0.785334 0.443569 0.529001
Si Si5 0.684982 0.923573 0.312976
Si Si6 0.942262 0.016314 0.598664
O O1 0.750000 0.250000 0.416898
O O2 0.788998 0.504353 0.468084
O O3 0.735596 0.494618 0.358834
O O4 0.568749 0.464701 0.427891
O O5 0.189963 0.547655 0.337035
O O6 0.099607 0.531219 0.431298
O O7 0.064124 0.795379 0.386031
O O8 0.951204 0.571074 0.338453
O O9 0.250000 0.250000 0.307352
O O10 0.185699 0.008452 0.247167
O O11 0.086446 0.065214 0.344425
O O12 0.750000 0.250000 0.527747
O O13 0.669534 0.522093 0.558974
O O14 0.750000 0.750000 0.308548
#
# Coordination Sequence:
#
# PCOD9431133 Si02
#       6
#     8   8   8   8   8   8
#     4  11  23  37  60  94 125 160 212 264 310 364
#     4  10  21  41  66  86 126 167 208 250 320 390
#     4  10  24  39  61  92 123 161 209 268 314 373
#     4   8  18  38  62  90 118 166 209 254 310 375
#     4  11  24  41  59  92 128 163 207 257 317 382
#     4  10  20  41  66  86 122 171 209 252 320 383
#
# _framework density 21.254142999999999
#
# number of rings (size 3 to 8) (size 9 to 14) (size 15 to 20)
#    0.000    2.000    1.667    2.000    4.667    2.000 
#    0.000    3.333    0.000    0.000    0.000    0.000 
#    0.000    0.000    0.000    0.000    0.000    0.000 
#
# Total GULP energy -267541.604013 kJ/mol
# GULP energy per Si atom -5573.783417 kJ/mol
# Density = 2.120577 g / cm^3
# Si number density = 21.254143 Si / 1000 Ang^3
#
#
#
# Elastic Constant Matrix: (Units=GPa)
#
#
# Indices 1 2 3 4 5 6 
#
# 1 92.0334 12.0642 15.6759 0.0000 0.0000 0.0000
# 2 12.0642 35.2458 14.0821 0.0000 0.0000 0.0000
# 3 15.6759 14.0821 138.9663 0.0000 0.0000 0.0000
# 4 0.0000 0.0000 0.0000 -14.9931 0.0000 0.0000
# 5 0.0000 0.0000 0.0000 0.0000 22.0236 0.0000
# 6 0.0000 0.0000 0.0000 0.0000 0.0000 19.9686
#
#
#
# Elastic Compliance Matrix: (Units=1/GPa)
#
#
# Indices 1 2 3 4 5 6 
#
# 1 0.011492 -0.003560 -0.000936 0.000000 0.000000 0.000000
# 2 -0.003560 0.030672 -0.002707 0.000000 0.000000 0.000000
# 3 -0.000936 -0.002707 0.007576 0.000000 0.000000 0.000000
# 4 0.000000 0.000000 0.000000 -0.066697 0.000000 0.000000
# 5 0.000000 0.000000 0.000000 0.000000 0.045406 0.000000
# 6 0.000000 0.000000 0.000000 0.000000 0.000000 0.050079
#
#
# Mechanical properties :
#
#
# Convention : Reuss Voigt Hill
#
# Bulk Modulus (GPa) = 28.29994 38.87667 33.58830
# Shear Modulus (GPa) = 47.75147 20.36137 34.05642
#
# Velocity S-wave (km/s) = 4.74507 3.09851 4.00727
# Velocity P-wave (km/s) = 6.58520 5.57961 6.10315
#
# Compressibility (1/GPa) = 0.03533577
#
# Stress axis : x y z
#
# Youngs Moduli (GPa) = 87.02017 32.60303 131.99933
#
# Poissons Ratio (x) = 0.11605 0.12350
# Poissons Ratio (y) = 0.30976 0.35727
# Poissons Ratio (z) = 0.08141 0.08824
#
# Static dielectric constant tensor:
#      x y z
#    x 1.765170 0.000000 0.000000 
#    y 0.000000 1.806100 0.000000 
#    z 0.000000 0.000000 1.831050 
# 
# From -- ./inp_files/20469.got.cif
#   From: 2010.05.17/outbox.cif.g08.bks.cpg/sg56_11_cif.got.tgz:20469.got - 2010.06.03 13:42:01.
