data_PCOD9431994
_publ_section_title
;
Structure prediction by ZEFSAII (Michael W. Deem and Ramdas Pophale) SiO2 
 PCOD9431994
Probable space group: P C C N
;
_chemical_formula_sum "Si O2"
_cell_formula_units_Z 64
_cell_length_a 17.625247
_cell_length_b 16.468200
_cell_length_c 9.389181
_cell_angle_alpha 90.000000
_cell_angle_beta 90.000000
_cell_angle_gamma 90.000000
_cell_volume 2725.266990
_symmetry_space_group_name_H-M "P C C N"
_symmetry_group_IT_number 56
_symmetry_cell_setting 'orthorhombic'
loop_
_space_group_symop_operation_xyz
x,y,z
1/2-x,1/2-y,z
1/2+x,-y,1/2-z
-x,1/2+y,1/2-z
-x,-y,-z
1/2+x,1/2+y,-z
1/2-x,y,1/2+z
x,1/2-y,1/2+z
loop_
_atom_site_type_symbol
_atom_site_label
_atom_site_fract_x
_atom_site_fract_y
_atom_site_fract_z
Si Si1 0.070975 0.302046 0.053250
Si Si2 0.850120 0.067055 0.623542
Si Si3 0.500000 0.561454 0.250000
Si Si4 0.350120 0.067055 0.376459
Si Si5 0.339679 0.749574 0.318338
Si Si6 0.250000 0.999999 0.629904
Si Si7 0.839679 0.749575 0.681664
Si Si8 0.429026 0.697955 0.053252
O O1 0.040527 0.381330 0.132651
O O2 0.117636 0.250875 0.169601
O O3 0.128081 0.317951 0.923062
O O4 0.000001 0.250002 0.999995
O O5 0.863192 0.163249 0.612089
O O6 0.793307 0.058295 0.758839
O O7 0.811406 0.037593 0.478559
O O8 0.928632 0.022302 0.667760
O O9 0.571368 0.522303 0.167759
O O10 0.459474 0.618672 0.132654
O O11 0.363190 0.163250 0.387910
O O12 0.311407 0.037592 0.521442
O O13 0.293306 0.058294 0.241162
O O14 0.250000 0.750000 0.303709
O O15 0.382360 0.749125 0.169599
O O16 0.371923 0.817951 0.423060
O O17 0.750000 0.750000 0.696301
#
# Coordination Sequence:
#
# PCOD9431994 Si02
#       8
#     8   8   8   8   8   8   8   8
#     4  11  19  38  56  92 125 156 187 244 311 373
#     4  10  23  42  63  86 121 160 207 256 298 362
#     4  10  22  38  66  88 126 154 202 254 310 372
#     4  10  23  42  63  86 121 160 207 256 298 362
#     4  11  24  35  63  95 125 157 199 249 319 374
#     4  10  24  44  62  84 120 166 212 254 294 348
#     4  11  24  35  63  95 125 157 199 249 319 374
#     4  11  19  38  56  92 125 156 187 244 311 373
#
# _framework density 23.48394
#
# number of rings (size 3 to 8) (size 9 to 14) (size 15 to 20)
#    0.000    1.500    5.000    0.750   10.500    1.000 
#    0.000    0.000    0.000    0.000    0.000    0.000 
#    0.000    0.000    0.000    0.000    0.000    0.000 
#
# Total GULP energy -357741.027674 kJ/mol
# GULP energy per Si atom -5589.703557 kJ/mol
# Density = 2.343049 g / cm^3
# Si number density = 23.483940 Si / 1000 Ang^3
#
#
#
# Elastic Constant Matrix: (Units=GPa)
#
#
# Indices 1 2 3 4 5 6 
#
# 1 162.5628 8.5072 72.0560 0.0000 0.0000 0.0000
# 2 8.5072 31.8121 18.3960 0.0000 0.0000 0.0000
# 3 72.0560 18.3960 157.6518 0.0000 0.0000 0.0000
# 4 0.0000 0.0000 0.0000 12.5982 0.0000 0.0000
# 5 0.0000 0.0000 0.0000 0.0000 35.6090 0.0000
# 6 0.0000 0.0000 0.0000 0.0000 0.0000 26.2675
#
#
#
# Elastic Compliance Matrix: (Units=1/GPa)
#
#
# Indices 1 2 3 4 5 6 
#
# 1 0.007714 -0.000026 -0.003523 0.000000 0.000000 0.000000
# 2 -0.000026 0.033709 -0.003922 0.000000 0.000000 0.000000
# 3 -0.003523 -0.003922 0.008411 0.000000 0.000000 0.000000
# 4 0.000000 0.000000 0.000000 0.079376 0.000000 0.000000
# 5 0.000000 0.000000 0.000000 0.000000 0.028083 0.000000
# 6 0.000000 0.000000 0.000000 0.000000 0.000000 0.038070
#
#
# Mechanical properties :
#
#
# Convention : Reuss Voigt Hill
#
# Bulk Modulus (GPa) = 28.65843 61.10501 44.88172
# Shear Modulus (GPa) = 22.52911 31.76612 27.14761
#
# Velocity S-wave (km/s) = 3.10068 3.68186 3.40370
# Velocity P-wave (km/s) = 5.00489 6.64464 5.88218
#
# Compressibility (1/GPa) = 0.03489375
#
# Stress axis : x y z
#
# Youngs Moduli (GPa) = 129.62868 29.66549 118.89385
#
# Poissons Ratio (x) = 0.00076 0.41885
# Poissons Ratio (y) = 0.00334 0.46626
# Poissons Ratio (z) = 0.45667 0.11634
#
# Static dielectric constant tensor:
#      x y z
#    x 1.921520 0.000000 0.000000 
#    y 0.000000 2.001010 0.000000 
#    z 0.000000 0.000000 1.902630 
# 
# From -- ./inp_files/4228.got.cif
#   From: 2010.05.17/outbox.cif.g08.bks.cpg/sg56_3_cif.got.tgz:4228.got - 2010.06.03 13:42:01.
