data_PCOD9431592
_publ_section_title
;
Structure prediction by ZEFSAII (Michael W. Deem and Ramdas Pophale) SiO2 
 PCOD9431592
Probable space group: P C C N
;
_chemical_formula_sum "Si O2"
_cell_formula_units_Z 60
_cell_length_a 11.996861
_cell_length_b 22.544954
_cell_length_c 9.193763
_cell_angle_alpha 90.000000
_cell_angle_beta 90.000000
_cell_angle_gamma 90.000000
_cell_volume 2486.624937
_symmetry_space_group_name_H-M "P C C N"
_symmetry_group_IT_number 56
_symmetry_cell_setting 'orthorhombic'
loop_
_space_group_symop_operation_xyz
x,y,z
1/2-x,1/2-y,z
1/2+x,-y,1/2-z
-x,1/2+y,1/2-z
-x,-y,-z
1/2+x,1/2+y,-z
1/2-x,y,1/2+z
x,1/2-y,1/2+z
loop_
_atom_site_type_symbol
_atom_site_label
_atom_site_fract_x
_atom_site_fract_y
_atom_site_fract_z
Si Si1 0.145731 0.065429 0.677243
Si Si2 0.109611 0.303890 0.553403
Si Si3 0.399716 0.745030 0.521171
Si Si4 0.163095 0.493017 0.498002
Si Si5 0.984704 0.383873 0.956780
Si Si6 0.250000 0.750000 0.272531
Si Si7 0.972642 0.079177 0.141438
Si Si8 0.209909 0.167413 0.317662
O O1 0.218627 0.024785 0.566568
O O2 0.142932 0.038008 0.840027
O O3 0.026536 0.081751 0.602370
O O4 0.221462 0.123804 0.709346
O O5 0.206526 0.314439 0.441227
O O6 0.154531 0.285473 0.709802
O O7 0.028285 0.256853 0.486659
O O8 0.033391 0.361551 0.584796
O O9 0.401895 0.672630 0.518018
O O10 0.336808 0.776389 0.387236
O O11 0.339875 0.774252 0.658873
O O12 0.132248 0.560451 0.457784
O O13 0.070069 0.469133 0.610776
O O14 0.106229 0.364500 0.894509
O O15 0.941185 0.417695 0.812014
#
# Coordination Sequence:
#
# PCOD9431592 Si02
#       8
#     8   8   8   8   8   4   8   8
#     4  12  19  39  62  97 137 175 211 275 351 413
#     4  11  22  41  64 100 138 179 225 270 341 418
#     4  11  26  45  71  96 130 186 233 288 347 399
#     4  11  21  37  65  85 129 184 217 270 341 394
#     4  11  22  41  65  99 139 178 220 279 348 421
#     4  10  24  50  66  88 122 180 246 298 320 376
#     4  10  21  40  60  91 124 178 236 267 314 406
#     4  11  19  37  59 100 145 174 201 270 332 423
#
# _framework density 24.129093000000001
#
# number of rings (size 3 to 8) (size 9 to 14) (size 15 to 20)
#    0.000    1.067    6.667    1.600    1.867    1.067 
#    2.400    5.333    0.000    0.000    0.000    0.000 
#    0.000    0.000    0.000    0.000    0.000    0.000 
#
# Total GULP energy -334566.105960 kJ/mol
# GULP energy per Si atom -5576.101766 kJ/mol
# Density = 2.407417 g / cm^3
# Si number density = 24.129093 Si / 1000 Ang^3
#
#
#
# Elastic Constant Matrix: (Units=GPa)
#
#
# Indices 1 2 3 4 5 6 
#
# 1 64.1554 18.6651 37.4475 0.0000 0.0000 0.0000
# 2 18.6651 50.1185 26.5712 0.0000 0.0000 0.0000
# 3 37.4475 26.5712 161.3931 0.0000 0.0000 0.0000
# 4 0.0000 0.0000 0.0000 147.7960 0.0000 0.0000
# 5 0.0000 0.0000 0.0000 0.0000 42.5927 0.0000
# 6 0.0000 0.0000 0.0000 0.0000 0.0000 39.8548
#
#
#
# Elastic Compliance Matrix: (Units=1/GPa)
#
#
# Indices 1 2 3 4 5 6 
#
# 1 0.019212 -0.005250 -0.003593 0.000000 0.000000 0.000000
# 2 -0.005250 0.023295 -0.002617 0.000000 0.000000 0.000000
# 3 -0.003593 -0.002617 0.007461 0.000000 0.000000 0.000000
# 4 0.000000 0.000000 0.000000 0.006766 0.000000 0.000000
# 5 0.000000 0.000000 0.000000 0.000000 0.023478 0.000000
# 6 0.000000 0.000000 0.000000 0.000000 0.000000 0.025091
#
#
# Mechanical properties :
#
#
# Convention : Reuss Voigt Hill
#
# Bulk Modulus (GPa) = 36.97223 49.00383 42.98803
# Shear Modulus (GPa) = 36.43256 58.91424 47.67340
#
# Velocity S-wave (km/s) = 3.88996 4.94664 4.44978
# Velocity P-wave (km/s) = 5.96084 7.27865 6.65246
#
# Compressibility (1/GPa) = 0.02704733
#
# Stress axis : x y z
#
# Youngs Moduli (GPa) = 52.05087 42.92698 134.03579
#
# Poissons Ratio (x) = 0.22536 0.48164
# Poissons Ratio (y) = 0.27326 0.35079
# Poissons Ratio (z) = 0.18704 0.11235
#
# Static dielectric constant tensor:
#      x y z
#    x 1.917590 0.000000 0.000000 
#    y 0.000000 1.990190 0.000000 
#    z 0.000000 0.000000 1.929660 
# 
# From -- ./inp_files/2898.got.cif
#   From: 2010.05.17/outbox.cif.g08.bks.cpg/sg56_2_cif.got.tgz:2898.got - 2010.06.03 13:42:01.
