data_PCOD9431858
_publ_section_title
;
Structure prediction by ZEFSAII (Michael W. Deem and Ramdas Pophale) SiO2 
 PCOD9431858
Probable space group: P C C N
;
_chemical_formula_sum "Si O2"
_cell_formula_units_Z 52
_cell_length_a 20.484441
_cell_length_b 7.655303
_cell_length_c 13.422328
_cell_angle_alpha 90.000000
_cell_angle_beta 90.000000
_cell_angle_gamma 90.000000
_cell_volume 2104.817032
_symmetry_space_group_name_H-M "P C C N"
_symmetry_group_IT_number 56
_symmetry_cell_setting 'orthorhombic'
loop_
_space_group_symop_operation_xyz
x,y,z
1/2-x,1/2-y,z
1/2+x,-y,1/2-z
-x,1/2+y,1/2-z
-x,-y,-z
1/2+x,1/2+y,-z
1/2-x,y,1/2+z
x,1/2-y,1/2+z
loop_
_atom_site_type_symbol
_atom_site_label
_atom_site_fract_x
_atom_site_fract_y
_atom_site_fract_z
Si Si1 0.346826 0.157212 0.801325
Si Si2 0.250000 0.250000 0.460254
Si Si3 0.811999 0.477441 0.392373
Si Si4 0.430475 0.711197 0.820159
Si Si5 0.597346 0.174983 0.975857
Si Si6 0.479758 0.328240 0.855341
Si Si7 0.831305 0.012079 0.316217
O O1 0.293203 0.127777 0.887195
O O2 0.351541 0.026177 0.708144
O O3 0.414220 0.216790 0.849607
O O4 0.324497 0.332348 0.741665
O O5 0.202491 0.364617 0.530253
O O6 0.849711 0.324977 0.449125
O O7 0.739788 0.435726 0.352510
O O8 0.461483 0.532124 0.865529
O O9 0.483287 0.801192 0.749736
O O10 0.368711 0.643914 0.756846
O O11 0.407515 0.838351 0.906863
O O12 0.528691 0.247009 0.935378
O O13 0.621036 0.009199 0.912392
#
# Coordination Sequence:
#
# PCOD9431858 Si02
#       7
#     8   4   8   8   8   8   8
#     4  11  22  42  67  93 134 167 222 282 326 395
#     4  12  22  40  70 100 122 172 228 272 338 392
#     4  12  22  42  66  96 133 172 225 279 328 408
#     4  10  22  43  64  91 133 175 222 274 334 399
#     4  11  24  41  65  97 135 174 224 270 342 410
#     4  10  22  42  65  94 131 176 220 276 335 395
#     4  10  21  44  60  94 136 168 215 284 332 392
#
# _framework density 24.705237
#
# number of rings (size 3 to 8) (size 9 to 14) (size 15 to 20)
#    0.000    1.231    3.077    3.692    0.000    1.231 
#    8.308    6.923    0.000    0.000    0.000    0.000 
#    0.000    0.000    0.000    0.000    0.000    0.000 
#
# Total GULP energy -291368.111886 kJ/mol
# GULP energy per Si atom -5603.232921 kJ/mol
# Density = 2.464901 g / cm^3
# Si number density = 24.705237 Si / 1000 Ang^3
#
#
#
# Elastic Constant Matrix: (Units=GPa)
#
#
# Indices 1 2 3 4 5 6 
#
# 1 106.6381 -1.6356 15.6775 0.0000 0.0000 0.0000
# 2 -1.6356 71.1044 -8.5555 0.0000 0.0000 0.0000
# 3 15.6775 -8.5555 96.2464 0.0000 0.0000 0.0000
# 4 0.0000 0.0000 0.0000 5.6382 0.0000 0.0000
# 5 0.0000 0.0000 0.0000 0.0000 25.2707 0.0000
# 6 0.0000 0.0000 0.0000 0.0000 0.0000 26.4656
#
#
#
# Elastic Compliance Matrix: (Units=1/GPa)
#
#
# Indices 1 2 3 4 5 6 
#
# 1 0.009608 0.000033 -0.001562 0.000000 0.000000 0.000000
# 2 0.000033 0.014216 0.001258 0.000000 0.000000 0.000000
# 3 -0.001562 0.001258 0.010756 0.000000 0.000000 0.000000
# 4 0.000000 0.000000 0.000000 0.177361 0.000000 0.000000
# 5 0.000000 0.000000 0.000000 0.000000 0.039571 0.000000
# 6 0.000000 0.000000 0.000000 0.000000 0.000000 0.037785
#
#
# Mechanical properties :
#
#
# Convention : Reuss Voigt Hill
#
# Bulk Modulus (GPa) = 29.37846 31.66243 30.52044
# Shear Modulus (GPa) = 16.60109 29.37507 22.98808
#
# Velocity S-wave (km/s) = 2.59504 3.45196 3.05371
# Velocity P-wave (km/s) = 4.57126 5.36022 4.98138
#
# Compressibility (1/GPa) = 0.03403854
#
# Stress axis : x y z
#
# Youngs Moduli (GPa) = 104.08363 70.34330 92.96882
#
# Poissons Ratio (x) = -0.00232 0.14522
# Poissons Ratio (y) = -0.00344 -0.11698
# Poissons Ratio (z) = 0.16258 -0.08851
#
# Static dielectric constant tensor:
#      x y z
#    x 1.909340 0.000000 0.000000 
#    y 0.000000 1.999480 0.000000 
#    z 0.000000 0.000000 1.950740 
# 
# From -- ./inp_files/13019.got.cif
#   From: 2010.05.17/outbox.cif.g08.bks.cpg/sg56_7_cif.got.tgz:13019.got - 2010.06.03 13:42:01.
