data_PCOD9431788
_publ_section_title
;
Structure prediction by ZEFSAII (Michael W. Deem and Ramdas Pophale) SiO2 
 PCOD9431788
Probable space group: P C C N
;
_chemical_formula_sum "Si O2"
_cell_formula_units_Z 40
_cell_length_a 12.031686
_cell_length_b 9.222857
_cell_length_c 16.027598
_cell_angle_alpha 90.000000
_cell_angle_beta 90.000000
_cell_angle_gamma 90.000000
_cell_volume 1778.526765
_symmetry_space_group_name_H-M "P C C N"
_symmetry_group_IT_number 56
_symmetry_cell_setting 'orthorhombic'
loop_
_space_group_symop_operation_xyz
x,y,z
1/2-x,1/2-y,z
1/2+x,-y,1/2-z
-x,1/2+y,1/2-z
-x,-y,-z
1/2+x,1/2+y,-z
1/2-x,y,1/2+z
x,1/2-y,1/2+z
loop_
_atom_site_type_symbol
_atom_site_label
_atom_site_fract_x
_atom_site_fract_y
_atom_site_fract_z
Si Si1 0.398393 0.389450 0.489662
Si Si2 0.208527 0.896036 0.925584
Si Si3 0.539615 0.369299 0.938943
Si Si4 0.626483 0.800602 0.820225
Si Si5 0.522208 0.473541 0.205759
O O1 0.500000 0.500000 0.500000
O O2 0.296976 0.481560 0.451755
O O3 0.448101 0.256624 0.436595
O O4 0.371794 0.319147 0.579703
O O5 0.250000 0.750000 0.881534
O O6 0.122272 0.962066 0.860368
O O7 0.147874 0.830052 0.007946
O O8 0.563008 0.424331 0.846250
O O9 0.500000 0.500000 0.000000
O O10 0.750000 0.750000 0.793431
O O11 0.540578 0.678078 0.788853
O O12 0.575697 0.950297 0.785055
#
# Coordination Sequence:
#
# PCOD9431788 Si02
#       5
#     8   8   8   8   8
#     4  12  24  42  74 101 139 184 243 297 356 429
#     4  11  22  42  72 102 136 184 243 294 353 429
#     4  10  21  42  66  97 132 181 231 294 343 423
#     4  12  28  48  69 108 144 187 239 299 358 437
#     4  11  27  46  68 100 145 181 231 290 364 428
#
# _framework density 22.490524000000001
#
# number of rings (size 3 to 8) (size 9 to 14) (size 15 to 20)
#    0.000    0.800    6.000    1.200    8.400    1.600 
#    0.000    1.000    0.000    0.000    0.000    0.000 
#    0.000    0.000    0.000    0.000    0.000    0.000 
#
# Total GULP energy -223263.876563 kJ/mol
# GULP energy per Si atom -5581.596914 kJ/mol
# Density = 2.243933 g / cm^3
# Si number density = 22.490524 Si / 1000 Ang^3
#
#
#
# Elastic Constant Matrix: (Units=GPa)
#
#
# Indices 1 2 3 4 5 6 
#
# 1 115.8460 43.1611 6.3391 0.0000 0.0000 0.0000
# 2 43.1611 115.2588 2.6652 0.0000 0.0000 0.0000
# 3 6.3391 2.6652 20.1146 0.0000 0.0000 0.0000
# 4 0.0000 0.0000 0.0000 34.3389 0.0000 0.0000
# 5 0.0000 0.0000 0.0000 0.0000 10.4610 0.0000
# 6 0.0000 0.0000 0.0000 0.0000 0.0000 51.6908
#
#
#
# Elastic Compliance Matrix: (Units=1/GPa)
#
#
# Indices 1 2 3 4 5 6 
#
# 1 0.010177 -0.003748 -0.002711 0.000000 0.000000 0.000000
# 2 -0.003748 0.010083 -0.000155 0.000000 0.000000 0.000000
# 3 -0.002711 -0.000155 0.050590 0.000000 0.000000 0.000000
# 4 0.000000 0.000000 0.000000 0.029121 0.000000 0.000000
# 5 0.000000 0.000000 0.000000 0.000000 0.095593 0.000000
# 6 0.000000 0.000000 0.000000 0.000000 0.000000 0.019346
#
#
# Mechanical properties :
#
#
# Convention : Reuss Voigt Hill
#
# Bulk Modulus (GPa) = 17.35422 39.50558 28.42990
# Shear Modulus (GPa) = 20.21463 32.56841 26.39152
#
# Velocity S-wave (km/s) = 3.00126 3.80951 3.42928
# Velocity P-wave (km/s) = 4.44332 6.07893 5.32431
#
# Compressibility (1/GPa) = 0.05762286
#
# Stress axis : x y z
#
# Youngs Moduli (GPa) = 98.26086 99.17349 19.76678
#
# Poissons Ratio (x) = 0.37173 0.05358
# Poissons Ratio (y) = 0.36831 0.00306
# Poissons Ratio (z) = 0.26635 0.01535
#
# Static dielectric constant tensor:
#      x y z
#    x 9.287180 0.000000 0.000000 
#    y 0.000000 1.729900 0.000000 
#    z 0.000000 0.000000 1.868350 
# 
# From -- ./inp_files/15401.got.cif
#   From: 2010.05.17/outbox.cif.g08.bks.cpg/sg56_8_cif.got.tgz:15401.got - 2010.06.03 13:42:01.
