data_PCOD9431645
_publ_section_title
;
Structure prediction by ZEFSAII (Michael W. Deem and Ramdas Pophale) SiO2 
 PCOD9431645
Probable space group: P C C N
;
_chemical_formula_sum "Si O2"
_cell_formula_units_Z 56
_cell_length_a 12.180959
_cell_length_b 15.028545
_cell_length_c 13.878555
_cell_angle_alpha 90.000000
_cell_angle_beta 90.000000
_cell_angle_gamma 90.000000
_cell_volume 2540.637291
_symmetry_space_group_name_H-M "P C C N"
_symmetry_group_IT_number 56
_symmetry_cell_setting 'orthorhombic'
loop_
_space_group_symop_operation_xyz
x,y,z
1/2-x,1/2-y,z
1/2+x,-y,1/2-z
-x,1/2+y,1/2-z
-x,-y,-z
1/2+x,1/2+y,-z
1/2-x,y,1/2+z
x,1/2-y,1/2+z
loop_
_atom_site_type_symbol
_atom_site_label
_atom_site_fract_x
_atom_site_fract_y
_atom_site_fract_z
Si Si1 0.642999 0.908334 0.250780
Si Si2 0.726635 0.039148 0.959875
Si Si3 0.194181 0.165711 0.613997
Si Si4 0.755149 0.413963 0.181644
Si Si5 0.039895 0.977129 0.105920
Si Si6 0.983737 0.334019 0.245120
Si Si7 0.068342 0.853797 0.671767
O O1 0.725639 0.838398 0.292823
O O2 0.554109 0.894884 0.168879
O O3 0.718545 0.990838 0.226957
O O4 0.563035 0.930885 0.340219
O O5 0.839324 0.064607 0.905985
O O6 0.632373 0.102558 0.917367
O O7 0.703399 0.932795 0.938141
O O8 0.753086 0.064249 0.069285
O O9 0.250000 0.250000 0.557800
O O10 0.072774 0.177763 0.659493
O O11 0.866007 0.357905 0.199069
O O12 0.650270 0.375615 0.237980
O O13 0.978932 0.913926 0.182337
O O14 0.000000 0.000000 0.000000
O O15 0.961569 0.249101 0.312499
#
# Coordination Sequence:
#
# PCOD9431645 Si02
#       7
#     8   8   8   8   8   8   8
#     4  10  22  40  68  92 131 180 219 278 346 406
#     4  11  24  42  72  97 138 183 232 283 352 424
#     4  11  22  45  69  98 132 178 232 291 346 410
#     4  11  24  43  69 100 134 185 227 282 345 414
#     4  10  21  40  65  98 128 175 227 274 337 408
#     4  11  24  42  71  97 141 179 226 291 345 409
#     4  12  22  45  67 101 141 180 231 280 354 418
#
# _framework density 22.041713999999999
#
# number of rings (size 3 to 8) (size 9 to 14) (size 15 to 20)
#    0.000    1.143    5.714    3.000    2.000    2.286 
#    7.714    3.571    0.000    0.000    0.000    0.000 
#    0.000    0.000    0.000    0.000    0.000    0.000 
#
# Total GULP energy -311865.205486 kJ/mol
# GULP energy per Si atom -5569.021527 kJ/mol
# Density = 2.199155 g / cm^3
# Si number density = 22.041714 Si / 1000 Ang^3
#
#
#
# Elastic Constant Matrix: (Units=GPa)
#
#
# Indices 1 2 3 4 5 6 
#
# 1 81.0934 15.4124 -7.5550 0.0000 0.0000 0.0000
# 2 15.4124 77.5854 -0.8893 0.0000 0.0000 0.0000
# 3 -7.5550 -0.8893 76.0610 0.0000 0.0000 0.0000
# 4 0.0000 0.0000 0.0000 7.6625 0.0000 0.0000
# 5 0.0000 0.0000 0.0000 0.0000 22.6659 0.0000
# 6 0.0000 0.0000 0.0000 0.0000 0.0000 13.4214
#
#
#
# Elastic Compliance Matrix: (Units=1/GPa)
#
#
# Indices 1 2 3 4 5 6 
#
# 1 0.012934 -0.002555 0.001255 0.000000 0.000000 0.000000
# 2 -0.002555 0.013395 -0.000097 0.000000 0.000000 0.000000
# 3 0.001255 -0.000097 0.013271 0.000000 0.000000 0.000000
# 4 0.000000 0.000000 0.000000 0.130506 0.000000 0.000000
# 5 0.000000 0.000000 0.000000 0.000000 0.044119 0.000000
# 6 0.000000 0.000000 0.000000 0.000000 0.000000 0.074508
#
#
# Mechanical properties :
#
#
# Convention : Reuss Voigt Hill
#
# Bulk Modulus (GPa) = 27.16973 27.63068 27.40020
# Shear Modulus (GPa) = 16.45837 23.93472 20.19655
#
# Velocity S-wave (km/s) = 2.73553 3.29885 3.03031
# Velocity P-wave (km/s) = 4.72554 5.20314 4.97008
#
# Compressibility (1/GPa) = 0.03680567
#
# Stress axis : x y z
#
# Youngs Moduli (GPa) = 77.31583 74.65215 75.35315
#
# Poissons Ratio (x) = 0.19073 -0.09456
# Poissons Ratio (y) = 0.19754 0.00732
# Poissons Ratio (z) = -0.09702 0.00725
#
# Static dielectric constant tensor:
#      x y z
#    x 1.856950 0.000000 0.000000 
#    y 0.000000 1.975420 0.000000 
#    z 0.000000 0.000000 1.915120 
# 
# From -- ./inp_files/11665.got.cif
#   From: 2010.05.17/outbox.cif.g08.bks.cpg/sg56_6_cif.got.tgz:11665.got - 2010.06.03 13:42:01.
