data_PCOD9431095
_publ_section_title
;
Structure prediction by ZEFSAII (Michael W. Deem and Ramdas Pophale) SiO2 
 PCOD9431095
Probable space group: P C C N
;
_chemical_formula_sum "Si O2"
_cell_formula_units_Z 40
_cell_length_a 16.254043
_cell_length_b 5.450257
_cell_length_c 18.500792
_cell_angle_alpha 90.000000
_cell_angle_beta 90.000000
_cell_angle_gamma 90.000000
_cell_volume 1638.961328
_symmetry_space_group_name_H-M "P C C N"
_symmetry_group_IT_number 56
_symmetry_cell_setting 'orthorhombic'
loop_
_space_group_symop_operation_xyz
x,y,z
1/2-x,1/2-y,z
1/2+x,-y,1/2-z
-x,1/2+y,1/2-z
-x,-y,-z
1/2+x,1/2+y,-z
1/2-x,y,1/2+z
x,1/2-y,1/2+z
loop_
_atom_site_type_symbol
_atom_site_label
_atom_site_fract_x
_atom_site_fract_y
_atom_site_fract_z
Si Si1 0.162796 0.125916 0.538088
Si Si2 0.750000 0.750000 0.707652
Si Si3 0.671825 0.118805 0.824929
Si Si4 0.620740 0.864073 0.604022
Si Si5 0.978621 0.063381 0.789458
Si Si6 0.250000 0.750000 0.936272
O O1 0.250000 0.250000 0.557191
O O2 0.114638 0.290963 0.480139
O O3 0.125860 0.040835 0.613722
O O4 0.189941 0.901352 0.488318
O O5 0.791552 0.548096 0.760889
O O6 0.672987 0.673984 0.654902
O O7 0.750000 0.250000 0.860644
O O8 0.612700 0.336996 0.800632
O O9 0.534423 0.925509 0.638962
O O10 0.686645 0.083775 0.607380
O O11 0.015804 0.288052 0.740986
#
# Coordination Sequence:
#
# PCOD9431095 Si02
#       6
#     8   4   8   8   8   4
#     4  10  21  41  69 102 145 186 255 302 364 450
#     4  12  22  40  70 102 136 192 248 290 384 442
#     4  12  26  43  75 104 146 197 250 314 380 449
#     4  11  24  43  74 106 146 200 247 310 373 455
#     4  12  29  50  72 114 158 193 254 322 379 448
#     4  10  20  40  70 102 138 186 250 294 362 446
#
# _framework density 24.405701000000001
#
# number of rings (size 3 to 8) (size 9 to 14) (size 15 to 20)
#    0.000    0.800    7.000    1.200    4.200    0.800 
#    0.000    1.000    0.000    0.000    0.000    0.000 
#    0.000    0.000    0.000    0.000    0.000    0.000 
#
# Total GULP energy -223485.793348 kJ/mol
# GULP energy per Si atom -5587.144834 kJ/mol
# Density = 2.435015 g / cm^3
# Si number density = 24.405701 Si / 1000 Ang^3
#
#
#
# Elastic Constant Matrix: (Units=GPa)
#
#
# Indices 1 2 3 4 5 6 
#
# 1 78.4558 3.3078 13.3294 0.0000 0.0000 0.0000
# 2 3.3078 65.9523 35.3915 0.0000 0.0000 0.0000
# 3 13.3294 35.3915 123.3587 0.0000 0.0000 0.0000
# 4 0.0000 0.0000 0.0000 -84.5649 0.0000 0.0000
# 5 0.0000 0.0000 0.0000 0.0000 -128.5655 0.0000
# 6 0.0000 0.0000 0.0000 0.0000 0.0000 27.0974
#
#
#
# Elastic Compliance Matrix: (Units=1/GPa)
#
#
# Indices 1 2 3 4 5 6 
#
# 1 0.012985 0.000120 -0.001438 0.000000 0.000000 0.000000
# 2 0.000120 0.017923 -0.005155 0.000000 0.000000 0.000000
# 3 -0.001438 -0.005155 0.009741 0.000000 0.000000 0.000000
# 4 0.000000 0.000000 0.000000 -0.011825 0.000000 0.000000
# 5 0.000000 0.000000 0.000000 0.000000 -0.007778 0.000000
# 6 0.000000 0.000000 0.000000 0.000000 0.000000 0.036904
#
#
# Mechanical properties :
#
#
# Convention : Reuss Voigt Hill
#
# Bulk Modulus (GPa) = 36.09605 41.31380 38.70493
# Shear Modulus (GPa) = 62.39966 -22.82405 19.78780
#
# Velocity S-wave (km/s) = 5.06193 -3.06141 2.85052
# Velocity P-wave (km/s) = 6.99902 2.11385 5.16985
#
# Compressibility (1/GPa) = 0.02770386
#
# Stress axis : x y z
#
# Youngs Moduli (GPa) = 77.01071 55.79508 102.66155
#
# Poissons Ratio (x) = -0.00671 0.14758
# Poissons Ratio (y) = -0.00925 0.52922
# Poissons Ratio (z) = 0.11071 0.28762
#
# Static dielectric constant tensor:
#      x y z
#    x 1.907650 0.000000 0.000000 
#    y 0.000000 2.168350 0.000000 
#    z 0.000000 0.000000 1.993150 
# 
# From -- ./inp_files/13858.got.cif
#   From: 2010.05.17/outbox.cif.g08.bks.cpg/sg56_7_cif.got.tgz:13858.got - 2010.06.03 13:42:01.
