data_PCOD9431247
_publ_section_title
;
Structure prediction by ZEFSAII (Michael W. Deem and Ramdas Pophale) SiO2 
 PCOD9431247
Probable space group: P C C N
;
_chemical_formula_sum "Si O2"
_cell_formula_units_Z 48
_cell_length_a 22.525893
_cell_length_b 10.501383
_cell_length_c 8.507127
_cell_angle_alpha 90.000000
_cell_angle_beta 90.000000
_cell_angle_gamma 90.000000
_cell_volume 2012.386667
_symmetry_space_group_name_H-M "P C C N"
_symmetry_group_IT_number 56
_symmetry_cell_setting 'orthorhombic'
loop_
_space_group_symop_operation_xyz
x,y,z
1/2-x,1/2-y,z
1/2+x,-y,1/2-z
-x,1/2+y,1/2-z
-x,-y,-z
1/2+x,1/2+y,-z
1/2-x,y,1/2+z
x,1/2-y,1/2+z
loop_
_atom_site_type_symbol
_atom_site_label
_atom_site_fract_x
_atom_site_fract_y
_atom_site_fract_z
Si Si1 0.968763 0.390777 0.892419
Si Si2 0.387630 0.166582 0.315392
Si Si3 0.706117 0.865532 0.215789
Si Si4 0.726478 0.052796 0.480382
Si Si5 0.469359 0.183060 0.586522
Si Si6 0.164655 0.591176 0.224910
O O1 0.898612 0.380795 0.854062
O O2 0.000511 0.398887 0.722022
O O3 0.000000 0.500000 0.000000
O O4 0.984813 0.258661 0.977979
O O5 0.350994 0.294097 0.353252
O O6 0.423888 0.118618 0.465780
O O7 0.432656 0.209216 0.180822
O O8 0.343901 0.060447 0.251012
O O9 0.750000 0.750000 0.265271
O O10 0.691982 0.960891 0.358722
O O11 0.736290 0.954087 0.087208
O O12 0.778509 0.120767 0.381945
O O13 0.683987 0.131906 0.597629
#
# Coordination Sequence:
#
# PCOD9431247 Si02
#       6
#     8   8   8   8   8   8
#     4  11  24  48  66  97 130 175 217 282 327 397
#     4  11  19  33  56  93 129 176 200 257 315 417
#     4  11  19  28  50  83 138 171 201 243 318 398
#     4  10  21  33  52  92 125 179 211 259 328 392
#     4  10  24  40  64  93 131 169 225 258 339 380
#     4  11  22  38  60  88 134 162 216 265 323 393
#
# _framework density 23.852274999999999
#
# number of rings (size 3 to 8) (size 9 to 14) (size 15 to 20)
#    0.000    1.333    5.000    2.500    2.333    0.667 
#    0.000    0.000    0.000    3.000    0.000    0.000 
#    0.000    0.000    0.000    0.000    0.000    0.000 
#
# Total GULP energy -267996.302776 kJ/mol
# GULP energy per Si atom -5583.256308 kJ/mol
# Density = 2.379799 g / cm^3
# Si number density = 23.852275 Si / 1000 Ang^3
#
#
#
# Elastic Constant Matrix: (Units=GPa)
#
#
# Indices 1 2 3 4 5 6 
#
# 1 127.9050 34.3702 54.4526 0.0000 0.0000 0.0000
# 2 34.3702 41.3875 30.8722 0.0000 0.0000 0.0000
# 3 54.4526 30.8722 111.1130 0.0000 0.0000 0.0000
# 4 0.0000 0.0000 0.0000 21.0588 0.0000 0.0000
# 5 0.0000 0.0000 0.0000 0.0000 47.6716 0.0000
# 6 0.0000 0.0000 0.0000 0.0000 0.0000 23.3189
#
#
#
# Elastic Compliance Matrix: (Units=1/GPa)
#
#
# Indices 1 2 3 4 5 6 
#
# 1 0.011119 -0.006521 -0.003637 0.000000 0.000000 0.000000
# 2 -0.006521 0.034303 -0.006335 0.000000 0.000000 0.000000
# 3 -0.003637 -0.006335 0.012543 0.000000 0.000000 0.000000
# 4 0.000000 0.000000 0.000000 0.047486 0.000000 0.000000
# 5 0.000000 0.000000 0.000000 0.000000 0.020977 0.000000
# 6 0.000000 0.000000 0.000000 0.000000 0.000000 0.042884
#
#
# Mechanical properties :
#
#
# Convention : Reuss Voigt Hill
#
# Bulk Modulus (GPa) = 40.03553 57.75504 48.89529
# Shear Modulus (GPa) = 23.73908 29.12388 26.43148
#
# Velocity S-wave (km/s) = 3.15819 3.49809 3.33247
# Velocity P-wave (km/s) = 5.48818 6.37038 5.94566
#
# Compressibility (1/GPa) = 0.02497781
#
# Stress axis : x y z
#
# Youngs Moduli (GPa) = 89.93618 29.15232 79.72828
#
# Poissons Ratio (x) = 0.19009 0.29000
# Poissons Ratio (y) = 0.58643 0.50510
# Poissons Ratio (z) = 0.32713 0.18469
#
# Static dielectric constant tensor:
#      x y z
#    x 1.984270 0.000000 0.000000 
#    y 0.000000 1.926880 0.000000 
#    z 0.000000 0.000000 1.952960 
# 
# From -- ./inp_files/4774.got.cif
#   From: 2010.05.17/outbox.cif.g08.bks.cpg/sg56_3_cif.got.tgz:4774.got - 2010.06.03 13:42:01.
