data_PCOD9431201
_publ_section_title
;
Structure prediction by ZEFSAII (Michael W. Deem and Ramdas Pophale) SiO2 
 PCOD9431201
Probable space group: P C C N
;
_chemical_formula_sum "Si O2"
_cell_formula_units_Z 36
_cell_length_a 20.170413
_cell_length_b 4.994770
_cell_length_c 13.544909
_cell_angle_alpha 90.000000
_cell_angle_beta 90.000000
_cell_angle_gamma 90.000000
_cell_volume 1364.603173
_symmetry_space_group_name_H-M "P C C N"
_symmetry_group_IT_number 56
_symmetry_cell_setting 'orthorhombic'
loop_
_space_group_symop_operation_xyz
x,y,z
1/2-x,1/2-y,z
1/2+x,-y,1/2-z
-x,1/2+y,1/2-z
-x,-y,-z
1/2+x,1/2+y,-z
1/2-x,y,1/2+z
x,1/2-y,1/2+z
loop_
_atom_site_type_symbol
_atom_site_label
_atom_site_fract_x
_atom_site_fract_y
_atom_site_fract_z
Si Si1 0.750000 0.750000 0.734725
Si Si2 0.576571 0.517278 0.689519
Si Si3 0.322770 0.309689 0.079477
Si Si4 0.430652 0.978508 0.174251
Si Si5 0.819415 0.341665 0.585825
O O1 0.701787 0.594038 0.811854
O O2 0.792171 0.538478 0.672228
O O3 0.576410 0.818194 0.731564
O O4 0.505418 0.478324 0.636374
O O5 0.637162 0.403761 0.625640
O O6 0.574319 0.319816 0.784441
O O7 0.250000 0.250000 0.034894
O O8 0.371455 0.065321 0.102914
O O9 0.356822 0.497925 0.999709
O O10 0.750000 0.250000 0.539460
#
# Coordination Sequence:
#
# PCOD9431201 Si02
#       5
#     4   8   8   8   8
#     4  10  20  44  60  86 128 176 208 276 320 396
#     4  10  22  40  69  92 134 176 221 265 333 398
#     4  10  22  38  65  94 129 165 223 268 327 389
#     4  10  21  42  65  98 129 180 217 268 333 394
#     4  12  24  38  66  97 128 172 225 274 332 391
#
# _framework density 26.381295000000001
#
# number of rings (size 3 to 8) (size 9 to 14) (size 15 to 20)
#    0.667    0.889    3.333    1.333    0.000    5.333 
#    0.000    0.000    0.000    9.333    0.000    0.000 
#    0.000    0.000    0.000    0.000    0.000    0.000 
#
# Total GULP energy -201275.787182 kJ/mol
# GULP energy per Si atom -5590.994088 kJ/mol
# Density = 2.632125 g / cm^3
# Si number density = 26.381295 Si / 1000 Ang^3
#
#
#
# Elastic Constant Matrix: (Units=GPa)
#
#
# Indices 1 2 3 4 5 6 
#
# 1 154.0191 6.5821 -12.5759 0.0000 0.0000 0.0000
# 2 6.5821 81.3604 26.4180 0.0000 0.0000 0.0000
# 3 -12.5759 26.4180 86.7934 0.0000 0.0000 0.0000
# 4 0.0000 0.0000 0.0000 37.2722 0.0000 0.0000
# 5 0.0000 0.0000 0.0000 0.0000 -4.0409 0.0000
# 6 0.0000 0.0000 0.0000 0.0000 0.0000 40.7339
#
#
#
# Elastic Compliance Matrix: (Units=1/GPa)
#
#
# Indices 1 2 3 4 5 6 
#
# 1 0.006635 -0.000942 0.001248 0.000000 0.000000 0.000000
# 2 -0.000942 0.013773 -0.004329 0.000000 0.000000 0.000000
# 3 0.001248 -0.004329 0.013020 0.000000 0.000000 0.000000
# 4 0.000000 0.000000 0.000000 0.026830 0.000000 0.000000
# 5 0.000000 0.000000 0.000000 0.000000 -0.247469 0.000000
# 6 0.000000 0.000000 0.000000 0.000000 0.000000 0.024550
#
#
# Mechanical properties :
#
#
# Convention : Reuss Voigt Hill
#
# Bulk Modulus (GPa) = 39.39723 40.33569 39.86646
# Shear Modulus (GPa) = -34.20993 34.90962 0.34985
#
# Velocity S-wave (km/s) = -3.60495 3.64163 0.36456
# Velocity P-wave (km/s) = 1.53666 5.74496 3.91429
#
# Compressibility (1/GPa) = 0.02538250
#
# Stress axis : x y z
#
# Youngs Moduli (GPa) = 150.71885 72.60729 76.80492
#
# Poissons Ratio (x) = 0.06840 -0.09586
# Poissons Ratio (y) = 0.14198 0.33246
# Poissons Ratio (z) = -0.18811 0.31429
#
# Static dielectric constant tensor:
#      x y z
#    x 2.157280 0.000000 0.000000 
#    y 0.000000 2.117620 0.000000 
#    z 0.000000 0.000000 2.059060 
# 
# From -- ./inp_files/12939.got.cif
#   From: 2010.05.17/outbox.cif.g08.bks.cpg/sg56_7_cif.got.tgz:12939.got - 2010.06.03 13:42:01.
