data_PCOD9431577
_publ_section_title
;
Structure prediction by ZEFSAII (Michael W. Deem and Ramdas Pophale) SiO2 
 PCOD9431577
Probable space group: P C C N
;
_chemical_formula_sum "Si O2"
_cell_formula_units_Z 44
_cell_length_a 8.887166
_cell_length_b 13.571361
_cell_length_c 13.805395
_cell_angle_alpha 90.000000
_cell_angle_beta 90.000000
_cell_angle_gamma 90.000000
_cell_volume 1665.081641
_symmetry_space_group_name_H-M "P C C N"
_symmetry_group_IT_number 56
_symmetry_cell_setting 'orthorhombic'
loop_
_space_group_symop_operation_xyz
x,y,z
1/2-x,1/2-y,z
1/2+x,-y,1/2-z
-x,1/2+y,1/2-z
-x,-y,-z
1/2+x,1/2+y,-z
1/2-x,y,1/2+z
x,1/2-y,1/2+z
loop_
_atom_site_type_symbol
_atom_site_label
_atom_site_fract_x
_atom_site_fract_y
_atom_site_fract_z
Si Si1 0.750000 0.250000 0.098216
Si Si2 0.305769 0.003501 0.157264
Si Si3 0.062597 0.094809 0.254763
Si Si4 0.007082 0.299115 0.462405
Si Si5 0.819275 0.906235 0.534376
Si Si6 0.003395 0.312369 0.234423
O O1 0.857563 0.313548 0.167053
O O2 0.637820 0.311814 0.029382
O O3 0.130664 0.018338 0.178766
O O4 0.386180 0.100983 0.202110
O O5 0.390154 0.917750 0.213613
O O6 0.342633 0.008561 0.043993
O O7 0.152062 0.070948 0.353748
O O8 0.081284 0.205546 0.218509
O O9 0.073318 0.189003 0.482103
O O10 0.148361 0.369901 0.479955
O O11 0.969553 0.308903 0.348858
#
# Coordination Sequence:
#
# PCOD9431577 Si02
#       6
#     4   8   8   8   8   8
#     4  12  22  38  68 106 134 174 236 278 340 398
#     4  12  24  45  70 100 137 183 232 283 343 412
#     4  11  26  44  69 102 139 181 232 286 341 408
#     4  10  21  39  69 102 132 179 230 278 332 417
#     4  10  21  44  69  97 136 183 231 271 346 416
#     4  11  24  44  70  96 141 185 220 282 352 403
#
# _framework density 26.425132000000001
#
# number of rings (size 3 to 8) (size 9 to 14) (size 15 to 20)
#    0.000    1.091    3.636    2.727    5.091    0.000 
#    0.000    0.909    0.000    0.000    0.000    0.000 
#    0.000    0.000    0.000    0.000    0.000    0.000 
#
# Total GULP energy -246711.238444 kJ/mol
# GULP energy per Si atom -5607.073601 kJ/mol
# Density = 2.636499 g / cm^3
# Si number density = 26.425132 Si / 1000 Ang^3
#
#
#
# Elastic Constant Matrix: (Units=GPa)
#
#
# Indices 1 2 3 4 5 6 
#
# 1 120.9282 17.0266 53.4105 0.0000 0.0000 0.0000
# 2 17.0266 71.6747 -7.2332 0.0000 0.0000 0.0000
# 3 53.4105 -7.2332 118.2279 0.0000 0.0000 0.0000
# 4 0.0000 0.0000 0.0000 24.5690 0.0000 0.0000
# 5 0.0000 0.0000 0.0000 0.0000 55.8924 0.0000
# 6 0.0000 0.0000 0.0000 0.0000 0.0000 37.2088
#
#
#
# Elastic Compliance Matrix: (Units=1/GPa)
#
#
# Indices 1 2 3 4 5 6 
#
# 1 0.010987 -0.003130 -0.005155 0.000000 0.000000 0.000000
# 2 -0.003130 0.014930 0.002328 0.000000 0.000000 0.000000
# 3 -0.005155 0.002328 0.010929 0.000000 0.000000 0.000000
# 4 0.000000 0.000000 0.000000 0.040702 0.000000 0.000000
# 5 0.000000 0.000000 0.000000 0.000000 0.017892 0.000000
# 6 0.000000 0.000000 0.000000 0.000000 0.000000 0.026875
#
#
# Mechanical properties :
#
#
# Convention : Reuss Voigt Hill
#
# Bulk Modulus (GPa) = 40.10981 48.58204 44.34593
# Shear Modulus (GPa) = 35.07764 40.04250 37.56007
#
# Velocity S-wave (km/s) = 3.64735 3.89693 3.77421
# Velocity P-wave (km/s) = 5.74014 6.21875 5.98423
#
# Compressibility (1/GPa) = 0.02493156
#
# Stress axis : x y z
#
# Youngs Moduli (GPa) = 91.01764 66.97740 91.49609
#
# Poissons Ratio (x) = 0.20965 0.47166
# Poissons Ratio (y) = 0.28490 -0.21296
# Poissons Ratio (z) = 0.46919 -0.15589
#
# Static dielectric constant tensor:
#      x y z
#    x 2.105070 0.000000 0.000000 
#    y 0.000000 2.045730 0.000000 
#    z 0.000000 0.000000 2.039410 
# 
# From -- ./inp_files/10559.got.cif
#   From: 2010.05.17/outbox.cif.g08.bks.cpg/sg56_6_cif.got.tgz:10559.got - 2010.06.03 13:42:01.
