data_PCOD9431553
_publ_section_title
;
Structure prediction by ZEFSAII (Michael W. Deem and Ramdas Pophale) SiO2 
 PCOD9431553
Probable space group: P C C N
;
_chemical_formula_sum "Si O2"
_cell_formula_units_Z 64
_cell_length_a 8.583616
_cell_length_b 20.089302
_cell_length_c 19.261092
_cell_angle_alpha 90.000000
_cell_angle_beta 90.000000
_cell_angle_gamma 90.000000
_cell_volume 3321.360633
_symmetry_space_group_name_H-M "P C C N"
_symmetry_group_IT_number 56
_symmetry_cell_setting 'orthorhombic'
loop_
_space_group_symop_operation_xyz
x,y,z
1/2-x,1/2-y,z
1/2+x,-y,1/2-z
-x,1/2+y,1/2-z
-x,-y,-z
1/2+x,1/2+y,-z
1/2-x,y,1/2+z
x,1/2-y,1/2+z
loop_
_atom_site_type_symbol
_atom_site_label
_atom_site_fract_x
_atom_site_fract_y
_atom_site_fract_z
Si Si1 0.265294 0.049917 0.971047
Si Si2 0.655424 0.682694 0.293205
Si Si3 0.687892 0.574578 0.880948
Si Si4 0.888074 0.923044 0.174329
Si Si5 0.259478 0.572694 0.646085
Si Si6 0.881125 0.095274 0.499743
Si Si7 0.375114 0.927447 0.291399
Si Si8 0.162599 0.680971 0.867170
O O1 0.190316 0.077311 0.901108
O O2 0.290413 0.969970 0.970273
O O3 0.159157 0.070474 0.036881
O O4 0.439212 0.076987 0.984504
O O5 0.750000 0.750000 0.283399
O O6 0.720575 0.639276 0.357363
O O7 0.660902 0.635545 0.225834
O O8 0.480125 0.696298 0.316110
O O9 0.783710 0.506465 0.867700
O O10 0.536615 0.575035 0.832678
O O11 0.076670 0.920918 0.165974
O O12 0.833601 0.994144 0.205844
O O13 0.301172 0.609216 0.574593
O O14 0.367950 0.592347 0.710594
O O15 0.878800 0.152109 0.557248
O O16 0.260101 0.877775 0.330555
O O17 0.250000 0.750000 0.875991
#
# Coordination Sequence:
#
# PCOD9431553 Si02
#       8
#     8   8   8   8   8   8   8   8
#     4  10  21  39  66 101 133 166 214 281 329 386
#     4  12  25  45  64  94 131 179 224 273 330 402
#     4  10  22  38  66  97 132 169 217 271 330 393
#     4  11  23  39  67 100 137 166 222 279 338 387
#     4  10  22  37  64 104 131 164 216 278 328 388
#     4  10  22  39  66  98 133 168 215 269 335 392
#     4  11  22  39  68 100 133 171 219 277 333 390
#     4  12  25  46  66  93 131 184 221 266 329 409
#
# _framework density 19.269210999999999
#
# number of rings (size 3 to 8) (size 9 to 14) (size 15 to 20)
#    0.000    1.250    5.000    0.750    3.500    1.500 
#    0.000    2.500    0.000    0.000    0.000    0.000 
#    0.000    0.000    0.000    0.000    0.000    0.000 
#
# Total GULP energy -357383.647468 kJ/mol
# GULP energy per Si atom -5584.119492 kJ/mol
# Density = 1.922535 g / cm^3
# Si number density = 19.269211 Si / 1000 Ang^3
#
#
#
# Elastic Constant Matrix: (Units=GPa)
#
#
# Indices 1 2 3 4 5 6 
#
# 1 59.9235 32.9826 34.7071 0.0000 0.0000 0.0000
# 2 32.9826 81.9558 45.7432 0.0000 0.0000 0.0000
# 3 34.7071 45.7432 155.3685 0.0000 0.0000 0.0000
# 4 0.0000 0.0000 0.0000 -8.9898 0.0000 0.0000
# 5 0.0000 0.0000 0.0000 0.0000 27.4285 0.0000
# 6 0.0000 0.0000 0.0000 0.0000 0.0000 20.1975
#
#
#
# Elastic Compliance Matrix: (Units=1/GPa)
#
#
# Indices 1 2 3 4 5 6 
#
# 1 0.022419 -0.007452 -0.002814 0.000000 0.000000 0.000000
# 2 -0.007452 0.017078 -0.003363 0.000000 0.000000 0.000000
# 3 -0.002814 -0.003363 0.008055 0.000000 0.000000 0.000000
# 4 0.000000 0.000000 0.000000 -0.111238 0.000000 0.000000
# 5 0.000000 0.000000 0.000000 0.000000 0.036458 0.000000
# 6 0.000000 0.000000 0.000000 0.000000 0.000000 0.049511
#
#
# Mechanical properties :
#
#
# Convention : Reuss Voigt Hill
#
# Bulk Modulus (GPa) = 49.27647 58.23483 53.75565
# Shear Modulus (GPa) = 88.79713 19.98158 54.38935
#
# Velocity S-wave (km/s) = 6.79577 3.22369 5.31858
# Velocity P-wave (km/s) = 9.33835 6.64406 8.10396
#
# Compressibility (1/GPa) = 0.02029366
#
# Stress axis : x y z
#
# Youngs Moduli (GPa) = 44.60406 58.55518 124.14318
#
# Poissons Ratio (x) = 0.43634 0.34937
# Poissons Ratio (y) = 0.33238 0.41754
# Poissons Ratio (z) = 0.12553 0.19694
#
# Static dielectric constant tensor:
#      x y z
#    x 1.715600 0.000000 0.000000 
#    y 0.000000 1.615560 0.000000 
#    z 0.000000 0.000000 1.686610 
# 
# From -- ./inp_files/15236.got.cif
#   From: 2010.05.17/outbox.cif.g08.bks.cpg/sg56_8_cif.got.tgz:15236.got - 2010.06.03 13:42:01.
