data_PCOD9431219
_publ_section_title
;
Structure prediction by ZEFSAII (Michael W. Deem and Ramdas Pophale) SiO2 
 PCOD9431219
Probable space group: P C C N
;
_chemical_formula_sum "Si O2"
_cell_formula_units_Z 28
_cell_length_a 10.678830
_cell_length_b 7.502123
_cell_length_c 13.815431
_cell_angle_alpha 90.000000
_cell_angle_beta 90.000000
_cell_angle_gamma 90.000000
_cell_volume 1106.808004
_symmetry_space_group_name_H-M "P C C N"
_symmetry_group_IT_number 56
_symmetry_cell_setting 'orthorhombic'
loop_
_space_group_symop_operation_xyz
x,y,z
1/2-x,1/2-y,z
1/2+x,-y,1/2-z
-x,1/2+y,1/2-z
-x,-y,-z
1/2+x,1/2+y,-z
1/2-x,y,1/2+z
x,1/2-y,1/2+z
loop_
_atom_site_type_symbol
_atom_site_label
_atom_site_fract_x
_atom_site_fract_y
_atom_site_fract_z
Si Si1 0.367627 0.089175 0.981978
Si Si2 0.250000 0.750000 0.509393
Si Si3 0.883557 0.743796 0.817766
Si Si4 0.011075 0.622541 0.630658
O O1 0.335267 0.124659 0.093366
O O2 0.281885 0.925725 0.946249
O O3 0.397615 0.272359 0.925363
O O4 0.500000 0.000000 0.000000
O O5 0.133593 0.703548 0.578965
O O6 0.750000 0.750000 0.761454
O O7 0.983829 0.665705 0.742802
O O8 0.955578 0.912484 0.866008
#
# Coordination Sequence:
#
# PCOD9431219 Si02
#       4
#     8   4   8   8
#     4  10  22  44  70 102 142 193 240 306 368 438
#     4  10  20  44  74 102 148 186 246 308 364 460
#     4  12  25  46  72 106 148 195 247 309 374 448
#     4  11  24  44  73 105 149 193 249 304 380 439
#
# _framework density 25.297974
#
# number of rings (size 3 to 8) (size 9 to 14) (size 15 to 20)
#    0.000    1.143    2.857    4.286    0.000    1.143 
#   10.286    7.143    0.000    0.000    0.000    0.000 
#    0.000    0.000    0.000    0.000    0.000    0.000 
#
# Total GULP energy -155871.964348 kJ/mol
# GULP energy per Si atom -5566.855870 kJ/mol
# Density = 2.524039 g / cm^3
# Si number density = 25.297974 Si / 1000 Ang^3
#
#
#
# Elastic Constant Matrix: (Units=GPa)
#
#
# Indices 1 2 3 4 5 6 
#
# 1 89.0659 33.4791 0.2414 0.0000 0.0000 0.0000
# 2 33.4791 155.3670 18.2949 0.0000 0.0000 0.0000
# 3 0.2414 18.2949 63.2816 0.0000 0.0000 0.0000
# 4 0.0000 0.0000 0.0000 -13.2624 0.0000 0.0000
# 5 0.0000 0.0000 0.0000 0.0000 47.7087 0.0000
# 6 0.0000 0.0000 0.0000 0.0000 0.0000 69.8106
#
#
#
# Elastic Compliance Matrix: (Units=1/GPa)
#
#
# Indices 1 2 3 4 5 6 
#
# 1 0.012251 -0.002727 0.000742 0.000000 0.000000 0.000000
# 2 -0.002727 0.007270 -0.002091 0.000000 0.000000 0.000000
# 3 0.000742 -0.002091 0.016404 0.000000 0.000000 0.000000
# 4 0.000000 0.000000 0.000000 -0.075401 0.000000 0.000000
# 5 0.000000 0.000000 0.000000 0.000000 0.020961 0.000000
# 6 0.000000 0.000000 0.000000 0.000000 0.000000 0.014324
#
#
# Mechanical properties :
#
#
# Convention : Reuss Voigt Hill
#
# Bulk Modulus (GPa) = 36.00831 45.74949 40.87890
# Shear Modulus (GPa) = 378.21636 37.89800 208.05718
#
# Velocity S-wave (km/s) = 12.24047 3.87468 9.07861
# Velocity P-wave (km/s) = 14.63000 6.17585 11.22893
#
# Compressibility (1/GPa) = 0.02777137
#
# Stress axis : x y z
#
# Youngs Moduli (GPa) = 81.62760 137.54561 60.96003
#
# Poissons Ratio (x) = 0.37511 -0.04521
# Poissons Ratio (y) = 0.22261 0.12750
# Poissons Ratio (z) = -0.06054 0.28767
#
# Static dielectric constant tensor:
#      x y z
#    x 1.871440 0.000000 0.000000 
#    y 0.000000 2.013290 0.000000 
#    z 0.000000 0.000000 2.236530 
# 
# From -- ./inp_files/11192.got.cif
#   From: 2010.05.17/outbox.cif.g08.bks.cpg/sg56_6_cif.got.tgz:11192.got - 2010.06.03 13:42:01.
