data_PCOD9431061
_publ_section_title
;
Structure prediction by ZEFSAII (Michael W. Deem and Ramdas Pophale) SiO2 
 PCOD9431061
Probable space group: P C C N
;
_chemical_formula_sum "Si O2"
_cell_formula_units_Z 48
_cell_length_a 8.488565
_cell_length_b 14.994910
_cell_length_c 18.380976
_cell_angle_alpha 90.000000
_cell_angle_beta 90.000000
_cell_angle_gamma 90.000000
_cell_volume 2339.627460
_symmetry_space_group_name_H-M "P C C N"
_symmetry_group_IT_number 56
_symmetry_cell_setting 'orthorhombic'
loop_
_space_group_symop_operation_xyz
x,y,z
1/2-x,1/2-y,z
1/2+x,-y,1/2-z
-x,1/2+y,1/2-z
-x,-y,-z
1/2+x,1/2+y,-z
1/2-x,y,1/2+z
x,1/2-y,1/2+z
loop_
_atom_site_type_symbol
_atom_site_label
_atom_site_fract_x
_atom_site_fract_y
_atom_site_fract_z
Si Si1 0.377247 0.590374 0.574577
Si Si2 0.338276 0.552830 0.820918
Si Si3 0.072220 0.226667 0.324720
Si Si4 0.568006 0.234350 0.681481
Si Si5 0.115390 0.911043 0.181762
Si Si6 0.945078 0.086870 0.590331
O O1 0.486151 0.656431 0.623123
O O2 0.202324 0.595598 0.605084
O O3 0.418639 0.485797 0.584001
O O4 0.398724 0.615334 0.490679
O O5 0.401911 0.642482 0.861019
O O6 0.478838 0.484202 0.811827
O O7 0.250154 0.570911 0.743165
O O8 0.193768 0.528242 0.872853
O O9 0.250000 0.250000 0.346133
O O10 0.057294 0.197780 0.240472
O O11 0.972323 0.316916 0.313735
O O12 0.750000 0.250000 0.708862
O O13 0.523934 0.324941 0.639412
#
# Coordination Sequence:
#
# PCOD9431061 Si02
#       6
#     8   8   8   8   8   8
#     4  11  24  45  68  97 140 179 218 281 337 399
#     4  11  23  39  66  98 131 178 225 281 331 400
#     4  12  24  39  67 100 132 176 231 277 330 397
#     4  10  20  40  64  94 129 172 221 276 329 388
#     4  12  24  40  67  99 136 175 230 277 336 398
#     4  10  23  45  69  96 138 179 222 275 338 399
#
# _framework density 20.516086000000001
#
# number of rings (size 3 to 8) (size 9 to 14) (size 15 to 20)
#    0.000    1.000    5.000    2.500    2.333    4.667 
#    0.000    4.167    0.000    0.000    0.000    0.000 
#    0.000    0.000    0.000    0.000    0.000    0.000 
#
# Total GULP energy -267276.066663 kJ/mol
# GULP energy per Si atom -5568.251389 kJ/mol
# Density = 2.046939 g / cm^3
# Si number density = 20.516086 Si / 1000 Ang^3
#
#
#
# Elastic Constant Matrix: (Units=GPa)
#
#
# Indices 1 2 3 4 5 6 
#
# 1 26.5432 4.2576 17.4137 0.0000 0.0000 0.0000
# 2 4.2576 73.1816 15.6727 0.0000 0.0000 0.0000
# 3 17.4137 15.6727 85.6971 0.0000 0.0000 0.0000
# 4 0.0000 0.0000 0.0000 -9.2926 0.0000 0.0000
# 5 0.0000 0.0000 0.0000 0.0000 20.6169 0.0000
# 6 0.0000 0.0000 0.0000 0.0000 0.0000 28.5873
#
#
#
# Elastic Compliance Matrix: (Units=1/GPa)
#
#
# Indices 1 2 3 4 5 6 
#
# 1 0.043500 -0.000664 -0.008718 0.000000 0.000000 0.000000
# 2 -0.000664 0.014232 -0.002468 0.000000 0.000000 0.000000
# 3 -0.008718 -0.002468 0.013892 0.000000 0.000000 0.000000
# 4 0.000000 0.000000 0.000000 -0.107613 0.000000 0.000000
# 5 0.000000 0.000000 0.000000 0.000000 0.048504 0.000000
# 6 0.000000 0.000000 0.000000 0.000000 0.000000 0.034981
#
#
# Mechanical properties :
#
#
# Convention : Reuss Voigt Hill
#
# Bulk Modulus (GPa) = 20.86605 28.90112 24.88359
# Shear Modulus (GPa) = 57.35938 17.85417 37.60677
#
# Velocity S-wave (km/s) = 5.29329 2.95320 4.28604
# Velocity P-wave (km/s) = 6.89574 5.07407 6.05382
#
# Compressibility (1/GPa) = 0.04792474
#
# Stress axis : x y z
#
# Youngs Moduli (GPa) = 22.98840 70.26524 71.98481
#
# Poissons Ratio (x) = 0.04664 0.62755
# Poissons Ratio (y) = 0.01526 0.17765
# Poissons Ratio (z) = 0.20041 0.17341
#
# Static dielectric constant tensor:
#      x y z
#    x 1.785530 0.000000 0.000000 
#    y 0.000000 1.793230 0.000000 
#    z 0.000000 0.000000 1.890070 
# 
# From -- ./inp_files/14748.got.cif
#   From: 2010.05.17/outbox.cif.g08.bks.cpg/sg56_8_cif.got.tgz:14748.got - 2010.06.03 13:42:01.
