data_PCOD9431621
_publ_section_title
;
Structure prediction by ZEFSAII (Michael W. Deem and Ramdas Pophale) SiO2 
 PCOD9431621
Probable space group: P C C N
;
_chemical_formula_sum "Si O2"
_cell_formula_units_Z 60
_cell_length_a 19.888114
_cell_length_b 11.665108
_cell_length_c 11.554932
_cell_angle_alpha 90.000000
_cell_angle_beta 90.000000
_cell_angle_gamma 90.000000
_cell_volume 2680.709533
_symmetry_space_group_name_H-M "P C C N"
_symmetry_group_IT_number 56
_symmetry_cell_setting 'orthorhombic'
loop_
_space_group_symop_operation_xyz
x,y,z
1/2-x,1/2-y,z
1/2+x,-y,1/2-z
-x,1/2+y,1/2-z
-x,-y,-z
1/2+x,1/2+y,-z
1/2-x,y,1/2+z
x,1/2-y,1/2+z
loop_
_atom_site_type_symbol
_atom_site_label
_atom_site_fract_x
_atom_site_fract_y
_atom_site_fract_z
Si Si1 0.250000 0.250000 0.095946
Si Si2 0.043351 0.122138 0.424607
Si Si3 0.759668 0.547899 0.575570
Si Si4 0.911520 0.287997 0.805517
Si Si5 0.138227 0.578337 0.561349
Si Si6 0.499985 0.880085 0.837629
Si Si7 0.348174 0.391608 0.249010
Si Si8 0.896309 0.506762 0.669573
O O1 0.308459 0.296598 0.177474
O O2 0.233689 0.354961 0.010954
O O3 0.051470 0.151727 0.558975
O O4 0.098499 0.164590 0.334826
O O5 0.971408 0.170066 0.387889
O O6 0.040539 0.986015 0.395854
O O7 0.788286 0.445380 0.495683
O O8 0.703562 0.534894 0.672127
O O9 0.829743 0.580244 0.640569
O O10 0.867481 0.199590 0.877853
O O11 0.877307 0.401191 0.754290
O O12 0.949429 0.217259 0.704003
O O13 0.122712 0.480356 0.655711
O O14 0.088426 0.553846 0.453677
O O15 0.542564 0.927497 0.729050
#
# Coordination Sequence:
#
# PCOD9431621 Si02
#       8
#     4   8   8   8   8   8   8   8
#     4  10  22  40  70  94 138 172 222 286 352 416
#     4  10  23  38  62 104 129 179 221 280 348 409
#     4   9  22  41  64 100 134 175 226 289 343 414
#     4  11  20  40  69  93 136 179 232 277 344 410
#     4   9  21  42  66  92 133 181 225 288 335 415
#     4  10  21  40  63  95 139 173 224 285 336 409
#     4  11  21  42  67  95 138 174 224 284 348 411
#     4   9  22  42  64  97 133 179 226 282 344 401
#
# _framework density 22.382134000000001
#
# number of rings (size 3 to 8) (size 9 to 14) (size 15 to 20)
#    0.800    1.333    1.333    1.200    0.000    5.867 
#    2.400    0.667    2.933    0.000    0.000    0.000 
#    0.000    0.000    0.000    0.000    0.000    0.000 
#
# Total GULP energy -334824.147163 kJ/mol
# GULP energy per Si atom -5580.402453 kJ/mol
# Density = 2.233119 g / cm^3
# Si number density = 22.382134 Si / 1000 Ang^3
#
#
#
# Elastic Constant Matrix: (Units=GPa)
#
#
# Indices 1 2 3 4 5 6 
#
# 1 41.7897 14.2432 32.0031 0.0000 0.0000 0.0000
# 2 14.2432 67.3754 22.0714 0.0000 0.0000 0.0000
# 3 32.0031 22.0714 130.5897 0.0000 0.0000 0.0000
# 4 0.0000 0.0000 0.0000 -36.6828 0.0000 0.0000
# 5 0.0000 0.0000 0.0000 0.0000 23.3193 0.0000
# 6 0.0000 0.0000 0.0000 0.0000 0.0000 25.5203
#
#
#
# Elastic Compliance Matrix: (Units=1/GPa)
#
#
# Indices 1 2 3 4 5 6 
#
# 1 0.030562 -0.004242 -0.006773 0.000000 0.000000 0.000000
# 2 -0.004242 0.016301 -0.001715 0.000000 0.000000 0.000000
# 3 -0.006773 -0.001715 0.009607 0.000000 0.000000 0.000000
# 4 0.000000 0.000000 0.000000 -0.027261 0.000000 0.000000
# 5 0.000000 0.000000 0.000000 0.000000 0.042883 0.000000
# 6 0.000000 0.000000 0.000000 0.000000 0.000000 0.039185
#
#
# Mechanical properties :
#
#
# Convention : Reuss Voigt Hill
#
# Bulk Modulus (GPa) = 32.24822 41.82112 37.03467
# Shear Modulus (GPa) = 33.99655 13.86050 23.92853
#
# Velocity S-wave (km/s) = 3.90155 2.49121 3.27324
# Velocity P-wave (km/s) = 5.89368 5.19619 5.55589
#
# Compressibility (1/GPa) = 0.03100946
#
# Stress axis : x y z
#
# Youngs Moduli (GPa) = 32.72058 61.34606 104.08793
#
# Poissons Ratio (x) = 0.26024 0.70495
# Poissons Ratio (y) = 0.13881 0.17856
# Poissons Ratio (z) = 0.22161 0.10524
#
# Static dielectric constant tensor:
#      x y z
#    x 1.843740 0.000000 0.000000 
#    y 0.000000 1.865980 0.000000 
#    z 0.000000 0.000000 1.873310 
# 
# From -- ./inp_files/8700.got.cif
#   From: 2010.05.17/outbox.cif.g08.bks.cpg/sg56_5_cif.got.tgz:8700.got - 2010.06.03 13:42:01.
