data_PCOD9431894
_publ_section_title
;
Structure prediction by ZEFSAII (Michael W. Deem and Ramdas Pophale) SiO2 
 PCOD9431894
Probable space group: P C C N
;
_chemical_formula_sum "Si O2"
_cell_formula_units_Z 56
_cell_length_a 14.724329
_cell_length_b 11.611243
_cell_length_c 13.851239
_cell_angle_alpha 90.000000
_cell_angle_beta 90.000000
_cell_angle_gamma 90.000000
_cell_volume 2368.115333
_symmetry_space_group_name_H-M "P C C N"
_symmetry_group_IT_number 56
_symmetry_cell_setting 'orthorhombic'
loop_
_space_group_symop_operation_xyz
x,y,z
1/2-x,1/2-y,z
1/2+x,-y,1/2-z
-x,1/2+y,1/2-z
-x,-y,-z
1/2+x,1/2+y,-z
1/2-x,y,1/2+z
x,1/2-y,1/2+z
loop_
_atom_site_type_symbol
_atom_site_label
_atom_site_fract_x
_atom_site_fract_y
_atom_site_fract_z
Si Si1 0.250000 0.750000 0.599112
Si Si2 0.444936 0.691493 0.679964
Si Si3 0.710395 0.972943 0.702403
Si Si4 0.684544 0.100423 0.055866
Si Si5 0.574447 0.862510 0.567453
Si Si6 0.519526 0.267339 0.102270
Si Si7 0.250000 0.250000 0.893780
Si Si8 0.104750 0.042515 0.602300
O O1 0.341527 0.730760 0.658470
O O2 0.255696 0.856937 0.524806
O O3 0.511900 0.786168 0.637060
O O4 0.461313 0.684489 0.792741
O O5 0.458431 0.568004 0.628679
O O6 0.621223 0.960664 0.632812
O O7 0.766621 0.857878 0.676603
O O8 0.679947 0.968767 0.812562
O O9 0.769586 0.075538 0.658228
O O10 0.608392 0.198996 0.064283
O O11 0.643054 0.987901 0.003465
O O12 0.517386 0.865869 0.469586
O O13 0.664677 0.787726 0.544013
O O14 0.446648 0.162617 0.109325
#
# Coordination Sequence:
#
# PCOD9431894 Si02
#       8
#     4   8   8   8   8   8   4   8
#     4  10  24  46  64  96 142 172 234 282 330 402
#     4  11  25  44  64  99 133 180 223 279 330 408
#     4  10  23  43  65 101 134 167 221 288 331 407
#     4  11  25  41  71 100 130 181 231 276 341 406
#     4  10  21  46  64 100 137 170 225 276 340 407
#     4  12  23  43  74  95 137 185 220 281 345 403
#     4   8  20  40  68  88 138 164 208 276 338 390
#     4  11  24  43  68  98 132 174 232 268 339 411
#
# _framework density 23.647496
#
# number of rings (size 3 to 8) (size 9 to 14) (size 15 to 20)
#    0.857    0.571    4.286    1.286    8.000    0.000 
#    7.714    2.143    0.000    0.000    0.000    0.000 
#    0.000    0.000    0.000    0.000    0.000    0.000 
#
# Total GULP energy -312703.597440 kJ/mol
# GULP energy per Si atom -5583.992811 kJ/mol
# Density = 2.359367 g / cm^3
# Si number density = 23.647496 Si / 1000 Ang^3
#
#
#
# Elastic Constant Matrix: (Units=GPa)
#
#
# Indices 1 2 3 4 5 6 
#
# 1 75.0804 10.1464 27.4299 0.0000 0.0000 0.0000
# 2 10.1464 37.3953 -7.6763 0.0000 0.0000 0.0000
# 3 27.4299 -7.6763 107.9119 0.0000 0.0000 0.0000
# 4 0.0000 0.0000 0.0000 51.9781 0.0000 0.0000
# 5 0.0000 0.0000 0.0000 0.0000 43.7400 0.0000
# 6 0.0000 0.0000 0.0000 0.0000 0.0000 19.7744
#
#
#
# Elastic Compliance Matrix: (Units=1/GPa)
#
#
# Indices 1 2 3 4 5 6 
#
# 1 0.015592 -0.005119 -0.004327 0.000000 0.000000 0.000000
# 2 -0.005119 0.028818 0.003351 0.000000 0.000000 0.000000
# 3 -0.004327 0.003351 0.010605 0.000000 0.000000 0.000000
# 4 0.000000 0.000000 0.000000 0.019239 0.000000 0.000000
# 5 0.000000 0.000000 0.000000 0.000000 0.022862 0.000000
# 6 0.000000 0.000000 0.000000 0.000000 0.000000 0.050570
#
#
# Mechanical properties :
#
#
# Convention : Reuss Voigt Hill
#
# Bulk Modulus (GPa) = 23.35091 31.13198 27.24144
# Shear Modulus (GPa) = 28.71061 35.79767 32.25414
#
# Velocity S-wave (km/s) = 3.48818 3.89498 3.69718
# Velocity P-wave (km/s) = 5.11070 5.78113 5.45622
#
# Compressibility (1/GPa) = 0.04282489
#
# Stress axis : x y z
#
# Youngs Moduli (GPa) = 64.13643 34.70048 94.29373
#
# Poissons Ratio (x) = 0.17762 0.40804
# Poissons Ratio (y) = 0.32830 -0.31599
# Poissons Ratio (z) = 0.27754 -0.11628
#
# Static dielectric constant tensor:
#      x y z
#    x 1.931980 0.000000 0.000000 
#    y 0.000000 1.955810 0.000000 
#    z 0.000000 0.000000 1.874160 
# 
# From -- ./inp_files/12388.got.cif
#   From: 2010.05.17/outbox.cif.g08.bks.cpg/sg56_7_cif.got.tgz:12388.got - 2010.06.03 13:42:01.
