data_PCOD9431354
_publ_section_title
;
Structure prediction by ZEFSAII (Michael W. Deem and Ramdas Pophale) SiO2 
 PCOD9431354
Probable space group: P C C N
;
_chemical_formula_sum "Si O2"
_cell_formula_units_Z 44
_cell_length_a 32.119269
_cell_length_b 7.081683
_cell_length_c 8.430964
_cell_angle_alpha 90.000000
_cell_angle_beta 90.000000
_cell_angle_gamma 90.000000
_cell_volume 1917.694267
_symmetry_space_group_name_H-M "P C C N"
_symmetry_group_IT_number 56
_symmetry_cell_setting 'orthorhombic'
loop_
_space_group_symop_operation_xyz
x,y,z
1/2-x,1/2-y,z
1/2+x,-y,1/2-z
-x,1/2+y,1/2-z
-x,-y,-z
1/2+x,1/2+y,-z
1/2-x,y,1/2+z
x,1/2-y,1/2+z
loop_
_atom_site_type_symbol
_atom_site_label
_atom_site_fract_x
_atom_site_fract_y
_atom_site_fract_z
Si Si1 0.955679 0.459005 0.295940
Si Si2 0.131989 0.801830 0.109653
Si Si3 0.810523 0.902086 0.737447
Si Si4 0.250000 0.250000 0.501769
Si Si5 0.042853 0.293780 0.390704
Si Si6 0.629488 0.542830 0.211330
O O1 0.915134 0.336142 0.329156
O O2 0.952507 0.569441 0.130251
O O3 0.956159 0.619587 0.433602
O O4 0.998396 0.347695 0.315924
O O5 0.139062 0.579305 0.131591
O O6 0.162925 0.914070 0.226164
O O7 0.135958 0.904855 0.940262
O O8 0.783914 0.853655 0.892764
O O9 0.775567 0.899895 0.602538
O O10 0.841743 0.727121 0.705578
O O11 0.081938 0.388698 0.302057
#
# Coordination Sequence:
#
# PCOD9431354 Si02
#       6
#     8   8   8   4   8   8
#     4  10  21  37  58  90 129 170 216 261 308 366
#     4  11  24  40  65  96 130 173 215 261 319 383
#     4  11  22  46  66  96 124 170 210 266 330 383
#     4  10  24  42  74  90 128 160 212 274 326 390
#     4  10  21  37  58  90 129 170 216 261 308 366
#     4  11  24  40  65  96 130 173 215 261 319 383
#
# _framework density 22.944223000000001
#
# number of rings (size 3 to 8) (size 9 to 14) (size 15 to 20)
#    0.000    1.455    3.636    1.091    2.545    2.182 
#    0.000    5.455    0.000    0.000    0.000    0.000 
#    0.000    0.000    0.000    0.000    0.000    0.000 
#
# Total GULP energy -246175.552038 kJ/mol
# GULP energy per Si atom -5594.898910 kJ/mol
# Density = 2.289200 g / cm^3
# Si number density = 22.944223 Si / 1000 Ang^3
#
#
#
# Elastic Constant Matrix: (Units=GPa)
#
#
# Indices 1 2 3 4 5 6 
#
# 1 127.7760 14.9823 33.0455 0.0000 0.0000 0.0000
# 2 14.9823 39.3590 4.2850 0.0000 0.0000 0.0000
# 3 33.0455 4.2850 41.1623 0.0000 0.0000 0.0000
# 4 0.0000 0.0000 0.0000 27.8404 0.0000 0.0000
# 5 0.0000 0.0000 0.0000 0.0000 31.2135 0.0000
# 6 0.0000 0.0000 0.0000 0.0000 0.0000 13.3803
#
#
#
# Elastic Compliance Matrix: (Units=1/GPa)
#
#
# Indices 1 2 3 4 5 6 
#
# 1 0.010223 -0.003032 -0.007891 0.000000 0.000000 0.000000
# 2 -0.003032 0.026598 -0.000335 0.000000 0.000000 0.000000
# 3 -0.007891 -0.000335 0.030664 0.000000 0.000000 0.000000
# 4 0.000000 0.000000 0.000000 0.035919 0.000000 0.000000
# 5 0.000000 0.000000 0.000000 0.000000 0.032037 0.000000
# 6 0.000000 0.000000 0.000000 0.000000 0.000000 0.074737
#
#
# Mechanical properties :
#
#
# Convention : Reuss Voigt Hill
#
# Bulk Modulus (GPa) = 22.23774 34.76923 28.50348
# Shear Modulus (GPa) = 20.18713 24.88581 22.53647
#
# Velocity S-wave (km/s) = 2.96942 3.29693 3.13745
# Velocity P-wave (km/s) = 4.63354 5.44791 5.05715
#
# Compressibility (1/GPa) = 0.04496859
#
# Stress axis : x y z
#
# Youngs Moduli (GPa) = 97.82307 37.59708 32.61153
#
# Poissons Ratio (x) = 0.11400 0.25734
# Poissons Ratio (y) = 0.29662 0.01091
# Poissons Ratio (z) = 0.77193 0.01258
#
# Static dielectric constant tensor:
#      x y z
#    x 1.807750 0.000000 0.000000 
#    y 0.000000 1.919360 0.000000 
#    z 0.000000 0.000000 1.920000 
# 
# From -- ./inp_files/5104.got.cif
#   From: 2010.05.17/outbox.cif.g08.bks.cpg/sg56_3_cif.got.tgz:5104.got - 2010.06.03 13:42:01.
