data_PCOD9431742
_publ_section_title
;
Structure prediction by ZEFSAII (Michael W. Deem and Ramdas Pophale) SiO2 
 PCOD9431742
Probable space group: P C C N
;
_chemical_formula_sum "Si O2"
_cell_formula_units_Z 32
_cell_length_a 10.827535
_cell_length_b 7.921859
_cell_length_c 15.124566
_cell_angle_alpha 90.000000
_cell_angle_beta 90.000000
_cell_angle_gamma 90.000000
_cell_volume 1297.297634
_symmetry_space_group_name_H-M "P C C N"
_symmetry_group_IT_number 56
_symmetry_cell_setting 'orthorhombic'
loop_
_space_group_symop_operation_xyz
x,y,z
1/2-x,1/2-y,z
1/2+x,-y,1/2-z
-x,1/2+y,1/2-z
-x,-y,-z
1/2+x,1/2+y,-z
1/2-x,y,1/2+z
x,1/2-y,1/2+z
loop_
_atom_site_type_symbol
_atom_site_label
_atom_site_fract_x
_atom_site_fract_y
_atom_site_fract_z
Si Si1 0.515304 0.547353 0.600594
Si Si2 0.136468 0.627337 0.588010
Si Si3 0.708601 0.943710 0.586749
Si Si4 0.699480 0.937979 0.775264
O O1 0.500000 0.500000 0.500000
O O2 0.478357 0.747108 0.606229
O O3 0.654626 0.490243 0.615794
O O4 0.414577 0.451147 0.658114
O O5 0.250000 0.750000 0.564241
O O6 0.139544 0.510395 0.500382
O O7 0.188208 0.536304 0.675982
O O8 0.750000 0.750000 0.567998
O O9 0.645366 0.990425 0.679728
O O10 0.750000 0.750000 0.762706
#
# Coordination Sequence:
#
# PCOD9431742 Si02
#       4
#     8   8   8   8
#     4  11  23  44  68  95 134 178 222 275 338 392
#     4  10  21  41  67  97 132 178 217 276 330 397
#     4  11  24  44  67 101 137 173 225 279 330 406
#     4  10  23  43  65  99 138 170 227 280 326 409
#
# _framework density 24.666661000000001
#
# number of rings (size 3 to 8) (size 9 to 14) (size 15 to 20)
#    0.000    1.500    5.000    0.750    0.000    8.000 
#    9.000    0.000    0.000    0.000    0.000    0.000 
#    0.000    0.000    0.000    0.000    0.000    0.000 
#
# Total GULP energy -178502.391647 kJ/mol
# GULP energy per Si atom -5578.199739 kJ/mol
# Density = 2.461052 g / cm^3
# Si number density = 24.666661 Si / 1000 Ang^3
#
#
#
# Elastic Constant Matrix: (Units=GPa)
#
#
# Indices 1 2 3 4 5 6 
#
# 1 93.6575 -13.4237 -2.6962 0.0000 0.0000 0.0000
# 2 -13.4237 48.1862 15.3668 0.0000 0.0000 0.0000
# 3 -2.6962 15.3668 130.8581 0.0000 0.0000 0.0000
# 4 0.0000 0.0000 0.0000 50.5964 0.0000 0.0000
# 5 0.0000 0.0000 0.0000 0.0000 26.8316 0.0000
# 6 0.0000 0.0000 0.0000 0.0000 0.0000 39.4973
#
#
#
# Elastic Compliance Matrix: (Units=1/GPa)
#
#
# Indices 1 2 3 4 5 6 
#
# 1 0.011124 0.003143 -0.000140 0.000000 0.000000 0.000000
# 2 0.003143 0.022449 -0.002571 0.000000 0.000000 0.000000
# 3 -0.000140 -0.002571 0.007941 0.000000 0.000000 0.000000
# 4 0.000000 0.000000 0.000000 0.019764 0.000000 0.000000
# 5 0.000000 0.000000 0.000000 0.000000 0.037270 0.000000
# 6 0.000000 0.000000 0.000000 0.000000 0.000000 0.025318
#
#
# Mechanical properties :
#
#
# Convention : Reuss Voigt Hill
#
# Bulk Modulus (GPa) = 23.59740 30.13283 26.86511
# Shear Modulus (GPa) = 36.46260 41.61538 39.03899
#
# Velocity S-wave (km/s) = 3.84893 4.11190 3.98258
# Velocity P-wave (km/s) = 5.41660 5.89798 5.66241
#
# Compressibility (1/GPa) = 0.04237755
#
# Stress axis : x y z
#
# Youngs Moduli (GPa) = 89.89795 44.54622 125.92958
#
# Poissons Ratio (x) = -0.14003 0.01762
# Poissons Ratio (y) = -0.28259 0.32381
# Poissons Ratio (z) = 0.01258 0.11455
#
# Static dielectric constant tensor:
#      x y z
#    x 1.723690 0.000000 0.000000 
#    y 0.000000 1.982460 0.000000 
#    z 0.000000 0.000000 2.158430 
# 
# From -- ./inp_files/10050.got.cif
#   From: 2010.05.17/outbox.cif.g08.bks.cpg/sg56_6_cif.got.tgz:10050.got - 2010.06.03 13:42:01.
