data_PCOD9431713
_publ_section_title
;
Structure prediction by ZEFSAII (Michael W. Deem and Ramdas Pophale) SiO2 
 PCOD9431713
Probable space group: P C C N
;
_chemical_formula_sum "Si O2"
_cell_formula_units_Z 36
_cell_length_a 16.419068
_cell_length_b 6.748344
_cell_length_c 15.264103
_cell_angle_alpha 90.000000
_cell_angle_beta 90.000000
_cell_angle_gamma 90.000000
_cell_volume 1691.285799
_symmetry_space_group_name_H-M "P C C N"
_symmetry_group_IT_number 56
_symmetry_cell_setting 'orthorhombic'
loop_
_space_group_symop_operation_xyz
x,y,z
1/2-x,1/2-y,z
1/2+x,-y,1/2-z
-x,1/2+y,1/2-z
-x,-y,-z
1/2+x,1/2+y,-z
1/2-x,y,1/2+z
x,1/2-y,1/2+z
loop_
_atom_site_type_symbol
_atom_site_label
_atom_site_fract_x
_atom_site_fract_y
_atom_site_fract_z
Si Si1 0.326836 0.123007 0.264248
Si Si2 0.845546 0.698640 0.545317
Si Si3 0.940803 0.939112 0.398644
Si Si4 0.250000 0.750000 0.861554
Si Si5 0.599264 0.241447 0.031880
O O1 0.250000 0.250000 0.229793
O O2 0.361258 0.230236 0.351154
O O3 0.394448 0.087889 0.191753
O O4 0.291171 0.916613 0.301648
O O5 0.750000 0.750000 0.533077
O O6 0.893205 0.826302 0.475738
O O7 0.877905 0.473615 0.528458
O O8 0.028874 0.836098 0.402532
O O9 0.931493 0.161968 0.437406
O O10 0.317312 0.842322 0.926366
#
# Coordination Sequence:
#
# PCOD9431713 Si02
#       5
#     8   8   8   4   8
#     4  10  22  39  61  92 124 169 214 266 326 391
#     4  10  21  41  64  89 131 171 213 269 326 392
#     4  11  22  39  63  97 126 166 221 267 332 391
#     4  10  22  44  60  88 132 174 210 266 326 394
#     4  10  22  41  63  89 127 171 214 273 325 387
#
# _framework density 21.285581000000001
#
# number of rings (size 3 to 8) (size 9 to 14) (size 15 to 20)
#    0.000    1.778    0.000    5.333    0.000    4.444 
#   24.000    0.000    0.000    0.000    0.000    0.000 
#    0.000    0.000    0.000    0.000    0.000    0.000 
#
# Total GULP energy -200788.178322 kJ/mol
# GULP energy per Si atom -5577.449398 kJ/mol
# Density = 2.123713 g / cm^3
# Si number density = 21.285581 Si / 1000 Ang^3
#
#
#
# Elastic Constant Matrix: (Units=GPa)
#
#
# Indices 1 2 3 4 5 6 
#
# 1 134.1162 10.7663 43.3693 0.0000 0.0000 0.0000
# 2 10.7663 63.6280 0.7201 0.0000 0.0000 0.0000
# 3 43.3693 0.7201 62.7045 0.0000 0.0000 0.0000
# 4 0.0000 0.0000 0.0000 20.0352 0.0000 0.0000
# 5 0.0000 0.0000 0.0000 0.0000 -72.8236 0.0000
# 6 0.0000 0.0000 0.0000 0.0000 0.0000 30.6799
#
#
#
# Elastic Compliance Matrix: (Units=1/GPa)
#
#
# Indices 1 2 3 4 5 6 
#
# 1 0.009760 -0.001575 -0.006732 0.000000 0.000000 0.000000
# 2 -0.001575 0.015973 0.000906 0.000000 0.000000 0.000000
# 3 -0.006732 0.000906 0.020594 0.000000 0.000000 0.000000
# 4 0.000000 0.000000 0.000000 0.049912 0.000000 0.000000
# 5 0.000000 0.000000 0.000000 0.000000 -0.013732 0.000000
# 6 0.000000 0.000000 0.000000 0.000000 0.000000 0.032595
#
#
# Mechanical properties :
#
#
# Convention : Reuss Voigt Hill
#
# Bulk Modulus (GPa) = 31.72248 41.12889 36.42568
# Shear Modulus (GPa) = 35.60964 9.28448 22.44706
#
# Velocity S-wave (km/s) = 4.09460 2.09077 3.25093
# Velocity P-wave (km/s) = 6.10655 5.01924 5.58940
#
# Compressibility (1/GPa) = 0.03152339
#
# Stress axis : x y z
#
# Youngs Moduli (GPa) = 102.46265 62.60707 48.55860
#
# Poissons Ratio (x) = 0.09862 0.32690
# Poissons Ratio (y) = 0.16140 -0.04400
# Poissons Ratio (z) = 0.68979 -0.05673
#
# Static dielectric constant tensor:
#      x y z
#    x 1.789930 0.000000 0.000000 
#    y 0.000000 1.962380 0.000000 
#    z 0.000000 0.000000 1.726730 
# 
# From -- ./inp_files/12549.got.cif
#   From: 2010.05.17/outbox.cif.g08.bks.cpg/sg56_7_cif.got.tgz:12549.got - 2010.06.03 13:42:01.
