data_PCOD9431308
_publ_section_title
;
Structure prediction by ZEFSAII (Michael W. Deem and Ramdas Pophale) SiO2 
 PCOD9431308
Probable space group: P C C N
;
_chemical_formula_sum "Si O2"
_cell_formula_units_Z 64
_cell_length_a 17.055157
_cell_length_b 34.944206
_cell_length_c 5.225476
_cell_angle_alpha 90.000000
_cell_angle_beta 90.000000
_cell_angle_gamma 90.000000
_cell_volume 3114.273541
_symmetry_space_group_name_H-M "P C C N"
_symmetry_group_IT_number 56
_symmetry_cell_setting 'orthorhombic'
loop_
_space_group_symop_operation_xyz
x,y,z
1/2-x,1/2-y,z
1/2+x,-y,1/2-z
-x,1/2+y,1/2-z
-x,-y,-z
1/2+x,1/2+y,-z
1/2-x,y,1/2+z
x,1/2-y,1/2+z
loop_
_atom_site_type_symbol
_atom_site_label
_atom_site_fract_x
_atom_site_fract_y
_atom_site_fract_z
Si Si1 0.662552 0.265124 0.601278
Si Si2 0.615359 0.344450 0.424868
Si Si3 0.698244 0.032215 0.535254
Si Si4 0.198652 0.446717 0.541197
Si Si5 0.580615 0.879183 0.585198
Si Si6 0.603438 0.107764 0.425337
Si Si7 0.284584 0.207104 0.048880
Si Si8 0.931376 0.831549 0.585847
O O1 0.750000 0.250000 0.651285
O O2 0.623349 0.260584 0.879160
O O3 0.666000 0.307790 0.496482
O O4 0.625712 0.375747 0.647573
O O5 0.525287 0.328782 0.434033
O O6 0.630158 0.363067 0.149611
O O7 0.766467 0.035310 0.320125
O O8 0.639478 0.066609 0.480542
O O9 0.664523 0.989517 0.497154
O O10 0.267054 0.443744 0.327105
O O11 0.137806 0.413530 0.482241
O O12 0.490633 0.893035 0.565265
O O13 0.587778 0.846420 0.368943
O O14 0.592142 0.862663 0.869729
O O15 0.250000 0.250000 0.073394
O O16 0.261920 0.188005 0.315665
O O17 0.376246 0.204423 0.983143
#
# Coordination Sequence:
#
# PCOD9431308 Si02
#       8
#     8   8   8   8   8   8   8   8
#     4  10  21  40  57  82 114 140 181 237 276 344
#     4  10  21  40  59  84 114 148 188 236 288 335
#     4  10  21  39  56  86 121 154 191 234 281 334
#     4  10  21  36  57  85 122 154 191 233 282 339
#     4  10  21  36  59  86 113 151 192 234 285 334
#     4  10  21  39  60  85 116 149 195 236 280 340
#     4  10  21  37  53  78 108 141 183 230 279 336
#     4  10  21  37  57  82 114 145 189 240 282 339
#
# _framework density 20.550540999999999
#
# number of rings (size 3 to 8) (size 9 to 14) (size 15 to 20)
#    0.000    2.000    0.000    3.000    0.000    3.500 
#   18.000    0.000    0.000    9.000    0.000    0.000 
#    0.000    0.000    0.000    0.000    0.000    0.000 
#
# Total GULP energy -357276.972224 kJ/mol
# GULP energy per Si atom -5582.452691 kJ/mol
# Density = 2.050377 g / cm^3
# Si number density = 20.550541 Si / 1000 Ang^3
#
#
#
# Elastic Constant Matrix: (Units=GPa)
#
#
# Indices 1 2 3 4 5 6 
#
# 1 23.6984 24.2576 -9.1998 0.0000 0.0000 0.0000
# 2 24.2576 53.4839 -24.5509 0.0000 0.0000 0.0000
# 3 -9.1998 -24.5509 99.1862 0.0000 0.0000 0.0000
# 4 0.0000 0.0000 0.0000 22.7375 0.0000 0.0000
# 5 0.0000 0.0000 0.0000 0.0000 14.2631 0.0000
# 6 0.0000 0.0000 0.0000 0.0000 0.0000 -23.8785
#
#
#
# Elastic Compliance Matrix: (Units=1/GPa)
#
#
# Indices 1 2 3 4 5 6 
#
# 1 0.079028 -0.036641 -0.001740 0.000000 0.000000 0.000000
# 2 -0.036641 0.038083 0.006028 0.000000 0.000000 0.000000
# 3 -0.001740 0.006028 0.011413 0.000000 0.000000 0.000000
# 4 0.000000 0.000000 0.000000 0.043980 0.000000 0.000000
# 5 0.000000 0.000000 0.000000 0.000000 0.070111 0.000000
# 6 0.000000 0.000000 0.000000 0.000000 0.000000 -0.041879
#
#
# Mechanical properties :
#
#
# Convention : Reuss Voigt Hill
#
# Bulk Modulus (GPa) = 15.66983 17.48691 16.57837
# Shear Modulus (GPa) = 17.43894 15.01518 16.22706
#
# Velocity S-wave (km/s) = 2.91621 2.70598 2.81306
# Velocity P-wave (km/s) = 4.35668 4.27677 4.31691
#
# Compressibility (1/GPa) = 0.06381692
#
# Stress axis : x y z
#
# Youngs Moduli (GPa) = 12.65379 26.25855 87.62160
#
# Poissons Ratio (x) = 0.96215 0.15242
# Poissons Ratio (y) = 0.46365 -0.52816
# Poissons Ratio (z) = 0.02201 -0.15828
#
# Static dielectric constant tensor:
#      x y z
#    x 1.754990 0.000000 0.000000 
#    y 0.000000 1.705210 0.000000 
#    z 0.000000 0.000000 1.801400 
# 
# From -- ./inp_files/769.got.cif
#   From: 2010.05.17/outbox.cif.g08.bks.cpg/sg56_1_cif.got.tgz:769.got - 2010.06.03 13:42:01.
