data_PCOD9431727
_publ_section_title
;
Structure prediction by ZEFSAII (Michael W. Deem and Ramdas Pophale) SiO2 
 PCOD9431727
Probable space group: P C C N
;
_chemical_formula_sum "Si O2"
_cell_formula_units_Z 36
_cell_length_a 8.137294
_cell_length_b 13.025734
_cell_length_c 13.575708
_cell_angle_alpha 90.000000
_cell_angle_beta 90.000000
_cell_angle_gamma 90.000000
_cell_volume 1438.946677
_symmetry_space_group_name_H-M "P C C N"
_symmetry_group_IT_number 56
_symmetry_cell_setting 'orthorhombic'
loop_
_space_group_symop_operation_xyz
x,y,z
1/2-x,1/2-y,z
1/2+x,-y,1/2-z
-x,1/2+y,1/2-z
-x,-y,-z
1/2+x,1/2+y,-z
1/2-x,y,1/2+z
x,1/2-y,1/2+z
loop_
_atom_site_type_symbol
_atom_site_label
_atom_site_fract_x
_atom_site_fract_y
_atom_site_fract_z
Si Si1 0.296927 0.060691 0.669390
Si Si2 0.557690 0.779693 0.188430
Si Si3 0.884554 0.902934 0.514267
Si Si4 0.867445 0.470399 0.643910
Si Si5 0.750000 0.250000 0.689533
O O1 0.420367 0.126351 0.736199
O O2 0.190341 0.124383 0.591663
O O3 0.444107 0.001064 0.615952
O O4 0.180946 0.999798 0.742809
O O5 0.750000 0.750000 0.187258
O O6 0.525638 0.815379 0.076965
O O7 0.406277 0.721152 0.239400
O O8 0.740075 0.949104 0.581309
O O9 0.000000 0.000000 0.500000
O O10 0.799729 0.353083 0.629310
#
# Coordination Sequence:
#
# PCOD9431727 Si02
#       5
#     8   8   8   8   4
#     4  10  21  41  66  90 128 166 218 257 322 385
#     4  10  24  42  68  93 127 175 208 269 322 371
#     4  11  23  41  63  97 127 168 216 258 321 390
#     4  10  22  40  67  92 124 176 205 268 322 380
#     4  10  22  42  64  94 128 166 214 264 322 376
#
# _framework density 25.0183
#
# number of rings (size 3 to 8) (size 9 to 14) (size 15 to 20)
#    0.000    1.778    0.000    4.667    9.333    0.889 
#    8.000    1.111    0.000    0.000    0.000    0.000 
#    0.000    0.000    0.000    0.000    0.000    0.000 
#
# Total GULP energy -200662.330993 kJ/mol
# GULP energy per Si atom -5573.953639 kJ/mol
# Density = 2.496136 g / cm^3
# Si number density = 25.018300 Si / 1000 Ang^3
#
#
#
# Elastic Constant Matrix: (Units=GPa)
#
#
# Indices 1 2 3 4 5 6 
#
# 1 104.4466 -1.3614 11.6782 0.0000 0.0000 0.0000
# 2 -1.3614 45.4457 -4.6220 0.0000 0.0000 0.0000
# 3 11.6782 -4.6220 77.0763 0.0000 0.0000 0.0000
# 4 0.0000 0.0000 0.0000 14.6203 0.0000 0.0000
# 5 0.0000 0.0000 0.0000 0.0000 21.5878 0.0000
# 6 0.0000 0.0000 0.0000 0.0000 0.0000 36.3175
#
#
#
# Elastic Compliance Matrix: (Units=1/GPa)
#
#
# Indices 1 2 3 4 5 6 
#
# 1 0.009740 0.000143 -0.001467 0.000000 0.000000 0.000000
# 2 0.000143 0.022141 0.001306 0.000000 0.000000 0.000000
# 3 -0.001467 0.001306 0.013275 0.000000 0.000000 0.000000
# 4 0.000000 0.000000 0.000000 0.068398 0.000000 0.000000
# 5 0.000000 0.000000 0.000000 0.000000 0.046322 0.000000
# 6 0.000000 0.000000 0.000000 0.000000 0.000000 0.027535
#
#
# Mechanical properties :
#
#
# Convention : Reuss Voigt Hill
#
# Bulk Modulus (GPa) = 22.16348 26.48426 24.32387
# Shear Modulus (GPa) = 24.69277 29.25671 26.97474
#
# Velocity S-wave (km/s) = 3.14505 3.42338 3.28716
# Velocity P-wave (km/s) = 4.69750 5.12201 4.91434
#
# Compressibility (1/GPa) = 0.04511927
#
# Stress axis : x y z
#
# Youngs Moduli (GPa) = 102.66753 45.16429 75.33079
#
# Poissons Ratio (x) = -0.00644 0.11053
# Poissons Ratio (y) = -0.01464 -0.09839
# Poissons Ratio (z) = 0.15064 -0.05899
#
# Static dielectric constant tensor:
#      x y z
#    x 2.126900 0.000000 0.000000 
#    y 0.000000 1.831880 0.000000 
#    z 0.000000 0.000000 2.689390 
# 
# From -- ./inp_files/10301.got.cif
#   From: 2010.05.17/outbox.cif.g08.bks.cpg/sg56_6_cif.got.tgz:10301.got - 2010.06.03 13:42:01.
