data_PCOD9431595
_publ_section_title
;
Structure prediction by ZEFSAII (Michael W. Deem and Ramdas Pophale) SiO2 
 PCOD9431595
Probable space group: P C C N
;
_chemical_formula_sum "Si O2"
_cell_formula_units_Z 40
_cell_length_a 9.899762
_cell_length_b 12.426754
_cell_length_c 16.017828
_cell_angle_alpha 90.000000
_cell_angle_beta 90.000000
_cell_angle_gamma 90.000000
_cell_volume 1970.543747
_symmetry_space_group_name_H-M "P C C N"
_symmetry_group_IT_number 56
_symmetry_cell_setting 'orthorhombic'
loop_
_space_group_symop_operation_xyz
x,y,z
1/2-x,1/2-y,z
1/2+x,-y,1/2-z
-x,1/2+y,1/2-z
-x,-y,-z
1/2+x,1/2+y,-z
1/2-x,y,1/2+z
x,1/2-y,1/2+z
loop_
_atom_site_type_symbol
_atom_site_label
_atom_site_fract_x
_atom_site_fract_y
_atom_site_fract_z
Si Si1 0.884566 0.156171 0.660731
Si Si2 0.634180 0.477672 0.917837
Si Si3 0.450831 0.968084 0.093403
Si Si4 0.089539 0.739587 0.657880
Si Si5 0.099696 0.627250 0.404905
O O1 0.922885 0.222183 0.743283
O O2 0.906160 0.242617 0.585319
O O3 0.727717 0.119576 0.657628
O O4 0.972678 0.051256 0.652285
O O5 0.790530 0.484685 0.893907
O O6 0.554047 0.375090 0.881082
O O7 0.548936 0.580800 0.888556
O O8 0.639457 0.445688 0.015627
O O9 0.479003 0.844666 0.119490
O O10 0.500000 0.000000 0.000000
O O11 0.250000 0.750000 0.639522
#
# Coordination Sequence:
#
# PCOD9431595 Si02
#       5
#     8   8   8   8   8
#     4  11  22  38  65  86 128 163 205 263 326 382
#     4  10  22  38  64  89 120 159 217 258 307 385
#     4  11  22  39  66  93 123 165 214 263 319 380
#     4  10  22  38  62  90 121 166 209 254 323 386
#     4  10  21  40  61  88 119 168 205 254 322 379
#
# _framework density 20.298964999999999
#
# number of rings (size 3 to 8) (size 9 to 14) (size 15 to 20)
#    0.000    1.600    4.000    1.200    8.400    0.800 
#    0.000    1.000    4.400    0.000    0.000    0.000 
#    0.000    0.000    0.000    0.000    0.000    0.000 
#
# Total GULP energy -222735.882744 kJ/mol
# GULP energy per Si atom -5568.397069 kJ/mol
# Density = 2.025276 g / cm^3
# Si number density = 20.298965 Si / 1000 Ang^3
#
#
#
# Elastic Constant Matrix: (Units=GPa)
#
#
# Indices 1 2 3 4 5 6 
#
# 1 84.2750 52.1711 17.6493 0.0000 0.0000 0.0000
# 2 52.1711 118.5147 36.0249 0.0000 0.0000 0.0000
# 3 17.6493 36.0249 69.9518 0.0000 0.0000 0.0000
# 4 0.0000 0.0000 0.0000 31.6343 0.0000 0.0000
# 5 0.0000 0.0000 0.0000 0.0000 15.4276 0.0000
# 6 0.0000 0.0000 0.0000 0.0000 0.0000 37.4855
#
#
#
# Elastic Compliance Matrix: (Units=1/GPa)
#
#
# Indices 1 2 3 4 5 6 
#
# 1 0.016325 -0.007036 -0.000496 0.000000 0.000000 0.000000
# 2 -0.007036 0.013036 -0.004938 0.000000 0.000000 0.000000
# 3 -0.000496 -0.004938 0.016964 0.000000 0.000000 0.000000
# 4 0.000000 0.000000 0.000000 0.031611 0.000000 0.000000
# 5 0.000000 0.000000 0.000000 0.000000 0.064819 0.000000
# 6 0.000000 0.000000 0.000000 0.000000 0.000000 0.026677
#
#
# Mechanical properties :
#
#
# Convention : Reuss Voigt Hill
#
# Bulk Modulus (GPa) = 46.76017 53.82577 50.29297
# Shear Modulus (GPa) = 24.81380 28.03588 26.42484
#
# Velocity S-wave (km/s) = 3.50010 3.72041 3.61194
# Velocity P-wave (km/s) = 6.27854 6.71039 6.49805
#
# Compressibility (1/GPa) = 0.02138572
#
# Stress axis : x y z
#
# Youngs Moduli (GPa) = 61.25449 76.70978 58.94897
#
# Poissons Ratio (x) = 0.53972 0.02921
# Poissons Ratio (y) = 0.43098 0.29111
# Poissons Ratio (z) = 0.03035 0.37882
#
# Static dielectric constant tensor:
#      x y z
#    x 1.731720 0.000000 0.000000 
#    y 0.000000 1.755810 0.000000 
#    z 0.000000 0.000000 1.862390 
# 
# From -- ./inp_files/14424.got.cif
#   From: 2010.05.17/outbox.cif.g08.bks.cpg/sg56_8_cif.got.tgz:14424.got - 2010.06.03 13:42:01.
