data_PCOD9431269
_publ_section_title
;
Structure prediction by ZEFSAII (Michael W. Deem and Ramdas Pophale) SiO2 
 PCOD9431269
Probable space group: P C C N
;
_chemical_formula_sum "Si O2"
_cell_formula_units_Z 64
_cell_length_a 8.798613
_cell_length_b 20.989735
_cell_length_c 15.944756
_cell_angle_alpha 90.000000
_cell_angle_beta 90.000000
_cell_angle_gamma 90.000000
_cell_volume 2944.686391
_symmetry_space_group_name_H-M "P C C N"
_symmetry_group_IT_number 56
_symmetry_cell_setting 'orthorhombic'
loop_
_space_group_symop_operation_xyz
x,y,z
1/2-x,1/2-y,z
1/2+x,-y,1/2-z
-x,1/2+y,1/2-z
-x,-y,-z
1/2+x,1/2+y,-z
1/2-x,y,1/2+z
x,1/2-y,1/2+z
loop_
_atom_site_type_symbol
_atom_site_label
_atom_site_fract_x
_atom_site_fract_y
_atom_site_fract_z
Si Si1 0.021462 0.084097 0.283767
Si Si2 0.906977 0.017544 0.134320
Si Si3 0.264146 0.675536 0.732439
Si Si4 0.951131 0.929299 0.522309
Si Si5 0.122306 0.900137 0.379582
Si Si6 0.363612 0.119700 0.547896
Si Si7 0.485626 0.131363 0.372755
Si Si8 0.684674 0.875295 0.791666
O O1 0.029897 0.077736 0.380853
O O2 0.188513 0.079176 0.246405
O O3 0.924358 0.033979 0.232270
O O4 0.936481 0.151115 0.269457
O O5 0.736618 0.040489 0.114502
O O6 0.017416 0.067478 0.084736
O O7 0.955064 0.944950 0.121126
O O8 0.250000 0.750000 0.722776
O O9 0.203362 0.652754 0.823313
O O10 0.156441 0.643315 0.661231
O O11 0.781317 0.915030 0.492977
O O12 0.067265 0.883310 0.472263
O O13 0.000000 0.000000 0.500000
O O14 0.961838 0.909238 0.331861
O O15 0.442483 0.154663 0.467347
O O16 0.282259 0.154516 0.629197
O O17 0.381850 0.157553 0.293960
#
# Coordination Sequence:
#
# PCOD9431269 Si02
#       8
#     8   8   8   8   8   8   8   8
#     4  10  22  38  62  89 130 170 222 276 345 404
#     4  10  22  35  58  95 130 173 219 275 346 420
#     4  10  24  44  65  92 128 183 240 286 335 406
#     4  11  22  33  59  95 137 171 214 277 356 422
#     4   9  21  39  60  92 130 171 221 278 349 416
#     4  10  21  35  56  88 133 168 211 270 343 417
#     4  11  21  37  62  91 132 177 223 278 344 409
#     4   9  20  37  57  90 122 168 212 276 334 412
#
# _framework density 21.734062999999999
#
# number of rings (size 3 to 8) (size 9 to 14) (size 15 to 20)
#    0.000    2.000    1.250    1.125    8.750    3.000 
#    0.000    3.125    0.000    0.000    0.000    0.000 
#    0.000    0.000    0.000    0.000    0.000    0.000 
#
# Total GULP energy -356529.794437 kJ/mol
# GULP energy per Si atom -5570.778038 kJ/mol
# Density = 2.168460 g / cm^3
# Si number density = 21.734063 Si / 1000 Ang^3
#
#
#
# Elastic Constant Matrix: (Units=GPa)
#
#
# Indices 1 2 3 4 5 6 
#
# 1 114.1089 22.6063 36.7451 0.0000 0.0000 0.0000
# 2 22.6063 48.1996 1.2884 0.0000 0.0000 0.0000
# 3 36.7451 1.2884 167.5350 0.0000 0.0000 0.0000
# 4 0.0000 0.0000 0.0000 3.8858 0.0000 0.0000
# 5 0.0000 0.0000 0.0000 0.0000 36.3344 0.0000
# 6 0.0000 0.0000 0.0000 0.0000 0.0000 9.0730
#
#
#
# Elastic Compliance Matrix: (Units=1/GPa)
#
#
# Indices 1 2 3 4 5 6 
#
# 1 0.010448 -0.004840 -0.002254 0.000000 0.000000 0.000000
# 2 -0.004840 0.022994 0.000885 0.000000 0.000000 0.000000
# 3 -0.002254 0.000885 0.006457 0.000000 0.000000 0.000000
# 4 0.000000 0.000000 0.000000 0.257350 0.000000 0.000000
# 5 0.000000 0.000000 0.000000 0.000000 0.027522 0.000000
# 6 0.000000 0.000000 0.000000 0.000000 0.000000 0.110217
#
#
# Mechanical properties :
#
#
# Convention : Reuss Voigt Hill
#
# Bulk Modulus (GPa) = 36.39166 50.12478 43.25822
# Shear Modulus (GPa) = 10.95129 27.80555 19.37842
#
# Velocity S-wave (km/s) = 2.24715 3.58069 2.98923
# Velocity P-wave (km/s) = 4.84906 6.34097 5.64452
#
# Compressibility (1/GPa) = 0.02747882
#
# Stress axis : x y z
#
# Youngs Moduli (GPa) = 95.70838 43.49053 154.88147
#
# Poissons Ratio (x) = 0.21050 0.34917
# Poissons Ratio (y) = 0.46325 -0.13703
# Poissons Ratio (z) = 0.21577 -0.03848
#
# Static dielectric constant tensor:
#      x y z
#    x 1.831100 0.000000 0.000000 
#    y 0.000000 1.779860 0.000000 
#    z 0.000000 0.000000 1.908480 
# 
# From -- ./inp_files/11025.got.cif
#   From: 2010.05.17/outbox.cif.g08.bks.cpg/sg56_6_cif.got.tgz:11025.got - 2010.06.03 13:42:01.
