data_PCOD9431231
_publ_section_title
;
Structure prediction by ZEFSAII (Michael W. Deem and Ramdas Pophale) SiO2 
 PCOD9431231
Probable space group: P C C N
;
_chemical_formula_sum "Si O2"
_cell_formula_units_Z 40
_cell_length_a 13.030007
_cell_length_b 8.988724
_cell_length_c 14.452835
_cell_angle_alpha 90.000000
_cell_angle_beta 90.000000
_cell_angle_gamma 90.000000
_cell_volume 1692.761369
_symmetry_space_group_name_H-M "P C C N"
_symmetry_group_IT_number 56
_symmetry_cell_setting 'orthorhombic'
loop_
_space_group_symop_operation_xyz
x,y,z
1/2-x,1/2-y,z
1/2+x,-y,1/2-z
-x,1/2+y,1/2-z
-x,-y,-z
1/2+x,1/2+y,-z
1/2-x,y,1/2+z
x,1/2-y,1/2+z
loop_
_atom_site_type_symbol
_atom_site_label
_atom_site_fract_x
_atom_site_fract_y
_atom_site_fract_z
Si Si1 0.415400 0.086789 0.060721
Si Si2 0.778790 0.925602 0.829947
Si Si3 0.685938 0.387658 0.164371
Si Si4 0.972489 0.719741 0.277456
Si Si5 0.636396 0.814019 0.590669
O O1 0.399212 0.237924 0.003017
O O2 0.300126 0.026497 0.087117
O O3 0.461145 0.132776 0.159447
O O4 0.500000 0.000000 0.000000
O O5 0.750000 0.750000 0.818430
O O6 0.901850 0.909354 0.824870
O O7 0.750199 0.021273 0.740412
O O8 0.750000 0.250000 0.124965
O O9 0.589277 0.324872 0.219210
O O10 0.645448 0.508655 0.091693
O O11 0.932126 0.756979 0.175746
O O12 0.750000 0.750000 0.605999
#
# Coordination Sequence:
#
# PCOD9431231 Si02
#       5
#     8   8   8   8   8
#     4  11  24  43  75 105 138 194 253 299 364 447
#     4  10  20  47  68 102 136 191 240 290 363 440
#     4  12  26  40  73 110 143 185 245 307 366 446
#     4  11  24  45  70 103 144 184 247 294 378 431
#     4  12  23  43  77  97 141 196 236 303 369 444
#
# _framework density 23.630030000000001
#
# number of rings (size 3 to 8) (size 9 to 14) (size 15 to 20)
#    0.000    0.800    6.000    3.000    5.600    0.800 
#    0.000    0.000    0.000    0.000    0.000    0.000 
#    0.000    0.000    0.000    0.000    0.000    0.000 
#
# Total GULP energy -223442.947159 kJ/mol
# GULP energy per Si atom -5586.073679 kJ/mol
# Density = 2.357625 g / cm^3
# Si number density = 23.630030 Si / 1000 Ang^3
#
#
#
# Elastic Constant Matrix: (Units=GPa)
#
#
# Indices 1 2 3 4 5 6 
#
# 1 80.0437 25.6286 -11.9125 0.0000 0.0000 0.0000
# 2 25.6286 84.8552 8.3053 0.0000 0.0000 0.0000
# 3 -11.9125 8.3053 90.7399 0.0000 0.0000 0.0000
# 4 0.0000 0.0000 0.0000 21.4270 0.0000 0.0000
# 5 0.0000 0.0000 0.0000 0.0000 27.3048 0.0000
# 6 0.0000 0.0000 0.0000 0.0000 0.0000 34.2791
#
#
#
# Elastic Compliance Matrix: (Units=1/GPa)
#
#
# Indices 1 2 3 4 5 6 
#
# 1 0.014288 -0.004540 0.002291 0.000000 0.000000 0.000000
# 2 -0.004540 0.013334 -0.001816 0.000000 0.000000 0.000000
# 3 0.002291 -0.001816 0.011488 0.000000 0.000000 0.000000
# 4 0.000000 0.000000 0.000000 0.046670 0.000000 0.000000
# 5 0.000000 0.000000 0.000000 0.000000 0.036624 0.000000
# 6 0.000000 0.000000 0.000000 0.000000 0.000000 0.029172
#
#
# Mechanical properties :
#
#
# Convention : Reuss Voigt Hill
#
# Bulk Modulus (GPa) = 32.27944 33.29795 32.78870
# Shear Modulus (GPa) = 29.40649 32.17669 30.79159
#
# Velocity S-wave (km/s) = 3.53151 3.69411 3.61372
# Velocity P-wave (km/s) = 5.50625 5.68482 5.59625
#
# Compressibility (1/GPa) = 0.03097947
#
# Stress axis : x y z
#
# Youngs Moduli (GPa) = 69.99055 74.99842 87.05079
#
# Poissons Ratio (x) = 0.34046 -0.19945
# Poissons Ratio (y) = 0.31772 0.15812
# Poissons Ratio (z) = -0.16036 0.13622
#
# Static dielectric constant tensor:
#      x y z
#    x 1.988810 0.000000 0.000000 
#    y 0.000000 1.941450 0.000000 
#    z 0.000000 0.000000 1.885670 
# 
# From -- ./inp_files/12089.got.cif
#   From: 2010.05.17/outbox.cif.g08.bks.cpg/sg56_7_cif.got.tgz:12089.got - 2010.06.03 13:42:01.
