data_PCOD9431218
_publ_section_title
;
Structure prediction by ZEFSAII (Michael W. Deem and Ramdas Pophale) SiO2 
 PCOD9431218
Probable space group: P C C N
;
_chemical_formula_sum "Si O2"
_cell_formula_units_Z 60
_cell_length_a 8.063261
_cell_length_b 25.453596
_cell_length_c 12.074967
_cell_angle_alpha 90.000000
_cell_angle_beta 90.000000
_cell_angle_gamma 90.000000
_cell_volume 2478.254006
_symmetry_space_group_name_H-M "P C C N"
_symmetry_group_IT_number 56
_symmetry_cell_setting 'orthorhombic'
loop_
_space_group_symop_operation_xyz
x,y,z
1/2-x,1/2-y,z
1/2+x,-y,1/2-z
-x,1/2+y,1/2-z
-x,-y,-z
1/2+x,1/2+y,-z
1/2-x,y,1/2+z
x,1/2-y,1/2+z
loop_
_atom_site_type_symbol
_atom_site_label
_atom_site_fract_x
_atom_site_fract_y
_atom_site_fract_z
Si Si1 0.250000 0.250000 0.998008
Si Si2 0.468891 0.158469 0.896520
Si Si3 0.202870 0.695030 0.712654
Si Si4 0.022543 0.672307 0.497765
Si Si5 0.172904 0.973885 0.779581
Si Si6 0.160039 0.621350 0.890126
Si Si7 0.199096 0.081922 0.900991
Si Si8 0.635602 0.982191 0.405941
O O1 0.365712 0.210445 0.928121
O O2 0.380410 0.290519 0.055161
O O3 0.542367 0.131652 0.007199
O O4 0.625029 0.167895 0.819749
O O5 0.336948 0.118515 0.849360
O O6 0.250000 0.750000 0.768319
O O7 0.097012 0.655754 0.787059
O O8 0.109970 0.704637 0.596831
O O9 0.944716 0.621222 0.558137
O O10 0.166319 0.650155 0.420777
O O11 0.294956 0.937489 0.852691
O O12 0.985697 0.957748 0.812196
O O13 0.165080 0.034965 0.816390
O O14 0.248923 0.975177 0.655983
O O15 0.248379 0.055147 0.018988
O O16 0.500000 0.000000 0.500000
#
# Coordination Sequence:
#
# PCOD9431218 Si02
#       8
#     4   8   8   8   8   8   8   8
#     4  10  20  44  70  88 130 176 212 284 348 398
#     4  10  24  43  68  96 129 173 221 283 345 399
#     4  11  24  41  64  93 130 175 222 275 342 414
#     4  10  22  44  67  94 135 172 225 285 344 405
#     4  11  25  43  69  97 141 183 231 275 344 409
#     4  11  26  40  68 102 132 179 226 275 345 416
#     4  10  23  43  69  98 133 174 230 281 339 405
#     4  10  24  44  65  96 137 181 219 281 333 399
#
# _framework density 24.210592999999999
#
# number of rings (size 3 to 8) (size 9 to 14) (size 15 to 20)
#    0.000    1.600    2.667    0.000    9.333    1.600 
#    0.000    5.333    0.000    0.000    0.000    0.000 
#    0.000    0.000    0.000    0.000    0.000    0.000 
#
# Total GULP energy -334869.496705 kJ/mol
# GULP energy per Si atom -5581.158278 kJ/mol
# Density = 2.415549 g / cm^3
# Si number density = 24.210593 Si / 1000 Ang^3
#
#
#
# Elastic Constant Matrix: (Units=GPa)
#
#
# Indices 1 2 3 4 5 6 
#
# 1 52.9981 9.9005 17.9793 0.0000 0.0000 0.0000
# 2 9.9005 102.7101 3.3794 0.0000 0.0000 0.0000
# 3 17.9793 3.3794 47.8899 0.0000 0.0000 0.0000
# 4 0.0000 0.0000 0.0000 19.5039 0.0000 0.0000
# 5 0.0000 0.0000 0.0000 0.0000 21.0597 0.0000
# 6 0.0000 0.0000 0.0000 0.0000 0.0000 41.5190
#
#
#
# Elastic Compliance Matrix: (Units=1/GPa)
#
#
# Indices 1 2 3 4 5 6 
#
# 1 0.021968 -0.001850 -0.008117 0.000000 0.000000 0.000000
# 2 -0.001850 0.009915 -0.000005 0.000000 0.000000 0.000000
# 3 -0.008117 -0.000005 0.023929 0.000000 0.000000 0.000000
# 4 0.000000 0.000000 0.000000 0.051272 0.000000 0.000000
# 5 0.000000 0.000000 0.000000 0.000000 0.047484 0.000000
# 6 0.000000 0.000000 0.000000 0.000000 0.000000 0.024085
#
#
# Mechanical properties :
#
#
# Convention : Reuss Voigt Hill
#
# Bulk Modulus (GPa) = 27.88080 29.56852 28.72466
# Shear Modulus (GPa) = 23.74703 27.90577 25.82640
#
# Velocity S-wave (km/s) = 3.13525 3.39872 3.26964
# Velocity P-wave (km/s) = 4.96461 5.25750 5.11315
#
# Compressibility (1/GPa) = 0.03586698
#
# Stress axis : x y z
#
# Youngs Moduli (GPa) = 45.52109 100.86057 41.79059
#
# Poissons Ratio (x) = 0.18664 0.33920
# Poissons Ratio (y) = 0.08424 0.00021
# Poissons Ratio (z) = 0.36948 0.00050
#
# Static dielectric constant tensor:
#      x y z
#    x 1.966050 0.000000 0.000000 
#    y 0.000000 1.989080 0.000000 
#    z 0.000000 0.000000 1.955740 
# 
# From -- ./inp_files/6541.got.cif
#   From: 2010.05.17/outbox.cif.g08.bks.cpg/sg56_4_cif.got.tgz:6541.got - 2010.06.03 13:42:01.
