data_PCOD9431081
_publ_section_title
;
Structure prediction by ZEFSAII (Michael W. Deem and Ramdas Pophale) SiO2 
 PCOD9431081
Probable space group: P C C N
;
_chemical_formula_sum "Si O2"
_cell_formula_units_Z 56
_cell_length_a 5.705673
_cell_length_b 15.565203
_cell_length_c 29.431298
_cell_angle_alpha 90.000000
_cell_angle_beta 90.000000
_cell_angle_gamma 90.000000
_cell_volume 2613.792354
_symmetry_space_group_name_H-M "P C C N"
_symmetry_group_IT_number 56
_symmetry_cell_setting 'orthorhombic'
loop_
_space_group_symop_operation_xyz
x,y,z
1/2-x,1/2-y,z
1/2+x,-y,1/2-z
-x,1/2+y,1/2-z
-x,-y,-z
1/2+x,1/2+y,-z
1/2-x,y,1/2+z
x,1/2-y,1/2+z
loop_
_atom_site_type_symbol
_atom_site_label
_atom_site_fract_x
_atom_site_fract_y
_atom_site_fract_z
Si Si1 0.750000 0.750000 0.611554
Si Si2 0.802344 0.471014 0.640619
Si Si3 0.865226 0.157922 0.066507
Si Si4 0.750000 0.750000 0.974664
Si Si5 0.078076 0.596980 0.013236
Si Si6 0.467880 0.883245 0.171651
Si Si7 0.391070 0.615099 0.099178
Si Si8 0.497850 0.954892 0.261447
O O1 0.871328 0.817614 0.644801
O O2 0.550158 0.803814 0.585758
O O3 0.764473 0.388705 0.610091
O O4 0.575425 0.523311 0.657899
O O5 0.945239 0.532876 0.606083
O O6 0.952078 0.446210 0.685084
O O7 0.750000 0.250000 0.064289
O O8 0.134021 0.181025 0.060022
O O9 0.794816 0.110428 0.020554
O O10 0.591052 0.819227 0.003821
O O11 0.179390 0.600813 0.064291
O O12 0.000000 0.500000 0.000000
O O13 0.214405 0.870786 0.149584
O O14 0.482431 0.876390 0.225771
O O15 0.261823 0.007960 0.245631
#
# Coordination Sequence:
#
# PCOD9431081 Si02
#       8
#     4   8   8   4   8   8   8   8
#     4  10  24  39  57  92 136 172 211 270 338 405
#     4  10  21  39  66  92 125 170 221 276 330 402
#     4  10  23  43  61  90 127 167 217 274 329 397
#     4  10  24  43  61  90 134 168 217 280 332 395
#     4  11  24  41  67  93 126 175 223 275 337 408
#     4  10  21  38  63  92 127 171 218 272 328 406
#     4  11  22  39  62  94 130 170 220 270 337 410
#     4  10  20  40  67  98 129 172 225 281 339 401
#
# _framework density 21.424807999999999
#
# number of rings (size 3 to 8) (size 9 to 14) (size 15 to 20)
#    0.000    1.714    1.429    2.143    0.000   10.286 
#    0.000    2.143    0.000    0.000    0.000    0.000 
#    0.000    0.000    0.000    0.000    0.000    0.000 
#
# Total GULP energy -311986.262283 kJ/mol
# GULP energy per Si atom -5571.183255 kJ/mol
# Density = 2.137604 g / cm^3
# Si number density = 21.424808 Si / 1000 Ang^3
#
#
#
# Elastic Constant Matrix: (Units=GPa)
#
#
# Indices 1 2 3 4 5 6 
#
# 1 56.0230 11.4689 -1.8854 0.0000 0.0000 0.0000
# 2 11.4689 82.6848 25.7467 0.0000 0.0000 0.0000
# 3 -1.8854 25.7467 86.7531 0.0000 0.0000 0.0000
# 4 0.0000 0.0000 0.0000 21.5097 0.0000 0.0000
# 5 0.0000 0.0000 0.0000 0.0000 23.6954 0.0000
# 6 0.0000 0.0000 0.0000 0.0000 0.0000 21.4012
#
#
#
# Elastic Compliance Matrix: (Units=1/GPa)
#
#
# Indices 1 2 3 4 5 6 
#
# 1 0.018500 -0.002965 0.001282 0.000000 0.000000 0.000000
# 2 -0.002965 0.013801 -0.004160 0.000000 0.000000 0.000000
# 3 0.001282 -0.004160 0.012790 0.000000 0.000000 0.000000
# 4 0.000000 0.000000 0.000000 0.046491 0.000000 0.000000
# 5 0.000000 0.000000 0.000000 0.000000 0.042202 0.000000
# 6 0.000000 0.000000 0.000000 0.000000 0.000000 0.046726
#
#
# Mechanical properties :
#
#
# Convention : Reuss Voigt Hill
#
# Bulk Modulus (GPa) = 29.93702 32.90238 31.41970
# Shear Modulus (GPa) = 24.59044 25.99664 25.29354
#
# Velocity S-wave (km/s) = 3.39153 3.48715 3.43967
# Velocity P-wave (km/s) = 5.41664 5.62176 5.52015
#
# Compressibility (1/GPa) = 0.03340345
#
# Stress axis : x y z
#
# Youngs Moduli (GPa) = 54.05398 72.45923 78.18901
#
# Poissons Ratio (x) = 0.21486 -0.10025
# Poissons Ratio (y) = 0.16029 0.32529
# Poissons Ratio (z) = -0.06930 0.30145
#
# Static dielectric constant tensor:
#      x y z
#    x 1.990360 0.000000 0.000000 
#    y 0.000000 1.783960 0.000000 
#    z 0.000000 0.000000 1.784920 
# 
# From -- ./inp_files/22905.got.cif
#   From: 2010.05.17/outbox.cif.g08.bks.cpg/sg56_12_cif.got.tgz:22905.got - 2010.06.03 13:42:01.
