data_PCOD9431213
_publ_section_title
;
Structure prediction by ZEFSAII (Michael W. Deem and Ramdas Pophale) SiO2 
 PCOD9431213
Probable space group: P C C N
;
_chemical_formula_sum "Si O2"
_cell_formula_units_Z 56
_cell_length_a 8.524023
_cell_length_b 14.952254
_cell_length_c 19.853255
_cell_angle_alpha 90.000000
_cell_angle_beta 90.000000
_cell_angle_gamma 90.000000
_cell_volume 2530.363997
_symmetry_space_group_name_H-M "P C C N"
_symmetry_group_IT_number 56
_symmetry_cell_setting 'orthorhombic'
loop_
_space_group_symop_operation_xyz
x,y,z
1/2-x,1/2-y,z
1/2+x,-y,1/2-z
-x,1/2+y,1/2-z
-x,-y,-z
1/2+x,1/2+y,-z
1/2-x,y,1/2+z
x,1/2-y,1/2+z
loop_
_atom_site_type_symbol
_atom_site_label
_atom_site_fract_x
_atom_site_fract_y
_atom_site_fract_z
Si Si1 0.152668 0.517684 0.955914
Si Si2 0.352515 0.163140 0.474750
Si Si3 0.679331 0.106800 0.431083
Si Si4 0.239129 0.969739 0.819831
Si Si5 0.811458 0.651248 0.239350
Si Si6 0.322281 0.843883 0.204695
Si Si7 0.409545 0.408596 0.118503
O O1 0.257001 0.427341 0.957270
O O2 0.128384 0.539127 0.877351
O O3 0.243965 0.595901 0.995565
O O4 0.000000 0.500000 0.000000
O O5 0.250000 0.250000 0.460347
O O6 0.516713 0.159358 0.435780
O O7 0.394591 0.155721 0.554219
O O8 0.789868 0.145483 0.374051
O O9 0.645316 0.005131 0.408030
O O10 0.265043 0.918583 0.749876
O O11 0.085111 0.926709 0.854027
O O12 0.220876 0.073543 0.800542
O O13 0.750000 0.750000 0.226654
O O14 0.810346 0.627423 0.318649
O O15 0.993451 0.647772 0.217643
O O16 0.250000 0.750000 0.227346
#
# Coordination Sequence:
#
# PCOD9431213 Si02
#       7
#     8   8   8   8   8   8   8
#     4  11  23  42  67 102 137 185 236 286 364 428
#     4  11  23  42  73 102 133 185 240 297 360 428
#     4  11  21  45  70  94 139 185 234 301 350 425
#     4  11  22  44  70  99 140 188 229 292 360 429
#     4  11  25  41  72 105 140 185 239 290 360 439
#     4  11  27  45  65 102 144 185 238 296 359 425
#     4  10  20  44  68  98 139 181 231 285 362 418
#
# _framework density 22.131204
#
# number of rings (size 3 to 8) (size 9 to 14) (size 15 to 20)
#    0.000    1.143    4.286    2.143    2.000    2.857 
#   10.286    0.714    0.000    0.000    0.000    0.000 
#    0.000    0.000    0.000    0.000    0.000    0.000 
#
# Total GULP energy -313261.324158 kJ/mol
# GULP energy per Si atom -5593.952217 kJ/mol
# Density = 2.208083 g / cm^3
# Si number density = 22.131204 Si / 1000 Ang^3
#
#
#
# Elastic Constant Matrix: (Units=GPa)
#
#
# Indices 1 2 3 4 5 6 
#
# 1 60.4391 17.6019 19.4800 0.0000 0.0000 0.0000
# 2 17.6019 102.3637 37.5296 0.0000 0.0000 0.0000
# 3 19.4800 37.5296 127.3934 0.0000 0.0000 0.0000
# 4 0.0000 0.0000 0.0000 12.5494 0.0000 0.0000
# 5 0.0000 0.0000 0.0000 0.0000 30.1840 0.0000
# 6 0.0000 0.0000 0.0000 0.0000 0.0000 29.0540
#
#
#
# Elastic Compliance Matrix: (Units=1/GPa)
#
#
# Indices 1 2 3 4 5 6 
#
# 1 0.017883 -0.002323 -0.002050 0.000000 0.000000 0.000000
# 2 -0.002323 0.011254 -0.002960 0.000000 0.000000 0.000000
# 3 -0.002050 -0.002960 0.009035 0.000000 0.000000 0.000000
# 4 0.000000 0.000000 0.000000 0.079685 0.000000 0.000000
# 5 0.000000 0.000000 0.000000 0.000000 0.033130 0.000000
# 6 0.000000 0.000000 0.000000 0.000000 0.000000 0.034419
#
#
# Mechanical properties :
#
#
# Convention : Reuss Voigt Hill
#
# Bulk Modulus (GPa) = 42.54426 48.82436 45.68431
# Shear Modulus (GPa) = 24.04908 28.72980 26.38944
#
# Velocity S-wave (km/s) = 3.30003 3.60690 3.45687
# Velocity P-wave (km/s) = 5.81254 6.28137 6.05150
#
# Compressibility (1/GPa) = 0.02350494
#
# Stress axis : x y z
#
# Youngs Moduli (GPa) = 55.91904 88.85841 110.67830
#
# Poissons Ratio (x) = 0.20646 0.22690
# Poissons Ratio (y) = 0.12993 0.32761
# Poissons Ratio (z) = 0.11464 0.26303
#
# Static dielectric constant tensor:
#      x y z
#    x 1.811850 0.000000 0.000000 
#    y 0.000000 1.785910 0.000000 
#    z 0.000000 0.000000 1.844090 
# 
# From -- ./inp_files/18224.got.cif
#   From: 2010.05.17/outbox.cif.g08.bks.cpg/sg56_10_cif.got.tgz:18224.got - 2010.06.03 13:42:01.
