data_PCOD9431728
_publ_section_title
;
Structure prediction by ZEFSAII (Michael W. Deem and Ramdas Pophale) SiO2 
 PCOD9431728
Probable space group: P C C N
;
_chemical_formula_sum "Si O2"
_cell_formula_units_Z 64
_cell_length_a 16.218963
_cell_length_b 8.798532
_cell_length_c 21.283757
_cell_angle_alpha 90.000000
_cell_angle_beta 90.000000
_cell_angle_gamma 90.000000
_cell_volume 3037.257358
_symmetry_space_group_name_H-M "P C C N"
_symmetry_group_IT_number 56
_symmetry_cell_setting 'orthorhombic'
loop_
_space_group_symop_operation_xyz
x,y,z
1/2-x,1/2-y,z
1/2+x,-y,1/2-z
-x,1/2+y,1/2-z
-x,-y,-z
1/2+x,1/2+y,-z
1/2-x,y,1/2+z
x,1/2-y,1/2+z
loop_
_atom_site_type_symbol
_atom_site_label
_atom_site_fract_x
_atom_site_fract_y
_atom_site_fract_z
Si Si1 0.931659 0.264346 0.829978
Si Si2 0.665914 0.850352 0.019650
Si Si3 0.444386 0.530896 0.059642
Si Si4 0.262550 0.924778 0.547476
Si Si5 0.064779 0.284537 0.107992
Si Si6 0.310368 0.604385 0.265044
Si Si7 0.804680 0.955643 0.329136
Si Si8 0.072241 0.039929 0.362206
O O1 0.946172 0.178214 0.895752
O O2 0.886975 0.155032 0.779944
O O3 0.864729 0.398553 0.835920
O O4 0.017866 0.349679 0.817111
O O5 0.750000 0.750000 0.024659
O O6 0.609853 0.861628 0.080906
O O7 0.610807 0.806405 0.959235
O O8 0.698002 0.019942 0.003692
O O9 0.354600 0.541963 0.028235
O O10 0.460606 0.389875 0.106468
O O11 0.500000 0.500000 0.000000
O O12 0.250000 0.750000 0.563816
O O13 0.250875 0.029093 0.608956
O O14 0.133209 0.316837 0.161712
O O15 0.991238 0.407270 0.114691
O O16 0.250000 0.750000 0.274752
O O17 0.252868 0.480370 0.230256
O O18 0.352347 0.538433 0.326551
#
# Coordination Sequence:
#
# PCOD9431728 Si02
#       8
#     8   8   8   8   8   8   8   8
#     4  10  21  41  66  91 126 167 213 258 320 380
#     4  11  23  41  62  92 133 166 213 263 319 386
#     4  12  23  36  62 100 133 166 212 265 311 380
#     4  11  20  36  64  92 124 167 214 256 311 374
#     4  10  23  41  64  97 126 173 216 259 317 397
#     4  10  21  44  70  94 121 166 225 274 317 385
#     4   9  18  40  71  89 116 165 223 268 303 373
#     4  11  25  43  66  94 134 170 206 272 338 381
#
# _framework density 21.071642000000001
#
# number of rings (size 3 to 8) (size 9 to 14) (size 15 to 20)
#    0.000    1.500    3.750    1.500    1.750    1.500 
#    0.000    5.000    0.000    1.500    0.000    0.000 
#    0.000    0.000    0.000    0.000    0.000    0.000 
#
# Total GULP energy -357036.561155 kJ/mol
# GULP energy per Si atom -5578.696268 kJ/mol
# Density = 2.102368 g / cm^3
# Si number density = 21.071642 Si / 1000 Ang^3
#
#
#
# Elastic Constant Matrix: (Units=GPa)
#
#
# Indices 1 2 3 4 5 6 
#
# 1 106.2859 14.8997 41.1893 0.0000 0.0000 0.0000
# 2 14.8997 54.7986 12.7214 0.0000 0.0000 0.0000
# 3 41.1893 12.7214 61.3472 0.0000 0.0000 0.0000
# 4 0.0000 0.0000 0.0000 18.5780 0.0000 0.0000
# 5 0.0000 0.0000 0.0000 0.0000 31.3467 0.0000
# 6 0.0000 0.0000 0.0000 0.0000 0.0000 27.2932
#
#
#
# Elastic Compliance Matrix: (Units=1/GPa)
#
#
# Indices 1 2 3 4 5 6 
#
# 1 0.012844 -0.001566 -0.008299 0.000000 0.000000 0.000000
# 2 -0.001566 0.019362 -0.002964 0.000000 0.000000 0.000000
# 3 -0.008299 -0.002964 0.022487 0.000000 0.000000 0.000000
# 4 0.000000 0.000000 0.000000 0.053827 0.000000 0.000000
# 5 0.000000 0.000000 0.000000 0.000000 0.031901 0.000000
# 6 0.000000 0.000000 0.000000 0.000000 0.000000 0.036639
#
#
# Mechanical properties :
#
#
# Convention : Reuss Voigt Hill
#
# Bulk Modulus (GPa) = 34.43924 40.00584 37.22254
# Shear Modulus (GPa) = 23.54069 25.68498 24.61284
#
# Velocity S-wave (km/s) = 3.34604 3.49511 3.42139
# Velocity P-wave (km/s) = 5.59530 5.94261 5.77157
#
# Compressibility (1/GPa) = 0.02903664
#
# Stress axis : x y z
#
# Youngs Moduli (GPa) = 77.85571 51.64640 44.46932
#
# Poissons Ratio (x) = 0.08086 0.36906
# Poissons Ratio (y) = 0.12190 0.13180
# Poissons Ratio (z) = 0.64613 0.15307
#
# Static dielectric constant tensor:
#      x y z
#    x 1.790790 0.000000 0.000000 
#    y 0.000000 1.868840 0.000000 
#    z 0.000000 0.000000 1.750290 
# 
# From -- ./inp_files/21158.got.cif
#   From: 2010.05.17/outbox.cif.g08.bks.cpg/sg56_11_cif.got.tgz:21158.got - 2010.06.03 13:42:01.
