data_PCOD9431851
_publ_section_title
;
Structure prediction by ZEFSAII (Michael W. Deem and Ramdas Pophale) SiO2 
 PCOD9431851
Probable space group: P C C N
;
_chemical_formula_sum "Si O2"
_cell_formula_units_Z 48
_cell_length_a 8.224650
_cell_length_b 24.943115
_cell_length_c 9.312353
_cell_angle_alpha 90.000000
_cell_angle_beta 90.000000
_cell_angle_gamma 90.000000
_cell_volume 1910.414232
_symmetry_space_group_name_H-M "P C C N"
_symmetry_group_IT_number 56
_symmetry_cell_setting 'orthorhombic'
loop_
_space_group_symop_operation_xyz
x,y,z
1/2-x,1/2-y,z
1/2+x,-y,1/2-z
-x,1/2+y,1/2-z
-x,-y,-z
1/2+x,1/2+y,-z
1/2-x,y,1/2+z
x,1/2-y,1/2+z
loop_
_atom_site_type_symbol
_atom_site_label
_atom_site_fract_x
_atom_site_fract_y
_atom_site_fract_z
Si Si1 0.039588 0.848334 0.197022
Si Si2 0.913079 0.631838 0.271739
Si Si3 0.166553 0.046454 0.844320
Si Si4 0.257102 0.190289 0.964633
Si Si5 0.830388 0.016829 0.430648
Si Si6 0.755732 0.367613 0.552529
O O1 0.110803 0.843636 0.354178
O O2 0.979106 0.910621 0.173944
O O3 0.885627 0.813750 0.154879
O O4 0.174583 0.834299 0.079561
O O5 0.825430 0.580352 0.202829
O O6 0.799689 0.650824 0.407054
O O7 0.907704 0.672372 0.135132
O O8 0.090600 0.624905 0.339359
O O9 0.157215 0.996872 0.735944
O O10 0.193531 0.022254 0.000771
O O11 0.250000 0.250000 0.022565
O O12 0.797189 0.076483 0.482029
O O13 0.000000 0.000000 0.500000
#
# Coordination Sequence:
#
# PCOD9431851 Si02
#       6
#     8   8   8   8   8   8
#     4  10  23  41  62  95 128 171 207 268 325 384
#     4  10  23  40  67  93 130 170 207 276 321 391
#     4  11  24  42  58  92 129 177 233 254 321 371
#     4  10  21  43  70  98 122 161 218 262 332 406
#     4  12  25  38  62  91 130 180 223 273 299 381
#     4  11  23  39  60  93 132 169 214 259 330 362
#
# _framework density 25.125440000000001
#
# number of rings (size 3 to 8) (size 9 to 14) (size 15 to 20)
#    0.000    1.333    1.667    4.500    4.667    4.000 
#    0.000    0.833    0.000    4.000    0.000    0.000 
#    0.000    0.000    0.000    0.000    0.000    0.000 
#
# Total GULP energy -268795.432604 kJ/mol
# GULP energy per Si atom -5599.904846 kJ/mol
# Density = 2.506825 g / cm^3
# Si number density = 25.125440 Si / 1000 Ang^3
#
#
#
# Elastic Constant Matrix: (Units=GPa)
#
#
# Indices 1 2 3 4 5 6 
#
# 1 66.9910 -14.0076 19.4135 0.0000 0.0000 0.0000
# 2 -14.0076 43.3997 5.1478 0.0000 0.0000 0.0000
# 3 19.4135 5.1478 116.2793 0.0000 0.0000 0.0000
# 4 0.0000 0.0000 0.0000 27.9800 0.0000 0.0000
# 5 0.0000 0.0000 0.0000 0.0000 57.0976 0.0000
# 6 0.0000 0.0000 0.0000 0.0000 0.0000 10.8752
#
#
#
# Elastic Compliance Matrix: (Units=1/GPa)
#
#
# Indices 1 2 3 4 5 6 
#
# 1 0.017056 0.005874 -0.003108 0.000000 0.000000 0.000000
# 2 0.005874 0.025186 -0.002096 0.000000 0.000000 0.000000
# 3 -0.003108 -0.002096 0.009212 0.000000 0.000000 0.000000
# 4 0.000000 0.000000 0.000000 0.035740 0.000000 0.000000
# 5 0.000000 0.000000 0.000000 0.000000 0.017514 0.000000
# 6 0.000000 0.000000 0.000000 0.000000 0.000000 0.091953
#
#
# Mechanical properties :
#
#
# Convention : Reuss Voigt Hill
#
# Bulk Modulus (GPa) = 18.94147 27.53084 23.23615
# Shear Modulus (GPa) = 23.48327 33.59829 28.54078
#
# Velocity S-wave (km/s) = 3.06051 3.66077 3.37401
# Velocity P-wave (km/s) = 4.47706 5.37117 4.94437
#
# Compressibility (1/GPa) = 0.05279421
#
# Stress axis : x y z
#
# Youngs Moduli (GPa) = 58.63006 39.70472 108.55873
#
# Poissons Ratio (x) = -0.23321 0.33736
# Poissons Ratio (y) = -0.34437 0.22750
# Poissons Ratio (z) = 0.18220 0.08321
#
# Static dielectric constant tensor:
#      x y z
#    x 2.043650 0.000000 0.000000 
#    y 0.000000 2.002390 0.000000 
#    z 0.000000 0.000000 1.975860 
# 
# From -- ./inp_files/2230.got.cif
#   From: 2010.05.17/outbox.cif.g08.bks.cpg/sg56_2_cif.got.tgz:2230.got - 2010.06.03 13:42:01.
