data_PCOD9431593
_publ_section_title
;
Structure prediction by ZEFSAII (Michael W. Deem and Ramdas Pophale) SiO2 
 PCOD9431593
Probable space group: P C C N
;
_chemical_formula_sum "Si O2"
_cell_formula_units_Z 60
_cell_length_a 19.415127
_cell_length_b 19.336457
_cell_length_c 7.920993
_cell_angle_alpha 90.000000
_cell_angle_beta 90.000000
_cell_angle_gamma 90.000000
_cell_volume 2973.697357
_symmetry_space_group_name_H-M "P C C N"
_symmetry_group_IT_number 56
_symmetry_cell_setting 'orthorhombic'
loop_
_space_group_symop_operation_xyz
x,y,z
1/2-x,1/2-y,z
1/2+x,-y,1/2-z
-x,1/2+y,1/2-z
-x,-y,-z
1/2+x,1/2+y,-z
1/2-x,y,1/2+z
x,1/2-y,1/2+z
loop_
_atom_site_type_symbol
_atom_site_label
_atom_site_fract_x
_atom_site_fract_y
_atom_site_fract_z
Si Si1 0.750000 0.750000 0.375360
Si Si2 0.697584 0.975740 0.806554
Si Si3 0.652357 0.962750 0.187604
Si Si4 0.542936 0.429974 0.807138
Si Si5 0.932839 0.045956 0.203691
Si Si6 0.663747 0.838496 0.623690
Si Si7 0.043131 0.348608 0.829845
Si Si8 0.530977 0.804180 0.787382
O O1 0.708850 0.809284 0.472923
O O2 0.807504 0.788753 0.270375
O O3 0.646582 0.038268 0.756504
O O4 0.779810 0.981196 0.794233
O O5 0.680142 0.915948 0.672773
O O6 0.675471 0.954574 0.994328
O O7 0.609009 0.893461 0.233999
O O8 0.599890 0.026055 0.208567
O O9 0.471624 0.471962 0.772173
O O10 0.535648 0.351116 0.749130
O O11 0.558815 0.435943 0.006158
O O12 0.977703 0.100800 0.309176
O O13 0.582948 0.827226 0.637500
O O14 0.027808 0.278117 0.729662
O O15 0.054821 0.327471 0.025537
#
# Coordination Sequence:
#
# PCOD9431593 Si02
#       8
#     4   8   8   8   8   8   8   8
#     4  10  24  34  48  74 120 160 206 238 298 348
#     4  12  22  39  59  87 119 159 205 248 300 356
#     4  11  24  40  60  89 122 163 203 249 301 356
#     4  10  21  40  61  85 115 156 203 252 301 357
#     4  10  21  40  61  85 115 156 203 252 301 357
#     4  11  22  36  52  78 115 165 197 249 287 363
#     4  11  24  40  60  89 122 163 203 249 301 356
#     4  12  22  39  59  87 119 159 205 248 300 356
#
# _framework density 20.176902999999999
#
# number of rings (size 3 to 8) (size 9 to 14) (size 15 to 20)
#    0.000    1.067    2.667    4.000    3.733    2.133 
#    2.400    0.000    0.000    0.800    0.000    5.600 
#    0.000    0.000    0.000    0.000    0.000    0.000 
#
# Total GULP energy -335375.851477 kJ/mol
# GULP energy per Si atom -5589.597525 kJ/mol
# Density = 2.013098 g / cm^3
# Si number density = 20.176903 Si / 1000 Ang^3
#
#
#
# Elastic Constant Matrix: (Units=GPa)
#
#
# Indices 1 2 3 4 5 6 
#
# 1 110.1777 63.2070 18.3040 0.0000 0.0000 0.0000
# 2 63.2070 99.8832 17.9795 0.0000 0.0000 0.0000
# 3 18.3040 17.9795 45.0645 0.0000 0.0000 0.0000
# 4 0.0000 0.0000 0.0000 27.1695 0.0000 0.0000
# 5 0.0000 0.0000 0.0000 0.0000 26.2203 0.0000
# 6 0.0000 0.0000 0.0000 0.0000 0.0000 32.8908
#
#
#
# Elastic Compliance Matrix: (Units=1/GPa)
#
#
# Indices 1 2 3 4 5 6 
#
# 1 0.014486 -0.008735 -0.002399 0.000000 0.000000 0.000000
# 2 -0.008735 0.016054 -0.002857 0.000000 0.000000 0.000000
# 3 -0.002399 -0.002857 0.024305 0.000000 0.000000 0.000000
# 4 0.000000 0.000000 0.000000 0.036806 0.000000 0.000000
# 5 0.000000 0.000000 0.000000 0.000000 0.038138 0.000000
# 6 0.000000 0.000000 0.000000 0.000000 0.000000 0.030404
#
#
# Mechanical properties :
#
#
# Convention : Reuss Voigt Hill
#
# Bulk Modulus (GPa) = 37.22659 50.45626 43.84143
# Shear Modulus (GPa) = 25.36426 27.63177 26.49802
#
# Velocity S-wave (km/s) = 3.54940 3.70466 3.62786
# Velocity P-wave (km/s) = 5.94035 6.58487 6.27090
#
# Compressibility (1/GPa) = 0.02686252
#
# Stress axis : x y z
#
# Youngs Moduli (GPa) = 69.03271 62.29142 41.14448
#
# Poissons Ratio (x) = 0.54412 0.09870
# Poissons Ratio (y) = 0.60300 0.11755
# Poissons Ratio (z) = 0.16559 0.17797
#
# Static dielectric constant tensor:
#      x y z
#    x 1.674480 0.000000 0.000000 
#    y 0.000000 1.704620 0.000000 
#    z 0.000000 0.000000 1.805340 
# 
# From -- ./inp_files/4119.got.cif
#   From: 2010.05.17/outbox.cif.g08.bks.cpg/sg56_3_cif.got.tgz:4119.got - 2010.06.03 13:42:01.
