data_PCOD9431895
_publ_section_title
;
Structure prediction by ZEFSAII (Michael W. Deem and Ramdas Pophale) SiO2 
 PCOD9431895
Probable space group: P C C N
;
_chemical_formula_sum "Si O2"
_cell_formula_units_Z 60
_cell_length_a 8.514033
_cell_length_b 17.626364
_cell_length_c 17.544937
_cell_angle_alpha 90.000000
_cell_angle_beta 90.000000
_cell_angle_gamma 90.000000
_cell_volume 2632.994044
_symmetry_space_group_name_H-M "P C C N"
_symmetry_group_IT_number 56
_symmetry_cell_setting 'orthorhombic'
loop_
_space_group_symop_operation_xyz
x,y,z
1/2-x,1/2-y,z
1/2+x,-y,1/2-z
-x,1/2+y,1/2-z
-x,-y,-z
1/2+x,1/2+y,-z
1/2-x,y,1/2+z
x,1/2-y,1/2+z
loop_
_atom_site_type_symbol
_atom_site_label
_atom_site_fract_x
_atom_site_fract_y
_atom_site_fract_z
Si Si1 0.250000 0.750000 0.492798
Si Si2 0.024327 0.482795 0.912032
Si Si3 0.432847 0.247274 0.090354
Si Si4 0.861783 0.934630 0.136730
Si Si5 0.423094 0.805664 0.630228
Si Si6 0.886942 0.605268 0.814054
Si Si7 0.029425 0.410667 0.652368
Si Si8 0.877425 0.360630 0.812855
O O1 0.407902 0.718070 0.452073
O O2 0.320120 0.808695 0.553725
O O3 0.190046 0.444961 0.894986
O O4 0.013700 0.558367 0.861245
O O5 0.900614 0.424560 0.876144
O O6 0.000000 0.500000 0.000000
O O7 0.250000 0.250000 0.058218
O O8 0.410503 0.193823 0.165203
O O9 0.488875 0.332641 0.106803
O O10 0.877250 0.919911 0.227167
O O11 0.930543 0.855624 0.108252
O O12 0.954292 0.012551 0.120658
O O13 0.451136 0.719794 0.658724
O O14 0.308548 0.843094 0.693919
O O15 0.716217 0.580822 0.844448
O O16 0.956163 0.391715 0.735806
#
# Coordination Sequence:
#
# PCOD9431895 Si02
#       8
#     4   8   8   8   8   8   8   8
#     4  10  24  50  66 106 148 196 230 322 360 448
#     4  12  28  43  73 108 146 194 240 301 372 445
#     4  10  25  42  72 103 139 190 251 300 377 440
#     4  12  24  43  71 106 142 200 241 307 362 436
#     4  10  26  42  73 101 146 192 249 289 382 453
#     4  11  23  45  69 107 143 188 248 300 367 436
#     4  11  23  43  70 103 142 183 243 310 352 441
#     4  10  21  46  68 104 142 187 241 302 365 435
#
# _framework density 22.787747
#
# number of rings (size 3 to 8) (size 9 to 14) (size 15 to 20)
#    0.000    1.333    2.667    1.600    7.467    3.733 
#    0.000    2.000    0.000    0.000    0.000    0.000 
#    0.000    0.000    0.000    0.000    0.000    0.000 
#
# Total GULP energy -334727.920888 kJ/mol
# GULP energy per Si atom -5578.798681 kJ/mol
# Density = 2.273588 g / cm^3
# Si number density = 22.787747 Si / 1000 Ang^3
#
#
#
# Elastic Constant Matrix: (Units=GPa)
#
#
# Indices 1 2 3 4 5 6 
#
# 1 55.5525 1.9151 15.7124 0.0000 0.0000 0.0000
# 2 1.9151 80.7761 -13.2178 0.0000 0.0000 0.0000
# 3 15.7124 -13.2178 61.0880 0.0000 0.0000 0.0000
# 4 0.0000 0.0000 0.0000 8.3554 0.0000 0.0000
# 5 0.0000 0.0000 0.0000 0.0000 31.0900 0.0000
# 6 0.0000 0.0000 0.0000 0.0000 0.0000 46.0447
#
#
#
# Elastic Compliance Matrix: (Units=1/GPa)
#
#
# Indices 1 2 3 4 5 6 
#
# 1 0.019551 -0.001334 -0.005317 0.000000 0.000000 0.000000
# 2 -0.001334 0.012925 0.003140 0.000000 0.000000 0.000000
# 3 -0.005317 0.003140 0.018417 0.000000 0.000000 0.000000
# 4 0.000000 0.000000 0.000000 0.119683 0.000000 0.000000
# 5 0.000000 0.000000 0.000000 0.000000 0.032165 0.000000
# 6 0.000000 0.000000 0.000000 0.000000 0.000000 0.021718
#
#
# Mechanical properties :
#
#
# Convention : Reuss Voigt Hill
#
# Bulk Modulus (GPa) = 22.79425 22.91511 22.85468
# Shear Modulus (GPa) = 20.31657 29.96514 25.14086
#
# Velocity S-wave (km/s) = 2.98913 3.63018 3.32514
# Velocity P-wave (km/s) = 4.68378 5.25820 4.97928
#
# Compressibility (1/GPa) = 0.04387072
#
# Stress axis : x y z
#
# Youngs Moduli (GPa) = 51.14862 77.36768 54.29820
#
# Poissons Ratio (x) = 0.10318 0.28872
# Poissons Ratio (y) = 0.06821 -0.17048
# Poissons Ratio (z) = 0.27197 -0.24291
#
# Static dielectric constant tensor:
#      x y z
#    x 1.932190 0.000000 0.000000 
#    y 0.000000 1.843850 0.000000 
#    z 0.000000 0.000000 3.395200 
# 
# From -- ./inp_files/15124.got.cif
#   From: 2010.05.17/outbox.cif.g08.bks.cpg/sg56_8_cif.got.tgz:15124.got - 2010.06.03 13:42:01.
