data_PCOD9431533
_publ_section_title
;
Structure prediction by ZEFSAII (Michael W. Deem and Ramdas Pophale) SiO2 
 PCOD9431533
Probable space group: P C C N
;
_chemical_formula_sum "Si O2"
_cell_formula_units_Z 56
_cell_length_a 20.769094
_cell_length_b 14.716350
_cell_length_c 8.875590
_cell_angle_alpha 90.000000
_cell_angle_beta 90.000000
_cell_angle_gamma 90.000000
_cell_volume 2712.781982
_symmetry_space_group_name_H-M "P C C N"
_symmetry_group_IT_number 56
_symmetry_cell_setting 'orthorhombic'
loop_
_space_group_symop_operation_xyz
x,y,z
1/2-x,1/2-y,z
1/2+x,-y,1/2-z
-x,1/2+y,1/2-z
-x,-y,-z
1/2+x,1/2+y,-z
1/2-x,y,1/2+z
x,1/2-y,1/2+z
loop_
_atom_site_type_symbol
_atom_site_label
_atom_site_fract_x
_atom_site_fract_y
_atom_site_fract_z
Si Si1 0.390161 0.004078 0.970682
Si Si2 0.536193 0.273389 0.067142
Si Si3 0.750000 0.250000 0.384900
Si Si4 0.165686 0.672841 0.875195
Si Si5 0.469650 0.354979 0.777911
Si Si6 0.750000 0.750000 0.585179
Si Si7 0.491477 0.560409 0.710110
Si Si8 0.672972 0.653222 0.331406
O O1 0.358640 0.929441 0.864095
O O2 0.438787 0.064477 0.870299
O O3 0.436107 0.947912 0.084260
O O4 0.341091 0.060146 0.076040
O O5 0.610133 0.243159 0.074577
O O6 0.498962 0.184894 0.125243
O O7 0.521801 0.356637 0.179882
O O8 0.507434 0.303409 0.908706
O O9 0.718999 0.323985 0.494419
O O10 0.803562 0.292332 0.277732
O O11 0.484335 0.461939 0.790716
O O12 0.394224 0.333741 0.758504
O O13 0.693478 0.719771 0.469463
O O14 0.773713 0.670379 0.700284
#
# Coordination Sequence:
#
# PCOD9431533 Si02
#       8
#     8   8   4   8   8   4   8   8
#     4  10  21  39  63  92 131 160 205 267 322 379
#     4  12  23  38  68  93 131 166 206 266 336 382
#     4  10  24  40  64  88 122 168 222 254 302 380
#     4  11  22  42  63  93 124 170 212 261 318 379
#     4  11  23  39  63  98 126 164 208 264 326 389
#     4  10  22  44  62  86 122 170 220 254 310 378
#     4  10  22  38  59  99 133 160 203 259 331 399
#     4  10  23  40  63  87 124 163 212 261 308 381
#
# _framework density 20.643014999999998
#
# number of rings (size 3 to 8) (size 9 to 14) (size 15 to 20)
#    0.000    1.429    1.429    3.857    6.000    1.143 
#    0.000    1.429    0.000    0.000    0.000    0.000 
#    0.000    0.000    0.000    0.000    0.000    0.000 
#
# Total GULP energy -312450.135442 kJ/mol
# GULP energy per Si atom -5579.466704 kJ/mol
# Density = 2.059603 g / cm^3
# Si number density = 20.643015 Si / 1000 Ang^3
#
#
#
# Elastic Constant Matrix: (Units=GPa)
#
#
# Indices 1 2 3 4 5 6 
#
# 1 68.2123 24.8340 21.5062 0.0000 0.0000 0.0000
# 2 24.8340 91.0668 29.7493 0.0000 0.0000 0.0000
# 3 21.5062 29.7493 79.4402 0.0000 0.0000 0.0000
# 4 0.0000 0.0000 0.0000 -251.9104 0.0000 0.0000
# 5 0.0000 0.0000 0.0000 0.0000 23.4794 0.0000
# 6 0.0000 0.0000 0.0000 0.0000 0.0000 22.6122
#
#
#
# Elastic Compliance Matrix: (Units=1/GPa)
#
#
# Indices 1 2 3 4 5 6 
#
# 1 0.016987 -0.003566 -0.003263 0.000000 0.000000 0.000000
# 2 -0.003566 0.013260 -0.004000 0.000000 0.000000 0.000000
# 3 -0.003263 -0.004000 0.014970 0.000000 0.000000 0.000000
# 4 0.000000 0.000000 0.000000 -0.003970 0.000000 0.000000
# 5 0.000000 0.000000 0.000000 0.000000 0.042590 0.000000
# 6 0.000000 0.000000 0.000000 0.000000 0.000000 0.044224
#
#
# Mechanical properties :
#
#
# Convention : Reuss Voigt Hill
#
# Bulk Modulus (GPa) = 42.44976 43.43315 42.94146
# Shear Modulus (GPa) = 31.73102 -30.32177 0.70463
#
# Velocity S-wave (km/s) = 3.92488 -3.83673 0.58488
# Velocity P-wave (km/s) = 6.41467 1.20766 4.61554
#
# Compressibility (1/GPa) = 0.02355726
#
# Stress axis : x y z
#
# Youngs Moduli (GPa) = 58.86719 75.41298 66.80214
#
# Poissons Ratio (x) = 0.26896 0.21799
# Poissons Ratio (y) = 0.20995 0.26723
# Poissons Ratio (z) = 0.19210 0.30167
#
# Static dielectric constant tensor:
#      x y z
#    x 1.809780 0.000000 0.000000 
#    y 0.000000 1.761710 0.000000 
#    z 0.000000 0.000000 1.749710 
# 
# From -- ./inp_files/4503.got.cif
#   From: 2010.05.17/outbox.cif.g08.bks.cpg/sg56_3_cif.got.tgz:4503.got - 2010.06.03 13:42:01.
