data_PCOD9431565
_publ_section_title
;
Structure prediction by ZEFSAII (Michael W. Deem and Ramdas Pophale) SiO2 
 PCOD9431565
Probable space group: P C C N
;
_chemical_formula_sum "Si O2"
_cell_formula_units_Z 40
_cell_length_a 17.601462
_cell_length_b 5.510018
_cell_length_c 16.277520
_cell_angle_alpha 90.000000
_cell_angle_beta 90.000000
_cell_angle_gamma 90.000000
_cell_volume 1578.665062
_symmetry_space_group_name_H-M "P C C N"
_symmetry_group_IT_number 56
_symmetry_cell_setting 'orthorhombic'
loop_
_space_group_symop_operation_xyz
x,y,z
1/2-x,1/2-y,z
1/2+x,-y,1/2-z
-x,1/2+y,1/2-z
-x,-y,-z
1/2+x,1/2+y,-z
1/2-x,y,1/2+z
x,1/2-y,1/2+z
loop_
_atom_site_type_symbol
_atom_site_label
_atom_site_fract_x
_atom_site_fract_y
_atom_site_fract_z
Si Si1 0.939567 0.239605 0.309959
Si Si2 0.928528 0.882785 0.451662
Si Si3 0.205326 0.001514 0.240005
Si Si4 0.457992 0.561434 0.875287
Si Si5 0.322994 0.612080 0.429341
O O1 0.909054 0.028509 0.368521
O O2 0.876385 0.451903 0.301514
O O3 0.955388 0.174092 0.215987
O O4 0.022463 0.288598 0.351056
O O5 0.857512 0.908683 0.511506
O O6 0.000000 0.000000 0.500000
O O7 0.966744 0.632215 0.425892
O O8 0.250000 0.750000 0.221633
O O9 0.195009 0.995023 0.339327
O O10 0.250000 0.250000 0.218499
O O11 0.385314 0.672840 0.917988
O O12 0.250000 0.750000 0.463420
#
# Coordination Sequence:
#
# PCOD9431565 Si02
#       5
#     8   8   8   8   8
#     4  11  22  39  71  99 137 178 243 294 359 425
#     4  10  22  41  62  97 138 173 234 287 362 421
#     4  10  24  45  71 101 141 190 239 294 360 428
#     4  10  21  39  67  97 126 181 229 300 347 430
#     4   9  21  43  62  93 137 183 229 287 361 428
#
# _framework density 25.337862000000001
#
# number of rings (size 3 to 8) (size 9 to 14) (size 15 to 20)
#    0.000    2.000    2.000    0.000    2.800    5.600 
#    7.200    0.000    0.000    0.000    0.000    0.000 
#    0.000    0.000    0.000    0.000    0.000    0.000 
#
# Total GULP energy -223362.765331 kJ/mol
# GULP energy per Si atom -5584.069133 kJ/mol
# Density = 2.528019 g / cm^3
# Si number density = 25.337862 Si / 1000 Ang^3
#
#
#
# Elastic Constant Matrix: (Units=GPa)
#
#
# Indices 1 2 3 4 5 6 
#
# 1 114.4520 42.8264 40.1086 0.0000 0.0000 0.0000
# 2 42.8264 86.8816 36.2282 0.0000 0.0000 0.0000
# 3 40.1086 36.2282 73.8137 0.0000 0.0000 0.0000
# 4 0.0000 0.0000 0.0000 33.3429 0.0000 0.0000
# 5 0.0000 0.0000 0.0000 0.0000 38.2156 0.0000
# 6 0.0000 0.0000 0.0000 0.0000 0.0000 35.4364
#
#
#
# Elastic Compliance Matrix: (Units=1/GPa)
#
#
# Indices 1 2 3 4 5 6 
#
# 1 0.011777 -0.003944 -0.004464 0.000000 0.000000 0.000000
# 2 -0.003944 0.015792 -0.005608 0.000000 0.000000 0.000000
# 3 -0.004464 -0.005608 0.018726 0.000000 0.000000 0.000000
# 4 0.000000 0.000000 0.000000 0.029991 0.000000 0.000000
# 5 0.000000 0.000000 0.000000 0.000000 0.026167 0.000000
# 6 0.000000 0.000000 0.000000 0.000000 0.000000 0.028220
#
#
# Mechanical properties :
#
#
# Convention : Reuss Voigt Hill
#
# Bulk Modulus (GPa) = 54.75300 57.05264 55.90282
# Shear Modulus (GPa) = 30.34104 31.79790 31.06947
#
# Velocity S-wave (km/s) = 3.46419 3.54638 3.50552
# Velocity P-wave (km/s) = 6.13652 6.27174 6.20450
#
# Compressibility (1/GPa) = 0.01826384
#
# Stress axis : x y z
#
# Youngs Moduli (GPa) = 84.90831 63.32125 53.40300
#
# Poissons Ratio (x) = 0.24975 0.23838
# Poissons Ratio (y) = 0.33489 0.29948
# Poissons Ratio (z) = 0.37901 0.35510
#
# Static dielectric constant tensor:
#      x y z
#    x 2.066790 0.000000 0.000000 
#    y 0.000000 2.178310 0.000000 
#    z 0.000000 0.000000 1.983980 
# 
# From -- ./inp_files/13817.got.cif
#   From: 2010.05.17/outbox.cif.g08.bks.cpg/sg56_7_cif.got.tgz:13817.got - 2010.06.03 13:42:01.
