data_PCOD9431120
_publ_section_title
;
Structure prediction by ZEFSAII (Michael W. Deem and Ramdas Pophale) SiO2 
 PCOD9431120
Probable space group: P C C N
;
_chemical_formula_sum "Si O2"
_cell_formula_units_Z 60
_cell_length_a 8.305979
_cell_length_b 25.820939
_cell_length_c 13.030124
_cell_angle_alpha 90.000000
_cell_angle_beta 90.000000
_cell_angle_gamma 90.000000
_cell_volume 2794.546942
_symmetry_space_group_name_H-M "P C C N"
_symmetry_group_IT_number 56
_symmetry_cell_setting 'orthorhombic'
loop_
_space_group_symop_operation_xyz
x,y,z
1/2-x,1/2-y,z
1/2+x,-y,1/2-z
-x,1/2+y,1/2-z
-x,-y,-z
1/2+x,1/2+y,-z
1/2-x,y,1/2+z
x,1/2-y,1/2+z
loop_
_atom_site_type_symbol
_atom_site_label
_atom_site_fract_x
_atom_site_fract_y
_atom_site_fract_z
Si Si1 0.667794 0.828338 0.674956
Si Si2 0.499840 0.028506 0.642902
Si Si3 0.851843 0.927484 0.045919
Si Si4 0.022364 0.220911 0.401964
Si Si5 0.354517 0.520508 0.650011
Si Si6 0.250000 0.750000 0.733720
Si Si7 0.011116 0.572061 0.957977
Si Si8 0.516719 0.181661 0.127717
O O1 0.610947 0.881748 0.624904
O O2 0.852606 0.818425 0.649020
O O3 0.579693 0.779370 0.622277
O O4 0.634082 0.825428 0.795740
O O5 0.462913 0.070909 0.555755
O O6 0.579560 0.047255 0.747810
O O7 0.613888 0.982996 0.598192
O O8 0.324168 0.002397 0.662086
O O9 0.666519 0.921542 0.010002
O O10 0.855650 0.215313 0.342962
O O11 0.018985 0.211180 0.522493
O O12 0.476936 0.473068 0.624218
O O13 0.369277 0.554927 0.548087
O O14 0.356503 0.786208 0.806202
O O15 0.067605 0.624274 0.905038
#
# Coordination Sequence:
#
# PCOD9431120 Si02
#       8
#     8   8   8   8   8   4   8   8
#     4  10  22  41  68  95 129 166 228 273 330 390
#     4  10  21  38  67  90 134 173 215 269 338 383
#     4  10  20  41  62  95 124 169 219 273 316 402
#     4  10  22  43  66  96 128 172 219 277 329 400
#     4  10  21  39  60  92 129 175 212 273 323 399
#     4  10  24  44  66  94 138 172 222 276 342 396
#     4  10  21  40  63  88 131 168 224 267 328 389
#     4  11  22  44  68  94 131 182 212 285 334 390
#
# _framework density 21.470385
#
# number of rings (size 3 to 8) (size 9 to 14) (size 15 to 20)
#    0.000    1.867    1.333    2.000    0.000    6.400 
#    9.600    0.000    0.000    0.000    0.000    0.000 
#    0.000    0.000    0.000    0.000    0.000    0.000 
#
# Total GULP energy -335352.402677 kJ/mol
# GULP energy per Si atom -5589.206711 kJ/mol
# Density = 2.142152 g / cm^3
# Si number density = 21.470385 Si / 1000 Ang^3
#
#
#
# Elastic Constant Matrix: (Units=GPa)
#
#
# Indices 1 2 3 4 5 6 
#
# 1 74.4796 5.5897 50.5411 0.0000 0.0000 0.0000
# 2 5.5897 64.8260 34.1232 0.0000 0.0000 0.0000
# 3 50.5411 34.1232 147.1023 0.0000 0.0000 0.0000
# 4 0.0000 0.0000 0.0000 25.7558 0.0000 0.0000
# 5 0.0000 0.0000 0.0000 0.0000 10.3185 0.0000
# 6 0.0000 0.0000 0.0000 0.0000 0.0000 -6.4088
#
#
#
# Elastic Compliance Matrix: (Units=1/GPa)
#
#
# Indices 1 2 3 4 5 6 
#
# 1 0.017714 0.001909 -0.006529 0.000000 0.000000 0.000000
# 2 0.001909 0.017777 -0.004780 0.000000 0.000000 0.000000
# 3 -0.006529 -0.004780 0.010150 0.000000 0.000000 0.000000
# 4 0.000000 0.000000 0.000000 0.038826 0.000000 0.000000
# 5 0.000000 0.000000 0.000000 0.000000 0.096913 0.000000
# 6 0.000000 0.000000 0.000000 0.000000 0.000000 -0.156036
#
#
# Mechanical properties :
#
#
# Convention : Reuss Voigt Hill
#
# Bulk Modulus (GPa) = 37.25490 51.87955 44.56723
# Shear Modulus (GPa) = 94.17974 19.01004 56.59489
#
# Velocity S-wave (km/s) = 6.63025 2.97881 5.13972
# Velocity P-wave (km/s) = 8.71797 6.00390 7.48498
#
# Compressibility (1/GPa) = 0.02684210
#
# Stress axis : x y z
#
# Youngs Moduli (GPa) = 56.45352 56.25166 98.52264
#
# Poissons Ratio (x) = -0.10740 0.64325
# Poissons Ratio (y) = -0.10779 0.47092
# Poissons Ratio (z) = 0.36858 0.26887
#
# Static dielectric constant tensor:
#      x y z
#    x 1.466570 0.000000 0.000000 
#    y 0.000000 1.785460 0.000000 
#    z 0.000000 0.000000 1.776800 
# 
# From -- ./inp_files/6595.got.cif
#   From: 2010.05.17/outbox.cif.g08.bks.cpg/sg56_4_cif.got.tgz:6595.got - 2010.06.03 13:42:01.
