data_PCOD9431322
_publ_section_title
;
Structure prediction by ZEFSAII (Michael W. Deem and Ramdas Pophale) SiO2 
 PCOD9431322
Probable space group: P C C N
;
_chemical_formula_sum "Si O2"
_cell_formula_units_Z 56
_cell_length_a 12.685416
_cell_length_b 11.631835
_cell_length_c 20.005545
_cell_angle_alpha 90.000000
_cell_angle_beta 90.000000
_cell_angle_gamma 90.000000
_cell_volume 2951.911507
_symmetry_space_group_name_H-M "P C C N"
_symmetry_group_IT_number 56
_symmetry_cell_setting 'orthorhombic'
loop_
_space_group_symop_operation_xyz
x,y,z
1/2-x,1/2-y,z
1/2+x,-y,1/2-z
-x,1/2+y,1/2-z
-x,-y,-z
1/2+x,1/2+y,-z
1/2-x,y,1/2+z
x,1/2-y,1/2+z
loop_
_atom_site_type_symbol
_atom_site_label
_atom_site_fract_x
_atom_site_fract_y
_atom_site_fract_z
Si Si1 0.927188 0.456607 0.060972
Si Si2 0.978172 0.820640 0.124816
Si Si3 0.186052 0.516136 0.411492
Si Si4 0.371188 0.721583 0.001670
Si Si5 0.449709 0.418909 0.308474
Si Si6 0.648595 0.395275 0.768609
Si Si7 0.642157 0.352373 0.224690
O O1 0.807199 0.507197 0.066905
O O2 0.907329 0.321235 0.049644
O O3 0.979874 0.498936 0.129600
O O4 0.000000 0.500000 0.000000
O O5 0.063963 0.883349 0.172766
O O6 0.933774 0.708488 0.162971
O O7 0.047252 0.778399 0.062234
O O8 0.884566 0.904675 0.102690
O O9 0.133456 0.596963 0.467576
O O10 0.181372 0.593729 0.344197
O O11 0.250000 0.750000 0.021852
O O12 0.357586 0.485076 0.270307
O O13 0.538381 0.409944 0.252226
O O14 0.771228 0.374854 0.783022
O O15 0.625738 0.284637 0.720974
#
# Coordination Sequence:
#
# PCOD9431322 Si02
#       7
#     8   8   8   8   8   8   8
#     4  11  22  40  62  89 120 164 211 259 307 373
#     4  11  23  38  61  92 123 162 198 263 316 369
#     4  11  22  39  61  88 123 162 209 249 317 377
#     4  10  23  39  63  87 116 162 216 257 302 368
#     4  11  21  38  60  90 122 154 205 253 312 368
#     4  10  21  37  60  88 122 154 208 252 306 372
#     4  10  21  36  62  89 115 165 201 257 308 365
#
# _framework density 18.970756999999999
#
# number of rings (size 3 to 8) (size 9 to 14) (size 15 to 20)
#    0.000    1.429    4.286    1.286    8.000    0.571 
#    0.000    0.000    0.000    0.000    0.000    0.000 
#    0.000    0.000    0.000    0.000    0.000    0.000 
#
# Total GULP energy -312096.435098 kJ/mol
# GULP energy per Si atom -5573.150627 kJ/mol
# Density = 1.892758 g / cm^3
# Si number density = 18.970757 Si / 1000 Ang^3
#
#
#
# Elastic Constant Matrix: (Units=GPa)
#
#
# Indices 1 2 3 4 5 6 
#
# 1 64.4086 38.5298 15.6149 0.0000 0.0000 0.0000
# 2 38.5298 78.0861 21.9082 0.0000 0.0000 0.0000
# 3 15.6149 21.9082 41.3344 0.0000 0.0000 0.0000
# 4 0.0000 0.0000 0.0000 32.3676 0.0000 0.0000
# 5 0.0000 0.0000 0.0000 0.0000 28.2963 0.0000
# 6 0.0000 0.0000 0.0000 0.0000 0.0000 32.3648
#
#
#
# Elastic Compliance Matrix: (Units=1/GPa)
#
#
# Indices 1 2 3 4 5 6 
#
# 1 0.022351 -0.010172 -0.003052 0.000000 0.000000 0.000000
# 2 -0.010172 0.019673 -0.006584 0.000000 0.000000 0.000000
# 3 -0.003052 -0.006584 0.028836 0.000000 0.000000 0.000000
# 4 0.000000 0.000000 0.000000 0.030895 0.000000 0.000000
# 5 0.000000 0.000000 0.000000 0.000000 0.035340 0.000000
# 6 0.000000 0.000000 0.000000 0.000000 0.000000 0.030898
#
#
# Mechanical properties :
#
#
# Convention : Reuss Voigt Hill
#
# Bulk Modulus (GPa) = 32.00774 37.32608 34.66691
# Shear Modulus (GPa) = 22.93325 25.79083 24.36204
#
# Velocity S-wave (km/s) = 3.48066 3.69115 3.58745
# Velocity P-wave (km/s) = 5.74996 6.15503 5.95594
#
# Compressibility (1/GPa) = 0.03124245
#
# Stress axis : x y z
#
# Youngs Moduli (GPa) = 44.74087 50.83117 34.67924
#
# Poissons Ratio (x) = 0.51707 0.10584
# Poissons Ratio (y) = 0.45512 0.22834
# Poissons Ratio (z) = 0.13655 0.33469
#
# Static dielectric constant tensor:
#      x y z
#    x 1.670470 0.000000 0.000000 
#    y 0.000000 1.683150 0.000000 
#    z 0.000000 0.000000 1.672990 
# 
# From -- ./inp_files/18751.got.cif
#   From: 2010.05.17/outbox.cif.g08.bks.cpg/sg56_10_cif.got.tgz:18751.got - 2010.06.03 13:42:01.
