data_PCOD9431560
_publ_section_title
;
Structure prediction by ZEFSAII (Michael W. Deem and Ramdas Pophale) SiO2 
 PCOD9431560
Probable space group: P C C N
;
_chemical_formula_sum "Si O2"
_cell_formula_units_Z 48
_cell_length_a 10.559095
_cell_length_b 10.925867
_cell_length_c 14.581676
_cell_angle_alpha 90.000000
_cell_angle_beta 90.000000
_cell_angle_gamma 90.000000
_cell_volume 1682.248117
_symmetry_space_group_name_H-M "P C C N"
_symmetry_group_IT_number 56
_symmetry_cell_setting 'orthorhombic'
loop_
_space_group_symop_operation_xyz
x,y,z
1/2-x,1/2-y,z
1/2+x,-y,1/2-z
-x,1/2+y,1/2-z
-x,-y,-z
1/2+x,1/2+y,-z
1/2-x,y,1/2+z
x,1/2-y,1/2+z
loop_
_atom_site_type_symbol
_atom_site_label
_atom_site_fract_x
_atom_site_fract_y
_atom_site_fract_z
Si Si1 0.126805 0.321927 0.999292
Si Si2 0.462257 0.800445 0.740245
Si Si3 0.182808 0.636662 0.552576
Si Si4 0.471396 0.639885 0.905525
Si Si5 0.608140 0.939479 0.179231
Si Si6 0.745937 0.939716 0.840962
O O1 0.250000 0.250000 0.963145
O O2 0.107170 0.432793 0.930073
O O3 0.009360 0.232428 0.011796
O O4 0.160814 0.343038 0.107060
O O5 0.387932 0.824599 0.646657
O O6 0.409123 0.715227 0.822799
O O7 0.568089 0.700955 0.706648
O O8 0.469006 0.940338 0.783217
O O9 0.250000 0.750000 0.506160
O O10 0.292456 0.558787 0.603455
O O11 0.122360 0.559574 0.467347
O O12 0.604992 0.582038 0.872194
O O13 0.742985 0.951105 0.232733
#
# Coordination Sequence:
#
# PCOD9431560 Si02
#       6
#     8   8   8   8   8   8
#     4  10  21  39  66  98 125 168 222 269 320 389
#     4  10  23  41  63  95 130 174 218 267 329 390
#     4  11  23  40  61  90 136 168 217 271 327 385
#     4  10  21  41  67  91 128 169 219 265 328 389
#     4  10  21  42  68  95 133 168 221 269 331 389
#     4   9  22  41  61  95 129 169 215 266 325 397
#
# _framework density 28.533245999999998
#
# number of rings (size 3 to 8) (size 9 to 14) (size 15 to 20)
#    0.000    2.000    1.667    0.500    2.333    6.000 
#    3.000    0.000    0.000    0.000    0.000    0.000 
#    0.000    0.000    0.000    0.000    0.000    0.000 
#
# Total GULP energy -267306.985362 kJ/mol
# GULP energy per Si atom -5568.895528 kJ/mol
# Density = 2.846830 g / cm^3
# Si number density = 28.533246 Si / 1000 Ang^3
#
#
#
# Elastic Constant Matrix: (Units=GPa)
#
#
# Indices 1 2 3 4 5 6 
#
# 1 57.1317 15.5269 31.0401 0.0000 0.0000 0.0000
# 2 15.5269 112.0236 28.4578 0.0000 0.0000 0.0000
# 3 31.0401 28.4578 186.9165 0.0000 0.0000 0.0000
# 4 0.0000 0.0000 0.0000 61.1448 0.0000 0.0000
# 5 0.0000 0.0000 0.0000 0.0000 28.6394 0.0000
# 6 0.0000 0.0000 0.0000 0.0000 0.0000 34.6937
#
#
#
# Elastic Compliance Matrix: (Units=1/GPa)
#
#
# Indices 1 2 3 4 5 6 
#
# 1 0.019649 -0.001971 -0.002963 0.000000 0.000000 0.000000
# 2 -0.001971 0.009483 -0.001117 0.000000 0.000000 0.000000
# 3 -0.002963 -0.001117 0.006012 0.000000 0.000000 0.000000
# 4 0.000000 0.000000 0.000000 0.016355 0.000000 0.000000
# 5 0.000000 0.000000 0.000000 0.000000 0.034917 0.000000
# 6 0.000000 0.000000 0.000000 0.000000 0.000000 0.028824
#
#
# Mechanical properties :
#
#
# Convention : Reuss Voigt Hill
#
# Bulk Modulus (GPa) = 43.39549 56.23570 49.81559
# Shear Modulus (GPa) = 37.03123 43.63206 40.33165
#
# Velocity S-wave (km/s) = 3.60645 3.91470 3.76373
# Velocity P-wave (km/s) = 5.70821 6.33914 6.03193
#
# Compressibility (1/GPa) = 0.02304387
#
# Stress axis : x y z
#
# Youngs Moduli (GPa) = 50.89370 105.44640 166.33355
#
# Poissons Ratio (x) = 0.20780 0.49283
# Poissons Ratio (y) = 0.10030 0.18573
# Poissons Ratio (z) = 0.15079 0.11774
#
# Static dielectric constant tensor:
#      x y z
#    x 2.535150 0.000000 0.000000 
#    y 0.000000 2.408590 0.000000 
#    z 0.000000 0.000000 2.348220 
# 
# From -- ./inp_files/12209.got.cif
#   From: 2010.05.17/outbox.cif.g08.bks.cpg/sg56_7_cif.got.tgz:12209.got - 2010.06.03 13:42:01.
