data_PCOD9431942
_publ_section_title
;
Structure prediction by ZEFSAII (Michael W. Deem and Ramdas Pophale) SiO2 
 PCOD9431942
Probable space group: P C C N
;
_chemical_formula_sum "Si O2"
_cell_formula_units_Z 36
_cell_length_a 7.133806
_cell_length_b 24.132482
_cell_length_c 9.169511
_cell_angle_alpha 90.000000
_cell_angle_beta 90.000000
_cell_angle_gamma 90.000000
_cell_volume 1578.590415
_symmetry_space_group_name_H-M "P C C N"
_symmetry_group_IT_number 56
_symmetry_cell_setting 'orthorhombic'
loop_
_space_group_symop_operation_xyz
x,y,z
1/2-x,1/2-y,z
1/2+x,-y,1/2-z
-x,1/2+y,1/2-z
-x,-y,-z
1/2+x,1/2+y,-z
1/2-x,y,1/2+z
x,1/2-y,1/2+z
loop_
_atom_site_type_symbol
_atom_site_label
_atom_site_fract_x
_atom_site_fract_y
_atom_site_fract_z
Si Si1 0.750000 0.250000 0.168936
Si Si2 0.791263 0.426179 0.780623
Si Si3 0.389319 0.404612 0.063241
Si Si4 0.822227 0.539935 0.168443
Si Si5 0.923550 0.179363 0.910322
O O1 0.829643 0.205087 0.055456
O O2 0.594661 0.224398 0.280381
O O3 0.672615 0.480391 0.743665
O O4 0.685332 0.373645 0.842970
O O5 0.904101 0.412235 0.631378
O O6 0.968065 0.444037 0.881977
O O7 0.325953 0.453300 0.957438
O O8 0.385334 0.347464 0.974371
O O9 0.268848 0.414240 0.208283
#
# Coordination Sequence:
#
# PCOD9431942 Si02
#       5
#     4   8   8   8   8
#     4  10  22  38  70  92 112 160 208 286 306 374
#     4  10  22  37  62  93 128 170 205 258 298 387
#     4  10  23  40  57  94 127 169 208 252 306 378
#     4  10  22  38  61  93 137 170 207 241 318 376
#     4  11  21  42  65  94 119 155 221 260 326 358
#
# _framework density 22.805156
#
# number of rings (size 3 to 8) (size 9 to 14) (size 15 to 20)
#    1.333    0.444    2.222    2.000    3.111    2.667 
#    0.000    0.000    0.000   22.667    0.000    0.000 
#    0.000    0.000    0.000    0.000    0.000    0.000 
#
# Total GULP energy -200419.805609 kJ/mol
# GULP energy per Si atom -5567.216822 kJ/mol
# Density = 2.275325 g / cm^3
# Si number density = 22.805156 Si / 1000 Ang^3
#
#
#
# Elastic Constant Matrix: (Units=GPa)
#
#
# Indices 1 2 3 4 5 6 
#
# 1 18.5007 10.7139 19.5693 0.0000 0.0000 0.0000
# 2 10.7139 80.3921 20.3778 0.0000 0.0000 0.0000
# 3 19.5693 20.3778 118.1659 0.0000 0.0000 0.0000
# 4 0.0000 0.0000 0.0000 36.6948 0.0000 0.0000
# 5 0.0000 0.0000 0.0000 0.0000 32.5479 0.0000
# 6 0.0000 0.0000 0.0000 0.0000 0.0000 24.4472
#
#
#
# Elastic Compliance Matrix: (Units=1/GPa)
#
#
# Indices 1 2 3 4 5 6 
#
# 1 0.068685 -0.006557 -0.010244 0.000000 0.000000 0.000000
# 2 -0.006557 0.013634 -0.001265 0.000000 0.000000 0.000000
# 3 -0.010244 -0.001265 0.010377 0.000000 0.000000 0.000000
# 4 0.000000 0.000000 0.000000 0.027252 0.000000 0.000000
# 5 0.000000 0.000000 0.000000 0.000000 0.030724 0.000000
# 6 0.000000 0.000000 0.000000 0.000000 0.000000 0.040905
#
#
# Mechanical properties :
#
#
# Convention : Reuss Voigt Hill
#
# Bulk Modulus (GPa) = 17.67933 35.37565 26.52749
# Shear Modulus (GPa) = 20.27877 29.83114 25.05495
#
# Velocity S-wave (km/s) = 2.98521 3.62067 3.31819
# Velocity P-wave (km/s) = 4.43296 5.74672 5.13206
#
# Compressibility (1/GPa) = 0.05656324
#
# Stress axis : x y z
#
# Youngs Moduli (GPa) = 14.55924 73.34813 96.36348
#
# Poissons Ratio (x) = 0.48095 0.98715
# Poissons Ratio (y) = 0.09547 0.12192
# Poissons Ratio (z) = 0.14915 0.09280
#
# Static dielectric constant tensor:
#      x y z
#    x 1.888550 0.000000 0.000000 
#    y 0.000000 1.900360 0.000000 
#    z 0.000000 0.000000 1.908550 
# 
# From -- ./inp_files/2110.got.cif
#   From: 2010.05.17/outbox.cif.g08.bks.cpg/sg56_2_cif.got.tgz:2110.got - 2010.06.03 13:42:01.
