data_PCOD9431139
_publ_section_title
;
Structure prediction by ZEFSAII (Michael W. Deem and Ramdas Pophale) SiO2 
 PCOD9431139
Probable space group: P C C N
;
_chemical_formula_sum "Si O2"
_cell_formula_units_Z 64
_cell_length_a 12.549044
_cell_length_b 14.134017
_cell_length_c 15.609360
_cell_angle_alpha 90.000000
_cell_angle_beta 90.000000
_cell_angle_gamma 90.000000
_cell_volume 2768.607227
_symmetry_space_group_name_H-M "P C C N"
_symmetry_group_IT_number 56
_symmetry_cell_setting 'orthorhombic'
loop_
_space_group_symop_operation_xyz
x,y,z
1/2-x,1/2-y,z
1/2+x,-y,1/2-z
-x,1/2+y,1/2-z
-x,-y,-z
1/2+x,1/2+y,-z
1/2-x,y,1/2+z
x,1/2-y,1/2+z
loop_
_atom_site_type_symbol
_atom_site_label
_atom_site_fract_x
_atom_site_fract_y
_atom_site_fract_z
Si Si1 0.555712 0.797657 0.865745
Si Si2 0.543738 0.318146 0.800759
Si Si3 0.671492 0.508571 0.355771
Si Si4 0.834878 0.821008 0.097767
Si Si5 0.180011 0.143120 0.241204
Si Si6 0.509250 0.628251 0.969828
Si Si7 0.014792 0.537629 0.283562
Si Si8 0.792938 0.155079 0.937505
O O1 0.459765 0.787679 0.797613
O O2 0.590929 0.905697 0.881494
O O3 0.645415 0.737908 0.811666
O O4 0.529340 0.739223 0.949581
O O5 0.442553 0.280032 0.856722
O O6 0.515890 0.428905 0.794089
O O7 0.653679 0.307710 0.848920
O O8 0.773544 0.568986 0.327253
O O9 0.623176 0.460630 0.270119
O O10 0.706741 0.426516 0.420315
O O11 0.750000 0.750000 0.053505
O O12 0.737481 0.646760 0.179229
O O13 0.887836 0.893263 0.029845
O O14 0.071698 0.093776 0.271978
O O15 0.494496 0.581157 0.877847
O O16 0.398306 0.614474 0.017421
O O17 0.750000 0.250000 0.982117
#
# Coordination Sequence:
#
# PCOD9431139 Si02
#       8
#     8   8   8   8   8   8   8   8
#     4  10  21  42  70  98 131 168 231 294 331 395
#     4  10  20  41  67  93 134 170 229 278 324 406
#     4  11  22  42  70 103 128 181 239 277 331 410
#     4  11  20  37  62  98 135 169 211 283 350 389
#     4  11  19  38  68 101 133 167 231 283 334 405
#     4  10  26  44  65 100 142 176 214 287 356 402
#     4  10  22  40  67 103 128 175 231 280 331 399
#     4  11  26  45  63  95 142 187 221 272 347 414
#
# _framework density 23.116315
#
# number of rings (size 3 to 8) (size 9 to 14) (size 15 to 20)
#    0.000    1.500    5.000    0.375    3.500    4.000 
#    4.500    0.625    0.000    0.000    0.000    0.000 
#    0.000    0.000    0.000    0.000    0.000    0.000 
#
# Total GULP energy -356759.981688 kJ/mol
# GULP energy per Si atom -5574.374714 kJ/mol
# Density = 2.306370 g / cm^3
# Si number density = 23.116315 Si / 1000 Ang^3
#
#
#
# Elastic Constant Matrix: (Units=GPa)
#
#
# Indices 1 2 3 4 5 6 
#
# 1 66.1579 22.4472 23.6366 0.0000 0.0000 0.0000
# 2 22.4472 89.5333 34.3291 0.0000 0.0000 0.0000
# 3 23.6366 34.3291 81.0205 0.0000 0.0000 0.0000
# 4 0.0000 0.0000 0.0000 26.4586 0.0000 0.0000
# 5 0.0000 0.0000 0.0000 0.0000 18.1410 0.0000
# 6 0.0000 0.0000 0.0000 0.0000 0.0000 34.3407
#
#
#
# Elastic Compliance Matrix: (Units=1/GPa)
#
#
# Indices 1 2 3 4 5 6 
#
# 1 0.017482 -0.002898 -0.003872 0.000000 0.000000 0.000000
# 2 -0.002898 0.013816 -0.005008 0.000000 0.000000 0.000000
# 3 -0.003872 -0.005008 0.015594 0.000000 0.000000 0.000000
# 4 0.000000 0.000000 0.000000 0.037795 0.000000 0.000000
# 5 0.000000 0.000000 0.000000 0.000000 0.055124 0.000000
# 6 0.000000 0.000000 0.000000 0.000000 0.000000 0.029120
#
#
# Mechanical properties :
#
#
# Convention : Reuss Voigt Hill
#
# Bulk Modulus (GPa) = 42.85461 44.17084 43.51272
# Shear Modulus (GPa) = 24.96666 26.20798 25.58732
#
# Velocity S-wave (km/s) = 3.28997 3.37076 3.33061
# Velocity P-wave (km/s) = 5.74550 5.85653 5.80128
#
# Compressibility (1/GPa) = 0.02333471
#
# Stress axis : x y z
#
# Youngs Moduli (GPa) = 57.20117 72.37974 64.12601
#
# Poissons Ratio (x) = 0.20978 0.24830
# Poissons Ratio (y) = 0.16579 0.32117
# Poissons Ratio (z) = 0.22149 0.36251
#
# Static dielectric constant tensor:
#      x y z
#    x 1.910150 0.000000 0.000000 
#    y 0.000000 1.957530 0.000000 
#    z 0.000000 0.000000 1.906400 
# 
# From -- ./inp_files/15830.got.cif
#   From: 2010.05.17/outbox.cif.g08.bks.cpg/sg56_8_cif.got.tgz:15830.got - 2010.06.03 13:42:01.
