data_PCOD9431285
_publ_section_title
;
Structure prediction by ZEFSAII (Michael W. Deem and Ramdas Pophale) SiO2 
 PCOD9431285
Probable space group: P C C N
;
_chemical_formula_sum "Si O2"
_cell_formula_units_Z 64
_cell_length_a 12.864628
_cell_length_b 13.206482
_cell_length_c 16.715773
_cell_angle_alpha 90.000000
_cell_angle_beta 90.000000
_cell_angle_gamma 90.000000
_cell_volume 2839.950962
_symmetry_space_group_name_H-M "P C C N"
_symmetry_group_IT_number 56
_symmetry_cell_setting 'orthorhombic'
loop_
_space_group_symop_operation_xyz
x,y,z
1/2-x,1/2-y,z
1/2+x,-y,1/2-z
-x,1/2+y,1/2-z
-x,-y,-z
1/2+x,1/2+y,-z
1/2-x,y,1/2+z
x,1/2-y,1/2+z
loop_
_atom_site_type_symbol
_atom_site_label
_atom_site_fract_x
_atom_site_fract_y
_atom_site_fract_z
Si Si1 0.832576 0.160174 0.636294
Si Si2 0.170721 0.168925 0.220021
Si Si3 0.471304 0.461580 0.912532
Si Si4 0.951892 0.336468 0.656973
Si Si5 0.580978 0.740316 0.608521
Si Si6 0.182751 0.557915 0.692474
Si Si7 0.402544 0.872829 0.161322
Si Si8 0.575678 0.970076 0.070846
O O1 0.750000 0.250000 0.621872
O O2 0.933167 0.228172 0.618094
O O3 0.830627 0.126653 0.728830
O O4 0.841621 0.057417 0.586709
O O5 0.250000 0.250000 0.187266
O O6 0.128389 0.217009 0.303397
O O7 0.074474 0.155690 0.161826
O O8 0.210918 0.054377 0.226653
O O9 0.410032 0.558730 0.878112
O O10 0.408109 0.356496 0.913614
O O11 0.575743 0.443727 0.858338
O O12 0.500000 0.500000 0.000000
O O13 0.908507 0.338860 0.747079
O O14 0.455941 0.716913 0.610823
O O15 0.621339 0.642986 0.559180
O O16 0.285164 0.595282 0.644329
O O17 0.493270 0.957628 0.145940
O O18 0.500000 0.000000 0.000000
#
# Coordination Sequence:
#
# PCOD9431285 Si02
#       8
#     8   8   8   8   8   8   8   8
#     4  12  23  40  73 105 131 164 232 285 337 397
#     4  10  21  35  63  95 124 170 218 268 339 409
#     4  11  25  42  62  91 136 181 224 275 345 420
#     4  10  22  39  62  98 132 165 219 292 334 385
#     4   9  21  41  60  88 128 175 217 262 352 394
#     4  11  21  41  63 102 132 163 235 286 339 410
#     4   9  20  39  66  97 122 177 215 287 351 393
#     4  10  23  44  63  94 137 179 208 265 349 418
#
# _framework density 22.535601
#
# number of rings (size 3 to 8) (size 9 to 14) (size 15 to 20)
#    0.750    1.000    2.500    2.250    5.250    0.000 
#    2.250    0.000    0.000    0.750    0.000    0.000 
#    0.000    0.000    0.000    0.000    0.000    0.000 
#
# Total GULP energy -356359.741590 kJ/mol
# GULP energy per Si atom -5568.120962 kJ/mol
# Density = 2.248431 g / cm^3
# Si number density = 22.535601 Si / 1000 Ang^3
#
#
#
# Elastic Constant Matrix: (Units=GPa)
#
#
# Indices 1 2 3 4 5 6 
#
# 1 55.0874 20.6939 -6.2022 0.0000 0.0000 0.0000
# 2 20.6939 209.7505 26.6130 0.0000 0.0000 0.0000
# 3 -6.2022 26.6130 34.0003 0.0000 0.0000 0.0000
# 4 0.0000 0.0000 0.0000 7.8717 0.0000 0.0000
# 5 0.0000 0.0000 0.0000 0.0000 8.7752 0.0000
# 6 0.0000 0.0000 0.0000 0.0000 0.0000 34.8517
#
#
#
# Elastic Compliance Matrix: (Units=1/GPa)
#
#
# Indices 1 2 3 4 5 6 
#
# 1 0.019802 -0.002678 0.005708 0.000000 0.000000 0.000000
# 2 -0.002678 0.005655 -0.004915 0.000000 0.000000 0.000000
# 3 0.005708 -0.004915 0.034300 0.000000 0.000000 0.000000
# 4 0.000000 0.000000 0.000000 0.127037 0.000000 0.000000
# 5 0.000000 0.000000 0.000000 0.000000 0.113958 0.000000
# 6 0.000000 0.000000 0.000000 0.000000 0.000000 0.028693
#
#
# Mechanical properties :
#
#
# Convention : Reuss Voigt Hill
#
# Bulk Modulus (GPa) = 17.86117 42.33862 30.09989
# Shear Modulus (GPa) = 14.20952 27.48195 20.84574
#
# Velocity S-wave (km/s) = 2.51377 3.49591 3.04470
# Velocity P-wave (km/s) = 4.04578 5.92650 5.07404
#
# Compressibility (1/GPa) = 0.05598738
#
# Stress axis : x y z
#
# Youngs Moduli (GPa) = 50.50097 176.82233 29.15453
#
# Poissons Ratio (x) = 0.47351 -0.16642
# Poissons Ratio (y) = 0.13523 0.14330
# Poissons Ratio (z) = -0.28827 0.86911
#
# Static dielectric constant tensor:
#      x y z
#    x 2.053740 0.000000 0.000000 
#    y 0.000000 1.974390 0.000000 
#    z 0.000000 0.000000 1.801340 
# 
# From -- ./inp_files/16349.got.cif
#   From: 2010.05.17/outbox.cif.g08.bks.cpg/sg56_9_cif.got.tgz:16349.got - 2010.06.03 13:42:01.
