data_PCOD9431653
_publ_section_title
;
Structure prediction by ZEFSAII (Michael W. Deem and Ramdas Pophale) SiO2 
 PCOD9431653
Probable space group: P C C N
;
_chemical_formula_sum "Si O2"
_cell_formula_units_Z 48
_cell_length_a 27.140521
_cell_length_b 8.448044
_cell_length_c 9.146260
_cell_angle_alpha 90.000000
_cell_angle_beta 90.000000
_cell_angle_gamma 90.000000
_cell_volume 2097.093964
_symmetry_space_group_name_H-M "P C C N"
_symmetry_group_IT_number 56
_symmetry_cell_setting 'orthorhombic'
loop_
_space_group_symop_operation_xyz
x,y,z
1/2-x,1/2-y,z
1/2+x,-y,1/2-z
-x,1/2+y,1/2-z
-x,-y,-z
1/2+x,1/2+y,-z
1/2-x,y,1/2+z
x,1/2-y,1/2+z
loop_
_atom_site_type_symbol
_atom_site_label
_atom_site_fract_x
_atom_site_fract_y
_atom_site_fract_z
Si Si1 0.411832 0.755195 0.391282
Si Si2 0.211846 0.446095 0.802818
Si Si3 0.750000 0.250000 0.023917
Si Si4 0.350797 0.843357 0.639738
Si Si5 0.750000 0.750000 0.956692
Si Si6 0.949311 0.567967 0.067315
Si Si7 0.520217 0.861730 0.393673
O O1 0.391594 0.868036 0.517021
O O2 0.374555 0.772616 0.257926
O O3 0.411050 0.575712 0.455937
O O4 0.467773 0.783376 0.345248
O O5 0.238351 0.596781 0.876474
O O6 0.161324 0.501672 0.732658
O O7 0.240179 0.388784 0.657983
O O8 0.209439 0.311753 0.927351
O O9 0.799839 0.218203 0.931210
O O10 0.955027 0.588787 0.241740
O O11 0.946564 0.736691 0.984831
O O12 0.000000 0.500000 0.000000
O O13 0.500000 0.000000 0.500000
#
# Coordination Sequence:
#
# PCOD9431653 Si02
#       7
#     8   8   4   8   4   8   8
#     4  11  24  41  65 104 136 177 234 298 343 407
#     4  11  23  43  68 101 131 188 239 292 355 425
#     4  12  24  42  76 100 132 198 254 282 358 416
#     4  12  24  40  69  99 142 176 247 300 338 418
#     4  10  24  42  70  94 138 174 248 290 364 432
#     4  10  21  40  66  97 134 174 224 278 356 427
#     4  11  21  41  73  98 136 187 226 280 362 448
#
# _framework density 22.888817
#
# number of rings (size 3 to 8) (size 9 to 14) (size 15 to 20)
#    0.000    1.000    3.333    5.500    0.000    0.000 
#    0.000    3.333    0.000    0.000    0.000    0.000 
#    0.000    0.000    0.000    0.000    0.000    0.000 
#
# Total GULP energy -267804.153710 kJ/mol
# GULP energy per Si atom -5579.253202 kJ/mol
# Density = 2.283672 g / cm^3
# Si number density = 22.888817 Si / 1000 Ang^3
#
#
#
# Elastic Constant Matrix: (Units=GPa)
#
#
# Indices 1 2 3 4 5 6 
#
# 1 77.6335 10.4322 30.0946 0.0000 0.0000 0.0000
# 2 10.4322 85.0765 42.2906 0.0000 0.0000 0.0000
# 3 30.0946 42.2906 158.0055 0.0000 0.0000 0.0000
# 4 0.0000 0.0000 0.0000 43.1165 0.0000 0.0000
# 5 0.0000 0.0000 0.0000 0.0000 35.7397 0.0000
# 6 0.0000 0.0000 0.0000 0.0000 0.0000 27.0785
#
#
#
# Elastic Compliance Matrix: (Units=1/GPa)
#
#
# Indices 1 2 3 4 5 6 
#
# 1 0.013923 -0.000449 -0.002532 0.000000 0.000000 0.000000
# 2 -0.000449 0.013572 -0.003547 0.000000 0.000000 0.000000
# 3 -0.002532 -0.003547 0.007761 0.000000 0.000000 0.000000
# 4 0.000000 0.000000 0.000000 0.023193 0.000000 0.000000
# 5 0.000000 0.000000 0.000000 0.000000 0.027980 0.000000
# 6 0.000000 0.000000 0.000000 0.000000 0.000000 0.036930
#
#
# Mechanical properties :
#
#
# Convention : Reuss Voigt Hill
#
# Bulk Modulus (GPa) = 45.04432 54.03892 49.54162
# Shear Modulus (GPa) = 34.76715 37.04681 35.90698
#
# Velocity S-wave (km/s) = 3.90161 4.02749 3.96505
# Velocity P-wave (km/s) = 6.32606 6.72965 6.53097
#
# Compressibility (1/GPa) = 0.02220036
#
# Stress axis : x y z
#
# Youngs Moduli (GPa) = 71.82488 73.67875 128.85732
#
# Poissons Ratio (x) = 0.03306 0.32623
# Poissons Ratio (y) = 0.03223 0.45709
# Poissons Ratio (z) = 0.18184 0.26136
#
# Static dielectric constant tensor:
#      x y z
#    x 1.864420 0.000000 0.000000 
#    y 0.000000 2.007480 0.000000 
#    z 0.000000 0.000000 1.869950 
# 
# From -- ./inp_files/5155.got.cif
#   From: 2010.05.17/outbox.cif.g08.bks.cpg/sg56_3_cif.got.tgz:5155.got - 2010.06.03 13:42:01.
