data_PCOD9431800
_publ_section_title
;
Structure prediction by ZEFSAII (Michael W. Deem and Ramdas Pophale) SiO2 
 PCOD9431800
Probable space group: P C C N
;
_chemical_formula_sum "Si O2"
_cell_formula_units_Z 48
_cell_length_a 8.376928
_cell_length_b 16.295378
_cell_length_c 14.180042
_cell_angle_alpha 90.000000
_cell_angle_beta 90.000000
_cell_angle_gamma 90.000000
_cell_volume 1935.649586
_symmetry_space_group_name_H-M "P C C N"
_symmetry_group_IT_number 56
_symmetry_cell_setting 'orthorhombic'
loop_
_space_group_symop_operation_xyz
x,y,z
1/2-x,1/2-y,z
1/2+x,-y,1/2-z
-x,1/2+y,1/2-z
-x,-y,-z
1/2+x,1/2+y,-z
1/2-x,y,1/2+z
x,1/2-y,1/2+z
loop_
_atom_site_type_symbol
_atom_site_label
_atom_site_fract_x
_atom_site_fract_y
_atom_site_fract_z
Si Si1 0.117824 0.681435 0.605164
Si Si2 0.837452 0.164934 0.667280
Si Si3 0.289675 0.991625 0.609944
Si Si4 0.124250 0.989350 0.792253
Si Si5 0.767284 0.664244 0.636524
Si Si6 0.570025 0.907717 0.985989
O O1 0.250000 0.750000 0.583600
O O2 0.115331 0.673182 0.721152
O O3 0.182959 0.595947 0.562690
O O4 0.931414 0.683904 0.579235
O O5 0.750000 0.250000 0.642500
O O6 0.720583 0.086359 0.664687
O O7 0.978543 0.142097 0.595040
O O8 0.141815 0.980070 0.680831
O O9 0.446184 0.009378 0.670391
O O10 0.249328 0.067183 0.545084
O O11 0.198104 0.078530 0.812975
O O12 0.750000 0.750000 0.693461
O O13 0.605846 0.645269 0.578333
O O14 0.500000 0.000000 0.000000
#
# Coordination Sequence:
#
# PCOD9431800 Si02
#       6
#     8   8   8   8   8   8
#     4   9  21  41  70 100 128 171 236 288 332 398
#     4  10  22  45  70 100 132 179 230 282 344 403
#     4  10  22  40  69  94 129 175 222 276 346 402
#     4  10  21  42  68  96 127 172 230 284 330 401
#     4  11  25  41  62  98 136 177 224 275 345 405
#     4  12  25  43  63  96 143 180 216 275 347 422
#
# _framework density 24.797877
#
# number of rings (size 3 to 8) (size 9 to 14) (size 15 to 20)
#    0.000    1.667    1.667    3.000    2.333    6.667 
#    6.000    1.667    0.000    0.000    0.000    0.000 
#    0.000    0.000    0.000    0.000    0.000    0.000 
#
# Total GULP energy -268218.916094 kJ/mol
# GULP energy per Si atom -5587.894085 kJ/mol
# Density = 2.474144 g / cm^3
# Si number density = 24.797877 Si / 1000 Ang^3
#
#
#
# Elastic Constant Matrix: (Units=GPa)
#
#
# Indices 1 2 3 4 5 6 
#
# 1 88.3711 56.8547 18.9538 0.0000 0.0000 0.0000
# 2 56.8547 181.2187 14.3859 0.0000 0.0000 0.0000
# 3 18.9538 14.3859 64.3364 0.0000 0.0000 0.0000
# 4 0.0000 0.0000 0.0000 21.8783 0.0000 0.0000
# 5 0.0000 0.0000 0.0000 0.0000 28.7079 0.0000
# 6 0.0000 0.0000 0.0000 0.0000 0.0000 39.1799
#
#
#
# Elastic Compliance Matrix: (Units=1/GPa)
#
#
# Indices 1 2 3 4 5 6 
#
# 1 0.014873 -0.004397 -0.003399 0.000000 0.000000 0.000000
# 2 -0.004397 0.006918 -0.000252 0.000000 0.000000 0.000000
# 3 -0.003399 -0.000252 0.016601 0.000000 0.000000 0.000000
# 4 0.000000 0.000000 0.000000 0.045707 0.000000 0.000000
# 5 0.000000 0.000000 0.000000 0.000000 0.034834 0.000000
# 6 0.000000 0.000000 0.000000 0.000000 0.000000 0.025523
#
#
# Mechanical properties :
#
#
# Convention : Reuss Voigt Hill
#
# Bulk Modulus (GPa) = 44.84663 57.14611 50.99637
# Shear Modulus (GPa) = 29.76505 34.20201 31.98353
#
# Velocity S-wave (km/s) = 3.46830 3.71783 3.59523
# Velocity P-wave (km/s) = 5.84491 6.44395 6.15172
#
# Compressibility (1/GPa) = 0.02229822
#
# Stress axis : x y z
#
# Youngs Moduli (GPa) = 67.23401 144.56074 60.23802
#
# Poissons Ratio (x) = 0.63556 0.20473
# Poissons Ratio (y) = 0.29560 0.01515
# Poissons Ratio (z) = 0.22851 0.03636
#
# Static dielectric constant tensor:
#      x y z
#    x 2.026240 0.000000 0.000000 
#    y 0.000000 2.007890 0.000000 
#    z 0.000000 0.000000 2.105710 
# 
# From -- ./inp_files/14774.got.cif
#   From: 2010.05.17/outbox.cif.g08.bks.cpg/sg56_8_cif.got.tgz:14774.got - 2010.06.03 13:42:01.
