data_PCOD9431626
_publ_section_title
;
Structure prediction by ZEFSAII (Michael W. Deem and Ramdas Pophale) SiO2 
 PCOD9431626
Probable space group: P C C N
;
_chemical_formula_sum "Si O2"
_cell_formula_units_Z 48
_cell_length_a 10.824024
_cell_length_b 7.701651
_cell_length_c 22.498103
_cell_angle_alpha 90.000000
_cell_angle_beta 90.000000
_cell_angle_gamma 90.000000
_cell_volume 1875.506104
_symmetry_space_group_name_H-M "P C C N"
_symmetry_group_IT_number 56
_symmetry_cell_setting 'orthorhombic'
loop_
_space_group_symop_operation_xyz
x,y,z
1/2-x,1/2-y,z
1/2+x,-y,1/2-z
-x,1/2+y,1/2-z
-x,-y,-z
1/2+x,1/2+y,-z
1/2-x,y,1/2+z
x,1/2-y,1/2+z
loop_
_atom_site_type_symbol
_atom_site_label
_atom_site_fract_x
_atom_site_fract_y
_atom_site_fract_z
Si Si1 0.250000 0.250000 0.691793
Si Si2 0.208442 0.443065 0.080036
Si Si3 0.573472 0.777741 0.702643
Si Si4 0.440147 0.851303 0.913821
Si Si5 0.173762 0.956241 0.969263
Si Si6 0.750000 0.750000 0.602010
Si Si7 0.890005 0.189474 0.210701
O O1 0.265270 0.417897 0.649684
O O2 0.139130 0.280860 0.736436
O O3 0.250000 0.250000 0.059471
O O4 0.061765 0.459818 0.070256
O O5 0.291378 0.560617 0.037988
O O6 0.646354 0.683487 0.649893
O O7 0.436682 0.730495 0.722475
O O8 0.593736 0.984559 0.696620
O O9 0.305480 0.918709 0.934410
O O10 0.436070 0.667087 0.948997
O O11 0.447999 0.797623 0.844667
O O12 0.158988 0.144718 0.941431
O O13 0.750000 0.250000 0.207511
#
# Coordination Sequence:
#
# PCOD9431626 Si02
#       7
#     4   8   8   8   8   4   8
#     4   9  21  40  62  90 135 171 212 272 336 385
#     4  10  21  40  64  90 128 168 212 271 329 389
#     4  11  25  39  68  96 134 178 219 272 335 398
#     4  11  22  40  66  93 129 166 221 272 329 392
#     4  11  22  41  66  96 123 173 220 270 332 393
#     4  11  21  42  64  96 129 169 224 272 318 407
#     4  12  24  42  67  98 134 175 222 275 336 401
#
# _framework density 25.59309
#
# number of rings (size 3 to 8) (size 9 to 14) (size 15 to 20)
#    0.500    0.667    5.833    0.500    7.000    0.667 
#    0.000    0.000    3.667    0.000    0.000    0.000 
#    0.000    0.000    0.000    0.000    0.000    0.000 
#
# Total GULP energy -267709.850886 kJ/mol
# GULP energy per Si atom -5577.288560 kJ/mol
# Density = 2.553484 g / cm^3
# Si number density = 25.593090 Si / 1000 Ang^3
#
#
#
# Elastic Constant Matrix: (Units=GPa)
#
#
# Indices 1 2 3 4 5 6 
#
# 1 59.3123 -10.7746 17.9243 0.0000 0.0000 0.0000
# 2 -10.7746 49.0297 0.2675 0.0000 0.0000 0.0000
# 3 17.9243 0.2675 116.6014 0.0000 0.0000 0.0000
# 4 0.0000 0.0000 0.0000 61.9806 0.0000 0.0000
# 5 0.0000 0.0000 0.0000 0.0000 29.7239 0.0000
# 6 0.0000 0.0000 0.0000 0.0000 0.0000 30.0559
#
#
#
# Elastic Compliance Matrix: (Units=1/GPa)
#
#
# Indices 1 2 3 4 5 6 
#
# 1 0.018460 0.004072 -0.002847 0.000000 0.000000 0.000000
# 2 0.004072 0.021294 -0.000675 0.000000 0.000000 0.000000
# 3 -0.002847 -0.000675 0.009015 0.000000 0.000000 0.000000
# 4 0.000000 0.000000 0.000000 0.016134 0.000000 0.000000
# 5 0.000000 0.000000 0.000000 0.000000 0.033643 0.000000
# 6 0.000000 0.000000 0.000000 0.000000 0.000000 0.033271
#
#
# Mechanical properties :
#
#
# Convention : Reuss Voigt Hill
#
# Bulk Modulus (GPa) = 20.05192 26.64199 23.34695
# Shear Modulus (GPa) = 33.93487 38.85383 36.39435
#
# Velocity S-wave (km/s) = 3.64529 3.90056 3.77508
# Velocity P-wave (km/s) = 5.05663 5.54240 5.30508
#
# Compressibility (1/GPa) = 0.04987053
#
# Stress axis : x y z
#
# Youngs Moduli (GPa) = 54.17097 46.96070 110.92086
#
# Poissons Ratio (x) = -0.19124 0.31580
# Poissons Ratio (y) = -0.22060 0.07486
# Poissons Ratio (z) = 0.15423 0.03169
#
# Static dielectric constant tensor:
#      x y z
#    x 2.293710 0.000000 0.000000 
#    y 0.000000 2.529960 0.000000 
#    z 0.000000 0.000000 2.023470 
# 
# From -- ./inp_files/20953.got.cif
#   From: 2010.05.17/outbox.cif.g08.bks.cpg/sg56_11_cif.got.tgz:20953.got - 2010.06.03 13:42:01.
