data_PCOD9431650
_publ_section_title
;
Structure prediction by ZEFSAII (Michael W. Deem and Ramdas Pophale) SiO2 
 PCOD9431650
Probable space group: P C C N
;
_chemical_formula_sum "Si O2"
_cell_formula_units_Z 60
_cell_length_a 9.896969
_cell_length_b 26.375098
_cell_length_c 9.301795
_cell_angle_alpha 90.000000
_cell_angle_beta 90.000000
_cell_angle_gamma 90.000000
_cell_volume 2428.080359
_symmetry_space_group_name_H-M "P C C N"
_symmetry_group_IT_number 56
_symmetry_cell_setting 'orthorhombic'
loop_
_space_group_symop_operation_xyz
x,y,z
1/2-x,1/2-y,z
1/2+x,-y,1/2-z
-x,1/2+y,1/2-z
-x,-y,-z
1/2+x,1/2+y,-z
1/2-x,y,1/2+z
x,1/2-y,1/2+z
loop_
_atom_site_type_symbol
_atom_site_label
_atom_site_fract_x
_atom_site_fract_y
_atom_site_fract_z
Si Si1 0.908022 0.652474 0.797953
Si Si2 0.479249 0.790560 0.361022
Si Si3 0.688009 0.541196 0.376636
Si Si4 0.590756 0.194418 0.970975
Si Si5 0.424696 0.488435 0.315240
Si Si6 0.250000 0.250000 0.724301
Si Si7 0.163430 0.879717 0.934949
Si Si8 0.344316 0.908675 0.715367
O O1 0.838126 0.597744 0.813665
O O2 0.829925 0.698954 0.719171
O O3 0.053162 0.638472 0.727800
O O4 0.955309 0.670261 0.957798
O O5 0.398287 0.747687 0.445772
O O6 0.429561 0.793504 0.196134
O O7 0.633173 0.775433 0.365378
O O8 0.466600 0.845688 0.426324
O O9 0.587474 0.496839 0.310903
O O10 0.841389 0.530032 0.324465
O O11 0.640285 0.538598 0.544354
O O12 0.715061 0.156973 0.007679
O O13 0.388164 0.548159 0.324317
O O14 0.199966 0.893686 0.774357
O O15 0.152911 0.923778 0.050087
#
# Coordination Sequence:
#
# PCOD9431650 Si02
#       8
#     8   8   8   8   8   4   8   8
#     4   9  22  44  65  91 134 177 223 277 340 406
#     4  11  24  39  61  90 125 176 218 268 326 396
#     4  10  22  44  71 101 139 183 226 296 353 429
#     4  10  23  40  62  90 126 169 219 279 330 391
#     4  10  22  43  69 101 138 177 227 290 362 420
#     4  10  24  46  58  90 130 178 220 264 322 412
#     4  11  21  38  62  94 125 166 220 275 335 397
#     4  10  21  40  66  95 134 169 217 287 342 404
#
# _framework density 24.710881000000001
#
# number of rings (size 3 to 8) (size 9 to 14) (size 15 to 20)
#    0.000    1.867    1.333    1.200    5.600    5.867 
#    7.200    0.000    0.000    0.000    0.000    0.000 
#    0.000    0.000    0.000    0.000    0.000    0.000 
#
# Total GULP energy -334287.974526 kJ/mol
# GULP energy per Si atom -5571.466242 kJ/mol
# Density = 2.465464 g / cm^3
# Si number density = 24.710881 Si / 1000 Ang^3
#
#
#
# Elastic Constant Matrix: (Units=GPa)
#
#
# Indices 1 2 3 4 5 6 
#
# 1 54.4200 16.0530 -13.4659 0.0000 0.0000 0.0000
# 2 16.0530 93.5789 10.2287 0.0000 0.0000 0.0000
# 3 -13.4659 10.2287 96.1307 0.0000 0.0000 0.0000
# 4 0.0000 0.0000 0.0000 52.9485 0.0000 0.0000
# 5 0.0000 0.0000 0.0000 0.0000 7.8034 0.0000
# 6 0.0000 0.0000 0.0000 0.0000 0.0000 38.3443
#
#
#
# Elastic Compliance Matrix: (Units=1/GPa)
#
#
# Indices 1 2 3 4 5 6 
#
# 1 0.020314 -0.003840 0.003254 0.000000 0.000000 0.000000
# 2 -0.003840 0.011538 -0.001766 0.000000 0.000000 0.000000
# 3 0.003254 -0.001766 0.011046 0.000000 0.000000 0.000000
# 4 0.000000 0.000000 0.000000 0.018886 0.000000 0.000000
# 5 0.000000 0.000000 0.000000 0.000000 0.128148 0.000000
# 6 0.000000 0.000000 0.000000 0.000000 0.000000 0.026079
#
#
# Mechanical properties :
#
#
# Convention : Reuss Voigt Hill
#
# Bulk Modulus (GPa) = 26.18209 29.97348 28.07778
# Shear Modulus (GPa) = 21.41811 35.24016 28.32914
#
# Velocity S-wave (km/s) = 2.94725 3.78047 3.38956
# Velocity P-wave (km/s) = 4.71170 5.58676 5.16779
#
# Compressibility (1/GPa) = 0.03819404
#
# Stress axis : x y z
#
# Youngs Moduli (GPa) = 49.22788 86.67032 90.52881
#
# Poissons Ratio (x) = 0.33285 -0.29459
# Poissons Ratio (y) = 0.18906 0.15984
# Poissons Ratio (z) = -0.16019 0.15303
#
# Static dielectric constant tensor:
#      x y z
#    x 2.006060 0.000000 0.000000 
#    y 0.000000 1.754640 0.000000 
#    z 0.000000 0.000000 1.970430 
# 
# From -- ./inp_files/2907.got.cif
#   From: 2010.05.17/outbox.cif.g08.bks.cpg/sg56_2_cif.got.tgz:2907.got - 2010.06.03 13:42:01.
