data_PCOD9431507
_publ_section_title
;
Structure prediction by ZEFSAII (Michael W. Deem and Ramdas Pophale) SiO2 
 PCOD9431507
Probable space group: P C C N
;
_chemical_formula_sum "Si O2"
_cell_formula_units_Z 48
_cell_length_a 8.961382
_cell_length_b 10.580828
_cell_length_c 22.998284
_cell_angle_alpha 90.000000
_cell_angle_beta 90.000000
_cell_angle_gamma 90.000000
_cell_volume 2180.670647
_symmetry_space_group_name_H-M "P C C N"
_symmetry_group_IT_number 56
_symmetry_cell_setting 'orthorhombic'
loop_
_space_group_symop_operation_xyz
x,y,z
1/2-x,1/2-y,z
1/2+x,-y,1/2-z
-x,1/2+y,1/2-z
-x,-y,-z
1/2+x,1/2+y,-z
1/2-x,y,1/2+z
x,1/2-y,1/2+z
loop_
_atom_site_type_symbol
_atom_site_label
_atom_site_fract_x
_atom_site_fract_y
_atom_site_fract_z
Si Si1 0.086454 0.886555 0.030550
Si Si2 0.785818 0.108708 0.225252
Si Si3 0.080740 0.628152 0.982596
Si Si4 0.774907 0.472735 0.352836
Si Si5 0.457819 0.934310 0.853293
Si Si6 0.602472 0.798925 0.290526
O O1 0.123679 0.907899 0.098498
O O2 0.015331 0.751655 0.014392
O O3 0.249006 0.884260 0.001566
O O4 0.000000 0.000000 0.000000
O O5 0.750000 0.250000 0.204794
O O6 0.717582 0.086601 0.288718
O O7 0.696266 0.023240 0.178325
O O8 0.965785 0.112978 0.231622
O O9 0.075768 0.636893 0.913177
O O10 0.000000 0.500000 0.000000
O O11 0.597081 0.472358 0.366964
O O12 0.832053 0.616797 0.343670
O O13 0.530841 0.832872 0.809762
O O14 0.750000 0.750000 0.255976
#
# Coordination Sequence:
#
# PCOD9431507 Si02
#       6
#     8   8   8   8   8   8
#     4  11  26  41  68  98 130 177 230 283 347 410
#     4  10  22  35  63  90 125 167 216 269 340 404
#     4  11  24  44  67  93 134 174 225 280 343 410
#     4  11  21  39  61  91 129 163 217 279 340 393
#     4  10  21  39  61  91 123 172 215 269 330 417
#     4   9  20  37  61  90 124 168 215 269 332 414
#
# _framework density 22.011576999999999
#
# number of rings (size 3 to 8) (size 9 to 14) (size 15 to 20)
#    0.000    1.667    1.667    2.000   11.667    0.667 
#    0.000    0.000    0.000    0.000    0.000    0.000 
#    0.000    0.000    0.000    0.000    0.000    0.000 
#
# Total GULP energy -267371.971157 kJ/mol
# GULP energy per Si atom -5570.249399 kJ/mol
# Density = 2.196148 g / cm^3
# Si number density = 22.011577 Si / 1000 Ang^3
#
#
#
# Elastic Constant Matrix: (Units=GPa)
#
#
# Indices 1 2 3 4 5 6 
#
# 1 99.6182 34.7916 34.6593 0.0000 0.0000 0.0000
# 2 34.7916 103.7260 23.2786 0.0000 0.0000 0.0000
# 3 34.6593 23.2786 114.2639 0.0000 0.0000 0.0000
# 4 0.0000 0.0000 0.0000 26.3661 0.0000 0.0000
# 5 0.0000 0.0000 0.0000 0.0000 28.2409 0.0000
# 6 0.0000 0.0000 0.0000 0.0000 0.0000 35.7945
#
#
#
# Elastic Compliance Matrix: (Units=1/GPa)
#
#
# Indices 1 2 3 4 5 6 
#
# 1 0.012295 -0.003444 -0.003028 0.000000 0.000000 0.000000
# 2 -0.003444 0.011068 -0.001210 0.000000 0.000000 0.000000
# 3 -0.003028 -0.001210 0.009917 0.000000 0.000000 0.000000
# 4 0.000000 0.000000 0.000000 0.037927 0.000000 0.000000
# 5 0.000000 0.000000 0.000000 0.000000 0.035410 0.000000
# 6 0.000000 0.000000 0.000000 0.000000 0.000000 0.027937
#
#
# Mechanical properties :
#
#
# Convention : Reuss Voigt Hill
#
# Bulk Modulus (GPa) = 55.81954 55.89637 55.85795
# Shear Modulus (GPa) = 32.07415 33.07220 32.57318
#
# Velocity S-wave (km/s) = 3.82140 3.88040 3.85102
# Velocity P-wave (km/s) = 6.69963 6.74729 6.72350
#
# Compressibility (1/GPa) = 0.01791487
#
# Stress axis : x y z
#
# Youngs Moduli (GPa) = 81.33627 90.35343 100.84178
#
# Poissons Ratio (x) = 0.31121 0.30531
# Poissons Ratio (y) = 0.28015 0.12202
# Poissons Ratio (z) = 0.24625 0.10933
#
# Static dielectric constant tensor:
#      x y z
#    x 1.930440 0.000000 0.000000 
#    y 0.000000 1.915350 0.000000 
#    z 0.000000 0.000000 1.815090 
# 
# From -- ./inp_files/20502.got.cif
#   From: 2010.05.17/outbox.cif.g08.bks.cpg/sg56_11_cif.got.tgz:20502.got - 2010.06.03 13:42:01.
