data_PCOD9431145
_publ_section_title
;
Structure prediction by ZEFSAII (Michael W. Deem and Ramdas Pophale) SiO2 
 PCOD9431145
Probable space group: P C C N
;
_chemical_formula_sum "Si O2"
_cell_formula_units_Z 32
_cell_length_a 13.525315
_cell_length_b 5.007710
_cell_length_c 20.641820
_cell_angle_alpha 90.000000
_cell_angle_beta 90.000000
_cell_angle_gamma 90.000000
_cell_volume 1398.088121
_symmetry_space_group_name_H-M "P C C N"
_symmetry_group_IT_number 56
_symmetry_cell_setting 'orthorhombic'
loop_
_space_group_symop_operation_xyz
x,y,z
1/2-x,1/2-y,z
1/2+x,-y,1/2-z
-x,1/2+y,1/2-z
-x,-y,-z
1/2+x,1/2+y,-z
1/2-x,y,1/2+z
x,1/2-y,1/2+z
loop_
_atom_site_type_symbol
_atom_site_label
_atom_site_fract_x
_atom_site_fract_y
_atom_site_fract_z
Si Si1 0.750000 0.250000 0.524803
Si Si2 0.925388 0.629712 0.339475
Si Si3 0.887000 0.085822 0.701430
Si Si4 0.128358 0.426183 0.370104
Si Si5 0.750000 0.750000 0.436838
O O1 0.828697 0.410045 0.569597
O O2 0.716174 0.495366 0.479663
O O3 0.879255 0.512974 0.273935
O O4 0.841934 0.682463 0.391135
O O5 0.009152 0.441229 0.371517
O O6 0.995717 0.873769 0.315256
O O7 0.845951 0.875862 0.648390
O O8 0.846372 0.382553 0.690836
#
# Coordination Sequence:
#
# PCOD9431145 Si02
#       5
#     4   8   8   8   4
#     4  12  28  46  56 100 128 188 228 254 306 404
#     4  10  23  43  67 102 127 165 210 283 333 398
#     4  10  20  41  69 100 120 163 211 272 347 386
#     4  10  22  41  69  87 135 164 220 264 321 388
#     4  12  30  40  66  92 138 170 228 262 326 378
#
# _framework density 22.888401999999999
#
# number of rings (size 3 to 8) (size 9 to 14) (size 15 to 20)
#    1.500    0.000    2.500    1.500    3.500    4.000 
#    0.000    0.000    0.000    0.000    0.000    0.000 
#    0.000    0.000    0.000    0.000    0.000    0.000 
#
# Total GULP energy -178501.757743 kJ/mol
# GULP energy per Si atom -5578.179929 kJ/mol
# Density = 2.283631 g / cm^3
# Si number density = 22.888402 Si / 1000 Ang^3
#
#
#
# Elastic Constant Matrix: (Units=GPa)
#
#
# Indices 1 2 3 4 5 6 
#
# 1 57.0621 16.3132 27.4040 0.0000 0.0000 0.0000
# 2 16.3132 134.5709 46.0957 0.0000 0.0000 0.0000
# 3 27.4040 46.0957 114.5721 0.0000 0.0000 0.0000
# 4 0.0000 0.0000 0.0000 37.8821 0.0000 0.0000
# 5 0.0000 0.0000 0.0000 0.0000 2.5107 0.0000
# 6 0.0000 0.0000 0.0000 0.0000 0.0000 39.7098
#
#
#
# Elastic Compliance Matrix: (Units=1/GPa)
#
#
# Indices 1 2 3 4 5 6 
#
# 1 0.019894 -0.000907 -0.004394 0.000000 0.000000 0.000000
# 2 -0.000907 0.008660 -0.003267 0.000000 0.000000 0.000000
# 3 -0.004394 -0.003267 0.011094 0.000000 0.000000 0.000000
# 4 0.000000 0.000000 0.000000 0.026398 0.000000 0.000000
# 5 0.000000 0.000000 0.000000 0.000000 0.398296 0.000000
# 6 0.000000 0.000000 0.000000 0.000000 0.000000 0.025183
#
#
# Mechanical properties :
#
#
# Convention : Reuss Voigt Hill
#
# Bulk Modulus (GPa) = 44.41983 53.98121 49.20052
# Shear Modulus (GPa) = 9.72454 30.44665 20.08560
#
# Velocity S-wave (km/s) = 2.06347 3.65118 2.96555
# Velocity P-wave (km/s) = 5.01263 6.43510 5.76788
#
# Compressibility (1/GPa) = 0.02251247
#
# Stress axis : x y z
#
# Youngs Moduli (GPa) = 50.26652 115.47164 90.14242
#
# Poissons Ratio (x) = 0.10469 0.39605
# Poissons Ratio (y) = 0.04557 0.29453
# Poissons Ratio (z) = 0.22085 0.37729
#
# Static dielectric constant tensor:
#      x y z
#    x 2.063800 0.000000 0.000000 
#    y 0.000000 1.873410 0.000000 
#    z 0.000000 0.000000 1.818780 
# 
# From -- ./inp_files/15994.got.cif
#   From: 2010.05.17/outbox.cif.g08.bks.cpg/sg56_8_cif.got.tgz:15994.got - 2010.06.03 13:42:01.
