data_PCOD9431037
_publ_section_title
;
Structure prediction by ZEFSAII (Michael W. Deem and Ramdas Pophale) SiO2 
 PCOD9431037
Probable space group: P C C N
;
_chemical_formula_sum "Si O2"
_cell_formula_units_Z 60
_cell_length_a 28.312104
_cell_length_b 11.098474
_cell_length_c 9.192364
_cell_angle_alpha 90.000000
_cell_angle_beta 90.000000
_cell_angle_gamma 90.000000
_cell_volume 2888.435188
_symmetry_space_group_name_H-M "P C C N"
_symmetry_group_IT_number 56
_symmetry_cell_setting 'orthorhombic'
loop_
_space_group_symop_operation_xyz
x,y,z
1/2-x,1/2-y,z
1/2+x,-y,1/2-z
-x,1/2+y,1/2-z
-x,-y,-z
1/2+x,1/2+y,-z
1/2-x,y,1/2+z
x,1/2-y,1/2+z
loop_
_atom_site_type_symbol
_atom_site_label
_atom_site_fract_x
_atom_site_fract_y
_atom_site_fract_z
Si Si1 0.067688 0.508044 0.436469
Si Si2 0.057757 0.892470 0.457999
Si Si3 0.134375 0.404047 0.032446
Si Si4 0.750000 0.250000 0.662242
Si Si5 0.809339 0.133570 0.406784
Si Si6 0.595531 0.300444 0.267678
Si Si7 0.904371 0.759513 0.194631
Si Si8 0.471346 0.043710 0.721723
O O1 0.103520 0.583863 0.338369
O O2 0.074523 0.367789 0.401906
O O3 0.065519 0.520446 0.609503
O O4 0.018220 0.557323 0.372580
O O5 0.082609 0.803151 0.344184
O O6 0.054091 0.823138 0.611334
O O7 0.092053 0.002424 0.498472
O O8 0.018078 0.956908 0.359051
O O9 0.177083 0.494136 0.066984
O O10 0.134591 0.316737 0.893703
O O11 0.118692 0.321701 0.166290
O O12 0.787506 0.188109 0.553944
O O13 0.725843 0.155056 0.772048
O O14 0.856797 0.206935 0.361413
O O15 0.946509 0.667745 0.234778
#
# Coordination Sequence:
#
# PCOD9431037 Si02
#       8
#     8   8   8   4   8   8   8   8
#     4  11  22  39  57  86 119 172 210 279 313 364
#     4  10  21  37  54  88 119 162 207 264 305 366
#     4  10  21  39  65  86 123 160 216 246 303 365
#     4  10  22  38  70  96 140 144 184 244 328 384
#     4  10  20  40  62 101 121 166 185 249 309 387
#     4  11  21  37  61  87 126 155 213 251 316 369
#     4  11  20  41  59  86 116 175 212 264 301 358
#     4  10  24  37  55  82 125 163 224 265 325 349
#
# _framework density 20.772490999999999
#
# number of rings (size 3 to 8) (size 9 to 14) (size 15 to 20)
#    0.000    1.600    4.000    2.400    1.867    0.533 
#    0.000    4.000    0.000    2.400    0.000    0.000 
#    0.000    0.000    0.000    0.000    0.000    0.000 
#
# Total GULP energy -334829.776370 kJ/mol
# GULP energy per Si atom -5580.496273 kJ/mol
# Density = 2.072521 g / cm^3
# Si number density = 20.772491 Si / 1000 Ang^3
#
#
#
# Elastic Constant Matrix: (Units=GPa)
#
#
# Indices 1 2 3 4 5 6 
#
# 1 44.4435 30.8862 20.9695 0.0000 0.0000 0.0000
# 2 30.8862 116.5906 71.6528 0.0000 0.0000 0.0000
# 3 20.9695 71.6528 150.2247 0.0000 0.0000 0.0000
# 4 0.0000 0.0000 0.0000 51.2802 0.0000 0.0000
# 5 0.0000 0.0000 0.0000 0.0000 32.3205 0.0000
# 6 0.0000 0.0000 0.0000 0.0000 0.0000 26.6036
#
#
#
# Elastic Compliance Matrix: (Units=1/GPa)
#
#
# Indices 1 2 3 4 5 6 
#
# 1 0.027606 -0.006996 -0.000517 0.000000 0.000000 0.000000
# 2 -0.006996 0.013907 -0.005657 0.000000 0.000000 0.000000
# 3 -0.000517 -0.005657 0.009427 0.000000 0.000000 0.000000
# 4 0.000000 0.000000 0.000000 0.019501 0.000000 0.000000
# 5 0.000000 0.000000 0.000000 0.000000 0.030940 0.000000
# 6 0.000000 0.000000 0.000000 0.000000 0.000000 0.037589
#
#
# Mechanical properties :
#
#
# Convention : Reuss Voigt Hill
#
# Bulk Modulus (GPa) = 40.64781 62.03064 51.33923
# Shear Modulus (GPa) = 28.81728 34.55756 31.68742
#
# Velocity S-wave (km/s) = 3.72866 4.08318 3.90994
# Velocity P-wave (km/s) = 6.17639 7.22195 6.71954
#
# Compressibility (1/GPa) = 0.02460157
#
# Stress axis : x y z
#
# Youngs Moduli (GPa) = 36.22420 71.90866 106.08027
#
# Poissons Ratio (x) = 0.50304 0.05482
# Poissons Ratio (y) = 0.25341 0.60004
# Poissons Ratio (z) = 0.01872 0.40675
#
# Static dielectric constant tensor:
#      x y z
#    x 1.785160 0.000000 0.000000 
#    y 0.000000 1.786450 0.000000 
#    z 0.000000 0.000000 1.810010 
# 
# From -- ./inp_files/5184.got.cif
#   From: 2010.05.17/outbox.cif.g08.bks.cpg/sg56_3_cif.got.tgz:5184.got - 2010.06.03 13:42:01.
