data_PCOD9431664
_publ_section_title
;
Structure prediction by ZEFSAII (Michael W. Deem and Ramdas Pophale) SiO2 
 PCOD9431664
Probable space group: P C C N
;
_chemical_formula_sum "Si O2"
_cell_formula_units_Z 64
_cell_length_a 8.975518
_cell_length_b 11.079773
_cell_length_c 32.233298
_cell_angle_alpha 90.000000
_cell_angle_beta 90.000000
_cell_angle_gamma 90.000000
_cell_volume 3205.495181
_symmetry_space_group_name_H-M "P C C N"
_symmetry_group_IT_number 56
_symmetry_cell_setting 'orthorhombic'
loop_
_space_group_symop_operation_xyz
x,y,z
1/2-x,1/2-y,z
1/2+x,-y,1/2-z
-x,1/2+y,1/2-z
-x,-y,-z
1/2+x,1/2+y,-z
1/2-x,y,1/2+z
x,1/2-y,1/2+z
loop_
_atom_site_type_symbol
_atom_site_label
_atom_site_fract_x
_atom_site_fract_y
_atom_site_fract_z
Si Si1 0.076773 0.752741 0.820400
Si Si2 0.805025 0.113851 0.886641
Si Si3 0.079360 0.755525 0.419138
Si Si4 0.021505 0.002971 0.950541
Si Si5 0.415989 0.003975 0.056442
Si Si6 0.153436 0.128791 0.738732
Si Si7 0.195127 0.386369 0.975899
Si Si8 0.924634 0.008317 0.800869
O O1 0.250000 0.750000 0.806151
O O2 0.076089 0.732554 0.869601
O O3 0.963467 0.660965 0.797998
O O4 0.007813 0.883703 0.811594
O O5 0.750000 0.250000 0.883828
O O6 0.920688 0.093696 0.924243
O O7 0.667639 0.031382 0.901836
O O8 0.873779 0.070719 0.843437
O O9 0.250000 0.750000 0.433362
O O10 0.001915 0.631318 0.432689
O O11 0.004465 0.872271 0.438145
O O12 0.190862 0.048521 0.944915
O O13 0.000000 0.000000 0.000000
O O14 0.529258 0.899499 0.042227
O O15 0.307806 0.036295 0.018335
O O16 0.250000 0.250000 0.747966
O O17 0.275717 0.028784 0.725041
O O18 0.044966 0.086895 0.775648
O O19 0.250000 0.250000 0.982756
#
# Coordination Sequence:
#
# PCOD9431664 Si02
#       8
#     8   8   8   8   8   8   8   8
#     4  10  21  40  68 100 131 169 225 283 340 412
#     4  12  27  44  65  99 140 180 227 283 345 409
#     4  11  22  40  67  95 128 169 228 285 331 395
#     4  12  23  42  65  95 134 183 226 280 338 394
#     4  11  24  42  63  94 125 176 230 282 338 395
#     4  10  23  42  71 103 135 177 226 280 344 424
#     4  11  23  41  62  91 129 175 231 281 338 400
#     4  11  23  44  67 102 139 177 223 278 353 417
#
# _framework density 19.965713999999998
#
# number of rings (size 3 to 8) (size 9 to 14) (size 15 to 20)
#    0.000    1.000    3.750    3.000    0.000    4.000 
#    0.000    4.375    0.000    0.000    0.000    0.000 
#    0.000    0.000    0.000    0.000    0.000    0.000 
#
# Total GULP energy -357552.566034 kJ/mol
# GULP energy per Si atom -5586.758844 kJ/mol
# Density = 1.992027 g / cm^3
# Si number density = 19.965714 Si / 1000 Ang^3
#
#
#
# Elastic Constant Matrix: (Units=GPa)
#
#
# Indices 1 2 3 4 5 6 
#
# 1 138.8461 54.8789 59.6579 0.0000 0.0000 0.0000
# 2 54.8789 90.3932 36.2393 0.0000 0.0000 0.0000
# 3 59.6579 36.2393 105.4473 0.0000 0.0000 0.0000
# 4 0.0000 0.0000 0.0000 20.0372 0.0000 0.0000
# 5 0.0000 0.0000 0.0000 0.0000 40.7662 0.0000
# 6 0.0000 0.0000 0.0000 0.0000 0.0000 37.8556
#
#
#
# Elastic Compliance Matrix: (Units=1/GPa)
#
#
# Indices 1 2 3 4 5 6 
#
# 1 0.011120 -0.004904 -0.004605 0.000000 0.000000 0.000000
# 2 -0.004904 0.014994 -0.002378 0.000000 0.000000 0.000000
# 3 -0.004605 -0.002378 0.012906 0.000000 0.000000 0.000000
# 4 0.000000 0.000000 0.000000 0.049907 0.000000 0.000000
# 5 0.000000 0.000000 0.000000 0.000000 0.024530 0.000000
# 6 0.000000 0.000000 0.000000 0.000000 0.000000 0.026416
#
#
# Mechanical properties :
#
#
# Convention : Reuss Voigt Hill
#
# Bulk Modulus (GPa) = 65.60219 70.69319 68.14769
# Shear Modulus (GPa) = 29.63308 31.99249 30.81278
#
# Velocity S-wave (km/s) = 3.85671 4.00731 3.93273
# Velocity P-wave (km/s) = 7.26368 7.54291 7.40461
#
# Compressibility (1/GPa) = 0.01524339
#
# Stress axis : x y z
#
# Youngs Moduli (GPa) = 89.93196 66.69436 77.48141
#
# Poissons Ratio (x) = 0.32710 0.35684
# Poissons Ratio (y) = 0.44107 0.18427
# Poissons Ratio (z) = 0.41418 0.15861
#
# Static dielectric constant tensor:
#      x y z
#    x 1.770210 0.000000 0.000000 
#    y 0.000000 1.688600 0.000000 
#    z 0.000000 0.000000 1.679200 
# 
# From -- ./inp_files/23380.got.cif
#   From: 2010.05.17/outbox.cif.g08.bks.cpg/sg56_12_cif.got.tgz:23380.got - 2010.06.03 13:42:01.
