data_PCOD9431733
_publ_section_title
;
Structure prediction by ZEFSAII (Michael W. Deem and Ramdas Pophale) SiO2 
 PCOD9431733
Probable space group: P C C N
;
_chemical_formula_sum "Si O2"
_cell_formula_units_Z 28
_cell_length_a 5.402275
_cell_length_b 7.601291
_cell_length_c 34.333643
_cell_angle_alpha 90.000000
_cell_angle_beta 90.000000
_cell_angle_gamma 90.000000
_cell_volume 1409.885792
_symmetry_space_group_name_H-M "P C C N"
_symmetry_group_IT_number 56
_symmetry_cell_setting 'orthorhombic'
loop_
_space_group_symop_operation_xyz
x,y,z
1/2-x,1/2-y,z
1/2+x,-y,1/2-z
-x,1/2+y,1/2-z
-x,-y,-z
1/2+x,1/2+y,-z
1/2-x,y,1/2+z
x,1/2-y,1/2+z
loop_
_atom_site_type_symbol
_atom_site_label
_atom_site_fract_x
_atom_site_fract_y
_atom_site_fract_z
Si Si1 0.498777 0.635032 0.535254
Si Si2 0.594241 0.592270 0.306428
Si Si3 0.996422 0.866897 0.622480
Si Si4 0.250000 0.750000 0.240933
O O1 0.750000 0.750000 0.533276
O O2 0.500000 0.500000 0.500000
O O3 0.487207 0.554539 0.578942
O O4 0.250000 0.750000 0.531763
O O5 0.750000 0.750000 0.324691
O O6 0.456647 0.505089 0.342778
O O7 0.462989 0.694046 0.270910
O O8 0.711181 0.421213 0.285561
O O9 0.750000 0.750000 0.623107
O O10 0.250000 0.750000 0.628383
#
# Coordination Sequence:
#
# PCOD9431733 Si02
#       4
#     8   8   8   4
#     4  10  21  41  66  97 130 170 210 262 321 381
#     4  12  26  42  64  92 127 174 220 269 331 385
#     4  10  24  43  66  93 132 172 214 269 323 383
#     4  12  26  42  62  92 126 166 226 274 322 384
#
# _framework density 19.859766
#
# number of rings (size 3 to 8) (size 9 to 14) (size 15 to 20)
#    0.000    1.143    4.286    0.857    8.000    1.143 
#    2.571    0.000    0.000    0.000    0.000    0.000 
#    0.000    0.000    0.000    0.000    0.000    0.000 
#
# Total GULP energy -155992.066038 kJ/mol
# GULP energy per Si atom -5571.145216 kJ/mol
# Density = 1.981456 g / cm^3
# Si number density = 19.859766 Si / 1000 Ang^3
#
#
#
# Elastic Constant Matrix: (Units=GPa)
#
#
# Indices 1 2 3 4 5 6 
#
# 1 92.5507 17.7021 14.7156 0.0000 0.0000 0.0000
# 2 17.7021 79.9677 39.5558 0.0000 0.0000 0.0000
# 3 14.7156 39.5558 144.1438 0.0000 0.0000 0.0000
# 4 0.0000 0.0000 0.0000 190.4381 0.0000 0.0000
# 5 0.0000 0.0000 0.0000 0.0000 33.2345 0.0000
# 6 0.0000 0.0000 0.0000 0.0000 0.0000 21.4682
#
#
#
# Elastic Compliance Matrix: (Units=1/GPa)
#
#
# Indices 1 2 3 4 5 6 
#
# 1 0.011319 -0.002238 -0.000541 0.000000 0.000000 0.000000
# 2 -0.002238 0.014912 -0.003864 0.000000 0.000000 0.000000
# 3 -0.000541 -0.003864 0.008053 0.000000 0.000000 0.000000
# 4 0.000000 0.000000 0.000000 0.005251 0.000000 0.000000
# 5 0.000000 0.000000 0.000000 0.000000 0.030089 0.000000
# 6 0.000000 0.000000 0.000000 0.000000 0.000000 0.046581
#
#
# Mechanical properties :
#
#
# Convention : Reuss Voigt Hill
#
# Bulk Modulus (GPa) = 47.62375 51.17879 49.40127
# Shear Modulus (GPa) = 36.63292 65.34074 50.98683
#
# Velocity S-wave (km/s) = 4.29952 5.74217 5.07239
# Velocity P-wave (km/s) = 6.97710 8.35400 7.69640
#
# Compressibility (1/GPa) = 0.02099793
#
# Stress axis : x y z
#
# Youngs Moduli (GPa) = 88.34704 67.06223 124.17697
#
# Poissons Ratio (x) = 0.15007 0.06724
# Poissons Ratio (y) = 0.19770 0.47976
# Poissons Ratio (z) = 0.04784 0.25910
#
# Static dielectric constant tensor:
#      x y z
#    x 1.762200 0.000000 0.000000 
#    y 0.000000 1.424650 0.000000 
#    z 0.000000 0.000000 1.711980 
# 
# From -- ./inp_files/22648.got.cif
#   From: 2010.05.17/outbox.cif.g08.bks.cpg/sg56_12_cif.got.tgz:22648.got - 2010.06.03 13:42:01.
