data_PCOD9431817
_publ_section_title
;
Structure prediction by ZEFSAII (Michael W. Deem and Ramdas Pophale) SiO2 
 PCOD9431817
Probable space group: P C C N
;
_chemical_formula_sum "Si O2"
_cell_formula_units_Z 60
_cell_length_a 22.845133
_cell_length_b 9.184589
_cell_length_c 13.543873
_cell_angle_alpha 90.000000
_cell_angle_beta 90.000000
_cell_angle_gamma 90.000000
_cell_volume 2841.818194
_symmetry_space_group_name_H-M "P C C N"
_symmetry_group_IT_number 56
_symmetry_cell_setting 'orthorhombic'
loop_
_space_group_symop_operation_xyz
x,y,z
1/2-x,1/2-y,z
1/2+x,-y,1/2-z
-x,1/2+y,1/2-z
-x,-y,-z
1/2+x,1/2+y,-z
1/2-x,y,1/2+z
x,1/2-y,1/2+z
loop_
_atom_site_type_symbol
_atom_site_label
_atom_site_fract_x
_atom_site_fract_y
_atom_site_fract_z
Si Si1 0.493166 0.559859 0.825489
Si Si2 0.768536 0.444620 0.495203
Si Si3 0.646608 0.585742 0.317818
Si Si4 0.622307 0.968640 0.601593
Si Si5 0.750000 0.750000 0.397019
Si Si6 0.529652 0.229766 0.875134
Si Si7 0.932200 0.738163 0.961863
Si Si8 0.835058 0.299701 0.915222
O O1 0.435314 0.568687 0.895022
O O2 0.515435 0.393213 0.834557
O O3 0.477821 0.618015 0.716463
O O4 0.540203 0.665466 0.874808
O O5 0.816836 0.450430 0.581303
O O6 0.758314 0.609026 0.463654
O O7 0.704492 0.370359 0.504302
O O8 0.802481 0.355057 0.408628
O O9 0.620450 0.599292 0.210247
O O10 0.694764 0.709721 0.330828
O O11 0.601839 0.608832 0.408216
O O12 0.672293 0.423276 0.331558
O O13 0.611836 0.843488 0.521363
O O14 0.482395 0.195889 0.960330
O O15 0.595694 0.226239 0.917292
#
# Coordination Sequence:
#
# PCOD9431817 Si02
#       8
#     8   8   8   8   4   8   8   8
#     4  11  23  41  67 100 137 181 228 285 345 415
#     4  10  21  42  72  90 129 179 221 279 351 402
#     4  11  23  42  66  99 135 170 227 286 331 417
#     4  11  21  42  67  98 130 173 228 280 346 404
#     4  10  22  42  70  94 124 174 222 280 336 418
#     4  11  23  42  67 100 137 182 226 284 341 425
#     4  11  22  40  69  94 136 182 225 278 347 408
#     4  10  22  43  63  96 133 172 220 285 343 398
#
# _framework density 21.113243000000001
#
# number of rings (size 3 to 8) (size 9 to 14) (size 15 to 20)
#    0.000    1.333    2.667    4.800    0.000    1.067 
#    2.400    5.333    0.000    0.000    0.000    0.000 
#    0.000    0.000    0.000    0.000    0.000    0.000 
#
# Total GULP energy -334634.503664 kJ/mol
# GULP energy per Si atom -5577.241728 kJ/mol
# Density = 2.106519 g / cm^3
# Si number density = 21.113243 Si / 1000 Ang^3
#
#
#
# Elastic Constant Matrix: (Units=GPa)
#
#
# Indices 1 2 3 4 5 6 
#
# 1 132.5937 46.2340 46.9037 0.0000 0.0000 0.0000
# 2 46.2340 108.1271 32.0826 0.0000 0.0000 0.0000
# 3 46.9037 32.0826 81.2751 0.0000 0.0000 0.0000
# 4 0.0000 0.0000 0.0000 29.6746 0.0000 0.0000
# 5 0.0000 0.0000 0.0000 0.0000 28.8468 0.0000
# 6 0.0000 0.0000 0.0000 0.0000 0.0000 38.9943
#
#
#
# Elastic Compliance Matrix: (Units=1/GPa)
#
#
# Indices 1 2 3 4 5 6 
#
# 1 0.010259 -0.002979 -0.004744 0.000000 0.000000 0.000000
# 2 -0.002979 0.011340 -0.002757 0.000000 0.000000 0.000000
# 3 -0.004744 -0.002757 0.016130 0.000000 0.000000 0.000000
# 4 0.000000 0.000000 0.000000 0.033699 0.000000 0.000000
# 5 0.000000 0.000000 0.000000 0.000000 0.034666 0.000000
# 6 0.000000 0.000000 0.000000 0.000000 0.000000 0.025645
#
#
# Mechanical properties :
#
#
# Convention : Reuss Voigt Hill
#
# Bulk Modulus (GPa) = 59.63719 63.60406 61.62063
# Shear Modulus (GPa) = 31.58766 32.62152 32.10459
#
# Velocity S-wave (km/s) = 3.87215 3.93501 3.90370
# Velocity P-wave (km/s) = 6.94975 7.12996 7.04043
#
# Compressibility (1/GPa) = 0.01676806
#
# Stress axis : x y z
#
# Youngs Moduli (GPa) = 97.47692 88.18158 61.99484
#
# Poissons Ratio (x) = 0.26268 0.29413
# Poissons Ratio (y) = 0.29037 0.17094
# Poissons Ratio (z) = 0.46248 0.24315
#
# Static dielectric constant tensor:
#      x y z
#    x 1.844160 0.000000 0.000000 
#    y 0.000000 1.792150 0.000000 
#    z 0.000000 0.000000 1.740040 
# 
# From -- ./inp_files/13245.got.cif
#   From: 2010.05.17/outbox.cif.g08.bks.cpg/sg56_7_cif.got.tgz:13245.got - 2010.06.03 13:42:01.
