data_PCOD9431925
_publ_section_title
;
Structure prediction by ZEFSAII (Michael W. Deem and Ramdas Pophale) SiO2 
 PCOD9431925
Probable space group: P C C N
;
_chemical_formula_sum "Si O2"
_cell_formula_units_Z 48
_cell_length_a 11.562253
_cell_length_b 11.678115
_cell_length_c 15.677226
_cell_angle_alpha 90.000000
_cell_angle_beta 90.000000
_cell_angle_gamma 90.000000
_cell_volume 2116.822460
_symmetry_space_group_name_H-M "P C C N"
_symmetry_group_IT_number 56
_symmetry_cell_setting 'orthorhombic'
loop_
_space_group_symop_operation_xyz
x,y,z
1/2-x,1/2-y,z
1/2+x,-y,1/2-z
-x,1/2+y,1/2-z
-x,-y,-z
1/2+x,1/2+y,-z
1/2-x,y,1/2+z
x,1/2-y,1/2+z
loop_
_atom_site_type_symbol
_atom_site_label
_atom_site_fract_x
_atom_site_fract_y
_atom_site_fract_z
Si Si1 0.330485 0.145393 0.278917
Si Si2 0.434355 0.798687 0.798201
Si Si3 0.194919 0.595215 0.342941
Si Si4 0.433360 0.215346 0.031114
Si Si5 0.262135 0.417368 0.090885
Si Si6 0.589935 0.103614 0.477235
O O1 0.250000 0.250000 0.306596
O O2 0.465279 0.171881 0.267013
O O3 0.285005 0.106784 0.185330
O O4 0.317405 0.039245 0.340343
O O5 0.404503 0.663990 0.792435
O O6 0.314113 0.865826 0.800222
O O7 0.484774 0.823188 0.892154
O O8 0.169828 0.630310 0.440224
O O9 0.357199 0.320088 0.070078
O O10 0.340927 0.112012 0.022735
O O11 0.513912 0.281172 0.962349
O O12 0.321859 0.541339 0.086766
O O13 0.500000 0.000000 0.500000
#
# Coordination Sequence:
#
# PCOD9431925 Si02
#       6
#     8   8   8   8   8   8
#     4  11  21  36  59  85 117 160 202 238 295 361
#     4   9  19  37  58  80 116 158 189 241 293 359
#     4  10  22  36  59  88 116 152 200 246 299 347
#     4   8  14  30  52  75 104 145 188 227 283 356
#     4   9  15  31  55  76 107 149 195 223 289 358
#     4   9  18  32  55  80 108 145 195 243 287 347
#
# _framework density 22.675497
#
# number of rings (size 3 to 8) (size 9 to 14) (size 15 to 20)
#    0.000    2.667    3.333    0.000    2.333    0.000 
#    6.000    3.333    0.000   18.000    0.000    0.000 
#    0.000    0.000    0.000    0.000    0.000    0.000 
#
# Total GULP energy -267468.346263 kJ/mol
# GULP energy per Si atom -5572.257214 kJ/mol
# Density = 2.262389 g / cm^3
# Si number density = 22.675497 Si / 1000 Ang^3
#
#
#
# Elastic Constant Matrix: (Units=GPa)
#
#
# Indices 1 2 3 4 5 6 
#
# 1 101.4071 18.7394 14.0586 0.0000 0.0000 0.0000
# 2 18.7394 32.5057 8.2146 0.0000 0.0000 0.0000
# 3 14.0586 8.2146 37.2713 0.0000 0.0000 0.0000
# 4 0.0000 0.0000 0.0000 13.1108 0.0000 0.0000
# 5 0.0000 0.0000 0.0000 0.0000 4.6244 0.0000
# 6 0.0000 0.0000 0.0000 0.0000 0.0000 23.4871
#
#
#
# Elastic Compliance Matrix: (Units=1/GPa)
#
#
# Indices 1 2 3 4 5 6 
#
# 1 0.011346 -0.005782 -0.003006 0.000000 0.000000 0.000000
# 2 -0.005782 0.035524 -0.005649 0.000000 0.000000 0.000000
# 3 -0.003006 -0.005649 0.029209 0.000000 0.000000 0.000000
# 4 0.000000 0.000000 0.000000 0.076273 0.000000 0.000000
# 5 0.000000 0.000000 0.000000 0.000000 0.216243 0.000000
# 6 0.000000 0.000000 0.000000 0.000000 0.000000 0.042577
#
#
# Mechanical properties :
#
#
# Convention : Reuss Voigt Hill
#
# Bulk Modulus (GPa) = 21.18290 28.13437 24.65864
# Shear Modulus (GPa) = 10.97021 16.92259 13.94640
#
# Velocity S-wave (km/s) = 2.20191 2.73480 2.48270
# Velocity P-wave (km/s) = 3.97827 4.73355 4.37225
#
# Compressibility (1/GPa) = 0.04720788
#
# Stress axis : x y z
#
# Youngs Moduli (GPa) = 88.13443 28.14963 34.23611
#
# Poissons Ratio (x) = 0.16275 0.10290
# Poissons Ratio (y) = 0.50956 0.19339
# Poissons Ratio (z) = 0.26489 0.15901
#
# Static dielectric constant tensor:
#      x y z
#    x 1.901000 0.000000 0.000000 
#    y 0.000000 1.838270 0.000000 
#    z 0.000000 0.000000 1.866020 
# 
# From -- ./inp_files/18664.got.cif
#   From: 2010.05.17/outbox.cif.g08.bks.cpg/sg56_10_cif.got.tgz:18664.got - 2010.06.03 13:42:01.
