data_PCOD9431680
_publ_section_title
;
Structure prediction by ZEFSAII (Michael W. Deem and Ramdas Pophale) SiO2 
 PCOD9431680
Probable space group: P C C N
;
_chemical_formula_sum "Si O2"
_cell_formula_units_Z 40
_cell_length_a 7.829860
_cell_length_b 17.281145
_cell_length_c 12.092298
_cell_angle_alpha 90.000000
_cell_angle_beta 90.000000
_cell_angle_gamma 90.000000
_cell_volume 1636.196097
_symmetry_space_group_name_H-M "P C C N"
_symmetry_group_IT_number 56
_symmetry_cell_setting 'orthorhombic'
loop_
_space_group_symop_operation_xyz
x,y,z
1/2-x,1/2-y,z
1/2+x,-y,1/2-z
-x,1/2+y,1/2-z
-x,-y,-z
1/2+x,1/2+y,-z
1/2-x,y,1/2+z
x,1/2-y,1/2+z
loop_
_atom_site_type_symbol
_atom_site_label
_atom_site_fract_x
_atom_site_fract_y
_atom_site_fract_z
Si Si1 0.944207 0.762562 0.183791
Si Si2 0.419103 0.959233 0.323752
Si Si3 0.612466 0.391117 0.392034
Si Si4 0.484830 0.399231 0.953750
Si Si5 0.643548 0.330682 0.616873
O O1 0.750000 0.750000 0.212904
O O2 0.062974 0.688092 0.170427
O O3 0.942429 0.811309 0.070536
O O4 0.024408 0.810451 0.282423
O O5 0.457871 0.955152 0.193328
O O6 0.545166 0.926610 0.420549
O O7 0.266869 0.898509 0.339675
O O8 0.385398 0.044671 0.369801
O O9 0.813335 0.405098 0.419061
O O10 0.545217 0.369735 0.513829
O O11 0.750000 0.250000 0.587554
#
# Coordination Sequence:
#
# PCOD9431680 Si02
#       5
#     8   8   8   8   8
#     4  12  25  42  68 100 141 180 232 281 332 413
#     4  10  21  40  74  98 133 172 227 286 341 414
#     4  11  22  42  73  96 129 180 222 282 336 406
#     4  10  22  43  70 102 132 177 225 279 352 401
#     4  11  21  41  69  99 132 178 232 277 342 399
#
# _framework density 24.446947999999999
#
# number of rings (size 3 to 8) (size 9 to 14) (size 15 to 20)
#    0.000    1.200    4.000    3.000    0.000    2.400 
#    0.000    1.000    0.000    0.000    0.000    0.000 
#    0.000    0.000    0.000    0.000    0.000    0.000 
#
# Total GULP energy -223217.632679 kJ/mol
# GULP energy per Si atom -5580.440817 kJ/mol
# Density = 2.439131 g / cm^3
# Si number density = 24.446948 Si / 1000 Ang^3
#
#
#
# Elastic Constant Matrix: (Units=GPa)
#
#
# Indices 1 2 3 4 5 6 
#
# 1 65.4668 29.6488 9.0062 0.0000 0.0000 0.0000
# 2 29.6488 59.9169 -8.2176 0.0000 0.0000 0.0000
# 3 9.0062 -8.2176 99.8297 0.0000 0.0000 0.0000
# 4 0.0000 0.0000 0.0000 39.5014 0.0000 0.0000
# 5 0.0000 0.0000 0.0000 0.0000 14.2483 0.0000
# 6 0.0000 0.0000 0.0000 0.0000 0.0000 21.7920
#
#
#
# Elastic Compliance Matrix: (Units=1/GPa)
#
#
# Indices 1 2 3 4 5 6 
#
# 1 0.020381 -0.010456 -0.002699 0.000000 0.000000 0.000000
# 2 -0.010456 0.022244 0.002774 0.000000 0.000000 0.000000
# 3 -0.002699 0.002774 0.010489 0.000000 0.000000 0.000000
# 4 0.000000 0.000000 0.000000 0.025316 0.000000 0.000000
# 5 0.000000 0.000000 0.000000 0.000000 0.070184 0.000000
# 6 0.000000 0.000000 0.000000 0.000000 0.000000 0.045888
#
#
# Mechanical properties :
#
#
# Convention : Reuss Voigt Hill
#
# Bulk Modulus (GPa) = 30.90901 31.78761 31.34831
# Shear Modulus (GPa) = 22.11921 28.09341 25.10631
#
# Velocity S-wave (km/s) = 3.01123 3.39360 3.20812
# Velocity P-wave (km/s) = 4.97602 5.32788 5.15495
#
# Compressibility (1/GPa) = 0.03235302
#
# Stress axis : x y z
#
# Youngs Moduli (GPa) = 49.06428 44.95589 95.33842
#
# Poissons Ratio (x) = 0.47004 0.25736
# Poissons Ratio (y) = 0.51300 -0.26450
# Poissons Ratio (z) = 0.13244 -0.12472
#
# Static dielectric constant tensor:
#      x y z
#    x 1.940450 0.000000 0.000000 
#    y 0.000000 1.963160 0.000000 
#    z 0.000000 0.000000 2.027650 
# 
# From -- ./inp_files/6202.got.cif
#   From: 2010.05.17/outbox.cif.g08.bks.cpg/sg56_4_cif.got.tgz:6202.got - 2010.06.03 13:42:01.
