data_PCOD9431622
_publ_section_title
;
Structure prediction by ZEFSAII (Michael W. Deem and Ramdas Pophale) SiO2 
 PCOD9431622
Probable space group: P C C N
;
_chemical_formula_sum "Si O2"
_cell_formula_units_Z 36
_cell_length_a 17.955228
_cell_length_b 7.934497
_cell_length_c 9.909832
_cell_angle_alpha 90.000000
_cell_angle_beta 90.000000
_cell_angle_gamma 90.000000
_cell_volume 1411.811180
_symmetry_space_group_name_H-M "P C C N"
_symmetry_group_IT_number 56
_symmetry_cell_setting 'orthorhombic'
loop_
_space_group_symop_operation_xyz
x,y,z
1/2-x,1/2-y,z
1/2+x,-y,1/2-z
-x,1/2+y,1/2-z
-x,-y,-z
1/2+x,1/2+y,-z
1/2-x,y,1/2+z
x,1/2-y,1/2+z
loop_
_atom_site_type_symbol
_atom_site_label
_atom_site_fract_x
_atom_site_fract_y
_atom_site_fract_z
Si Si1 0.168231 0.440141 0.863744
Si Si2 0.468574 0.829331 0.795621
Si Si3 0.250000 0.750000 0.431868
Si Si4 0.402723 0.891787 0.514455
Si Si5 0.369645 0.262268 0.618239
O O1 0.085539 0.521098 0.847008
O O2 0.225910 0.590475 0.842832
O O3 0.171046 0.295999 0.753213
O O4 0.176060 0.374542 0.014949
O O5 0.453037 0.821898 0.636585
O O6 0.553555 0.849419 0.837215
O O7 0.439227 0.663280 0.873799
O O8 0.322126 0.803006 0.516604
O O9 0.390866 0.089286 0.539053
#
# Coordination Sequence:
#
# PCOD9431622 Si02
#       5
#     8   8   4   8   8
#     4  10  24  43  70  97 141 182 223 287 339 416
#     4  10  21  40  64 101 138 175 221 281 351 403
#     4  10  24  48  64  94 134 190 232 266 354 406
#     4  10  23  39  66  94 136 181 223 284 335 411
#     4  11  22  40  68 104 130 175 233 287 340 395
#
# _framework density 25.499161000000001
#
# number of rings (size 3 to 8) (size 9 to 14) (size 15 to 20)
#    0.000    1.778    0.000    2.667    0.000   19.556 
#    0.000    4.444    0.000    1.333    0.000    0.000 
#    0.000    0.000    0.000    0.000    0.000    0.000 
#
# Total GULP energy -201931.625254 kJ/mol
# GULP energy per Si atom -5609.211813 kJ/mol
# Density = 2.544112 g / cm^3
# Si number density = 25.499161 Si / 1000 Ang^3
#
#
#
# Elastic Constant Matrix: (Units=GPa)
#
#
# Indices 1 2 3 4 5 6 
#
# 1 105.0099 31.5791 27.2198 0.0000 0.0000 0.0000
# 2 31.5791 54.5671 39.7438 0.0000 0.0000 0.0000
# 3 27.2198 39.7438 102.0676 0.0000 0.0000 0.0000
# 4 0.0000 0.0000 0.0000 41.7998 0.0000 0.0000
# 5 0.0000 0.0000 0.0000 0.0000 -27.9229 0.0000
# 6 0.0000 0.0000 0.0000 0.0000 0.0000 37.9330
#
#
#
# Elastic Compliance Matrix: (Units=1/GPa)
#
#
# Indices 1 2 3 4 5 6 
#
# 1 0.011562 -0.006205 -0.000667 0.000000 0.000000 0.000000
# 2 -0.006205 0.028911 -0.009603 0.000000 0.000000 0.000000
# 3 -0.000667 -0.009603 0.013715 0.000000 0.000000 0.000000
# 4 0.000000 0.000000 0.000000 0.023924 0.000000 0.000000
# 5 0.000000 0.000000 0.000000 0.000000 -0.035813 0.000000
# 6 0.000000 0.000000 0.000000 0.000000 0.000000 0.026362
#
#
# Mechanical properties :
#
#
# Convention : Reuss Voigt Hill
#
# Bulk Modulus (GPa) = 47.08676 50.97000 49.02838
# Shear Modulus (GPa) = 46.00218 21.23542 33.61880
#
# Velocity S-wave (km/s) = 4.25204 2.88894 3.63496
# Velocity P-wave (km/s) = 6.52783 5.58214 6.07342
#
# Compressibility (1/GPa) = 0.02123739
#
# Stress axis : x y z
#
# Youngs Moduli (GPa) = 86.49096 34.58847 72.91499
#
# Poissons Ratio (x) = 0.21463 0.04865
# Poissons Ratio (y) = 0.53669 0.70020
# Poissons Ratio (z) = 0.05770 0.33215
#
# Static dielectric constant tensor:
#      x y z
#    x 1.979660 0.000000 0.000000 
#    y 0.000000 2.021940 0.000000 
#    z 0.000000 0.000000 1.949710 
# 
# From -- ./inp_files/4334.got.cif
#   From: 2010.05.17/outbox.cif.g08.bks.cpg/sg56_3_cif.got.tgz:4334.got - 2010.06.03 13:42:01.
