data_PCOD9431750
_publ_section_title
;
Structure prediction by ZEFSAII (Michael W. Deem and Ramdas Pophale) SiO2 
 PCOD9431750
Probable space group: P C C N
;
_chemical_formula_sum "Si O2"
_cell_formula_units_Z 32
_cell_length_a 8.379922
_cell_length_b 9.445215
_cell_length_c 15.299764
_cell_angle_alpha 90.000000
_cell_angle_beta 90.000000
_cell_angle_gamma 90.000000
_cell_volume 1210.978845
_symmetry_space_group_name_H-M "P C C N"
_symmetry_group_IT_number 56
_symmetry_cell_setting 'orthorhombic'
loop_
_space_group_symop_operation_xyz
x,y,z
1/2-x,1/2-y,z
1/2+x,-y,1/2-z
-x,1/2+y,1/2-z
-x,-y,-z
1/2+x,1/2+y,-z
1/2-x,y,1/2+z
x,1/2-y,1/2+z
loop_
_atom_site_type_symbol
_atom_site_label
_atom_site_fract_x
_atom_site_fract_y
_atom_site_fract_z
Si Si1 0.327786 0.398995 0.483402
Si Si2 0.687279 0.411315 0.861427
Si Si3 0.604095 0.145334 0.112571
Si Si4 0.866686 0.618567 0.731326
O O1 0.250000 0.250000 0.473293
O O2 0.233786 0.495776 0.553811
O O3 0.501049 0.641846 0.475461
O O4 0.337446 0.482956 0.392612
O O5 0.750000 0.250000 0.868617
O O6 0.779406 0.487389 0.780456
O O7 0.497569 0.416316 0.843180
O O8 0.750000 0.250000 0.109499
O O9 0.487945 0.174944 0.191765
O O10 0.750000 0.750000 0.717388
#
# Coordination Sequence:
#
# PCOD9431750 Si02
#       4
#     8   8   8   8
#     4  10  23  43  65  96 138 182 230 283 342 412
#     4  11  22  40  67 100 138 178 226 283 349 420
#     4  10  21  41  68  97 133 180 230 285 346 408
#     4  11  24  44  69 100 137 179 229 289 351 414
#
# _framework density 26.424904000000002
#
# number of rings (size 3 to 8) (size 9 to 14) (size 15 to 20)
#    0.000    1.500    0.000    6.000    0.000    3.000 
#    0.000   17.500    0.000    3.000    0.000    0.000 
#    0.000    0.000    0.000    0.000    0.000    0.000 
#
# Total GULP energy -179595.458440 kJ/mol
# GULP energy per Si atom -5612.358076 kJ/mol
# Density = 2.636476 g / cm^3
# Si number density = 26.424904 Si / 1000 Ang^3
#
#
#
# Elastic Constant Matrix: (Units=GPa)
#
#
# Indices 1 2 3 4 5 6 
#
# 1 201.9930 92.8890 41.1242 0.0000 0.0000 0.0000
# 2 92.8890 219.5611 57.8667 0.0000 0.0000 0.0000
# 3 41.1242 57.8667 133.5236 0.0000 0.0000 0.0000
# 4 0.0000 0.0000 0.0000 55.1255 0.0000 0.0000
# 5 0.0000 0.0000 0.0000 0.0000 22.4455 0.0000
# 6 0.0000 0.0000 0.0000 0.0000 0.0000 53.6912
#
#
#
# Elastic Compliance Matrix: (Units=1/GPa)
#
#
# Indices 1 2 3 4 5 6 
#
# 1 0.006236 -0.002407 -0.000878 0.000000 0.000000 0.000000
# 2 -0.002407 0.006071 -0.001890 0.000000 0.000000 0.000000
# 3 -0.000878 -0.001890 0.008579 0.000000 0.000000 0.000000
# 4 0.000000 0.000000 0.000000 0.018140 0.000000 0.000000
# 5 0.000000 0.000000 0.000000 0.000000 0.044552 0.000000
# 6 0.000000 0.000000 0.000000 0.000000 0.000000 0.018625
#
#
# Mechanical properties :
#
#
# Convention : Reuss Voigt Hill
#
# Bulk Modulus (GPa) = 94.90223 104.31526 99.60875
# Shear Modulus (GPa) = 43.07949 50.46563 46.77256
#
# Velocity S-wave (km/s) = 4.04203 4.37484 4.21172
# Velocity P-wave (km/s) = 7.60105 8.06727 7.83762
#
# Compressibility (1/GPa) = 0.01053716
#
# Stress axis : x y z
#
# Youngs Moduli (GPa) = 160.35291 164.71952 116.57002
#
# Poissons Ratio (x) = 0.39649 0.10229
# Poissons Ratio (y) = 0.38598 0.22028
# Poissons Ratio (z) = 0.14072 0.31127
#
# Static dielectric constant tensor:
#      x y z
#    x 2.336690 0.000000 0.000000 
#    y 0.000000 2.145610 0.000000 
#    z 0.000000 0.000000 2.118910 
# 
# From -- ./inp_files/10162.got.cif
#   From: 2010.05.17/outbox.cif.g08.bks.cpg/sg56_6_cif.got.tgz:10162.got - 2010.06.03 13:42:01.
