data_PCOD9431076
_publ_section_title
;
Structure prediction by ZEFSAII (Michael W. Deem and Ramdas Pophale) SiO2 
 PCOD9431076
Probable space group: P C C N
;
_chemical_formula_sum "Si O2"
_cell_formula_units_Z 48
_cell_length_a 17.787966
_cell_length_b 10.905849
_cell_length_c 9.662952
_cell_angle_alpha 90.000000
_cell_angle_beta 90.000000
_cell_angle_gamma 90.000000
_cell_volume 1874.543803
_symmetry_space_group_name_H-M "P C C N"
_symmetry_group_IT_number 56
_symmetry_cell_setting 'orthorhombic'
loop_
_space_group_symop_operation_xyz
x,y,z
1/2-x,1/2-y,z
1/2+x,-y,1/2-z
-x,1/2+y,1/2-z
-x,-y,-z
1/2+x,1/2+y,-z
1/2-x,y,1/2+z
x,1/2-y,1/2+z
loop_
_atom_site_type_symbol
_atom_site_label
_atom_site_fract_x
_atom_site_fract_y
_atom_site_fract_z
Si Si1 0.826935 0.012621 0.993852
Si Si2 0.793922 0.371289 0.784387
Si Si3 0.961667 0.588739 0.833563
Si Si4 0.946982 0.888275 0.630623
Si Si5 0.432278 0.792516 0.642405
Si Si6 0.165650 0.211196 0.181680
O O1 0.757228 0.059707 0.897837
O O2 0.897389 0.094108 0.940886
O O3 0.838576 0.869136 0.958785
O O4 0.812047 0.043676 0.153381
O O5 0.750000 0.250000 0.730666
O O6 0.867553 0.308967 0.849744
O O7 0.993219 0.460391 0.772790
O O8 0.891810 0.676044 0.802183
O O9 0.036887 0.666728 0.794364
O O10 0.936258 0.545973 0.985833
O O11 0.990639 0.765297 0.584236
O O12 0.867809 0.878635 0.702863
O O13 0.250000 0.250000 0.203852
#
# Coordination Sequence:
#
# PCOD9431076 Si02
#       6
#     8   8   8   8   8   8
#     4  11  23  42  63 101 138 180 229 282 346 414
#     4  10  22  39  66  97 136 178 229 287 345 407
#     4  10  22  42  67  95 130 180 227 278 343 409
#     4  10  22  43  69  93 130 177 229 282 339 412
#     4  10  20  40  66  97 125 173 229 293 335 407
#     4  11  26  44  64  99 140 177 226 282 346 412
#
# _framework density 25.606228000000002
#
# number of rings (size 3 to 8) (size 9 to 14) (size 15 to 20)
#    0.000    1.667    1.667    2.500    2.333    4.667 
#    3.000    2.500    0.000    0.000    0.000    0.000 
#    0.000    0.000    0.000    0.000    0.000    0.000 
#
# Total GULP energy -267773.317437 kJ/mol
# GULP energy per Si atom -5578.610780 kJ/mol
# Density = 2.554795 g / cm^3
# Si number density = 25.606228 Si / 1000 Ang^3
#
#
#
# Elastic Constant Matrix: (Units=GPa)
#
#
# Indices 1 2 3 4 5 6 
#
# 1 127.4617 59.6028 -10.3066 0.0000 0.0000 0.0000
# 2 59.6028 87.0921 11.0576 0.0000 0.0000 0.0000
# 3 -10.3066 11.0576 53.8695 0.0000 0.0000 0.0000
# 4 0.0000 0.0000 0.0000 30.7484 0.0000 0.0000
# 5 0.0000 0.0000 0.0000 0.0000 21.1236 0.0000
# 6 0.0000 0.0000 0.0000 0.0000 0.0000 41.4582
#
#
#
# Elastic Compliance Matrix: (Units=1/GPa)
#
#
# Indices 1 2 3 4 5 6 
#
# 1 0.012410 -0.009030 0.004228 0.000000 0.000000 0.000000
# 2 -0.009030 0.018359 -0.005496 0.000000 0.000000 0.000000
# 3 0.004228 -0.005496 0.020500 0.000000 0.000000 0.000000
# 4 0.000000 0.000000 0.000000 0.032522 0.000000 0.000000
# 5 0.000000 0.000000 0.000000 0.000000 0.047340 0.000000
# 6 0.000000 0.000000 0.000000 0.000000 0.000000 0.024121
#
#
# Mechanical properties :
#
#
# Convention : Reuss Voigt Hill
#
# Bulk Modulus (GPa) = 32.60129 43.23678 37.91903
# Shear Modulus (GPa) = 26.87119 32.53736 29.70427
#
# Velocity S-wave (km/s) = 3.24296 3.56853 3.40963
# Velocity P-wave (km/s) = 5.17511 5.82247 5.50831
#
# Compressibility (1/GPa) = 0.03067364
#
# Stress axis : x y z
#
# Youngs Moduli (GPa) = 80.58227 54.46800 48.77949
#
# Poissons Ratio (x) = 0.49182 -0.20623
# Poissons Ratio (y) = 0.72762 0.26810
# Poissons Ratio (z) = -0.34068 0.29936
#
# Static dielectric constant tensor:
#      x y z
#    x 2.024960 0.000000 0.000000 
#    y 0.000000 2.291240 0.000000 
#    z 0.000000 0.000000 2.124770 
# 
# From -- ./inp_files/8301.got.cif
#   From: 2010.05.17/outbox.cif.g08.bks.cpg/sg56_5_cif.got.tgz:8301.got - 2010.06.03 13:42:01.
