data_PCOD9431472
_publ_section_title
;
Structure prediction by ZEFSAII (Michael W. Deem and Ramdas Pophale) SiO2 
 PCOD9431472
Probable space group: P C C N
;
_chemical_formula_sum "Si O2"
_cell_formula_units_Z 60
_cell_length_a 11.378742
_cell_length_b 11.961564
_cell_length_c 21.817051
_cell_angle_alpha 90.000000
_cell_angle_beta 90.000000
_cell_angle_gamma 90.000000
_cell_volume 2969.465375
_symmetry_space_group_name_H-M "P C C N"
_symmetry_group_IT_number 56
_symmetry_cell_setting 'orthorhombic'
loop_
_space_group_symop_operation_xyz
x,y,z
1/2-x,1/2-y,z
1/2+x,-y,1/2-z
-x,1/2+y,1/2-z
-x,-y,-z
1/2+x,1/2+y,-z
1/2-x,y,1/2+z
x,1/2-y,1/2+z
loop_
_atom_site_type_symbol
_atom_site_label
_atom_site_fract_x
_atom_site_fract_y
_atom_site_fract_z
Si Si1 0.823007 0.415865 0.015392
Si Si2 0.168604 0.522323 0.373987
Si Si3 0.168455 0.358454 0.806841
Si Si4 0.071676 0.212117 0.917353
Si Si5 0.414484 0.348453 0.527604
Si Si6 0.186433 0.855512 0.111295
Si Si7 0.419462 0.069902 0.682418
Si Si8 0.250000 0.250000 0.624578
O O1 0.732818 0.408932 0.072272
O O2 0.944147 0.352695 0.032376
O O3 0.869204 0.542231 0.007362
O O4 0.763267 0.388111 0.949346
O O5 0.256976 0.469287 0.324001
O O6 0.126603 0.406431 0.403630
O O7 0.051095 0.574078 0.344809
O O8 0.250000 0.250000 0.787139
O O9 0.107456 0.305514 0.867235
O O10 0.081002 0.404848 0.755044
O O11 0.933708 0.194893 0.914764
O O12 0.112355 0.245373 0.983971
O O13 0.337521 0.330709 0.587044
O O14 0.250000 0.750000 0.143353
O O15 0.144756 0.956565 0.156260
O O16 0.337901 0.169289 0.659165
#
# Coordination Sequence:
#
# PCOD9431472 Si02
#       8
#     8   8   8   8   8   8   8   4
#     4  11  22  39  61 100 135 167 215 272 333 403
#     4  10  23  40  64  97 131 171 220 273 336 390
#     4  10  21  44  66  91 127 174 233 269 322 406
#     4  10  21  38  67  90 125 180 219 263 327 401
#     4  11  22  38  65  96 129 175 210 265 332 396
#     4  11  23  40  61 100 138 171 217 275 333 396
#     4  11  25  42  67  98 130 180 221 282 330 387
#     4  12  24  42  64  98 136 166 230 272 334 402
#
# _framework density 20.205656999999999
#
# number of rings (size 3 to 8) (size 9 to 14) (size 15 to 20)
#    0.000    1.333    4.667    0.800    2.800    2.133 
#    2.400    0.000    0.000    0.800    0.000    0.000 
#    0.000    0.000    0.000    0.000    0.000    0.000 
#
# Total GULP energy -334348.042967 kJ/mol
# GULP energy per Si atom -5572.467383 kJ/mol
# Density = 2.015967 g / cm^3
# Si number density = 20.205657 Si / 1000 Ang^3
#
#
#
# Elastic Constant Matrix: (Units=GPa)
#
#
# Indices 1 2 3 4 5 6 
#
# 1 101.8937 13.5913 22.1136 0.0000 0.0000 0.0000
# 2 13.5913 37.7407 5.6348 0.0000 0.0000 0.0000
# 3 22.1136 5.6348 41.6954 0.0000 0.0000 0.0000
# 4 0.0000 0.0000 0.0000 1.1027 0.0000 0.0000
# 5 0.0000 0.0000 0.0000 0.0000 22.0452 0.0000
# 6 0.0000 0.0000 0.0000 0.0000 0.0000 33.3735
#
#
#
# Elastic Compliance Matrix: (Units=1/GPa)
#
#
# Indices 1 2 3 4 5 6 
#
# 1 0.011478 -0.003291 -0.005643 0.000000 0.000000 0.000000
# 2 -0.003291 0.027986 -0.002037 0.000000 0.000000 0.000000
# 3 -0.005643 -0.002037 0.027251 0.000000 0.000000 0.000000
# 4 0.000000 0.000000 0.000000 0.906904 0.000000 0.000000
# 5 0.000000 0.000000 0.000000 0.000000 0.045361 0.000000
# 6 0.000000 0.000000 0.000000 0.000000 0.000000 0.029964
#
#
# Mechanical properties :
#
#
# Convention : Reuss Voigt Hill
#
# Bulk Modulus (GPa) = 22.33421 29.33438 25.83429
# Shear Modulus (GPa) = 4.60486 20.63694 12.62090
#
# Velocity S-wave (km/s) = 1.51127 3.19932 2.50196
# Velocity P-wave (km/s) = 3.75802 5.31008 4.59998
#
# Compressibility (1/GPa) = 0.04477437
#
# Stress axis : x y z
#
# Youngs Moduli (GPa) = 87.12538 35.73241 36.69550
#
# Poissons Ratio (x) = 0.11759 0.20706
# Poissons Ratio (y) = 0.28672 0.07474
# Poissons Ratio (z) = 0.49161 0.07278
#
# Static dielectric constant tensor:
#      x y z
#    x 1.799960 0.000000 0.000000 
#    y 0.000000 1.740600 0.000000 
#    z 0.000000 0.000000 1.756460 
# 
# From -- ./inp_files/18799.got.cif
#   From: 2010.05.17/outbox.cif.g08.bks.cpg/sg56_10_cif.got.tgz:18799.got - 2010.06.03 13:42:01.
