data_PCOD9431017
_publ_section_title
;
Structure prediction by ZEFSAII (Michael W. Deem and Ramdas Pophale) SiO2 
 PCOD9431017
Probable space group: P C C N
;
_chemical_formula_sum "Si O2"
_cell_formula_units_Z 24
_cell_length_a 5.401362
_cell_length_b 11.883238
_cell_length_c 15.476002
_cell_angle_alpha 90.000000
_cell_angle_beta 90.000000
_cell_angle_gamma 90.000000
_cell_volume 993.337560
_symmetry_space_group_name_H-M "P C C N"
_symmetry_group_IT_number 56
_symmetry_cell_setting 'orthorhombic'
loop_
_space_group_symop_operation_xyz
x,y,z
1/2-x,1/2-y,z
1/2+x,-y,1/2-z
-x,1/2+y,1/2-z
-x,-y,-z
1/2+x,1/2+y,-z
1/2-x,y,1/2+z
x,1/2-y,1/2+z
loop_
_atom_site_type_symbol
_atom_site_label
_atom_site_fract_x
_atom_site_fract_y
_atom_site_fract_z
Si Si1 0.305583 0.428379 0.944913
Si Si2 0.041470 0.658099 0.913769
Si Si3 0.045158 0.074736 0.760368
O O1 0.130526 0.528732 0.912171
O O2 0.418381 0.377944 0.857542
O O3 0.500000 0.500000 0.000000
O O4 0.159832 0.350946 0.011304
O O5 0.250000 0.750000 0.934674
O O6 0.967011 0.669947 0.813658
O O7 0.287422 0.997436 0.737551
#
# Coordination Sequence:
#
# PCOD9431017 Si02
#       3
#     8   8   8
#     4  10  20  40  69  94 142 197 235 304 384 449
#     4  10  22  40  69 102 141 187 251 312 370 455
#     4  10  20  39  69  98 138 190 243 298 381 438
#
# _framework density 24.160972999999998
#
# number of rings (size 3 to 8) (size 9 to 14) (size 15 to 20)
#    0.000    2.000    3.333    0.000    0.000    1.333 
#    0.000    1.667   29.333    0.000    0.000    0.000 
#    0.000    0.000    0.000    0.000    0.000    0.000 
#
# Total GULP energy -133913.251941 kJ/mol
# GULP energy per Si atom -5579.718831 kJ/mol
# Density = 2.410598 g / cm^3
# Si number density = 24.160973 Si / 1000 Ang^3
#
#
#
# Elastic Constant Matrix: (Units=GPa)
#
#
# Indices 1 2 3 4 5 6 
#
# 1 148.2892 41.2849 64.8473 0.0000 0.0000 0.0000
# 2 41.2849 81.1241 28.1737 0.0000 0.0000 0.0000
# 3 64.8473 28.1737 235.2445 0.0000 0.0000 0.0000
# 4 0.0000 0.0000 0.0000 -55.3220 0.0000 0.0000
# 5 0.0000 0.0000 0.0000 0.0000 38.3739 0.0000
# 6 0.0000 0.0000 0.0000 0.0000 0.0000 63.5416
#
#
#
# Elastic Compliance Matrix: (Units=1/GPa)
#
#
# Indices 1 2 3 4 5 6 
#
# 1 0.008623 -0.003718 -0.001932 0.000000 0.000000 0.000000
# 2 -0.003718 0.014464 -0.000708 0.000000 0.000000 0.000000
# 3 -0.001932 -0.000708 0.004868 0.000000 0.000000 0.000000
# 4 0.000000 0.000000 0.000000 -0.018076 0.000000 0.000000
# 5 0.000000 0.000000 0.000000 0.000000 0.026059 0.000000
# 6 0.000000 0.000000 0.000000 0.000000 0.000000 0.015738
#
#
# Mechanical properties :
#
#
# Convention : Reuss Voigt Hill
#
# Bulk Modulus (GPa) = 65.60823 81.47438 73.54131
# Shear Modulus (GPa) = 71.97161 31.34217 51.65689
#
# Velocity S-wave (km/s) = 5.46379 3.60561 4.62890
# Velocity P-wave (km/s) = 8.18643 7.15042 7.68590
#
# Compressibility (1/GPa) = 0.01524199
#
# Stress axis : x y z
#
# Youngs Moduli (GPa) = 115.96332 69.13507 205.41584
#
# Poissons Ratio (x) = 0.25702 0.39684
# Poissons Ratio (y) = 0.43111 0.14533
# Poissons Ratio (z) = 0.22403 0.04891
#
# Static dielectric constant tensor:
#      x y z
#    x 1.848590 0.000000 0.000000 
#    y 0.000000 1.621610 0.000000 
#    z 0.000000 0.000000 1.621140 
# 
# From -- ./inp_files/9311.got.cif
#   From: 2010.05.17/outbox.cif.g08.bks.cpg/sg56_5_cif.got.tgz:9311.got - 2010.06.03 13:42:01.
