data_PCOD9431079
_publ_section_title
;
Structure prediction by ZEFSAII (Michael W. Deem and Ramdas Pophale) SiO2 
 PCOD9431079
Probable space group: P C C N
;
_chemical_formula_sum "Si O2"
_cell_formula_units_Z 64
_cell_length_a 17.193973
_cell_length_b 12.019052
_cell_length_c 13.895507
_cell_angle_alpha 90.000000
_cell_angle_beta 90.000000
_cell_angle_gamma 90.000000
_cell_volume 2871.579550
_symmetry_space_group_name_H-M "P C C N"
_symmetry_group_IT_number 56
_symmetry_cell_setting 'orthorhombic'
loop_
_space_group_symop_operation_xyz
x,y,z
1/2-x,1/2-y,z
1/2+x,-y,1/2-z
-x,1/2+y,1/2-z
-x,-y,-z
1/2+x,1/2+y,-z
1/2-x,y,1/2+z
x,1/2-y,1/2+z
loop_
_atom_site_type_symbol
_atom_site_label
_atom_site_fract_x
_atom_site_fract_y
_atom_site_fract_z
Si Si1 0.366006 0.349045 0.385092
Si Si2 0.713041 0.563715 0.006079
Si Si3 0.172997 0.314595 0.214717
Si Si4 0.814356 0.341577 0.409954
Si Si5 0.131961 0.582113 0.786460
Si Si6 0.909291 0.287991 0.602768
Si Si7 0.924504 0.726205 0.447351
Si Si8 0.188118 0.951907 0.799592
O O1 0.292113 0.381151 0.453495
O O2 0.343322 0.248090 0.315049
O O3 0.384365 0.454243 0.316487
O O4 0.430179 0.304520 0.458768
O O5 0.672646 0.512663 0.099760
O O6 0.727890 0.457018 0.939339
O O7 0.647946 0.643578 0.962831
O O8 0.250000 0.250000 0.177948
O O9 0.101557 0.296669 0.144542
O O10 0.186398 0.445403 0.226977
O O11 0.750000 0.250000 0.380238
O O12 0.873437 0.378091 0.324441
O O13 0.856237 0.297673 0.507084
O O14 0.087791 0.661577 0.860254
O O15 0.224894 0.595082 0.804130
O O16 0.873048 0.353174 0.694498
O O17 0.994215 0.330862 0.575138
#
# Coordination Sequence:
#
# PCOD9431079 Si02
#       8
#     8   8   8   8   8   8   8   8
#     4  11  22  43  70  99 137 168 231 301 340 383
#     4  10  20  40  67  95 125 173 222 291 331 393
#     4  12  21  41  68 104 125 175 233 292 340 398
#     4  11  23  42  75 101 125 178 239 282 346 412
#     4  11  23  44  71 100 131 176 234 295 340 398
#     4  11  26  47  61  98 147 183 221 278 346 421
#     4  12  26  40  65 101 144 184 227 270 352 433
#     4  10  21  41  70  90 129 169 226 288 339 385
#
# _framework density 22.287386000000001
#
# number of rings (size 3 to 8) (size 9 to 14) (size 15 to 20)
#    0.000    1.000    3.750    5.250    1.750    3.500 
#    6.750    0.000    0.000    0.000    0.000    0.000 
#    0.000    0.000    0.000    0.000    0.000    0.000 
#
# Total GULP energy -357346.517652 kJ/mol
# GULP energy per Si atom -5583.539338 kJ/mol
# Density = 2.223666 g / cm^3
# Si number density = 22.287386 Si / 1000 Ang^3
#
#
#
# Elastic Constant Matrix: (Units=GPa)
#
#
# Indices 1 2 3 4 5 6 
#
# 1 34.3401 1.2067 8.1923 0.0000 0.0000 0.0000
# 2 1.2067 86.5034 24.7298 0.0000 0.0000 0.0000
# 3 8.1923 24.7298 77.7360 0.0000 0.0000 0.0000
# 4 0.0000 0.0000 0.0000 4.2770 0.0000 0.0000
# 5 0.0000 0.0000 0.0000 0.0000 -11.7619 0.0000
# 6 0.0000 0.0000 0.0000 0.0000 0.0000 13.5116
#
#
#
# Elastic Compliance Matrix: (Units=1/GPa)
#
#
# Indices 1 2 3 4 5 6 
#
# 1 0.029894 0.000532 -0.003320 0.000000 0.000000 0.000000
# 2 0.000532 0.012726 -0.004105 0.000000 0.000000 0.000000
# 3 -0.003320 -0.004105 0.014520 0.000000 0.000000 0.000000
# 4 0.000000 0.000000 0.000000 0.233810 0.000000 0.000000
# 5 0.000000 0.000000 0.000000 0.000000 -0.085020 0.000000
# 6 0.000000 0.000000 0.000000 0.000000 0.000000 0.074010
#
#
# Mechanical properties :
#
#
# Convention : Reuss Voigt Hill
#
# Bulk Modulus (GPa) = 23.06532 29.64860 26.35696
# Shear Modulus (GPa) = 16.22452 12.16872 14.19662
#
# Velocity S-wave (km/s) = 2.70102 2.33918 2.52658
# Velocity P-wave (km/s) = 4.48317 4.54174 4.51255
#
# Compressibility (1/GPa) = 0.04335512
#
# Stress axis : x y z
#
# Youngs Moduli (GPa) = 33.45188 78.57768 68.87203
#
# Poissons Ratio (x) = -0.04180 0.22863
# Poissons Ratio (y) = -0.01780 0.28269
# Poissons Ratio (z) = 0.11105 0.32253
#
# Static dielectric constant tensor:
#      x y z
#    x 1.836330 0.000000 0.000000 
#    y 0.000000 1.882070 0.000000 
#    z 0.000000 0.000000 1.869720 
# 
# From -- ./inp_files/12847.got.cif
#   From: 2010.05.17/outbox.cif.g08.bks.cpg/sg56_7_cif.got.tgz:12847.got - 2010.06.03 13:42:01.
