data_PCOD9431459
_publ_section_title
;
Structure prediction by ZEFSAII (Michael W. Deem and Ramdas Pophale) SiO2 
 PCOD9431459
Probable space group: P C C N
;
_chemical_formula_sum "Si O2"
_cell_formula_units_Z 32
_cell_length_a 8.358790
_cell_length_b 21.022358
_cell_length_c 8.433673
_cell_angle_alpha 90.000000
_cell_angle_beta 90.000000
_cell_angle_gamma 90.000000
_cell_volume 1481.977466
_symmetry_space_group_name_H-M "P C C N"
_symmetry_group_IT_number 56
_symmetry_cell_setting 'orthorhombic'
loop_
_space_group_symop_operation_xyz
x,y,z
1/2-x,1/2-y,z
1/2+x,-y,1/2-z
-x,1/2+y,1/2-z
-x,-y,-z
1/2+x,1/2+y,-z
1/2-x,y,1/2+z
x,1/2-y,1/2+z
loop_
_atom_site_type_symbol
_atom_site_label
_atom_site_fract_x
_atom_site_fract_y
_atom_site_fract_z
Si Si1 0.566677 0.294966 0.886613
Si Si2 0.687339 0.131011 0.678320
Si Si3 0.113513 0.196829 0.571621
Si Si4 0.025514 0.925912 0.524916
O O1 0.720398 0.315123 0.781285
O O2 0.427316 0.304332 0.757838
O O3 0.577503 0.339983 0.040465
O O4 0.533205 0.227276 0.970034
O O5 0.585876 0.088842 0.798253
O O6 0.830689 0.093727 0.593320
O O7 0.250000 0.250000 0.549661
O O8 0.119028 0.123797 0.513716
O O9 0.000000 0.000000 0.500000
#
# Coordination Sequence:
#
# PCOD9431459 Si02
#       4
#     8   8   8   8
#     4  10  21  38  64  93 124 162 214 276 325 384
#     4   9  21  42  66  94 124 170 226 268 329 397
#     4  11  23  40  62  96 130 166 216 271 339 386
#     4  10  22  44  65  96 132 180 222 275 335 407
#
# _framework density 21.592772
#
# number of rings (size 3 to 8) (size 9 to 14) (size 15 to 20)
#    0.000    2.000    0.000    2.250    0.000   17.000 
#   18.000    7.500    0.000    0.000    0.000    0.000 
#    0.000    0.000    0.000    0.000    0.000    0.000 
#
# Total GULP energy -178494.477143 kJ/mol
# GULP energy per Si atom -5577.952411 kJ/mol
# Density = 2.154363 g / cm^3
# Si number density = 21.592772 Si / 1000 Ang^3
#
#
#
# Elastic Constant Matrix: (Units=GPa)
#
#
# Indices 1 2 3 4 5 6 
#
# 1 71.6605 52.7683 41.3541 0.0000 0.0000 0.0000
# 2 52.7683 196.3827 60.4491 0.0000 0.0000 0.0000
# 3 41.3541 60.4491 149.6298 0.0000 0.0000 0.0000
# 4 0.0000 0.0000 0.0000 22.8474 0.0000 0.0000
# 5 0.0000 0.0000 0.0000 0.0000 27.9128 0.0000
# 6 0.0000 0.0000 0.0000 0.0000 0.0000 27.1067
#
#
#
# Elastic Compliance Matrix: (Units=1/GPa)
#
#
# Indices 1 2 3 4 5 6 
#
# 1 0.018987 -0.003982 -0.003639 0.000000 0.000000 0.000000
# 2 -0.003982 0.006650 -0.001586 0.000000 0.000000 0.000000
# 3 -0.003639 -0.001586 0.008330 0.000000 0.000000 0.000000
# 4 0.000000 0.000000 0.000000 0.043769 0.000000 0.000000
# 5 0.000000 0.000000 0.000000 0.000000 0.035826 0.000000
# 6 0.000000 0.000000 0.000000 0.000000 0.000000 0.036891
#
#
# Mechanical properties :
#
#
# Convention : Reuss Voigt Hill
#
# Bulk Modulus (GPa) = 64.29616 80.75733 72.52675
# Shear Modulus (GPa) = 28.72740 33.11350 30.92045
#
# Velocity S-wave (km/s) = 3.65145 3.92030 3.78826
# Velocity P-wave (km/s) = 6.90063 7.61400 7.26608
#
# Compressibility (1/GPa) = 0.01555303
#
# Stress axis : x y z
#
# Youngs Moduli (GPa) = 52.66883 150.37091 120.05270
#
# Poissons Ratio (x) = 0.59872 0.43686
# Poissons Ratio (y) = 0.20971 0.19043
# Poissons Ratio (z) = 0.19166 0.23852
#
# Static dielectric constant tensor:
#      x y z
#    x 1.949320 0.000000 0.000000 
#    y 0.000000 1.796630 0.000000 
#    z 0.000000 0.000000 1.777650 
# 
# From -- ./inp_files/1932.got.cif
#   From: 2010.05.17/outbox.cif.g08.bks.cpg/sg56_1_cif.got.tgz:1932.got - 2010.06.03 13:42:01.
