data_PCOD9431597
_publ_section_title
;
Structure prediction by ZEFSAII (Michael W. Deem and Ramdas Pophale) SiO2 
 PCOD9431597
Probable space group: P C C N
;
_chemical_formula_sum "Si O2"
_cell_formula_units_Z 60
_cell_length_a 26.602370
_cell_length_b 11.862386
_cell_length_c 8.365145
_cell_angle_alpha 90.000000
_cell_angle_beta 90.000000
_cell_angle_gamma 90.000000
_cell_volume 2639.768576
_symmetry_space_group_name_H-M "P C C N"
_symmetry_group_IT_number 56
_symmetry_cell_setting 'orthorhombic'
loop_
_space_group_symop_operation_xyz
x,y,z
1/2-x,1/2-y,z
1/2+x,-y,1/2-z
-x,1/2+y,1/2-z
-x,-y,-z
1/2+x,1/2+y,-z
1/2-x,y,1/2+z
x,1/2-y,1/2+z
loop_
_atom_site_type_symbol
_atom_site_label
_atom_site_fract_x
_atom_site_fract_y
_atom_site_fract_z
Si Si1 0.855079 0.107227 0.442951
Si Si2 0.000000 0.500000 0.500000
Si Si3 0.698974 0.302024 0.746354
Si Si4 0.302500 0.099871 0.217885
Si Si5 0.593305 0.918912 0.372467
Si Si6 0.706556 0.973260 0.421255
Si Si7 0.959273 0.003175 0.358134
Si Si8 0.095767 0.206798 0.790878
O O1 0.837315 0.142189 0.617318
O O2 0.832829 0.204869 0.331084
O O3 0.913639 0.083687 0.413751
O O4 0.828111 0.990059 0.399052
O O5 0.944415 0.481966 0.415895
O O6 0.978613 0.462737 0.680520
O O7 0.750000 0.250000 0.674322
O O8 0.718043 0.400096 0.865914
O O9 0.246968 0.114902 0.148373
O O10 0.294893 0.041602 0.389499
O O11 0.345031 0.194389 0.245576
O O12 0.650512 0.952316 0.360693
O O13 0.587946 0.839510 0.530871
O O14 0.579865 0.835490 0.229019
O O15 0.935824 0.878629 0.320292
O O16 0.000000 0.000000 0.500000
#
# Coordination Sequence:
#
# PCOD9431597 Si02
#       8
#     8   4   8   8   8   8   8   8
#     4  11  24  42  63  97 137 175 234 279 343 427
#     4  10  24  48  70  94 142 174 228 300 348 410
#     4  12  24  40  64 100 140 187 222 280 353 423
#     4  10  21  40  61  93 130 173 222 277 339 408
#     4  10  23  43  67  97 129 178 222 287 348 409
#     4  11  23  39  66  94 137 180 225 280 339 414
#     4  10  24  48  69  99 131 178 231 295 354 414
#     4   9  22  42  66  92 130 167 224 279 344 416
#
# _framework density 22.729265999999999
#
# number of rings (size 3 to 8) (size 9 to 14) (size 15 to 20)
#    0.000    1.600    1.333    2.800    3.733    2.667 
#    4.800    2.667    0.000    0.000    0.000    0.000 
#    0.000    0.000    0.000    0.000    0.000    0.000 
#
# Total GULP energy -334193.860229 kJ/mol
# GULP energy per Si atom -5569.897670 kJ/mol
# Density = 2.267753 g / cm^3
# Si number density = 22.729266 Si / 1000 Ang^3
#
#
#
# Elastic Constant Matrix: (Units=GPa)
#
#
# Indices 1 2 3 4 5 6 
#
# 1 107.5135 -8.6723 36.2139 0.0000 0.0000 0.0000
# 2 -8.6723 24.0923 14.0581 0.0000 0.0000 0.0000
# 3 36.2139 14.0581 92.7174 0.0000 0.0000 0.0000
# 4 0.0000 0.0000 0.0000 23.0496 0.0000 0.0000
# 5 0.0000 0.0000 0.0000 0.0000 43.4025 0.0000
# 6 0.0000 0.0000 0.0000 0.0000 0.0000 24.1562
#
#
#
# Elastic Compliance Matrix: (Units=1/GPa)
#
#
# Indices 1 2 3 4 5 6 
#
# 1 0.011872 0.007656 -0.005798 0.000000 0.000000 0.000000
# 2 0.007656 0.050473 -0.010643 0.000000 0.000000 0.000000
# 3 -0.005798 -0.010643 0.014664 0.000000 0.000000 0.000000
# 4 0.000000 0.000000 0.000000 0.043385 0.000000 0.000000
# 5 0.000000 0.000000 0.000000 0.000000 0.023040 0.000000
# 6 0.000000 0.000000 0.000000 0.000000 0.000000 0.041397
#
#
# Mechanical properties :
#
#
# Convention : Reuss Voigt Hill
#
# Bulk Modulus (GPa) = 16.82389 34.16918 25.49654
# Shear Modulus (GPa) = 22.50087 30.30322 26.40204
#
# Velocity S-wave (km/s) = 3.14976 3.65530 3.41191
# Velocity P-wave (km/s) = 4.54378 5.73417 5.17333
#
# Compressibility (1/GPa) = 0.05943927
#
# Stress axis : x y z
#
# Youngs Moduli (GPa) = 84.23473 19.81238 68.19543
#
# Poissons Ratio (x) = -0.15169 0.39538
# Poissons Ratio (y) = -0.64493 0.72583
# Poissons Ratio (z) = 0.48837 0.21087
#
# Static dielectric constant tensor:
#      x y z
#    x 1.875040 0.000000 0.000000 
#    y 0.000000 1.876130 0.000000 
#    z 0.000000 0.000000 1.870420 
# 
# From -- ./inp_files/4988.got.cif
#   From: 2010.05.17/outbox.cif.g08.bks.cpg/sg56_3_cif.got.tgz:4988.got - 2010.06.03 13:42:01.
