data_PCOD9431410
_publ_section_title
;
Structure prediction by ZEFSAII (Michael W. Deem and Ramdas Pophale) SiO2 
 PCOD9431410
Probable space group: P C C N
;
_chemical_formula_sum "Si O2"
_cell_formula_units_Z 40
_cell_length_a 8.016706
_cell_length_b 7.190905
_cell_length_c 25.140442
_cell_angle_alpha 90.000000
_cell_angle_beta 90.000000
_cell_angle_gamma 90.000000
_cell_volume 1449.280394
_symmetry_space_group_name_H-M "P C C N"
_symmetry_group_IT_number 56
_symmetry_cell_setting 'orthorhombic'
loop_
_space_group_symop_operation_xyz
x,y,z
1/2-x,1/2-y,z
1/2+x,-y,1/2-z
-x,1/2+y,1/2-z
-x,-y,-z
1/2+x,1/2+y,-z
1/2-x,y,1/2+z
x,1/2-y,1/2+z
loop_
_atom_site_type_symbol
_atom_site_label
_atom_site_fract_x
_atom_site_fract_y
_atom_site_fract_z
Si Si1 0.507407 0.972378 0.834272
Si Si2 0.517050 0.553630 0.864854
Si Si3 0.302204 0.470307 0.235655
Si Si4 0.319799 0.038049 0.530485
Si Si5 0.191968 0.042452 0.428432
O O1 0.555025 0.769279 0.854536
O O2 0.648533 0.055986 0.796774
O O3 0.352248 0.961449 0.793515
O O4 0.462521 0.067451 0.889495
O O5 0.545124 0.482688 0.805147
O O6 0.641765 0.473167 0.909619
O O7 0.336572 0.547109 0.892234
O O8 0.250000 0.250000 0.240727
O O9 0.250000 0.250000 0.539093
O O10 0.189262 0.953377 0.487177
O O11 0.500000 0.000000 0.500000
O O12 0.250000 0.250000 0.438838
#
# Coordination Sequence:
#
# PCOD9431410 Si02
#       5
#     8   8   8   8   8
#     4  11  21  37  62  90 121 164 210 258 321 390
#     4  10  21  41  64  89 125 168 213 261 322 394
#     4  10  22  38  59  88 124 162 203 258 319 386
#     4   9  18  36  62  88 122 168 214 266 327 390
#     4  10  21  38  60  89 124 160 205 263 317 374
#
# _framework density 27.599905
#
# number of rings (size 3 to 8) (size 9 to 14) (size 15 to 20)
#    0.000    2.000    0.000    4.200    0.000    3.200 
#    0.000   14.000    0.000    9.600    0.000    0.000 
#    0.000    0.000    0.000    0.000    0.000    0.000 
#
# Total GULP energy -223237.379195 kJ/mol
# GULP energy per Si atom -5580.934480 kJ/mol
# Density = 2.753709 g / cm^3
# Si number density = 27.599905 Si / 1000 Ang^3
#
#
#
# Elastic Constant Matrix: (Units=GPa)
#
#
# Indices 1 2 3 4 5 6 
#
# 1 110.8772 14.8976 39.1471 0.0000 0.0000 0.0000
# 2 14.8976 78.0956 22.6167 0.0000 0.0000 0.0000
# 3 39.1471 22.6167 248.5701 0.0000 0.0000 0.0000
# 4 0.0000 0.0000 0.0000 25.2938 0.0000 0.0000
# 5 0.0000 0.0000 0.0000 0.0000 5.6087 0.0000
# 6 0.0000 0.0000 0.0000 0.0000 0.0000 36.7510
#
#
#
# Elastic Compliance Matrix: (Units=1/GPa)
#
#
# Indices 1 2 3 4 5 6 
#
# 1 0.009707 -0.001447 -0.001397 0.000000 0.000000 0.000000
# 2 -0.001447 0.013367 -0.000988 0.000000 0.000000 0.000000
# 3 -0.001397 -0.000988 0.004333 0.000000 0.000000 0.000000
# 4 0.000000 0.000000 0.000000 0.039535 0.000000 0.000000
# 5 0.000000 0.000000 0.000000 0.000000 0.178294 0.000000
# 6 0.000000 0.000000 0.000000 0.000000 0.000000 0.027210
#
#
# Mechanical properties :
#
#
# Convention : Reuss Voigt Hill
#
# Bulk Modulus (GPa) = 50.65387 65.65175 58.15281
# Shear Modulus (GPa) = 17.44032 37.58946 27.51489
#
# Velocity S-wave (km/s) = 2.51649 3.69445 3.16083
# Velocity P-wave (km/s) = 5.18038 6.48361 5.86829
#
# Compressibility (1/GPa) = 0.01974183
#
# Stress axis : x y z
#
# Youngs Moduli (GPa) = 103.02203 74.81061 230.78945
#
# Poissons Ratio (x) = 0.10826 0.32242
# Poissons Ratio (y) = 0.14908 0.22810
# Poissons Ratio (z) = 0.14392 0.07394
#
# Static dielectric constant tensor:
#      x y z
#    x 2.357990 0.000000 0.000000 
#    y 0.000000 2.172570 0.000000 
#    z 0.000000 0.000000 2.188710 
# 
# From -- ./inp_files/20313.got.cif
#   From: 2010.05.17/outbox.cif.g08.bks.cpg/sg56_11_cif.got.tgz:20313.got - 2010.06.03 13:42:01.
