data_PCOD9431422
_publ_section_title
;
Structure prediction by ZEFSAII (Michael W. Deem and Ramdas Pophale) SiO2 
 PCOD9431422
Probable space group: P C C N
;
_chemical_formula_sum "Si O2"
_cell_formula_units_Z 48
_cell_length_a 5.119735
_cell_length_b 15.571089
_cell_length_c 28.587960
_cell_angle_alpha 90.000000
_cell_angle_beta 90.000000
_cell_angle_gamma 90.000000
_cell_volume 2279.027864
_symmetry_space_group_name_H-M "P C C N"
_symmetry_group_IT_number 56
_symmetry_cell_setting 'orthorhombic'
loop_
_space_group_symop_operation_xyz
x,y,z
1/2-x,1/2-y,z
1/2+x,-y,1/2-z
-x,1/2+y,1/2-z
-x,-y,-z
1/2+x,1/2+y,-z
1/2-x,y,1/2+z
x,1/2-y,1/2+z
loop_
_atom_site_type_symbol
_atom_site_label
_atom_site_fract_x
_atom_site_fract_y
_atom_site_fract_z
Si Si1 0.277027 0.851318 0.342662
Si Si2 0.521964 0.525296 0.778650
Si Si3 0.009931 0.426757 0.563355
Si Si4 0.368826 0.664044 0.594334
Si Si5 0.366364 0.002160 0.138736
Si Si6 0.649477 0.611153 0.038236
O O1 0.250000 0.750000 0.339744
O O2 0.450405 0.880806 0.298249
O O3 0.389319 0.871756 0.394471
O O4 0.036758 0.919872 0.340776
O O5 0.766059 0.517230 0.743764
O O6 0.121921 0.515752 0.672852
O O7 0.828185 0.507761 0.548174
O O8 0.263951 0.465480 0.588864
O O9 0.092782 0.378458 0.516614
O O10 0.250000 0.750000 0.617165
O O11 0.478247 0.592277 0.630129
O O12 0.603170 0.664435 0.556638
O O13 0.110365 0.635325 0.566362
#
# Coordination Sequence:
#
# PCOD9431422 Si02
#       6
#     8   8   8   8   8   8
#     4  11  23  42  70 103 137 178 221 285 353 428
#     4  11  23  45  73  95 128 168 212 274 348 423
#     4   9  21  36  62  93 132 178 225 272 338 394
#     4  11  23  40  62  92 129 178 227 276 324 385
#     4  10  22  42  69  92 132 173 215 275 338 403
#     4  10  21  38  61  90 131 180 228 278 325 389
#
# _framework density 21.061612
#
# number of rings (size 3 to 8) (size 9 to 14) (size 15 to 20)
#    0.000    1.667    3.333    0.500    2.333    5.333 
#    3.000    0.833    3.667    0.000    0.000    0.000 
#    0.000    0.000    0.000    0.000    0.000    0.000 
#
# Total GULP energy -267219.179831 kJ/mol
# GULP energy per Si atom -5567.066246 kJ/mol
# Density = 2.101368 g / cm^3
# Si number density = 21.061612 Si / 1000 Ang^3
#
#
#
# Elastic Constant Matrix: (Units=GPa)
#
#
# Indices 1 2 3 4 5 6 
#
# 1 110.5125 50.1606 26.9578 0.0000 0.0000 0.0000
# 2 50.1606 126.6766 50.1001 0.0000 0.0000 0.0000
# 3 26.9578 50.1001 68.1805 0.0000 0.0000 0.0000
# 4 0.0000 0.0000 0.0000 29.0667 0.0000 0.0000
# 5 0.0000 0.0000 0.0000 0.0000 26.6323 0.0000
# 6 0.0000 0.0000 0.0000 0.0000 0.0000 24.9351
#
#
#
# Elastic Compliance Matrix: (Units=1/GPa)
#
#
# Indices 1 2 3 4 5 6 
#
# 1 0.011160 -0.003770 -0.001643 0.000000 0.000000 0.000000
# 2 -0.003770 0.012401 -0.007622 0.000000 0.000000 0.000000
# 3 -0.001643 -0.007622 0.020917 0.000000 0.000000 0.000000
# 4 0.000000 0.000000 0.000000 0.034404 0.000000 0.000000
# 5 0.000000 0.000000 0.000000 0.000000 0.037548 0.000000
# 6 0.000000 0.000000 0.000000 0.000000 0.000000 0.040104
#
#
# Mechanical properties :
#
#
# Convention : Reuss Voigt Hill
#
# Bulk Modulus (GPa) = 54.31820 62.20074 58.25947
# Shear Modulus (GPa) = 26.49130 28.00356 27.24743
#
# Velocity S-wave (km/s) = 3.55040 3.65033 3.60071
# Velocity P-wave (km/s) = 6.53094 6.88211 6.70882
#
# Compressibility (1/GPa) = 0.01841004
#
# Stress axis : x y z
#
# Youngs Moduli (GPa) = 89.60220 80.63648 47.80698
#
# Poissons Ratio (x) = 0.30396 0.07854
# Poissons Ratio (y) = 0.33776 0.36440
# Poissons Ratio (z) = 0.14720 0.61463
#
# Static dielectric constant tensor:
#      x y z
#    x 1.852040 0.000000 0.000000 
#    y 0.000000 1.837090 0.000000 
#    z 0.000000 0.000000 1.770200 
# 
# From -- ./inp_files/22427.got.cif
#   From: 2010.05.17/outbox.cif.g08.bks.cpg/sg56_12_cif.got.tgz:22427.got - 2010.06.03 13:42:01.
