data_PCOD9431679
_publ_section_title
;
Structure prediction by ZEFSAII (Michael W. Deem and Ramdas Pophale) SiO2 
 PCOD9431679
Probable space group: P C C N
;
_chemical_formula_sum "Si O2"
_cell_formula_units_Z 56
_cell_length_a 15.737786
_cell_length_b 10.128176
_cell_length_c 13.928037
_cell_angle_alpha 90.000000
_cell_angle_beta 90.000000
_cell_angle_gamma 90.000000
_cell_volume 2220.060383
_symmetry_space_group_name_H-M "P C C N"
_symmetry_group_IT_number 56
_symmetry_cell_setting 'orthorhombic'
loop_
_space_group_symop_operation_xyz
x,y,z
1/2-x,1/2-y,z
1/2+x,-y,1/2-z
-x,1/2+y,1/2-z
-x,-y,-z
1/2+x,1/2+y,-z
1/2-x,y,1/2+z
x,1/2-y,1/2+z
loop_
_atom_site_type_symbol
_atom_site_label
_atom_site_fract_x
_atom_site_fract_y
_atom_site_fract_z
Si Si1 0.931168 0.333003 0.168567
Si Si2 0.298090 0.389318 0.211278
Si Si3 0.765479 0.078772 0.617720
Si Si4 0.168195 0.985417 0.581953
Si Si5 0.477018 0.910717 0.222187
Si Si6 0.082172 0.232703 0.061452
Si Si7 0.919184 0.985047 0.074299
O O1 0.829064 0.317747 0.173404
O O2 0.976490 0.244467 0.251111
O O3 0.952720 0.489085 0.178557
O O4 0.983776 0.273469 0.077855
O O5 0.250000 0.250000 0.210504
O O6 0.279806 0.449987 0.315813
O O7 0.253836 0.495332 0.141578
O O8 0.385209 0.355032 0.153512
O O9 0.816912 0.079513 0.518815
O O10 0.668438 0.069451 0.578948
O O11 0.133182 0.132288 0.564752
O O12 0.099389 0.916628 0.647044
O O13 0.450721 0.989163 0.318784
O O14 0.105559 0.160159 0.962841
O O15 0.000000 0.000000 0.000000
#
# Coordination Sequence:
#
# PCOD9431679 Si02
#       7
#     8   8   8   8   8   8   8
#     4  11  26  47  76 110 155 207 260 325 403 481
#     4  10  21  40  71 109 148 202 260 321 389 470
#     4  12  26  42  75 109 149 199 264 329 391 476
#     4  10  23  42  71 110 145 195 255 329 388 464
#     4  11  25  50  74 110 160 203 259 330 407 488
#     4  10  22  42  72 107 155 195 261 314 390 478
#     4  12  25  44  73 105 150 207 263 319 394 477
#
# _framework density 25.224540000000001
#
# number of rings (size 3 to 8) (size 9 to 14) (size 15 to 20)
#    0.000    1.143    4.286    0.857    2.000    5.143 
#    0.000    0.000    3.143    0.000    0.000    0.000 
#    0.000    0.000    0.000    0.000    0.000    0.000 
#
# Total GULP energy -311941.409031 kJ/mol
# GULP energy per Si atom -5570.382304 kJ/mol
# Density = 2.516713 g / cm^3
# Si number density = 25.224540 Si / 1000 Ang^3
#
#
#
# Elastic Constant Matrix: (Units=GPa)
#
#
# Indices 1 2 3 4 5 6 
#
# 1 167.2788 10.6921 17.9969 0.0000 0.0000 0.0000
# 2 10.6921 66.2201 -8.4204 0.0000 0.0000 0.0000
# 3 17.9969 -8.4204 99.7433 0.0000 0.0000 0.0000
# 4 0.0000 0.0000 0.0000 -0.9205 0.0000 0.0000
# 5 0.0000 0.0000 0.0000 0.0000 23.9481 0.0000
# 6 0.0000 0.0000 0.0000 0.0000 0.0000 -14.8333
#
#
#
# Elastic Compliance Matrix: (Units=1/GPa)
#
#
# Indices 1 2 3 4 5 6 
#
# 1 0.006182 -0.001152 -0.001213 0.000000 0.000000 0.000000
# 2 -0.001152 0.015480 0.001515 0.000000 0.000000 0.000000
# 3 -0.001213 0.001515 0.010372 0.000000 0.000000 0.000000
# 4 0.000000 0.000000 0.000000 -1.086411 0.000000 0.000000
# 5 0.000000 0.000000 0.000000 0.000000 0.041757 0.000000
# 6 0.000000 0.000000 0.000000 0.000000 0.000000 -0.067416
#
#
# Mechanical properties :
#
#
# Convention : Reuss Voigt Hill
#
# Bulk Modulus (GPa) = 32.96669 41.53103 37.24886
# Shear Modulus (GPa) = -4.68067 22.50378 8.91156
#
# Velocity S-wave (km/s) = -1.36368 2.99011 1.88164
# Velocity P-wave (km/s) = 3.25855 5.33116 4.41811
#
# Compressibility (1/GPa) = 0.03033365
#
# Stress axis : x y z
#
# Youngs Moduli (GPa) = 161.75525 64.60018 96.40939
#
# Poissons Ratio (x) = 0.07445 0.11692
# Poissons Ratio (y) = 0.18641 -0.14604
# Poissons Ratio (z) = 0.19617 -0.09785
#
# Static dielectric constant tensor:
#      x y z
#    x 2.157640 0.000000 0.000000 
#    y 0.000000 1.048920 0.000000 
#    z 0.000000 0.000000 1.983060 
# 
# From -- ./inp_files/12281.got.cif
#   From: 2010.05.17/outbox.cif.g08.bks.cpg/sg56_7_cif.got.tgz:12281.got - 2010.06.03 13:42:01.
