data_PCOD9431614
_publ_section_title
;
Structure prediction by ZEFSAII (Michael W. Deem and Ramdas Pophale) SiO2 
 PCOD9431614
Probable space group: P C C N
;
_chemical_formula_sum "Si O2"
_cell_formula_units_Z 48
_cell_length_a 7.863083
_cell_length_b 12.548727
_cell_length_c 19.833454
_cell_angle_alpha 90.000000
_cell_angle_beta 90.000000
_cell_angle_gamma 90.000000
_cell_volume 1957.000265
_symmetry_space_group_name_H-M "P C C N"
_symmetry_group_IT_number 56
_symmetry_cell_setting 'orthorhombic'
loop_
_space_group_symop_operation_xyz
x,y,z
1/2-x,1/2-y,z
1/2+x,-y,1/2-z
-x,1/2+y,1/2-z
-x,-y,-z
1/2+x,1/2+y,-z
1/2-x,y,1/2+z
x,1/2-y,1/2+z
loop_
_atom_site_type_symbol
_atom_site_label
_atom_site_fract_x
_atom_site_fract_y
_atom_site_fract_z
Si Si1 0.083339 0.322550 0.644894
Si Si2 0.947632 0.358135 0.241208
Si Si3 0.192263 0.525197 0.177300
Si Si4 0.035373 0.418194 0.941762
Si Si5 0.142752 0.360089 0.382182
Si Si6 0.059816 0.793783 0.998287
O O1 0.250000 0.250000 0.631116
O O2 0.157680 0.437286 0.666891
O O3 0.980360 0.249787 0.698843
O O4 0.981020 0.335219 0.575684
O O5 0.761844 0.392429 0.267273
O O6 0.032414 0.454087 0.199686
O O7 0.056143 0.358610 0.310089
O O8 0.120020 0.584702 0.111246
O O9 0.209060 0.441999 0.901776
O O10 0.000000 0.500000 0.000000
O O11 0.052462 0.310141 0.984478
O O12 0.250000 0.250000 0.380548
O O13 0.000031 0.367941 0.440252
O O14 0.250000 0.750000 0.001601
#
# Coordination Sequence:
#
# PCOD9431614 Si02
#       6
#     8   8   8   8   8   8
#     4  10  22  43  64  88 130 177 219 274 344 415
#     4  11  23  41  62  92 129 169 218 281 342 409
#     4  11  23  39  64  96 128 175 230 280 345 423
#     4  11  22  39  64  92 126 171 223 279 337 414
#     4  10  21  40  63  87 124 171 216 269 337 407
#     4  11  23  40  62  93 126 167 216 275 342 408
#
# _framework density 24.527334
#
# number of rings (size 3 to 8) (size 9 to 14) (size 15 to 20)
#    0.000    1.333    0.000    8.000    0.000    4.000 
#    0.000    7.500    0.000    0.000    0.000    0.000 
#    0.000    0.000    0.000    0.000    0.000    0.000 
#
# Total GULP energy -268345.727439 kJ/mol
# GULP energy per Si atom -5590.535988 kJ/mol
# Density = 2.447151 g / cm^3
# Si number density = 24.527334 Si / 1000 Ang^3
#
#
#
# Elastic Constant Matrix: (Units=GPa)
#
#
# Indices 1 2 3 4 5 6 
#
# 1 96.1518 28.6750 43.1882 0.0000 0.0000 0.0000
# 2 28.6750 38.9417 37.2714 0.0000 0.0000 0.0000
# 3 43.1882 37.2714 149.6221 0.0000 0.0000 0.0000
# 4 0.0000 0.0000 0.0000 27.5014 0.0000 0.0000
# 5 0.0000 0.0000 0.0000 0.0000 -5.6720 0.0000
# 6 0.0000 0.0000 0.0000 0.0000 0.0000 25.1470
#
#
#
# Elastic Compliance Matrix: (Units=1/GPa)
#
#
# Indices 1 2 3 4 5 6 
#
# 1 0.013725 -0.008291 -0.001896 0.000000 0.000000 0.000000
# 2 -0.008291 0.038728 -0.007254 0.000000 0.000000 0.000000
# 3 -0.001896 -0.007254 0.009038 0.000000 0.000000 0.000000
# 4 0.000000 0.000000 0.000000 0.036362 0.000000 0.000000
# 5 0.000000 0.000000 0.000000 0.000000 -0.176305 0.000000
# 6 0.000000 0.000000 0.000000 0.000000 0.000000 0.039766
#
#
# Mechanical properties :
#
#
# Convention : Reuss Voigt Hill
#
# Bulk Modulus (GPa) = 37.58393 55.88720 46.73557
# Shear Modulus (GPa) = 987.18387 21.10068 504.14227
#
# Velocity S-wave (km/s) = 20.08375 2.93626 14.35233
# Velocity P-wave (km/s) = 23.51948 5.85923 17.13908
#
# Compressibility (1/GPa) = 0.02660712
#
# Stress axis : x y z
#
# Youngs Moduli (GPa) = 72.86170 25.82140 110.64634
#
# Poissons Ratio (x) = 0.21409 0.20981
# Poissons Ratio (y) = 0.60412 0.80262
# Poissons Ratio (z) = 0.13816 0.18731
#
# Static dielectric constant tensor:
#      x y z
#    x 2.230160 0.000000 0.000000 
#    y 0.000000 1.904480 0.000000 
#    z 0.000000 0.000000 1.964370 
# 
# From -- ./inp_files/14790.got.cif
#   From: 2010.05.17/outbox.cif.g08.bks.cpg/sg56_8_cif.got.tgz:14790.got - 2010.06.03 13:42:01.
