data_PCOD9431548
_publ_section_title
;
Structure prediction by ZEFSAII (Michael W. Deem and Ramdas Pophale) SiO2 
 PCOD9431548
Probable space group: P C C N
;
_chemical_formula_sum "Si O2"
_cell_formula_units_Z 48
_cell_length_a 26.977653
_cell_length_b 5.192753
_cell_length_c 18.021152
_cell_angle_alpha 90.000000
_cell_angle_beta 90.000000
_cell_angle_gamma 90.000000
_cell_volume 2524.552341
_symmetry_space_group_name_H-M "P C C N"
_symmetry_group_IT_number 56
_symmetry_cell_setting 'orthorhombic'
loop_
_space_group_symop_operation_xyz
x,y,z
1/2-x,1/2-y,z
1/2+x,-y,1/2-z
-x,1/2+y,1/2-z
-x,-y,-z
1/2+x,1/2+y,-z
1/2-x,y,1/2+z
x,1/2-y,1/2+z
loop_
_atom_site_type_symbol
_atom_site_label
_atom_site_fract_x
_atom_site_fract_y
_atom_site_fract_z
Si Si1 0.609957 0.084493 0.666583
Si Si2 0.553538 0.503631 0.401178
Si Si3 0.037819 0.806496 0.958324
Si Si4 0.808743 0.249615 0.757812
Si Si5 0.135595 0.233291 0.699584
Si Si6 0.469022 0.671212 0.235390
O O1 0.580438 0.056778 0.590272
O O2 0.665668 0.191703 0.677009
O O3 0.577649 0.290395 0.712287
O O4 0.610143 0.835866 0.720500
O O5 0.562994 0.385062 0.482201
O O6 0.499994 0.639022 0.408477
O O7 0.594596 0.691054 0.364639
O O8 0.547762 0.262253 0.345773
O O9 0.000000 0.000000 0.000000
O O10 0.750000 0.250000 0.752999
O O11 0.826812 0.492290 0.806659
O O12 0.833442 0.993933 0.792635
O O13 0.492916 0.394286 0.239889
#
# Coordination Sequence:
#
# PCOD9431548 Si02
#       6
#     8   8   8   8   8   8
#     4   9  22  32  59  83 119 155 197 242 297 349
#     4  10  23  33  55  85 126 163 199 236 290 360
#     4  11  22  37  53  85 130 170 200 232 286 368
#     4  10  21  39  65  92 111 142 201 266 314 347
#     4   9  22  37  63  89 120 152 198 252 308 352
#     4  11  21  33  55  81 118 150 198 234 287 342
#
# _framework density 19.013269999999999
#
# number of rings (size 3 to 8) (size 9 to 14) (size 15 to 20)
#    1.000    1.000    1.667    1.500    7.000    2.667 
#    0.000    0.000    0.000    1.000    0.000    0.000 
#    0.000    0.000    0.000    0.000    0.000    0.000 
#
# Total GULP energy -267415.914194 kJ/mol
# GULP energy per Si atom -5571.164879 kJ/mol
# Density = 1.897000 g / cm^3
# Si number density = 19.013270 Si / 1000 Ang^3
#
#
#
# Elastic Constant Matrix: (Units=GPa)
#
#
# Indices 1 2 3 4 5 6 
#
# 1 138.0136 49.1293 41.7709 0.0000 0.0000 0.0000
# 2 49.1293 110.8908 19.8229 0.0000 0.0000 0.0000
# 3 41.7709 19.8229 76.6491 0.0000 0.0000 0.0000
# 4 0.0000 0.0000 0.0000 7.9889 0.0000 0.0000
# 5 0.0000 0.0000 0.0000 0.0000 22.6981 0.0000
# 6 0.0000 0.0000 0.0000 0.0000 0.0000 25.7937
#
#
#
# Elastic Compliance Matrix: (Units=1/GPa)
#
#
# Indices 1 2 3 4 5 6 
#
# 1 0.009866 -0.003575 -0.004452 0.000000 0.000000 0.000000
# 2 -0.003575 0.010751 -0.000832 0.000000 0.000000 0.000000
# 3 -0.004452 -0.000832 0.015688 0.000000 0.000000 0.000000
# 4 0.000000 0.000000 0.000000 0.125173 0.000000 0.000000
# 5 0.000000 0.000000 0.000000 0.000000 0.044057 0.000000
# 6 0.000000 0.000000 0.000000 0.000000 0.000000 0.038769
#
#
# Mechanical properties :
#
#
# Convention : Reuss Voigt Hill
#
# Bulk Modulus (GPa) = 53.80373 60.77774 57.29073
# Shear Modulus (GPa) = 18.64168 25.61818 22.12993
#
# Velocity S-wave (km/s) = 3.13462 3.67466 3.41533
# Velocity P-wave (km/s) = 6.43899 7.07386 6.76388
#
# Compressibility (1/GPa) = 0.01858607
#
# Stress axis : x y z
#
# Youngs Moduli (GPa) = 101.36138 93.01863 63.74407
#
# Poissons Ratio (x) = 0.33255 0.28378
# Poissons Ratio (y) = 0.36238 0.05303
# Poissons Ratio (z) = 0.45125 0.07739
#
# Static dielectric constant tensor:
#      x y z
#    x 1.683570 0.000000 0.000000 
#    y 0.000000 1.728920 0.000000 
#    z 0.000000 0.000000 1.762260 
# 
# From -- ./inp_files/16997.got.cif
#   From: 2010.05.17/outbox.cif.g08.bks.cpg/sg56_9_cif.got.tgz:16997.got - 2010.06.03 13:42:01.
