data_PCOD9431457
_publ_section_title
;
Structure prediction by ZEFSAII (Michael W. Deem and Ramdas Pophale) SiO2 
 PCOD9431457
Probable space group: P C C N
;
_chemical_formula_sum "Si O2"
_cell_formula_units_Z 40
_cell_length_a 10.978892
_cell_length_b 7.611422
_cell_length_c 17.134033
_cell_angle_alpha 90.000000
_cell_angle_beta 90.000000
_cell_angle_gamma 90.000000
_cell_volume 1431.805127
_symmetry_space_group_name_H-M "P C C N"
_symmetry_group_IT_number 56
_symmetry_cell_setting 'orthorhombic'
loop_
_space_group_symop_operation_xyz
x,y,z
1/2-x,1/2-y,z
1/2+x,-y,1/2-z
-x,1/2+y,1/2-z
-x,-y,-z
1/2+x,1/2+y,-z
1/2-x,y,1/2+z
x,1/2-y,1/2+z
loop_
_atom_site_type_symbol
_atom_site_label
_atom_site_fract_x
_atom_site_fract_y
_atom_site_fract_z
Si Si1 0.750000 0.250000 0.807733
Si Si2 0.000000 0.000000 0.000000
Si Si3 0.982007 0.242080 0.706608
Si Si4 0.264765 0.045251 0.071818
Si Si5 0.662398 0.074098 0.087084
Si Si6 0.115925 0.383149 0.346876
O O1 0.861820 0.193198 0.755116
O O2 0.791789 0.416118 0.857527
O O3 0.056404 0.144562 0.932030
O O4 0.132532 0.987833 0.039238
O O5 0.963898 0.125668 0.628796
O O6 0.956153 0.436555 0.676725
O O7 0.089291 0.226401 0.768548
O O8 0.250000 0.250000 0.092472
O O9 0.350275 0.999442 0.999082
O O10 0.750000 0.250000 0.084431
O O11 0.744434 0.935678 0.135160
#
# Coordination Sequence:
#
# PCOD9431457 Si02
#       6
#     4   4   8   8   8   8
#     4  12  22  44  66  96 140 172 214 292 334 402
#     4  10  22  42  62  92 138 166 222 290 316 410
#     4  11  22  39  64  95 127 178 214 278 342 387
#     4  11  24  42  69  96 128 181 225 273 344 404
#     4   9  19  41  63  87 129 174 214 273 338 390
#     4  10  21  38  64  91 127 170 220 268 337 397
#
# _framework density 27.936761000000001
#
# number of rings (size 3 to 8) (size 9 to 14) (size 15 to 20)
#    0.000    1.600    6.000    0.000    0.000    4.800 
#    0.000    2.000    0.000    0.000    0.000    0.000 
#    0.000    0.000    0.000    0.000    0.000    0.000 
#
# Total GULP energy -223115.040051 kJ/mol
# GULP energy per Si atom -5577.876001 kJ/mol
# Density = 2.787318 g / cm^3
# Si number density = 27.936761 Si / 1000 Ang^3
#
#
#
# Elastic Constant Matrix: (Units=GPa)
#
#
# Indices 1 2 3 4 5 6 
#
# 1 64.3158 -9.6253 15.6606 0.0000 0.0000 0.0000
# 2 -9.6253 102.0062 33.7290 0.0000 0.0000 0.0000
# 3 15.6606 33.7290 144.0994 0.0000 0.0000 0.0000
# 4 0.0000 0.0000 0.0000 -18.0549 0.0000 0.0000
# 5 0.0000 0.0000 0.0000 0.0000 233.9584 0.0000
# 6 0.0000 0.0000 0.0000 0.0000 0.0000 30.0061
#
#
#
# Elastic Compliance Matrix: (Units=1/GPa)
#
#
# Indices 1 2 3 4 5 6 
#
# 1 0.016464 0.002325 -0.002334 0.000000 0.000000 0.000000
# 2 0.002325 0.010954 -0.002817 0.000000 0.000000 0.000000
# 3 -0.002334 -0.002817 0.007853 0.000000 0.000000 0.000000
# 4 0.000000 0.000000 0.000000 -0.055387 0.000000 0.000000
# 5 0.000000 0.000000 0.000000 0.000000 0.004274 0.000000
# 6 0.000000 0.000000 0.000000 0.000000 0.000000 0.033327
#
#
# Mechanical properties :
#
#
# Convention : Reuss Voigt Hill
#
# Bulk Modulus (GPa) = 33.75989 43.32780 38.54384
# Shear Modulus (GPa) = 151.47331 67.22572 109.34951
#
# Velocity S-wave (km/s) = 7.37142 4.91078 6.26313
# Velocity P-wave (km/s) = 9.19571 6.90632 8.13198
#
# Compressibility (1/GPa) = 0.02962095
#
# Stress axis : x y z
#
# Youngs Moduli (GPa) = 60.73676 91.29004 127.34683
#
# Poissons Ratio (x) = -0.21227 0.29718
# Poissons Ratio (y) = -0.14123 0.35870
# Poissons Ratio (z) = 0.14174 0.25714
#
# Static dielectric constant tensor:
#      x y z
#    x 2.067690 0.000000 0.000000 
#    y 0.000000 2.339400 0.000000 
#    z 0.000000 0.000000 2.244220 
# 
# From -- ./inp_files/14647.got.cif
#   From: 2010.05.17/outbox.cif.g08.bks.cpg/sg56_8_cif.got.tgz:14647.got - 2010.06.03 13:42:01.
