data_PCOD9431574
_publ_section_title
;
Structure prediction by ZEFSAII (Michael W. Deem and Ramdas Pophale) SiO2 
 PCOD9431574
Probable space group: P C C N
;
_chemical_formula_sum "Si O2"
_cell_formula_units_Z 40
_cell_length_a 11.935481
_cell_length_b 9.916481
_cell_length_c 14.409005
_cell_angle_alpha 90.000000
_cell_angle_beta 90.000000
_cell_angle_gamma 90.000000
_cell_volume 1705.420590
_symmetry_space_group_name_H-M "P C C N"
_symmetry_group_IT_number 56
_symmetry_cell_setting 'orthorhombic'
loop_
_space_group_symop_operation_xyz
x,y,z
1/2-x,1/2-y,z
1/2+x,-y,1/2-z
-x,1/2+y,1/2-z
-x,-y,-z
1/2+x,1/2+y,-z
1/2-x,y,1/2+z
x,1/2-y,1/2+z
loop_
_atom_site_type_symbol
_atom_site_label
_atom_site_fract_x
_atom_site_fract_y
_atom_site_fract_z
Si Si1 0.030284 0.509667 0.669272
Si Si2 0.210878 0.097389 0.858996
Si Si3 0.271148 0.040127 0.142354
Si Si4 0.942784 0.191746 0.324827
Si Si5 0.097823 0.399632 0.974581
O O1 0.141263 0.467384 0.614189
O O2 0.067333 0.655912 0.710629
O O3 0.910076 0.533299 0.621018
O O4 0.004968 0.400978 0.749134
O O5 0.250000 0.250000 0.887781
O O6 0.221247 0.091510 0.747856
O O7 0.309799 0.021885 0.912604
O O8 0.332706 0.892940 0.146338
O O9 0.341023 0.131612 0.071183
O O10 0.027483 0.203535 0.411912
O O11 0.000000 0.500000 0.000000
#
# Coordination Sequence:
#
# PCOD9431574 Si02
#       5
#     8   8   8   8   8
#     4  11  20  39  69  97 132 176 224 278 332 401
#     4  11  21  39  65  98 134 171 223 280 334 404
#     4  10  22  37  67  94 134 176 226 271 346 388
#     4  10  21  39  68  95 137 176 221 276 340 403
#     4  10  21  41  64  92 135 180 214 275 341 400
#
# _framework density 23.454623999999999
#
# number of rings (size 3 to 8) (size 9 to 14) (size 15 to 20)
#    0.000    1.600    4.000    0.600    0.000    1.600 
#    0.000    2.000   52.800    0.000    0.000    0.000 
#    0.000    0.000    0.000    0.000    0.000    0.000 
#
# Total GULP energy -222951.568666 kJ/mol
# GULP energy per Si atom -5573.789217 kJ/mol
# Density = 2.340124 g / cm^3
# Si number density = 23.454624 Si / 1000 Ang^3
#
#
#
# Elastic Constant Matrix: (Units=GPa)
#
#
# Indices 1 2 3 4 5 6 
#
# 1 201.4144 -1.3485 29.6091 0.0000 0.0000 0.0000
# 2 -1.3485 84.5393 1.1511 0.0000 0.0000 0.0000
# 3 29.6091 1.1511 70.7808 0.0000 0.0000 0.0000
# 4 0.0000 0.0000 0.0000 11.2069 0.0000 0.0000
# 5 0.0000 0.0000 0.0000 0.0000 37.6693 0.0000
# 6 0.0000 0.0000 0.0000 0.0000 0.0000 23.1200
#
#
#
# Elastic Compliance Matrix: (Units=1/GPa)
#
#
# Indices 1 2 3 4 5 6 
#
# 1 0.005291 0.000115 -0.002215 0.000000 0.000000 0.000000
# 2 0.000115 0.011834 -0.000240 0.000000 0.000000 0.000000
# 3 -0.002215 -0.000240 0.015059 0.000000 0.000000 0.000000
# 4 0.000000 0.000000 0.000000 0.089231 0.000000 0.000000
# 5 0.000000 0.000000 0.000000 0.000000 0.026547 0.000000
# 6 0.000000 0.000000 0.000000 0.000000 0.000000 0.043253
#
#
# Mechanical properties :
#
#
# Convention : Reuss Voigt Hill
#
# Bulk Modulus (GPa) = 36.36139 46.17311 41.26725
# Shear Modulus (GPa) = 24.38264 36.22076 30.30170
#
# Velocity S-wave (km/s) = 3.22773 3.93401 3.59824
# Velocity P-wave (km/s) = 5.42471 6.35328 5.90727
#
# Compressibility (1/GPa) = 0.02750170
#
# Stress axis : x y z
#
# Youngs Moduli (GPa) = 188.98867 84.50289 66.40651
#
# Poissons Ratio (x) = -0.00968 0.14711
# Poissons Ratio (y) = -0.02165 0.01596
# Poissons Ratio (z) = 0.41867 0.02031
#
# Static dielectric constant tensor:
#      x y z
#    x 1.995020 0.000000 0.000000 
#    y 0.000000 1.934720 0.000000 
#    z 0.000000 0.000000 1.916710 
# 
# From -- ./inp_files/11406.got.cif
#   From: 2010.05.17/outbox.cif.g08.bks.cpg/sg56_6_cif.got.tgz:11406.got - 2010.06.03 13:42:01.
