data_PCOD9431541
_publ_section_title
;
Structure prediction by ZEFSAII (Michael W. Deem and Ramdas Pophale) SiO2 
 PCOD9431541
Probable space group: P C C N
;
_chemical_formula_sum "Si O2"
_cell_formula_units_Z 32
_cell_length_a 4.880647
_cell_length_b 13.160404
_cell_length_c 21.082914
_cell_angle_alpha 90.000000
_cell_angle_beta 90.000000
_cell_angle_gamma 90.000000
_cell_volume 1354.182685
_symmetry_space_group_name_H-M "P C C N"
_symmetry_group_IT_number 56
_symmetry_cell_setting 'orthorhombic'
loop_
_space_group_symop_operation_xyz
x,y,z
1/2-x,1/2-y,z
1/2+x,-y,1/2-z
-x,1/2+y,1/2-z
-x,-y,-z
1/2+x,1/2+y,-z
1/2-x,y,1/2+z
x,1/2-y,1/2+z
loop_
_atom_site_type_symbol
_atom_site_label
_atom_site_fract_x
_atom_site_fract_y
_atom_site_fract_z
Si Si1 0.768578 0.127872 0.487044
Si Si2 0.994422 0.175373 0.113732
Si Si3 0.891111 0.493243 0.709155
Si Si4 0.225647 0.127712 0.905695
O O1 0.750000 0.250000 0.487844
O O2 0.630133 0.109501 0.555005
O O3 0.574581 0.098961 0.429609
O O4 0.070814 0.099370 0.464130
O O5 0.250000 0.250000 0.096793
O O6 0.750000 0.250000 0.132771
O O7 0.037429 0.097883 0.170677
O O8 0.641086 0.455291 0.753015
O O9 0.740859 0.568728 0.659616
O O10 0.250000 0.250000 0.897241
#
# Coordination Sequence:
#
# PCOD9431541 Si02
#       4
#     8   8   8   8
#     4   9  18  36  64  95 123 156 205 264 335 399
#     4  11  23  42  67  95 131 170 213 275 337 389
#     4  12  27  43  61  92 131 177 231 265 306 392
#     4  10  21  39  64  92 125 162 207 270 330 382
#
# _framework density 23.630488
#
# number of rings (size 3 to 8) (size 9 to 14) (size 15 to 20)
#    0.000    1.500    0.000    6.750    0.000    5.000 
#    0.000    0.000    0.000    4.500    0.000    0.000 
#    0.000    0.000    0.000    0.000    0.000    0.000 
#
# Total GULP energy -178667.288914 kJ/mol
# GULP energy per Si atom -5583.352779 kJ/mol
# Density = 2.357670 g / cm^3
# Si number density = 23.630488 Si / 1000 Ang^3
#
#
#
# Elastic Constant Matrix: (Units=GPa)
#
#
# Indices 1 2 3 4 5 6 
#
# 1 92.8152 -0.1166 16.4677 0.0000 0.0000 0.0000
# 2 -0.1166 91.5492 24.5346 0.0000 0.0000 0.0000
# 3 16.4677 24.5346 96.2865 0.0000 0.0000 0.0000
# 4 0.0000 0.0000 0.0000 30.2912 0.0000 0.0000
# 5 0.0000 0.0000 0.0000 0.0000 35.3378 0.0000
# 6 0.0000 0.0000 0.0000 0.0000 0.0000 20.4381
#
#
#
# Elastic Compliance Matrix: (Units=1/GPa)
#
#
# Indices 1 2 3 4 5 6 
#
# 1 0.011138 0.000563 -0.002048 0.000000 0.000000 0.000000
# 2 0.000563 0.011752 -0.003091 0.000000 0.000000 0.000000
# 3 -0.002048 -0.003091 0.011524 0.000000 0.000000 0.000000
# 4 0.000000 0.000000 0.000000 0.033013 0.000000 0.000000
# 5 0.000000 0.000000 0.000000 0.000000 0.028298 0.000000
# 6 0.000000 0.000000 0.000000 0.000000 0.000000 0.048928
#
#
# Mechanical properties :
#
#
# Convention : Reuss Voigt Hill
#
# Bulk Modulus (GPa) = 39.58567 40.26916 39.92741
# Shear Modulus (GPa) = 30.82117 33.19778 32.00947
#
# Velocity S-wave (km/s) = 3.61542 3.75223 3.68446
# Velocity P-wave (km/s) = 5.84950 5.98753 5.91892
#
# Compressibility (1/GPa) = 0.02526167
#
# Stress axis : x y z
#
# Youngs Moduli (GPa) = 89.78066 85.09088 86.77848
#
# Poissons Ratio (x) = -0.04792 0.17776
# Poissons Ratio (y) = -0.05056 0.26822
# Poissons Ratio (z) = 0.18391 0.26300
#
# Static dielectric constant tensor:
#      x y z
#    x 1.924200 0.000000 0.000000 
#    y 0.000000 1.954140 0.000000 
#    z 0.000000 0.000000 1.947580 
# 
# From -- ./inp_files/13690.got.cif
#   From: 2010.05.17/outbox.cif.g08.bks.cpg/sg56_7_cif.got.tgz:13690.got - 2010.06.03 13:42:01.
