data_PCOD9431146
_publ_section_title
;
Structure prediction by ZEFSAII (Michael W. Deem and Ramdas Pophale) SiO2 
 PCOD9431146
Probable space group: P C C N
;
_chemical_formula_sum "Si O2"
_cell_formula_units_Z 48
_cell_length_a 24.624061
_cell_length_b 13.268225
_cell_length_c 5.204270
_cell_angle_alpha 90.000000
_cell_angle_beta 90.000000
_cell_angle_gamma 90.000000
_cell_volume 1700.326509
_symmetry_space_group_name_H-M "P C C N"
_symmetry_group_IT_number 56
_symmetry_cell_setting 'orthorhombic'
loop_
_space_group_symop_operation_xyz
x,y,z
1/2-x,1/2-y,z
1/2+x,-y,1/2-z
-x,1/2+y,1/2-z
-x,-y,-z
1/2+x,1/2+y,-z
1/2-x,y,1/2+z
x,1/2-y,1/2+z
loop_
_atom_site_type_symbol
_atom_site_label
_atom_site_fract_x
_atom_site_fract_y
_atom_site_fract_z
Si Si1 0.713245 0.873667 0.846254
Si Si2 0.851892 0.015215 0.039318
Si Si3 0.543715 0.513707 0.273728
Si Si4 0.311862 0.792592 0.745472
Si Si5 0.492688 0.287269 0.874615
Si Si6 0.614619 0.844199 0.133961
O O1 0.746895 0.861502 0.586360
O O2 0.685908 0.981872 0.779212
O O3 0.662970 0.805039 0.946504
O O4 0.819950 0.096328 0.868471
O O5 0.911895 0.053676 0.123374
O O6 0.863376 0.913453 0.868803
O O7 0.500000 0.500000 0.500000
O O8 0.517851 0.595511 0.074427
O O9 0.585939 0.577529 0.444052
O O10 0.250000 0.750000 0.779477
O O11 0.336834 0.778979 0.025782
O O12 0.521199 0.271390 0.602396
O O13 0.435022 0.231171 0.804983
#
# Coordination Sequence:
#
# PCOD9431146 Si02
#       6
#     8   8   8   8   8   8
#     4  11  23  36  66 106 136 182 231 288 346 429
#     4  11  23  42  70 101 141 193 244 289 368 442
#     4  10  23  43  71 108 142 187 240 309 368 440
#     4  10  25  41  63  96 135 185 237 296 347 419
#     4  10  20  41  69 101 132 182 232 289 360 424
#     4  10  22  41  72 104 141 192 238 293 363 441
#
# _framework density 28.229870999999999
#
# number of rings (size 3 to 8) (size 9 to 14) (size 15 to 20)
#    0.000    1.667    3.333    0.000    9.333    0.667 
#    0.000    3.333    0.000   27.000    0.000    0.000 
#    0.000    0.000    0.000    0.000    0.000    0.000 
#
# Total GULP energy -267989.785434 kJ/mol
# GULP energy per Si atom -5583.120530 kJ/mol
# Density = 2.816562 g / cm^3
# Si number density = 28.229871 Si / 1000 Ang^3
#
#
#
# Elastic Constant Matrix: (Units=GPa)
#
#
# Indices 1 2 3 4 5 6 
#
# 1 111.2403 0.6351 -11.2490 0.0000 0.0000 0.0000
# 2 0.6351 98.5065 -20.3289 0.0000 0.0000 0.0000
# 3 -11.2490 -20.3289 111.0997 0.0000 0.0000 0.0000
# 4 0.0000 0.0000 0.0000 45.1250 0.0000 0.0000
# 5 0.0000 0.0000 0.0000 0.0000 36.9201 0.0000
# 6 0.0000 0.0000 0.0000 0.0000 0.0000 39.0886
#
#
#
# Elastic Compliance Matrix: (Units=1/GPa)
#
#
# Indices 1 2 3 4 5 6 
#
# 1 0.009084 0.000136 0.000945 0.000000 0.000000 0.000000
# 2 0.000136 0.010552 0.001945 0.000000 0.000000 0.000000
# 3 0.000945 0.001945 0.009452 0.000000 0.000000 0.000000
# 4 0.000000 0.000000 0.000000 0.022161 0.000000 0.000000
# 5 0.000000 0.000000 0.000000 0.000000 0.027086 0.000000
# 6 0.000000 0.000000 0.000000 0.000000 0.000000 0.025583
#
#
# Mechanical properties :
#
#
# Convention : Reuss Voigt Hill
#
# Bulk Modulus (GPa) = 28.45734 28.77342 28.61538
# Shear Modulus (GPa) = 45.62885 47.67934 46.65410
#
# Velocity S-wave (km/s) = 4.02473 4.11416 4.06969
# Velocity P-wave (km/s) = 5.63031 5.72566 5.67818
#
# Compressibility (1/GPa) = 0.03514031
#
# Stress axis : x y z
#
# Youngs Moduli (GPa) = 110.07992 94.76838 105.79314
#
# Poissons Ratio (x) = -0.01293 -0.09995
# Poissons Ratio (y) = -0.01502 -0.20573
# Poissons Ratio (z) = -0.10400 -0.18429
#
# Static dielectric constant tensor:
#      x y z
#    x 2.394880 0.000000 0.000000 
#    y 0.000000 2.378430 0.000000 
#    z 0.000000 0.000000 2.418470 
# 
# From -- ./inp_files/1201.got.cif
#   From: 2010.05.17/outbox.cif.g08.bks.cpg/sg56_1_cif.got.tgz:1201.got - 2010.06.03 13:42:01.
