data_PCOD9431726
_publ_section_title
;
Structure prediction by ZEFSAII (Michael W. Deem and Ramdas Pophale) SiO2 
 PCOD9431726
Probable space group: P C C N
;
_chemical_formula_sum "Si O2"
_cell_formula_units_Z 56
_cell_length_a 15.007259
_cell_length_b 14.442015
_cell_length_c 11.055268
_cell_angle_alpha 90.000000
_cell_angle_beta 90.000000
_cell_angle_gamma 90.000000
_cell_volume 2396.064169
_symmetry_space_group_name_H-M "P C C N"
_symmetry_group_IT_number 56
_symmetry_cell_setting 'orthorhombic'
loop_
_space_group_symop_operation_xyz
x,y,z
1/2-x,1/2-y,z
1/2+x,-y,1/2-z
-x,1/2+y,1/2-z
-x,-y,-z
1/2+x,1/2+y,-z
1/2-x,y,1/2+z
x,1/2-y,1/2+z
loop_
_atom_site_type_symbol
_atom_site_label
_atom_site_fract_x
_atom_site_fract_y
_atom_site_fract_z
Si Si1 0.376127 0.174957 0.254853
Si Si2 0.673706 0.172221 0.909312
Si Si3 0.110255 0.368512 0.859483
Si Si4 0.275628 0.457511 0.567770
Si Si5 0.985018 0.211876 0.569181
Si Si6 0.404421 0.037070 0.457971
Si Si7 0.551249 0.384258 0.204246
O O1 0.353162 0.283116 0.278267
O O2 0.312323 0.114548 0.167746
O O3 0.472137 0.169066 0.188892
O O4 0.391069 0.130495 0.384509
O O5 0.750000 0.250000 0.905901
O O6 0.608546 0.180471 0.793557
O O7 0.699698 0.064166 0.908572
O O8 0.613402 0.185882 0.028364
O O9 0.033969 0.420832 0.780594
O O10 0.182509 0.425960 0.936725
O O11 0.050678 0.320593 0.963969
O O12 0.169302 0.458872 0.560599
O O13 0.985451 0.320339 0.597052
O O14 0.385092 0.960189 0.353772
O O15 0.500000 0.000000 0.500000
#
# Coordination Sequence:
#
# PCOD9431726 Si02
#       7
#     8   8   8   8   8   8   8
#     4  10  22  45  69 102 138 188 239 298 357 423
#     4  11  23  40  68 104 148 188 235 292 356 445
#     4   9  21  42  73  98 138 187 239 292 356 429
#     4  11  25  44  69 105 141 185 242 296 361 429
#     4   9  20  39  69 103 138 188 232 289 359 421
#     4  12  26  43  67  98 142 182 239 296 358 433
#     4  10  21  41  66 103 144 188 233 288 365 420
#
# _framework density 23.371661
#
# number of rings (size 3 to 8) (size 9 to 14) (size 15 to 20)
#    0.000    1.714    1.429    1.714    2.000    7.429 
#    0.000    4.286    0.000    0.000    0.000    0.000 
#    0.000    0.000    0.000    0.000    0.000    0.000 
#
# Total GULP energy -312641.734785 kJ/mol
# GULP energy per Si atom -5582.888121 kJ/mol
# Density = 2.331847 g / cm^3
# Si number density = 23.371661 Si / 1000 Ang^3
#
#
#
# Elastic Constant Matrix: (Units=GPa)
#
#
# Indices 1 2 3 4 5 6 
#
# 1 139.1706 39.3962 38.9492 0.0000 0.0000 0.0000
# 2 39.3962 91.6981 23.1605 0.0000 0.0000 0.0000
# 3 38.9492 23.1605 67.9693 0.0000 0.0000 0.0000
# 4 0.0000 0.0000 0.0000 31.7857 0.0000 0.0000
# 5 0.0000 0.0000 0.0000 0.0000 27.3152 0.0000
# 6 0.0000 0.0000 0.0000 0.0000 0.0000 36.6802
#
#
#
# Elastic Compliance Matrix: (Units=1/GPa)
#
#
# Indices 1 2 3 4 5 6 
#
# 1 0.009199 -0.002868 -0.004294 0.000000 0.000000 0.000000
# 2 -0.002868 0.012826 -0.002727 0.000000 0.000000 0.000000
# 3 -0.004294 -0.002727 0.018103 0.000000 0.000000 0.000000
# 4 0.000000 0.000000 0.000000 0.031461 0.000000 0.000000
# 5 0.000000 0.000000 0.000000 0.000000 0.036610 0.000000
# 6 0.000000 0.000000 0.000000 0.000000 0.000000 0.027263
#
#
# Mechanical properties :
#
#
# Convention : Reuss Voigt Hill
#
# Bulk Modulus (GPa) = 49.14109 55.76109 52.45109
# Shear Modulus (GPa) = 30.85995 32.31168 31.58581
#
# Velocity S-wave (km/s) = 3.63767 3.72225 3.68021
# Velocity P-wave (km/s) = 6.22215 6.51028 6.36785
#
# Compressibility (1/GPa) = 0.02034957
#
# Stress axis : x y z
#
# Youngs Moduli (GPa) = 108.70758 77.96557 55.24058
#
# Poissons Ratio (x) = 0.22357 0.23722
# Poissons Ratio (y) = 0.31172 0.15066
# Poissons Ratio (z) = 0.46682 0.21264
#
# Static dielectric constant tensor:
#      x y z
#    x 1.933370 0.000000 0.000000 
#    y 0.000000 1.949820 0.000000 
#    z 0.000000 0.000000 1.918700 
# 
# From -- ./inp_files/7869.got.cif
#   From: 2010.05.17/outbox.cif.g08.bks.cpg/sg56_4_cif.got.tgz:7869.got - 2010.06.03 13:42:01.
