data_PCOD9431286
_publ_section_title
;
Structure prediction by ZEFSAII (Michael W. Deem and Ramdas Pophale) SiO2 
 PCOD9431286
Probable space group: P C C N
;
_chemical_formula_sum "Si O2"
_cell_formula_units_Z 60
_cell_length_a 7.995268
_cell_length_b 19.025736
_cell_length_c 17.040252
_cell_angle_alpha 90.000000
_cell_angle_beta 90.000000
_cell_angle_gamma 90.000000
_cell_volume 2592.092557
_symmetry_space_group_name_H-M "P C C N"
_symmetry_group_IT_number 56
_symmetry_cell_setting 'orthorhombic'
loop_
_space_group_symop_operation_xyz
x,y,z
1/2-x,1/2-y,z
1/2+x,-y,1/2-z
-x,1/2+y,1/2-z
-x,-y,-z
1/2+x,1/2+y,-z
1/2-x,y,1/2+z
x,1/2-y,1/2+z
loop_
_atom_site_type_symbol
_atom_site_label
_atom_site_fract_x
_atom_site_fract_y
_atom_site_fract_z
Si Si1 0.250000 0.750000 0.392881
Si Si2 0.961782 0.453882 0.925336
Si Si3 0.413519 0.200451 0.125021
Si Si4 0.779943 0.957833 0.189558
Si Si5 0.483734 0.825065 0.691202
Si Si6 0.734434 0.564868 0.873213
Si Si7 0.918105 0.384655 0.679601
Si Si8 0.916540 0.323217 0.844009
O O1 0.433239 0.731725 0.424783
O O2 0.204600 0.676885 0.348307
O O3 0.116744 0.463817 0.865114
O O4 0.784769 0.488181 0.900382
O O5 0.940750 0.370931 0.919989
O O6 0.000000 0.500000 0.000000
O O7 0.250000 0.250000 0.123230
O O8 0.469945 0.192281 0.217339
O O9 0.368583 0.121887 0.099122
O O10 0.742389 0.941649 0.279684
O O11 0.911787 0.894937 0.167014
O O12 0.847700 0.037528 0.191479
O O13 0.508838 0.751036 0.646721
O O14 0.282526 0.828982 0.677024
O O15 0.556750 0.600553 0.887000
O O16 0.987722 0.355471 0.762537
#
# Coordination Sequence:
#
# PCOD9431286 Si02
#       8
#     4   8   8   8   8   8   8   8
#     4  12  20  32  54  98 150 174 212 288 372 408
#     4  12  27  44  65  97 143 191 229 297 367 434
#     4  11  19  31  57  99 144 168 218 298 362 402
#     4  11  23  37  67  99 130 177 241 291 353 418
#     4  10  21  35  64 103 130 174 234 302 343 417
#     4  11  21  38  65  95 130 177 237 287 354 417
#     4  12  20  36  63 101 133 176 229 297 353 416
#     4  11  19  39  64 100 139 173 227 297 363 414
#
# _framework density 23.147321999999999
#
# number of rings (size 3 to 8) (size 9 to 14) (size 15 to 20)
#    0.000    0.800    6.667    1.600    3.733    0.000 
#    0.000    2.667    2.933    6.400    0.000    0.000 
#    0.000    0.000    0.000    0.000    0.000    0.000 
#
# Total GULP energy -334020.733788 kJ/mol
# GULP energy per Si atom -5567.012230 kJ/mol
# Density = 2.309464 g / cm^3
# Si number density = 23.147322 Si / 1000 Ang^3
#
#
#
# Elastic Constant Matrix: (Units=GPa)
#
#
# Indices 1 2 3 4 5 6 
#
# 1 59.2265 13.9216 2.2228 0.0000 0.0000 0.0000
# 2 13.9216 173.4006 8.2114 0.0000 0.0000 0.0000
# 3 2.2228 8.2114 26.9905 0.0000 0.0000 0.0000
# 4 0.0000 0.0000 0.0000 17.4104 0.0000 0.0000
# 5 0.0000 0.0000 0.0000 0.0000 6.7495 0.0000
# 6 0.0000 0.0000 0.0000 0.0000 0.0000 51.0332
#
#
#
# Elastic Compliance Matrix: (Units=1/GPa)
#
#
# Indices 1 2 3 4 5 6 
#
# 1 0.017236 -0.001336 -0.001013 0.000000 0.000000 0.000000
# 2 -0.001336 0.005955 -0.001702 0.000000 0.000000 0.000000
# 3 -0.001013 -0.001702 0.037651 0.000000 0.000000 0.000000
# 4 0.000000 0.000000 0.000000 0.057437 0.000000 0.000000
# 5 0.000000 0.000000 0.000000 0.000000 0.148159 0.000000
# 6 0.000000 0.000000 0.000000 0.000000 0.000000 0.019595
#
#
# Mechanical properties :
#
#
# Convention : Reuss Voigt Hill
#
# Bulk Modulus (GPa) = 18.96050 34.25881 26.60965
# Shear Modulus (GPa) = 16.04032 30.72276 23.38154
#
# Velocity S-wave (km/s) = 2.63528 3.64712 3.18168
# Velocity P-wave (km/s) = 4.17955 5.70682 5.00182
#
# Compressibility (1/GPa) = 0.05274122
#
# Stress axis : x y z
#
# Youngs Moduli (GPa) = 58.01693 167.93110 26.55953
#
# Poissons Ratio (x) = 0.22433 0.02691
# Poissons Ratio (y) = 0.07750 0.04519
# Poissons Ratio (z) = 0.05878 0.28576
#
# Static dielectric constant tensor:
#      x y z
#    x 1.955970 0.000000 0.000000 
#    y 0.000000 1.952200 0.000000 
#    z 0.000000 0.000000 1.865790 
# 
# From -- ./inp_files/15125.got.cif
#   From: 2010.05.17/outbox.cif.g08.bks.cpg/sg56_8_cif.got.tgz:15125.got - 2010.06.03 13:42:01.
