data_PCOD9431975
_publ_section_title
;
Structure prediction by ZEFSAII (Michael W. Deem and Ramdas Pophale) SiO2 
 PCOD9431975
Probable space group: P C C N
;
_chemical_formula_sum "Si O2"
_cell_formula_units_Z 52
_cell_length_a 27.678564
_cell_length_b 6.597950
_cell_length_c 14.500575
_cell_angle_alpha 90.000000
_cell_angle_beta 90.000000
_cell_angle_gamma 90.000000
_cell_volume 2648.120837
_symmetry_space_group_name_H-M "P C C N"
_symmetry_group_IT_number 56
_symmetry_cell_setting 'orthorhombic'
loop_
_space_group_symop_operation_xyz
x,y,z
1/2-x,1/2-y,z
1/2+x,-y,1/2-z
-x,1/2+y,1/2-z
-x,-y,-z
1/2+x,1/2+y,-z
1/2-x,y,1/2+z
x,1/2-y,1/2+z
loop_
_atom_site_type_symbol
_atom_site_label
_atom_site_fract_x
_atom_site_fract_y
_atom_site_fract_z
Si Si1 0.594764 0.276369 0.038184
Si Si2 0.040421 0.669160 0.641246
Si Si3 0.250000 0.750000 0.487875
Si Si4 0.176863 0.080816 0.034687
Si Si5 0.059369 0.504243 0.286386
Si Si6 0.376375 0.366783 0.219465
Si Si7 0.831052 0.531662 0.088340
O O1 0.551286 0.295613 0.966144
O O2 0.633686 0.441954 0.004832
O O3 0.580651 0.335041 0.141355
O O4 0.621199 0.059535 0.037977
O O5 0.081625 0.520065 0.683730
O O6 0.987918 0.584749 0.664479
O O7 0.044958 0.880986 0.693850
O O8 0.221864 0.573888 0.543714
O O9 0.289369 0.633014 0.426946
O O10 0.158591 0.167669 0.132119
O O11 0.184428 0.260802 0.961497
O O12 0.097012 0.331244 0.258894
O O13 0.345179 0.447226 0.305248
#
# Coordination Sequence:
#
# PCOD9431975 Si02
#       7
#     8   8   4   8   8   8   8
#     4  10  22  38  62  89 126 170 207 260 308 366
#     4  11  23  38  58  92 130 169 214 258 302 359
#     4  10  24  42  66  92 126 156 196 266 306 392
#     4  10  22  42  63  91 126 160 206 248 319 376
#     4  12  21  40  59  92 128 167 220 256 305 362
#     4  11  23  39  65  90 124 170 204 256 308 368
#     4  11  21  43  65  92 122 158 206 254 318 374
#
# _framework density 19.636565000000001
#
# number of rings (size 3 to 8) (size 9 to 14) (size 15 to 20)
#    0.000    1.231    4.615    1.846    0.000    0.615 
#    0.000    4.615    0.000    0.000    0.000    0.000 
#    0.000    0.000    0.000    0.000    0.000    0.000 
#
# Total GULP energy -290359.865539 kJ/mol
# GULP energy per Si atom -5583.843568 kJ/mol
# Density = 1.959187 g / cm^3
# Si number density = 19.636565 Si / 1000 Ang^3
#
#
#
# Elastic Constant Matrix: (Units=GPa)
#
#
# Indices 1 2 3 4 5 6 
#
# 1 71.4011 15.0172 14.7980 0.0000 0.0000 0.0000
# 2 15.0172 43.1127 9.5232 0.0000 0.0000 0.0000
# 3 14.7980 9.5232 78.8496 0.0000 0.0000 0.0000
# 4 0.0000 0.0000 0.0000 21.8045 0.0000 0.0000
# 5 0.0000 0.0000 0.0000 0.0000 10.6491 0.0000
# 6 0.0000 0.0000 0.0000 0.0000 0.0000 28.9268
#
#
#
# Elastic Compliance Matrix: (Units=1/GPa)
#
#
# Indices 1 2 3 4 5 6 
#
# 1 0.015515 -0.004892 -0.002321 0.000000 0.000000 0.000000
# 2 -0.004892 0.025373 -0.002146 0.000000 0.000000 0.000000
# 3 -0.002321 -0.002146 0.013377 0.000000 0.000000 0.000000
# 4 0.000000 0.000000 0.000000 0.045862 0.000000 0.000000
# 5 0.000000 0.000000 0.000000 0.000000 0.093905 0.000000
# 6 0.000000 0.000000 0.000000 0.000000 0.000000 0.034570
#
#
# Mechanical properties :
#
#
# Convention : Reuss Voigt Hill
#
# Bulk Modulus (GPa) = 28.13152 30.22669 29.17911
# Shear Modulus (GPa) = 19.29237 22.54441 20.91839
#
# Velocity S-wave (km/s) = 3.13784 3.39201 3.26740
# Velocity P-wave (km/s) = 5.24264 5.54684 5.39689
#
# Compressibility (1/GPa) = 0.03554731
#
# Stress axis : x y z
#
# Youngs Moduli (GPa) = 64.45278 39.41190 74.75406
#
# Poissons Ratio (x) = 0.19279 0.17350
# Poissons Ratio (y) = 0.31528 0.16046
# Poissons Ratio (z) = 0.14960 0.08460
#
# Static dielectric constant tensor:
#      x y z
#    x 1.703550 0.000000 0.000000 
#    y 0.000000 1.688760 0.000000 
#    z 0.000000 0.000000 1.652200 
# 
# From -- ./inp_files/17020.got.cif
#   From: 2010.05.17/outbox.cif.g08.bks.cpg/sg56_9_cif.got.tgz:17020.got - 2010.06.03 13:42:01.
