data_PCOD9431183
_publ_section_title
;
Structure prediction by ZEFSAII (Michael W. Deem and Ramdas Pophale) SiO2 
 PCOD9431183
Probable space group: P C C N
;
_chemical_formula_sum "Si O2"
_cell_formula_units_Z 60
_cell_length_a 25.067282
_cell_length_b 6.075648
_cell_length_c 15.634030
_cell_angle_alpha 90.000000
_cell_angle_beta 90.000000
_cell_angle_gamma 90.000000
_cell_volume 2381.062484
_symmetry_space_group_name_H-M "P C C N"
_symmetry_group_IT_number 56
_symmetry_cell_setting 'orthorhombic'
loop_
_space_group_symop_operation_xyz
x,y,z
1/2-x,1/2-y,z
1/2+x,-y,1/2-z
-x,1/2+y,1/2-z
-x,-y,-z
1/2+x,1/2+y,-z
1/2-x,y,1/2+z
x,1/2-y,1/2+z
loop_
_atom_site_type_symbol
_atom_site_label
_atom_site_fract_x
_atom_site_fract_y
_atom_site_fract_z
Si Si1 0.371407 0.433983 0.774760
Si Si2 0.481784 0.809087 0.562325
Si Si3 0.250000 0.250000 0.506588
Si Si4 0.639861 0.832462 0.398882
Si Si5 0.916713 0.958204 0.537926
Si Si6 0.193723 0.820472 0.192620
Si Si7 0.992537 0.473122 0.717804
Si Si8 0.185151 0.436824 0.865347
O O1 0.376128 0.277833 0.691053
O O2 0.334972 0.625246 0.740369
O O3 0.429412 0.515731 0.803260
O O4 0.339691 0.305758 0.848347
O O5 0.531850 0.647446 0.585396
O O6 0.438895 0.654351 0.519644
O O7 0.466784 0.946633 0.644978
O O8 0.500000 0.000000 0.500000
O O9 0.300529 0.230159 0.568230
O O10 0.269823 0.434846 0.437934
O O11 0.603949 0.733611 0.474173
O O12 0.652327 0.084566 0.375879
O O13 0.869046 0.045323 0.597590
O O14 0.250000 0.750000 0.153486
O O15 0.204741 0.984957 0.272745
O O16 0.002668 0.208379 0.728234
#
# Coordination Sequence:
#
# PCOD9431183 Si02
#       8
#     8   8   4   8   8   8   8   8
#     4  11  24  43  70 102 140 190 245 302 376 445
#     4  11  26  43  73 102 151 191 250 316 381 451
#     4  10  20  42  68  98 138 178 232 298 384 446
#     4  10  23  42  68  97 139 181 235 303 364 453
#     4  10  23  44  67 103 140 191 243 298 388 440
#     4  11  24  42  71 100 140 185 247 303 384 450
#     4  12  30  48  79 113 156 203 262 314 385 463
#     4  10  22  42  70  98 141 182 239 303 374 464
#
# _framework density 25.198836
#
# number of rings (size 3 to 8) (size 9 to 14) (size 15 to 20)
#    0.000    1.333    1.333    2.400   11.200    3.200 
#    0.000   11.333    0.000    0.000    0.000    0.000 
#    0.000    0.000    0.000    0.000    0.000    0.000 
#
# Total GULP energy -334801.158017 kJ/mol
# GULP energy per Si atom -5580.019300 kJ/mol
# Density = 2.514148 g / cm^3
# Si number density = 25.198836 Si / 1000 Ang^3
#
#
#
# Elastic Constant Matrix: (Units=GPa)
#
#
# Indices 1 2 3 4 5 6 
#
# 1 118.4510 39.1992 3.7479 0.0000 0.0000 0.0000
# 2 39.1992 84.8766 11.7228 0.0000 0.0000 0.0000
# 3 3.7479 11.7228 56.4900 0.0000 0.0000 0.0000
# 4 0.0000 0.0000 0.0000 33.3942 0.0000 0.0000
# 5 0.0000 0.0000 0.0000 0.0000 29.7746 0.0000
# 6 0.0000 0.0000 0.0000 0.0000 0.0000 27.6332
#
#
#
# Elastic Compliance Matrix: (Units=1/GPa)
#
#
# Indices 1 2 3 4 5 6 
#
# 1 0.009970 -0.004647 0.000303 0.000000 0.000000 0.000000
# 2 -0.004647 0.014295 -0.002658 0.000000 0.000000 0.000000
# 3 0.000303 -0.002658 0.018234 0.000000 0.000000 0.000000
# 4 0.000000 0.000000 0.000000 0.029945 0.000000 0.000000
# 5 0.000000 0.000000 0.000000 0.000000 0.033586 0.000000
# 6 0.000000 0.000000 0.000000 0.000000 0.000000 0.036188
#
#
# Mechanical properties :
#
#
# Convention : Reuss Voigt Hill
#
# Bulk Modulus (GPa) = 35.09368 41.01747 38.05558
# Shear Modulus (GPa) = 30.17123 31.83691 31.00407
#
# Velocity S-wave (km/s) = 3.46399 3.55833 3.51148
# Velocity P-wave (km/s) = 5.47320 5.76152 5.61921
#
# Compressibility (1/GPa) = 0.02849516
#
# Stress axis : x y z
#
# Youngs Moduli (GPa) = 100.29671 69.95507 54.84321
#
# Poissons Ratio (x) = 0.32505 -0.01660
# Poissons Ratio (y) = 0.46603 0.14578
# Poissons Ratio (z) = -0.03037 0.18595
#
# Static dielectric constant tensor:
#      x y z
#    x 2.017950 0.000000 0.000000 
#    y 0.000000 2.046080 0.000000 
#    z 0.000000 0.000000 2.011040 
# 
# From -- ./inp_files/17043.got.cif
#   From: 2010.05.17/outbox.cif.g08.bks.cpg/sg56_9_cif.got.tgz:17043.got - 2010.06.03 13:42:01.
