data_PCOD9431744
_publ_section_title
;
Structure prediction by ZEFSAII (Michael W. Deem and Ramdas Pophale) SiO2 
 PCOD9431744
Probable space group: P C C N
;
_chemical_formula_sum "Si O2"
_cell_formula_units_Z 60
_cell_length_a 25.297998
_cell_length_b 9.374628
_cell_length_c 11.263097
_cell_angle_alpha 90.000000
_cell_angle_beta 90.000000
_cell_angle_gamma 90.000000
_cell_volume 2671.148430
_symmetry_space_group_name_H-M "P C C N"
_symmetry_group_IT_number 56
_symmetry_cell_setting 'orthorhombic'
loop_
_space_group_symop_operation_xyz
x,y,z
1/2-x,1/2-y,z
1/2+x,-y,1/2-z
-x,1/2+y,1/2-z
-x,-y,-z
1/2+x,1/2+y,-z
1/2-x,y,1/2+z
x,1/2-y,1/2+z
loop_
_atom_site_type_symbol
_atom_site_label
_atom_site_fract_x
_atom_site_fract_y
_atom_site_fract_z
Si Si1 0.146582 0.146569 0.415035
Si Si2 0.860020 0.237184 0.291238
Si Si3 0.814633 0.513535 0.329718
Si Si4 0.936387 0.038465 0.221981
Si Si5 0.911149 0.906379 0.995371
Si Si6 0.008587 0.272746 0.155881
Si Si7 0.250000 0.250000 0.055920
Si Si8 0.094285 0.854810 0.461557
O O1 0.163426 0.090066 0.287380
O O2 0.108258 0.281606 0.416247
O O3 0.199454 0.199700 0.480684
O O4 0.115561 0.015942 0.476705
O O5 0.809815 0.342626 0.310282
O O6 0.882189 0.306875 0.167468
O O7 0.886158 0.232682 0.423509
O O8 0.875402 0.073898 0.255909
O O9 0.860380 0.534023 0.427619
O O10 0.765695 0.609134 0.369980
O O11 0.938336 0.020117 0.080159
O O12 0.961496 0.903030 0.283441
O O13 0.973250 0.176863 0.246173
O O14 0.949940 0.834889 0.901923
O O15 0.968036 0.338868 0.059690
#
# Coordination Sequence:
#
# PCOD9431744 Si02
#       8
#     8   8   8   8   8   8   4   8
#     4  10  22  40  67  95 128 166 222 279 349 416
#     4  10  22  42  62  93 129 181 218 281 338 406
#     4  10  21  41  68  92 134 170 218 282 351 411
#     4  11  25  38  60  94 137 183 238 279 337 396
#     4  11  23  38  61  94 135 183 229 284 334 404
#     4  11  25  37  61  91 135 184 234 283 330 400
#     4  10  22  42  68 102 118 162 216 292 350 428
#     4  10  23  40  65  93 135 180 229 277 340 407
#
# _framework density 22.462250000000001
#
# number of rings (size 3 to 8) (size 9 to 14) (size 15 to 20)
#    0.000    1.600    0.000    4.000   11.200    2.133 
#    0.000    2.000    0.000    6.400    0.000    0.000 
#    0.000    0.000    0.000    0.000    0.000    0.000 
#
# Total GULP energy -334208.636153 kJ/mol
# GULP energy per Si atom -5570.143936 kJ/mol
# Density = 2.241112 g / cm^3
# Si number density = 22.462250 Si / 1000 Ang^3
#
#
#
# Elastic Constant Matrix: (Units=GPa)
#
#
# Indices 1 2 3 4 5 6 
#
# 1 43.2371 27.7989 5.9386 0.0000 0.0000 0.0000
# 2 27.7989 109.8665 25.8987 0.0000 0.0000 0.0000
# 3 5.9386 25.8987 81.7472 0.0000 0.0000 0.0000
# 4 0.0000 0.0000 0.0000 -40.5426 0.0000 0.0000
# 5 0.0000 0.0000 0.0000 0.0000 14.3238 0.0000
# 6 0.0000 0.0000 0.0000 0.0000 0.0000 16.1725
#
#
#
# Elastic Compliance Matrix: (Units=1/GPa)
#
#
# Indices 1 2 3 4 5 6 
#
# 1 0.027626 -0.007043 0.000224 0.000000 0.000000 0.000000
# 2 -0.007043 0.011632 -0.003174 0.000000 0.000000 0.000000
# 3 0.000224 -0.003174 0.013222 0.000000 0.000000 0.000000
# 4 0.000000 0.000000 0.000000 -0.024665 0.000000 0.000000
# 5 0.000000 0.000000 0.000000 0.000000 0.069814 0.000000
# 6 0.000000 0.000000 0.000000 0.000000 0.000000 0.061833
#
#
# Mechanical properties :
#
#
# Convention : Reuss Voigt Hill
#
# Bulk Modulus (GPa) = 30.77340 39.34700 35.06020
# Shear Modulus (GPa) = 26.27742 9.67172 17.97457
#
# Velocity S-wave (km/s) = 3.42402 2.07728 2.83187
# Velocity P-wave (km/s) = 5.41864 4.82788 5.13177
#
# Compressibility (1/GPa) = 0.03249560
#
# Stress axis : x y z
#
# Youngs Moduli (GPa) = 36.19832 85.96928 75.63167
#
# Poissons Ratio (x) = 0.60547 -0.01697
# Poissons Ratio (y) = 0.25494 0.24002
# Poissons Ratio (z) = -0.00812 0.27283
#
# Static dielectric constant tensor:
#      x y z
#    x 1.905090 0.000000 0.000000 
#    y 0.000000 1.930630 0.000000 
#    z 0.000000 0.000000 1.837360 
# 
# From -- ./inp_files/9067.got.cif
#   From: 2010.05.17/outbox.cif.g08.bks.cpg/sg56_5_cif.got.tgz:9067.got - 2010.06.03 13:42:01.
