data_PCOD9431257
_publ_section_title
;
Structure prediction by ZEFSAII (Michael W. Deem and Ramdas Pophale) SiO2 
 PCOD9431257
Probable space group: P C C N
;
_chemical_formula_sum "Si O2"
_cell_formula_units_Z 56
_cell_length_a 24.451227
_cell_length_b 14.940327
_cell_length_c 7.238530
_cell_angle_alpha 90.000000
_cell_angle_beta 90.000000
_cell_angle_gamma 90.000000
_cell_volume 2644.302522
_symmetry_space_group_name_H-M "P C C N"
_symmetry_group_IT_number 56
_symmetry_cell_setting 'orthorhombic'
loop_
_space_group_symop_operation_xyz
x,y,z
1/2-x,1/2-y,z
1/2+x,-y,1/2-z
-x,1/2+y,1/2-z
-x,-y,-z
1/2+x,1/2+y,-z
1/2-x,y,1/2+z
x,1/2-y,1/2+z
loop_
_atom_site_type_symbol
_atom_site_label
_atom_site_fract_x
_atom_site_fract_y
_atom_site_fract_z
Si Si1 0.858414 0.370040 0.483473
Si Si2 0.125928 0.350050 0.757492
Si Si3 0.749617 0.895182 0.766695
Si Si4 0.253351 0.972520 0.483423
Si Si5 0.194686 0.695185 0.869199
Si Si6 0.436165 0.481656 0.974431
Si Si7 0.877521 0.645864 0.811425
O O1 0.814724 0.442250 0.552983
O O2 0.843596 0.273120 0.557417
O O3 0.843283 0.357318 0.271851
O O4 0.913892 0.416923 0.529341
O O5 0.191461 0.347695 0.715500
O O6 0.094011 0.424203 0.637265
O O7 0.105599 0.248990 0.722324
O O8 0.119491 0.373158 0.971700
O O9 0.686867 0.861461 0.752907
O O10 0.744050 0.917415 0.018047
O O11 0.757379 0.006251 0.770818
O O12 0.216535 0.883828 0.499030
O O13 0.250000 0.750000 0.804762
O O14 0.500000 0.500000 0.000000
O O15 0.415460 0.423917 0.798642
#
# Coordination Sequence:
#
# PCOD9431257 Si02
#       7
#     8   8   8   8   8   8   8
#     4  11  22  40  58  92 131 177 233 281 348 415
#     4  12  25  46  75 109 145 189 242 301 373 433
#     4  12  21  36  68 107 147 184 231 291 367 444
#     4  11  19  33  60  93 139 179 219 278 349 419
#     4  10  21  34  59  94 136 175 217 286 351 426
#     4  12  28  53  73  99 143 193 250 305 358 437
#     4  12  26  44  76 109 146 189 240 304 370 435
#
# _framework density 21.177606999999998
#
# number of rings (size 3 to 8) (size 9 to 14) (size 15 to 20)
#    0.000    0.571    7.143    1.714    2.000    1.714 
#    2.571    0.000    0.000    0.000    0.000    0.000 
#    0.000    0.000    0.000    0.000    0.000    0.000 
#
# Total GULP energy -311789.128970 kJ/mol
# GULP energy per Si atom -5567.663017 kJ/mol
# Density = 2.112941 g / cm^3
# Si number density = 21.177607 Si / 1000 Ang^3
#
#
#
# Elastic Constant Matrix: (Units=GPa)
#
#
# Indices 1 2 3 4 5 6 
#
# 1 79.8605 25.7070 5.0981 0.0000 0.0000 0.0000
# 2 25.7070 103.7243 20.9862 0.0000 0.0000 0.0000
# 3 5.0981 20.9862 110.2971 0.0000 0.0000 0.0000
# 4 0.0000 0.0000 0.0000 6.2063 0.0000 0.0000
# 5 0.0000 0.0000 0.0000 0.0000 11.8870 0.0000
# 6 0.0000 0.0000 0.0000 0.0000 0.0000 20.3964
#
#
#
# Elastic Compliance Matrix: (Units=1/GPa)
#
#
# Indices 1 2 3 4 5 6 
#
# 1 0.013607 -0.003375 0.000013 0.000000 0.000000 0.000000
# 2 -0.003375 0.010864 -0.001911 0.000000 0.000000 0.000000
# 3 0.000013 -0.001911 0.009429 0.000000 0.000000 0.000000
# 4 0.000000 0.000000 0.000000 0.161126 0.000000 0.000000
# 5 0.000000 0.000000 0.000000 0.000000 0.084125 0.000000
# 6 0.000000 0.000000 0.000000 0.000000 0.000000 0.049028
#
#
# Mechanical properties :
#
#
# Convention : Reuss Voigt Hill
#
# Bulk Modulus (GPa) = 42.81747 44.16272 43.49010
# Shear Modulus (GPa) = 14.42954 23.83734 19.13344
#
# Velocity S-wave (km/s) = 2.61312 3.35862 3.00905
# Velocity P-wave (km/s) = 5.41910 5.99493 5.71428
#
# Compressibility (1/GPa) = 0.02335495
#
# Stress axis : x y z
#
# Youngs Moduli (GPa) = 73.48923 92.04628 106.05092
#
# Poissons Ratio (x) = 0.31067 -0.00140
# Poissons Ratio (y) = 0.24804 0.20267
# Poissons Ratio (z) = -0.00097 0.17591
#
# Static dielectric constant tensor:
#      x y z
#    x 1.719530 0.000000 0.000000 
#    y 0.000000 1.789610 0.000000 
#    z 0.000000 0.000000 3.102630 
# 
# From -- ./inp_files/4499.got.cif
#   From: 2010.05.17/outbox.cif.g08.bks.cpg/sg56_3_cif.got.tgz:4499.got - 2010.06.03 13:42:01.
