data_PCOD9431254
_publ_section_title
;
Structure prediction by ZEFSAII (Michael W. Deem and Ramdas Pophale) SiO2 
 PCOD9431254
Probable space group: P C C N
;
_chemical_formula_sum "Si O2"
_cell_formula_units_Z 40
_cell_length_a 28.220795
_cell_length_b 10.997482
_cell_length_c 5.082429
_cell_angle_alpha 90.000000
_cell_angle_beta 90.000000
_cell_angle_gamma 90.000000
_cell_volume 1577.370899
_symmetry_space_group_name_H-M "P C C N"
_symmetry_group_IT_number 56
_symmetry_cell_setting 'orthorhombic'
loop_
_space_group_symop_operation_xyz
x,y,z
1/2-x,1/2-y,z
1/2+x,-y,1/2-z
-x,1/2+y,1/2-z
-x,-y,-z
1/2+x,1/2+y,-z
1/2-x,y,1/2+z
x,1/2-y,1/2+z
loop_
_atom_site_type_symbol
_atom_site_label
_atom_site_fract_x
_atom_site_fract_y
_atom_site_fract_z
Si Si1 0.932518 0.161397 0.256631
Si Si2 0.775967 0.912462 0.850086
Si Si3 0.538678 0.667845 0.693258
Si Si4 0.193401 0.832622 0.278881
Si Si5 0.876930 0.514198 0.426205
O O1 0.928621 0.256475 0.015075
O O2 0.986559 0.112060 0.262802
O O3 0.896673 0.052003 0.187004
O O4 0.736830 0.869684 0.057812
O O5 0.771840 0.058623 0.804361
O O6 0.830036 0.900021 0.953435
O O7 0.542359 0.781194 0.897967
O O8 0.580556 0.579190 0.778011
O O9 0.196366 0.729095 0.059306
O O10 0.144526 0.905091 0.246872
#
# Coordination Sequence:
#
# PCOD9431254 Si02
#       5
#     8   8   8   8   8
#     4  10  21  38  60  91 123 149 188 233 288 358
#     4  10  23  37  55  84 120 154 193 234 281 343
#     4  10  23  41  62  87 114 151 198 245 289 341
#     4  10  21  34  53  83 114 150 186 222 278 343
#     4  10  23  38  63  83 121 156 192 238 292 340
#
# _framework density 25.358651999999999
#
# number of rings (size 3 to 8) (size 9 to 14) (size 15 to 20)
#    1.200    0.800    0.000    3.000    0.000    8.800 
#    0.000    6.000    0.000    3.600    0.000    0.000 
#    0.000    0.000    0.000    0.000    0.000    0.000 
#
# Total GULP energy -223585.801573 kJ/mol
# GULP energy per Si atom -5589.645039 kJ/mol
# Density = 2.530093 g / cm^3
# Si number density = 25.358652 Si / 1000 Ang^3
#
#
#
# Elastic Constant Matrix: (Units=GPa)
#
#
# Indices 1 2 3 4 5 6 
#
# 1 115.4760 28.3680 30.3269 0.0000 0.0000 0.0000
# 2 28.3680 59.9929 -4.9935 0.0000 0.0000 0.0000
# 3 30.3269 -4.9935 106.3760 0.0000 0.0000 0.0000
# 4 0.0000 0.0000 0.0000 -48.4241 0.0000 0.0000
# 5 0.0000 0.0000 0.0000 0.0000 16.7081 0.0000
# 6 0.0000 0.0000 0.0000 0.0000 0.0000 47.2887
#
#
#
# Elastic Compliance Matrix: (Units=1/GPa)
#
#
# Indices 1 2 3 4 5 6 
#
# 1 0.010872 -0.005420 -0.003354 0.000000 0.000000 0.000000
# 2 -0.005420 0.019436 0.002458 0.000000 0.000000 0.000000
# 3 -0.003354 0.002458 0.010472 0.000000 0.000000 0.000000
# 4 0.000000 0.000000 0.000000 -0.020651 0.000000 0.000000
# 5 0.000000 0.000000 0.000000 0.000000 0.059851 0.000000
# 6 0.000000 0.000000 0.000000 0.000000 0.000000 0.021147
#
#
# Mechanical properties :
#
#
# Convention : Reuss Voigt Hill
#
# Bulk Modulus (GPa) = 35.52721 43.24975 39.38848
# Shear Modulus (GPa) = 40.60314 18.32410 29.46362
#
# Velocity S-wave (km/s) = 4.00578 2.69103 3.41233
# Velocity P-wave (km/s) = 5.95276 5.17183 5.57598
#
# Compressibility (1/GPa) = 0.02814744
#
# Stress axis : x y z
#
# Youngs Moduli (GPa) = 91.97787 51.45049 95.49112
#
# Poissons Ratio (x) = 0.27887 0.32028
# Poissons Ratio (y) = 0.49853 -0.23468
# Poissons Ratio (z) = 0.30849 -0.12645
#
# Static dielectric constant tensor:
#      x y z
#    x 2.095990 0.000000 0.000000 
#    y 0.000000 2.021010 0.000000 
#    z 0.000000 0.000000 1.941810 
# 
# From -- ./inp_files/1178.got.cif
#   From: 2010.05.17/outbox.cif.g08.bks.cpg/sg56_1_cif.got.tgz:1178.got - 2010.06.03 13:42:01.
