data_PCOD9431292
_publ_section_title
;
Structure prediction by ZEFSAII (Michael W. Deem and Ramdas Pophale) SiO2 
 PCOD9431292
Probable space group: P C C N
;
_chemical_formula_sum "Si O2"
_cell_formula_units_Z 40
_cell_length_a 10.828243
_cell_length_b 24.893137
_cell_length_c 5.620024
_cell_angle_alpha 90.000000
_cell_angle_beta 90.000000
_cell_angle_gamma 90.000000
_cell_volume 1514.871492
_symmetry_space_group_name_H-M "P C C N"
_symmetry_group_IT_number 56
_symmetry_cell_setting 'orthorhombic'
loop_
_space_group_symop_operation_xyz
x,y,z
1/2-x,1/2-y,z
1/2+x,-y,1/2-z
-x,1/2+y,1/2-z
-x,-y,-z
1/2+x,1/2+y,-z
1/2-x,y,1/2+z
x,1/2-y,1/2+z
loop_
_atom_site_type_symbol
_atom_site_label
_atom_site_fract_x
_atom_site_fract_y
_atom_site_fract_z
Si Si1 0.106062 0.770506 0.391354
Si Si2 0.951963 0.625707 0.761414
Si Si3 0.291865 0.607299 0.803627
Si Si4 0.600595 0.018507 0.195037
Si Si5 0.413639 0.400295 0.224956
O O1 0.250000 0.750000 0.403704
O O2 0.059612 0.763629 0.662733
O O3 0.049171 0.827749 0.316279
O O4 0.025135 0.569802 0.707296
O O5 0.885953 0.634867 0.508806
O O6 0.877409 0.616339 0.005820
O O7 0.240248 0.633672 0.559139
O O8 0.229448 0.548883 0.854614
O O9 0.436063 0.601829 0.756588
O O10 0.629083 0.961878 0.317024
O O11 0.500000 0.000000 0.000000
#
# Coordination Sequence:
#
# PCOD9431292 Si02
#       5
#     8   8   8   8   8
#     4  10  22  37  49  70  99 135 182 238 269 303
#     4  11  21  35  56  71 102 145 187 224 280 315
#     4  12  21  32  50  73 105 147 179 218 272 318
#     4  10  21  36  53  79 112 143 189 231 273 332
#     4  11  22  37  51  82 108 144 188 231 265 339
#
# _framework density 26.404882000000001
#
# number of rings (size 3 to 8) (size 9 to 14) (size 15 to 20)
#    0.000    1.200    6.000    1.800    0.000    6.400 
#    0.000    0.000    0.000    0.000    0.000    0.000 
#    0.000    0.000    0.000   48.600    0.000    0.000 
#
# Total GULP energy -222844.727558 kJ/mol
# GULP energy per Si atom -5571.118189 kJ/mol
# Density = 2.634478 g / cm^3
# Si number density = 26.404882 Si / 1000 Ang^3
#
#
#
# Elastic Constant Matrix: (Units=GPa)
#
#
# Indices 1 2 3 4 5 6 
#
# 1 113.1693 20.4447 15.5278 0.0000 0.0000 0.0000
# 2 20.4447 116.7026 26.1803 0.0000 0.0000 0.0000
# 3 15.5278 26.1803 204.5613 0.0000 0.0000 0.0000
# 4 0.0000 0.0000 0.0000 49.1324 0.0000 0.0000
# 5 0.0000 0.0000 0.0000 0.0000 -147.6777 0.0000
# 6 0.0000 0.0000 0.0000 0.0000 0.0000 31.8022
#
#
#
# Elastic Compliance Matrix: (Units=1/GPa)
#
#
# Indices 1 2 3 4 5 6 
#
# 1 0.009176 -0.001494 -0.000505 0.000000 0.000000 0.000000
# 2 -0.001494 0.009065 -0.001047 0.000000 0.000000 0.000000
# 3 -0.000505 -0.001047 0.005061 0.000000 0.000000 0.000000
# 4 0.000000 0.000000 0.000000 0.020353 0.000000 0.000000
# 5 0.000000 0.000000 0.000000 0.000000 -0.006772 0.000000
# 6 0.000000 0.000000 0.000000 0.000000 0.000000 0.031444
#
#
# Mechanical properties :
#
#
# Convention : Reuss Voigt Hill
#
# Bulk Modulus (GPa) = 58.10764 62.08210 60.09487
# Shear Modulus (GPa) = 62.37787 11.47007 36.92397
#
# Velocity S-wave (km/s) = 4.86569 2.08647 3.74354
# Velocity P-wave (km/s) = 7.32262 5.41914 6.44158
#
# Compressibility (1/GPa) = 0.01720944
#
# Stress axis : x y z
#
# Youngs Moduli (GPa) = 108.98519 110.30995 197.59581
#
# Poissons Ratio (x) = 0.16481 0.09984
# Poissons Ratio (y) = 0.16283 0.20684
# Poissons Ratio (z) = 0.05507 0.11547
#
# Static dielectric constant tensor:
#      x y z
#    x 2.187320 0.000000 0.000000 
#    y 0.000000 2.125940 0.000000 
#    z 0.000000 0.000000 2.318910 
# 
# From -- ./inp_files/475.got.cif
#   From: 2010.05.17/outbox.cif.g08.bks.cpg/sg56_1_cif.got.tgz:475.got - 2010.06.03 13:42:01.
