data_PCOD9431046
_publ_section_title
;
Structure prediction by ZEFSAII (Michael W. Deem and Ramdas Pophale) SiO2 
 PCOD9431046
Probable space group: P C C N
;
_chemical_formula_sum "Si O2"
_cell_formula_units_Z 40
_cell_length_a 10.339300
_cell_length_b 9.282171
_cell_length_c 15.615050
_cell_angle_alpha 90.000000
_cell_angle_beta 90.000000
_cell_angle_gamma 90.000000
_cell_volume 1498.594315
_symmetry_space_group_name_H-M "P C C N"
_symmetry_group_IT_number 56
_symmetry_cell_setting 'orthorhombic'
loop_
_space_group_symop_operation_xyz
x,y,z
1/2-x,1/2-y,z
1/2+x,-y,1/2-z
-x,1/2+y,1/2-z
-x,-y,-z
1/2+x,1/2+y,-z
1/2-x,y,1/2+z
x,1/2-y,1/2+z
loop_
_atom_site_type_symbol
_atom_site_label
_atom_site_fract_x
_atom_site_fract_y
_atom_site_fract_z
Si Si1 0.729286 0.418606 0.591125
Si Si2 0.887716 0.669378 0.800316
Si Si3 0.891693 0.672768 0.990289
Si Si4 0.221258 0.914126 0.211106
Si Si5 0.016597 0.110939 0.878848
O O1 0.750000 0.250000 0.571015
O O2 0.641027 0.513562 0.527051
O O3 0.678728 0.430973 0.689826
O O4 0.868579 0.501018 0.597876
O O5 0.750000 0.750000 0.792678
O O6 0.851525 0.501802 0.798333
O O7 0.959238 0.693273 0.711638
O O8 0.942255 0.691879 0.894055
O O9 0.750000 0.750000 0.993307
O O10 0.983068 0.765612 0.051138
O O11 0.250000 0.750000 0.193518
O O12 0.117216 0.968274 0.141747
#
# Coordination Sequence:
#
# PCOD9431046 Si02
#       5
#     8   8   8   8   8
#     4   9  19  35  58  87 119 157 202 251 302 364
#     4  10  21  38  63  90 120 163 211 255 306 371
#     4   9  19  38  61  89 120 157 206 252 305 370
#     4  10  22  39  59  88 122 160 205 251 305 370
#     4  10  20  40  63  84 124 167 198 253 317 367
#
# _framework density 26.691680000000002
#
# number of rings (size 3 to 8) (size 9 to 14) (size 15 to 20)
#    0.000    2.400    0.000    3.000    0.000   10.400 
#    0.000   17.000    0.000    4.800    0.000    0.000 
#    0.000    0.000    0.000    0.000    0.000    0.000 
#
# Total GULP energy -224198.182340 kJ/mol
# GULP energy per Si atom -5604.954559 kJ/mol
# Density = 2.663093 g / cm^3
# Si number density = 26.691680 Si / 1000 Ang^3
#
#
#
# Elastic Constant Matrix: (Units=GPa)
#
#
# Indices 1 2 3 4 5 6 
#
# 1 78.2203 18.7495 31.7776 0.0000 0.0000 0.0000
# 2 18.7495 152.0517 55.6008 0.0000 0.0000 0.0000
# 3 31.7776 55.6008 179.9689 0.0000 0.0000 0.0000
# 4 0.0000 0.0000 0.0000 32.4100 0.0000 0.0000
# 5 0.0000 0.0000 0.0000 0.0000 41.4010 0.0000
# 6 0.0000 0.0000 0.0000 0.0000 0.0000 35.9128
#
#
#
# Elastic Compliance Matrix: (Units=1/GPa)
#
#
# Indices 1 2 3 4 5 6 
#
# 1 0.013885 -0.000920 -0.002168 0.000000 0.000000 0.000000
# 2 -0.000920 0.007475 -0.002147 0.000000 0.000000 0.000000
# 3 -0.002168 -0.002147 0.006603 0.000000 0.000000 0.000000
# 4 0.000000 0.000000 0.000000 0.030855 0.000000 0.000000
# 5 0.000000 0.000000 0.000000 0.000000 0.024154 0.000000
# 6 0.000000 0.000000 0.000000 0.000000 0.000000 0.027845
#
#
# Mechanical properties :
#
#
# Convention : Reuss Voigt Hill
#
# Bulk Modulus (GPa) = 57.16039 69.16630 63.16335
# Shear Modulus (GPa) = 39.33370 42.21895 40.77633
#
# Velocity S-wave (km/s) = 3.84296 3.98141 3.91279
# Velocity P-wave (km/s) = 6.41503 6.86329 6.64294
#
# Compressibility (1/GPa) = 0.01749463
#
# Stress axis : x y z
#
# Youngs Moduli (GPa) = 72.01773 133.77534 151.45541
#
# Poissons Ratio (x) = 0.12301 0.32831
# Poissons Ratio (y) = 0.06622 0.32519
# Poissons Ratio (z) = 0.15611 0.28723
#
# Static dielectric constant tensor:
#      x y z
#    x 2.172100 0.000000 0.000000 
#    y 0.000000 2.060170 0.000000 
#    z 0.000000 0.000000 2.065230 
# 
# From -- ./inp_files/15381.got.cif
#   From: 2010.05.17/outbox.cif.g08.bks.cpg/sg56_8_cif.got.tgz:15381.got - 2010.06.03 13:42:01.
