data_PCOD9431258
_publ_section_title
;
Structure prediction by ZEFSAII (Michael W. Deem and Ramdas Pophale) SiO2 
 PCOD9431258
Probable space group: P C C N
;
_chemical_formula_sum "Si O2"
_cell_formula_units_Z 44
_cell_length_a 20.941760
_cell_length_b 4.978202
_cell_length_c 21.772089
_cell_angle_alpha 90.000000
_cell_angle_beta 90.000000
_cell_angle_gamma 90.000000
_cell_volume 2269.790605
_symmetry_space_group_name_H-M "P C C N"
_symmetry_group_IT_number 56
_symmetry_cell_setting 'orthorhombic'
loop_
_space_group_symop_operation_xyz
x,y,z
1/2-x,1/2-y,z
1/2+x,-y,1/2-z
-x,1/2+y,1/2-z
-x,-y,-z
1/2+x,1/2+y,-z
1/2-x,y,1/2+z
x,1/2-y,1/2+z
loop_
_atom_site_type_symbol
_atom_site_label
_atom_site_fract_x
_atom_site_fract_y
_atom_site_fract_z
Si Si1 0.750000 0.250000 0.536954
Si Si2 0.187098 0.435613 0.361784
Si Si3 0.750000 0.750000 0.450864
Si Si4 0.690222 0.071209 0.355687
Si Si5 0.072612 0.808815 0.707218
Si Si6 0.573252 0.691949 0.706105
Si Si7 0.250000 0.750000 0.257774
O O1 0.806839 0.361494 0.580852
O O2 0.731981 0.503837 0.495148
O O3 0.250000 0.250000 0.367938
O O4 0.124268 0.265515 0.346378
O O5 0.199753 0.610342 0.301182
O O6 0.807412 0.668124 0.404007
O O7 0.750000 0.250000 0.378969
O O8 0.624785 0.226338 0.343576
O O9 0.716258 0.030756 0.286115
O O10 0.078734 0.601540 0.764246
O O11 0.999939 0.778269 0.684304
O O12 0.081738 0.103595 0.736046
#
# Coordination Sequence:
#
# PCOD9431258 Si02
#       7
#     4   8   4   8   8   8   4
#     4  11  25  42  56  84 115 153 212 246 294 325
#     4  11  21  35  63  87 120 154 189 253 283 359
#     4  12  24  42  56  86 110 162 198 258 288 330
#     4  10  21  34  60  86 120 148 189 245 288 354
#     4  10  21  35  53  86 128 157 179 224 291 373
#     4  10  21  35  54  85 127 157 182 221 295 364
#     4   9  19  30  54  96 115 135 188 232 308 341
#
# _framework density 19.385048000000001
#
# number of rings (size 3 to 8) (size 9 to 14) (size 15 to 20)
#    0.545    1.091    3.636    1.091    8.909    0.000 
#    0.000    0.000    0.000    2.182    0.000    0.000 
#    0.000    0.000    0.000    0.000    0.000    0.000 
#
# Total GULP energy -245097.659043 kJ/mol
# GULP energy per Si atom -5570.401342 kJ/mol
# Density = 1.934093 g / cm^3
# Si number density = 19.385048 Si / 1000 Ang^3
#
#
#
# Elastic Constant Matrix: (Units=GPa)
#
#
# Indices 1 2 3 4 5 6 
#
# 1 125.0566 13.1736 21.3314 0.0000 0.0000 0.0000
# 2 13.1736 79.4614 25.0087 0.0000 0.0000 0.0000
# 3 21.3314 25.0087 91.4215 0.0000 0.0000 0.0000
# 4 0.0000 0.0000 0.0000 -41.3589 0.0000 0.0000
# 5 0.0000 0.0000 0.0000 0.0000 -2.6004 0.0000
# 6 0.0000 0.0000 0.0000 0.0000 0.0000 24.9055
#
#
#
# Elastic Compliance Matrix: (Units=1/GPa)
#
#
# Indices 1 2 3 4 5 6 
#
# 1 0.008380 -0.000847 -0.001724 0.000000 0.000000 0.000000
# 2 -0.000847 0.013856 -0.003593 0.000000 0.000000 0.000000
# 3 -0.001724 -0.003593 0.012323 0.000000 0.000000 0.000000
# 4 0.000000 0.000000 0.000000 -0.024179 0.000000 0.000000
# 5 0.000000 0.000000 0.000000 0.000000 -0.384557 0.000000
# 6 0.000000 0.000000 0.000000 0.000000 0.000000 0.040152
#
#
# Mechanical properties :
#
#
# Convention : Reuss Voigt Hill
#
# Bulk Modulus (GPa) = 44.97904 46.10744 45.54324
# Shear Modulus (GPa) = -15.90900 11.95095 -1.97902
#
# Velocity S-wave (km/s) = -2.86787 2.48564 -1.01149
# Velocity P-wave (km/s) = 3.50530 5.66344 4.70966
#
# Compressibility (1/GPa) = 0.02223258
#
# Stress axis : x y z
#
# Youngs Moduli (GPa) = 119.33779 72.17174 81.14696
#
# Poissons Ratio (x) = 0.06111 0.13986
# Poissons Ratio (y) = 0.10105 0.29154
# Poissons Ratio (z) = 0.20569 0.25929
#
# Static dielectric constant tensor:
#      x y z
#    x 1.744420 0.000000 0.000000 
#    y 0.000000 1.808300 0.000000 
#    z 0.000000 0.000000 1.712500 
# 
# From -- ./inp_files/19410.got.cif
#   From: 2010.05.17/outbox.cif.g08.bks.cpg/sg56_10_cif.got.tgz:19410.got - 2010.06.03 13:42:01.
