data_PCOD9431951
_publ_section_title
;
Structure prediction by ZEFSAII (Michael W. Deem and Ramdas Pophale) SiO2 
 PCOD9431951
Probable space group: P C C N
;
_chemical_formula_sum "Si O2"
_cell_formula_units_Z 48
_cell_length_a 15.038782
_cell_length_b 13.166238
_cell_length_c 10.888491
_cell_angle_alpha 90.000000
_cell_angle_beta 90.000000
_cell_angle_gamma 90.000000
_cell_volume 2155.966765
_symmetry_space_group_name_H-M "P C C N"
_symmetry_group_IT_number 56
_symmetry_cell_setting 'orthorhombic'
loop_
_space_group_symop_operation_xyz
x,y,z
1/2-x,1/2-y,z
1/2+x,-y,1/2-z
-x,1/2+y,1/2-z
-x,-y,-z
1/2+x,1/2+y,-z
1/2-x,y,1/2+z
x,1/2-y,1/2+z
loop_
_atom_site_type_symbol
_atom_site_label
_atom_site_fract_x
_atom_site_fract_y
_atom_site_fract_z
Si Si1 0.882752 0.108463 0.491900
Si Si2 0.514557 0.537733 0.318522
Si Si3 0.749421 0.054071 0.699399
Si Si4 0.750000 0.250000 0.863882
Si Si5 0.750000 0.750000 0.196564
Si Si6 0.119438 0.086738 0.901950
Si Si7 0.128075 0.401950 0.681459
O O1 0.810763 0.057349 0.579845
O O2 0.835172 0.211120 0.443170
O O3 0.969496 0.111072 0.579672
O O4 0.909798 0.028966 0.385943
O O5 0.544832 0.602979 0.201059
O O6 0.445111 0.452771 0.269508
O O7 0.763870 0.156931 0.772286
O O8 0.655687 0.023584 0.640575
O O9 0.785053 0.972123 0.797108
O O10 0.797084 0.837150 0.116194
O O11 0.831184 0.705027 0.276716
O O12 0.093563 0.093226 0.042941
#
# Coordination Sequence:
#
# PCOD9431951 Si02
#       7
#     8   8   8   4   4   8   8
#     4  10  22  42  64  90 138 172 219 274 338 401
#     4  10  22  44  66  96 131 180 212 284 348 387
#     4  10  22  37  66  95 130 175 226 268 342 393
#     4  12  20  40  64 104 124 182 224 272 326 422
#     4  10  24  42  66 100 126 176 230 264 336 404
#     4  11  21  42  67  97 131 173 220 285 322 406
#     4  10  22  43  65  96 130 175 221 275 336 405
#
# _framework density 22.263794999999998
#
# number of rings (size 3 to 8) (size 9 to 14) (size 15 to 20)
#    0.000    1.667    1.667    2.500    2.333    0.000 
#   12.000    0.000    0.000    0.000    0.000    0.000 
#    0.000    0.000    0.000    0.000    0.000    0.000 
#
# Total GULP energy -267578.561962 kJ/mol
# GULP energy per Si atom -5574.553374 kJ/mol
# Density = 2.221312 g / cm^3
# Si number density = 22.263795 Si / 1000 Ang^3
#
#
#
# Elastic Constant Matrix: (Units=GPa)
#
#
# Indices 1 2 3 4 5 6 
#
# 1 53.4607 26.0439 19.1999 0.0000 0.0000 0.0000
# 2 26.0439 78.3450 37.0582 0.0000 0.0000 0.0000
# 3 19.1999 37.0582 123.0383 0.0000 0.0000 0.0000
# 4 0.0000 0.0000 0.0000 32.4030 0.0000 0.0000
# 5 0.0000 0.0000 0.0000 0.0000 40.3707 0.0000
# 6 0.0000 0.0000 0.0000 0.0000 0.0000 34.2040
#
#
#
# Elastic Compliance Matrix: (Units=1/GPa)
#
#
# Indices 1 2 3 4 5 6 
#
# 1 0.022546 -0.006799 -0.001470 0.000000 0.000000 0.000000
# 2 -0.006799 0.016935 -0.004040 0.000000 0.000000 0.000000
# 3 -0.001470 -0.004040 0.009574 0.000000 0.000000 0.000000
# 4 0.000000 0.000000 0.000000 0.030861 0.000000 0.000000
# 5 0.000000 0.000000 0.000000 0.000000 0.024770 0.000000
# 6 0.000000 0.000000 0.000000 0.000000 0.000000 0.029236
#
#
# Mechanical properties :
#
#
# Convention : Reuss Voigt Hill
#
# Bulk Modulus (GPa) = 40.92332 46.60531 43.76432
# Shear Modulus (GPa) = 29.99639 32.89834 31.44736
#
# Velocity S-wave (km/s) = 3.67456 3.84821 3.76239
# Velocity P-wave (km/s) = 6.03525 6.38150 6.21079
#
# Compressibility (1/GPa) = 0.02443594
#
# Stress axis : x y z
#
# Youngs Moduli (GPa) = 44.35428 59.04879 104.45262
#
# Poissons Ratio (x) = 0.40149 0.15358
# Poissons Ratio (y) = 0.30158 0.42196
# Poissons Ratio (z) = 0.06522 0.23854
#
# Static dielectric constant tensor:
#      x y z
#    x 1.893460 0.000000 0.000000 
#    y 0.000000 1.899190 0.000000 
#    z 0.000000 0.000000 1.826130 
# 
# From -- ./inp_files/4020.got.cif
#   From: 2010.05.17/outbox.cif.g08.bks.cpg/sg56_3_cif.got.tgz:4020.got - 2010.06.03 13:42:01.
