data_PCOD9431099
_publ_section_title
;
Structure prediction by ZEFSAII (Michael W. Deem and Ramdas Pophale) SiO2 
 PCOD9431099
Probable space group: P C C N
;
_chemical_formula_sum "Si O2"
_cell_formula_units_Z 64
_cell_length_a 15.179077
_cell_length_b 8.628249
_cell_length_c 20.702394
_cell_angle_alpha 90.000000
_cell_angle_beta 90.000000
_cell_angle_gamma 90.000000
_cell_volume 2711.368858
_symmetry_space_group_name_H-M "P C C N"
_symmetry_group_IT_number 56
_symmetry_cell_setting 'orthorhombic'
loop_
_space_group_symop_operation_xyz
x,y,z
1/2-x,1/2-y,z
1/2+x,-y,1/2-z
-x,1/2+y,1/2-z
-x,-y,-z
1/2+x,1/2+y,-z
1/2-x,y,1/2+z
x,1/2-y,1/2+z
loop_
_atom_site_type_symbol
_atom_site_label
_atom_site_fract_x
_atom_site_fract_y
_atom_site_fract_z
Si Si1 0.245536 0.065414 0.588956
Si Si2 0.705428 0.969275 0.635471
Si Si3 0.441349 0.763564 0.385684
Si Si4 0.727072 0.067554 0.274191
Si Si5 0.951607 0.793681 0.162392
Si Si6 0.035714 0.530587 0.768516
Si Si7 0.317814 0.605133 0.476497
Si Si8 0.557283 0.012841 0.434449
O O1 0.250000 0.250000 0.584206
O O2 0.337936 0.993288 0.561764
O O3 0.232989 0.012133 0.662605
O O4 0.173802 0.989231 0.542211
O O5 0.635174 0.109174 0.624898
O O6 0.745843 0.994379 0.705900
O O7 0.775265 0.996196 0.578948
O O8 0.646594 0.814443 0.634435
O O9 0.449780 0.656440 0.324000
O O10 0.408694 0.668908 0.447751
O O11 0.530038 0.856946 0.396676
O O12 0.750000 0.250000 0.273949
O O13 0.622446 0.039457 0.275978
O O14 0.972972 0.632512 0.196088
O O15 0.958131 0.919041 0.220929
O O16 0.019359 0.843473 0.106569
O O17 0.250000 0.750000 0.484134
O O18 0.500000 0.000000 0.500000
#
# Coordination Sequence:
#
# PCOD9431099 Si02
#       8
#     8   8   8   8   8   8   8   8
#     4  12  28  44  65 104 146 183 232 296 354 424
#     4  10  20  40  71 100 128 173 230 287 342 412
#     4  10  21  42  72 100 130 179 238 287 339 420
#     4  12  24  43  69 100 139 180 227 282 356 414
#     4  11  25  40  69  98 135 182 224 290 351 414
#     4  12  24  43  66 102 135 172 236 284 345 410
#     4  10  20  43  69  97 130 180 232 280 347 424
#     4  11  24  48  71  98 144 188 233 291 360 417
#
# _framework density 23.604313000000001
#
# number of rings (size 3 to 8) (size 9 to 14) (size 15 to 20)
#    0.000    1.000    3.750    4.500    1.750    2.000 
#    0.000    1.250    0.000    0.000    0.000    0.000 
#    0.000    0.000    0.000    0.000    0.000    0.000 
#
# Total GULP energy -358451.735626 kJ/mol
# GULP energy per Si atom -5600.808369 kJ/mol
# Density = 2.355059 g / cm^3
# Si number density = 23.604313 Si / 1000 Ang^3
#
#
#
# Elastic Constant Matrix: (Units=GPa)
#
#
# Indices 1 2 3 4 5 6 
#
# 1 45.1157 -1.6144 -6.1289 0.0000 0.0000 0.0000
# 2 -1.6144 91.1820 39.0670 0.0000 0.0000 0.0000
# 3 -6.1289 39.0670 129.6222 0.0000 0.0000 0.0000
# 4 0.0000 0.0000 0.0000 2.4932 0.0000 0.0000
# 5 0.0000 0.0000 0.0000 0.0000 30.0082 0.0000
# 6 0.0000 0.0000 0.0000 0.0000 0.0000 26.8930
#
#
#
# Elastic Compliance Matrix: (Units=1/GPa)
#
#
# Indices 1 2 3 4 5 6 
#
# 1 0.022309 -0.000065 0.001075 0.000000 0.000000 0.000000
# 2 -0.000065 0.012593 -0.003799 0.000000 0.000000 0.000000
# 3 0.001075 -0.003799 0.008910 0.000000 0.000000 0.000000
# 4 0.000000 0.000000 0.000000 0.401093 0.000000 0.000000
# 5 0.000000 0.000000 0.000000 0.000000 0.033324 0.000000
# 6 0.000000 0.000000 0.000000 0.000000 0.000000 0.037184
#
#
# Mechanical properties :
#
#
# Convention : Reuss Voigt Hill
#
# Bulk Modulus (GPa) = 26.15493 36.50749 31.33121
# Shear Modulus (GPa) = 9.36790 27.51862 18.44326
#
# Velocity S-wave (km/s) = 1.99433 3.41813 2.79830
# Velocity P-wave (km/s) = 4.05065 5.57478 4.87267
#
# Compressibility (1/GPa) = 0.03823371
#
# Stress axis : x y z
#
# Youngs Moduli (GPa) = 44.82519 79.40636 112.22826
#
# Poissons Ratio (x) = 0.00519 -0.12059
# Poissons Ratio (y) = 0.00293 0.42632
# Poissons Ratio (z) = -0.04817 0.30164
#
# Static dielectric constant tensor:
#      x y z
#    x 2.023280 0.000000 0.000000 
#    y 0.000000 1.896740 0.000000 
#    z 0.000000 0.000000 1.895580 
# 
# From -- ./inp_files/19324.got.cif
#   From: 2010.05.17/outbox.cif.g08.bks.cpg/sg56_10_cif.got.tgz:19324.got - 2010.06.03 13:42:01.
