data_PCOD9431176
_publ_section_title
;
Structure prediction by ZEFSAII (Michael W. Deem and Ramdas Pophale) SiO2 
 PCOD9431176
Probable space group: P C C N
;
_chemical_formula_sum "Si O2"
_cell_formula_units_Z 60
_cell_length_a 8.105619
_cell_length_b 25.639096
_cell_length_c 12.773645
_cell_angle_alpha 90.000000
_cell_angle_beta 90.000000
_cell_angle_gamma 90.000000
_cell_volume 2654.628403
_symmetry_space_group_name_H-M "P C C N"
_symmetry_group_IT_number 56
_symmetry_cell_setting 'orthorhombic'
loop_
_space_group_symop_operation_xyz
x,y,z
1/2-x,1/2-y,z
1/2+x,-y,1/2-z
-x,1/2+y,1/2-z
-x,-y,-z
1/2+x,1/2+y,-z
1/2-x,y,1/2+z
x,1/2-y,1/2+z
loop_
_atom_site_type_symbol
_atom_site_label
_atom_site_fract_x
_atom_site_fract_y
_atom_site_fract_z
Si Si1 0.474519 0.441600 0.535748
Si Si2 0.578240 0.162598 0.001474
Si Si3 0.762234 0.810716 0.908187
Si Si4 0.028544 0.934827 0.815830
Si Si5 0.750000 0.250000 0.628689
Si Si6 0.654788 0.953532 0.736969
Si Si7 0.019385 0.822568 0.740224
Si Si8 0.885591 0.597497 0.527962
O O1 0.500000 0.500000 0.500000
O O2 0.611260 0.399322 0.501535
O O3 0.447900 0.442946 0.658977
O O4 0.301413 0.423458 0.485551
O O5 0.527889 0.179718 0.884570
O O6 0.420019 0.167685 0.077354
O O7 0.705092 0.202064 0.052698
O O8 0.750000 0.750000 0.930203
O O9 0.838855 0.821235 0.794125
O O10 0.875200 0.842283 0.991304
O O11 0.846907 0.941948 0.762401
O O12 0.092807 0.878981 0.774510
O O13 0.994789 0.930260 0.939804
O O14 0.135030 0.985571 0.791850
O O15 0.611107 0.225748 0.704448
O O16 0.578220 0.917840 0.645618
#
# Coordination Sequence:
#
# PCOD9431176 Si02
#       8
#     8   8   8   8   4   8   8   8
#     4  10  21  38  63  92 126 165 213 265 325 396
#     4  11  24  44  67  96 131 172 222 274 332 406
#     4  10  20  42  67  95 122 167 222 272 324 396
#     4  10  22  38  63  92 131 168 213 267 326 403
#     4  12  26  46  62  96 132 176 224 274 334 412
#     4  11  20  39  64  94 129 171 210 264 334 393
#     4  11  24  46  66  95 134 174 220 282 338 391
#     4   9  20  35  59  93 127 158 213 267 313 390
#
# _framework density 22.602032000000001
#
# number of rings (size 3 to 8) (size 9 to 14) (size 15 to 20)
#    0.000    1.600    1.333    4.800    0.000    2.667 
#    2.400    5.333    0.000    0.000    0.000    0.000 
#    0.000    0.000    0.000    0.000    0.000    0.000 
#
# Total GULP energy -335378.051609 kJ/mol
# GULP energy per Si atom -5589.634193 kJ/mol
# Density = 2.255059 g / cm^3
# Si number density = 22.602032 Si / 1000 Ang^3
#
#
#
# Elastic Constant Matrix: (Units=GPa)
#
#
# Indices 1 2 3 4 5 6 
#
# 1 36.6420 11.6820 24.7942 0.0000 0.0000 0.0000
# 2 11.6820 160.7722 51.5446 0.0000 0.0000 0.0000
# 3 24.7942 51.5446 161.4033 0.0000 0.0000 0.0000
# 4 0.0000 0.0000 0.0000 17.3915 0.0000 0.0000
# 5 0.0000 0.0000 0.0000 0.0000 14.4384 0.0000
# 6 0.0000 0.0000 0.0000 0.0000 0.0000 18.3520
#
#
#
# Elastic Compliance Matrix: (Units=1/GPa)
#
#
# Indices 1 2 3 4 5 6 
#
# 1 0.030548 -0.000797 -0.004438 0.000000 0.000000 0.000000
# 2 -0.000797 0.006950 -0.002097 0.000000 0.000000 0.000000
# 3 -0.004438 -0.002097 0.007547 0.000000 0.000000 0.000000
# 4 0.000000 0.000000 0.000000 0.057499 0.000000 0.000000
# 5 0.000000 0.000000 0.000000 0.000000 0.069260 0.000000
# 6 0.000000 0.000000 0.000000 0.000000 0.000000 0.054490
#
#
# Mechanical properties :
#
#
# Convention : Reuss Voigt Hill
#
# Bulk Modulus (GPa) = 32.91499 59.42880 46.17190
# Shear Modulus (GPa) = 19.91347 28.08950 24.00148
#
# Velocity S-wave (km/s) = 2.97146 3.52914 3.26224
# Velocity P-wave (km/s) = 5.13491 6.55417 5.88746
#
# Compressibility (1/GPa) = 0.03038129
#
# Stress axis : x y z
#
# Youngs Moduli (GPa) = 32.73506 143.87982 132.49950
#
# Poissons Ratio (x) = 0.11464 0.58807
# Poissons Ratio (y) = 0.02608 0.27788
# Poissons Ratio (z) = 0.14529 0.30174
#
# Static dielectric constant tensor:
#      x y z
#    x 1.891440 0.000000 0.000000 
#    y 0.000000 1.924480 0.000000 
#    z 0.000000 0.000000 1.817450 
# 
# From -- ./inp_files/6538.got.cif
#   From: 2010.05.17/outbox.cif.g08.bks.cpg/sg56_4_cif.got.tgz:6538.got - 2010.06.03 13:42:01.
