data_PCOD9431077
_publ_section_title
;
Structure prediction by ZEFSAII (Michael W. Deem and Ramdas Pophale) SiO2 
 PCOD9431077
Probable space group: P C C N
;
_chemical_formula_sum "Si O2"
_cell_formula_units_Z 64
_cell_length_a 13.396740
_cell_length_b 9.093172
_cell_length_c 23.727510
_cell_angle_alpha 90.000000
_cell_angle_beta 90.000000
_cell_angle_gamma 90.000000
_cell_volume 2890.458244
_symmetry_space_group_name_H-M "P C C N"
_symmetry_group_IT_number 56
_symmetry_cell_setting 'orthorhombic'
loop_
_space_group_symop_operation_xyz
x,y,z
1/2-x,1/2-y,z
1/2+x,-y,1/2-z
-x,1/2+y,1/2-z
-x,-y,-z
1/2+x,1/2+y,-z
1/2-x,y,1/2+z
x,1/2-y,1/2+z
loop_
_atom_site_type_symbol
_atom_site_label
_atom_site_fract_x
_atom_site_fract_y
_atom_site_fract_z
Si Si1 0.618577 0.343102 0.295488
Si Si2 0.364844 0.808197 0.023481
Si Si3 0.220602 0.484917 0.299766
Si Si4 0.605794 0.081988 0.386175
Si Si5 0.161313 0.634253 0.895650
Si Si6 0.820804 0.951849 0.393112
Si Si7 0.102931 0.295386 0.768654
Si Si8 0.461440 0.279201 0.142766
O O1 0.669923 0.377390 0.234180
O O2 0.631898 0.193055 0.333407
O O3 0.658535 0.474958 0.332982
O O4 0.499466 0.356470 0.293124
O O5 0.250000 0.750000 0.026759
O O6 0.421962 0.679164 0.058516
O O7 0.378047 0.949075 0.062088
O O8 0.378317 0.865881 0.960092
O O9 0.279462 0.511656 0.358926
O O10 0.311328 0.416796 0.263823
O O11 0.142289 0.349438 0.301108
O O12 0.705227 0.989823 0.401467
O O13 0.528841 0.953231 0.369813
O O14 0.250000 0.750000 0.898383
O O15 0.064883 0.694137 0.863586
O O16 0.873534 0.795471 0.393941
O O17 0.074670 0.255992 0.705734
#
# Coordination Sequence:
#
# PCOD9431077 Si02
#       8
#     8   8   8   8   8   8   8   8
#     4  11  22  41  67  96 130 181 220 263 336 407
#     4   8  19  43  66  92 127 173 228 280 324 407
#     4  11  25  45  63  96 134 183 212 277 342 405
#     4  10  23  38  69 100 130 172 226 285 333 385
#     4  11  25  43  67  89 131 185 226 264 342 410
#     4  10  20  40  66  97 128 172 220 280 335 389
#     4  11  26  41  63  99 144 166 220 285 331 410
#     4  12  24  38  64 102 133 172 222 285 339 404
#
# _framework density 22.141819000000002
#
# number of rings (size 3 to 8) (size 9 to 14) (size 15 to 20)
#    0.000    1.500    1.250    3.750    5.250    5.000 
#    0.000    0.000   16.500    0.000    0.000    0.000 
#    0.000    0.000    0.000    0.000    0.000    0.000 
#
# Total GULP energy -356454.116115 kJ/mol
# GULP energy per Si atom -5569.595564 kJ/mol
# Density = 2.209142 g / cm^3
# Si number density = 22.141819 Si / 1000 Ang^3
#
#
#
# Elastic Constant Matrix: (Units=GPa)
#
#
# Indices 1 2 3 4 5 6 
#
# 1 69.7099 4.3056 6.9432 0.0000 0.0000 0.0000
# 2 4.3056 78.3145 35.2396 0.0000 0.0000 0.0000
# 3 6.9432 35.2396 92.9216 0.0000 0.0000 0.0000
# 4 0.0000 0.0000 0.0000 261.6334 0.0000 0.0000
# 5 0.0000 0.0000 0.0000 0.0000 -105.0658 0.0000
# 6 0.0000 0.0000 0.0000 0.0000 0.0000 12.6369
#
#
#
# Elastic Compliance Matrix: (Units=1/GPa)
#
#
# Indices 1 2 3 4 5 6 
#
# 1 0.014462 -0.000372 -0.000939 0.000000 0.000000 0.000000
# 2 -0.000372 0.015406 -0.005815 0.000000 0.000000 0.000000
# 3 -0.000939 -0.005815 0.013037 0.000000 0.000000 0.000000
# 4 0.000000 0.000000 0.000000 0.003822 0.000000 0.000000
# 5 0.000000 0.000000 0.000000 0.000000 -0.009518 0.000000
# 6 0.000000 0.000000 0.000000 0.000000 0.000000 0.079133
#
#
# Mechanical properties :
#
#
# Convention : Reuss Voigt Hill
#
# Bulk Modulus (GPa) = 34.90176 37.10253 36.00215
# Shear Modulus (GPa) = 35.67713 46.80475 41.24094
#
# Velocity S-wave (km/s) = 4.01846 4.60266 4.32045
# Velocity P-wave (km/s) = 6.10964 6.71112 6.41743
#
# Compressibility (1/GPa) = 0.02865185
#
# Stress axis : x y z
#
# Youngs Moduli (GPa) = 69.14805 64.90983 76.70400
#
# Poissons Ratio (x) = 0.02417 0.07205
# Poissons Ratio (y) = 0.02575 0.44601
# Poissons Ratio (z) = 0.06496 0.37743
#
# Static dielectric constant tensor:
#      x y z
#    x 4.340470 0.000000 0.000000 
#    y 0.000000 1.875480 0.000000 
#    z 0.000000 0.000000 1.966110 
# 
# From -- ./inp_files/21154.got.cif
#   From: 2010.05.17/outbox.cif.g08.bks.cpg/sg56_11_cif.got.tgz:21154.got - 2010.06.03 13:42:01.
