data_PCOD9431411
_publ_section_title
;
Structure prediction by ZEFSAII (Michael W. Deem and Ramdas Pophale) SiO2 
 PCOD9431411
Probable space group: P C C N
;
_chemical_formula_sum "Si O2"
_cell_formula_units_Z 40
_cell_length_a 7.740087
_cell_length_b 15.282300
_cell_length_c 13.917968
_cell_angle_alpha 90.000000
_cell_angle_beta 90.000000
_cell_angle_gamma 90.000000
_cell_volume 1646.305377
_symmetry_space_group_name_H-M "P C C N"
_symmetry_group_IT_number 56
_symmetry_cell_setting 'orthorhombic'
loop_
_space_group_symop_operation_xyz
x,y,z
1/2-x,1/2-y,z
1/2+x,-y,1/2-z
-x,1/2+y,1/2-z
-x,-y,-z
1/2+x,1/2+y,-z
1/2-x,y,1/2+z
x,1/2-y,1/2+z
loop_
_atom_site_type_symbol
_atom_site_label
_atom_site_fract_x
_atom_site_fract_y
_atom_site_fract_z
Si Si1 0.732662 0.497747 0.097300
Si Si2 0.434487 0.224648 0.707877
Si Si3 0.429103 0.541021 0.706351
Si Si4 0.547054 0.633620 0.983268
Si Si5 0.638607 0.166822 0.334775
O O1 0.626313 0.513832 0.198707
O O2 0.931303 0.499001 0.133941
O O3 0.698180 0.565201 0.009828
O O4 0.629015 0.413642 0.055851
O O5 0.250000 0.250000 0.747770
O O6 0.490529 0.132879 0.755649
O O7 0.416089 0.204433 0.596178
O O8 0.567189 0.302386 0.731691
O O9 0.248563 0.577950 0.664043
O O10 0.510080 0.668625 0.087996
O O11 0.750000 0.250000 0.365987
#
# Coordination Sequence:
#
# PCOD9431411 Si02
#       5
#     8   8   8   8   8
#     4  10  21  38  60  90 125 163 208 255 315 382
#     4  10  22  39  62  88 122 168 211 261 321 380
#     4  10  21  39  63  89 126 169 206 259 322 384
#     4  10  22  39  60  92 127 159 210 262 310 386
#     4  10  22  39  59  87 122 162 207 257 314 374
#
# _framework density 24.296828000000001
#
# number of rings (size 3 to 8) (size 9 to 14) (size 15 to 20)
#    0.000    2.000    0.000    2.400    0.000    8.800 
#    0.000    0.000    0.000    0.000    0.000    0.000 
#    0.000    0.000    0.000    0.000    0.000    0.000 
#
# Total GULP energy -223085.757286 kJ/mol
# GULP energy per Si atom -5577.143932 kJ/mol
# Density = 2.424153 g / cm^3
# Si number density = 24.296828 Si / 1000 Ang^3
#
#
#
# Elastic Constant Matrix: (Units=GPa)
#
#
# Indices 1 2 3 4 5 6 
#
# 1 101.1282 26.8971 29.2131 0.0000 0.0000 0.0000
# 2 26.8971 50.3676 37.4118 0.0000 0.0000 0.0000
# 3 29.2131 37.4118 108.6444 0.0000 0.0000 0.0000
# 4 0.0000 0.0000 0.0000 1.2995 0.0000 0.0000
# 5 0.0000 0.0000 0.0000 0.0000 36.0334 0.0000
# 6 0.0000 0.0000 0.0000 0.0000 0.0000 32.9762
#
#
#
# Elastic Compliance Matrix: (Units=1/GPa)
#
#
# Indices 1 2 3 4 5 6 
#
# 1 0.011667 -0.005241 -0.001333 0.000000 0.000000 0.000000
# 2 -0.005241 0.029032 -0.008588 0.000000 0.000000 0.000000
# 3 -0.001333 -0.008588 0.012520 0.000000 0.000000 0.000000
# 4 0.000000 0.000000 0.000000 0.769540 0.000000 0.000000
# 5 0.000000 0.000000 0.000000 0.000000 0.027752 0.000000
# 6 0.000000 0.000000 0.000000 0.000000 0.000000 0.030325
#
#
# Mechanical properties :
#
#
# Convention : Reuss Voigt Hill
#
# Bulk Modulus (GPa) = 43.67500 49.68715 46.68107
# Shear Modulus (GPa) = 5.44194 25.16970 15.30582
#
# Velocity S-wave (km/s) = 1.49821 3.22207 2.51261
# Velocity P-wave (km/s) = 4.58339 5.85976 5.26043
#
# Compressibility (1/GPa) = 0.02289639
#
# Stress axis : x y z
#
# Youngs Moduli (GPa) = 85.70999 34.44531 79.87298
#
# Poissons Ratio (x) = 0.18052 0.10643
# Poissons Ratio (y) = 0.44918 0.68594
# Poissons Ratio (z) = 0.11421 0.29581
#
# Static dielectric constant tensor:
#      x y z
#    x 2.010690 0.000000 0.000000 
#    y 0.000000 1.965080 0.000000 
#    z 0.000000 0.000000 1.932060 
# 
# From -- ./inp_files/6205.got.cif
#   From: 2010.05.17/outbox.cif.g08.bks.cpg/sg56_4_cif.got.tgz:6205.got - 2010.06.03 13:42:01.
