data_PCOD9431590
_publ_section_title
;
Structure prediction by ZEFSAII (Michael W. Deem and Ramdas Pophale) SiO2 
 PCOD9431590
Probable space group: P C C N
;
_chemical_formula_sum "Si O2"
_cell_formula_units_Z 56
_cell_length_a 9.991294
_cell_length_b 11.999515
_cell_length_c 20.599439
_cell_angle_alpha 90.000000
_cell_angle_beta 90.000000
_cell_angle_gamma 90.000000
_cell_volume 2469.680795
_symmetry_space_group_name_H-M "P C C N"
_symmetry_group_IT_number 56
_symmetry_cell_setting 'orthorhombic'
loop_
_space_group_symop_operation_xyz
x,y,z
1/2-x,1/2-y,z
1/2+x,-y,1/2-z
-x,1/2+y,1/2-z
-x,-y,-z
1/2+x,1/2+y,-z
1/2-x,y,1/2+z
x,1/2-y,1/2+z
loop_
_atom_site_type_symbol
_atom_site_label
_atom_site_fract_x
_atom_site_fract_y
_atom_site_fract_z
Si Si1 0.528505 0.721313 0.304456
Si Si2 0.878137 0.181616 0.966659
Si Si3 0.581995 0.144283 0.324895
Si Si4 0.716025 0.982602 0.005686
Si Si5 0.506227 0.839783 0.947107
Si Si6 0.789924 0.928778 0.781231
Si Si7 0.220415 0.117759 0.855236
O O1 0.433105 0.711292 0.242020
O O2 0.469230 0.693891 0.374364
O O3 0.597906 0.841669 0.304274
O O4 0.648448 0.631328 0.293830
O O5 0.750000 0.250000 0.991687
O O6 0.891977 0.210085 0.890963
O O7 0.000366 0.230656 0.007263
O O8 0.840106 0.053467 0.978061
O O9 0.434710 0.094728 0.339896
O O10 0.688316 0.046629 0.314562
O O11 0.748108 0.921332 0.072815
O O12 0.599500 0.070997 0.024957
O O13 0.650654 0.897941 0.954298
O O14 0.802758 0.940006 0.702894
O O15 0.250000 0.250000 0.848416
#
# Coordination Sequence:
#
# PCOD9431590 Si02
#       7
#     8   8   8   8   8   8   8
#     4  10  21  41  61  89 124 159 205 267 310 377
#     4  10  23  43  60  94 131 158 220 267 304 399
#     4  11  22  40  65  89 120 170 203 258 320 369
#     4  10  22  39  62  89 124 167 210 256 318 390
#     4  10  21  40  64  87 124 170 203 262 328 362
#     4  10  21  40  60  88 127 156 214 257 313 381
#     4  11  21  41  61  92 126 163 208 263 312 380
#
# _framework density 22.674994000000002
#
# number of rings (size 3 to 8) (size 9 to 14) (size 15 to 20)
#    0.000    1.714    2.857    2.571    2.000    0.571 
#   18.000    2.143    0.000    0.000    0.000    0.000 
#    0.000    0.000    0.000    0.000    0.000    0.000 
#
# Total GULP energy -312864.953378 kJ/mol
# GULP energy per Si atom -5586.874167 kJ/mol
# Density = 2.262339 g / cm^3
# Si number density = 22.674994 Si / 1000 Ang^3
#
#
#
# Elastic Constant Matrix: (Units=GPa)
#
#
# Indices 1 2 3 4 5 6 
#
# 1 28.1778 16.3015 -1.5800 0.0000 0.0000 0.0000
# 2 16.3015 33.2576 20.4777 0.0000 0.0000 0.0000
# 3 -1.5800 20.4777 134.2558 0.0000 0.0000 0.0000
# 4 0.0000 0.0000 0.0000 27.1386 0.0000 0.0000
# 5 0.0000 0.0000 0.0000 0.0000 29.5836 0.0000
# 6 0.0000 0.0000 0.0000 0.0000 0.0000 10.9567
#
#
#
# Elastic Compliance Matrix: (Units=1/GPa)
#
#
# Indices 1 2 3 4 5 6 
#
# 1 0.052416 -0.028775 0.005006 0.000000 0.000000 0.000000
# 2 -0.028775 0.048981 -0.007810 0.000000 0.000000 0.000000
# 3 0.005006 -0.007810 0.008699 0.000000 0.000000 0.000000
# 4 0.000000 0.000000 0.000000 0.036848 0.000000 0.000000
# 5 0.000000 0.000000 0.000000 0.000000 0.033802 0.000000
# 6 0.000000 0.000000 0.000000 0.000000 0.000000 0.091268
#
#
# Mechanical properties :
#
#
# Convention : Reuss Voigt Hill
#
# Bulk Modulus (GPa) = 21.30414 29.56550 25.43482
# Shear Modulus (GPa) = 14.25242 24.23525 19.24383
#
# Velocity S-wave (km/s) = 2.50981 3.27281 2.91637
# Velocity P-wave (km/s) = 4.22075 5.22961 4.75203
#
# Compressibility (1/GPa) = 0.04693923
#
# Stress axis : x y z
#
# Youngs Moduli (GPa) = 19.07801 20.41605 114.96156
#
# Poissons Ratio (x) = 0.58746 -0.57547
# Poissons Ratio (y) = 0.54896 0.89780
# Poissons Ratio (z) = -0.09550 0.15944
#
# Static dielectric constant tensor:
#      x y z
#    x 1.873830 0.000000 0.000000 
#    y 0.000000 1.850150 0.000000 
#    z 0.000000 0.000000 1.833510 
# 
# From -- ./inp_files/18765.got.cif
#   From: 2010.05.17/outbox.cif.g08.bks.cpg/sg56_10_cif.got.tgz:18765.got - 2010.06.03 13:42:01.
