data_PCOD9431385
_publ_section_title
;
Structure prediction by ZEFSAII (Michael W. Deem and Ramdas Pophale) SiO2 
 PCOD9431385
Probable space group: P C C N
;
_chemical_formula_sum "Si O2"
_cell_formula_units_Z 56
_cell_length_a 8.532672
_cell_length_b 13.457207
_cell_length_c 21.745980
_cell_angle_alpha 90.000000
_cell_angle_beta 90.000000
_cell_angle_gamma 90.000000
_cell_volume 2497.002450
_symmetry_space_group_name_H-M "P C C N"
_symmetry_group_IT_number 56
_symmetry_cell_setting 'orthorhombic'
loop_
_space_group_symop_operation_xyz
x,y,z
1/2-x,1/2-y,z
1/2+x,-y,1/2-z
-x,1/2+y,1/2-z
-x,-y,-z
1/2+x,1/2+y,-z
1/2-x,y,1/2+z
x,1/2-y,1/2+z
loop_
_atom_site_type_symbol
_atom_site_label
_atom_site_fract_x
_atom_site_fract_y
_atom_site_fract_z
Si Si1 0.433538 0.905379 0.720074
Si Si2 0.370754 0.423287 0.024595
Si Si3 0.913401 0.274907 0.593334
Si Si4 0.401898 0.050813 0.943256
Si Si5 0.695294 0.043140 0.868583
Si Si6 0.707193 0.454077 0.167377
Si Si7 0.116826 0.167226 0.681438
O O1 0.334220 0.949204 0.777997
O O2 0.531150 0.819126 0.753415
O O3 0.305392 0.882392 0.668505
O O4 0.561178 0.977872 0.688430
O O5 0.464995 0.331257 0.051253
O O6 0.288311 0.487305 0.077662
O O7 0.500000 0.500000 0.000000
O O8 0.233298 0.389080 0.978703
O O9 0.750000 0.250000 0.560755
O O10 0.864726 0.347188 0.649714
O O11 0.999996 0.183207 0.624389
O O12 0.539063 0.089044 0.898175
O O13 0.291751 0.989067 0.895599
O O14 0.500000 0.000000 0.000000
O O15 0.665519 0.947972 0.823618
O O16 0.250000 0.250000 0.674633
#
# Coordination Sequence:
#
# PCOD9431385 Si02
#       7
#     8   8   8   8   8   8   8
#     4  12  22  37  66  96 141 175 224 289 344 422
#     4  11  21  38  64  97 131 175 234 292 334 415
#     4  12  23  38  62  99 139 172 228 290 353 401
#     4  10  21  37  64  98 127 170 234 296 331 397
#     4  11  21  40  63 101 130 172 230 282 339 423
#     4  12  21  39  61 103 128 176 233 281 339 424
#     4  12  23  38  61 101 141 170 214 291 361 394
#
# _framework density 22.42689
#
# number of rings (size 3 to 8) (size 9 to 14) (size 15 to 20)
#    0.000    0.571    8.571    0.000    0.000    0.000 
#    0.000    0.000    0.000    0.000   44.571    0.000 
#    0.000    0.000    0.000    0.000    0.000    0.143 
#
# Total GULP energy -312424.219702 kJ/mol
# GULP energy per Si atom -5579.003923 kJ/mol
# Density = 2.237585 g / cm^3
# Si number density = 22.426890 Si / 1000 Ang^3
#
#
#
# Elastic Constant Matrix: (Units=GPa)
#
#
# Indices 1 2 3 4 5 6 
#
# 1 159.7973 29.3217 56.6822 0.0000 0.0000 0.0000
# 2 29.3217 29.1556 18.5001 0.0000 0.0000 0.0000
# 3 56.6822 18.5001 97.1073 0.0000 0.0000 0.0000
# 4 0.0000 0.0000 0.0000 27.4599 0.0000 0.0000
# 5 0.0000 0.0000 0.0000 0.0000 73.9814 0.0000
# 6 0.0000 0.0000 0.0000 0.0000 0.0000 26.7381
#
#
#
# Elastic Compliance Matrix: (Units=1/GPa)
#
#
# Indices 1 2 3 4 5 6 
#
# 1 0.008824 -0.006377 -0.003936 0.000000 0.000000 0.000000
# 2 -0.006377 0.043624 -0.004589 0.000000 0.000000 0.000000
# 3 -0.003936 -0.004589 0.013469 0.000000 0.000000 0.000000
# 4 0.000000 0.000000 0.000000 0.036417 0.000000 0.000000
# 5 0.000000 0.000000 0.000000 0.000000 0.013517 0.000000
# 6 0.000000 0.000000 0.000000 0.000000 0.000000 0.037400
#
#
# Mechanical properties :
#
#
# Convention : Reuss Voigt Hill
#
# Bulk Modulus (GPa) = 27.68969 55.00758 41.34864
# Shear Modulus (GPa) = 25.62896 37.73962 31.68429
#
# Velocity S-wave (km/s) = 3.38417 4.10663 3.76278
# Velocity P-wave (km/s) = 5.25772 6.86051 6.11188
#
# Compressibility (1/GPa) = 0.03611452
#
# Stress axis : x y z
#
# Youngs Moduli (GPa) = 113.32526 22.92329 74.24227
#
# Poissons Ratio (x) = 0.14618 0.29220
# Poissons Ratio (y) = 0.72268 0.34066
# Poissons Ratio (z) = 0.44603 0.10518
#
# Static dielectric constant tensor:
#      x y z
#    x 1.747370 0.000000 0.000000 
#    y 0.000000 1.852970 0.000000 
#    z 0.000000 0.000000 1.940280 
# 
# From -- ./inp_files/18249.got.cif
#   From: 2010.05.17/outbox.cif.g08.bks.cpg/sg56_10_cif.got.tgz:18249.got - 2010.06.03 13:42:01.
