data_PCOD9431150
_publ_section_title
;
Structure prediction by ZEFSAII (Michael W. Deem and Ramdas Pophale) SiO2 
 PCOD9431150
Probable space group: P C C N
;
_chemical_formula_sum "Si O2"
_cell_formula_units_Z 48
_cell_length_a 5.362213
_cell_length_b 29.213615
_cell_length_c 13.319076
_cell_angle_alpha 90.000000
_cell_angle_beta 90.000000
_cell_angle_gamma 90.000000
_cell_volume 2086.428276
_symmetry_space_group_name_H-M "P C C N"
_symmetry_group_IT_number 56
_symmetry_cell_setting 'orthorhombic'
loop_
_space_group_symop_operation_xyz
x,y,z
1/2-x,1/2-y,z
1/2+x,-y,1/2-z
-x,1/2+y,1/2-z
-x,-y,-z
1/2+x,1/2+y,-z
1/2-x,y,1/2+z
x,1/2-y,1/2+z
loop_
_atom_site_type_symbol
_atom_site_label
_atom_site_fract_x
_atom_site_fract_y
_atom_site_fract_z
Si Si1 0.250000 0.750000 0.647646
Si Si2 0.275870 0.841621 0.762217
Si Si3 0.248609 0.996170 0.567852
Si Si4 0.166299 0.606029 0.086555
Si Si5 0.130690 0.092554 0.626165
Si Si6 0.999976 0.661810 0.449640
Si Si7 0.250000 0.250000 0.975623
O O1 0.340576 0.794135 0.708724
O O2 0.496261 0.738099 0.584046
O O3 0.079947 0.866202 0.684675
O O4 0.467948 0.882522 0.789213
O O5 0.210544 0.823029 0.873100
O O6 0.209304 0.039809 0.640046
O O7 0.500000 0.000000 0.500000
O O8 0.244987 0.945560 0.614010
O O9 0.000000 0.000000 0.500000
O O10 0.394401 0.637944 0.048637
O O11 0.000834 0.599835 0.984918
O O12 0.379342 0.120973 0.612483
O O13 0.819255 0.703871 0.466252
#
# Coordination Sequence:
#
# PCOD9431150 Si02
#       7
#     4   8   8   8   8   8   4
#     4  12  28  48  72 102 144 192 244 288 376 424
#     4  11  26  43  67 107 143 183 240 305 353 435
#     4  10  20  41  72  97 133 186 233 285 355 427
#     4  10  21  46  67  96 142 187 230 297 361 428
#     4  10  23  42  67 102 138 185 239 289 362 424
#     4  11  24  42  71  97 142 183 241 295 359 426
#     4  12  28  46  76 100 136 200 238 292 368 444
#
# _framework density 23.005825000000002
#
# number of rings (size 3 to 8) (size 9 to 14) (size 15 to 20)
#    0.000    1.333    3.333    1.000    7.000    1.333 
#    3.000    0.000    0.000    0.000    0.000    0.000 
#    0.000    0.000    0.000    0.000    0.000    0.000 
#
# Total GULP energy -267451.500502 kJ/mol
# GULP energy per Si atom -5571.906260 kJ/mol
# Density = 2.295346 g / cm^3
# Si number density = 23.005825 Si / 1000 Ang^3
#
#
#
# Elastic Constant Matrix: (Units=GPa)
#
#
# Indices 1 2 3 4 5 6 
#
# 1 73.5543 10.0778 16.7274 0.0000 0.0000 0.0000
# 2 10.0778 162.4357 58.2094 0.0000 0.0000 0.0000
# 3 16.7274 58.2094 73.6416 0.0000 0.0000 0.0000
# 4 0.0000 0.0000 0.0000 -51.6800 0.0000 0.0000
# 5 0.0000 0.0000 0.0000 0.0000 69.0344 0.0000
# 6 0.0000 0.0000 0.0000 0.0000 0.0000 24.3417
#
#
#
# Elastic Compliance Matrix: (Units=1/GPa)
#
#
# Indices 1 2 3 4 5 6 
#
# 1 0.014353 0.000388 -0.003567 0.000000 0.000000 0.000000
# 2 0.000388 0.008600 -0.006886 0.000000 0.000000 0.000000
# 3 -0.003567 -0.006886 0.019832 0.000000 0.000000 0.000000
# 4 0.000000 0.000000 0.000000 -0.019350 0.000000 0.000000
# 5 0.000000 0.000000 0.000000 0.000000 0.014486 0.000000
# 6 0.000000 0.000000 0.000000 0.000000 0.000000 0.041082
#
#
# Mechanical properties :
#
#
# Convention : Reuss Voigt Hill
#
# Bulk Modulus (GPa) = 44.13872 53.29562 48.71717
# Shear Modulus (GPa) = 46.86735 23.31369 35.09052
#
# Velocity S-wave (km/s) = 4.51843 3.18682 3.90973
# Velocity P-wave (km/s) = 6.81536 6.06280 6.45006
#
# Compressibility (1/GPa) = 0.02265585
#
# Stress axis : x y z
#
# Youngs Moduli (GPa) = 69.66987 116.28288 50.42328
#
# Poissons Ratio (x) = -0.04508 0.17985
# Poissons Ratio (y) = -0.02701 0.34720
# Poissons Ratio (z) = 0.24849 0.80068
#
# Static dielectric constant tensor:
#      x y z
#    x 1.567940 0.000000 0.000000 
#    y 0.000000 1.968640 0.000000 
#    z 0.000000 0.000000 1.898940 
# 
# From -- ./inp_files/9730.got.cif
#   From: 2010.05.17/outbox.cif.g08.bks.cpg/sg56_5_cif.got.tgz:9730.got - 2010.06.03 13:42:01.
