data_PCOD9431568
_publ_section_title
;
Structure prediction by ZEFSAII (Michael W. Deem and Ramdas Pophale) SiO2 
 PCOD9431568
Probable space group: P C C N
;
_chemical_formula_sum "Si O2"
_cell_formula_units_Z 60
_cell_length_a 5.183161
_cell_length_b 19.415151
_cell_length_c 27.730167
_cell_angle_alpha 90.000000
_cell_angle_beta 90.000000
_cell_angle_gamma 90.000000
_cell_volume 2790.538102
_symmetry_space_group_name_H-M "P C C N"
_symmetry_group_IT_number 56
_symmetry_cell_setting 'orthorhombic'
loop_
_space_group_symop_operation_xyz
x,y,z
1/2-x,1/2-y,z
1/2+x,-y,1/2-z
-x,1/2+y,1/2-z
-x,-y,-z
1/2+x,1/2+y,-z
1/2-x,y,1/2+z
x,1/2-y,1/2+z
loop_
_atom_site_type_symbol
_atom_site_label
_atom_site_fract_x
_atom_site_fract_y
_atom_site_fract_z
Si Si1 0.472275 0.649884 0.034505
Si Si2 0.750000 0.750000 0.609184
Si Si3 0.876734 0.113656 0.600506
Si Si4 0.108342 0.181371 0.071811
Si Si5 0.818147 0.519341 0.046150
Si Si6 0.849345 0.043439 0.699240
Si Si7 0.591569 0.372676 0.389375
Si Si8 0.653375 0.447854 0.805614
O O1 0.603422 0.696857 0.074793
O O2 0.591178 0.572733 0.032622
O O3 0.187237 0.648131 0.056539
O O4 0.521752 0.683816 0.983689
O O5 0.555013 0.693933 0.633012
O O6 0.658459 0.171121 0.598904
O O7 0.904164 0.092803 0.655309
O O8 0.160167 0.126481 0.578834
O O9 0.742746 0.053834 0.568288
O O10 0.250000 0.250000 0.087165
O O11 0.942318 0.558540 0.093092
O O12 0.000000 0.500000 0.000000
O O13 0.867612 0.081043 0.751140
O O14 0.581455 0.002133 0.690124
O O15 0.076553 0.987693 0.697927
O O16 0.811083 0.397319 0.351423
#
# Coordination Sequence:
#
# PCOD9431568 Si02
#       8
#     8   4   8   8   8   8   8   8
#     4  11  23  39  62  88 132 172 221 264 323 395
#     4  10  24  40  58  86 128 178 226 264 326 386
#     4  12  24  41  66  94 132 165 216 278 324 381
#     4  12  27  43  65  88 127 183 225 257 313 393
#     4  11  22  35  58  98 128 166 207 269 335 384
#     4  10  21  40  66 101 130 165 211 273 344 393
#     4  11  23  38  63  93 134 175 219 276 329 407
#     4  10  21  39  67  99 133 166 211 269 341 411
#
# _framework density 21.50123
#
# number of rings (size 3 to 8) (size 9 to 14) (size 15 to 20)
#    0.000    1.067    3.333    3.200    5.600    2.133 
#    0.000    0.000    1.467    1.600    0.000    0.000 
#    0.000    0.000    0.000    0.000    0.000    0.000 
#
# Total GULP energy -334526.006756 kJ/mol
# GULP energy per Si atom -5575.433446 kJ/mol
# Density = 2.145229 g / cm^3
# Si number density = 21.501230 Si / 1000 Ang^3
#
#
#
# Elastic Constant Matrix: (Units=GPa)
#
#
# Indices 1 2 3 4 5 6 
#
# 1 44.0998 12.6028 14.0528 0.0000 0.0000 0.0000
# 2 12.6028 69.3925 12.0677 0.0000 0.0000 0.0000
# 3 14.0528 12.0677 92.1669 0.0000 0.0000 0.0000
# 4 0.0000 0.0000 0.0000 13.6069 0.0000 0.0000
# 5 0.0000 0.0000 0.0000 0.0000 40.2298 0.0000
# 6 0.0000 0.0000 0.0000 0.0000 0.0000 29.0801
#
#
#
# Elastic Compliance Matrix: (Units=1/GPa)
#
#
# Indices 1 2 3 4 5 6 
#
# 1 0.024845 -0.003943 -0.003272 0.000000 0.000000 0.000000
# 2 -0.003943 0.015372 -0.001412 0.000000 0.000000 0.000000
# 3 -0.003272 -0.001412 0.011534 0.000000 0.000000 0.000000
# 4 0.000000 0.000000 0.000000 0.073492 0.000000 0.000000
# 5 0.000000 0.000000 0.000000 0.000000 0.024857 0.000000
# 6 0.000000 0.000000 0.000000 0.000000 0.000000 0.034388
#
#
# Mechanical properties :
#
#
# Convention : Reuss Voigt Hill
#
# Bulk Modulus (GPa) = 28.98728 31.45619 30.22174
# Shear Modulus (GPa) = 23.44761 27.71242 25.58001
#
# Velocity S-wave (km/s) = 3.30589 3.59399 3.45294
# Velocity P-wave (km/s) = 5.29932 5.64659 5.47571
#
# Compressibility (1/GPa) = 0.03449789
#
# Stress axis : x y z
#
# Youngs Moduli (GPa) = 40.24893 65.05151 86.70343
#
# Poissons Ratio (x) = 0.25652 0.28368
# Poissons Ratio (y) = 0.15872 0.12238
# Poissons Ratio (z) = 0.13169 0.09182
#
# Static dielectric constant tensor:
#      x y z
#    x 1.881560 0.000000 0.000000 
#    y 0.000000 1.941530 0.000000 
#    z 0.000000 0.000000 1.793270 
# 
# From -- ./inp_files/21797.got.cif
#   From: 2010.05.17/outbox.cif.g08.bks.cpg/sg56_11_cif.got.tgz:21797.got - 2010.06.03 13:42:01.
