data_PCOD9431836
_publ_section_title
;
Structure prediction by ZEFSAII (Michael W. Deem and Ramdas Pophale) SiO2 
 PCOD9431836
Probable space group: P C C N
;
_chemical_formula_sum "Si O2"
_cell_formula_units_Z 56
_cell_length_a 19.950745
_cell_length_b 6.466814
_cell_length_c 19.890619
_cell_angle_alpha 90.000000
_cell_angle_beta 90.000000
_cell_angle_gamma 90.000000
_cell_volume 2566.243050
_symmetry_space_group_name_H-M "P C C N"
_symmetry_group_IT_number 56
_symmetry_cell_setting 'orthorhombic'
loop_
_space_group_symop_operation_xyz
x,y,z
1/2-x,1/2-y,z
1/2+x,-y,1/2-z
-x,1/2+y,1/2-z
-x,-y,-z
1/2+x,1/2+y,-z
1/2-x,y,1/2+z
x,1/2-y,1/2+z
loop_
_atom_site_type_symbol
_atom_site_label
_atom_site_fract_x
_atom_site_fract_y
_atom_site_fract_z
Si Si1 0.513371 0.882282 0.171943
Si Si2 0.579843 0.052601 0.290814
Si Si3 0.607748 0.859386 0.990238
Si Si4 0.532385 0.277321 0.562326
Si Si5 0.828024 0.808922 0.348078
Si Si6 0.623237 0.596912 0.110887
Si Si7 0.178999 0.640861 0.269999
O O1 0.519440 0.946539 0.249600
O O2 0.453368 0.721970 0.160932
O O3 0.581519 0.762875 0.154144
O O4 0.508659 0.079853 0.124697
O O5 0.626503 0.886882 0.326737
O O6 0.623496 0.179945 0.236511
O O7 0.536460 0.742185 0.977801
O O8 0.647319 0.879458 0.921184
O O9 0.646958 0.724442 0.045805
O O10 0.583234 0.078745 0.019768
O O11 0.571140 0.078417 0.587337
O O12 0.750000 0.750000 0.350278
O O13 0.835035 0.982570 0.290780
O O14 0.674765 0.483771 0.160265
O O15 0.250000 0.750000 0.261297
#
# Coordination Sequence:
#
# PCOD9431836 Si02
#       7
#     8   8   8   8   8   8   8
#     4  11  23  36  67 106 133 175 221 289 354 411
#     4  12  24  40  68 103 141 174 230 289 348 414
#     4  10  24  41  67  99 135 179 223 279 348 416
#     4  10  21  43  67  98 142 173 222 283 350 418
#     4  12  26  48  67  98 142 186 235 284 349 424
#     4  11  22  43  67 100 134 177 227 281 345 407
#     4  12  25  45  69  98 134 189 236 284 339 406
#
# _framework density 21.821783
#
# number of rings (size 3 to 8) (size 9 to 14) (size 15 to 20)
#    0.000    0.857    4.286    3.000    2.000    3.429 
#    2.571    0.000    0.000    0.000    0.000    0.000 
#    0.000    0.000    0.000    0.000    0.000    0.000 
#
# Total GULP energy -313406.871523 kJ/mol
# GULP energy per Si atom -5596.551277 kJ/mol
# Density = 2.177212 g / cm^3
# Si number density = 21.821783 Si / 1000 Ang^3
#
#
#
# Elastic Constant Matrix: (Units=GPa)
#
#
# Indices 1 2 3 4 5 6 
#
# 1 54.3555 32.6248 21.8862 0.0000 0.0000 0.0000
# 2 32.6248 85.5472 50.8744 0.0000 0.0000 0.0000
# 3 21.8862 50.8744 122.8008 0.0000 0.0000 0.0000
# 4 0.0000 0.0000 0.0000 38.2678 0.0000 0.0000
# 5 0.0000 0.0000 0.0000 0.0000 23.1304 0.0000
# 6 0.0000 0.0000 0.0000 0.0000 0.0000 38.5386
#
#
#
# Elastic Compliance Matrix: (Units=1/GPa)
#
#
# Indices 1 2 3 4 5 6 
#
# 1 0.023897 -0.008732 -0.000642 0.000000 0.000000 0.000000
# 2 -0.008732 0.018702 -0.006192 0.000000 0.000000 0.000000
# 3 -0.000642 -0.006192 0.010823 0.000000 0.000000 0.000000
# 4 0.000000 0.000000 0.000000 0.026132 0.000000 0.000000
# 5 0.000000 0.000000 0.000000 0.000000 0.043233 0.000000
# 6 0.000000 0.000000 0.000000 0.000000 0.000000 0.025948
#
#
# Mechanical properties :
#
#
# Convention : Reuss Voigt Hill
#
# Bulk Modulus (GPa) = 44.86102 52.60826 48.73464
# Shear Modulus (GPa) = 26.69602 30.47522 28.58562
#
# Velocity S-wave (km/s) = 3.50146 3.74110 3.62326
# Velocity P-wave (km/s) = 6.07861 6.54382 6.31550
#
# Compressibility (1/GPa) = 0.02229107
#
# Stress axis : x y z
#
# Youngs Moduli (GPa) = 41.84687 53.47152 92.39883
#
# Poissons Ratio (x) = 0.46691 0.05928
# Poissons Ratio (y) = 0.36540 0.57209
# Poissons Ratio (z) = 0.02685 0.33107
#
# Static dielectric constant tensor:
#      x y z
#    x 1.788080 0.000000 0.000000 
#    y 0.000000 1.795910 0.000000 
#    z 0.000000 0.000000 1.827140 
# 
# From -- ./inp_files/19590.got.cif
#   From: 2010.05.17/outbox.cif.g08.bks.cpg/sg56_10_cif.got.tgz:19590.got - 2010.06.03 13:42:01.
