data_PCOD9431283
_publ_section_title
;
Structure prediction by ZEFSAII (Michael W. Deem and Ramdas Pophale) SiO2 
 PCOD9431283
Probable space group: P C C N
;
_chemical_formula_sum "Si O2"
_cell_formula_units_Z 48
_cell_length_a 17.476535
_cell_length_b 9.864447
_cell_length_c 13.702867
_cell_angle_alpha 90.000000
_cell_angle_beta 90.000000
_cell_angle_gamma 90.000000
_cell_volume 2362.324300
_symmetry_space_group_name_H-M "P C C N"
_symmetry_group_IT_number 56
_symmetry_cell_setting 'orthorhombic'
loop_
_space_group_symop_operation_xyz
x,y,z
1/2-x,1/2-y,z
1/2+x,-y,1/2-z
-x,1/2+y,1/2-z
-x,-y,-z
1/2+x,1/2+y,-z
1/2-x,y,1/2+z
x,1/2-y,1/2+z
loop_
_atom_site_type_symbol
_atom_site_label
_atom_site_fract_x
_atom_site_fract_y
_atom_site_fract_z
Si Si1 0.606407 0.397005 0.543144
Si Si2 0.592131 0.256301 0.855426
Si Si3 0.365789 0.015018 0.256675
Si Si4 0.207565 0.895562 0.270429
Si Si5 0.434238 0.161841 0.082719
Si Si6 0.447600 0.107521 0.443971
O O1 0.588632 0.536221 0.486931
O O2 0.668636 0.417348 0.625589
O O3 0.588945 0.797346 0.473572
O O4 0.526718 0.344243 0.589843
O O5 0.597121 0.125431 0.784506
O O6 0.640212 0.377456 0.808163
O O7 0.628618 0.208424 0.958145
O O8 0.274661 0.000022 0.247537
O O9 0.397107 0.132878 0.186728
O O10 0.390655 0.038893 0.367676
O O11 0.250000 0.750000 0.271962
O O12 0.506180 0.200962 0.381075
O O13 0.500000 0.000000 0.500000
#
# Coordination Sequence:
#
# PCOD9431283 Si02
#       6
#     8   8   8   8   8   8
#     4   9  18  37  64  88 118 163 205 255 314 359
#     4   9  21  38  62  92 122 162 209 264 311 357
#     4  10  22  40  61  96 124 160 209 254 320 366
#     4  10  21  35  62  95 124 160 203 257 312 369
#     4   9  20  40  63  87 120 161 205 257 310 366
#     4  11  24  38  65  94 120 162 215 256 308 372
#
# _framework density 20.318973
#
# number of rings (size 3 to 8) (size 9 to 14) (size 15 to 20)
#    0.000    2.333    0.000    2.000   11.667    3.333 
#    0.000    0.833    0.000    0.000    0.000    0.000 
#    0.000    0.000    0.000    0.000    0.000    0.000 
#
# Total GULP energy -268045.751147 kJ/mol
# GULP energy per Si atom -5584.286482 kJ/mol
# Density = 2.027273 g / cm^3
# Si number density = 20.318973 Si / 1000 Ang^3
#
#
#
# Elastic Constant Matrix: (Units=GPa)
#
#
# Indices 1 2 3 4 5 6 
#
# 1 25.8038 4.3394 24.7523 0.0000 0.0000 0.0000
# 2 4.3394 37.5872 33.2824 0.0000 0.0000 0.0000
# 3 24.7523 33.2824 93.5988 0.0000 0.0000 0.0000
# 4 0.0000 0.0000 0.0000 33.3751 0.0000 0.0000
# 5 0.0000 0.0000 0.0000 0.0000 2.6088 0.0000
# 6 0.0000 0.0000 0.0000 0.0000 0.0000 23.6278
#
#
#
# Elastic Compliance Matrix: (Units=1/GPa)
#
#
# Indices 1 2 3 4 5 6 
#
# 1 0.054098 0.009374 -0.017639 0.000000 0.000000 0.000000
# 2 0.009374 0.040455 -0.016864 0.000000 0.000000 0.000000
# 3 -0.017639 -0.016864 0.021345 0.000000 0.000000 0.000000
# 4 0.000000 0.000000 0.000000 0.029962 0.000000 0.000000
# 5 0.000000 0.000000 0.000000 0.000000 0.383322 0.000000
# 6 0.000000 0.000000 0.000000 0.000000 0.000000 0.042323
#
#
# Mechanical properties :
#
#
# Convention : Reuss Voigt Hill
#
# Bulk Modulus (GPa) = 15.23488 31.30422 23.26955
# Shear Modulus (GPa) = 7.76824 18.23005 12.99915
#
# Velocity S-wave (km/s) = 1.95741 2.99857 2.53208
# Velocity P-wave (km/s) = 3.55285 5.23721 4.47499
#
# Compressibility (1/GPa) = 0.06563884
#
# Stress axis : x y z
#
# Youngs Moduli (GPa) = 18.48491 24.71855 46.84867
#
# Poissons Ratio (x) = -0.23170 0.82638
# Poissons Ratio (y) = -0.17327 0.79007
# Poissons Ratio (z) = 0.32606 0.41686
#
# Static dielectric constant tensor:
#      x y z
#    x 1.719470 0.000000 0.000000 
#    y 0.000000 1.754080 0.000000 
#    z 0.000000 0.000000 1.723250 
# 
# From -- ./inp_files/8333.got.cif
#   From: 2010.05.17/outbox.cif.g08.bks.cpg/sg56_5_cif.got.tgz:8333.got - 2010.06.03 13:42:01.
