data_PCOD9431981
_publ_section_title
;
Structure prediction by ZEFSAII (Michael W. Deem and Ramdas Pophale) SiO2 
 PCOD9431981
Probable space group: P C C N
;
_chemical_formula_sum "Si O2"
_cell_formula_units_Z 60
_cell_length_a 10.939017
_cell_length_b 9.430766
_cell_length_c 21.673351
_cell_angle_alpha 90.000000
_cell_angle_beta 90.000000
_cell_angle_gamma 90.000000
_cell_volume 2235.894619
_symmetry_space_group_name_H-M "P C C N"
_symmetry_group_IT_number 56
_symmetry_cell_setting 'orthorhombic'
loop_
_space_group_symop_operation_xyz
x,y,z
1/2-x,1/2-y,z
1/2+x,-y,1/2-z
-x,1/2+y,1/2-z
-x,-y,-z
1/2+x,1/2+y,-z
1/2-x,y,1/2+z
x,1/2-y,1/2+z
loop_
_atom_site_type_symbol
_atom_site_label
_atom_site_fract_x
_atom_site_fract_y
_atom_site_fract_z
Si Si1 0.750000 0.250000 0.956826
Si Si2 0.625118 0.705884 0.002676
Si Si3 0.165918 0.475007 0.381328
Si Si4 0.904691 0.240988 0.570378
Si Si5 0.567229 0.568446 0.609264
Si Si6 0.602850 0.393201 0.848919
Si Si7 0.583910 0.375417 0.280680
Si Si8 0.699493 0.907975 0.264263
O O1 0.665343 0.341316 0.911937
O O2 0.662823 0.181511 0.008854
O O3 0.750000 0.750000 0.970828
O O4 0.658464 0.578148 0.047879
O O5 0.582397 0.834154 0.048829
O O6 0.519650 0.674003 0.955620
O O7 0.161619 0.644572 0.386080
O O8 0.297169 0.416745 0.358130
O O9 0.042613 0.410345 0.354313
O O10 0.943740 0.099037 0.602829
O O11 0.445416 0.605586 0.646190
O O12 0.620614 0.290337 0.788099
O O13 0.670906 0.538337 0.833551
O O14 0.684778 0.480488 0.251073
O O15 0.445637 0.403803 0.256853
O O16 0.750000 0.750000 0.259541
#
# Coordination Sequence:
#
# PCOD9431981 Si02
#       8
#     4   8   8   8   8   8   8   8
#     4  12  22  44  76 100 158 204 252 298 384 460
#     4  10  22  38  62  96 137 196 253 292 361 436
#     4  11  23  41  67 103 140 205 247 300 360 444
#     4  12  23  42  65 106 151 200 250 310 353 438
#     4  11  24  43  69 105 147 196 258 295 384 437
#     4  12  26  49  80 106 155 203 247 309 397 458
#     4  12  27  54  81 112 154 200 244 324 398 468
#     4  12  30  52  82 122 144 190 261 324 394 458
#
# _framework density 26.834899
#
# number of rings (size 3 to 8) (size 9 to 14) (size 15 to 20)
#    0.000    0.533    5.333    1.600    5.600    0.000 
#    2.400    1.333    0.000    0.000    0.000    0.000 
#    0.000    0.000    0.000    0.000    0.000    0.000 
#
# Total GULP energy -334966.998430 kJ/mol
# GULP energy per Si atom -5582.783307 kJ/mol
# Density = 2.677382 g / cm^3
# Si number density = 26.834899 Si / 1000 Ang^3
#
#
#
# Elastic Constant Matrix: (Units=GPa)
#
#
# Indices 1 2 3 4 5 6 
#
# 1 171.0881 24.5647 26.5049 0.0000 0.0000 0.0000
# 2 24.5647 126.5968 8.6418 0.0000 0.0000 0.0000
# 3 26.5049 8.6418 22.1874 0.0000 0.0000 0.0000
# 4 0.0000 0.0000 0.0000 13.6666 0.0000 0.0000
# 5 0.0000 0.0000 0.0000 0.0000 39.9358 0.0000
# 6 0.0000 0.0000 0.0000 0.0000 0.0000 52.8034
#
#
#
# Elastic Compliance Matrix: (Units=1/GPa)
#
#
# Indices 1 2 3 4 5 6 
#
# 1 0.007258 -0.000839 -0.008344 0.000000 0.000000 0.000000
# 2 -0.000839 0.008212 -0.002196 0.000000 0.000000 0.000000
# 3 -0.008344 -0.002196 0.055893 0.000000 0.000000 0.000000
# 4 0.000000 0.000000 0.000000 0.073171 0.000000 0.000000
# 5 0.000000 0.000000 0.000000 0.000000 0.025040 0.000000
# 6 0.000000 0.000000 0.000000 0.000000 0.000000 0.018938
#
#
# Mechanical properties :
#
#
# Convention : Reuss Voigt Hill
#
# Bulk Modulus (GPa) = 20.57386 48.81055 34.69220
# Shear Modulus (GPa) = 21.98074 38.62522 30.30298
#
# Velocity S-wave (km/s) = 2.86512 3.79801 3.36406
# Velocity P-wave (km/s) = 4.31609 6.12061 5.29578
#
# Compressibility (1/GPa) = 0.04860538
#
# Stress axis : x y z
#
# Youngs Moduli (GPa) = 137.77987 121.77624 17.89128
#
# Poissons Ratio (x) = 0.10214 0.14928
# Poissons Ratio (y) = 0.11557 0.03930
# Poissons Ratio (z) = 1.14958 0.26747
#
# Static dielectric constant tensor:
#      x y z
#    x 2.224410 0.000000 0.000000 
#    y 0.000000 2.146100 0.000000 
#    z 0.000000 0.000000 2.190040 
# 
# From -- ./inp_files/22334.got.cif
#   From: 2010.05.17/outbox.cif.g08.bks.cpg/sg56_12_cif.got.tgz:22334.got - 2010.06.03 13:42:01.
