data_PCOD9431842
_publ_section_title
;
Structure prediction by ZEFSAII (Michael W. Deem and Ramdas Pophale) SiO2 
 PCOD9431842
Probable space group: P C C N
;
_chemical_formula_sum "Si O2"
_cell_formula_units_Z 36
_cell_length_a 8.352901
_cell_length_b 13.252750
_cell_length_c 13.172829
_cell_angle_alpha 90.000000
_cell_angle_beta 90.000000
_cell_angle_gamma 90.000000
_cell_volume 1458.217795
_symmetry_space_group_name_H-M "P C C N"
_symmetry_group_IT_number 56
_symmetry_cell_setting 'orthorhombic'
loop_
_space_group_symop_operation_xyz
x,y,z
1/2-x,1/2-y,z
1/2+x,-y,1/2-z
-x,1/2+y,1/2-z
-x,-y,-z
1/2+x,1/2+y,-z
1/2-x,y,1/2+z
x,1/2-y,1/2+z
loop_
_atom_site_type_symbol
_atom_site_label
_atom_site_fract_x
_atom_site_fract_y
_atom_site_fract_z
Si Si1 0.834643 0.560232 0.772292
Si Si2 0.984990 0.907575 0.866832
Si Si3 0.915536 0.199873 0.702970
Si Si4 0.250000 0.250000 0.873822
Si Si5 0.582018 0.301594 0.940449
O O1 0.687909 0.543768 0.847898
O O2 0.781578 0.648899 0.692820
O O3 0.888485 0.466191 0.703998
O O4 0.990683 0.601160 0.833367
O O5 0.970218 0.793655 0.823303
O O6 0.044033 0.891376 0.981552
O O7 0.750000 0.250000 0.670053
O O8 0.895052 0.176436 0.821795
O O9 0.414376 0.238285 0.938375
O O10 0.750000 0.250000 0.968401
#
# Coordination Sequence:
#
# PCOD9431842 Si02
#       5
#     8   8   8   4   8
#     4  11  23  43  67 105 143 185 245 290 372 428
#     4  12  23  41  70 105 138 193 238 294 361 440
#     4  10  21  43  68  95 141 182 236 304 353 426
#     4  10  22  46  70  98 148 192 236 304 362 430
#     4  10  23  42  72 101 140 191 234 297 370 426
#
# _framework density 24.687670000000001
#
# number of rings (size 3 to 8) (size 9 to 14) (size 15 to 20)
#    0.000    1.333    4.444    2.000    3.111    3.556 
#    0.000    1.111    0.000    0.000    0.000    0.000 
#    0.000    0.000    0.000    0.000    0.000    0.000 
#
# Total GULP energy -200763.937855 kJ/mol
# GULP energy per Si atom -5576.776052 kJ/mol
# Density = 2.463148 g / cm^3
# Si number density = 24.687670 Si / 1000 Ang^3
#
#
#
# Elastic Constant Matrix: (Units=GPa)
#
#
# Indices 1 2 3 4 5 6 
#
# 1 193.9570 -6.1187 30.7058 0.0000 0.0000 0.0000
# 2 -6.1187 74.8967 16.2577 0.0000 0.0000 0.0000
# 3 30.7058 16.2577 105.7485 0.0000 0.0000 0.0000
# 4 0.0000 0.0000 0.0000 37.1973 0.0000 0.0000
# 5 0.0000 0.0000 0.0000 0.0000 -9.2244 0.0000
# 6 0.0000 0.0000 0.0000 0.0000 0.0000 42.3180
#
#
#
# Elastic Compliance Matrix: (Units=1/GPa)
#
#
# Indices 1 2 3 4 5 6 
#
# 1 0.005452 0.000816 -0.001709 0.000000 0.000000 0.000000
# 2 0.000816 0.013935 -0.002379 0.000000 0.000000 0.000000
# 3 -0.001709 -0.002379 0.010318 0.000000 0.000000 0.000000
# 4 0.000000 0.000000 0.000000 0.026884 0.000000 0.000000
# 5 0.000000 0.000000 0.000000 0.000000 -0.108408 0.000000
# 6 0.000000 0.000000 0.000000 0.000000 0.000000 0.023631
#
#
# Mechanical properties :
#
#
# Convention : Reuss Voigt Hill
#
# Bulk Modulus (GPa) = 43.17432 50.69909 46.93671
# Shear Modulus (GPa) = -359.07284 36.30867 -161.38208
#
# Velocity S-wave (km/s) = -12.07319 3.83916 -8.09391
# Velocity P-wave (km/s) = 13.29749 6.34295 8.26408
#
# Compressibility (1/GPa) = 0.02316191
#
# Stress axis : x y z
#
# Youngs Moduli (GPa) = 183.41815 71.76231 96.91506
#
# Poissons Ratio (x) = -0.05858 0.16559
# Poissons Ratio (y) = -0.14972 0.23060
# Poissons Ratio (z) = 0.31338 0.17075
#
# Static dielectric constant tensor:
#      x y z
#    x 2.115730 0.000000 0.000000 
#    y 0.000000 2.048030 0.000000 
#    z 0.000000 0.000000 1.981530 
# 
# From -- ./inp_files/10286.got.cif
#   From: 2010.05.17/outbox.cif.g08.bks.cpg/sg56_6_cif.got.tgz:10286.got - 2010.06.03 13:42:01.
