data_PCOD9431137
_publ_section_title
;
Structure prediction by ZEFSAII (Michael W. Deem and Ramdas Pophale) SiO2 
 PCOD9431137
Probable space group: P C C N
;
_chemical_formula_sum "Si O2"
_cell_formula_units_Z 64
_cell_length_a 7.996460
_cell_length_b 11.163942
_cell_length_c 28.974101
_cell_angle_alpha 90.000000
_cell_angle_beta 90.000000
_cell_angle_gamma 90.000000
_cell_volume 2586.576398
_symmetry_space_group_name_H-M "P C C N"
_symmetry_group_IT_number 56
_symmetry_cell_setting 'orthorhombic'
loop_
_space_group_symop_operation_xyz
x,y,z
1/2-x,1/2-y,z
1/2+x,-y,1/2-z
-x,1/2+y,1/2-z
-x,-y,-z
1/2+x,1/2+y,-z
1/2-x,y,1/2+z
x,1/2-y,1/2+z
loop_
_atom_site_type_symbol
_atom_site_label
_atom_site_fract_x
_atom_site_fract_y
_atom_site_fract_z
Si Si1 0.521853 0.951772 0.186121
Si Si2 0.935161 0.202341 0.825242
Si Si3 0.892375 0.427649 0.573308
Si Si4 0.934907 0.785444 0.483275
Si Si5 0.343330 0.026244 0.722469
Si Si6 0.064534 0.297080 0.425603
Si Si7 0.981224 0.412861 0.097649
Si Si8 0.937840 0.199325 0.166675
O O1 0.546330 0.810636 0.191906
O O2 0.342416 0.004930 0.202573
O O3 0.654215 0.000507 0.222822
O O4 0.528930 0.975198 0.131458
O O5 0.750000 0.250000 0.814855
O O6 0.955081 0.079078 0.799526
O O7 0.956177 0.193414 0.879703
O O8 0.923840 0.563479 0.558200
O O9 0.695868 0.399985 0.572097
O O10 0.926772 0.404839 0.627758
O O11 0.984844 0.324837 0.544729
O O12 0.750000 0.750000 0.497320
O O13 0.013815 0.788202 0.534400
O O14 0.905813 0.893696 0.447008
O O15 0.438418 0.147695 0.705686
O O16 0.250000 0.250000 0.411733
O O17 0.011223 0.308614 0.135700
O O18 0.750000 0.250000 0.179157
#
# Coordination Sequence:
#
# PCOD9431137 Si02
#       8
#     8   8   8   8   8   8   8   8
#     4  11  27  42  66  98 135 181 232 282 344 406
#     4  10  24  45  64  94 133 178 225 276 339 408
#     4  10  20  41  66  93 129 180 222 276 344 402
#     4  10  23  39  63 101 133 173 226 281 338 409
#     4  11  25  44  66  97 134 178 231 286 343 409
#     4  11  22  40  67  97 135 174 227 277 343 410
#     4  10  23  41  65  97 134 171 229 275 341 412
#     4   9  20  37  69  92 123 171 219 275 337 399
#
# _framework density 24.743133
#
# number of rings (size 3 to 8) (size 9 to 14) (size 15 to 20)
#    0.000    1.750    1.250    2.250    8.750    2.500 
#    0.000    5.625    0.000    0.000    0.000    0.000 
#    0.000    0.000    0.000    0.000    0.000    0.000 
#
# Total GULP energy -356993.989811 kJ/mol
# GULP energy per Si atom -5578.031091 kJ/mol
# Density = 2.468682 g / cm^3
# Si number density = 24.743133 Si / 1000 Ang^3
#
#
#
# Elastic Constant Matrix: (Units=GPa)
#
#
# Indices 1 2 3 4 5 6 
#
# 1 35.4571 2.4578 5.4171 0.0000 0.0000 0.0000
# 2 2.4578 73.5477 9.9724 0.0000 0.0000 0.0000
# 3 5.4171 9.9724 105.4392 0.0000 0.0000 0.0000
# 4 0.0000 0.0000 0.0000 12.1614 0.0000 0.0000
# 5 0.0000 0.0000 0.0000 0.0000 24.2158 0.0000
# 6 0.0000 0.0000 0.0000 0.0000 0.0000 19.6732
#
#
#
# Elastic Compliance Matrix: (Units=1/GPa)
#
#
# Indices 1 2 3 4 5 6 
#
# 1 0.028468 -0.000763 -0.001390 0.000000 0.000000 0.000000
# 2 -0.000763 0.013794 -0.001265 0.000000 0.000000 0.000000
# 3 -0.001390 -0.001265 0.009675 0.000000 0.000000 0.000000
# 4 0.000000 0.000000 0.000000 0.082227 0.000000 0.000000
# 5 0.000000 0.000000 0.000000 0.000000 0.041295 0.000000
# 6 0.000000 0.000000 0.000000 0.000000 0.000000 0.050831
#
#
# Mechanical properties :
#
#
# Convention : Reuss Voigt Hill
#
# Bulk Modulus (GPa) = 22.17298 27.79320 24.98309
# Shear Modulus (GPa) = 20.14818 24.31653 22.23235
#
# Velocity S-wave (km/s) = 2.85668 3.13830 3.00079
# Velocity P-wave (km/s) = 4.45663 4.93852 4.70375
#
# Compressibility (1/GPa) = 0.04509993
#
# Stress axis : x y z
#
# Youngs Moduli (GPa) = 35.12668 72.49691 103.35642
#
# Poissons Ratio (x) = 0.05530 0.14371
# Poissons Ratio (y) = 0.02680 0.13079
# Poissons Ratio (z) = 0.04884 0.09174
#
# Static dielectric constant tensor:
#      x y z
#    x 2.035260 0.000000 0.000000 
#    y 0.000000 2.055700 0.000000 
#    z 0.000000 0.000000 2.020480 
# 
# From -- ./inp_files/23396.got.cif
#   From: 2010.05.17/outbox.cif.g08.bks.cpg/sg56_12_cif.got.tgz:23396.got - 2010.06.03 13:42:01.
