data_PCOD9431573
_publ_section_title
;
Structure prediction by ZEFSAII (Michael W. Deem and Ramdas Pophale) SiO2 
 PCOD9431573
Probable space group: P C C N
;
_chemical_formula_sum "Si O2"
_cell_formula_units_Z 52
_cell_length_a 13.209599
_cell_length_b 10.379455
_cell_length_c 18.685102
_cell_angle_alpha 90.000000
_cell_angle_beta 90.000000
_cell_angle_gamma 90.000000
_cell_volume 2561.885156
_symmetry_space_group_name_H-M "P C C N"
_symmetry_group_IT_number 56
_symmetry_cell_setting 'orthorhombic'
loop_
_space_group_symop_operation_xyz
x,y,z
1/2-x,1/2-y,z
1/2+x,-y,1/2-z
-x,1/2+y,1/2-z
-x,-y,-z
1/2+x,1/2+y,-z
1/2-x,y,1/2+z
x,1/2-y,1/2+z
loop_
_atom_site_type_symbol
_atom_site_label
_atom_site_fract_x
_atom_site_fract_y
_atom_site_fract_z
Si Si1 0.250000 0.750000 0.996718
Si Si2 0.953380 0.953252 0.299551
Si Si3 0.371529 0.522319 0.063819
Si Si4 0.425272 0.164666 0.454828
Si Si5 0.460993 0.876081 0.953411
Si Si6 0.273639 0.384694 0.189218
Si Si7 0.428355 0.283300 0.302068
O O1 0.341933 0.830865 0.957679
O O2 0.308142 0.648066 0.045563
O O3 0.831736 0.956567 0.302317
O O4 0.969695 0.844659 0.238245
O O5 0.003328 0.899751 0.372511
O O6 0.993767 0.098552 0.294594
O O7 0.488533 0.561626 0.066275
O O8 0.345398 0.466125 0.139928
O O9 0.347067 0.419998 0.000422
O O10 0.476830 0.259409 0.511709
O O11 0.400715 0.243374 0.383145
O O12 0.500000 0.000000 0.000000
O O13 0.250000 0.250000 0.149895
O O14 0.330938 0.339858 0.260511
#
# Coordination Sequence:
#
# PCOD9431573 Si02
#       7
#     4   8   8   8   8   8   8
#     4  10  24  38  64 108 128 164 232 288 334 420
#     4  11  24  44  66  91 136 179 221 280 340 410
#     4  10  21  40  65  98 129 169 219 276 343 402
#     4  10  21  39  68  95 129 171 213 283 338 402
#     4  11  21  43  68  95 133 171 225 282 345 408
#     4  10  22  42  64  92 128 175 223 264 333 420
#     4  11  23  43  63 100 131 177 225 274 339 410
#
# _framework density 20.297554000000002
#
# number of rings (size 3 to 8) (size 9 to 14) (size 15 to 20)
#    0.000    1.538    1.538    3.692    2.154    2.462 
#   11.077    0.000    0.000    0.000    0.000    0.000 
#    0.000    0.000    0.000    0.000    0.000    0.000 
#
# Total GULP energy -289852.513699 kJ/mol
# GULP energy per Si atom -5574.086802 kJ/mol
# Density = 2.025136 g / cm^3
# Si number density = 20.297554 Si / 1000 Ang^3
#
#
#
# Elastic Constant Matrix: (Units=GPa)
#
#
# Indices 1 2 3 4 5 6 
#
# 1 70.4332 28.1496 24.1785 0.0000 0.0000 0.0000
# 2 28.1496 83.2409 21.9510 0.0000 0.0000 0.0000
# 3 24.1785 21.9510 85.6182 0.0000 0.0000 0.0000
# 4 0.0000 0.0000 0.0000 13.2609 0.0000 0.0000
# 5 0.0000 0.0000 0.0000 0.0000 -11.9089 0.0000
# 6 0.0000 0.0000 0.0000 0.0000 0.0000 39.3315
#
#
#
# Elastic Compliance Matrix: (Units=1/GPa)
#
#
# Indices 1 2 3 4 5 6 
#
# 1 0.017422 -0.004927 -0.003657 0.000000 0.000000 0.000000
# 2 -0.004927 0.014278 -0.002269 0.000000 0.000000 0.000000
# 3 -0.003657 -0.002269 0.013294 0.000000 0.000000 0.000000
# 4 0.000000 0.000000 0.000000 0.075410 0.000000 0.000000
# 5 0.000000 0.000000 0.000000 0.000000 -0.083971 0.000000
# 6 0.000000 0.000000 0.000000 0.000000 0.000000 0.025425
#
#
# Mechanical properties :
#
#
# Convention : Reuss Voigt Hill
#
# Bulk Modulus (GPa) = 42.94060 43.09449 43.01755
# Shear Modulus (GPa) = 54.74764 19.13757 36.94260
#
# Velocity S-wave (km/s) = 5.19914 3.07392 4.27083
# Velocity P-wave (km/s) = 7.56591 5.82032 6.74978
#
# Compressibility (1/GPa) = 0.02328798
#
# Stress axis : x y z
#
# Youngs Moduli (GPa) = 57.39708 70.03773 75.22082
#
# Poissons Ratio (x) = 0.34511 0.27507
# Poissons Ratio (y) = 0.28282 0.17069
# Poissons Ratio (z) = 0.20989 0.15892
#
# Static dielectric constant tensor:
#      x y z
#    x 1.809750 0.000000 0.000000 
#    y 0.000000 1.745950 0.000000 
#    z 0.000000 0.000000 1.724180 
# 
# From -- ./inp_files/19055.got.cif
#   From: 2010.05.17/outbox.cif.g08.bks.cpg/sg56_10_cif.got.tgz:19055.got - 2010.06.03 13:42:01.
