data_PCOD9431520
_publ_section_title
;
Structure prediction by ZEFSAII (Michael W. Deem and Ramdas Pophale) SiO2 
 PCOD9431520
Probable space group: P C C N
;
_chemical_formula_sum "Si O2"
_cell_formula_units_Z 64
_cell_length_a 14.670040
_cell_length_b 12.070698
_cell_length_c 16.572845
_cell_angle_alpha 90.000000
_cell_angle_beta 90.000000
_cell_angle_gamma 90.000000
_cell_volume 2934.679990
_symmetry_space_group_name_H-M "P C C N"
_symmetry_group_IT_number 56
_symmetry_cell_setting 'orthorhombic'
loop_
_space_group_symop_operation_xyz
x,y,z
1/2-x,1/2-y,z
1/2+x,-y,1/2-z
-x,1/2+y,1/2-z
-x,-y,-z
1/2+x,1/2+y,-z
1/2-x,y,1/2+z
x,1/2-y,1/2+z
loop_
_atom_site_type_symbol
_atom_site_label
_atom_site_fract_x
_atom_site_fract_y
_atom_site_fract_z
Si Si1 0.620304 0.433757 0.738229
Si Si2 0.209399 0.129797 0.629838
Si Si3 0.844355 0.823916 0.674917
Si Si4 0.920170 0.884826 0.234283
Si Si5 0.080927 0.542252 0.407328
Si Si6 0.599302 0.553950 0.516035
Si Si7 0.887552 0.997770 0.907470
Si Si8 0.273240 0.634994 0.406749
O O1 0.659726 0.556588 0.719110
O O2 0.511944 0.428185 0.724935
O O3 0.626353 0.415913 0.834308
O O4 0.667963 0.353202 0.674978
O O5 0.250000 0.250000 0.649065
O O6 0.163351 0.079312 0.709455
O O7 0.131865 0.120744 0.562353
O O8 0.294923 0.068175 0.591814
O O9 0.750000 0.750000 0.665156
O O10 0.911537 0.746733 0.726370
O O11 0.888707 0.859694 0.589845
O O12 0.915644 0.926857 0.141955
O O13 0.092282 0.542566 0.503738
O O14 0.173418 0.597018 0.378427
O O15 0.977196 0.577415 0.388261
O O16 0.500000 0.500000 0.500000
O O17 0.670592 0.454336 0.540180
O O18 0.250000 0.750000 0.450239
#
# Coordination Sequence:
#
# PCOD9431520 Si02
#       8
#     8   8   8   8   8   8   8   8
#     4  10  23  42  66  98 141 173 229 285 338 411
#     4  12  23  38  66 102 132 166 229 282 335 405
#     4  11  22  42  69  98 135 182 232 280 351 415
#     4  11  23  41  68 101 133 181 218 287 349 413
#     4  10  22  41  65  91 135 172 221 280 336 399
#     4  11  25  45  66  99 141 183 225 292 349 414
#     4  10  21  39  62  95 129 167 218 279 327 393
#     4  11  23  44  66  92 133 189 225 273 352 417
#
# _framework density 21.80817
#
# number of rings (size 3 to 8) (size 9 to 14) (size 15 to 20)
#    0.000    1.250    1.250    6.000    1.750    4.000 
#    4.500    1.875    0.000    0.000    0.000    0.000 
#    0.000    0.000    0.000    0.000    0.000    0.000 
#
# Total GULP energy -356475.124252 kJ/mol
# GULP energy per Si atom -5569.923816 kJ/mol
# Density = 2.175853 g / cm^3
# Si number density = 21.808170 Si / 1000 Ang^3
#
#
#
# Elastic Constant Matrix: (Units=GPa)
#
#
# Indices 1 2 3 4 5 6 
#
# 1 156.0544 33.3117 32.1993 0.0000 0.0000 0.0000
# 2 33.3117 56.7389 3.7778 0.0000 0.0000 0.0000
# 3 32.1993 3.7778 125.8431 0.0000 0.0000 0.0000
# 4 0.0000 0.0000 0.0000 16.5055 0.0000 0.0000
# 5 0.0000 0.0000 0.0000 0.0000 24.9853 0.0000
# 6 0.0000 0.0000 0.0000 0.0000 0.0000 21.9444
#
#
#
# Elastic Compliance Matrix: (Units=1/GPa)
#
#
# Indices 1 2 3 4 5 6 
#
# 1 0.007732 -0.004416 -0.001846 0.000000 0.000000 0.000000
# 2 -0.004416 0.020183 0.000524 0.000000 0.000000 0.000000
# 3 -0.001846 0.000524 0.008403 0.000000 0.000000 0.000000
# 4 0.000000 0.000000 0.000000 0.060586 0.000000 0.000000
# 5 0.000000 0.000000 0.000000 0.000000 0.040023 0.000000
# 6 0.000000 0.000000 0.000000 0.000000 0.000000 0.045570
#
#
# Mechanical properties :
#
#
# Convention : Reuss Voigt Hill
#
# Bulk Modulus (GPa) = 40.25567 53.02377 46.63972
# Shear Modulus (GPa) = 24.72160 30.64356 27.68258
#
# Velocity S-wave (km/s) = 3.37054 3.75259 3.56668
# Velocity P-wave (km/s) = 5.80056 6.56829 6.19632
#
# Compressibility (1/GPa) = 0.02484122
#
# Stress axis : x y z
#
# Youngs Moduli (GPa) = 129.33975 49.54776 119.00620
#
# Poissons Ratio (x) = 0.21882 0.21965
# Poissons Ratio (y) = 0.57121 -0.06238
# Poissons Ratio (z) = 0.23872 -0.02597
#
# Static dielectric constant tensor:
#      x y z
#    x 1.835440 0.000000 0.000000 
#    y 0.000000 1.834870 0.000000 
#    z 0.000000 0.000000 1.852260 
# 
# From -- ./inp_files/16360.got.cif
#   From: 2010.05.17/outbox.cif.g08.bks.cpg/sg56_9_cif.got.tgz:16360.got - 2010.06.03 13:42:01.
