data_PCOD9431212
_publ_section_title
;
Structure prediction by ZEFSAII (Michael W. Deem and Ramdas Pophale) SiO2 
 PCOD9431212
Probable space group: P C C N
;
_chemical_formula_sum "Si O2"
_cell_formula_units_Z 60
_cell_length_a 30.114902
_cell_length_b 7.888932
_cell_length_c 10.533028
_cell_angle_alpha 90.000000
_cell_angle_beta 90.000000
_cell_angle_gamma 90.000000
_cell_volume 2502.377955
_symmetry_space_group_name_H-M "P C C N"
_symmetry_group_IT_number 56
_symmetry_cell_setting 'orthorhombic'
loop_
_space_group_symop_operation_xyz
x,y,z
1/2-x,1/2-y,z
1/2+x,-y,1/2-z
-x,1/2+y,1/2-z
-x,-y,-z
1/2+x,1/2+y,-z
1/2-x,y,1/2+z
x,1/2-y,1/2+z
loop_
_atom_site_type_symbol
_atom_site_label
_atom_site_fract_x
_atom_site_fract_y
_atom_site_fract_z
Si Si1 0.041629 0.206250 0.720101
Si Si2 0.507994 0.197528 0.477011
Si Si3 0.133024 0.355573 0.636634
Si Si4 0.786638 0.890910 0.370538
Si Si5 0.841834 0.137574 0.755727
Si Si6 0.645415 0.894526 0.051978
Si Si7 0.250000 0.750000 0.235029
Si Si8 0.089596 0.624114 0.140076
O O1 0.004702 0.213535 0.609181
O O2 0.023055 0.250267 0.858066
O O3 0.081671 0.328469 0.678678
O O4 0.061458 0.017458 0.712413
O O5 0.556946 0.245896 0.429820
O O6 0.500000 0.000000 0.500000
O O7 0.167397 0.198499 0.681005
O O8 0.158823 0.537744 0.611004
O O9 0.127731 0.285699 0.487752
O O10 0.750000 0.750000 0.346824
O O11 0.802546 0.899624 0.516544
O O12 0.769262 0.077817 0.332999
O O13 0.859395 0.962434 0.693245
O O14 0.795271 0.189841 0.700419
O O15 0.877427 0.281450 0.764495
O O16 0.619507 0.033068 0.967223
#
# Coordination Sequence:
#
# PCOD9431212 Si02
#       8
#     8   8   8   8   8   8   4   8
#     4  11  25  46  72 106 148 186 247 307 373 444
#     4  12  27  45  74 109 140 197 246 302 376 445
#     4   9  22  44  65 100 139 187 225 307 356 428
#     4  10  20  44  67  98 145 180 238 298 360 435
#     4  12  23  42  74  97 139 187 241 288 366 444
#     4   9  23  42  65  99 135 185 229 291 363 422
#     4  12  20  40  68 100 136 186 232 294 362 436
#     4  11  25  46  69 101 144 184 233 310 358 440
#
# _framework density 23.977194000000001
#
# number of rings (size 3 to 8) (size 9 to 14) (size 15 to 20)
#    0.800    0.533    2.667    2.000    7.467    0.533 
#    2.400    0.000    0.000    0.000    0.000    0.000 
#    0.000    0.000    0.000    0.000    0.000    0.000 
#
# Total GULP energy -334126.991629 kJ/mol
# GULP energy per Si atom -5568.783194 kJ/mol
# Density = 2.392262 g / cm^3
# Si number density = 23.977194 Si / 1000 Ang^3
#
#
#
# Elastic Constant Matrix: (Units=GPa)
#
#
# Indices 1 2 3 4 5 6 
#
# 1 81.9835 7.0757 0.6676 0.0000 0.0000 0.0000
# 2 7.0757 94.2838 -3.8815 0.0000 0.0000 0.0000
# 3 0.6676 -3.8815 36.6949 0.0000 0.0000 0.0000
# 4 0.0000 0.0000 0.0000 20.8563 0.0000 0.0000
# 5 0.0000 0.0000 0.0000 0.0000 3.1721 0.0000
# 6 0.0000 0.0000 0.0000 0.0000 0.0000 47.6385
#
#
#
# Elastic Compliance Matrix: (Units=1/GPa)
#
#
# Indices 1 2 3 4 5 6 
#
# 1 0.012281 -0.000935 -0.000322 0.000000 0.000000 0.000000
# 2 -0.000935 0.010724 0.001151 0.000000 0.000000 0.000000
# 3 -0.000322 0.001151 0.027379 0.000000 0.000000 0.000000
# 4 0.000000 0.000000 0.000000 0.047947 0.000000 0.000000
# 5 0.000000 0.000000 0.000000 0.000000 0.315244 0.000000
# 6 0.000000 0.000000 0.000000 0.000000 0.000000 0.020991
#
#
# Mechanical properties :
#
#
# Convention : Reuss Voigt Hill
#
# Bulk Modulus (GPa) = 19.93130 24.52065 22.22598
# Shear Modulus (GPa) = 11.07414 28.27340 19.67377
#
# Velocity S-wave (km/s) = 2.15143 3.43764 2.86758
# Velocity P-wave (km/s) = 3.80817 5.09955 4.50042
#
# Compressibility (1/GPa) = 0.05017234
#
# Stress axis : x y z
#
# Youngs Moduli (GPa) = 81.42733 93.25017 36.52384
#
# Poissons Ratio (x) = 0.08718 0.01177
# Poissons Ratio (y) = 0.07613 -0.04205
# Poissons Ratio (z) = 0.02625 -0.10736
#
# Static dielectric constant tensor:
#      x y z
#    x 1.949740 0.000000 0.000000 
#    y 0.000000 2.152900 0.000000 
#    z 0.000000 0.000000 2.188050 
# 
# From -- ./inp_files/9088.got.cif
#   From: 2010.05.17/outbox.cif.g08.bks.cpg/sg56_5_cif.got.tgz:9088.got - 2010.06.03 13:42:01.
