data_PCOD9431303
_publ_section_title
;
Structure prediction by ZEFSAII (Michael W. Deem and Ramdas Pophale) SiO2 
 PCOD9431303
Probable space group: P C C N
;
_chemical_formula_sum "Si O2"
_cell_formula_units_Z 48
_cell_length_a 17.443875
_cell_length_b 22.610075
_cell_length_c 5.569595
_cell_angle_alpha 90.000000
_cell_angle_beta 90.000000
_cell_angle_gamma 90.000000
_cell_volume 2196.689049
_symmetry_space_group_name_H-M "P C C N"
_symmetry_group_IT_number 56
_symmetry_cell_setting 'orthorhombic'
loop_
_space_group_symop_operation_xyz
x,y,z
1/2-x,1/2-y,z
1/2+x,-y,1/2-z
-x,1/2+y,1/2-z
-x,-y,-z
1/2+x,1/2+y,-z
1/2-x,y,1/2+z
x,1/2-y,1/2+z
loop_
_atom_site_type_symbol
_atom_site_label
_atom_site_fract_x
_atom_site_fract_y
_atom_site_fract_z
Si Si1 0.443903 0.091375 0.918518
Si Si2 0.288681 0.122532 0.096411
Si Si3 0.711753 0.479998 0.394289
Si Si4 0.099642 0.896512 0.807793
Si Si5 0.553667 0.472615 0.793971
Si Si6 0.337940 0.772193 0.203417
O O1 0.510864 0.118790 0.752599
O O2 0.406097 0.033990 0.786389
O O3 0.377566 0.132510 0.022428
O O4 0.493322 0.060072 0.124742
O O5 0.261183 0.142626 0.362564
O O6 0.285230 0.050903 0.117474
O O7 0.747495 0.460318 0.645988
O O8 0.628740 0.449442 0.364839
O O9 0.153054 0.841067 0.758841
O O10 0.103349 0.922946 0.074207
O O11 0.500000 0.500000 0.000000
O O12 0.250000 0.750000 0.186042
O O13 0.372567 0.740920 0.440578
#
# Coordination Sequence:
#
# PCOD9431303 Si02
#       6
#     8   8   8   8   8   8
#     4  10  21  36  56  84 121 158 211 257 314 386
#     4  10  22  36  52  79 122 163 190 246 302 367
#     4  10  23  33  51  80 115 156 212 250 300 364
#     4  11  24  36  64  82 115 166 219 265 320 370
#     4   9  19  33  55  83 117 155 208 263 309 371
#     4  10  25  45  63  84 120 163 211 276 321 355
#
# _framework density 21.851067
#
# number of rings (size 3 to 8) (size 9 to 14) (size 15 to 20)
#    0.000    2.000    0.000    3.000   21.000    0.000 
#    0.000    0.000    0.000    0.000    0.000    0.000 
#    0.000    4.000    0.000    0.000    0.000    0.000 
#
# Total GULP energy -267536.180046 kJ/mol
# GULP energy per Si atom -5573.670418 kJ/mol
# Density = 2.180133 g / cm^3
# Si number density = 21.851067 Si / 1000 Ang^3
#
#
#
# Elastic Constant Matrix: (Units=GPa)
#
#
# Indices 1 2 3 4 5 6 
#
# 1 80.0118 -6.8241 11.9375 0.0000 0.0000 0.0000
# 2 -6.8241 20.2694 -15.5607 0.0000 0.0000 0.0000
# 3 11.9375 -15.5607 95.7005 0.0000 0.0000 0.0000
# 4 0.0000 0.0000 0.0000 16.1790 0.0000 0.0000
# 5 0.0000 0.0000 0.0000 0.0000 34.1401 0.0000
# 6 0.0000 0.0000 0.0000 0.0000 0.0000 22.9580
#
#
#
# Elastic Compliance Matrix: (Units=1/GPa)
#
#
# Indices 1 2 3 4 5 6 
#
# 1 0.012957 0.003567 -0.001036 0.000000 0.000000 0.000000
# 2 0.003567 0.057354 0.008881 0.000000 0.000000 0.000000
# 3 -0.001036 0.008881 0.012023 0.000000 0.000000 0.000000
# 4 0.000000 0.000000 0.000000 0.061808 0.000000 0.000000
# 5 0.000000 0.000000 0.000000 0.000000 0.029291 0.000000
# 6 0.000000 0.000000 0.000000 0.000000 0.000000 0.043558
#
#
# Mechanical properties :
#
#
# Convention : Reuss Voigt Hill
#
# Bulk Modulus (GPa) = 9.50973 19.45413 14.48193
# Shear Modulus (GPa) = 21.81309 28.41737 25.11523
#
# Velocity S-wave (km/s) = 3.16296 3.61016 3.39393
# Velocity P-wave (km/s) = 4.20720 5.12836 4.69045
#
# Compressibility (1/GPa) = 0.10515543
#
# Stress axis : x y z
#
# Youngs Moduli (GPa) = 77.17863 17.43562 83.17727
#
# Poissons Ratio (x) = -0.06219 0.08620
# Poissons Ratio (y) = -0.27527 -0.73867
# Poissons Ratio (z) = 0.07998 -0.15484
#
# Static dielectric constant tensor:
#      x y z
#    x 1.914720 0.000000 0.000000 
#    y 0.000000 1.769330 0.000000 
#    z 0.000000 0.000000 1.977360 
# 
# From -- ./inp_files/697.got.cif
#   From: 2010.05.17/outbox.cif.g08.bks.cpg/sg56_1_cif.got.tgz:697.got - 2010.06.03 13:42:01.
