data_PCOD9431812
_publ_section_title
;
Structure prediction by ZEFSAII (Michael W. Deem and Ramdas Pophale) SiO2 
 PCOD9431812
Probable space group: P C C N
;
_chemical_formula_sum "Si O2"
_cell_formula_units_Z 64
_cell_length_a 8.766193
_cell_length_b 21.985063
_cell_length_c 16.624058
_cell_angle_alpha 90.000000
_cell_angle_beta 90.000000
_cell_angle_gamma 90.000000
_cell_volume 3203.876655
_symmetry_space_group_name_H-M "P C C N"
_symmetry_group_IT_number 56
_symmetry_cell_setting 'orthorhombic'
loop_
_space_group_symop_operation_xyz
x,y,z
1/2-x,1/2-y,z
1/2+x,-y,1/2-z
-x,1/2+y,1/2-z
-x,-y,-z
1/2+x,1/2+y,-z
1/2-x,y,1/2+z
x,1/2-y,1/2+z
loop_
_atom_site_type_symbol
_atom_site_label
_atom_site_fract_x
_atom_site_fract_y
_atom_site_fract_z
Si Si1 0.237723 0.040608 0.975777
Si Si2 0.012513 0.386083 0.875140
Si Si3 0.738527 0.677853 0.231430
Si Si4 0.177801 0.418706 0.146795
Si Si5 0.011595 0.892303 0.126162
Si Si6 0.229327 0.959898 0.725968
Si Si7 0.180413 0.580523 0.898194
Si Si8 0.743389 0.322163 0.479676
O O1 0.377047 0.076299 0.933512
O O2 0.089632 0.062194 0.927417
O O3 0.276623 0.969747 0.965332
O O4 0.231541 0.060312 0.068003
O O5 0.911364 0.432383 0.823439
O O6 0.113391 0.346865 0.814620
O O7 0.902961 0.343946 0.928232
O O8 0.750000 0.750000 0.235373
O O9 0.722234 0.646514 0.318445
O O10 0.596220 0.651231 0.179832
O O11 0.217555 0.467773 0.216022
O O12 0.999148 0.421035 0.123239
O O13 0.121266 0.931749 0.183535
O O14 0.113144 0.850318 0.067916
O O15 0.232084 0.939154 0.817779
O O16 0.227298 0.645134 0.934165
O O17 0.750000 0.250000 0.485211
#
# Coordination Sequence:
#
# PCOD9431812 Si02
#       8
#     8   8   8   8   8   8   8   8
#     4  11  22  41  69  95 126 163 212 273 330 379
#     4  10  21  42  70  92 123 172 214 259 330 382
#     4  11  24  43  64  93 131 172 216 261 315 388
#     4  12  24  42  65  96 130 167 215 266 330 386
#     4  10  23  43  67  99 125 161 219 274 317 382
#     4  11  23  40  67  96 126 160 212 274 326 380
#     4  12  24  42  66  96 133 169 212 272 332 383
#     4  11  24  44  66  95 132 174 218 260 321 394
#
# _framework density 19.975801000000001
#
# number of rings (size 3 to 8) (size 9 to 14) (size 15 to 20)
#    0.000    1.000    3.750    4.125    0.000    3.000 
#    4.500    1.250    0.000    0.000    0.000    0.000 
#    0.000    0.000    0.000    0.000    0.000    0.000 
#
# Total GULP energy -358271.209910 kJ/mol
# GULP energy per Si atom -5597.987655 kJ/mol
# Density = 1.993034 g / cm^3
# Si number density = 19.975801 Si / 1000 Ang^3
#
#
#
# Elastic Constant Matrix: (Units=GPa)
#
#
# Indices 1 2 3 4 5 6 
#
# 1 75.1385 27.6325 14.5261 0.0000 0.0000 0.0000
# 2 27.6325 124.4861 11.4586 0.0000 0.0000 0.0000
# 3 14.5261 11.4586 89.4197 0.0000 0.0000 0.0000
# 4 0.0000 0.0000 0.0000 28.7123 0.0000 0.0000
# 5 0.0000 0.0000 0.0000 0.0000 8.7904 0.0000
# 6 0.0000 0.0000 0.0000 0.0000 0.0000 9.3105
#
#
#
# Elastic Compliance Matrix: (Units=1/GPa)
#
#
# Indices 1 2 3 4 5 6 
#
# 1 0.014841 -0.003109 -0.002013 0.000000 0.000000 0.000000
# 2 -0.003109 0.008780 -0.000620 0.000000 0.000000 0.000000
# 3 -0.002013 -0.000620 0.011590 0.000000 0.000000 0.000000
# 4 0.000000 0.000000 0.000000 0.034828 0.000000 0.000000
# 5 0.000000 0.000000 0.000000 0.000000 0.113760 0.000000
# 6 0.000000 0.000000 0.000000 0.000000 0.000000 0.107405
#
#
# Mechanical properties :
#
#
# Convention : Reuss Voigt Hill
#
# Bulk Modulus (GPa) = 42.14486 44.03096 43.08791
# Shear Modulus (GPa) = 16.09800 25.05778 20.57789
#
# Velocity S-wave (km/s) = 2.84187 3.54560 3.21306
# Velocity P-wave (km/s) = 5.64908 6.23312 5.94827
#
# Compressibility (1/GPa) = 0.02372768
#
# Stress axis : x y z
#
# Youngs Moduli (GPa) = 67.37995 113.89216 86.28415
#
# Poissons Ratio (x) = 0.35410 0.17365
# Poissons Ratio (y) = 0.20949 0.05350
# Poissons Ratio (z) = 0.13560 0.07062
#
# Static dielectric constant tensor:
#      x y z
#    x 1.714470 0.000000 0.000000 
#    y 0.000000 1.658240 0.000000 
#    z 0.000000 0.000000 1.712250 
# 
# From -- ./inp_files/11067.got.cif
#   From: 2010.05.17/outbox.cif.g08.bks.cpg/sg56_6_cif.got.tgz:11067.got - 2010.06.03 13:42:01.
