data_PCOD9431167
_publ_section_title
;
Structure prediction by ZEFSAII (Michael W. Deem and Ramdas Pophale) SiO2 
 PCOD9431167
Probable space group: P C C N
;
_chemical_formula_sum "Si O2"
_cell_formula_units_Z 48
_cell_length_a 13.608006
_cell_length_b 6.755024
_cell_length_c 27.128749
_cell_angle_alpha 90.000000
_cell_angle_beta 90.000000
_cell_angle_gamma 90.000000
_cell_volume 2493.739910
_symmetry_space_group_name_H-M "P C C N"
_symmetry_group_IT_number 56
_symmetry_cell_setting 'orthorhombic'
loop_
_space_group_symop_operation_xyz
x,y,z
1/2-x,1/2-y,z
1/2+x,-y,1/2-z
-x,1/2+y,1/2-z
-x,-y,-z
1/2+x,1/2+y,-z
1/2-x,y,1/2+z
x,1/2-y,1/2+z
loop_
_atom_site_type_symbol
_atom_site_label
_atom_site_fract_x
_atom_site_fract_y
_atom_site_fract_z
Si Si1 0.994196 0.110281 0.614086
Si Si2 0.476660 0.501306 0.942645
Si Si3 0.508246 0.077057 0.699592
Si Si4 0.640391 0.268452 0.780712
Si Si5 0.639262 0.283917 0.397394
Si Si6 0.635138 0.772124 0.632029
O O1 0.961257 0.274835 0.575160
O O2 0.012398 0.240745 0.662982
O O3 0.915703 0.942267 0.628420
O O4 0.085872 0.990574 0.590817
O O5 0.569793 0.394864 0.915585
O O6 0.385160 0.375963 0.921119
O O7 0.500000 0.500000 0.000000
O O8 0.569025 0.142708 0.746814
O O9 0.405832 0.986069 0.717429
O O10 0.573902 0.912107 0.670194
O O11 0.750000 0.250000 0.760941
O O12 0.641135 0.207530 0.837878
O O13 0.750000 0.250000 0.415047
O O14 0.750000 0.750000 0.643485
#
# Coordination Sequence:
#
# PCOD9431167 Si02
#       6
#     8   8   8   8   8   8
#     4  10  20  42  66  83 130 168 193 277 313 370
#     4  10  22  43  64  95 127 167 214 259 325 386
#     4  11  23  40  62  91 128 168 219 263 317 389
#     4  11  23  39  62  91 127 168 219 264 319 387
#     4  10  21  42  59  92 127 164 210 261 320 378
#     4  10  23  41  64  94 126 167 216 265 328 380
#
# _framework density 19.248197999999999
#
# number of rings (size 3 to 8) (size 9 to 14) (size 15 to 20)
#    0.000    1.667    5.000    1.000    2.333    5.333 
#    6.000    1.667    0.000    0.000    0.000    0.000 
#    0.000    0.000    0.000    0.000    0.000    0.000 
#
# Total GULP energy -267675.979961 kJ/mol
# GULP energy per Si atom -5576.582916 kJ/mol
# Density = 1.920439 g / cm^3
# Si number density = 19.248198 Si / 1000 Ang^3
#
#
#
# Elastic Constant Matrix: (Units=GPa)
#
#
# Indices 1 2 3 4 5 6 
#
# 1 114.3013 51.4349 -1.6011 0.0000 0.0000 0.0000
# 2 51.4349 144.0537 25.9654 0.0000 0.0000 0.0000
# 3 -1.6011 25.9654 67.0627 0.0000 0.0000 0.0000
# 4 0.0000 0.0000 0.0000 14.6676 0.0000 0.0000
# 5 0.0000 0.0000 0.0000 0.0000 19.2345 0.0000
# 6 0.0000 0.0000 0.0000 0.0000 0.0000 14.0258
#
#
#
# Elastic Compliance Matrix: (Units=1/GPa)
#
#
# Indices 1 2 3 4 5 6 
#
# 1 0.010634 -0.004131 0.001853 0.000000 0.000000 0.000000
# 2 -0.004131 0.009067 -0.003609 0.000000 0.000000 0.000000
# 3 0.001853 -0.003609 0.016353 0.000000 0.000000 0.000000
# 4 0.000000 0.000000 0.000000 0.068177 0.000000 0.000000
# 5 0.000000 0.000000 0.000000 0.000000 0.051990 0.000000
# 6 0.000000 0.000000 0.000000 0.000000 0.000000 0.071297
#
#
# Mechanical properties :
#
#
# Convention : Reuss Voigt Hill
#
# Bulk Modulus (GPa) = 41.18565 53.00177 47.09371
# Shear Modulus (GPa) = 20.21131 26.22680 23.21906
#
# Velocity S-wave (km/s) = 3.24394 3.69529 3.47695
# Velocity P-wave (km/s) = 5.95605 6.76776 6.37484
#
# Compressibility (1/GPa) = 0.02428030
#
# Stress axis : x y z
#
# Youngs Moduli (GPa) = 94.04141 110.28578 61.15044
#
# Poissons Ratio (x) = 0.45557 -0.11333
# Poissons Ratio (y) = 0.38847 0.22071
# Poissons Ratio (z) = -0.17428 0.39806
#
# Static dielectric constant tensor:
#      x y z
#    x 1.691320 0.000000 0.000000 
#    y 0.000000 1.723800 0.000000 
#    z 0.000000 0.000000 1.692440 
# 
# From -- ./inp_files/21657.got.cif
#   From: 2010.05.17/outbox.cif.g08.bks.cpg/sg56_11_cif.got.tgz:21657.got - 2010.06.03 13:42:01.
