data_PCOD9431040
_publ_section_title
;
Structure prediction by ZEFSAII (Michael W. Deem and Ramdas Pophale) SiO2 
 PCOD9431040
Probable space group: P C C N
;
_chemical_formula_sum "Si O2"
_cell_formula_units_Z 48
_cell_length_a 13.430626
_cell_length_b 10.499961
_cell_length_c 13.175604
_cell_angle_alpha 90.000000
_cell_angle_beta 90.000000
_cell_angle_gamma 90.000000
_cell_volume 1858.037500
_symmetry_space_group_name_H-M "P C C N"
_symmetry_group_IT_number 56
_symmetry_cell_setting 'orthorhombic'
loop_
_space_group_symop_operation_xyz
x,y,z
1/2-x,1/2-y,z
1/2+x,-y,1/2-z
-x,1/2+y,1/2-z
-x,-y,-z
1/2+x,1/2+y,-z
1/2-x,y,1/2+z
x,1/2-y,1/2+z
loop_
_atom_site_type_symbol
_atom_site_label
_atom_site_fract_x
_atom_site_fract_y
_atom_site_fract_z
Si Si1 0.129145 0.258350 0.427534
Si Si2 0.966282 0.955358 0.687224
Si Si3 0.671383 0.138335 0.233342
Si Si4 0.363378 0.984509 0.328044
Si Si5 0.316305 0.874901 0.539058
Si Si6 0.825027 0.638402 0.368965
O O1 0.250000 0.250000 0.420731
O O2 0.067832 0.133299 0.403040
O O3 0.102405 0.373113 0.352509
O O4 0.110241 0.301499 0.541263
O O5 0.901231 0.906409 0.783854
O O6 0.076368 0.940820 0.729558
O O7 0.926996 0.099967 0.672319
O O8 0.750000 0.250000 0.211841
O O9 0.747984 0.023613 0.202621
O O10 0.638196 0.157346 0.350329
O O11 0.373573 0.908715 0.435077
O O12 0.250000 0.750000 0.517618
O O13 0.273082 0.015450 0.573975
O O14 0.750000 0.750000 0.335445
#
# Coordination Sequence:
#
# PCOD9431040 Si02
#       6
#     8   8   8   8   8   8
#     4  10  20  40  62  87 124 163 208 255 305 366
#     4  11  23  39  64  92 126 161 207 261 302 372
#     4  10  22  40  62  90 123 165 200 254 312 368
#     4  11  23  39  63  93 120 165 207 251 314 367
#     4   9  20  40  63  86 123 161 205 251 307 368
#     4   9  20  37  64  91 120 167 209 250 314 362
#
# _framework density 25.833711000000001
#
# number of rings (size 3 to 8) (size 9 to 14) (size 15 to 20)
#    0.000    2.000    1.667    1.000    4.667    6.000 
#    3.000    0.000    0.000    3.000    0.000    0.000 
#    0.000    0.000    0.000    0.000    0.000    0.000 
#
# Total GULP energy -267676.059476 kJ/mol
# GULP energy per Si atom -5576.584572 kJ/mol
# Density = 2.577491 g / cm^3
# Si number density = 25.833711 Si / 1000 Ang^3
#
#
#
# Elastic Constant Matrix: (Units=GPa)
#
#
# Indices 1 2 3 4 5 6 
#
# 1 50.3903 11.7536 4.7678 0.0000 0.0000 0.0000
# 2 11.7536 100.6000 3.3584 0.0000 0.0000 0.0000
# 3 4.7678 3.3584 67.8153 0.0000 0.0000 0.0000
# 4 0.0000 0.0000 0.0000 35.4878 0.0000 0.0000
# 5 0.0000 0.0000 0.0000 0.0000 12.9008 0.0000
# 6 0.0000 0.0000 0.0000 0.0000 0.0000 17.5671
#
#
#
# Elastic Compliance Matrix: (Units=1/GPa)
#
#
# Indices 1 2 3 4 5 6 
#
# 1 0.020519 -0.002353 -0.001326 0.000000 0.000000 0.000000
# 2 -0.002353 0.010227 -0.000341 0.000000 0.000000 0.000000
# 3 -0.001326 -0.000341 0.014856 0.000000 0.000000 0.000000
# 4 0.000000 0.000000 0.000000 0.028179 0.000000 0.000000
# 5 0.000000 0.000000 0.000000 0.000000 0.077515 0.000000
# 6 0.000000 0.000000 0.000000 0.000000 0.000000 0.056924
#
#
# Mechanical properties :
#
#
# Convention : Reuss Voigt Hill
#
# Bulk Modulus (GPa) = 26.62288 28.72947 27.67617
# Shear Modulus (GPa) = 21.85495 26.45286 24.15390
#
# Velocity S-wave (km/s) = 2.91174 3.20342 3.06106
# Velocity P-wave (km/s) = 4.65104 4.98273 4.81974
#
# Compressibility (1/GPa) = 0.03756168
#
# Stress axis : x y z
#
# Youngs Moduli (GPa) = 48.73428 97.78350 67.31257
#
# Poissons Ratio (x) = 0.23010 0.08926
# Poissons Ratio (y) = 0.11468 0.02295
# Poissons Ratio (z) = 0.06463 0.03335
#
# Static dielectric constant tensor:
#      x y z
#    x 2.013160 0.000000 0.000000 
#    y 0.000000 2.309010 0.000000 
#    z 0.000000 0.000000 2.056430 
# 
# From -- ./inp_files/12219.got.cif
#   From: 2010.05.17/outbox.cif.g08.bks.cpg/sg56_7_cif.got.tgz:12219.got - 2010.06.03 13:42:01.
