data_PCOD9431998
_publ_section_title
;
Structure prediction by ZEFSAII (Michael W. Deem and Ramdas Pophale) SiO2 
 PCOD9431998
Probable space group: P C C N
;
_chemical_formula_sum "Si O2"
_cell_formula_units_Z 60
_cell_length_a 16.881323
_cell_length_b 6.082551
_cell_length_c 27.955022
_cell_angle_alpha 90.000000
_cell_angle_beta 90.000000
_cell_angle_gamma 90.000000
_cell_volume 2870.463818
_symmetry_space_group_name_H-M "P C C N"
_symmetry_group_IT_number 56
_symmetry_cell_setting 'orthorhombic'
loop_
_space_group_symop_operation_xyz
x,y,z
1/2-x,1/2-y,z
1/2+x,-y,1/2-z
-x,1/2+y,1/2-z
-x,-y,-z
1/2+x,1/2+y,-z
1/2-x,y,1/2+z
x,1/2-y,1/2+z
loop_
_atom_site_type_symbol
_atom_site_label
_atom_site_fract_x
_atom_site_fract_y
_atom_site_fract_z
Si Si1 0.828146 0.841447 0.989816
Si Si2 0.169844 0.631185 0.419684
Si Si3 0.384024 0.441273 0.107821
Si Si4 0.062074 0.012372 0.456900
Si Si5 0.463599 0.232383 0.760454
Si Si6 0.046169 0.173042 0.869667
Si Si7 0.334086 0.363650 0.685364
Si Si8 0.750000 0.250000 0.348716
O O1 0.750000 0.750000 0.964406
O O2 0.887044 0.925719 0.949274
O O3 0.866760 0.645864 0.019154
O O4 0.806578 0.015202 0.030467
O O5 0.250000 0.750000 0.401162
O O6 0.125937 0.461468 0.384006
O O7 0.099153 0.792620 0.435619
O O8 0.466384 0.528831 0.128362
O O9 0.368784 0.209615 0.134034
O O10 0.307270 0.591542 0.120605
O O11 0.032536 0.149882 0.411529
O O12 0.000000 0.000000 0.500000
O O13 0.506161 0.479721 0.752481
O O14 0.446866 0.226884 0.817041
O O15 0.389037 0.273403 0.726526
O O16 0.250000 0.250000 0.690840
O O17 0.313214 0.618820 0.683482
#
# Coordination Sequence:
#
# PCOD9431998 Si02
#       8
#     8   8   8   8   8   8   8   4
#     4  11  22  37  62  96 132 178 230 281 356 429
#     4  11  24  44  65  93 142 188 236 290 350 432
#     4  11  22  40  64 103 135 177 233 297 367 440
#     4  11  24  42  67  96 137 183 232 296 350 430
#     4  12  27  49  78 108 146 195 244 311 376 447
#     4  11  26  44  69 101 137 185 243 294 363 438
#     4  10  23  44  67 102 143 180 240 303 370 440
#     4  10  22  38  66  96 140 180 222 306 372 440
#
# _framework density 20.902545
#
# number of rings (size 3 to 8) (size 9 to 14) (size 15 to 20)
#    0.000    1.067    2.667    3.600    4.667    7.467 
#    3.600    0.000    0.000    0.000    0.000    0.000 
#    0.000    0.000    0.000    0.000    0.000    0.000 
#
# Total GULP energy -334571.048751 kJ/mol
# GULP energy per Si atom -5576.184146 kJ/mol
# Density = 2.085497 g / cm^3
# Si number density = 20.902545 Si / 1000 Ang^3
#
#
#
# Elastic Constant Matrix: (Units=GPa)
#
#
# Indices 1 2 3 4 5 6 
#
# 1 73.0228 21.6798 23.7924 0.0000 0.0000 0.0000
# 2 21.6798 68.9936 16.9904 0.0000 0.0000 0.0000
# 3 23.7924 16.9904 110.6510 0.0000 0.0000 0.0000
# 4 0.0000 0.0000 0.0000 3.7661 0.0000 0.0000
# 5 0.0000 0.0000 0.0000 0.0000 27.7712 0.0000
# 6 0.0000 0.0000 0.0000 0.0000 0.0000 26.3716
#
#
#
# Elastic Compliance Matrix: (Units=1/GPa)
#
#
# Indices 1 2 3 4 5 6 
#
# 1 0.015870 -0.004309 -0.002751 0.000000 0.000000 0.000000
# 2 -0.004309 0.016234 -0.001566 0.000000 0.000000 0.000000
# 3 -0.002751 -0.001566 0.009869 0.000000 0.000000 0.000000
# 4 0.000000 0.000000 0.000000 0.265530 0.000000 0.000000
# 5 0.000000 0.000000 0.000000 0.000000 0.036009 0.000000
# 6 0.000000 0.000000 0.000000 0.000000 0.000000 0.037920
#
#
# Mechanical properties :
#
#
# Convention : Reuss Voigt Hill
#
# Bulk Modulus (GPa) = 40.45167 41.95474 41.20320
# Shear Modulus (GPa) = 12.28731 24.26209 18.27470
#
# Velocity S-wave (km/s) = 2.42717 3.41064 2.96003
# Velocity P-wave (km/s) = 5.22009 5.96868 5.60689
#
# Compressibility (1/GPa) = 0.02472086
#
# Stress axis : x y z
#
# Youngs Moduli (GPa) = 63.01195 61.59948 101.32376
#
# Poissons Ratio (x) = 0.26546 0.27871
# Poissons Ratio (y) = 0.27155 0.15868
# Poissons Ratio (z) = 0.17333 0.09647
#
# Static dielectric constant tensor:
#      x y z
#    x 1.792790 0.000000 0.000000 
#    y 0.000000 2.015410 0.000000 
#    z 0.000000 0.000000 1.756600 
# 
# From -- ./inp_files/22523.got.cif
#   From: 2010.05.17/outbox.cif.g08.bks.cpg/sg56_12_cif.got.tgz:22523.got - 2010.06.03 13:42:01.
