data_PCOD9431229
_publ_section_title
;
Structure prediction by ZEFSAII (Michael W. Deem and Ramdas Pophale) SiO2 
 PCOD9431229
Probable space group: P C C N
;
_chemical_formula_sum "Si O2"
_cell_formula_units_Z 36
_cell_length_a 5.185403
_cell_length_b 13.196191
_cell_length_c 20.624406
_cell_angle_alpha 90.000000
_cell_angle_beta 90.000000
_cell_angle_gamma 90.000000
_cell_volume 1411.277952
_symmetry_space_group_name_H-M "P C C N"
_symmetry_group_IT_number 56
_symmetry_cell_setting 'orthorhombic'
loop_
_space_group_symop_operation_xyz
x,y,z
1/2-x,1/2-y,z
1/2+x,-y,1/2-z
-x,1/2+y,1/2-z
-x,-y,-z
1/2+x,1/2+y,-z
1/2-x,y,1/2+z
x,1/2-y,1/2+z
loop_
_atom_site_type_symbol
_atom_site_label
_atom_site_fract_x
_atom_site_fract_y
_atom_site_fract_z
Si Si1 0.049286 0.164938 0.964024
Si Si2 0.908076 0.907573 0.313990
Si Si3 0.750000 0.750000 0.656519
Si Si4 0.417160 0.875740 0.255270
Si Si5 0.808207 0.452796 0.052078
O O1 0.250000 0.250000 0.992628
O O2 0.026363 0.212845 0.892721
O O3 0.125615 0.050695 0.940593
O O4 0.835087 0.140035 0.017008
O O5 0.125897 0.844097 0.274368
O O6 0.037602 0.926488 0.383251
O O7 0.613061 0.869838 0.316808
O O8 0.878435 0.011406 0.273535
O O9 0.900846 0.827782 0.700773
O O10 0.000000 0.500000 0.000000
#
# Coordination Sequence:
#
# PCOD9431229 Si02
#       5
#     8   8   4   8   8
#     4   9  22  43  65  97 136 182 234 296 351 447
#     4  10  22  41  64  96 131 175 228 283 350 423
#     4  10  20  46  64  96 128 188 240 290 356 434
#     4  10  22  40  66  91 131 177 226 288 342 418
#     4  11  23  40  70 103 135 189 230 295 374 434
#
# _framework density 25.508797000000001
#
# number of rings (size 3 to 8) (size 9 to 14) (size 15 to 20)
#    0.667    1.333    2.222    0.000    6.222    3.556 
#    6.000    2.222    0.000    0.000    0.000    0.000 
#    0.000    0.000    0.000    0.000    0.000    0.000 
#
# Total GULP energy -200672.898725 kJ/mol
# GULP energy per Si atom -5574.247187 kJ/mol
# Density = 2.545074 g / cm^3
# Si number density = 25.508797 Si / 1000 Ang^3
#
#
#
# Elastic Constant Matrix: (Units=GPa)
#
#
# Indices 1 2 3 4 5 6 
#
# 1 141.2837 32.8556 34.5331 0.0000 0.0000 0.0000
# 2 32.8556 82.3341 1.7333 0.0000 0.0000 0.0000
# 3 34.5331 1.7333 100.1652 0.0000 0.0000 0.0000
# 4 0.0000 0.0000 0.0000 23.7502 0.0000 0.0000
# 5 0.0000 0.0000 0.0000 0.0000 -34.9563 0.0000
# 6 0.0000 0.0000 0.0000 0.0000 0.0000 43.4596
#
#
#
# Elastic Compliance Matrix: (Units=1/GPa)
#
#
# Indices 1 2 3 4 5 6 
#
# 1 0.008566 -0.003357 -0.002895 0.000000 0.000000 0.000000
# 2 -0.003357 0.013466 0.000925 0.000000 0.000000 0.000000
# 3 -0.002895 0.000925 0.010966 0.000000 0.000000 0.000000
# 4 0.000000 0.000000 0.000000 0.042105 0.000000 0.000000
# 5 0.000000 0.000000 0.000000 0.000000 -0.028607 0.000000
# 6 0.000000 0.000000 0.000000 0.000000 0.000000 0.023010
#
#
# Mechanical properties :
#
#
# Convention : Reuss Voigt Hill
#
# Bulk Modulus (GPa) = 44.75957 51.33632 48.04794
# Shear Modulus (GPa) = 57.07146 23.42810 40.24978
#
# Velocity S-wave (km/s) = 4.73517 3.03385 3.97656
# Velocity P-wave (km/s) = 6.89061 5.69570 6.32145
#
# Compressibility (1/GPa) = 0.02234159
#
# Stress axis : x y z
#
# Youngs Moduli (GPa) = 116.73489 74.26113 91.19358
#
# Poissons Ratio (x) = 0.24933 0.26403
# Poissons Ratio (y) = 0.39194 -0.08431
# Poissons Ratio (z) = 0.33798 -0.06866
#
# Static dielectric constant tensor:
#      x y z
#    x 2.077530 0.000000 0.000000 
#    y 0.000000 2.022130 0.000000 
#    z 0.000000 0.000000 1.937240 
# 
# From -- ./inp_files/17360.got.cif
#   From: 2010.05.17/outbox.cif.g08.bks.cpg/sg56_9_cif.got.tgz:17360.got - 2010.06.03 13:42:01.
