data_PCOD9431953
_publ_section_title
;
Structure prediction by ZEFSAII (Michael W. Deem and Ramdas Pophale) SiO2 
 PCOD9431953
Probable space group: P C C N
;
_chemical_formula_sum "Si O2"
_cell_formula_units_Z 48
_cell_length_a 8.600876
_cell_length_b 26.006800
_cell_length_c 8.542451
_cell_angle_alpha 90.000000
_cell_angle_beta 90.000000
_cell_angle_gamma 90.000000
_cell_volume 1910.786220
_symmetry_space_group_name_H-M "P C C N"
_symmetry_group_IT_number 56
_symmetry_cell_setting 'orthorhombic'
loop_
_space_group_symop_operation_xyz
x,y,z
1/2-x,1/2-y,z
1/2+x,-y,1/2-z
-x,1/2+y,1/2-z
-x,-y,-z
1/2+x,1/2+y,-z
1/2-x,y,1/2+z
x,1/2-y,1/2+z
loop_
_atom_site_type_symbol
_atom_site_label
_atom_site_fract_x
_atom_site_fract_y
_atom_site_fract_z
Si Si1 0.559614 0.697343 0.427699
Si Si2 0.376274 0.477017 0.769652
Si Si3 0.440239 0.065799 0.620210
Si Si4 0.250000 0.750000 0.454108
Si Si5 0.374410 0.859882 0.545476
Si Si6 0.075139 0.901653 0.394394
Si Si7 0.250000 0.250000 0.814556
O O1 0.400407 0.724955 0.373178
O O2 0.541650 0.638326 0.475869
O O3 0.615573 0.729015 0.576269
O O4 0.685390 0.705027 0.293780
O O5 0.212614 0.453181 0.713532
O O6 0.415435 0.537200 0.791692
O O7 0.500880 0.455795 0.643541
O O8 0.413998 0.455726 0.943377
O O9 0.489360 0.124410 0.577788
O O10 0.317815 0.801331 0.535779
O O11 0.232013 0.896012 0.489542
O O12 0.409158 0.875405 0.722645
#
# Coordination Sequence:
#
# PCOD9431953 Si02
#       7
#     8   8   8   4   8   8   4
#     4  10  22  38  58  83 117 156 202 253 311 371
#     4  10  22  39  61  90 124 160 203 253 308 371
#     4  10  22  40  62  90 124 160 204 256 312 374
#     4  10  22  40  62  88 120 162 210 260 310 376
#     4  10  22  39  60  87 119 156 204 253 307 368
#     4  10  22  38  58  86 117 155 201 250 303 365
#     4  10  22  38  56  82 118 156 198 254 312 370
#
# _framework density 25.120546999999998
#
# number of rings (size 3 to 8) (size 9 to 14) (size 15 to 20)
#    0.000    2.000    0.000    2.000    0.000   16.000 
#    0.000    0.000    0.000    0.000    0.000    0.000 
#    0.000    0.000    0.000    0.000    0.000    0.000 
#
# Total GULP energy -268043.275420 kJ/mol
# GULP energy per Si atom -5584.234905 kJ/mol
# Density = 2.506337 g / cm^3
# Si number density = 25.120547 Si / 1000 Ang^3
#
#
#
# Elastic Constant Matrix: (Units=GPa)
#
#
# Indices 1 2 3 4 5 6 
#
# 1 74.3055 1.9075 19.5763 0.0000 0.0000 0.0000
# 2 1.9075 63.8057 -1.8768 0.0000 0.0000 0.0000
# 3 19.5763 -1.8768 45.3999 0.0000 0.0000 0.0000
# 4 0.0000 0.0000 0.0000 10.9726 0.0000 0.0000
# 5 0.0000 0.0000 0.0000 0.0000 20.6512 0.0000
# 6 0.0000 0.0000 0.0000 0.0000 0.0000 47.0183
#
#
#
# Elastic Compliance Matrix: (Units=1/GPa)
#
#
# Indices 1 2 3 4 5 6 
#
# 1 0.015209 -0.000648 -0.006585 0.000000 0.000000 0.000000
# 2 -0.000648 0.015719 0.000929 0.000000 0.000000 0.000000
# 3 -0.006585 0.000929 0.024904 0.000000 0.000000 0.000000
# 4 0.000000 0.000000 0.000000 0.091136 0.000000 0.000000
# 5 0.000000 0.000000 0.000000 0.000000 0.048423 0.000000
# 6 0.000000 0.000000 0.000000 0.000000 0.000000 0.021268
#
#
# Mechanical properties :
#
#
# Convention : Reuss Voigt Hill
#
# Bulk Modulus (GPa) = 23.13472 24.74721 23.94097
# Shear Modulus (GPa) = 20.51894 26.65535 23.58714
#
# Velocity S-wave (km/s) = 2.86110 3.26098 3.06757
# Velocity P-wave (km/s) = 4.48821 4.90423 4.70082
#
# Compressibility (1/GPa) = 0.04322507
#
# Stress axis : x y z
#
# Youngs Moduli (GPa) = 65.74841 63.61601 40.15358
#
# Poissons Ratio (x) = 0.04125 0.26442
# Poissons Ratio (y) = 0.04263 -0.03732
# Poissons Ratio (z) = 0.43296 -0.05913
#
# Static dielectric constant tensor:
#      x y z
#    x 2.048980 0.000000 0.000000 
#    y 0.000000 2.016040 0.000000 
#    z 0.000000 0.000000 1.923770 
# 
# From -- ./inp_files/2258.got.cif
#   From: 2010.05.17/outbox.cif.g08.bks.cpg/sg56_2_cif.got.tgz:2258.got - 2010.06.03 13:42:01.
