data_PCOD9431047
_publ_section_title
;
Structure prediction by ZEFSAII (Michael W. Deem and Ramdas Pophale) SiO2 
 PCOD9431047
Probable space group: P C C N
;
_chemical_formula_sum "Si O2"
_cell_formula_units_Z 48
_cell_length_a 9.653309
_cell_length_b 16.790740
_cell_length_c 15.255105
_cell_angle_alpha 90.000000
_cell_angle_beta 90.000000
_cell_angle_gamma 90.000000
_cell_volume 2472.642024
_symmetry_space_group_name_H-M "P C C N"
_symmetry_group_IT_number 56
_symmetry_cell_setting 'orthorhombic'
loop_
_space_group_symop_operation_xyz
x,y,z
1/2-x,1/2-y,z
1/2+x,-y,1/2-z
-x,1/2+y,1/2-z
-x,-y,-z
1/2+x,1/2+y,-z
1/2-x,y,1/2+z
x,1/2-y,1/2+z
loop_
_atom_site_type_symbol
_atom_site_label
_atom_site_fract_x
_atom_site_fract_y
_atom_site_fract_z
Si Si1 0.766988 0.965096 0.849612
Si Si2 0.283485 0.163435 0.875361
Si Si3 0.977339 0.838668 0.786122
Si Si4 0.428853 0.162354 0.214231
Si Si5 0.337406 0.497899 0.474519
Si Si6 0.225665 0.904865 0.300324
O O1 0.903556 0.912310 0.834734
O O2 0.642045 0.901175 0.849449
O O3 0.749853 0.022472 0.766726
O O4 0.753453 0.013404 0.938903
O O5 0.250000 0.250000 0.915834
O O6 0.422339 0.160794 0.814672
O O7 0.161706 0.154611 0.802734
O O8 0.294963 0.089869 0.940031
O O9 0.924724 0.752942 0.819012
O O10 0.139964 0.849644 0.796119
O O11 0.586972 0.139629 0.229177
O O12 0.500000 0.500000 0.500000
O O13 0.302916 0.558537 0.396165
#
# Coordination Sequence:
#
# PCOD9431047 Si02
#       6
#     8   8   8   8   8   8
#     4  11  22  38  65  87 120 163 211 248 309 375
#     4   9  20  39  64  91 123 162 213 256 310 375
#     4  10  21  38  63  90 121 161 205 253 317 365
#     4  10  20  40  63  87 121 166 201 253 311 372
#     4  12  23  38  64  94 121 165 211 255 315 371
#     4  12  22  40  63  90 129 158 205 264 312 367
#
# _framework density 19.412434999999999
#
# number of rings (size 3 to 8) (size 9 to 14) (size 15 to 20)
#    0.000    1.333    5.000    4.000    0.000    2.000 
#    0.000    0.000    0.000    2.000    0.000    0.000 
#    0.000    0.000    0.000    0.000    0.000    0.000 
#
# Total GULP energy -267921.275329 kJ/mol
# GULP energy per Si atom -5581.693236 kJ/mol
# Density = 1.936825 g / cm^3
# Si number density = 19.412435 Si / 1000 Ang^3
#
#
#
# Elastic Constant Matrix: (Units=GPa)
#
#
# Indices 1 2 3 4 5 6 
#
# 1 102.7420 10.9921 10.8422 0.0000 0.0000 0.0000
# 2 10.9921 58.8736 16.5102 0.0000 0.0000 0.0000
# 3 10.8422 16.5102 75.6297 0.0000 0.0000 0.0000
# 4 0.0000 0.0000 0.0000 11.1092 0.0000 0.0000
# 5 0.0000 0.0000 0.0000 0.0000 14.3135 0.0000
# 6 0.0000 0.0000 0.0000 0.0000 0.0000 -274.2633
#
#
#
# Elastic Compliance Matrix: (Units=1/GPa)
#
#
# Indices 1 2 3 4 5 6 
#
# 1 0.010016 -0.001563 -0.001095 0.000000 0.000000 0.000000
# 2 -0.001563 0.018337 -0.003779 0.000000 0.000000 0.000000
# 3 -0.001095 -0.003779 0.014204 0.000000 0.000000 0.000000
# 4 0.000000 0.000000 0.000000 0.090015 0.000000 0.000000
# 5 0.000000 0.000000 0.000000 0.000000 0.069864 0.000000
# 6 0.000000 0.000000 0.000000 0.000000 0.000000 -0.003646
#
#
# Mechanical properties :
#
#
# Convention : Reuss Voigt Hill
#
# Bulk Modulus (GPa) = 33.68835 34.88158 34.28496
# Shear Modulus (GPa) = 22.56742 -36.50806 -6.97032
#
# Velocity S-wave (km/s) = 3.41328 -4.34135 -1.89696
# Velocity P-wave (km/s) = 5.73809 2.66873 3.59190
#
# Compressibility (1/GPa) = 0.02968386
#
# Stress axis : x y z
#
# Youngs Moduli (GPa) = 99.84165 54.53419 70.40164
#
# Poissons Ratio (x) = 0.08524 0.07706
# Poissons Ratio (y) = 0.15606 0.26605
# Poissons Ratio (z) = 0.10929 0.20608
#
# Static dielectric constant tensor:
#      x y z
#    x 1.686190 0.000000 0.000000 
#    y 0.000000 1.717030 0.000000 
#    z 0.000000 0.000000 1.710710 
# 
# From -- ./inp_files/10641.got.cif
#   From: 2010.05.17/outbox.cif.g08.bks.cpg/sg56_6_cif.got.tgz:10641.got - 2010.06.03 13:42:01.
