data_PCOD9431439
_publ_section_title
;
Structure prediction by ZEFSAII (Michael W. Deem and Ramdas Pophale) SiO2 
 PCOD9431439
Probable space group: P C C N
;
_chemical_formula_sum "Si O2"
_cell_formula_units_Z 48
_cell_length_a 7.731115
_cell_length_b 8.573576
_cell_length_c 32.716145
_cell_angle_alpha 90.000000
_cell_angle_beta 90.000000
_cell_angle_gamma 90.000000
_cell_volume 2168.534120
_symmetry_space_group_name_H-M "P C C N"
_symmetry_group_IT_number 56
_symmetry_cell_setting 'orthorhombic'
loop_
_space_group_symop_operation_xyz
x,y,z
1/2-x,1/2-y,z
1/2+x,-y,1/2-z
-x,1/2+y,1/2-z
-x,-y,-z
1/2+x,1/2+y,-z
1/2-x,y,1/2+z
x,1/2-y,1/2+z
loop_
_atom_site_type_symbol
_atom_site_label
_atom_site_fract_x
_atom_site_fract_y
_atom_site_fract_z
Si Si1 0.324166 0.581645 0.616178
Si Si2 0.671083 0.930026 0.553229
Si Si3 0.277413 0.424437 0.695628
Si Si4 0.221065 0.431297 0.858172
Si Si5 0.825320 0.418685 0.223249
Si Si6 0.281728 0.061385 0.534083
O O1 0.250000 0.750000 0.606112
O O2 0.223007 0.526711 0.656721
O O3 0.518476 0.567703 0.631671
O O4 0.320837 0.489169 0.573976
O O5 0.750000 0.750000 0.556340
O O6 0.694156 0.988225 0.599511
O O7 0.765629 0.993338 0.512150
O O8 0.471124 0.979382 0.543057
O O9 0.250000 0.250000 0.681777
O O10 0.183805 0.472362 0.737196
O O11 0.477444 0.425612 0.709024
O O12 0.250000 0.250000 0.849431
O O13 0.272944 0.524543 0.817665
O O14 0.750000 0.250000 0.234820
O O15 0.250000 0.250000 0.532351
#
# Coordination Sequence:
#
# PCOD9431439 Si02
#       6
#     8   8   8   8   8   8
#     4  11  23  38  60  90 121 158 202 247 301 362
#     4   9  19  38  62  87 121 162 202 249 307 366
#     4  11  24  41  62  88 119 155 197 246 299 360
#     4  10  22  39  59  84 117 158 200 244 295 355
#     4  11  24  40  61  89 118 153 197 245 300 358
#     4  10  21  38  62  91 122 158 203 254 306 364
#
# _framework density 22.134768999999999
#
# number of rings (size 3 to 8) (size 9 to 14) (size 15 to 20)
#    0.000    1.667    0.000    4.500    0.000   11.333 
#    0.000    0.833    0.000    0.000    0.000    0.000 
#    0.000    0.000    0.000    0.000    0.000    0.000 
#
# Total GULP energy -267215.577288 kJ/mol
# GULP energy per Si atom -5566.991194 kJ/mol
# Density = 2.208439 g / cm^3
# Si number density = 22.134769 Si / 1000 Ang^3
#
#
#
# Elastic Constant Matrix: (Units=GPa)
#
#
# Indices 1 2 3 4 5 6 
#
# 1 24.6973 -7.0846 -19.0263 0.0000 0.0000 0.0000
# 2 -7.0846 42.7590 9.2157 0.0000 0.0000 0.0000
# 3 -19.0263 9.2157 99.7784 0.0000 0.0000 0.0000
# 4 0.0000 0.0000 0.0000 538.1314 0.0000 0.0000
# 5 0.0000 0.0000 0.0000 0.0000 4.9876 0.0000
# 6 0.0000 0.0000 0.0000 0.0000 0.0000 20.1439
#
#
#
# Elastic Compliance Matrix: (Units=1/GPa)
#
#
# Indices 1 2 3 4 5 6 
#
# 1 0.049039 0.006234 0.008775 0.000000 0.000000 0.000000
# 2 0.006234 0.024654 -0.001088 0.000000 0.000000 0.000000
# 3 0.008775 -0.001088 0.011796 0.000000 0.000000 0.000000
# 4 0.000000 0.000000 0.000000 0.001858 0.000000 0.000000
# 5 0.000000 0.000000 0.000000 0.000000 0.200498 0.000000
# 6 0.000000 0.000000 0.000000 0.000000 0.000000 0.049643
#
#
# Mechanical properties :
#
#
# Convention : Reuss Voigt Hill
#
# Bulk Modulus (GPa) = 8.82377 14.82715 11.82546
# Shear Modulus (GPa) = 14.39164 124.92791 69.65977
#
# Velocity S-wave (km/s) = 2.55263 7.52078 5.61597
# Velocity P-wave (km/s) = 3.56131 9.06253 6.88521
#
# Compressibility (1/GPa) = 0.11333024
#
# Stress axis : x y z
#
# Youngs Moduli (GPa) = 20.39204 40.56082 84.77427
#
# Poissons Ratio (x) = -0.25285 -0.74391
# Poissons Ratio (y) = -0.12712 0.09227
# Poissons Ratio (z) = -0.17894 0.04415
#
# Static dielectric constant tensor:
#      x y z
#    x 1.906370 0.000000 0.000000 
#    y 0.000000 1.872180 0.000000 
#    z 0.000000 0.000000 1.838420 
# 
# From -- ./inp_files/23191.got.cif
#   From: 2010.05.17/outbox.cif.g08.bks.cpg/sg56_12_cif.got.tgz:23191.got - 2010.06.03 13:42:01.
