data_PCOD9431172
_publ_section_title
;
Structure prediction by ZEFSAII (Michael W. Deem and Ramdas Pophale) SiO2 
 PCOD9431172
Probable space group: P C C N
;
_chemical_formula_sum "Si O2"
_cell_formula_units_Z 48
_cell_length_a 10.911159
_cell_length_b 8.008867
_cell_length_c 24.816022
_cell_angle_alpha 90.000000
_cell_angle_beta 90.000000
_cell_angle_gamma 90.000000
_cell_volume 2168.573426
_symmetry_space_group_name_H-M "P C C N"
_symmetry_group_IT_number 56
_symmetry_cell_setting 'orthorhombic'
loop_
_space_group_symop_operation_xyz
x,y,z
1/2-x,1/2-y,z
1/2+x,-y,1/2-z
-x,1/2+y,1/2-z
-x,-y,-z
1/2+x,1/2+y,-z
1/2-x,y,1/2+z
x,1/2-y,1/2+z
loop_
_atom_site_type_symbol
_atom_site_label
_atom_site_fract_x
_atom_site_fract_y
_atom_site_fract_z
Si Si1 0.718718 0.951310 0.195118
Si Si2 0.301306 0.065982 0.683947
Si Si3 0.947790 0.510248 0.624368
Si Si4 0.567266 0.596752 0.599084
Si Si5 0.301334 0.936210 0.078619
Si Si6 0.212876 0.945369 0.969165
O O1 0.750000 0.750000 0.194329
O O2 0.697441 0.008938 0.256091
O O3 0.835481 0.029199 0.164861
O O4 0.601315 0.983046 0.157063
O O5 0.250000 0.250000 0.691426
O O6 0.431055 0.053887 0.653449
O O7 0.211547 0.989608 0.640000
O O8 0.953410 0.709166 0.613649
O O9 0.911764 0.445960 0.565040
O O10 0.445401 0.543616 0.567705
O O11 0.687161 0.553735 0.564007
O O12 0.250000 0.750000 0.079488
O O13 0.221064 0.013871 0.030213
O O14 0.250000 0.750000 0.970017
#
# Coordination Sequence:
#
# PCOD9431172 Si02
#       6
#     8   8   8   8   8   8
#     4   8  19  39  62  88 119 161 205 252 303 373
#     4  11  24  39  60  95 127 159 208 258 306 371
#     4  10  21  42  65  86 123 170 205 248 324 380
#     4  10  20  42  67  86 123 165 208 252 315 378
#     4  11  23  41  59  94 123 161 207 256 314 373
#     4  10  23  40  62  92 122 158 211 261 309 367
#
# _framework density 22.134366
#
# number of rings (size 3 to 8) (size 9 to 14) (size 15 to 20)
#    0.000    2.000    1.667    2.000    4.667    2.000 
#    0.000    3.333    0.000    0.000    0.000    0.000 
#    0.000    0.000    0.000    0.000    0.000    0.000 
#
# Total GULP energy -267533.595933 kJ/mol
# GULP energy per Si atom -5573.616582 kJ/mol
# Density = 2.208399 g / cm^3
# Si number density = 22.134366 Si / 1000 Ang^3
#
#
#
# Elastic Constant Matrix: (Units=GPa)
#
#
# Indices 1 2 3 4 5 6 
#
# 1 82.4834 4.2490 -2.2750 0.0000 0.0000 0.0000
# 2 4.2490 21.3249 4.7946 0.0000 0.0000 0.0000
# 3 -2.2750 4.7946 133.7563 0.0000 0.0000 0.0000
# 4 0.0000 0.0000 0.0000 29.4008 0.0000 0.0000
# 5 0.0000 0.0000 0.0000 0.0000 22.5011 0.0000
# 6 0.0000 0.0000 0.0000 0.0000 0.0000 16.3673
#
#
#
# Elastic Compliance Matrix: (Units=1/GPa)
#
#
# Indices 1 2 3 4 5 6 
#
# 1 0.012261 -0.002510 0.000299 0.000000 0.000000 0.000000
# 2 -0.002510 0.047788 -0.001756 0.000000 0.000000 0.000000
# 3 0.000299 -0.001756 0.007544 0.000000 0.000000 0.000000
# 4 0.000000 0.000000 0.000000 0.034013 0.000000 0.000000
# 5 0.000000 0.000000 0.000000 0.000000 0.044442 0.000000
# 6 0.000000 0.000000 0.000000 0.000000 0.000000 0.061098
#
#
# Mechanical properties :
#
#
# Convention : Reuss Voigt Hill
#
# Bulk Modulus (GPa) = 16.76187 27.90019 22.33103
# Shear Modulus (GPa) = 21.27955 29.04024 25.15989
#
# Velocity S-wave (km/s) = 3.10398 3.62608 3.37514
# Velocity P-wave (km/s) = 4.52056 5.49214 5.02986
#
# Compressibility (1/GPa) = 0.05965922
#
# Stress axis : x y z
#
# Youngs Moduli (GPa) = 81.55809 20.92557 132.55047
#
# Poissons Ratio (x) = 0.05253 -0.03957
# Poissons Ratio (y) = 0.20473 0.23272
# Poissons Ratio (z) = -0.02435 0.03674
#
# Static dielectric constant tensor:
#      x y z
#    x 1.863320 0.000000 0.000000 
#    y 0.000000 1.854860 0.000000 
#    z 0.000000 0.000000 1.913900 
# 
# From -- ./inp_files/20485.got.cif
#   From: 2010.05.17/outbox.cif.g08.bks.cpg/sg56_11_cif.got.tgz:20485.got - 2010.06.03 13:42:01.
