data_PCOD9431426
_publ_section_title
;
Structure prediction by ZEFSAII (Michael W. Deem and Ramdas Pophale) SiO2 
 PCOD9431426
Probable space group: P C C N
;
_chemical_formula_sum "Si O2"
_cell_formula_units_Z 32
_cell_length_a 5.239184
_cell_length_b 22.408030
_cell_length_c 9.442816
_cell_angle_alpha 90.000000
_cell_angle_beta 90.000000
_cell_angle_gamma 90.000000
_cell_volume 1108.584637
_symmetry_space_group_name_H-M "P C C N"
_symmetry_group_IT_number 56
_symmetry_cell_setting 'orthorhombic'
loop_
_space_group_symop_operation_xyz
x,y,z
1/2-x,1/2-y,z
1/2+x,-y,1/2-z
-x,1/2+y,1/2-z
-x,-y,-z
1/2+x,1/2+y,-z
1/2-x,y,1/2+z
x,1/2-y,1/2+z
loop_
_atom_site_type_symbol
_atom_site_label
_atom_site_fract_x
_atom_site_fract_y
_atom_site_fract_z
Si Si1 0.749426 0.685239 0.370520
Si Si2 0.252559 0.812067 0.679764
Si Si3 0.667897 0.436695 0.445185
Si Si4 0.072276 0.440849 0.660680
O O1 0.750000 0.750000 0.452236
O O2 0.489481 0.687244 0.284075
O O3 0.774414 0.614922 0.412806
O O4 0.992834 0.687734 0.267885
O O5 0.250000 0.750000 0.595814
O O6 0.268555 0.870527 0.588267
O O7 0.798683 0.498190 0.389938
O O8 0.430635 0.436820 0.331528
O O9 0.776021 0.439158 0.607531
#
# Coordination Sequence:
#
# PCOD9431426 Si02
#       4
#     8   8   8   8
#     4   9  18  36  61  91 126 168 215 266 325 388
#     4   9  18  36  61  90 127 168 214 266 322 387
#     4  10  21  38  61  95 132 175 224 276 337 400
#     4  10  21  38  63  96 135 177 225 279 338 404
#
# _framework density 28.865635999999999
#
# number of rings (size 3 to 8) (size 9 to 14) (size 15 to 20)
#    0.000    2.500    0.000    1.500    0.000    1.000 
#    0.000   28.750    0.000    0.000    0.000   14.000 
#    0.000    0.000    0.000    0.000    0.000    0.000 
#
# Total GULP energy -178371.944768 kJ/mol
# GULP energy per Si atom -5574.123274 kJ/mol
# Density = 2.879994 g / cm^3
# Si number density = 28.865636 Si / 1000 Ang^3
#
#
#
# Elastic Constant Matrix: (Units=GPa)
#
#
# Indices 1 2 3 4 5 6 
#
# 1 120.9129 -2.2352 35.5864 0.0000 0.0000 0.0000
# 2 -2.2352 327.5482 42.9617 0.0000 0.0000 0.0000
# 3 35.5864 42.9617 114.0410 0.0000 0.0000 0.0000
# 4 0.0000 0.0000 0.0000 -103.6186 0.0000 0.0000
# 5 0.0000 0.0000 0.0000 0.0000 23.1525 0.0000
# 6 0.0000 0.0000 0.0000 0.0000 0.0000 46.1036
#
#
#
# Elastic Compliance Matrix: (Units=1/GPa)
#
#
# Indices 1 2 3 4 5 6 
#
# 1 0.009172 0.000461 -0.003036 0.000000 0.000000 0.000000
# 2 0.000461 0.003235 -0.001362 0.000000 0.000000 0.000000
# 3 -0.003036 -0.001362 0.010229 0.000000 0.000000 0.000000
# 4 0.000000 0.000000 0.000000 -0.009651 0.000000 0.000000
# 5 0.000000 0.000000 0.000000 0.000000 0.043192 0.000000
# 6 0.000000 0.000000 0.000000 0.000000 0.000000 0.021690
#
#
# Mechanical properties :
#
#
# Convention : Reuss Voigt Hill
#
# Bulk Modulus (GPa) = 67.74301 79.45864 73.60083
# Shear Modulus (GPa) = 55.14901 25.54012 40.34456
#
# Velocity S-wave (km/s) = 4.37572 2.97777 3.74260
# Velocity P-wave (km/s) = 7.00347 6.27771 6.65050
#
# Compressibility (1/GPa) = 0.01476167
#
# Stress axis : x y z
#
# Youngs Moduli (GPa) = 109.02247 309.13568 97.75789
#
# Poissons Ratio (x) = -0.14244 0.29678
# Poissons Ratio (y) = -0.05024 0.13319
# Poissons Ratio (z) = 0.33097 0.42117
#
# Static dielectric constant tensor:
#      x y z
#    x 2.342330 0.000000 0.000000 
#    y 0.000000 2.341130 0.000000 
#    z 0.000000 0.000000 2.191580 
# 
# From -- ./inp_files/5500.got.cif
#   From: 2010.05.17/outbox.cif.g08.bks.cpg/sg56_3_cif.got.tgz:5500.got - 2010.06.03 13:42:01.
