data_PCOD9431159
_publ_section_title
;
Structure prediction by ZEFSAII (Michael W. Deem and Ramdas Pophale) SiO2 
 PCOD9431159
Probable space group: P C C N
;
_chemical_formula_sum "Si O2"
_cell_formula_units_Z 60
_cell_length_a 8.260131
_cell_length_b 24.044132
_cell_length_c 13.864243
_cell_angle_alpha 90.000000
_cell_angle_beta 90.000000
_cell_angle_gamma 90.000000
_cell_volume 2753.545139
_symmetry_space_group_name_H-M "P C C N"
_symmetry_group_IT_number 56
_symmetry_cell_setting 'orthorhombic'
loop_
_space_group_symop_operation_xyz
x,y,z
1/2-x,1/2-y,z
1/2+x,-y,1/2-z
-x,1/2+y,1/2-z
-x,-y,-z
1/2+x,1/2+y,-z
1/2-x,y,1/2+z
x,1/2-y,1/2+z
loop_
_atom_site_type_symbol
_atom_site_label
_atom_site_fract_x
_atom_site_fract_y
_atom_site_fract_z
Si Si1 0.709452 0.122592 0.852523
Si Si2 0.502800 0.340515 0.535493
Si Si3 0.240924 0.432125 0.049676
Si Si4 0.740007 0.016373 0.612671
Si Si5 0.750000 0.750000 0.028445
Si Si6 0.528905 0.841630 0.540791
Si Si7 0.391822 0.991106 0.693145
Si Si8 0.821091 0.146764 0.133631
O O1 0.769048 0.058650 0.837530
O O2 0.657032 0.144653 0.747724
O O3 0.576027 0.139366 0.932021
O O4 0.875893 0.148572 0.892310
O O5 0.412273 0.395058 0.574158
O O6 0.371907 0.291546 0.527075
O O7 0.652550 0.325235 0.603125
O O8 0.357148 0.394011 0.982670
O O9 0.327467 0.452294 0.145990
O O10 0.211819 0.486576 0.985466
O O11 0.878302 0.008054 0.692141
O O12 0.700529 0.081702 0.600239
O O13 0.574951 0.988121 0.654440
O O14 0.864940 0.792352 0.083853
O O15 0.459490 0.827760 0.433743
#
# Coordination Sequence:
#
# PCOD9431159 Si02
#       8
#     8   8   8   8   4   8   8   8
#     4  10  22  39  62  90 126 154 199 238 302 358
#     4  10  24  41  62  90 113 162 197 259 302 355
#     4  11  21  35  61  84 124 162 204 236 293 347
#     4  11  23  36  57  92 128 167 200 237 283 355
#     4  10  24  46  66  86 116 146 210 258 316 352
#     4  10  20  42  63  85 116 157 196 258 299 356
#     4  11  23  36  57  92 128 167 200 237 283 355
#     4  10  22  39  62  90 126 154 199 238 302 358
#
# _framework density 21.790091
#
# number of rings (size 3 to 8) (size 9 to 14) (size 15 to 20)
#    0.000    1.600    2.667    2.000    7.467    3.200 
#    0.000    8.000    0.000    0.000    0.000    0.000 
#    0.000    0.000    0.000    0.000    0.000    0.000 
#
# Total GULP energy -335036.818255 kJ/mol
# GULP energy per Si atom -5583.946971 kJ/mol
# Density = 2.174050 g / cm^3
# Si number density = 21.790091 Si / 1000 Ang^3
#
#
#
# Elastic Constant Matrix: (Units=GPa)
#
#
# Indices 1 2 3 4 5 6 
#
# 1 71.6087 18.5355 -2.2444 0.0000 0.0000 0.0000
# 2 18.5355 42.2390 12.6476 0.0000 0.0000 0.0000
# 3 -2.2444 12.6476 50.2639 0.0000 0.0000 0.0000
# 4 0.0000 0.0000 0.0000 3.7200 0.0000 0.0000
# 5 0.0000 0.0000 0.0000 0.0000 15.8163 0.0000
# 6 0.0000 0.0000 0.0000 0.0000 0.0000 35.3918
#
#
#
# Elastic Compliance Matrix: (Units=1/GPa)
#
#
# Indices 1 2 3 4 5 6 
#
# 1 0.016086 -0.007866 0.002698 0.000000 0.000000 0.000000
# 2 -0.007866 0.029451 -0.007762 0.000000 0.000000 0.000000
# 3 0.002698 -0.007762 0.021969 0.000000 0.000000 0.000000
# 4 0.000000 0.000000 0.000000 0.268817 0.000000 0.000000
# 5 0.000000 0.000000 0.000000 0.000000 0.063226 0.000000
# 6 0.000000 0.000000 0.000000 0.000000 0.000000 0.028255
#
#
# Mechanical properties :
#
#
# Convention : Reuss Voigt Hill
#
# Bulk Modulus (GPa) = 24.01325 24.66544 24.33935
# Shear Modulus (GPa) = 10.69415 19.99716 15.34565
#
# Velocity S-wave (km/s) = 2.21776 3.03267 2.65665
# Velocity P-wave (km/s) = 4.19549 4.85870 4.53922
#
# Compressibility (1/GPa) = 0.04164368
#
# Stress axis : x y z
#
# Youngs Moduli (GPa) = 62.16767 33.95478 45.51967
#
# Poissons Ratio (x) = 0.26710 -0.12280
# Poissons Ratio (y) = 0.48904 0.35332
# Poissons Ratio (z) = -0.16771 0.26355
#
# Static dielectric constant tensor:
#      x y z
#    x 1.825140 0.000000 0.000000 
#    y 0.000000 1.839030 0.000000 
#    z 0.000000 0.000000 1.759800 
# 
# From -- ./inp_files/11006.got.cif
#   From: 2010.05.17/outbox.cif.g08.bks.cpg/sg56_6_cif.got.tgz:11006.got - 2010.06.03 13:42:01.
