data_PCOD9431814
_publ_section_title
;
Structure prediction by ZEFSAII (Michael W. Deem and Ramdas Pophale) SiO2 
 PCOD9431814
Probable space group: P C C N
;
_chemical_formula_sum "Si O2"
_cell_formula_units_Z 64
_cell_length_a 18.628720
_cell_length_b 6.393097
_cell_length_c 26.920809
_cell_angle_alpha 90.000000
_cell_angle_beta 90.000000
_cell_angle_gamma 90.000000
_cell_volume 3206.139507
_symmetry_space_group_name_H-M "P C C N"
_symmetry_group_IT_number 56
_symmetry_cell_setting 'orthorhombic'
loop_
_space_group_symop_operation_xyz
x,y,z
1/2-x,1/2-y,z
1/2+x,-y,1/2-z
-x,1/2+y,1/2-z
-x,-y,-z
1/2+x,1/2+y,-z
1/2-x,y,1/2+z
x,1/2-y,1/2+z
loop_
_atom_site_type_symbol
_atom_site_label
_atom_site_fract_x
_atom_site_fract_y
_atom_site_fract_z
Si Si1 0.326351 0.263832 0.330102
Si Si2 0.955520 0.831811 0.813835
Si Si3 0.314431 0.586581 0.743449
Si Si4 0.083390 0.919301 0.279737
Si Si5 0.821918 0.622331 0.863737
Si Si6 0.074173 0.570090 0.058422
Si Si7 0.030542 0.694610 0.469042
Si Si8 0.964725 0.617893 0.614933
O O1 0.250000 0.250000 0.356088
O O2 0.350612 0.491278 0.311281
O O3 0.390648 0.206146 0.366004
O O4 0.317293 0.102086 0.283435
O O5 0.886709 0.774422 0.846475
O O6 0.013524 0.645732 0.810729
O O7 0.934098 0.896414 0.758559
O O8 0.992919 0.031022 0.837888
O O9 0.250000 0.750000 0.751617
O O10 0.387916 0.716140 0.750771
O O11 0.306566 0.502862 0.687346
O O12 0.750000 0.750000 0.877764
O O13 0.857142 0.481636 0.907400
O O14 0.032464 0.356545 0.044859
O O15 0.016591 0.716831 0.087485
O O16 0.085640 0.686305 0.005504
O O17 0.054171 0.583531 0.418756
O O18 0.000000 0.500000 0.500000
#
# Coordination Sequence:
#
# PCOD9431814 Si02
#       8
#     8   8   8   8   8   8   8   8
#     4  12  24  40  59  92 132 179 219 261 320 385
#     4  12  22  38  60  93 126 168 223 270 316 375
#     4  12  23  42  60  87 134 187 222 263 319 382
#     4  12  23  38  59  85 133 174 225 272 307 372
#     4  12  24  40  62  96 134 174 219 266 327 398
#     4  10  21  42  70  98 126 164 213 276 335 393
#     4   9  20  41  72  98 122 154 209 271 339 397
#     4  11  22  39  67 100 123 165 221 272 323 390
#
# _framework density 19.961701000000001
#
# number of rings (size 3 to 8) (size 9 to 14) (size 15 to 20)
#    0.000    0.750    5.000    4.125    0.000    0.000 
#    0.000    0.000    0.000    8.250    0.000    0.000 
#    0.000    0.000    0.000    0.000    0.000    0.000 
#
# Total GULP energy -357329.647740 kJ/mol
# GULP energy per Si atom -5583.275746 kJ/mol
# Density = 1.991627 g / cm^3
# Si number density = 19.961701 Si / 1000 Ang^3
#
#
#
# Elastic Constant Matrix: (Units=GPa)
#
#
# Indices 1 2 3 4 5 6 
#
# 1 126.3368 27.2842 21.4245 0.0000 0.0000 0.0000
# 2 27.2842 64.6061 7.8749 0.0000 0.0000 0.0000
# 3 21.4245 7.8749 48.6082 0.0000 0.0000 0.0000
# 4 0.0000 0.0000 0.0000 37.4046 0.0000 0.0000
# 5 0.0000 0.0000 0.0000 0.0000 37.9183 0.0000
# 6 0.0000 0.0000 0.0000 0.0000 0.0000 40.7769
#
#
#
# Elastic Compliance Matrix: (Units=1/GPa)
#
#
# Indices 1 2 3 4 5 6 
#
# 1 0.009264 -0.003484 -0.003519 0.000000 0.000000 0.000000
# 2 -0.003484 0.017100 -0.001235 0.000000 0.000000 0.000000
# 3 -0.003519 -0.001235 0.022324 0.000000 0.000000 0.000000
# 4 0.000000 0.000000 0.000000 0.026735 0.000000 0.000000
# 5 0.000000 0.000000 0.000000 0.000000 0.026373 0.000000
# 6 0.000000 0.000000 0.000000 0.000000 0.000000 0.024524
#
#
# Mechanical properties :
#
#
# Convention : Reuss Voigt Hill
#
# Bulk Modulus (GPa) = 31.04311 39.19092 35.11701
# Shear Modulus (GPa) = 32.56647 35.41777 33.99212
#
# Velocity S-wave (km/s) = 4.04350 4.21680 4.13106
# Velocity P-wave (km/s) = 6.11432 6.58667 6.35489
#
# Compressibility (1/GPa) = 0.03221327
#
# Stress axis : x y z
#
# Youngs Moduli (GPa) = 107.93946 58.47909 44.79528
#
# Poissons Ratio (x) = 0.20372 0.15764
# Poissons Ratio (y) = 0.37602 0.05532
# Poissons Ratio (z) = 0.37984 0.07222
#
# Static dielectric constant tensor:
#      x y z
#    x 1.710330 0.000000 0.000000 
#    y 0.000000 1.735650 0.000000 
#    z 0.000000 0.000000 1.726070 
# 
# From -- ./inp_files/23691.got.cif
#   From: 2010.05.17/outbox.cif.g08.bks.cpg/sg56_12_cif.got.tgz:23691.got - 2010.06.03 13:42:01.
