data_PCOD9431239
_publ_section_title
;
Structure prediction by ZEFSAII (Michael W. Deem and Ramdas Pophale) SiO2 
 PCOD9431239
Probable space group: P C C N
;
_chemical_formula_sum "Si O2"
_cell_formula_units_Z 48
_cell_length_a 19.975535
_cell_length_b 14.896881
_cell_length_c 8.535875
_cell_angle_alpha 90.000000
_cell_angle_beta 90.000000
_cell_angle_gamma 90.000000
_cell_volume 2540.047364
_symmetry_space_group_name_H-M "P C C N"
_symmetry_group_IT_number 56
_symmetry_cell_setting 'orthorhombic'
loop_
_space_group_symop_operation_xyz
x,y,z
1/2-x,1/2-y,z
1/2+x,-y,1/2-z
-x,1/2+y,1/2-z
-x,-y,-z
1/2+x,1/2+y,-z
1/2-x,y,1/2+z
x,1/2-y,1/2+z
loop_
_atom_site_type_symbol
_atom_site_label
_atom_site_fract_x
_atom_site_fract_y
_atom_site_fract_z
Si Si1 0.681757 0.772218 0.249562
Si Si2 0.803557 0.552559 0.465665
Si Si3 0.962125 0.799661 0.681833
Si Si4 0.833471 0.575294 0.832728
Si Si5 0.484435 0.384885 0.640399
Si Si6 0.447954 0.480819 0.140171
O O1 0.750000 0.750000 0.159138
O O2 0.689924 0.856334 0.363584
O O3 0.616520 0.786218 0.146894
O O4 0.671339 0.682495 0.347862
O O5 0.815519 0.558992 0.650634
O O6 0.725358 0.527826 0.432946
O O7 0.870576 0.501808 0.406355
O O8 0.983948 0.702184 0.743914
O O9 0.996797 0.841633 0.529747
O O10 0.960855 0.876733 0.814228
O O11 0.912470 0.562668 0.862506
O O12 0.534965 0.456793 0.711733
O O13 0.500000 0.500000 0.000000
#
# Coordination Sequence:
#
# PCOD9431239 Si02
#       6
#     8   8   8   8   8   8
#     4   8  18  28  47  68 110 142 178 208 263 328
#     4  10  21  34  47  77 106 150 187 226 274 339
#     4  10  22  35  54  84 110 150 191 230 276 338
#     4  10  21  30  50  73 110 145 184 225 277 328
#     4  11  22  37  58  79 118 150 191 234 279 335
#     4  11  21  39  56  78 116 152 194 235 279 331
#
# _framework density 18.897285
#
# number of rings (size 3 to 8) (size 9 to 14) (size 15 to 20)
#    0.000    2.000    1.667    1.500   18.667    3.333 
#    0.000    0.000    0.000    0.000    0.000    1.167 
#    0.000    0.000    0.000    0.000    0.000    0.000 
#
# Total GULP energy -267357.891471 kJ/mol
# GULP energy per Si atom -5569.956072 kJ/mol
# Density = 1.885427 g / cm^3
# Si number density = 18.897285 Si / 1000 Ang^3
#
#
#
# Elastic Constant Matrix: (Units=GPa)
#
#
# Indices 1 2 3 4 5 6 
#
# 1 76.9066 27.1204 21.6879 0.0000 0.0000 0.0000
# 2 27.1204 44.3710 7.8573 0.0000 0.0000 0.0000
# 3 21.6879 7.8573 53.8417 0.0000 0.0000 0.0000
# 4 0.0000 0.0000 0.0000 22.1118 0.0000 0.0000
# 5 0.0000 0.0000 0.0000 0.0000 29.0494 0.0000
# 6 0.0000 0.0000 0.0000 0.0000 0.0000 27.5568
#
#
#
# Elastic Compliance Matrix: (Units=1/GPa)
#
#
# Indices 1 2 3 4 5 6 
#
# 1 0.018217 -0.010096 -0.005865 0.000000 0.000000 0.000000
# 2 -0.010096 0.028730 -0.000126 0.000000 0.000000 0.000000
# 3 -0.005865 -0.000126 0.020954 0.000000 0.000000 0.000000
# 4 0.000000 0.000000 0.000000 0.045225 0.000000 0.000000
# 5 0.000000 0.000000 0.000000 0.000000 0.034424 0.000000
# 6 0.000000 0.000000 0.000000 0.000000 0.000000 0.036289
#
#
# Mechanical properties :
#
#
# Convention : Reuss Voigt Hill
#
# Bulk Modulus (GPa) = 27.98937 32.05005 30.01971
# Shear Modulus (GPa) = 21.93746 23.64051 22.78898
#
# Velocity S-wave (km/s) = 3.41086 3.54079 3.47643
# Velocity P-wave (km/s) = 5.50958 5.80630 5.65989
#
# Compressibility (1/GPa) = 0.03572785
#
# Stress axis : x y z
#
# Youngs Moduli (GPa) = 54.89429 34.80638 47.72445
#
# Poissons Ratio (x) = 0.35140 0.27988
# Poissons Ratio (y) = 0.55421 0.00601
# Poissons Ratio (z) = 0.32193 0.00439
#
# Static dielectric constant tensor:
#      x y z
#    x 1.752570 0.000000 0.000000 
#    y 0.000000 1.658900 0.000000 
#    z 0.000000 0.000000 1.714170 
# 
# From -- ./inp_files/4057.got.cif
#   From: 2010.05.17/outbox.cif.g08.bks.cpg/sg56_3_cif.got.tgz:4057.got - 2010.06.03 13:42:01.
