data_PCOD9431816
_publ_section_title
;
Structure prediction by ZEFSAII (Michael W. Deem and Ramdas Pophale) SiO2 
 PCOD9431816
Probable space group: P C C N
;
_chemical_formula_sum "Si O2"
_cell_formula_units_Z 64
_cell_length_a 29.259798
_cell_length_b 5.241677
_cell_length_c 18.001639
_cell_angle_alpha 90.000000
_cell_angle_beta 90.000000
_cell_angle_gamma 90.000000
_cell_volume 2760.918758
_symmetry_space_group_name_H-M "P C C N"
_symmetry_group_IT_number 56
_symmetry_cell_setting 'orthorhombic'
loop_
_space_group_symop_operation_xyz
x,y,z
1/2-x,1/2-y,z
1/2+x,-y,1/2-z
-x,1/2+y,1/2-z
-x,-y,-z
1/2+x,1/2+y,-z
1/2-x,y,1/2+z
x,1/2-y,1/2+z
loop_
_atom_site_type_symbol
_atom_site_label
_atom_site_fract_x
_atom_site_fract_y
_atom_site_fract_z
Si Si1 0.100050 0.371953 0.678713
Si Si2 0.201160 0.214977 0.810763
Si Si3 0.845490 0.037877 0.409563
Si Si4 0.362204 0.312037 0.446778
Si Si5 0.320213 0.699656 0.222075
Si Si6 0.084485 0.578265 0.530783
Si Si7 0.479005 0.137823 0.777752
Si Si8 0.537104 0.427599 0.561447
O O1 0.139686 0.189876 0.645824
O O2 0.126287 0.614860 0.714753
O O3 0.070835 0.413434 0.602543
O O4 0.069302 0.265743 0.744584
O O5 0.250000 0.250000 0.850020
O O6 0.161394 0.282915 0.868457
O O7 0.203437 0.443195 0.750227
O O8 0.191010 0.936589 0.776031
O O9 0.831391 0.953748 0.491559
O O10 0.811434 0.211096 0.362311
O O11 0.893563 0.180286 0.427321
O O12 0.412467 0.440684 0.441158
O O13 0.373431 0.047241 0.487373
O O14 0.048902 0.641512 0.466260
O O15 0.490907 0.892644 0.726229
O O16 0.480007 0.008745 0.858271
O O17 0.500000 0.500000 0.500000
#
# Coordination Sequence:
#
# PCOD9431816 Si02
#       8
#     8   8   8   8   8   8   8   8
#     4  10  21  42  71  96 138 183 241 294 356 428
#     4  12  27  46  73 108 149 186 234 300 366 445
#     4   9  20  42  73 102 135 182 240 294 351 436
#     4  10  24  43  72 105 138 196 241 302 370 439
#     4  11  23  44  75 103 138 184 236 289 361 431
#     4   9  21  39  71  97 136 182 241 293 362 419
#     4  12  30  42  62  96 142 187 240 299 363 418
#     4  11  25  42  65  97 141 188 246 303 359 433
#
# _framework density 23.180689999999998
#
# number of rings (size 3 to 8) (size 9 to 14) (size 15 to 20)
#    0.000    1.500    1.250    1.875   15.750    0.500 
#    0.000    0.625    5.500    0.000    0.000    0.000 
#    0.000    0.000    0.000    0.000    0.000    0.000 
#
# Total GULP energy -356480.153030 kJ/mol
# GULP energy per Si atom -5570.002391 kJ/mol
# Density = 2.312793 g / cm^3
# Si number density = 23.180690 Si / 1000 Ang^3
#
#
#
# Elastic Constant Matrix: (Units=GPa)
#
#
# Indices 1 2 3 4 5 6 
#
# 1 52.0417 6.6227 18.2780 0.0000 0.0000 0.0000
# 2 6.6227 85.5171 18.0160 0.0000 0.0000 0.0000
# 3 18.2780 18.0160 68.1894 0.0000 0.0000 0.0000
# 4 0.0000 0.0000 0.0000 26.8595 0.0000 0.0000
# 5 0.0000 0.0000 0.0000 0.0000 12.7420 0.0000
# 6 0.0000 0.0000 0.0000 0.0000 0.0000 13.4333
#
#
#
# Elastic Compliance Matrix: (Units=1/GPa)
#
#
# Indices 1 2 3 4 5 6 
#
# 1 0.021230 -0.000472 -0.005566 0.000000 0.000000 0.000000
# 2 -0.000472 0.012393 -0.003148 0.000000 0.000000 0.000000
# 3 -0.005566 -0.003148 0.016989 0.000000 0.000000 0.000000
# 4 0.000000 0.000000 0.000000 0.037231 0.000000 0.000000
# 5 0.000000 0.000000 0.000000 0.000000 0.078480 0.000000
# 6 0.000000 0.000000 0.000000 0.000000 0.000000 0.074442
#
#
# Mechanical properties :
#
#
# Convention : Reuss Voigt Hill
#
# Bulk Modulus (GPa) = 31.01636 32.39794 31.70715
# Shear Modulus (GPa) = 18.52651 21.46241 19.99446
#
# Velocity S-wave (km/s) = 2.83012 3.04612 2.94010
# Velocity P-wave (km/s) = 4.90803 5.13599 5.02330
#
# Compressibility (1/GPa) = 0.03224105
#
# Stress axis : x y z
#
# Youngs Moduli (GPa) = 47.10247 80.68891 58.86250
#
# Poissons Ratio (x) = 0.03805 0.32764
# Poissons Ratio (y) = 0.02221 0.18530
# Poissons Ratio (z) = 0.26218 0.25401
#
# Static dielectric constant tensor:
#      x y z
#    x 1.948820 0.000000 0.000000 
#    y 0.000000 2.200420 0.000000 
#    z 0.000000 0.000000 1.893380 
# 
# From -- ./inp_files/17137.got.cif
#   From: 2010.05.17/outbox.cif.g08.bks.cpg/sg56_9_cif.got.tgz:17137.got - 2010.06.03 13:42:01.
