data_PCOD9431104
_publ_section_title
;
Structure prediction by ZEFSAII (Michael W. Deem and Ramdas Pophale) SiO2 
 PCOD9431104
Probable space group: P C C N
;
_chemical_formula_sum "Si O2"
_cell_formula_units_Z 48
_cell_length_a 28.861671
_cell_length_b 5.404238
_cell_length_c 13.633885
_cell_angle_alpha 90.000000
_cell_angle_beta 90.000000
_cell_angle_gamma 90.000000
_cell_volume 2126.549837
_symmetry_space_group_name_H-M "P C C N"
_symmetry_group_IT_number 56
_symmetry_cell_setting 'orthorhombic'
loop_
_space_group_symop_operation_xyz
x,y,z
1/2-x,1/2-y,z
1/2+x,-y,1/2-z
-x,1/2+y,1/2-z
-x,-y,-z
1/2+x,1/2+y,-z
1/2-x,y,1/2+z
x,1/2-y,1/2+z
loop_
_atom_site_type_symbol
_atom_site_label
_atom_site_fract_x
_atom_site_fract_y
_atom_site_fract_z
Si Si1 0.341447 0.734790 0.995419
Si Si2 0.750000 0.750000 0.262015
Si Si3 0.106553 0.711583 0.172100
Si Si4 0.506318 0.090997 0.312789
Si Si5 0.250000 0.750000 0.113603
Si Si6 0.340694 0.464024 0.310536
Si Si7 0.590682 0.910433 0.624277
O O1 0.378667 0.530428 0.960998
O O2 0.325579 0.845396 0.892336
O O3 0.370305 0.900481 0.074767
O O4 0.293685 0.675881 0.047796
O O5 0.742075 0.496301 0.322114
O O6 0.797932 0.717644 0.203336
O O7 0.099360 0.545266 0.269459
O O8 0.057089 0.835668 0.150308
O O9 0.143543 0.915290 0.209098
O O10 0.507020 0.821900 0.259995
O O11 0.464210 0.084547 0.390060
O O12 0.387905 0.355991 0.355871
#
# Coordination Sequence:
#
# PCOD9431104 Si02
#       7
#     8   4   8   8   4   8   8
#     4  11  26  42  68 102 142 174 236 287 348 408
#     4  12  28  46  78  96 138 186 236 272 360 408
#     4  10  21  45  66  96 139 186 224 288 342 416
#     4  10  20  40  71  97 134 187 233 277 343 410
#     4  12  28  48  70 104 134 188 228 286 344 424
#     4  11  24  43  69  99 137 185 228 290 342 415
#     4  10  23  41  67  99 138 180 233 285 348 405
#
# _framework density 22.571773
#
# number of rings (size 3 to 8) (size 9 to 14) (size 15 to 20)
#    0.000    1.333    3.333    1.000    7.000    2.000 
#    0.000    0.833    0.000    0.000    0.000    0.000 
#    0.000    0.000    0.000    0.000    0.000    0.000 
#
# Total GULP energy -267753.693538 kJ/mol
# GULP energy per Si atom -5578.201949 kJ/mol
# Density = 2.252040 g / cm^3
# Si number density = 22.571773 Si / 1000 Ang^3
#
#
#
# Elastic Constant Matrix: (Units=GPa)
#
#
# Indices 1 2 3 4 5 6 
#
# 1 127.0418 -3.3065 48.6448 0.0000 0.0000 0.0000
# 2 -3.3065 59.8237 5.9389 0.0000 0.0000 0.0000
# 3 48.6448 5.9389 58.9851 0.0000 0.0000 0.0000
# 4 0.0000 0.0000 0.0000 5.2365 0.0000 0.0000
# 5 0.0000 0.0000 0.0000 0.0000 -9.4304 0.0000
# 6 0.0000 0.0000 0.0000 0.0000 0.0000 32.7430
#
#
#
# Elastic Compliance Matrix: (Units=1/GPa)
#
#
# Indices 1 2 3 4 5 6 
#
# 1 0.011657 0.001615 -0.009776 0.000000 0.000000 0.000000
# 2 0.001615 0.017108 -0.003054 0.000000 0.000000 0.000000
# 3 -0.009776 -0.003054 0.025323 0.000000 0.000000 0.000000
# 4 0.000000 0.000000 0.000000 0.190968 0.000000 0.000000
# 5 0.000000 0.000000 0.000000 0.000000 -0.106040 0.000000
# 6 0.000000 0.000000 0.000000 0.000000 0.000000 0.030541
#
#
# Mechanical properties :
#
#
# Convention : Reuss Voigt Hill
#
# Bulk Modulus (GPa) = 31.58823 38.71169 35.14996
# Shear Modulus (GPa) = 24.68654 18.68137 21.68396
#
# Velocity S-wave (km/s) = 3.31069 2.88000 3.10283
# Velocity P-wave (km/s) = 5.35156 5.31478 5.33320
#
# Compressibility (1/GPa) = 0.03165736
#
# Stress axis : x y z
#
# Youngs Moduli (GPa) = 85.78811 58.45139 39.48981
#
# Poissons Ratio (x) = -0.09438 0.38604
# Poissons Ratio (y) = -0.13853 0.12061
# Poissons Ratio (z) = 0.83864 0.17852
#
# Static dielectric constant tensor:
#      x y z
#    x 1.843420 0.000000 0.000000 
#    y 0.000000 1.904980 0.000000 
#    z 0.000000 0.000000 1.869570 
# 
# From -- ./inp_files/9731.got.cif
#   From: 2010.05.17/outbox.cif.g08.bks.cpg/sg56_5_cif.got.tgz:9731.got - 2010.06.03 13:42:01.
