data_PCOD9431272
_publ_section_title
;
Structure prediction by ZEFSAII (Michael W. Deem and Ramdas Pophale) SiO2 
 PCOD9431272
Probable space group: P C C N
;
_chemical_formula_sum "Si O2"
_cell_formula_units_Z 64
_cell_length_a 11.380419
_cell_length_b 14.525733
_cell_length_c 19.152995
_cell_angle_alpha 90.000000
_cell_angle_beta 90.000000
_cell_angle_gamma 90.000000
_cell_volume 3166.161068
_symmetry_space_group_name_H-M "P C C N"
_symmetry_group_IT_number 56
_symmetry_cell_setting 'orthorhombic'
loop_
_space_group_symop_operation_xyz
x,y,z
1/2-x,1/2-y,z
1/2+x,-y,1/2-z
-x,1/2+y,1/2-z
-x,-y,-z
1/2+x,1/2+y,-z
1/2-x,y,1/2+z
x,1/2-y,1/2+z
loop_
_atom_site_type_symbol
_atom_site_label
_atom_site_fract_x
_atom_site_fract_y
_atom_site_fract_z
Si Si1 0.072089 0.093243 0.995680
Si Si2 0.354274 0.485769 0.627055
Si Si3 0.345696 0.452421 0.469637
Si Si4 0.952551 0.665364 0.241982
Si Si5 0.167950 0.326059 0.622127
Si Si6 0.894087 0.469810 0.180073
Si Si7 0.107787 0.261032 0.904400
Si Si8 0.784344 0.353996 0.773343
O O1 0.208076 0.067447 0.982862
O O2 0.048664 0.171797 0.938724
O O3 0.066569 0.143548 0.070202
O O4 0.000000 0.000000 0.000000
O O5 0.387340 0.490833 0.544751
O O6 0.250147 0.413297 0.635008
O O7 0.467248 0.450409 0.670212
O O8 0.309557 0.581434 0.659533
O O9 0.352486 0.513880 0.399814
O O10 0.406374 0.354840 0.449352
O O11 0.882878 0.709237 0.305620
O O12 0.893210 0.568130 0.220156
O O13 0.945121 0.724166 0.171901
O O14 0.087333 0.648732 0.262829
O O15 0.250000 0.250000 0.586459
O O16 0.814286 0.399756 0.223609
O O17 0.250000 0.250000 0.898203
O O18 0.750000 0.250000 0.791324
#
# Coordination Sequence:
#
# PCOD9431272 Si02
#       8
#     8   8   8   8   8   8   8   8
#     4  10  21  35  58  93 133 165 201 270 327 379
#     4  10  21  41  65  92 123 167 212 265 325 387
#     4   9  19  37  65  88 122 164 217 266 317 389
#     4  10  22  39  64  89 122 168 217 265 317 390
#     4  11  22  38  63  97 125 160 221 268 319 382
#     4  10  21  41  61  88 123 167 213 266 324 390
#     4   9  18  39  60  93 126 161 216 265 325 383
#     4  11  25  42  59  89 133 169 212 267 331 385
#
# _framework density 20.213751999999999
#
# number of rings (size 3 to 8) (size 9 to 14) (size 15 to 20)
#    0.000    2.000    1.250    2.625    3.500    2.000 
#    0.000    0.625    0.000    0.000    0.000    0.000 
#    0.000    0.000    0.000    0.000    0.000    0.000 
#
# Total GULP energy -357114.695416 kJ/mol
# GULP energy per Si atom -5579.917116 kJ/mol
# Density = 2.016774 g / cm^3
# Si number density = 20.213752 Si / 1000 Ang^3
#
#
#
# Elastic Constant Matrix: (Units=GPa)
#
#
# Indices 1 2 3 4 5 6 
#
# 1 50.5786 39.6475 46.0246 0.0000 0.0000 0.0000
# 2 39.6475 123.7901 59.2595 0.0000 0.0000 0.0000
# 3 46.0246 59.2595 119.6868 0.0000 0.0000 0.0000
# 4 0.0000 0.0000 0.0000 21.3836 0.0000 0.0000
# 5 0.0000 0.0000 0.0000 0.0000 15.5458 0.0000
# 6 0.0000 0.0000 0.0000 0.0000 0.0000 35.1539
#
#
#
# Elastic Compliance Matrix: (Units=1/GPa)
#
#
# Indices 1 2 3 4 5 6 
#
# 1 0.033478 -0.005976 -0.009915 0.000000 0.000000 0.000000
# 2 -0.005976 0.011654 -0.003472 0.000000 0.000000 0.000000
# 3 -0.009915 -0.003472 0.013887 0.000000 0.000000 0.000000
# 4 0.000000 0.000000 0.000000 0.046765 0.000000 0.000000
# 5 0.000000 0.000000 0.000000 0.000000 0.064326 0.000000
# 6 0.000000 0.000000 0.000000 0.000000 0.000000 0.028446
#
#
# Mechanical properties :
#
#
# Convention : Reuss Voigt Hill
#
# Bulk Modulus (GPa) = 49.27807 64.87987 57.07897
# Shear Modulus (GPa) = 20.48787 24.35824 22.42306
#
# Velocity S-wave (km/s) = 3.18710 3.47512 3.33422
# Velocity P-wave (km/s) = 6.16238 6.94756 6.56671
#
# Compressibility (1/GPa) = 0.02029300
#
# Stress axis : x y z
#
# Youngs Moduli (GPa) = 29.87068 85.80448 72.00974
#
# Poissons Ratio (x) = 0.51276 0.71396
# Poissons Ratio (y) = 0.17851 0.25004
# Poissons Ratio (z) = 0.29616 0.29794
#
# Static dielectric constant tensor:
#      x y z
#    x 1.739080 0.000000 0.000000 
#    y 0.000000 1.724020 0.000000 
#    z 0.000000 0.000000 1.739120 
# 
# From -- ./inp_files/15827.got.cif
#   From: 2010.05.17/outbox.cif.g08.bks.cpg/sg56_8_cif.got.tgz:15827.got - 2010.06.03 13:42:01.
