data_PCOD9431316
_publ_section_title
;
Structure prediction by ZEFSAII (Michael W. Deem and Ramdas Pophale) SiO2 
 PCOD9431316
Probable space group: P C C N
;
_chemical_formula_sum "Si O2"
_cell_formula_units_Z 52
_cell_length_a 12.254987
_cell_length_b 7.970270
_cell_length_c 24.834771
_cell_angle_alpha 90.000000
_cell_angle_beta 90.000000
_cell_angle_gamma 90.000000
_cell_volume 2425.750047
_symmetry_space_group_name_H-M "P C C N"
_symmetry_group_IT_number 56
_symmetry_cell_setting 'orthorhombic'
loop_
_space_group_symop_operation_xyz
x,y,z
1/2-x,1/2-y,z
1/2+x,-y,1/2-z
-x,1/2+y,1/2-z
-x,-y,-z
1/2+x,1/2+y,-z
1/2-x,y,1/2+z
x,1/2-y,1/2+z
loop_
_atom_site_type_symbol
_atom_site_label
_atom_site_fract_x
_atom_site_fract_y
_atom_site_fract_z
Si Si1 0.250000 0.750000 0.937595
Si Si2 0.093521 0.484716 0.420876
Si Si3 0.505083 0.076143 0.316769
Si Si4 0.765183 0.948414 0.859915
Si Si5 0.545849 0.726948 0.994222
Si Si6 0.356628 0.573920 0.537589
Si Si7 0.855235 0.362468 0.762915
O O1 0.326134 0.632045 0.903212
O O2 0.193249 0.623506 0.979789
O O3 0.133717 0.366671 0.469197
O O4 0.060685 0.377595 0.370156
O O5 0.999584 0.595266 0.450811
O O6 0.611021 0.977159 0.339882
O O7 0.421650 0.971097 0.280231
O O8 0.556444 0.232492 0.286271
O O9 0.750000 0.750000 0.869581
O O10 0.728361 0.054411 0.913247
O O11 0.690020 0.019663 0.811299
O O12 0.451727 0.784544 0.037104
O O13 0.586551 0.893490 0.966033
O O14 0.750000 0.250000 0.744755
#
# Coordination Sequence:
#
# PCOD9431316 Si02
#       7
#     4   8   8   8   8   8   8
#     4  10  24  34  58  86 130 160 208 248 308 376
#     4  10  21  37  59  87 122 167 203 254 317 380
#     4  11  23  41  67  90 127 167 214 273 329 388
#     4  11  23  37  67  97 121 166 214 264 331 384
#     4   9  20  37  57  87 127 165 204 258 315 371
#     4  10  21  36  59  90 126 160 210 259 304 391
#     4  10  24  43  67  96 128 165 220 280 332 399
#
# _framework density 21.436668000000001
#
# number of rings (size 3 to 8) (size 9 to 14) (size 15 to 20)
#    0.000    1.846    0.000    2.769   12.923    0.000 
#    0.000    1.538   10.154    0.000    0.000    0.000 
#    0.000    0.000    0.000    0.000    0.000    0.000 
#
# Total GULP energy -289901.180077 kJ/mol
# GULP energy per Si atom -5575.022694 kJ/mol
# Density = 2.138788 g / cm^3
# Si number density = 21.436668 Si / 1000 Ang^3
#
#
#
# Elastic Constant Matrix: (Units=GPa)
#
#
# Indices 1 2 3 4 5 6 
#
# 1 65.8031 13.3046 30.2523 0.0000 0.0000 0.0000
# 2 13.3046 77.0429 16.8653 0.0000 0.0000 0.0000
# 3 30.2523 16.8653 80.1723 0.0000 0.0000 0.0000
# 4 0.0000 0.0000 0.0000 19.6323 0.0000 0.0000
# 5 0.0000 0.0000 0.0000 0.0000 20.4315 0.0000
# 6 0.0000 0.0000 0.0000 0.0000 0.0000 36.7930
#
#
#
# Elastic Compliance Matrix: (Units=1/GPa)
#
#
# Indices 1 2 3 4 5 6 
#
# 1 0.018611 -0.001758 -0.006653 0.000000 0.000000 0.000000
# 2 -0.001758 0.013772 -0.002234 0.000000 0.000000 0.000000
# 3 -0.006653 -0.002234 0.015454 0.000000 0.000000 0.000000
# 4 0.000000 0.000000 0.000000 0.050936 0.000000 0.000000
# 5 0.000000 0.000000 0.000000 0.000000 0.048944 0.000000
# 6 0.000000 0.000000 0.000000 0.000000 0.000000 0.027179
#
#
# Mechanical properties :
#
#
# Convention : Reuss Voigt Hill
#
# Bulk Modulus (GPa) = 37.66796 38.20696 37.93746
# Shear Modulus (GPa) = 24.38616 26.21110 25.29863
#
# Velocity S-wave (km/s) = 3.37648 3.50054 3.43907
# Velocity P-wave (km/s) = 5.72806 5.84810 5.78839
#
# Compressibility (1/GPa) = 0.02654776
#
# Stress axis : x y z
#
# Youngs Moduli (GPa) = 53.73221 72.60939 64.71019
#
# Poissons Ratio (x) = 0.12761 0.43051
# Poissons Ratio (y) = 0.09444 0.14456
# Poissons Ratio (z) = 0.35748 0.16221
#
# Static dielectric constant tensor:
#      x y z
#    x 1.936250 0.000000 0.000000 
#    y 0.000000 1.826930 0.000000 
#    z 0.000000 0.000000 1.765520 
# 
# From -- ./inp_files/19070.got.cif
#   From: 2010.05.17/outbox.cif.g08.bks.cpg/sg56_10_cif.got.tgz:19070.got - 2010.06.03 13:42:01.
