data_PCOD9431444
_publ_section_title
;
Structure prediction by ZEFSAII (Michael W. Deem and Ramdas Pophale) SiO2 
 PCOD9431444
Probable space group: P C C N
;
_chemical_formula_sum "Si O2"
_cell_formula_units_Z 48
_cell_length_a 8.187325
_cell_length_b 15.795549
_cell_length_c 17.727009
_cell_angle_alpha 90.000000
_cell_angle_beta 90.000000
_cell_angle_gamma 90.000000
_cell_volume 2292.515183
_symmetry_space_group_name_H-M "P C C N"
_symmetry_group_IT_number 56
_symmetry_cell_setting 'orthorhombic'
loop_
_space_group_symop_operation_xyz
x,y,z
1/2-x,1/2-y,z
1/2+x,-y,1/2-z
-x,1/2+y,1/2-z
-x,-y,-z
1/2+x,1/2+y,-z
1/2-x,y,1/2+z
x,1/2-y,1/2+z
loop_
_atom_site_type_symbol
_atom_site_label
_atom_site_fract_x
_atom_site_fract_y
_atom_site_fract_z
Si Si1 0.079563 0.090988 0.978435
Si Si2 0.276549 0.999589 0.862764
Si Si3 0.365763 0.993982 0.206444
Si Si4 0.359072 0.834364 0.953701
Si Si5 0.281895 0.340517 0.615398
Si Si6 0.726193 0.154798 0.387817
O O1 0.947291 0.142311 0.929706
O O2 0.230444 0.069285 0.924156
O O3 0.145731 0.137094 0.052674
O O4 0.000000 0.000000 0.000000
O O5 0.450784 0.014870 0.824074
O O6 0.281325 0.910331 0.905805
O O7 0.144654 0.997098 0.796193
O O8 0.296796 0.081098 0.171799
O O9 0.260338 0.915948 0.174154
O O10 0.250000 0.750000 0.943748
O O11 0.544250 0.829390 0.926313
O O12 0.350469 0.857188 0.042064
O O13 0.250000 0.250000 0.653193
O O14 0.750000 0.250000 0.358598
#
# Coordination Sequence:
#
# PCOD9431444 Si02
#       6
#     8   8   8   8   8   8
#     4  12  22  40  68  92 126 165 212 259 310 373
#     4  11  24  40  64  89 125 173 207 261 320 377
#     4  11  24  42  61  91 132 167 212 258 322 381
#     4  10  21  38  62  93 125 164 216 263 314 368
#     4  11  23  39  65  96 125 165 213 264 314 378
#     4  11  22  39  65  93 128 167 209 261 314 373
#
# _framework density 20.937701000000001
#
# number of rings (size 3 to 8) (size 9 to 14) (size 15 to 20)
#    0.000    1.000    3.333    4.000    0.000    3.333 
#    0.000    4.167    0.000    0.000    0.000    0.000 
#    0.000    0.000    0.000    0.000    0.000    0.000 
#
# Total GULP energy -268495.570219 kJ/mol
# GULP energy per Si atom -5593.657713 kJ/mol
# Density = 2.089005 g / cm^3
# Si number density = 20.937701 Si / 1000 Ang^3
#
#
#
# Elastic Constant Matrix: (Units=GPa)
#
#
# Indices 1 2 3 4 5 6 
#
# 1 55.4525 25.2547 -15.3359 0.0000 0.0000 0.0000
# 2 25.2547 112.3661 16.0854 0.0000 0.0000 0.0000
# 3 -15.3359 16.0854 37.2675 0.0000 0.0000 0.0000
# 4 0.0000 0.0000 0.0000 1.4227 0.0000 0.0000
# 5 0.0000 0.0000 0.0000 0.0000 34.8599 0.0000
# 6 0.0000 0.0000 0.0000 0.0000 0.0000 25.7553
#
#
#
# Elastic Compliance Matrix: (Units=1/GPa)
#
#
# Indices 1 2 3 4 5 6 
#
# 1 0.025313 -0.007653 0.013720 0.000000 0.000000 0.000000
# 2 -0.007653 0.011799 -0.008242 0.000000 0.000000 0.000000
# 3 0.013720 -0.008242 0.036037 0.000000 0.000000 0.000000
# 4 0.000000 0.000000 0.000000 0.702877 0.000000 0.000000
# 5 0.000000 0.000000 0.000000 0.000000 0.028686 0.000000
# 6 0.000000 0.000000 0.000000 0.000000 0.000000 0.038827
#
#
# Mechanical properties :
#
#
# Convention : Reuss Voigt Hill
#
# Bulk Modulus (GPa) = 14.53526 28.56604 21.55065
# Shear Modulus (GPa) = 5.74169 24.34637 15.04403
#
# Velocity S-wave (km/s) = 1.65778 3.41369 2.68342
# Velocity P-wave (km/s) = 3.25907 5.40469 4.46274
#
# Compressibility (1/GPa) = 0.06879824
#
# Stress axis : x y z
#
# Youngs Moduli (GPa) = 39.50471 84.74937 27.74963
#
# Poissons Ratio (x) = 0.64862 -0.38073
# Poissons Ratio (y) = 0.30234 0.22872
# Poissons Ratio (z) = -0.54201 0.69853
#
# Static dielectric constant tensor:
#      x y z
#    x 1.786210 0.000000 0.000000 
#    y 0.000000 1.748410 0.000000 
#    z 0.000000 0.000000 1.697160 
# 
# From -- ./inp_files/14777.got.cif
#   From: 2010.05.17/outbox.cif.g08.bks.cpg/sg56_8_cif.got.tgz:14777.got - 2010.06.03 13:42:01.
