data_PCOD9431405
_publ_section_title
;
Structure prediction by ZEFSAII (Michael W. Deem and Ramdas Pophale) SiO2 
 PCOD9431405
Probable space group: P C C N
;
_chemical_formula_sum "Si O2"
_cell_formula_units_Z 44
_cell_length_a 27.961362
_cell_length_b 8.140341
_cell_length_c 8.838788
_cell_angle_alpha 90.000000
_cell_angle_beta 90.000000
_cell_angle_gamma 90.000000
_cell_volume 2011.840921
_symmetry_space_group_name_H-M "P C C N"
_symmetry_group_IT_number 56
_symmetry_cell_setting 'orthorhombic'
loop_
_space_group_symop_operation_xyz
x,y,z
1/2-x,1/2-y,z
1/2+x,-y,1/2-z
-x,1/2+y,1/2-z
-x,-y,-z
1/2+x,1/2+y,-z
1/2-x,y,1/2+z
x,1/2-y,1/2+z
loop_
_atom_site_type_symbol
_atom_site_label
_atom_site_fract_x
_atom_site_fract_y
_atom_site_fract_z
Si Si1 0.042712 0.603471 0.613774
Si Si2 0.311295 0.594574 0.529031
Si Si3 0.250000 0.750000 0.792004
Si Si4 0.446024 0.271119 0.926837
Si Si5 0.891681 0.577541 0.836046
Si Si6 0.399396 0.743504 0.352573
O O1 0.043339 0.421207 0.544693
O O2 0.061659 0.711245 0.475842
O O3 0.081064 0.600143 0.747487
O O4 0.995359 0.702435 0.666306
O O5 0.290163 0.680791 0.678421
O O6 0.269324 0.605493 0.403184
O O7 0.339490 0.431281 0.583805
O O8 0.351956 0.701233 0.444086
O O9 0.403551 0.307444 0.807595
O O10 0.430033 0.121485 0.033257
O O11 0.895926 0.399011 0.758986
#
# Coordination Sequence:
#
# PCOD9431405 Si02
#       6
#     8   8   4   8   8   8
#     4  10  21  38  59  90 132 179 232 259 304 380
#     4  11  21  41  66 103 117 161 214 283 340 393
#     4  10  22  40  72  98 124 150 218 290 338 408
#     4  10  24  39  56  93 135 186 216 258 321 382
#     4  11  23  40  61  94 131 174 217 266 329 390
#     4  11  20  37  64  93 125 167 223 276 318 381
#
# _framework density 21.870517
#
# number of rings (size 3 to 8) (size 9 to 14) (size 15 to 20)
#    0.000    1.455    3.636    1.091    2.545    0.727 
#    0.000    0.000    0.000    3.273    0.000    0.000 
#    0.000    0.000    0.000    0.000    0.000    0.000 
#
# Total GULP energy -245006.684531 kJ/mol
# GULP energy per Si atom -5568.333739 kJ/mol
# Density = 2.182074 g / cm^3
# Si number density = 21.870517 Si / 1000 Ang^3
#
#
#
# Elastic Constant Matrix: (Units=GPa)
#
#
# Indices 1 2 3 4 5 6 
#
# 1 98.8831 24.8217 56.2429 0.0000 0.0000 0.0000
# 2 24.8217 30.3031 33.7112 0.0000 0.0000 0.0000
# 3 56.2429 33.7112 146.0814 0.0000 0.0000 0.0000
# 4 0.0000 0.0000 0.0000 27.2173 0.0000 0.0000
# 5 0.0000 0.0000 0.0000 0.0000 59.8018 0.0000
# 6 0.0000 0.0000 0.0000 0.0000 0.0000 26.6132
#
#
#
# Elastic Compliance Matrix: (Units=1/GPa)
#
#
# Indices 1 2 3 4 5 6 
#
# 1 0.014084 -0.007405 -0.003714 0.000000 0.000000 0.000000
# 2 -0.007405 0.048291 -0.008293 0.000000 0.000000 0.000000
# 3 -0.003714 -0.008293 0.010189 0.000000 0.000000 0.000000
# 4 0.000000 0.000000 0.000000 0.036741 0.000000 0.000000
# 5 0.000000 0.000000 0.000000 0.000000 0.016722 0.000000
# 6 0.000000 0.000000 0.000000 0.000000 0.000000 0.037575
#
#
# Mechanical properties :
#
#
# Convention : Reuss Voigt Hill
#
# Bulk Modulus (GPa) = 29.63774 56.09100 42.86437
# Shear Modulus (GPa) = 23.40014 33.42592 28.41303
#
# Velocity S-wave (km/s) = 3.27454 3.91366 3.60828
# Velocity P-wave (km/s) = 5.27994 6.79153 6.08287
#
# Compressibility (1/GPa) = 0.03374077
#
# Stress axis : x y z
#
# Youngs Moduli (GPa) = 71.00237 20.70759 98.14421
#
# Poissons Ratio (x) = 0.15334 0.36447
# Poissons Ratio (y) = 0.52578 0.81392
# Poissons Ratio (z) = 0.26368 0.17173
#
# Static dielectric constant tensor:
#      x y z
#    x 1.934100 0.000000 0.000000 
#    y 0.000000 1.821260 0.000000 
#    z 0.000000 0.000000 1.840920 
# 
# From -- ./inp_files/2195.got.cif
#   From: 2010.05.17/outbox.cif.g08.bks.cpg/sg56_2_cif.got.tgz:2195.got - 2010.06.03 13:42:01.
