data_PCOD9431845
_publ_section_title
;
Structure prediction by ZEFSAII (Michael W. Deem and Ramdas Pophale) SiO2 
 PCOD9431845
Probable space group: P C C N
;
_chemical_formula_sum "Si O2"
_cell_formula_units_Z 60
_cell_length_a 9.319197
_cell_length_b 18.801385
_cell_length_c 16.441216
_cell_angle_alpha 90.000000
_cell_angle_beta 90.000000
_cell_angle_gamma 90.000000
_cell_volume 2880.728108
_symmetry_space_group_name_H-M "P C C N"
_symmetry_group_IT_number 56
_symmetry_cell_setting 'orthorhombic'
loop_
_space_group_symop_operation_xyz
x,y,z
1/2-x,1/2-y,z
1/2+x,-y,1/2-z
-x,1/2+y,1/2-z
-x,-y,-z
1/2+x,1/2+y,-z
1/2-x,y,1/2+z
x,1/2-y,1/2+z
loop_
_atom_site_type_symbol
_atom_site_label
_atom_site_fract_x
_atom_site_fract_y
_atom_site_fract_z
Si Si1 0.587592 0.231724 0.357770
Si Si2 0.633919 0.399608 0.649270
Si Si3 0.878672 0.668410 0.248697
Si Si4 0.392308 0.550651 0.752395
Si Si5 0.924123 0.611204 0.708599
Si Si6 0.750000 0.750000 0.897227
Si Si7 0.992705 0.962717 0.587727
Si Si8 0.497936 0.679028 0.497191
O O1 0.750000 0.250000 0.332738
O O2 0.479846 0.276910 0.299981
O O3 0.535968 0.150338 0.350495
O O4 0.567784 0.258396 0.449479
O O5 0.773889 0.399394 0.705375
O O6 0.497451 0.377122 0.703226
O O7 0.616687 0.483569 0.630649
O O8 0.615784 0.354416 0.567111
O O9 0.728092 0.650645 0.205211
O O10 0.840647 0.700338 0.336362
O O11 0.960896 0.594325 0.258205
O O12 0.405901 0.473777 0.794730
O O13 0.377283 0.539176 0.654067
O O14 0.860527 0.705457 0.951587
O O15 0.961500 0.882428 0.562341
O O16 0.000000 0.000000 0.500000
#
# Coordination Sequence:
#
# PCOD9431845 Si02
#       8
#     8   8   8   8   8   4   8   8
#     4  12  26  42  70 101 141 183 237 294 361 426
#     4  10  21  43  69 100 143 179 238 297 351 426
#     4  12  23  45  69 102 139 189 240 289 354 429
#     4  11  23  38  75 105 136 189 238 296 349 428
#     4  11  22  42  67 107 136 179 241 293 343 431
#     4  12  26  42  70  98 140 192 232 298 356 424
#     4   9  20  40  64 100 135 178 225 291 360 415
#     4  11  24  43  66 100 140 188 230 297 368 423
#
# _framework density 20.828068999999999
#
# number of rings (size 3 to 8) (size 9 to 14) (size 15 to 20)
#    0.000    1.067    4.000    2.400    1.867    1.067 
#    0.000    0.667    0.000    2.400    0.000    0.000 
#    0.000    0.000    0.000    0.000    0.000    0.000 
#
# Total GULP energy -334621.804915 kJ/mol
# GULP energy per Si atom -5577.030082 kJ/mol
# Density = 2.078066 g / cm^3
# Si number density = 20.828069 Si / 1000 Ang^3
#
#
#
# Elastic Constant Matrix: (Units=GPa)
#
#
# Indices 1 2 3 4 5 6 
#
# 1 126.7532 38.0740 46.6106 0.0000 0.0000 0.0000
# 2 38.0740 87.0800 48.7630 0.0000 0.0000 0.0000
# 3 46.6106 48.7630 104.2112 0.0000 0.0000 0.0000
# 4 0.0000 0.0000 0.0000 50.4711 0.0000 0.0000
# 5 0.0000 0.0000 0.0000 0.0000 29.8777 0.0000
# 6 0.0000 0.0000 0.0000 0.0000 0.0000 33.1435
#
#
#
# Elastic Compliance Matrix: (Units=1/GPa)
#
#
# Indices 1 2 3 4 5 6 
#
# 1 0.009824 -0.002486 -0.003231 0.000000 0.000000 0.000000
# 2 -0.002486 0.016190 -0.006464 0.000000 0.000000 0.000000
# 3 -0.003231 -0.006464 0.014065 0.000000 0.000000 0.000000
# 4 0.000000 0.000000 0.000000 0.019813 0.000000 0.000000
# 5 0.000000 0.000000 0.000000 0.000000 0.033470 0.000000
# 6 0.000000 0.000000 0.000000 0.000000 0.000000 0.030172
#
#
# Mechanical properties :
#
#
# Convention : Reuss Voigt Hill
#
# Bulk Modulus (GPa) = 63.61961 64.99328 64.30644
# Shear Modulus (GPa) = 32.65070 35.00491 33.82780
#
# Velocity S-wave (km/s) = 3.96363 4.10403 4.03444
# Velocity P-wave (km/s) = 7.18043 7.33007 7.25563
#
# Compressibility (1/GPa) = 0.01571842
#
# Stress axis : x y z
#
# Youngs Moduli (GPa) = 101.78963 61.76500 71.09620
#
# Poissons Ratio (x) = 0.15357 0.22969
# Poissons Ratio (y) = 0.25308 0.45955
# Poissons Ratio (z) = 0.32885 0.39924
#
# Static dielectric constant tensor:
#      x y z
#    x 1.752020 0.000000 0.000000 
#    y 0.000000 1.798700 0.000000 
#    z 0.000000 0.000000 1.776710 
# 
# From -- ./inp_files/15104.got.cif
#   From: 2010.05.17/outbox.cif.g08.bks.cpg/sg56_8_cif.got.tgz:15104.got - 2010.06.03 13:42:01.
