data_PCOD9431154
_publ_section_title
;
Structure prediction by ZEFSAII (Michael W. Deem and Ramdas Pophale) SiO2 
 PCOD9431154
Probable space group: P C C N
;
_chemical_formula_sum "Si O2"
_cell_formula_units_Z 48
_cell_length_a 8.602103
_cell_length_b 15.964795
_cell_length_c 17.187339
_cell_angle_alpha 90.000000
_cell_angle_beta 90.000000
_cell_angle_gamma 90.000000
_cell_volume 2360.351203
_symmetry_space_group_name_H-M "P C C N"
_symmetry_group_IT_number 56
_symmetry_cell_setting 'orthorhombic'
loop_
_space_group_symop_operation_xyz
x,y,z
1/2-x,1/2-y,z
1/2+x,-y,1/2-z
-x,1/2+y,1/2-z
-x,-y,-z
1/2+x,1/2+y,-z
1/2-x,y,1/2+z
x,1/2-y,1/2+z
loop_
_atom_site_type_symbol
_atom_site_label
_atom_site_fract_x
_atom_site_fract_y
_atom_site_fract_z
Si Si1 0.750000 0.750000 0.483210
Si Si2 0.250000 0.750000 0.261538
Si Si3 0.645733 0.935786 0.501466
Si Si4 0.891017 0.084097 0.283089
Si Si5 0.965030 0.676440 0.852522
Si Si6 0.806098 0.573782 0.315958
Si Si7 0.573729 0.500134 0.585339
O O1 0.673435 0.835156 0.520362
O O2 0.608663 0.718450 0.428517
O O3 0.292696 0.831827 0.213287
O O4 0.403002 0.730605 0.312272
O O5 0.696462 0.938061 0.409802
O O6 0.750858 0.978038 0.567503
O O7 0.500000 0.000000 0.500000
O O8 0.020899 0.086090 0.215444
O O9 0.988814 0.067596 0.361080
O O10 0.771415 0.007073 0.276285
O O11 0.813895 0.650231 0.801553
O O12 0.046681 0.589114 0.875229
O O13 0.500000 0.500000 0.500000
#
# Coordination Sequence:
#
# PCOD9431154 Si02
#       7
#     4   4   8   8   8   8   8
#     4  10  20  42  60 102 128 170 228 290 326 416
#     4  12  24  40  62 104 126 174 222 278 334 406
#     4  11  24  41  68  96 133 180 230 273 350 404
#     4  11  23  40  67  92 133 169 225 272 339 400
#     4  10  22  39  69  90 133 170 224 275 337 396
#     4  10  22  43  66  92 128 173 224 274 329 416
#     4  11  21  46  64  92 132 179 211 276 334 407
#
# _framework density 20.335954999999998
#
# number of rings (size 3 to 8) (size 9 to 14) (size 15 to 20)
#    0.000    1.333    5.000    4.000    7.000    0.000 
#    3.000    0.833    0.000    0.000    0.000    0.000 
#    0.000    0.000    0.000    0.000    0.000    0.000 
#
# Total GULP energy -267396.991426 kJ/mol
# GULP energy per Si atom -5570.770655 kJ/mol
# Density = 2.028967 g / cm^3
# Si number density = 20.335955 Si / 1000 Ang^3
#
#
#
# Elastic Constant Matrix: (Units=GPa)
#
#
# Indices 1 2 3 4 5 6 
#
# 1 93.6995 58.8106 5.4979 0.0000 0.0000 0.0000
# 2 58.8106 125.6136 6.5350 0.0000 0.0000 0.0000
# 3 5.4979 6.5350 43.7377 0.0000 0.0000 0.0000
# 4 0.0000 0.0000 0.0000 19.9132 0.0000 0.0000
# 5 0.0000 0.0000 0.0000 0.0000 38.0583 0.0000
# 6 0.0000 0.0000 0.0000 0.0000 0.0000 42.1743
#
#
#
# Elastic Compliance Matrix: (Units=1/GPa)
#
#
# Indices 1 2 3 4 5 6 
#
# 1 0.015145 -0.007046 -0.000851 0.000000 0.000000 0.000000
# 2 -0.007046 0.011302 -0.000803 0.000000 0.000000 0.000000
# 3 -0.000851 -0.000803 0.023090 0.000000 0.000000 0.000000
# 4 0.000000 0.000000 0.000000 0.050218 0.000000 0.000000
# 5 0.000000 0.000000 0.000000 0.000000 0.026275 0.000000
# 6 0.000000 0.000000 0.000000 0.000000 0.000000 0.023711
#
#
# Mechanical properties :
#
#
# Convention : Reuss Voigt Hill
#
# Bulk Modulus (GPa) = 31.11701 44.97089 38.04395
# Shear Modulus (GPa) = 28.11286 32.84299 30.47792
#
# Velocity S-wave (km/s) = 3.72213 4.02309 3.87553
# Velocity P-wave (km/s) = 5.81438 6.61380 6.22693
#
# Compressibility (1/GPa) = 0.03213677
#
# Stress axis : x y z
#
# Youngs Moduli (GPa) = 66.02821 88.48198 43.30787
#
# Poissons Ratio (x) = 0.62348 0.03685
# Poissons Ratio (y) = 0.46526 0.03477
# Poissons Ratio (z) = 0.05619 0.07104
#
# Static dielectric constant tensor:
#      x y z
#    x 1.790720 0.000000 0.000000 
#    y 0.000000 1.789030 0.000000 
#    z 0.000000 0.000000 1.723470 
# 
# From -- ./inp_files/14862.got.cif
#   From: 2010.05.17/outbox.cif.g08.bks.cpg/sg56_8_cif.got.tgz:14862.got - 2010.06.03 13:42:01.
