data_PCOD9431327
_publ_section_title
;
Structure prediction by ZEFSAII (Michael W. Deem and Ramdas Pophale) SiO2 
 PCOD9431327
Probable space group: P C C N
;
_chemical_formula_sum "Si O2"
_cell_formula_units_Z 48
_cell_length_a 13.728523
_cell_length_b 11.475698
_cell_length_c 17.092775
_cell_angle_alpha 90.000000
_cell_angle_beta 90.000000
_cell_angle_gamma 90.000000
_cell_volume 2692.870707
_symmetry_space_group_name_H-M "P C C N"
_symmetry_group_IT_number 56
_symmetry_cell_setting 'orthorhombic'
loop_
_space_group_symop_operation_xyz
x,y,z
1/2-x,1/2-y,z
1/2+x,-y,1/2-z
-x,1/2+y,1/2-z
-x,-y,-z
1/2+x,1/2+y,-z
1/2-x,y,1/2+z
x,1/2-y,1/2+z
loop_
_atom_site_type_symbol
_atom_site_label
_atom_site_fract_x
_atom_site_fract_y
_atom_site_fract_z
Si Si1 0.363932 0.222270 0.374217
Si Si2 0.895961 0.548112 0.191959
Si Si3 0.894788 0.977230 0.253230
Si Si4 0.222412 0.885331 0.868984
Si Si5 0.221581 0.384714 0.653503
Si Si6 0.113686 0.032949 0.999586
O O1 0.250000 0.250000 0.367178
O O2 0.417220 0.344392 0.365517
O O3 0.390302 0.132800 0.305388
O O4 0.380505 0.155262 0.454084
O O5 0.818625 0.459951 0.153581
O O6 0.844237 0.604130 0.268419
O O7 0.996374 0.492114 0.217770
O O8 0.820425 0.952194 0.323615
O O9 0.854001 0.084904 0.201126
O O10 0.250000 0.750000 0.874994
O O11 0.173971 0.939963 0.947055
O O12 0.250000 0.250000 0.637770
O O13 0.163178 0.445477 0.583242
O O14 0.000000 0.000000 0.000000
#
# Coordination Sequence:
#
# PCOD9431327 Si02
#       6
#     8   8   8   8   8   8
#     4  11  18  42  62  87 121 160 201 251 297 357
#     4  11  21  38  65  93 121 155 206 253 303 353
#     4  10  21  36  63  92 117 157 202 250 299 355
#     4  10  23  42  59  86 130 163 192 251 315 355
#     4  11  20  38  64  93 116 150 213 254 283 361
#     4  11  24  41  63  87 121 167 201 246 310 363
#
# _framework density 17.824843999999999
#
# number of rings (size 3 to 8) (size 9 to 14) (size 15 to 20)
#    0.000    1.333    6.667    2.500    2.333    1.333 
#    3.000    1.667    0.000    0.000    0.000    0.000 
#    0.000    0.000    0.000    0.000    0.000    0.000 
#
# Total GULP energy -267875.431451 kJ/mol
# GULP energy per Si atom -5580.738155 kJ/mol
# Density = 1.778427 g / cm^3
# Si number density = 17.824844 Si / 1000 Ang^3
#
#
#
# Elastic Constant Matrix: (Units=GPa)
#
#
# Indices 1 2 3 4 5 6 
#
# 1 103.3332 22.7130 29.1222 0.0000 0.0000 0.0000
# 2 22.7130 101.8192 39.6445 0.0000 0.0000 0.0000
# 3 29.1222 39.6445 81.3158 0.0000 0.0000 0.0000
# 4 0.0000 0.0000 0.0000 16.1118 0.0000 0.0000
# 5 0.0000 0.0000 0.0000 0.0000 17.3568 0.0000
# 6 0.0000 0.0000 0.0000 0.0000 0.0000 26.4289
#
#
#
# Elastic Compliance Matrix: (Units=1/GPa)
#
#
# Indices 1 2 3 4 5 6 
#
# 1 0.010867 -0.001122 -0.003345 0.000000 0.000000 0.000000
# 2 -0.001122 0.012238 -0.005565 0.000000 0.000000 0.000000
# 3 -0.003345 -0.005565 0.016209 0.000000 0.000000 0.000000
# 4 0.000000 0.000000 0.000000 0.062066 0.000000 0.000000
# 5 0.000000 0.000000 0.000000 0.000000 0.057614 0.000000
# 6 0.000000 0.000000 0.000000 0.000000 0.000000 0.037837
#
#
# Mechanical properties :
#
#
# Convention : Reuss Voigt Hill
#
# Bulk Modulus (GPa) = 51.94597 52.15860 52.05228
# Shear Modulus (GPa) = 22.39026 24.97874 23.68450
#
# Velocity S-wave (km/s) = 3.54803 3.74751 3.64914
# Velocity P-wave (km/s) = 6.78162 6.93184 6.85714
#
# Compressibility (1/GPa) = 0.01925077
#
# Stress axis : x y z
#
# Youngs Moduli (GPa) = 92.02453 81.71061 61.69497
#
# Poissons Ratio (x) = 0.09165 0.20636
# Poissons Ratio (y) = 0.10322 0.34333
# Poissons Ratio (z) = 0.30781 0.45471
#
# Static dielectric constant tensor:
#      x y z
#    x 1.014910 0.000000 0.000000 
#    y 0.000000 1.625440 0.000000 
#    z 0.000000 0.000000 1.618550 
# 
# From -- ./inp_files/15598.got.cif
#   From: 2010.05.17/outbox.cif.g08.bks.cpg/sg56_8_cif.got.tgz:15598.got - 2010.06.03 13:42:01.
