data_PCOD9431115
_publ_section_title
;
Structure prediction by ZEFSAII (Michael W. Deem and Ramdas Pophale) SiO2 
 PCOD9431115
Probable space group: P C C N
;
_chemical_formula_sum "Si O2"
_cell_formula_units_Z 56
_cell_length_a 11.739950
_cell_length_b 22.398201
_cell_length_c 11.274452
_cell_angle_alpha 90.000000
_cell_angle_beta 90.000000
_cell_angle_gamma 90.000000
_cell_volume 2964.659543
_symmetry_space_group_name_H-M "P C C N"
_symmetry_group_IT_number 56
_symmetry_cell_setting 'orthorhombic'
loop_
_space_group_symop_operation_xyz
x,y,z
1/2-x,1/2-y,z
1/2+x,-y,1/2-z
-x,1/2+y,1/2-z
-x,-y,-z
1/2+x,1/2+y,-z
1/2-x,y,1/2+z
x,1/2-y,1/2+z
loop_
_atom_site_type_symbol
_atom_site_label
_atom_site_fract_x
_atom_site_fract_y
_atom_site_fract_z
Si Si1 0.390542 0.138139 0.216246
Si Si2 0.002816 0.261514 0.714595
Si Si3 0.451792 0.906425 0.585627
Si Si4 0.139914 0.119219 0.262918
Si Si5 0.592601 0.552710 0.511276
Si Si6 0.621180 0.273539 0.965242
Si Si7 0.340319 0.028130 0.549626
O O1 0.409597 0.207608 0.194516
O O2 0.496657 0.113645 0.290231
O O3 0.271822 0.135185 0.288603
O O4 0.395663 0.098045 0.098915
O O5 0.945130 0.251096 0.845937
O O6 0.922960 0.256477 0.597656
O O7 0.070346 0.324112 0.715023
O O8 0.398206 0.845496 0.535154
O O9 0.559792 0.938451 0.522430
O O10 0.363614 0.960129 0.584870
O O11 0.072325 0.092313 0.373110
O O12 0.157570 0.067161 0.167967
O O13 0.500000 0.500000 0.500000
O O14 0.721408 0.528014 0.519772
O O15 0.750000 0.250000 0.953573
#
# Coordination Sequence:
#
# PCOD9431115 Si02
#       7
#     8   8   8   8   8   8   8
#     4  10  22  38  61  91 124 161 209 263 317 386
#     4  11  23  40  65  91 126 168 211 264 329 386
#     4  10  20  41  62  86 121 166 211 256 315 385
#     4  11  21  39  61  92 123 162 209 263 321 385
#     4  11  23  39  61  93 131 160 210 269 320 379
#     4  11  24  43  63  93 128 169 217 271 327 393
#     4  10  21  38  63  88 119 167 211 255 316 380
#
# _framework density 18.889182999999999
#
# number of rings (size 3 to 8) (size 9 to 14) (size 15 to 20)
#    0.000    1.429    2.857    2.571    0.000    2.286 
#    0.000    4.286    0.000    0.000    0.000    0.000 
#    0.000    0.000    0.000    0.000    0.000    0.000 
#
# Total GULP energy -311780.478576 kJ/mol
# GULP energy per Si atom -5567.508546 kJ/mol
# Density = 1.884619 g / cm^3
# Si number density = 18.889183 Si / 1000 Ang^3
#
#
#
# Elastic Constant Matrix: (Units=GPa)
#
#
# Indices 1 2 3 4 5 6 
#
# 1 76.0948 48.8779 8.4292 0.0000 0.0000 0.0000
# 2 48.8779 107.7817 32.7274 0.0000 0.0000 0.0000
# 3 8.4292 32.7274 64.3596 0.0000 0.0000 0.0000
# 4 0.0000 0.0000 0.0000 20.6923 0.0000 0.0000
# 5 0.0000 0.0000 0.0000 0.0000 3.5574 0.0000
# 6 0.0000 0.0000 0.0000 0.0000 0.0000 18.6332
#
#
#
# Elastic Compliance Matrix: (Units=1/GPa)
#
#
# Indices 1 2 3 4 5 6 
#
# 1 0.018806 -0.009201 0.002216 0.000000 0.000000 0.000000
# 2 -0.009201 0.015474 -0.006664 0.000000 0.000000 0.000000
# 3 0.002216 -0.006664 0.018636 0.000000 0.000000 0.000000
# 4 0.000000 0.000000 0.000000 0.048327 0.000000 0.000000
# 5 0.000000 0.000000 0.000000 0.000000 0.281106 0.000000
# 6 0.000000 0.000000 0.000000 0.000000 0.000000 0.053668
#
#
# Mechanical properties :
#
#
# Convention : Reuss Voigt Hill
#
# Bulk Modulus (GPa) = 39.03461 47.58945 43.31203
# Shear Modulus (GPa) = 10.59649 19.12336 14.85992
#
# Velocity S-wave (km/s) = 2.37108 3.18527 2.80784
# Velocity P-wave (km/s) = 5.31092 6.22709 5.78717
#
# Compressibility (1/GPa) = 0.02561829
#
# Stress axis : x y z
#
# Youngs Moduli (GPa) = 53.17368 64.62425 53.65967
#
# Poissons Ratio (x) = 0.59463 -0.11890
# Poissons Ratio (y) = 0.48927 0.35757
# Poissons Ratio (z) = -0.11783 0.43063
#
# Static dielectric constant tensor:
#      x y z
#    x 1.702230 0.000000 0.000000 
#    y 0.000000 1.647340 0.000000 
#    z 0.000000 0.000000 1.687330 
# 
# From -- ./inp_files/7254.got.cif
#   From: 2010.05.17/outbox.cif.g08.bks.cpg/sg56_4_cif.got.tgz:7254.got - 2010.06.03 13:42:01.
