data_PCOD9431373
_publ_section_title
;
Structure prediction by ZEFSAII (Michael W. Deem and Ramdas Pophale) SiO2 
 PCOD9431373
Probable space group: P C C N
;
_chemical_formula_sum "Si O2"
_cell_formula_units_Z 40
_cell_length_a 22.928609
_cell_length_b 5.215955
_cell_length_c 14.197083
_cell_angle_alpha 90.000000
_cell_angle_beta 90.000000
_cell_angle_gamma 90.000000
_cell_volume 1697.894360
_symmetry_space_group_name_H-M "P C C N"
_symmetry_group_IT_number 56
_symmetry_cell_setting 'orthorhombic'
loop_
_space_group_symop_operation_xyz
x,y,z
1/2-x,1/2-y,z
1/2+x,-y,1/2-z
-x,1/2+y,1/2-z
-x,-y,-z
1/2+x,1/2+y,-z
1/2-x,y,1/2+z
x,1/2-y,1/2+z
loop_
_atom_site_type_symbol
_atom_site_label
_atom_site_fract_x
_atom_site_fract_y
_atom_site_fract_z
Si Si1 0.583907 0.867004 0.799561
Si Si2 0.872118 0.300632 0.648280
Si Si3 0.108305 0.313957 0.518697
Si Si4 0.787936 0.494286 0.044612
Si Si5 0.975049 0.903953 0.627547
O O1 0.542858 0.769273 0.715852
O O2 0.631079 0.025737 0.740996
O O3 0.542955 0.043950 0.864328
O O4 0.601386 0.639975 0.870506
O O5 0.868807 0.471797 0.553382
O O6 0.819904 0.098253 0.640357
O O7 0.933940 0.153698 0.641724
O O8 0.048223 0.230465 0.466854
O O9 0.156144 0.084858 0.516036
O O10 0.750000 0.250000 0.010975
O O11 0.750000 0.750000 0.056071
#
# Coordination Sequence:
#
# PCOD9431373 Si02
#       5
#     8   8   8   8   8
#     4  11  21  40  62 100 144 177 228 275 331 422
#     4  10  22  41  64 100 132 184 229 274 352 404
#     4  10  23  39  68  97 130 182 230 283 340 413
#     4  11  22  45  75  94 131 179 228 292 353 399
#     4  10  21  37  61  95 141 185 215 274 344 401
#
# _framework density 23.558592000000001
#
# number of rings (size 3 to 8) (size 9 to 14) (size 15 to 20)
#    0.000    1.600    4.000    0.600    0.000    4.000 
#    0.000    1.000    8.800    0.000    0.000    0.000 
#    0.000    0.000    0.000    0.000    0.000    0.000 
#
# Total GULP energy -223210.986105 kJ/mol
# GULP energy per Si atom -5580.274653 kJ/mol
# Density = 2.350497 g / cm^3
# Si number density = 23.558592 Si / 1000 Ang^3
#
#
#
# Elastic Constant Matrix: (Units=GPa)
#
#
# Indices 1 2 3 4 5 6 
#
# 1 41.4252 1.7408 -4.0556 0.0000 0.0000 0.0000
# 2 1.7408 79.8008 0.0016 0.0000 0.0000 0.0000
# 3 -4.0556 0.0016 96.8260 0.0000 0.0000 0.0000
# 4 0.0000 0.0000 0.0000 2.6828 0.0000 0.0000
# 5 0.0000 0.0000 0.0000 0.0000 3.4280 0.0000
# 6 0.0000 0.0000 0.0000 0.0000 0.0000 45.1501
#
#
#
# Elastic Compliance Matrix: (Units=1/GPa)
#
#
# Indices 1 2 3 4 5 6 
#
# 1 0.024262 -0.000529 0.001016 0.000000 0.000000 0.000000
# 2 -0.000529 0.012543 -0.000022 0.000000 0.000000 0.000000
# 3 0.001016 -0.000022 0.010370 0.000000 0.000000 0.000000
# 4 0.000000 0.000000 0.000000 0.372751 0.000000 0.000000
# 5 0.000000 0.000000 0.000000 0.000000 0.291714 0.000000
# 6 0.000000 0.000000 0.000000 0.000000 0.000000 0.022148
#
#
# Mechanical properties :
#
#
# Convention : Reuss Voigt Hill
#
# Bulk Modulus (GPa) = 20.78836 23.71397 22.25116
# Shear Modulus (GPa) = 6.67652 24.94320 15.80986
#
# Velocity S-wave (km/s) = 1.68528 3.25741 2.59334
# Velocity P-wave (km/s) = 3.55389 4.92295 4.29334
#
# Compressibility (1/GPa) = 0.04810384
#
# Stress axis : x y z
#
# Youngs Moduli (GPa) = 41.21737 79.72736 96.42861
#
# Poissons Ratio (x) = 0.04220 -0.09799
# Poissons Ratio (y) = 0.02182 0.00216
# Poissons Ratio (z) = -0.04189 0.00178
#
# Static dielectric constant tensor:
#      x y z
#    x 1.930710 0.000000 0.000000 
#    y 0.000000 2.014120 0.000000 
#    z 0.000000 0.000000 1.912550 
# 
# From -- ./inp_files/8996.got.cif
#   From: 2010.05.17/outbox.cif.g08.bks.cpg/sg56_5_cif.got.tgz:8996.got - 2010.06.03 13:42:01.
