data_PCOD9431921
_publ_section_title
;
Structure prediction by ZEFSAII (Michael W. Deem and Ramdas Pophale) SiO2 
 PCOD9431921
Probable space group: P C C N
;
_chemical_formula_sum "Si O2"
_cell_formula_units_Z 52
_cell_length_a 14.018463
_cell_length_b 17.524147
_cell_length_c 8.025873
_cell_angle_alpha 90.000000
_cell_angle_beta 90.000000
_cell_angle_gamma 90.000000
_cell_volume 1971.648853
_symmetry_space_group_name_H-M "P C C N"
_symmetry_group_IT_number 56
_symmetry_cell_setting 'orthorhombic'
loop_
_space_group_symop_operation_xyz
x,y,z
1/2-x,1/2-y,z
1/2+x,-y,1/2-z
-x,1/2+y,1/2-z
-x,-y,-z
1/2+x,1/2+y,-z
1/2-x,y,1/2+z
x,1/2-y,1/2+z
loop_
_atom_site_type_symbol
_atom_site_label
_atom_site_fract_x
_atom_site_fract_y
_atom_site_fract_z
Si Si1 0.785384 0.440553 0.419776
Si Si2 0.876552 0.980516 0.628090
Si Si3 0.750000 0.750000 0.825353
Si Si4 0.159001 0.841784 0.797299
Si Si5 0.619401 0.673917 0.063526
Si Si6 0.452891 0.412820 0.668561
Si Si7 0.941079 0.220730 0.520339
O O1 0.687497 0.467112 0.506206
O O2 0.853638 0.409177 0.565480
O O3 0.753468 0.370047 0.300498
O O4 0.824418 0.508823 0.304340
O O5 0.981526 0.013074 0.664912
O O6 0.893259 0.909263 0.504864
O O7 0.703392 0.681869 0.930712
O O8 0.836610 0.722025 0.715171
O O9 0.083736 0.823360 0.650226
O O10 0.149135 0.766090 0.908566
O O11 0.600672 0.594560 0.156509
O O12 0.524837 0.716549 0.001285
O O13 0.524244 0.341592 0.653075
#
# Coordination Sequence:
#
# PCOD9431921 Si02
#       7
#     8   8   4   8   8   8   8
#     4  10  23  44  63  96 126 168 212 269 309 385
#     4  10  23  43  65  87 125 169 220 256 313 368
#     4  10  22  36  58  90 120 158 200 256 306 374
#     4  11  24  38  67  94 134 158 210 257 330 379
#     4  11  21  39  60  88 125 158 208 256 321 369
#     4  11  22  40  66  88 126 171 209 259 313 388
#     4  12  22  40  64  98 125 170 200 266 327 393
#
# _framework density 26.373864999999999
#
# number of rings (size 3 to 8) (size 9 to 14) (size 15 to 20)
#    0.000    1.231    4.615    0.923    0.000    3.077 
#    0.000    0.769    6.769    0.000    0.000    0.000 
#    0.000    0.000    0.000    0.000    0.000    0.000 
#
# Total GULP energy -290492.991558 kJ/mol
# GULP energy per Si atom -5586.403684 kJ/mol
# Density = 2.631384 g / cm^3
# Si number density = 26.373865 Si / 1000 Ang^3
#
#
#
# Elastic Constant Matrix: (Units=GPa)
#
#
# Indices 1 2 3 4 5 6 
#
# 1 91.2060 14.7348 27.8892 0.0000 0.0000 0.0000
# 2 14.7348 59.5380 12.1047 0.0000 0.0000 0.0000
# 3 27.8892 12.1047 106.8231 0.0000 0.0000 0.0000
# 4 0.0000 0.0000 0.0000 36.9677 0.0000 0.0000
# 5 0.0000 0.0000 0.0000 0.0000 32.3043 0.0000
# 6 0.0000 0.0000 0.0000 0.0000 0.0000 33.5628
#
#
#
# Elastic Compliance Matrix: (Units=1/GPa)
#
#
# Indices 1 2 3 4 5 6 
#
# 1 0.012252 -0.002438 -0.002922 0.000000 0.000000 0.000000
# 2 -0.002438 0.017677 -0.001367 0.000000 0.000000 0.000000
# 3 -0.002922 -0.001367 0.010279 0.000000 0.000000 0.000000
# 4 0.000000 0.000000 0.000000 0.027051 0.000000 0.000000
# 5 0.000000 0.000000 0.000000 0.000000 0.030956 0.000000
# 6 0.000000 0.000000 0.000000 0.000000 0.000000 0.029795
#
#
# Mechanical properties :
#
#
# Convention : Reuss Voigt Hill
#
# Bulk Modulus (GPa) = 37.37750 40.78051 39.07901
# Shear Modulus (GPa) = 33.24888 34.08953 33.66921
#
# Velocity S-wave (km/s) = 3.55445 3.59911 3.57685
# Velocity P-wave (km/s) = 5.57211 5.72429 5.64871
#
# Compressibility (1/GPa) = 0.02675406
#
# Stress axis : x y z
#
# Youngs Moduli (GPa) = 81.62149 56.57005 97.28476
#
# Poissons Ratio (x) = 0.13792 0.28430
# Poissons Ratio (y) = 0.19899 0.13295
# Poissons Ratio (z) = 0.23853 0.07731
#
# Static dielectric constant tensor:
#      x y z
#    x 2.041060 0.000000 0.000000 
#    y 0.000000 2.133220 0.000000 
#    z 0.000000 0.000000 2.095920 
# 
# From -- ./inp_files/3532.got.cif
#   From: 2010.05.17/outbox.cif.g08.bks.cpg/sg56_2_cif.got.tgz:3532.got - 2010.06.03 13:42:01.
