data_PCOD9431202
_publ_section_title
;
Structure prediction by ZEFSAII (Michael W. Deem and Ramdas Pophale) SiO2 
 PCOD9431202
Probable space group: P C C N
;
_chemical_formula_sum "Si O2"
_cell_formula_units_Z 32
_cell_length_a 7.636651
_cell_length_b 10.279321
_cell_length_c 18.203639
_cell_angle_alpha 90.000000
_cell_angle_beta 90.000000
_cell_angle_gamma 90.000000
_cell_volume 1428.978143
_symmetry_space_group_name_H-M "P C C N"
_symmetry_group_IT_number 56
_symmetry_cell_setting 'orthorhombic'
loop_
_space_group_symop_operation_xyz
x,y,z
1/2-x,1/2-y,z
1/2+x,-y,1/2-z
-x,1/2+y,1/2-z
-x,-y,-z
1/2+x,1/2+y,-z
1/2-x,y,1/2+z
x,1/2-y,1/2+z
loop_
_atom_site_type_symbol
_atom_site_label
_atom_site_fract_x
_atom_site_fract_y
_atom_site_fract_z
Si Si1 0.381723 0.421172 0.680747
Si Si2 0.739101 0.889786 0.478148
Si Si3 0.990892 0.149681 0.229745
Si Si4 0.839105 0.386692 0.578757
O O1 0.363506 0.394942 0.593527
O O2 0.437876 0.568498 0.698482
O O3 0.495796 0.306883 0.720677
O O4 0.185823 0.397741 0.710208
O O5 0.750000 0.750000 0.515356
O O6 0.539737 0.895948 0.448379
O O7 0.764926 0.002434 0.536344
O O8 0.859104 0.100846 0.166104
O O9 0.750000 0.250000 0.561524
#
# Coordination Sequence:
#
# PCOD9431202 Si02
#       4
#     8   8   8   8
#     4  10  21  42  63  91 124 163 203 261 307 367
#     4  10  20  44  61  87 129 160 205 259 299 364
#     4  10  22  41  63  90 125 161 209 254 309 367
#     4  10  22  40  63  90 122 166 207 248 310 367
#
# _framework density 22.393623999999999
#
# number of rings (size 3 to 8) (size 9 to 14) (size 15 to 20)
#    0.000    2.000    5.000    0.000    3.500    1.000 
#   18.000    0.000    0.000    0.000    0.000    0.000 
#    0.000    0.000    0.000    0.000    0.000    0.000 
#
# Total GULP energy -178648.427343 kJ/mol
# GULP energy per Si atom -5582.763354 kJ/mol
# Density = 2.234266 g / cm^3
# Si number density = 22.393624 Si / 1000 Ang^3
#
#
#
# Elastic Constant Matrix: (Units=GPa)
#
#
# Indices 1 2 3 4 5 6 
#
# 1 59.6586 33.4095 20.2190 0.0000 0.0000 0.0000
# 2 33.4095 171.5906 75.0087 0.0000 0.0000 0.0000
# 3 20.2190 75.0087 51.2450 0.0000 0.0000 0.0000
# 4 0.0000 0.0000 0.0000 32.7964 0.0000 0.0000
# 5 0.0000 0.0000 0.0000 0.0000 21.6689 0.0000
# 6 0.0000 0.0000 0.0000 0.0000 0.0000 38.0051
#
#
#
# Elastic Compliance Matrix: (Units=1/GPa)
#
#
# Indices 1 2 3 4 5 6 
#
# 1 0.019438 -0.001200 -0.005913 0.000000 0.000000 0.000000
# 2 -0.001200 0.016256 -0.023321 0.000000 0.000000 0.000000
# 3 -0.005913 -0.023321 0.055982 0.000000 0.000000 0.000000
# 4 0.000000 0.000000 0.000000 0.030491 0.000000 0.000000
# 5 0.000000 0.000000 0.000000 0.000000 0.046149 0.000000
# 6 0.000000 0.000000 0.000000 0.000000 0.000000 0.026312
#
#
# Mechanical properties :
#
#
# Convention : Reuss Voigt Hill
#
# Bulk Modulus (GPa) = 32.45830 59.97427 46.21628
# Shear Modulus (GPa) = 18.81361 28.75122 23.78241
#
# Velocity S-wave (km/s) = 2.90165 3.58705 3.26240
# Velocity P-wave (km/s) = 5.07464 6.63294 5.90541
#
# Compressibility (1/GPa) = 0.03080876
#
# Stress axis : x y z
#
# Youngs Moduli (GPa) = 51.44569 61.51680 17.86284
#
# Poissons Ratio (x) = 0.07381 0.10563
# Poissons Ratio (y) = 0.06172 0.41657
# Poissons Ratio (z) = 0.30421 1.43461
#
# Static dielectric constant tensor:
#      x y z
#    x 1.867470 0.000000 0.000000 
#    y 0.000000 1.847480 0.000000 
#    z 0.000000 0.000000 1.812730 
# 
# From -- ./inp_files/17772.got.cif
#   From: 2010.05.17/outbox.cif.g08.bks.cpg/sg56_9_cif.got.tgz:17772.got - 2010.06.03 13:42:01.
