data_PCOD9431603
_publ_section_title
;
Structure prediction by ZEFSAII (Michael W. Deem and Ramdas Pophale) SiO2 
 PCOD9431603
Probable space group: P C C N
;
_chemical_formula_sum "Si O2"
_cell_formula_units_Z 40
_cell_length_a 12.125884
_cell_length_b 5.098321
_cell_length_c 32.028912
_cell_angle_alpha 90.000000
_cell_angle_beta 90.000000
_cell_angle_gamma 90.000000
_cell_volume 1980.080157
_symmetry_space_group_name_H-M "P C C N"
_symmetry_group_IT_number 56
_symmetry_cell_setting 'orthorhombic'
loop_
_space_group_symop_operation_xyz
x,y,z
1/2-x,1/2-y,z
1/2+x,-y,1/2-z
-x,1/2+y,1/2-z
-x,-y,-z
1/2+x,1/2+y,-z
1/2-x,y,1/2+z
x,1/2-y,1/2+z
loop_
_atom_site_type_symbol
_atom_site_label
_atom_site_fract_x
_atom_site_fract_y
_atom_site_fract_z
Si Si1 0.750000 0.750000 0.279576
Si Si2 0.075049 0.433109 0.460757
Si Si3 0.537216 0.588470 0.428281
Si Si4 0.750000 0.750000 0.984796
Si Si5 0.942982 0.080029 0.767128
Si Si6 0.366404 0.874145 0.156440
O O1 0.823953 0.541710 0.255249
O O2 0.668551 0.593034 0.310038
O O3 0.194562 0.448597 0.481965
O O4 0.000000 0.500000 0.500000
O O5 0.035443 0.647159 0.427480
O O6 0.038348 0.142320 0.447284
O O7 0.650175 0.638708 0.455717
O O8 0.573386 0.495382 0.382724
O O9 0.933104 0.164579 0.815685
O O10 0.973891 0.342392 0.742149
O O11 0.250000 0.750000 0.141979
#
# Coordination Sequence:
#
# PCOD9431603 Si02
#       6
#     4   8   8   4   8   8
#     4  10  21  40  62 103 122 160 216 248 321 384
#     4  10  23  37  56  91 119 168 214 252 312 382
#     4  11  24  37  61  93 128 159 211 267 316 365
#     4  10  21  40  62  85 132 168 212 266 317 366
#     4  11  22  39  64  96 134 166 198 258 320 381
#     4  10  23  37  63  97 132 161 209 264 330 358
#
# _framework density 20.201203
#
# number of rings (size 3 to 8) (size 9 to 14) (size 15 to 20)
#    0.000    1.600    2.000    3.000   11.200    4.000 
#    0.000    0.000    0.000    1.200   15.600    0.000 
#    0.000    0.000    0.000    0.000    0.000    0.000 
#
# Total GULP energy -222966.235788 kJ/mol
# GULP energy per Si atom -5574.155895 kJ/mol
# Density = 2.015522 g / cm^3
# Si number density = 20.201203 Si / 1000 Ang^3
#
#
#
# Elastic Constant Matrix: (Units=GPa)
#
#
# Indices 1 2 3 4 5 6 
#
# 1 76.2016 48.9326 55.4074 0.0000 0.0000 0.0000
# 2 48.9326 126.3032 36.8254 0.0000 0.0000 0.0000
# 3 55.4074 36.8254 72.2832 0.0000 0.0000 0.0000
# 4 0.0000 0.0000 0.0000 23.1078 0.0000 0.0000
# 5 0.0000 0.0000 0.0000 0.0000 24.1351 0.0000
# 6 0.0000 0.0000 0.0000 0.0000 0.0000 49.6097
#
#
#
# Elastic Compliance Matrix: (Units=1/GPa)
#
#
# Indices 1 2 3 4 5 6 
#
# 1 0.033620 -0.006473 -0.022474 0.000000 0.000000 0.000000
# 2 -0.006473 0.010545 -0.000411 0.000000 0.000000 0.000000
# 3 -0.022474 -0.000411 0.031270 0.000000 0.000000 0.000000
# 4 0.000000 0.000000 0.000000 0.043275 0.000000 0.000000
# 5 0.000000 0.000000 0.000000 0.000000 0.041433 0.000000
# 6 0.000000 0.000000 0.000000 0.000000 0.000000 0.020157
#
#
# Mechanical properties :
#
#
# Convention : Reuss Voigt Hill
#
# Bulk Modulus (GPa) = 59.80205 61.90208 60.85207
# Shear Modulus (GPa) = 20.44241 28.27870 24.36055
#
# Velocity S-wave (km/s) = 3.18455 3.74552 3.47637
# Velocity P-wave (km/s) = 6.57186 7.02955 6.80455
#
# Compressibility (1/GPa) = 0.01672183
#
# Stress axis : x y z
#
# Youngs Moduli (GPa) = 29.74383 94.83281 31.97921
#
# Poissons Ratio (x) = 0.61384 0.71868
# Poissons Ratio (y) = 0.19253 0.01313
# Poissons Ratio (z) = 0.66845 0.03894
#
# Static dielectric constant tensor:
#      x y z
#    x 1.634440 0.000000 0.000000 
#    y 0.000000 1.789320 0.000000 
#    z 0.000000 0.000000 1.694040 
# 
# From -- ./inp_files/23458.got.cif
#   From: 2010.05.17/outbox.cif.g08.bks.cpg/sg56_12_cif.got.tgz:23458.got - 2010.06.03 13:42:01.
