data_PCOD9431719
_publ_section_title
;
Structure prediction by ZEFSAII (Michael W. Deem and Ramdas Pophale) SiO2 
 PCOD9431719
Probable space group: P C C N
;
_chemical_formula_sum "Si O2"
_cell_formula_units_Z 48
_cell_length_a 10.221036
_cell_length_b 7.839968
_cell_length_c 26.022639
_cell_angle_alpha 90.000000
_cell_angle_beta 90.000000
_cell_angle_gamma 90.000000
_cell_volume 2085.261596
_symmetry_space_group_name_H-M "P C C N"
_symmetry_group_IT_number 56
_symmetry_cell_setting 'orthorhombic'
loop_
_space_group_symop_operation_xyz
x,y,z
1/2-x,1/2-y,z
1/2+x,-y,1/2-z
-x,1/2+y,1/2-z
-x,-y,-z
1/2+x,1/2+y,-z
1/2-x,y,1/2+z
x,1/2-y,1/2+z
loop_
_atom_site_type_symbol
_atom_site_label
_atom_site_fract_x
_atom_site_fract_y
_atom_site_fract_z
Si Si1 0.701346 0.995405 0.227355
Si Si2 0.750000 0.750000 0.961703
Si Si3 0.078179 0.059821 0.609910
Si Si4 0.750000 0.250000 0.925992
Si Si5 0.441983 0.339407 0.727790
Si Si6 0.715992 0.951362 0.105512
Si Si7 0.360396 0.932377 0.486707
O O1 0.621788 0.828125 0.247387
O O2 0.843785 0.986224 0.251950
O O3 0.724600 0.988337 0.166323
O O4 0.594587 0.138276 0.240830
O O5 0.874488 0.713627 0.926201
O O6 0.762388 0.919708 0.994094
O O7 0.189201 0.908180 0.605980
O O8 0.936620 0.988739 0.593301
O O9 0.068527 0.139450 0.666539
O O10 0.642856 0.285657 0.970365
O O11 0.750000 0.750000 0.098526
O O12 0.814577 0.071665 0.072321
O O13 0.500000 0.000000 0.500000
#
# Coordination Sequence:
#
# PCOD9431719 Si02
#       7
#     8   4   8   4   8   8   8
#     4  10  22  41  66  97 133 175 219 278 329 414
#     4  10  22  40  62  92 126 170 220 276 336 394
#     4  10  23  41  65  94 133 177 217 282 337 406
#     4  10  24  40  60  96 126 172 230 268 334 414
#     4  10  21  41  64  94 134 174 215 271 341 390
#     4  11  21  41  67  91 131 179 221 277 343 397
#     4  11  24  40  64  94 128 176 220 280 339 405
#
# _framework density 23.018694
#
# number of rings (size 3 to 8) (size 9 to 14) (size 15 to 20)
#    0.000    1.667    2.500    2.000    2.333    4.667 
#    9.000    0.000    0.000    0.000    0.000    0.000 
#    0.000    0.000    0.000    0.000    0.000    0.000 
#
# Total GULP energy -267435.062781 kJ/mol
# GULP energy per Si atom -5571.563808 kJ/mol
# Density = 2.296630 g / cm^3
# Si number density = 23.018694 Si / 1000 Ang^3
#
#
#
# Elastic Constant Matrix: (Units=GPa)
#
#
# Indices 1 2 3 4 5 6 
#
# 1 82.4598 -4.6951 32.2069 0.0000 0.0000 0.0000
# 2 -4.6951 69.1837 18.8535 0.0000 0.0000 0.0000
# 3 32.2069 18.8535 98.6977 0.0000 0.0000 0.0000
# 4 0.0000 0.0000 0.0000 46.8665 0.0000 0.0000
# 5 0.0000 0.0000 0.0000 0.0000 26.5618 0.0000
# 6 0.0000 0.0000 0.0000 0.0000 0.0000 46.4945
#
#
#
# Elastic Compliance Matrix: (Units=1/GPa)
#
#
# Indices 1 2 3 4 5 6 
#
# 1 0.014254 0.002358 -0.005102 0.000000 0.000000 0.000000
# 2 0.002358 0.015638 -0.003757 0.000000 0.000000 0.000000
# 3 -0.005102 -0.003757 0.012514 0.000000 0.000000 0.000000
# 4 0.000000 0.000000 0.000000 0.021337 0.000000 0.000000
# 5 0.000000 0.000000 0.000000 0.000000 0.037648 0.000000
# 6 0.000000 0.000000 0.000000 0.000000 0.000000 0.021508
#
#
# Mechanical properties :
#
#
# Convention : Reuss Voigt Hill
#
# Bulk Modulus (GPa) = 34.00781 38.11909 36.06345
# Shear Modulus (GPa) = 34.31655 37.58296 35.94976
#
# Velocity S-wave (km/s) = 3.86529 4.04507 3.95620
# Velocity P-wave (km/s) = 5.89294 6.19781 6.04729
#
# Compressibility (1/GPa) = 0.02940501
#
# Stress axis : x y z
#
# Youngs Moduli (GPa) = 70.15594 63.94689 79.90850
#
# Poissons Ratio (x) = -0.15076 0.40767
# Poissons Ratio (y) = -0.16540 0.30018
# Poissons Ratio (z) = 0.35791 0.24022
#
# Static dielectric constant tensor:
#      x y z
#    x 0.925510 0.000000 0.000000 
#    y 0.000000 1.658290 0.000000 
#    z 0.000000 0.000000 1.898950 
# 
# From -- ./inp_files/20930.got.cif
#   From: 2010.05.17/outbox.cif.g08.bks.cpg/sg56_11_cif.got.tgz:20930.got - 2010.06.03 13:42:01.
