data_PCOD9431325
_publ_section_title
;
Structure prediction by ZEFSAII (Michael W. Deem and Ramdas Pophale) SiO2 
 PCOD9431325
Probable space group: P C C N
;
_chemical_formula_sum "Si O2"
_cell_formula_units_Z 60
_cell_length_a 12.034421
_cell_length_b 23.436229
_cell_length_c 10.128821
_cell_angle_alpha 90.000000
_cell_angle_beta 90.000000
_cell_angle_gamma 90.000000
_cell_volume 2856.747326
_symmetry_space_group_name_H-M "P C C N"
_symmetry_group_IT_number 56
_symmetry_cell_setting 'orthorhombic'
loop_
_space_group_symop_operation_xyz
x,y,z
1/2-x,1/2-y,z
1/2+x,-y,1/2-z
-x,1/2+y,1/2-z
-x,-y,-z
1/2+x,1/2+y,-z
1/2-x,y,1/2+z
x,1/2-y,1/2+z
loop_
_atom_site_type_symbol
_atom_site_label
_atom_site_fract_x
_atom_site_fract_y
_atom_site_fract_z
Si Si1 0.851423 0.792899 0.229366
Si Si2 0.754861 0.880882 0.580397
Si Si3 0.750000 0.250000 0.671348
Si Si4 0.849881 0.319243 0.921291
Si Si5 0.671535 0.449761 0.468450
Si Si6 0.417417 0.214391 0.993493
Si Si7 0.388208 0.027820 0.554251
Si Si8 0.065523 0.472103 0.851025
O O1 0.750000 0.750000 0.256064
O O2 0.798583 0.855787 0.215514
O O3 0.934496 0.782672 0.350096
O O4 0.904836 0.772332 0.090555
O O5 0.805765 0.823293 0.518880
O O6 0.654687 0.915452 0.516604
O O7 0.858231 0.924724 0.577134
O O8 0.809763 0.291328 0.781657
O O9 0.682453 0.286633 0.559370
O O10 0.810000 0.383872 0.938444
O O11 0.983041 0.318486 0.922862
O O12 0.785159 0.483786 0.449140
O O13 0.622388 0.467270 0.612254
O O14 0.564924 0.471173 0.383287
O O15 0.415717 0.042966 0.702111
O O16 0.500000 0.000000 0.500000
#
# Coordination Sequence:
#
# PCOD9431325 Si02
#       8
#     8   8   4   8   8   8   8   8
#     4  10  21  36  62  94 133 167 213 268 331 393
#     4  10  21  41  62  98 131 170 213 273 326 389
#     4  10  26  44  66  94 136 168 232 272 326 400
#     4  11  23  46  66  97 129 178 220 281 326 398
#     4  10  24  43  70  96 128 178 217 269 338 395
#     4  11  21  39  65  96 128 172 218 267 333 391
#     4  11  26  42  65  99 131 169 220 272 329 395
#     4  10  22  42  67  97 131 171 217 269 331 401
#
# _framework density 21.002907
#
# number of rings (size 3 to 8) (size 9 to 14) (size 15 to 20)
#    0.000    1.600    1.333    2.800    5.600    2.133 
#    7.200    0.000    0.000    0.000    0.000    0.000 
#    0.000    0.000    0.000    0.000    0.000    0.000 
#
# Total GULP energy -334063.674841 kJ/mol
# GULP energy per Si atom -5567.727914 kJ/mol
# Density = 2.095510 g / cm^3
# Si number density = 21.002907 Si / 1000 Ang^3
#
#
#
# Elastic Constant Matrix: (Units=GPa)
#
#
# Indices 1 2 3 4 5 6 
#
# 1 96.3488 10.1071 24.3104 0.0000 0.0000 0.0000
# 2 10.1071 50.0490 4.4288 0.0000 0.0000 0.0000
# 3 24.3104 4.4288 76.0837 0.0000 0.0000 0.0000
# 4 0.0000 0.0000 0.0000 14.7459 0.0000 0.0000
# 5 0.0000 0.0000 0.0000 0.0000 20.4199 0.0000
# 6 0.0000 0.0000 0.0000 0.0000 0.0000 28.2990
#
#
#
# Elastic Compliance Matrix: (Units=1/GPa)
#
#
# Indices 1 2 3 4 5 6 
#
# 1 0.011486 -0.002005 -0.003553 0.000000 0.000000 0.000000
# 2 -0.002005 0.020434 -0.000549 0.000000 0.000000 0.000000
# 3 -0.003553 -0.000549 0.014311 0.000000 0.000000 0.000000
# 4 0.000000 0.000000 0.000000 0.067815 0.000000 0.000000
# 5 0.000000 0.000000 0.000000 0.000000 0.048972 0.000000
# 6 0.000000 0.000000 0.000000 0.000000 0.000000 0.035337
#
#
# Mechanical properties :
#
#
# Convention : Reuss Voigt Hill
#
# Bulk Modulus (GPa) = 29.39774 33.35266 31.37520
# Shear Modulus (GPa) = 22.53191 24.93531 23.73361
#
# Velocity S-wave (km/s) = 3.27891 3.44936 3.36522
# Velocity P-wave (km/s) = 5.32564 5.63725 5.48366
#
# Compressibility (1/GPa) = 0.03401623
#
# Stress axis : x y z
#
# Youngs Moduli (GPa) = 87.06375 48.93827 69.87777
#
# Poissons Ratio (x) = 0.09812 0.24829
# Poissons Ratio (y) = 0.17457 0.03835
# Poissons Ratio (z) = 0.30936 0.02686
#
# Static dielectric constant tensor:
#      x y z
#    x 1.754900 0.000000 0.000000 
#    y 0.000000 1.757090 0.000000 
#    z 0.000000 0.000000 1.820220 
# 
# From -- ./inp_files/2903.got.cif
#   From: 2010.05.17/outbox.cif.g08.bks.cpg/sg56_2_cif.got.tgz:2903.got - 2010.06.03 13:42:01.
