data_PCOD9431419
_publ_section_title
;
Structure prediction by ZEFSAII (Michael W. Deem and Ramdas Pophale) SiO2 
 PCOD9431419
Probable space group: P C C N
;
_chemical_formula_sum "Si O2"
_cell_formula_units_Z 24
_cell_length_a 5.087528
_cell_length_b 7.290978
_cell_length_c 25.123633
_cell_angle_alpha 90.000000
_cell_angle_beta 90.000000
_cell_angle_gamma 90.000000
_cell_volume 931.912294
_symmetry_space_group_name_H-M "P C C N"
_symmetry_group_IT_number 56
_symmetry_cell_setting 'orthorhombic'
loop_
_space_group_symop_operation_xyz
x,y,z
1/2-x,1/2-y,z
1/2+x,-y,1/2-z
-x,1/2+y,1/2-z
-x,-y,-z
1/2+x,1/2+y,-z
1/2-x,y,1/2+z
x,1/2-y,1/2+z
loop_
_atom_site_type_symbol
_atom_site_label
_atom_site_fract_x
_atom_site_fract_y
_atom_site_fract_z
Si Si1 0.368661 0.450748 0.782404
Si Si2 0.187427 0.539131 0.399685
Si Si3 0.179916 0.466347 0.051630
O O1 0.250000 0.250000 0.790827
O O2 0.634416 0.446861 0.748617
O O3 0.421012 0.535835 0.840258
O O4 0.250000 0.750000 0.414839
O O5 0.481861 0.460761 0.402685
O O6 0.971111 0.452298 0.439295
O O7 0.250000 0.250000 0.055397
O O8 0.000000 0.500000 0.000000
#
# Coordination Sequence:
#
# PCOD9431419 Si02
#       3
#     8   8   8
#     4  12  25  43  67  97 131 172 218 270 327 390
#     4  10  21  39  62  90 125 166 212 265 320 378
#     4  10  21  38  61  89 123 164 210 263 320 376
#
# _framework density 25.753499999999999
#
# number of rings (size 3 to 8) (size 9 to 14) (size 15 to 20)
#    0.000    1.333    0.000    6.000    0.000    4.000 
#    0.000    3.333    0.000    0.000    0.000    0.000 
#    0.000    0.000    0.000    0.000    0.000    0.000 
#
# Total GULP energy -134108.098513 kJ/mol
# GULP energy per Si atom -5587.837438 kJ/mol
# Density = 2.569488 g / cm^3
# Si number density = 25.753500 Si / 1000 Ang^3
#
#
#
# Elastic Constant Matrix: (Units=GPa)
#
#
# Indices 1 2 3 4 5 6 
#
# 1 237.1135 30.4994 75.5258 0.0000 0.0000 0.0000
# 2 30.4994 57.4097 -19.0837 0.0000 0.0000 0.0000
# 3 75.5258 -19.0837 125.7981 0.0000 0.0000 0.0000
# 4 0.0000 0.0000 0.0000 19.3244 0.0000 0.0000
# 5 0.0000 0.0000 0.0000 0.0000 46.8982 0.0000
# 6 0.0000 0.0000 0.0000 0.0000 0.0000 11.9989
#
#
#
# Elastic Compliance Matrix: (Units=1/GPa)
#
#
# Indices 1 2 3 4 5 6 
#
# 1 0.006270 -0.004826 -0.004497 0.000000 0.000000 0.000000
# 2 -0.004826 0.022058 0.006244 0.000000 0.000000 0.000000
# 3 -0.004497 0.006244 0.011596 0.000000 0.000000 0.000000
# 4 0.000000 0.000000 0.000000 0.051748 0.000000 0.000000
# 5 0.000000 0.000000 0.000000 0.000000 0.021323 0.000000
# 6 0.000000 0.000000 0.000000 0.000000 0.000000 0.083341
#
#
# Mechanical properties :
#
#
# Convention : Reuss Voigt Hill
#
# Bulk Modulus (GPa) = 29.61530 66.02272 47.81901
# Shear Modulus (GPa) = 23.39180 37.86961 30.63070
#
# Velocity S-wave (km/s) = 3.01706 3.83882 3.45248
# Velocity P-wave (km/s) = 4.86430 6.73356 5.87376
#
# Compressibility (1/GPa) = 0.03376633
#
# Stress axis : x y z
#
# Youngs Moduli (GPa) = 159.47823 45.33509 86.23581
#
# Poissons Ratio (x) = 0.21879 0.38778
# Poissons Ratio (y) = 0.76964 -0.53842
# Poissons Ratio (z) = 0.71713 -0.28305
#
# Static dielectric constant tensor:
#      x y z
#    x 2.088160 0.000000 0.000000 
#    y 0.000000 2.093390 0.000000 
#    z 0.000000 0.000000 2.056150 
# 
# From -- ./inp_files/19724.got.cif
#   From: 2010.05.17/outbox.cif.g08.bks.cpg/sg56_10_cif.got.tgz:19724.got - 2010.06.03 13:42:01.
