data_PCOD9431718
_publ_section_title
;
Structure prediction by ZEFSAII (Michael W. Deem and Ramdas Pophale) SiO2 
 PCOD9431718
Probable space group: P C C N
;
_chemical_formula_sum "Si O2"
_cell_formula_units_Z 60
_cell_length_a 12.188350
_cell_length_b 16.031505
_cell_length_c 15.276995
_cell_angle_alpha 90.000000
_cell_angle_beta 90.000000
_cell_angle_gamma 90.000000
_cell_volume 2985.088066
_symmetry_space_group_name_H-M "P C C N"
_symmetry_group_IT_number 56
_symmetry_cell_setting 'orthorhombic'
loop_
_space_group_symop_operation_xyz
x,y,z
1/2-x,1/2-y,z
1/2+x,-y,1/2-z
-x,1/2+y,1/2-z
-x,-y,-z
1/2+x,1/2+y,-z
1/2-x,y,1/2+z
x,1/2-y,1/2+z
loop_
_atom_site_type_symbol
_atom_site_label
_atom_site_fract_x
_atom_site_fract_y
_atom_site_fract_z
Si Si1 0.880042 0.552646 0.684525
Si Si2 0.818231 0.834220 0.348178
Si Si3 0.250000 0.750000 0.856086
Si Si4 0.697829 0.387549 0.259630
Si Si5 0.390686 0.931952 0.628750
Si Si6 0.642835 0.591700 0.982043
Si Si7 0.880516 0.261827 0.891389
Si Si8 0.015512 0.753114 0.940045
O O1 0.830765 0.608868 0.762169
O O2 0.843693 0.457610 0.695735
O O3 0.849789 0.586610 0.587606
O O4 0.011540 0.545292 0.693578
O O5 0.750000 0.750000 0.327498
O O6 0.751268 0.879450 0.427577
O O7 0.938006 0.803934 0.380337
O O8 0.222112 0.672602 0.794015
O O9 0.137705 0.772429 0.904591
O O10 0.768973 0.432880 0.333088
O O11 0.615108 0.323790 0.308515
O O12 0.415474 0.834347 0.614256
O O13 0.391316 0.999643 0.551747
O O14 0.552619 0.661794 0.956198
O O15 0.750000 0.250000 0.910651
O O16 0.954771 0.294870 0.969974
#
# Coordination Sequence:
#
# PCOD9431718 Si02
#       8
#     8   8   4   8   8   8   8   8
#     4  12  24  43  71  95 133 181 219 279 335 396
#     4  10  25  46  65  98 137 174 225 276 332 407
#     4  12  22  38  64 106 126 172 228 278 338 388
#     4  11  24  40  63  98 136 170 218 282 331 399
#     4  11  21  43  65  95 131 168 228 268 328 398
#     4  11  24  44  69  99 132 180 228 268 335 408
#     4  10  21  41  64  93 130 171 217 279 330 393
#     4  11  23  40  68  96 134 175 225 280 332 397
#
# _framework density 20.099910000000001
#
# number of rings (size 3 to 8) (size 9 to 14) (size 15 to 20)
#    0.000    1.067    5.333    2.000    1.867    1.600 
#    2.400    0.667    0.000    0.000    0.000    0.000 
#    0.000    0.000    0.000    0.000    0.000    0.000 
#
# Total GULP energy -334258.497194 kJ/mol
# GULP energy per Si atom -5570.974953 kJ/mol
# Density = 2.005416 g / cm^3
# Si number density = 20.099910 Si / 1000 Ang^3
#
#
#
# Elastic Constant Matrix: (Units=GPa)
#
#
# Indices 1 2 3 4 5 6 
#
# 1 73.6488 32.3321 36.4090 0.0000 0.0000 0.0000
# 2 32.3321 117.1437 63.7166 0.0000 0.0000 0.0000
# 3 36.4090 63.7166 113.9811 0.0000 0.0000 0.0000
# 4 0.0000 0.0000 0.0000 34.9311 0.0000 0.0000
# 5 0.0000 0.0000 0.0000 0.0000 29.1052 0.0000
# 6 0.0000 0.0000 0.0000 0.0000 0.0000 21.6146
#
#
#
# Elastic Compliance Matrix: (Units=1/GPa)
#
#
# Indices 1 2 3 4 5 6 
#
# 1 0.016595 -0.002438 -0.003938 0.000000 0.000000 0.000000
# 2 -0.002438 0.012624 -0.006278 0.000000 0.000000 0.000000
# 3 -0.003938 -0.006278 0.013541 0.000000 0.000000 0.000000
# 4 0.000000 0.000000 0.000000 0.028628 0.000000 0.000000
# 5 0.000000 0.000000 0.000000 0.000000 0.034358 0.000000
# 6 0.000000 0.000000 0.000000 0.000000 0.000000 0.046265
#
#
# Mechanical properties :
#
#
# Convention : Reuss Voigt Hill
#
# Bulk Modulus (GPa) = 57.30240 63.29879 60.30059
# Shear Modulus (GPa) = 27.30184 28.61789 27.95986
#
# Velocity S-wave (km/s) = 3.68952 3.77740 3.73372
# Velocity P-wave (km/s) = 6.83526 7.11234 6.97518
#
# Compressibility (1/GPa) = 0.01745128
#
# Stress axis : x y z
#
# Youngs Moduli (GPa) = 60.25846 79.21161 73.85039
#
# Poissons Ratio (x) = 0.19315 0.29082
# Poissons Ratio (y) = 0.14694 0.46365
# Poissons Ratio (z) = 0.23729 0.49731
#
# Static dielectric constant tensor:
#      x y z
#    x 1.728700 0.000000 0.000000 
#    y 0.000000 1.773540 0.000000 
#    z 0.000000 0.000000 1.812690 
# 
# From -- ./inp_files/15756.got.cif
#   From: 2010.05.17/outbox.cif.g08.bks.cpg/sg56_8_cif.got.tgz:15756.got - 2010.06.03 13:42:01.
