data_PCOD9431175
_publ_section_title
;
Structure prediction by ZEFSAII (Michael W. Deem and Ramdas Pophale) SiO2 
 PCOD9431175
Probable space group: P C C N
;
_chemical_formula_sum "Si O2"
_cell_formula_units_Z 48
_cell_length_a 11.816172
_cell_length_b 11.140882
_cell_length_c 14.384499
_cell_angle_alpha 90.000000
_cell_angle_beta 90.000000
_cell_angle_gamma 90.000000
_cell_volume 1893.612531
_symmetry_space_group_name_H-M "P C C N"
_symmetry_group_IT_number 56
_symmetry_cell_setting 'orthorhombic'
loop_
_space_group_symop_operation_xyz
x,y,z
1/2-x,1/2-y,z
1/2+x,-y,1/2-z
-x,1/2+y,1/2-z
-x,-y,-z
1/2+x,1/2+y,-z
1/2-x,y,1/2+z
x,1/2-y,1/2+z
loop_
_atom_site_type_symbol
_atom_site_label
_atom_site_fract_x
_atom_site_fract_y
_atom_site_fract_z
Si Si1 0.459653 0.446214 0.113526
Si Si2 0.282527 0.614381 0.838504
Si Si3 0.078485 0.045728 0.583185
Si Si4 0.116692 0.265574 0.474140
Si Si5 0.724946 0.379425 0.877905
Si Si6 0.595535 0.917103 0.185113
O O1 0.591579 0.419069 0.129530
O O2 0.578880 0.607406 0.985787
O O3 0.404408 0.579299 0.119539
O O4 0.395699 0.389595 0.205731
O O5 0.250000 0.750000 0.872554
O O6 0.270528 0.625270 0.727143
O O7 0.197852 0.500473 0.854298
O O8 0.084172 0.184437 0.563403
O O9 0.198393 0.981423 0.575908
O O10 0.000000 0.000000 0.500000
O O11 0.013280 0.004273 0.674590
O O12 0.250000 0.250000 0.463457
O O13 0.074373 0.199138 0.379952
O O14 0.750000 0.250000 0.919890
#
# Coordination Sequence:
#
# PCOD9431175 Si02
#       6
#     8   8   8   8   8   8
#     4  11  22  43  74 104 140 189 239 302 361 441
#     4  10  21  42  71 104 138 183 244 299 364 441
#     4  10  20  42  67  91 135 187 226 290 367 423
#     4  11  23  42  66 100 141 176 236 290 353 440
#     4  10  21  41  67 104 135 183 242 292 362 440
#     4  10  23  43  67 103 144 183 235 298 371 428
#
# _framework density 25.348375000000001
#
# number of rings (size 3 to 8) (size 9 to 14) (size 15 to 20)
#    0.000    1.667    3.333    1.000    0.000    0.667 
#    6.000   10.833    0.000    0.000    0.000    0.000 
#    0.000    0.000    0.000    0.000    0.000    0.000 
#
# Total GULP energy -268071.710238 kJ/mol
# GULP energy per Si atom -5584.827297 kJ/mol
# Density = 2.529068 g / cm^3
# Si number density = 25.348375 Si / 1000 Ang^3
#
#
#
# Elastic Constant Matrix: (Units=GPa)
#
#
# Indices 1 2 3 4 5 6 
#
# 1 151.3364 58.9521 18.6777 0.0000 0.0000 0.0000
# 2 58.9521 128.7257 39.2206 0.0000 0.0000 0.0000
# 3 18.6777 39.2206 140.4559 0.0000 0.0000 0.0000
# 4 0.0000 0.0000 0.0000 18.7875 0.0000 0.0000
# 5 0.0000 0.0000 0.0000 0.0000 27.7511 0.0000
# 6 0.0000 0.0000 0.0000 0.0000 0.0000 40.3752
#
#
#
# Elastic Compliance Matrix: (Units=1/GPa)
#
#
# Indices 1 2 3 4 5 6 
#
# 1 0.008043 -0.003670 -0.000045 0.000000 0.000000 0.000000
# 2 -0.003670 0.010165 -0.002351 0.000000 0.000000 0.000000
# 3 -0.000045 -0.002351 0.007782 0.000000 0.000000 0.000000
# 4 0.000000 0.000000 0.000000 0.053227 0.000000 0.000000
# 5 0.000000 0.000000 0.000000 0.000000 0.036035 0.000000
# 6 0.000000 0.000000 0.000000 0.000000 0.000000 0.024768
#
#
# Mechanical properties :
#
#
# Convention : Reuss Voigt Hill
#
# Bulk Modulus (GPa) = 72.15016 72.69097 72.42056
# Shear Modulus (GPa) = 31.89397 37.62725 34.76061
#
# Velocity S-wave (km/s) = 3.55100 3.85698 3.70714
# Velocity P-wave (km/s) = 6.73335 6.96951 6.85245
#
# Compressibility (1/GPa) = 0.01385998
#
# Stress axis : x y z
#
# Youngs Moduli (GPa) = 124.33438 98.37471 128.50188
#
# Poissons Ratio (x) = 0.36100 0.00576
# Poissons Ratio (y) = 0.45627 0.30205
# Poissons Ratio (z) = 0.00557 0.23123
#
# Static dielectric constant tensor:
#      x y z
#    x 1.961980 0.000000 0.000000 
#    y 0.000000 1.969250 0.000000 
#    z 0.000000 0.000000 2.042770 
# 
# From -- ./inp_files/15583.got.cif
#   From: 2010.05.17/outbox.cif.g08.bks.cpg/sg56_8_cif.got.tgz:15583.got - 2010.06.03 13:42:01.
