data_PCOD9431745
_publ_section_title
;
Structure prediction by ZEFSAII (Michael W. Deem and Ramdas Pophale) SiO2 
 PCOD9431745
Probable space group: P C C N
;
_chemical_formula_sum "Si O2"
_cell_formula_units_Z 40
_cell_length_a 6.407734
_cell_length_b 15.880426
_cell_length_c 17.096921
_cell_angle_alpha 90.000000
_cell_angle_beta 90.000000
_cell_angle_gamma 90.000000
_cell_volume 1739.740719
_symmetry_space_group_name_H-M "P C C N"
_symmetry_group_IT_number 56
_symmetry_cell_setting 'orthorhombic'
loop_
_space_group_symop_operation_xyz
x,y,z
1/2-x,1/2-y,z
1/2+x,-y,1/2-z
-x,1/2+y,1/2-z
-x,-y,-z
1/2+x,1/2+y,-z
1/2-x,y,1/2+z
x,1/2-y,1/2+z
loop_
_atom_site_type_symbol
_atom_site_label
_atom_site_fract_x
_atom_site_fract_y
_atom_site_fract_z
Si Si1 0.572808 0.911863 0.091558
Si Si2 0.297663 0.342870 0.043111
Si Si3 0.009740 0.772224 0.110614
Si Si4 0.405454 0.548911 0.847611
Si Si5 0.687541 0.411170 0.795497
O O1 0.603439 0.816464 0.126488
O O2 0.350801 0.930215 0.133116
O O3 0.599946 0.891357 0.998039
O O4 0.742775 0.983483 0.112092
O O5 0.250000 0.250000 0.078653
O O6 0.440736 0.402475 0.094881
O O7 0.431529 0.318345 0.966696
O O8 0.250000 0.750000 0.092338
O O9 0.464166 0.663890 0.180826
O O10 0.548634 0.493855 0.789557
O O11 0.287974 0.609146 0.787420
#
# Coordination Sequence:
#
# PCOD9431745 Si02
#       5
#     8   8   8   8   8
#     4  10  21  41  68  94 126 177 227 275 335 411
#     4  10  22  43  66  95 133 170 227 286 340 401
#     4   9  20  41  65  95 126 177 222 272 340 415
#     4  12  23  41  65 101 134 174 224 289 337 408
#     4  11  23  40  65  96 135 172 227 272 346 410
#
# _framework density 22.991931000000001
#
# number of rings (size 3 to 8) (size 9 to 14) (size 15 to 20)
#    0.000    1.600    4.000    0.600    0.000    0.800 
#    7.200   14.000    0.000    0.000    0.000    0.000 
#    0.000    0.000    0.000    0.000    0.000    0.000 
#
# Total GULP energy -222918.812215 kJ/mol
# GULP energy per Si atom -5572.970305 kJ/mol
# Density = 2.293960 g / cm^3
# Si number density = 22.991931 Si / 1000 Ang^3
#
#
#
# Elastic Constant Matrix: (Units=GPa)
#
#
# Indices 1 2 3 4 5 6 
#
# 1 62.0937 39.7543 28.7823 0.0000 0.0000 0.0000
# 2 39.7543 102.5119 49.2912 0.0000 0.0000 0.0000
# 3 28.7823 49.2912 55.1578 0.0000 0.0000 0.0000
# 4 0.0000 0.0000 0.0000 13.6540 0.0000 0.0000
# 5 0.0000 0.0000 0.0000 0.0000 37.5692 0.0000
# 6 0.0000 0.0000 0.0000 0.0000 0.0000 49.5905
#
#
#
# Elastic Compliance Matrix: (Units=1/GPa)
#
#
# Indices 1 2 3 4 5 6 
#
# 1 0.022880 -0.005492 -0.007031 0.000000 0.000000 0.000000
# 2 -0.005492 0.018423 -0.013598 0.000000 0.000000 0.000000
# 3 -0.007031 -0.013598 0.033950 0.000000 0.000000 0.000000
# 4 0.000000 0.000000 0.000000 0.073239 0.000000 0.000000
# 5 0.000000 0.000000 0.000000 0.000000 0.026618 0.000000
# 6 0.000000 0.000000 0.000000 0.000000 0.000000 0.020165
#
#
# Mechanical properties :
#
#
# Convention : Reuss Voigt Hill
#
# Bulk Modulus (GPa) = 43.45693 50.60212 47.02952
# Shear Modulus (GPa) = 19.59343 26.95843 23.27593
#
# Velocity S-wave (km/s) = 2.92239 3.42792 3.18520
# Velocity P-wave (km/s) = 5.50719 6.14198 5.83323
#
# Compressibility (1/GPa) = 0.02301129
#
# Stress axis : x y z
#
# Youngs Moduli (GPa) = 43.70610 54.27990 29.45474
#
# Poissons Ratio (x) = 0.29811 0.20711
# Poissons Ratio (y) = 0.24003 0.40052
# Poissons Ratio (z) = 0.30731 0.73808
#
# Static dielectric constant tensor:
#      x y z
#    x 2.060120 0.000000 0.000000 
#    y 0.000000 1.937720 0.000000 
#    z 0.000000 0.000000 1.817160 
# 
# From -- ./inp_files/14611.got.cif
#   From: 2010.05.17/outbox.cif.g08.bks.cpg/sg56_8_cif.got.tgz:14611.got - 2010.06.03 13:42:01.
