data_PCOD9431474
_publ_section_title
;
Structure prediction by ZEFSAII (Michael W. Deem and Ramdas Pophale) SiO2 
 PCOD9431474
Probable space group: P C C N
;
_chemical_formula_sum "Si O2"
_cell_formula_units_Z 48
_cell_length_a 8.083358
_cell_length_b 18.056285
_cell_length_c 16.188813
_cell_angle_alpha 90.000000
_cell_angle_beta 90.000000
_cell_angle_gamma 90.000000
_cell_volume 2362.844933
_symmetry_space_group_name_H-M "P C C N"
_symmetry_group_IT_number 56
_symmetry_cell_setting 'orthorhombic'
loop_
_space_group_symop_operation_xyz
x,y,z
1/2-x,1/2-y,z
1/2+x,-y,1/2-z
-x,1/2+y,1/2-z
-x,-y,-z
1/2+x,1/2+y,-z
1/2-x,y,1/2+z
x,1/2-y,1/2+z
loop_
_atom_site_type_symbol
_atom_site_label
_atom_site_fract_x
_atom_site_fract_y
_atom_site_fract_z
Si Si1 0.151215 0.324341 0.589678
Si Si2 0.650723 0.556814 0.664865
Si Si3 0.021978 0.806969 0.735378
Si Si4 0.632406 0.945832 0.820881
Si Si5 0.538643 0.925570 0.549004
Si Si6 0.611077 0.356517 0.795619
O O1 0.250000 0.250000 0.567739
O O2 0.269592 0.393304 0.616198
O O3 0.048843 0.357156 0.513926
O O4 0.043080 0.304587 0.670667
O O5 0.601733 0.640616 0.686076
O O6 0.738584 0.527522 0.749715
O O7 0.485094 0.510770 0.645491
O O8 0.787139 0.559055 0.594369
O O9 0.038752 0.726504 0.695387
O O10 0.201422 0.845172 0.732544
O O11 0.502967 0.893555 0.773155
O O12 0.410926 0.903921 0.621323
O O13 0.500000 0.000000 0.500000
#
# Coordination Sequence:
#
# PCOD9431474 Si02
#       6
#     8   8   8   8   8   8
#     4  11  24  44  67  98 132 168 221 275 339 397
#     4  10  23  38  67  91 131 171 225 266 329 385
#     4  10  22  42  70  96 120 176 229 271 319 400
#     4  10  21  38  67  92 122 174 224 266 312 398
#     4  11  28  43  62  97 143 175 214 280 341 396
#     4  10  22  43  66  93 133 170 223 272 328 391
#
# _framework density 20.314494
#
# number of rings (size 3 to 8) (size 9 to 14) (size 15 to 20)
#    0.000    1.667    1.667    1.000   16.333    0.667 
#    0.000    3.333    0.000    0.000    0.000    0.000 
#    0.000    0.000    0.000    0.000    0.000    0.000 
#
# Total GULP energy -268241.390762 kJ/mol
# GULP energy per Si atom -5588.362308 kJ/mol
# Density = 2.026826 g / cm^3
# Si number density = 20.314494 Si / 1000 Ang^3
#
#
#
# Elastic Constant Matrix: (Units=GPa)
#
#
# Indices 1 2 3 4 5 6 
#
# 1 65.3930 17.0534 3.2789 0.0000 0.0000 0.0000
# 2 17.0534 72.4244 15.2319 0.0000 0.0000 0.0000
# 3 3.2789 15.2319 49.9507 0.0000 0.0000 0.0000
# 4 0.0000 0.0000 0.0000 30.2896 0.0000 0.0000
# 5 0.0000 0.0000 0.0000 0.0000 11.9347 0.0000
# 6 0.0000 0.0000 0.0000 0.0000 0.0000 46.6527
#
#
#
# Elastic Compliance Matrix: (Units=1/GPa)
#
#
# Indices 1 2 3 4 5 6 
#
# 1 0.016293 -0.003859 0.000107 0.000000 0.000000 0.000000
# 2 -0.003859 0.015668 -0.004524 0.000000 0.000000 0.000000
# 3 0.000107 -0.004524 0.021392 0.000000 0.000000 0.000000
# 4 0.000000 0.000000 0.000000 0.033015 0.000000 0.000000
# 5 0.000000 0.000000 0.000000 0.000000 0.083789 0.000000
# 6 0.000000 0.000000 0.000000 0.000000 0.000000 0.021435
#
#
# Mechanical properties :
#
#
# Convention : Reuss Voigt Hill
#
# Bulk Modulus (GPa) = 27.17323 28.76626 27.96975
# Shear Modulus (GPa) = 22.68489 27.92234 25.30362
#
# Velocity S-wave (km/s) = 3.34531 3.71145 3.53313
# Velocity P-wave (km/s) = 5.32229 5.70594 5.51745
#
# Compressibility (1/GPa) = 0.03680092
#
# Stress axis : x y z
#
# Youngs Moduli (GPa) = 61.37551 63.82565 46.74569
#
# Poissons Ratio (x) = 0.24630 -0.00501
# Poissons Ratio (y) = 0.23685 0.21149
# Poissons Ratio (z) = -0.00658 0.28877
#
# Static dielectric constant tensor:
#      x y z
#    x 1.730890 0.000000 0.000000 
#    y 0.000000 1.741310 0.000000 
#    z 0.000000 0.000000 1.684910 
# 
# From -- ./inp_files/10642.got.cif
#   From: 2010.05.17/outbox.cif.g08.bks.cpg/sg56_6_cif.got.tgz:10642.got - 2010.06.03 13:42:01.
