data_PCOD9431101
_publ_section_title
;
Structure prediction by ZEFSAII (Michael W. Deem and Ramdas Pophale) SiO2 
 PCOD9431101
Probable space group: P C C N
;
_chemical_formula_sum "Si O2"
_cell_formula_units_Z 44
_cell_length_a 7.372113
_cell_length_b 16.319938
_cell_length_c 13.877238
_cell_angle_alpha 90.000000
_cell_angle_beta 90.000000
_cell_angle_gamma 90.000000
_cell_volume 1669.604185
_symmetry_space_group_name_H-M "P C C N"
_symmetry_group_IT_number 56
_symmetry_cell_setting 'orthorhombic'
loop_
_space_group_symop_operation_xyz
x,y,z
1/2-x,1/2-y,z
1/2+x,-y,1/2-z
-x,1/2+y,1/2-z
-x,-y,-z
1/2+x,1/2+y,-z
1/2-x,y,1/2+z
x,1/2-y,1/2+z
loop_
_atom_site_type_symbol
_atom_site_label
_atom_site_fract_x
_atom_site_fract_y
_atom_site_fract_z
Si Si1 0.900943 0.321217 0.540272
Si Si2 0.758612 0.056576 0.414290
Si Si3 0.250000 0.250000 0.368368
Si Si4 0.708915 0.438211 0.691212
Si Si5 0.663597 0.917663 0.047164
Si Si6 0.036793 0.776734 0.292694
O O1 0.750000 0.250000 0.518098
O O2 0.894761 0.378693 0.445875
O O3 0.842572 0.389891 0.619682
O O4 0.029803 0.266542 0.608954
O O5 0.774028 0.053685 0.300234
O O6 0.945879 0.087147 0.464369
O O7 0.740557 0.966812 0.460897
O O8 0.240939 0.170592 0.433711
O O9 0.422024 0.250854 0.297898
O O10 0.681493 0.525229 0.641866
O O11 0.539422 0.375042 0.696183
O O12 0.250000 0.750000 0.277589
#
# Coordination Sequence:
#
# PCOD9431101 Si02
#       6
#     8   8   4   8   8   8
#     4   8  17  35  65 101 123 174 243 276 354 430
#     4  10  20  40  71  93 139 196 240 302 361 448
#     4  12  24  42  72 108 144 184 248 308 364 436
#     4   9  19  38  67  91 133 188 232 284 367 430
#     4  10  23  39  66 103 140 187 245 301 374 427
#     4   9  20  41  69 101 140 187 237 291 367 438
#
# _framework density 26.353553999999999
#
# number of rings (size 3 to 8) (size 9 to 14) (size 15 to 20)
#    0.000    2.909    0.000    2.182    2.545    4.364 
#    0.000    1.818    8.000    0.000    0.000    0.000 
#    0.000    0.000    0.000    0.000    0.000    0.000 
#
# Total GULP energy -246009.576363 kJ/mol
# GULP energy per Si atom -5591.126736 kJ/mol
# Density = 2.629357 g / cm^3
# Si number density = 26.353554 Si / 1000 Ang^3
#
#
#
# Elastic Constant Matrix: (Units=GPa)
#
#
# Indices 1 2 3 4 5 6 
#
# 1 91.9029 33.6073 20.9952 0.0000 0.0000 0.0000
# 2 33.6073 193.6129 56.9797 0.0000 0.0000 0.0000
# 3 20.9952 56.9797 145.5296 0.0000 0.0000 0.0000
# 4 0.0000 0.0000 0.0000 33.4906 0.0000 0.0000
# 5 0.0000 0.0000 0.0000 0.0000 19.7944 0.0000
# 6 0.0000 0.0000 0.0000 0.0000 0.0000 21.9390
#
#
#
# Elastic Compliance Matrix: (Units=1/GPa)
#
#
# Indices 1 2 3 4 5 6 
#
# 1 0.011749 -0.001741 -0.001013 0.000000 0.000000 0.000000
# 2 -0.001741 0.006096 -0.002135 0.000000 0.000000 0.000000
# 3 -0.001013 -0.002135 0.007854 0.000000 0.000000 0.000000
# 4 0.000000 0.000000 0.000000 0.029859 0.000000 0.000000
# 5 0.000000 0.000000 0.000000 0.000000 0.050519 0.000000
# 6 0.000000 0.000000 0.000000 0.000000 0.000000 0.045581
#
#
# Mechanical properties :
#
#
# Convention : Reuss Voigt Hill
#
# Bulk Modulus (GPa) = 62.81910 72.68998 67.75454
# Shear Modulus (GPa) = 29.98604 36.34234 33.16419
#
# Velocity S-wave (km/s) = 3.37684 3.71756 3.55129
# Velocity P-wave (km/s) = 6.25243 6.78745 6.52543
#
# Compressibility (1/GPa) = 0.01591872
#
# Stress axis : x y z
#
# Youngs Moduli (GPa) = 85.11169 164.05166 127.32787
#
# Poissons Ratio (x) = 0.28565 0.12902
# Poissons Ratio (y) = 0.14820 0.27190
# Poissons Ratio (z) = 0.08624 0.35032
#
# Static dielectric constant tensor:
#      x y z
#    x 2.263620 0.000000 0.000000 
#    y 0.000000 2.080400 0.000000 
#    z 0.000000 0.000000 2.041880 
# 
# From -- ./inp_files/10598.got.cif
#   From: 2010.05.17/outbox.cif.g08.bks.cpg/sg56_6_cif.got.tgz:10598.got - 2010.06.03 13:42:01.
