data_PCOD9431785
_publ_section_title
;
Structure prediction by ZEFSAII (Michael W. Deem and Ramdas Pophale) SiO2 
 PCOD9431785
Probable space group: P C C N
;
_chemical_formula_sum "Si O2"
_cell_formula_units_Z 64
_cell_length_a 8.983664
_cell_length_b 13.549138
_cell_length_c 23.046738
_cell_angle_alpha 90.000000
_cell_angle_beta 90.000000
_cell_angle_gamma 90.000000
_cell_volume 2805.269767
_symmetry_space_group_name_H-M "P C C N"
_symmetry_group_IT_number 56
_symmetry_cell_setting 'orthorhombic'
loop_
_space_group_symop_operation_xyz
x,y,z
1/2-x,1/2-y,z
1/2+x,-y,1/2-z
-x,1/2+y,1/2-z
-x,-y,-z
1/2+x,1/2+y,-z
1/2-x,y,1/2+z
x,1/2-y,1/2+z
loop_
_atom_site_type_symbol
_atom_site_label
_atom_site_fract_x
_atom_site_fract_y
_atom_site_fract_z
Si Si1 0.072417 0.758722 0.741813
Si Si2 0.508346 0.882240 0.128501
Si Si3 0.763240 0.547359 0.872553
Si Si4 0.237724 0.960813 0.865055
Si Si5 0.085000 0.697792 0.572586
Si Si6 0.516126 0.205875 0.139428
Si Si7 0.971703 0.439614 0.314039
Si Si8 0.494697 0.876904 0.448771
O O1 0.250000 0.750000 0.735999
O O2 0.017853 0.831963 0.691621
O O3 0.017399 0.645646 0.733046
O O4 0.022747 0.781356 0.806888
O O5 0.518015 0.792577 0.083892
O O6 0.371774 0.955474 0.113533
O O7 0.652938 0.948152 0.127618
O O8 0.869498 0.639417 0.860470
O O9 0.668108 0.512920 0.816533
O O10 0.647778 0.576620 0.923785
O O11 0.340600 0.865477 0.854826
O O12 0.138652 0.940298 0.921426
O O13 0.119472 0.995579 0.817158
O O14 0.250000 0.750000 0.570731
O O15 0.060306 0.626020 0.627612
O O16 0.035456 0.639150 0.515992
O O17 0.519643 0.269477 0.081290
#
# Coordination Sequence:
#
# PCOD9431785 Si02
#       8
#     8   8   8   8   8   8   8   8
#     4  11  21  40  73  95 136 173 220 272 345 386
#     4  10  21  45  68 102 126 176 226 281 322 404
#     4  10  21  44  67  94 129 167 231 259 323 403
#     4  10  23  42  65  94 137 165 229 268 333 393
#     4  11  21  41  72  96 134 174 224 274 346 388
#     4  11  24  44  62  95 134 179 212 273 336 405
#     4  10  21  42  66 102 129 174 218 282 324 402
#     4  11  24  45  63  93 138 177 213 273 345 393
#
# _framework density 22.814204
#
# number of rings (size 3 to 8) (size 9 to 14) (size 15 to 20)
#    0.000    1.500    2.500    3.000    0.000    5.000 
#   22.500    1.875    0.000    0.000    0.000    0.000 
#    0.000    0.000    0.000    0.000    0.000    0.000 
#
# Total GULP energy -357959.039328 kJ/mol
# GULP energy per Si atom -5593.109990 kJ/mol
# Density = 2.276228 g / cm^3
# Si number density = 22.814204 Si / 1000 Ang^3
#
#
#
# Elastic Constant Matrix: (Units=GPa)
#
#
# Indices 1 2 3 4 5 6 
#
# 1 119.2619 45.9746 15.5779 0.0000 0.0000 0.0000
# 2 45.9746 108.3872 8.3062 0.0000 0.0000 0.0000
# 3 15.5779 8.3062 84.9655 0.0000 0.0000 0.0000
# 4 0.0000 0.0000 0.0000 22.2854 0.0000 0.0000
# 5 0.0000 0.0000 0.0000 0.0000 11.4502 0.0000
# 6 0.0000 0.0000 0.0000 0.0000 0.0000 36.3963
#
#
#
# Elastic Compliance Matrix: (Units=1/GPa)
#
#
# Indices 1 2 3 4 5 6 
#
# 1 0.010200 -0.004215 -0.001458 0.000000 0.000000 0.000000
# 2 -0.004215 0.011037 -0.000306 0.000000 0.000000 0.000000
# 3 -0.001458 -0.000306 0.012067 0.000000 0.000000 0.000000
# 4 0.000000 0.000000 0.000000 0.044872 0.000000 0.000000
# 5 0.000000 0.000000 0.000000 0.000000 0.087335 0.000000
# 6 0.000000 0.000000 0.000000 0.000000 0.000000 0.027475
#
#
# Mechanical properties :
#
#
# Convention : Reuss Voigt Hill
#
# Bulk Modulus (GPa) = 46.84724 50.25912 48.55318
# Shear Modulus (GPa) = 23.57819 30.21012 26.89415
#
# Velocity S-wave (km/s) = 3.21828 3.64288 3.43714
# Velocity P-wave (km/s) = 5.86418 6.30648 6.08934
#
# Compressibility (1/GPa) = 0.02134597
#
# Stress axis : x y z
#
# Youngs Moduli (GPa) = 98.03765 90.60051 82.87228
#
# Poissons Ratio (x) = 0.38187 0.12084
# Poissons Ratio (y) = 0.41322 0.02538
# Poissons Ratio (z) = 0.14295 0.02775
#
# Static dielectric constant tensor:
#      x y z
#    x 1.847840 0.000000 0.000000 
#    y 0.000000 1.882810 0.000000 
#    z 0.000000 0.000000 1.819450 
# 
# From -- ./inp_files/20665.got.cif
#   From: 2010.05.17/outbox.cif.g08.bks.cpg/sg56_11_cif.got.tgz:20665.got - 2010.06.03 13:42:01.
