data_PCOD9431019
_publ_section_title
;
Structure prediction by ZEFSAII (Michael W. Deem and Ramdas Pophale) SiO2 
 PCOD9431019
Probable space group: P C C N
;
_chemical_formula_sum "Si O2"
_cell_formula_units_Z 48
_cell_length_a 8.040747
_cell_length_b 17.437701
_cell_length_c 14.038360
_cell_angle_alpha 90.000000
_cell_angle_beta 90.000000
_cell_angle_gamma 90.000000
_cell_volume 1968.348526
_symmetry_space_group_name_H-M "P C C N"
_symmetry_group_IT_number 56
_symmetry_cell_setting 'orthorhombic'
loop_
_space_group_symop_operation_xyz
x,y,z
1/2-x,1/2-y,z
1/2+x,-y,1/2-z
-x,1/2+y,1/2-z
-x,-y,-z
1/2+x,1/2+y,-z
1/2-x,y,1/2+z
x,1/2-y,1/2+z
loop_
_atom_site_type_symbol
_atom_site_label
_atom_site_fract_x
_atom_site_fract_y
_atom_site_fract_z
Si Si1 0.676932 0.082669 0.063858
Si Si2 0.521130 0.669847 0.592296
Si Si3 0.685207 0.918864 0.497966
Si Si4 0.486749 0.654839 0.144822
Si Si5 0.341303 0.073089 0.191748
Si Si6 0.160711 0.600672 0.252949
O O1 0.509135 0.069290 0.126815
O O2 0.810174 0.118357 0.136650
O O3 0.737953 0.000749 0.026335
O O4 0.620210 0.136714 0.978313
O O5 0.690923 0.645298 0.541274
O O6 0.502178 0.759356 0.608476
O O7 0.498368 0.628200 0.694202
O O8 0.517977 0.903321 0.556854
O O9 0.694628 0.913304 0.384134
O O10 0.620952 0.634847 0.227150
O O11 0.312766 0.640041 0.196490
O O12 0.321432 0.990744 0.241041
#
# Coordination Sequence:
#
# PCOD9431019 Si02
#       6
#     8   8   8   8   8   8
#     4  10  20  39  72  93 124 183 232 267 339 405
#     4  11  22  44  64  94 139 179 214 287 346 394
#     4  11  20  41  70  94 127 180 232 272 332 406
#     4  11  25  39  63 103 137 168 227 284 337 396
#     4  10  20  40  67  96 125 176 226 270 327 409
#     4  11  21  40  70  96 133 173 227 276 335 406
#
# _framework density 24.385926999999999
#
# number of rings (size 3 to 8) (size 9 to 14) (size 15 to 20)
#    0.000    1.333    5.000    2.000    0.000    0.667 
#    0.000   20.000    0.000    0.000    0.000    0.000 
#    0.000    0.000    0.000    0.000    0.000    0.000 
#
# Total GULP energy -269003.948002 kJ/mol
# GULP energy per Si atom -5604.248917 kJ/mol
# Density = 2.433042 g / cm^3
# Si number density = 24.385927 Si / 1000 Ang^3
#
#
#
# Elastic Constant Matrix: (Units=GPa)
#
#
# Indices 1 2 3 4 5 6 
#
# 1 63.3465 16.3298 14.8869 0.0000 0.0000 0.0000
# 2 16.3298 157.1278 43.8214 0.0000 0.0000 0.0000
# 3 14.8869 43.8214 156.3284 0.0000 0.0000 0.0000
# 4 0.0000 0.0000 0.0000 33.9808 0.0000 0.0000
# 5 0.0000 0.0000 0.0000 0.0000 41.4620 0.0000
# 6 0.0000 0.0000 0.0000 0.0000 0.0000 20.5770
#
#
#
# Elastic Compliance Matrix: (Units=1/GPa)
#
#
# Indices 1 2 3 4 5 6 
#
# 1 0.016418 -0.001378 -0.001177 0.000000 0.000000 0.000000
# 2 -0.001378 0.007020 -0.001836 0.000000 0.000000 0.000000
# 3 -0.001177 -0.001836 0.007024 0.000000 0.000000 0.000000
# 4 0.000000 0.000000 0.000000 0.029428 0.000000 0.000000
# 5 0.000000 0.000000 0.000000 0.000000 0.024118 0.000000
# 6 0.000000 0.000000 0.000000 0.000000 0.000000 0.048598
#
#
# Mechanical properties :
#
#
# Convention : Reuss Voigt Hill
#
# Bulk Modulus (GPa) = 46.12960 58.54211 52.33585
# Shear Modulus (GPa) = 33.64385 39.32160 36.48272
#
# Velocity S-wave (km/s) = 3.71838 4.01991 3.87208
# Velocity P-wave (km/s) = 6.11496 6.75314 6.44196
#
# Compressibility (1/GPa) = 0.02167806
#
# Stress axis : x y z
#
# Youngs Moduli (GPa) = 60.90856 142.45753 142.37526
#
# Poissons Ratio (x) = 0.19630 0.16760
# Poissons Ratio (y) = 0.08393 0.26147
# Poissons Ratio (z) = 0.07170 0.26162
#
# Static dielectric constant tensor:
#      x y z
#    x 2.078150 0.000000 0.000000 
#    y 0.000000 1.832680 0.000000 
#    z 0.000000 0.000000 1.938030 
# 
# From -- ./inp_files/10644.got.cif
#   From: 2010.05.17/outbox.cif.g08.bks.cpg/sg56_6_cif.got.tgz:10644.got - 2010.06.03 13:42:01.
