data_PCOD9431911
_publ_section_title
;
Structure prediction by ZEFSAII (Michael W. Deem and Ramdas Pophale) SiO2 
 PCOD9431911
Probable space group: P C C N
;
_chemical_formula_sum "Si O2"
_cell_formula_units_Z 40
_cell_length_a 18.805929
_cell_length_b 5.336423
_cell_length_c 17.782780
_cell_angle_alpha 90.000000
_cell_angle_beta 90.000000
_cell_angle_gamma 90.000000
_cell_volume 1784.615641
_symmetry_space_group_name_H-M "P C C N"
_symmetry_group_IT_number 56
_symmetry_cell_setting 'orthorhombic'
loop_
_space_group_symop_operation_xyz
x,y,z
1/2-x,1/2-y,z
1/2+x,-y,1/2-z
-x,1/2+y,1/2-z
-x,-y,-z
1/2+x,1/2+y,-z
1/2-x,y,1/2+z
x,1/2-y,1/2+z
loop_
_atom_site_type_symbol
_atom_site_label
_atom_site_fract_x
_atom_site_fract_y
_atom_site_fract_z
Si Si1 0.305280 0.070909 0.355706
Si Si2 0.750000 0.250000 0.012441
Si Si3 0.311850 0.061029 0.603264
Si Si4 0.954385 0.727965 0.161393
Si Si5 0.750000 0.250000 0.761647
Si Si6 0.541424 0.727782 0.842375
O O1 0.250000 0.250000 0.315009
O O2 0.377350 0.213724 0.372914
O O3 0.262480 0.971305 0.427611
O O4 0.312006 0.849086 0.294597
O O5 0.687150 0.324146 0.954031
O O6 0.250000 0.250000 0.577291
O O7 0.384121 0.211762 0.614475
O O8 0.286448 0.946298 0.682321
O O9 0.945164 0.731797 0.252229
O O10 0.992644 0.468737 0.140011
O O11 0.002155 0.966957 0.141169
#
# Coordination Sequence:
#
# PCOD9431911 Si02
#       6
#     8   4   8   8   4   8
#     4  11  23  42  67  96 131 178 229 283 337 413
#     4  10  26  42  68  90 140 178 240 278 344 392
#     4  11  23  42  67  96 131 178 229 283 337 413
#     4  10  23  39  65 100 137 172 216 286 353 405
#     4  10  22  34  72 100 124 166 236 282 346 402
#     4  10  23  39  65 100 137 172 216 286 353 405
#
# _framework density 22.413788
#
# number of rings (size 3 to 8) (size 9 to 14) (size 15 to 20)
#    0.000    1.600    0.000    3.600   19.600    0.000 
#    0.000    2.000    0.000    0.000    0.000    0.000 
#    0.000    0.000    0.000    0.000    0.000    0.000 
#
# Total GULP energy -223071.966513 kJ/mol
# GULP energy per Si atom -5576.799163 kJ/mol
# Density = 2.236277 g / cm^3
# Si number density = 22.413788 Si / 1000 Ang^3
#
#
#
# Elastic Constant Matrix: (Units=GPa)
#
#
# Indices 1 2 3 4 5 6 
#
# 1 102.4545 43.1048 9.0754 0.0000 0.0000 0.0000
# 2 43.1048 112.3171 38.7675 0.0000 0.0000 0.0000
# 3 9.0754 38.7675 83.6740 0.0000 0.0000 0.0000
# 4 0.0000 0.0000 0.0000 3.5525 0.0000 0.0000
# 5 0.0000 0.0000 0.0000 0.0000 1.0586 0.0000
# 6 0.0000 0.0000 0.0000 0.0000 0.0000 45.6855
#
#
#
# Elastic Compliance Matrix: (Units=1/GPa)
#
#
# Indices 1 2 3 4 5 6 
#
# 1 0.011705 -0.004826 0.000966 0.000000 0.000000 0.000000
# 2 -0.004826 0.012588 -0.005309 0.000000 0.000000 0.000000
# 3 0.000966 -0.005309 0.014306 0.000000 0.000000 0.000000
# 4 0.000000 0.000000 0.000000 0.281494 0.000000 0.000000
# 5 0.000000 0.000000 0.000000 0.000000 0.944613 0.000000
# 6 0.000000 0.000000 0.000000 0.000000 0.000000 0.021889
#
#
# Mechanical properties :
#
#
# Convention : Reuss Voigt Hill
#
# Bulk Modulus (GPa) = 49.35215 53.37124 51.36170
# Shear Modulus (GPa) = 3.81189 23.89253 13.85221
#
# Velocity S-wave (km/s) = 1.30552 3.26847 2.48870
# Velocity P-wave (km/s) = 4.93345 6.17311 5.58777
#
# Compressibility (1/GPa) = 0.02026254
#
# Stress axis : x y z
#
# Youngs Moduli (GPa) = 85.43280 79.44263 69.90106
#
# Poissons Ratio (x) = 0.38336 -0.06754
# Poissons Ratio (y) = 0.41227 0.37108
# Poissons Ratio (z) = -0.08255 0.42174
#
# Static dielectric constant tensor:
#      x y z
#    x 1.835080 0.000000 0.000000 
#    y 0.000000 1.935900 0.000000 
#    z 0.000000 0.000000 1.843290 
# 
# From -- ./inp_files/16484.got.cif
#   From: 2010.05.17/outbox.cif.g08.bks.cpg/sg56_9_cif.got.tgz:16484.got - 2010.06.03 13:42:01.
