data_PCOD9431149
_publ_section_title
;
Structure prediction by ZEFSAII (Michael W. Deem and Ramdas Pophale) SiO2 
 PCOD9431149
Probable space group: P C C N
;
_chemical_formula_sum "Si O2"
_cell_formula_units_Z 60
_cell_length_a 8.736898
_cell_length_b 17.713947
_cell_length_c 18.694053
_cell_angle_alpha 90.000000
_cell_angle_beta 90.000000
_cell_angle_gamma 90.000000
_cell_volume 2893.184143
_symmetry_space_group_name_H-M "P C C N"
_symmetry_group_IT_number 56
_symmetry_cell_setting 'orthorhombic'
loop_
_space_group_symop_operation_xyz
x,y,z
1/2-x,1/2-y,z
1/2+x,-y,1/2-z
-x,1/2+y,1/2-z
-x,-y,-z
1/2+x,1/2+y,-z
1/2-x,y,1/2+z
x,1/2-y,1/2+z
loop_
_atom_site_type_symbol
_atom_site_label
_atom_site_fract_x
_atom_site_fract_y
_atom_site_fract_z
Si Si1 0.781652 0.164801 0.597594
Si Si2 0.698969 0.890393 0.097683
Si Si3 0.750000 0.750000 0.200432
Si Si4 0.445898 0.518599 0.668041
Si Si5 0.055655 0.077842 0.536893
Si Si6 0.879734 0.048837 0.799314
Si Si7 0.437910 0.523540 0.920742
Si Si8 0.910034 0.207456 0.755532
O O1 0.750000 0.250000 0.574203
O O2 0.637641 0.106571 0.591145
O O3 0.858796 0.175949 0.676686
O O4 0.908443 0.128725 0.547181
O O5 0.746610 0.822084 0.147600
O O6 0.533288 0.916489 0.125702
O O7 0.806031 0.963853 0.101505
O O8 0.677777 0.879719 0.012462
O O9 0.581625 0.746796 0.242113
O O10 0.396717 0.451521 0.614724
O O11 0.555693 0.485794 0.727410
O O12 0.300628 0.551563 0.706388
O O13 0.000000 0.000000 0.500000
O O14 0.932636 0.134774 0.805905
O O15 0.930502 0.996397 0.864536
O O16 0.500000 0.500000 0.000000
O O17 0.750000 0.250000 0.777632
#
# Coordination Sequence:
#
# PCOD9431149 Si02
#       8
#     8   8   4   8   8   8   8   8
#     4  11  24  47  71 104 150 190 243 315 385 452
#     4  11  23  44  67 101 144 185 248 300 368 451
#     4  12  26  44  72 108 150 200 248 324 382 454
#     4  11  22  39  69 101 133 188 240 306 376 440
#     4  10  20  41  71  92 135 190 234 290 367 443
#     4  12  23  40  70 102 139 188 250 308 370 448
#     4  12  25  45  72 107 143 193 253 305 373 468
#     4  11  24  47  71 107 153 195 251 322 382 447
#
# _framework density 20.738398
#
# number of rings (size 3 to 8) (size 9 to 14) (size 15 to 20)
#    0.000    0.800    5.333    3.200    1.867    2.133 
#    0.000    0.667    0.000    0.000    0.000    0.000 
#    0.000    0.000    0.000    0.000    0.000    0.000 
#
# Total GULP energy -334251.897025 kJ/mol
# GULP energy per Si atom -5570.864950 kJ/mol
# Density = 2.069120 g / cm^3
# Si number density = 20.738398 Si / 1000 Ang^3
#
#
#
# Elastic Constant Matrix: (Units=GPa)
#
#
# Indices 1 2 3 4 5 6 
#
# 1 102.0428 37.7210 25.7665 0.0000 0.0000 0.0000
# 2 37.7210 127.9546 27.9795 0.0000 0.0000 0.0000
# 3 25.7665 27.9795 97.0007 0.0000 0.0000 0.0000
# 4 0.0000 0.0000 0.0000 35.3306 0.0000 0.0000
# 5 0.0000 0.0000 0.0000 0.0000 6.8738 0.0000
# 6 0.0000 0.0000 0.0000 0.0000 0.0000 33.5541
#
#
#
# Elastic Compliance Matrix: (Units=1/GPa)
#
#
# Indices 1 2 3 4 5 6 
#
# 1 0.011423 -0.002886 -0.002202 0.000000 0.000000 0.000000
# 2 -0.002886 0.009071 -0.001850 0.000000 0.000000 0.000000
# 3 -0.002202 -0.001850 0.011428 0.000000 0.000000 0.000000
# 4 0.000000 0.000000 0.000000 0.028304 0.000000 0.000000
# 5 0.000000 0.000000 0.000000 0.000000 0.145479 0.000000
# 6 0.000000 0.000000 0.000000 0.000000 0.000000 0.029803
#
#
# Mechanical properties :
#
#
# Convention : Reuss Voigt Hill
#
# Bulk Modulus (GPa) = 55.41453 56.65913 56.03683
# Shear Modulus (GPa) = 19.57738 30.85380 25.21559
#
# Velocity S-wave (km/s) = 3.07582 3.86134 3.49074
# Velocity P-wave (km/s) = 6.27638 6.87460 6.58229
#
# Compressibility (1/GPa) = 0.01804581
#
# Stress axis : x y z
#
# Youngs Moduli (GPa) = 87.54600 110.24727 87.50730
#
# Poissons Ratio (x) = 0.31816 0.19267
# Poissons Ratio (y) = 0.25265 0.16187
# Poissons Ratio (z) = 0.19276 0.20393
#
# Static dielectric constant tensor:
#      x y z
#    x 1.803580 0.000000 0.000000 
#    y 0.000000 1.722050 0.000000 
#    z 0.000000 0.000000 1.812370 
# 
# From -- ./inp_files/15087.got.cif
#   From: 2010.05.17/outbox.cif.g08.bks.cpg/sg56_8_cif.got.tgz:15087.got - 2010.06.03 13:42:01.
