data_PCOD9431867
_publ_section_title
;
Structure prediction by ZEFSAII (Michael W. Deem and Ramdas Pophale) SiO2 
 PCOD9431867
Probable space group: P C C N
;
_chemical_formula_sum "Si O2"
_cell_formula_units_Z 64
_cell_length_a 28.496496
_cell_length_b 10.684698
_cell_length_c 9.057585
_cell_angle_alpha 90.000000
_cell_angle_beta 90.000000
_cell_angle_gamma 90.000000
_cell_volume 2757.821361
_symmetry_space_group_name_H-M "P C C N"
_symmetry_group_IT_number 56
_symmetry_cell_setting 'orthorhombic'
loop_
_space_group_symop_operation_xyz
x,y,z
1/2-x,1/2-y,z
1/2+x,-y,1/2-z
-x,1/2+y,1/2-z
-x,-y,-z
1/2+x,1/2+y,-z
1/2-x,y,1/2+z
x,1/2-y,1/2+z
loop_
_atom_site_type_symbol
_atom_site_label
_atom_site_fract_x
_atom_site_fract_y
_atom_site_fract_z
Si Si1 0.538668 0.214910 0.428195
Si Si2 0.199334 0.815492 0.789908
Si Si3 0.396434 0.426015 0.289385
Si Si4 0.358075 0.624515 0.082854
Si Si5 0.193374 0.188569 0.394037
Si Si6 0.223776 0.088840 0.711289
Si Si7 0.469034 0.216699 0.190782
Si Si8 0.946435 0.020001 0.450871
O O1 0.588228 0.155369 0.461458
O O2 0.503388 0.154546 0.311462
O O3 0.504689 0.237650 0.565539
O O4 0.553404 0.351517 0.364093
O O5 0.250000 0.750000 0.815443
O O6 0.164946 0.720305 0.702749
O O7 0.209505 0.944439 0.702190
O O8 0.175360 0.860044 0.942091
O O9 0.367430 0.490279 0.158548
O O10 0.360128 0.347514 0.384643
O O11 0.438769 0.334486 0.244823
O O12 0.416028 0.531225 0.400970
O O13 0.213172 0.152971 0.554364
O O14 0.223567 0.109395 0.272884
O O15 0.197534 0.331058 0.338633
O O16 0.434863 0.106811 0.134557
O O17 0.000000 0.000000 0.500000
#
# Coordination Sequence:
#
# PCOD9431867 Si02
#       8
#     8   8   8   8   8   8   8   8
#     4  11  24  45  70  97 147 189 248 299 381 445
#     4  12  29  49  80 111 152 200 253 304 388 448
#     4  12  26  44  74 105 149 186 254 308 369 452
#     4  12  28  48  71 114 146 199 253 316 367 458
#     4  11  27  47  77 111 146 192 240 314 371 450
#     4  11  27  49  79 108 151 195 245 306 389 443
#     4  11  23  43  71 103 135 199 238 305 378 439
#     4  10  21  44  66  96 140 188 230 299 374 430
#
# _framework density 23.206726
#
# number of rings (size 3 to 8) (size 9 to 14) (size 15 to 20)
#    0.000    0.750    2.500    5.625   12.250    0.500 
#    2.250    0.000    0.000    0.000    0.000    0.000 
#    0.000    0.000    0.000    0.000    0.000    0.000 
#
# Total GULP energy -357530.845878 kJ/mol
# GULP energy per Si atom -5586.419467 kJ/mol
# Density = 2.315391 g / cm^3
# Si number density = 23.206726 Si / 1000 Ang^3
#
#
#
# Elastic Constant Matrix: (Units=GPa)
#
#
# Indices 1 2 3 4 5 6 
#
# 1 113.9468 28.3378 46.5608 0.0000 0.0000 0.0000
# 2 28.3378 78.0003 7.5626 0.0000 0.0000 0.0000
# 3 46.5608 7.5626 94.9673 0.0000 0.0000 0.0000
# 4 0.0000 0.0000 0.0000 30.3140 0.0000 0.0000
# 5 0.0000 0.0000 0.0000 0.0000 28.2298 0.0000
# 6 0.0000 0.0000 0.0000 0.0000 0.0000 37.7154
#
#
#
# Elastic Compliance Matrix: (Units=1/GPa)
#
#
# Indices 1 2 3 4 5 6 
#
# 1 0.012008 -0.003821 -0.005583 0.000000 0.000000 0.000000
# 2 -0.003821 0.014136 0.000748 0.000000 0.000000 0.000000
# 3 -0.005583 0.000748 0.013208 0.000000 0.000000 0.000000
# 4 0.000000 0.000000 0.000000 0.032988 0.000000 0.000000
# 5 0.000000 0.000000 0.000000 0.000000 0.035424 0.000000
# 6 0.000000 0.000000 0.000000 0.000000 0.000000 0.026514
#
#
# Mechanical properties :
#
#
# Convention : Reuss Voigt Hill
#
# Bulk Modulus (GPa) = 45.37437 50.20409 47.78923
# Shear Modulus (GPa) = 31.45921 32.88205 32.17063
#
# Velocity S-wave (km/s) = 3.68585 3.76828 3.72729
# Velocity P-wave (km/s) = 6.14074 6.37288 6.25789
#
# Compressibility (1/GPa) = 0.02203888
#
# Stress axis : x y z
#
# Youngs Moduli (GPa) = 83.28109 70.74046 75.71436
#
# Poissons Ratio (x) = 0.27031 0.42270
# Poissons Ratio (y) = 0.31822 -0.05661
# Poissons Ratio (z) = 0.46494 -0.05289
#
# Static dielectric constant tensor:
#      x y z
#    x 1.876730 0.000000 0.000000 
#    y 0.000000 1.952420 0.000000 
#    z 0.000000 0.000000 1.883530 
# 
# From -- ./inp_files/5208.got.cif
#   From: 2010.05.17/outbox.cif.g08.bks.cpg/sg56_3_cif.got.tgz:5208.got - 2010.06.03 13:42:01.
