data_PCOD9431639
_publ_section_title
;
Structure prediction by ZEFSAII (Michael W. Deem and Ramdas Pophale) SiO2 
 PCOD9431639
Probable space group: P C C N
;
_chemical_formula_sum "Si O2"
_cell_formula_units_Z 60
_cell_length_a 12.280128
_cell_length_b 20.844964
_cell_length_c 11.688448
_cell_angle_alpha 90.000000
_cell_angle_beta 90.000000
_cell_angle_gamma 90.000000
_cell_volume 2991.995198
_symmetry_space_group_name_H-M "P C C N"
_symmetry_group_IT_number 56
_symmetry_cell_setting 'orthorhombic'
loop_
_space_group_symop_operation_xyz
x,y,z
1/2-x,1/2-y,z
1/2+x,-y,1/2-z
-x,1/2+y,1/2-z
-x,-y,-z
1/2+x,1/2+y,-z
1/2-x,y,1/2+z
x,1/2-y,1/2+z
loop_
_atom_site_type_symbol
_atom_site_label
_atom_site_fract_x
_atom_site_fract_y
_atom_site_fract_z
Si Si1 0.614355 0.101103 0.999430
Si Si2 0.197922 0.681364 0.617506
Si Si3 0.153331 0.937233 0.255731
Si Si4 0.057154 0.322901 0.381292
Si Si5 0.947278 0.536816 0.604015
Si Si6 0.597159 0.648425 0.381302
Si Si7 0.250000 0.250000 0.501228
Si Si8 0.348236 0.002717 0.179395
O O1 0.642570 0.057318 0.109387
O O2 0.509031 0.142876 0.036148
O O3 0.719319 0.144630 0.968471
O O4 0.592517 0.051898 0.894930
O O5 0.250000 0.750000 0.641264
O O6 0.195868 0.634107 0.727016
O O7 0.069850 0.687337 0.582639
O O8 0.036520 0.944676 0.199341
O O9 0.221971 0.985499 0.178305
O O10 0.095136 0.392970 0.428002
O O11 0.062712 0.324155 0.243010
O O12 0.147188 0.274472 0.427629
O O13 0.868707 0.495767 0.683919
O O14 0.000000 0.500000 0.500000
O O15 0.695463 0.692255 0.426529
O O16 0.633097 0.574361 0.363715
#
# Coordination Sequence:
#
# PCOD9431639 Si02
#       8
#     8   8   8   8   8   8   4   8
#     4  11  21  42  66  99 132 165 220 277 336 389
#     4  10  21  40  65  93 124 170 210 265 331 385
#     4  10  22  38  62  93 130 160 213 271 322 386
#     4  10  23  46  61  93 130 165 219 267 320 388
#     4  10  22  41  63  91 130 166 208 265 328 381
#     4  11  23  45  64  91 136 172 215 278 321 388
#     4  12  26  42  68  92 126 186 224 260 326 404
#     4  10  23  37  66  97 125 173 209 267 337 391
#
# _framework density 20.053508000000001
#
# number of rings (size 3 to 8) (size 9 to 14) (size 15 to 20)
#    0.000    1.600    4.000    1.600    7.467    1.600 
#    2.400    1.333    0.000    0.000    0.000    0.000 
#    0.000    0.000    0.000    0.000    0.000    0.000 
#
# Total GULP energy -334179.922179 kJ/mol
# GULP energy per Si atom -5569.665370 kJ/mol
# Density = 2.000786 g / cm^3
# Si number density = 20.053508 Si / 1000 Ang^3
#
#
#
# Elastic Constant Matrix: (Units=GPa)
#
#
# Indices 1 2 3 4 5 6 
#
# 1 113.0846 46.5358 23.8842 0.0000 0.0000 0.0000
# 2 46.5358 85.8031 34.7103 0.0000 0.0000 0.0000
# 3 23.8842 34.7103 38.9949 0.0000 0.0000 0.0000
# 4 0.0000 0.0000 0.0000 15.2397 0.0000 0.0000
# 5 0.0000 0.0000 0.0000 0.0000 27.4812 0.0000
# 6 0.0000 0.0000 0.0000 0.0000 0.0000 30.5580
#
#
#
# Elastic Compliance Matrix: (Units=1/GPa)
#
#
# Indices 1 2 3 4 5 6 
#
# 1 0.011518 -0.005302 -0.002335 0.000000 0.000000 0.000000
# 2 -0.005302 0.020654 -0.015137 0.000000 0.000000 0.000000
# 3 -0.002335 -0.015137 0.040548 0.000000 0.000000 0.000000
# 4 0.000000 0.000000 0.000000 0.065618 0.000000 0.000000
# 5 0.000000 0.000000 0.000000 0.000000 0.036389 0.000000
# 6 0.000000 0.000000 0.000000 0.000000 0.000000 0.032725
#
#
# Mechanical properties :
#
#
# Convention : Reuss Voigt Hill
#
# Bulk Modulus (GPa) = 36.80291 49.79369 43.29830
# Shear Modulus (GPa) = 19.07984 23.50592 21.29288
#
# Velocity S-wave (km/s) = 3.08790 3.42740 3.26207
# Velocity P-wave (km/s) = 5.57725 6.36766 5.98551
#
# Compressibility (1/GPa) = 0.02717176
#
# Stress axis : x y z
#
# Youngs Moduli (GPa) = 86.82007 48.41765 24.66204
#
# Poissons Ratio (x) = 0.25672 0.05759
# Poissons Ratio (y) = 0.46034 0.37330
# Poissons Ratio (z) = 0.20273 0.73288
#
# Static dielectric constant tensor:
#      x y z
#    x 1.863890 0.000000 0.000000 
#    y 0.000000 1.886670 0.000000 
#    z 0.000000 0.000000 1.752290 
# 
# From -- ./inp_files/7334.got.cif
#   From: 2010.05.17/outbox.cif.g08.bks.cpg/sg56_4_cif.got.tgz:7334.got - 2010.06.03 13:42:01.
