data_PCOD9431227
_publ_section_title
;
Structure prediction by ZEFSAII (Michael W. Deem and Ramdas Pophale) SiO2 
 PCOD9431227
Probable space group: P C C N
;
_chemical_formula_sum "Si O2"
_cell_formula_units_Z 40
_cell_length_a 14.351743
_cell_length_b 7.297197
_cell_length_c 14.736933
_cell_angle_alpha 90.000000
_cell_angle_beta 90.000000
_cell_angle_gamma 90.000000
_cell_volume 1543.362091
_symmetry_space_group_name_H-M "P C C N"
_symmetry_group_IT_number 56
_symmetry_cell_setting 'orthorhombic'
loop_
_space_group_symop_operation_xyz
x,y,z
1/2-x,1/2-y,z
1/2+x,-y,1/2-z
-x,1/2+y,1/2-z
-x,-y,-z
1/2+x,1/2+y,-z
1/2-x,y,1/2+z
x,1/2-y,1/2+z
loop_
_atom_site_type_symbol
_atom_site_label
_atom_site_fract_x
_atom_site_fract_y
_atom_site_fract_z
Si Si1 0.907393 0.620362 0.980354
Si Si2 0.427845 0.038795 0.390659
Si Si3 0.669217 0.517747 0.299113
Si Si4 0.346613 0.661473 0.397955
Si Si5 0.622702 0.412928 0.797121
O O1 0.910930 0.806335 0.035721
O O2 0.884175 0.631934 0.875249
O O3 0.829352 0.487248 0.025414
O O4 0.000000 0.500000 0.000000
O O5 0.363134 0.072506 0.301760
O O6 0.404359 0.837771 0.428721
O O7 0.532745 0.035941 0.353627
O O8 0.780336 0.517770 0.312966
O O9 0.638961 0.304847 0.311769
O O10 0.250000 0.750000 0.365102
O O11 0.395088 0.569398 0.311200
#
# Coordination Sequence:
#
# PCOD9431227 Si02
#       5
#     8   8   8   8   8
#     4  12  26  45  76 114 151 192 263 315 373 470
#     4  11  24  48  80 110 151 203 255 317 394 455
#     4  10  22  47  74 113 154 201 255 319 385 465
#     4  11  25  47  73 102 152 201 248 314 382 448
#     4  10  20  45  78 104 152 208 249 312 393 458
#
# _framework density 25.917442000000001
#
# number of rings (size 3 to 8) (size 9 to 14) (size 15 to 20)
#    0.000    1.200    6.000    1.200    5.600    1.600 
#    0.000    4.000    0.000    0.000    0.000    0.000 
#    0.000    0.000    0.000    0.000    0.000    0.000 
#
# Total GULP energy -224524.056556 kJ/mol
# GULP energy per Si atom -5613.101414 kJ/mol
# Density = 2.585845 g / cm^3
# Si number density = 25.917442 Si / 1000 Ang^3
#
#
#
# Elastic Constant Matrix: (Units=GPa)
#
#
# Indices 1 2 3 4 5 6 
#
# 1 123.3779 40.6449 29.4522 0.0000 0.0000 0.0000
# 2 40.6449 105.9142 53.5866 0.0000 0.0000 0.0000
# 3 29.4522 53.5866 132.2477 0.0000 0.0000 0.0000
# 4 0.0000 0.0000 0.0000 47.8821 0.0000 0.0000
# 5 0.0000 0.0000 0.0000 0.0000 30.5482 0.0000
# 6 0.0000 0.0000 0.0000 0.0000 0.0000 31.3071
#
#
#
# Elastic Compliance Matrix: (Units=1/GPa)
#
#
# Indices 1 2 3 4 5 6 
#
# 1 0.009343 -0.003186 -0.000790 0.000000 0.000000 0.000000
# 2 -0.003186 0.012963 -0.004543 0.000000 0.000000 0.000000
# 3 -0.000790 -0.004543 0.009578 0.000000 0.000000 0.000000
# 4 0.000000 0.000000 0.000000 0.020885 0.000000 0.000000
# 5 0.000000 0.000000 0.000000 0.000000 0.032735 0.000000
# 6 0.000000 0.000000 0.000000 0.000000 0.000000 0.031942
#
#
# Mechanical properties :
#
#
# Convention : Reuss Voigt Hill
#
# Bulk Modulus (GPa) = 67.35450 67.65633 67.50542
# Shear Modulus (GPa) = 35.85978 37.80456 36.83217
#
# Velocity S-wave (km/s) = 3.72373 3.82338 3.77388
# Velocity P-wave (km/s) = 6.67329 6.75664 6.71509
#
# Compressibility (1/GPa) = 0.01484682
#
# Stress axis : x y z
#
# Youngs Moduli (GPa) = 107.02888 77.14464 104.40296
#
# Poissons Ratio (x) = 0.24577 0.08247
# Poissons Ratio (y) = 0.34098 0.47430
# Poissons Ratio (z) = 0.08454 0.35046
#
# Static dielectric constant tensor:
#      x y z
#    x 2.105930 0.000000 0.000000 
#    y 0.000000 2.030100 0.000000 
#    z 0.000000 0.000000 2.043560 
# 
# From -- ./inp_files/12082.got.cif
#   From: 2010.05.17/outbox.cif.g08.bks.cpg/sg56_7_cif.got.tgz:12082.got - 2010.06.03 13:42:01.
