data_PCOD9431438
_publ_section_title
;
Structure prediction by ZEFSAII (Michael W. Deem and Ramdas Pophale) SiO2 
 PCOD9431438
Probable space group: P C C N
;
_chemical_formula_sum "Si O2"
_cell_formula_units_Z 60
_cell_length_a 7.040874
_cell_length_b 23.424504
_cell_length_c 16.243477
_cell_angle_alpha 90.000000
_cell_angle_beta 90.000000
_cell_angle_gamma 90.000000
_cell_volume 2679.020112
_symmetry_space_group_name_H-M "P C C N"
_symmetry_group_IT_number 56
_symmetry_cell_setting 'orthorhombic'
loop_
_space_group_symop_operation_xyz
x,y,z
1/2-x,1/2-y,z
1/2+x,-y,1/2-z
-x,1/2+y,1/2-z
-x,-y,-z
1/2+x,1/2+y,-z
1/2-x,y,1/2+z
x,1/2-y,1/2+z
loop_
_atom_site_type_symbol
_atom_site_label
_atom_site_fract_x
_atom_site_fract_y
_atom_site_fract_z
Si Si1 0.576340 0.523459 0.318603
Si Si2 0.837571 0.952346 0.486658
Si Si3 0.924605 0.669516 0.925682
Si Si4 0.610909 0.668649 0.778654
Si Si5 0.052541 0.721949 0.683837
Si Si6 0.801693 0.368284 0.192083
Si Si7 0.784209 0.568521 0.163952
Si Si8 0.750000 0.750000 0.555427
O O1 0.727179 0.534199 0.392772
O O2 0.407513 0.571461 0.323342
O O3 0.662480 0.533996 0.230102
O O4 0.490887 0.461214 0.330738
O O5 0.923248 0.889968 0.474160
O O6 0.718214 0.944308 0.570366
O O7 0.000000 0.000000 0.500000
O O8 0.763579 0.670625 0.852928
O O9 0.124217 0.673193 0.880279
O O10 0.878935 0.714378 0.994172
O O11 0.539251 0.730823 0.747194
O O12 0.423353 0.634298 0.806343
O O13 0.693121 0.631618 0.702155
O O14 0.250000 0.750000 0.654742
O O15 0.113365 0.662885 0.726966
O O16 0.898748 0.716647 0.612494
#
# Coordination Sequence:
#
# PCOD9431438 Si02
#       8
#     8   8   8   8   8   8   8   4
#     4  10  21  38  62  90 122 166 209 261 318 379
#     4   9  20  37  60  87 127 162 203 268 314 373
#     4  11  22  38  60  92 126 164 213 264 322 383
#     4  11  21  39  65  88 122 170 212 264 318 383
#     4  10  23  39  60  92 126 162 216 260 317 390
#     4  10  21  40  61  87 124 162 211 262 317 379
#     4  11  20  38  64  88 125 164 214 258 323 381
#     4  12  24  36  64  92 128 170 208 268 328 380
#
# _framework density 22.396249000000001
#
# number of rings (size 3 to 8) (size 9 to 14) (size 15 to 20)
#    0.000    1.600    2.667    3.200    1.867    1.067 
#    0.000    2.000   11.733    0.000    0.000    0.000 
#    0.000    0.000    0.000    0.000    0.000    0.000 
#
# Total GULP energy -334575.756693 kJ/mol
# GULP energy per Si atom -5576.262612 kJ/mol
# Density = 2.234527 g / cm^3
# Si number density = 22.396249 Si / 1000 Ang^3
#
#
#
# Elastic Constant Matrix: (Units=GPa)
#
#
# Indices 1 2 3 4 5 6 
#
# 1 76.0248 -6.5111 39.8310 0.0000 0.0000 0.0000
# 2 -6.5111 70.8773 27.1569 0.0000 0.0000 0.0000
# 3 39.8310 27.1569 128.2879 0.0000 0.0000 0.0000
# 4 0.0000 0.0000 0.0000 19.8265 0.0000 0.0000
# 5 0.0000 0.0000 0.0000 0.0000 -11.6305 0.0000
# 6 0.0000 0.0000 0.0000 0.0000 0.0000 26.8975
#
#
#
# Elastic Compliance Matrix: (Units=1/GPa)
#
#
# Indices 1 2 3 4 5 6 
#
# 1 0.016603 0.003809 -0.005961 0.000000 0.000000 0.000000
# 2 0.003809 0.016228 -0.004618 0.000000 0.000000 0.000000
# 3 -0.005961 -0.004618 0.010623 0.000000 0.000000 0.000000
# 4 0.000000 0.000000 0.000000 0.050438 0.000000 0.000000
# 5 0.000000 0.000000 0.000000 0.000000 -0.085981 0.000000
# 6 0.000000 0.000000 0.000000 0.000000 0.000000 0.037178
#
#
# Mechanical properties :
#
#
# Convention : Reuss Voigt Hill
#
# Bulk Modulus (GPa) = 33.42832 44.01595 38.72214
# Shear Modulus (GPa) = 72.88453 21.33291 47.10872
#
# Velocity S-wave (km/s) = 5.71085 3.08964 4.59128
# Velocity P-wave (km/s) = 7.64483 5.69419 6.74044
#
# Compressibility (1/GPa) = 0.02991476
#
# Stress axis : x y z
#
# Youngs Moduli (GPa) = 60.22952 61.62088 94.13139
#
# Poissons Ratio (x) = -0.23474 0.56115
# Poissons Ratio (y) = -0.22944 0.43470
# Poissons Ratio (z) = 0.35905 0.28457
#
# Static dielectric constant tensor:
#      x y z
#    x 1.819430 0.000000 0.000000 
#    y 0.000000 2.320510 0.000000 
#    z 0.000000 0.000000 1.897240 
# 
# From -- ./inp_files/10987.got.cif
#   From: 2010.05.17/outbox.cif.g08.bks.cpg/sg56_6_cif.got.tgz:10987.got - 2010.06.03 13:42:01.
