data_PCOD9431907
_publ_section_title
;
Structure prediction by ZEFSAII (Michael W. Deem and Ramdas Pophale) SiO2 
 PCOD9431907
Probable space group: P C C N
;
_chemical_formula_sum "Si O2"
_cell_formula_units_Z 56
_cell_length_a 18.165004
_cell_length_b 13.842318
_cell_length_c 7.865837
_cell_angle_alpha 90.000000
_cell_angle_beta 90.000000
_cell_angle_gamma 90.000000
_cell_volume 1977.831377
_symmetry_space_group_name_H-M "P C C N"
_symmetry_group_IT_number 56
_symmetry_cell_setting 'orthorhombic'
loop_
_space_group_symop_operation_xyz
x,y,z
1/2-x,1/2-y,z
1/2+x,-y,1/2-z
-x,1/2+y,1/2-z
-x,-y,-z
1/2+x,1/2+y,-z
1/2-x,y,1/2+z
x,1/2-y,1/2+z
loop_
_atom_site_type_symbol
_atom_site_label
_atom_site_fract_x
_atom_site_fract_y
_atom_site_fract_z
Si Si1 0.000964 0.151127 0.630997
Si Si2 0.417034 0.078949 0.662893
Si Si3 0.181700 0.390903 0.354206
Si Si4 0.932226 0.062543 0.306236
Si Si5 0.718427 0.403743 0.128756
Si Si6 0.635326 0.139253 0.295921
Si Si7 0.646194 0.809753 0.005820
O O1 0.951085 0.121432 0.473581
O O2 0.067052 0.220839 0.576929
O O3 0.941432 0.193504 0.762298
O O4 0.046836 0.050402 0.659800
O O5 0.389678 0.079146 0.467972
O O6 0.504831 0.091611 0.671866
O O7 0.395835 0.969648 0.716317
O O8 0.375921 0.137846 0.816282
O O9 0.234847 0.480935 0.396412
O O10 0.187392 0.287214 0.441890
O O11 0.182644 0.366417 0.153395
O O12 0.847351 0.083239 0.265917
O O13 0.794195 0.352069 0.173254
O O14 0.675476 0.353788 0.975805
#
# Coordination Sequence:
#
# PCOD9431907 Si02
#       7
#     8   8   8   8   8   8   8
#     4   9  18  33  56  81 109 146 190 245 304 337
#     4   9  21  36  54  83 110 145 197 241 293 351
#     4  11  22  34  57  79 114 156 192 242 277 352
#     4   9  17  32  56  81 106 143 182 250 301 344
#     4  11  22  35  55  82 118 149 197 240 301 367
#     4  10  22  34  54  80 113 149 187 243 303 352
#     4  11  20  36  57  78 117 148 198 240 281 345
#
# _framework density 28.313839000000002
#
# number of rings (size 3 to 8) (size 9 to 14) (size 15 to 20)
#    0.000    2.000    2.857    1.714    4.000    1.714 
#    0.000    0.714    0.000    0.000    0.000    1.000 
#    0.000    0.000    0.000    0.000    0.000    0.000 
#
# Total GULP energy -312833.141437 kJ/mol
# GULP energy per Si atom -5586.306097 kJ/mol
# Density = 2.824940 g / cm^3
# Si number density = 28.313839 Si / 1000 Ang^3
#
#
#
# Elastic Constant Matrix: (Units=GPa)
#
#
# Indices 1 2 3 4 5 6 
#
# 1 111.4943 6.9894 32.5966 0.0000 0.0000 0.0000
# 2 6.9894 75.8369 29.0147 0.0000 0.0000 0.0000
# 3 32.5966 29.0147 150.3049 0.0000 0.0000 0.0000
# 4 0.0000 0.0000 0.0000 18.8310 0.0000 0.0000
# 5 0.0000 0.0000 0.0000 0.0000 48.3652 0.0000
# 6 0.0000 0.0000 0.0000 0.0000 0.0000 -11.5645
#
#
#
# Elastic Compliance Matrix: (Units=1/GPa)
#
#
# Indices 1 2 3 4 5 6 
#
# 1 0.009577 -0.000095 -0.002059 0.000000 0.000000 0.000000
# 2 -0.000095 0.014239 -0.002728 0.000000 0.000000 0.000000
# 3 -0.002059 -0.002728 0.007626 0.000000 0.000000 0.000000
# 4 0.000000 0.000000 0.000000 0.053104 0.000000 0.000000
# 5 0.000000 0.000000 0.000000 0.000000 0.020676 0.000000
# 6 0.000000 0.000000 0.000000 0.000000 0.000000 -0.086472
#
#
# Mechanical properties :
#
#
# Convention : Reuss Voigt Hill
#
# Bulk Modulus (GPa) = 46.12871 52.75973 49.44422
# Shear Modulus (GPa) = 139.90267 29.06205 84.48236
#
# Velocity S-wave (km/s) = 7.03695 3.20726 5.46833
# Velocity P-wave (km/s) = 9.07481 5.69120 7.57436
#
# Compressibility (1/GPa) = 0.02167847
#
# Stress axis : x y z
#
# Youngs Moduli (GPa) = 104.41819 70.23127 131.12686
#
# Poissons Ratio (x) = 0.00667 0.26994
# Poissons Ratio (y) = 0.00992 0.35772
# Poissons Ratio (z) = 0.21495 0.19159
#
# Static dielectric constant tensor:
#      x y z
#    x 2.288190 0.000000 0.000000 
#    y 0.000000 2.343940 0.000000 
#    z 0.000000 0.000000 2.268210 
# 
# From -- ./inp_files/4183.got.cif
#   From: 2010.05.17/outbox.cif.g08.bks.cpg/sg56_3_cif.got.tgz:4183.got - 2010.06.03 13:42:01.
