data_PCOD9431749
_publ_section_title
;
Structure prediction by ZEFSAII (Michael W. Deem and Ramdas Pophale) SiO2 
 PCOD9431749
Probable space group: P C C N
;
_chemical_formula_sum "Si O2"
_cell_formula_units_Z 56
_cell_length_a 6.175999
_cell_length_b 29.797115
_cell_length_c 14.041879
_cell_angle_alpha 90.000000
_cell_angle_beta 90.000000
_cell_angle_gamma 90.000000
_cell_volume 2584.084199
_symmetry_space_group_name_H-M "P C C N"
_symmetry_group_IT_number 56
_symmetry_cell_setting 'orthorhombic'
loop_
_space_group_symop_operation_xyz
x,y,z
1/2-x,1/2-y,z
1/2+x,-y,1/2-z
-x,1/2+y,1/2-z
-x,-y,-z
1/2+x,1/2+y,-z
1/2-x,y,1/2+z
x,1/2-y,1/2+z
loop_
_atom_site_type_symbol
_atom_site_label
_atom_site_fract_x
_atom_site_fract_y
_atom_site_fract_z
Si Si1 0.924122 0.789558 0.779624
Si Si2 0.303809 0.533054 0.523880
Si Si3 0.331520 0.660583 0.274030
Si Si4 0.948992 0.956985 0.872892
Si Si5 0.984018 0.086080 0.311013
Si Si6 0.212349 0.158794 0.870428
Si Si7 0.707686 0.636222 0.411046
O O1 0.750000 0.750000 0.801702
O O2 0.876090 0.803744 0.670331
O O3 0.845204 0.830680 0.844876
O O4 0.182180 0.795800 0.792096
O O5 0.500000 0.500000 0.500000
O O6 0.146846 0.503679 0.590997
O O7 0.393060 0.573436 0.586525
O O8 0.170489 0.548510 0.432193
O O9 0.489046 0.669618 0.183436
O O10 0.469425 0.645081 0.366381
O O11 0.179384 0.619818 0.240896
O O12 0.985422 0.955271 0.760102
O O13 0.791106 0.914959 0.898348
O O14 0.210178 0.111168 0.326910
O O15 0.240973 0.152371 0.982132
#
# Coordination Sequence:
#
# PCOD9431749 Si02
#       7
#     8   8   8   8   8   8   8
#     4  10  23  42  64 102 137 172 225 276 346 424
#     4  11  27  40  61  89 132 177 227 302 353 414
#     4  10  21  41  68  96 132 181 212 289 343 411
#     4  11  24  42  58  95 125 171 235 285 346 430
#     4  11  23  40  63  92 123 172 227 281 350 415
#     4  10  22  39  65  96 126 171 223 276 332 416
#     4  11  22  41  68  96 130 175 234 280 346 429
#
# _framework density 21.671119999999998
#
# number of rings (size 3 to 8) (size 9 to 14) (size 15 to 20)
#    0.000    1.429    4.286    1.714    6.000    6.286 
#    0.000    0.000    0.000   10.286    0.000    0.000 
#    0.000    0.000    0.000    0.000    0.000    0.000 
#
# Total GULP energy -312347.015058 kJ/mol
# GULP energy per Si atom -5577.625269 kJ/mol
# Density = 2.162180 g / cm^3
# Si number density = 21.671120 Si / 1000 Ang^3
#
#
#
# Elastic Constant Matrix: (Units=GPa)
#
#
# Indices 1 2 3 4 5 6 
#
# 1 112.0589 19.5564 18.4723 0.0000 0.0000 0.0000
# 2 19.5564 58.6063 -5.1590 0.0000 0.0000 0.0000
# 3 18.4723 -5.1590 87.5731 0.0000 0.0000 0.0000
# 4 0.0000 0.0000 0.0000 11.3127 0.0000 0.0000
# 5 0.0000 0.0000 0.0000 0.0000 26.2727 0.0000
# 6 0.0000 0.0000 0.0000 0.0000 0.0000 41.3139
#
#
#
# Elastic Compliance Matrix: (Units=1/GPa)
#
#
# Indices 1 2 3 4 5 6 
#
# 1 0.009915 -0.003511 -0.002298 0.000000 0.000000 0.000000
# 2 -0.003511 0.018395 0.001824 0.000000 0.000000 0.000000
# 3 -0.002298 0.001824 0.012011 0.000000 0.000000 0.000000
# 4 0.000000 0.000000 0.000000 0.088397 0.000000 0.000000
# 5 0.000000 0.000000 0.000000 0.000000 0.038062 0.000000
# 6 0.000000 0.000000 0.000000 0.000000 0.000000 0.024205
#
#
# Mechanical properties :
#
#
# Convention : Reuss Voigt Hill
#
# Bulk Modulus (GPa) = 30.91024 35.99753 33.45388
# Shear Modulus (GPa) = 23.83904 30.80441 27.32172
#
# Velocity S-wave (km/s) = 3.32028 3.77430 3.55455
# Velocity P-wave (km/s) = 5.38454 5.96998 5.68480
#
# Compressibility (1/GPa) = 0.03235174
#
# Stress axis : x y z
#
# Youngs Moduli (GPa) = 100.85229 54.36204 83.25489
#
# Poissons Ratio (x) = 0.19087 0.19135
# Poissons Ratio (y) = 0.35409 -0.15188
# Poissons Ratio (z) = 0.23180 -0.09917
#
# Static dielectric constant tensor:
#      x y z
#    x 1.917140 0.000000 0.000000 
#    y 0.000000 1.819370 0.000000 
#    z 0.000000 0.000000 1.778450 
# 
# From -- ./inp_files/9833.got.cif
#   From: 2010.05.17/outbox.cif.g08.bks.cpg/sg56_5_cif.got.tgz:9833.got - 2010.06.03 13:42:01.
