data_PCOD9431547
_publ_section_title
;
Structure prediction by ZEFSAII (Michael W. Deem and Ramdas Pophale) SiO2 
 PCOD9431547
Probable space group: P C C N
;
_chemical_formula_sum "Si O2"
_cell_formula_units_Z 52
_cell_length_a 8.069484
_cell_length_b 16.167521
_cell_length_c 18.781391
_cell_angle_alpha 90.000000
_cell_angle_beta 90.000000
_cell_angle_gamma 90.000000
_cell_volume 2450.286982
_symmetry_space_group_name_H-M "P C C N"
_symmetry_group_IT_number 56
_symmetry_cell_setting 'orthorhombic'
loop_
_space_group_symop_operation_xyz
x,y,z
1/2-x,1/2-y,z
1/2+x,-y,1/2-z
-x,1/2+y,1/2-z
-x,-y,-z
1/2+x,1/2+y,-z
1/2-x,y,1/2+z
x,1/2-y,1/2+z
loop_
_atom_site_type_symbol
_atom_site_label
_atom_site_fract_x
_atom_site_fract_y
_atom_site_fract_z
Si Si1 0.966192 0.101947 0.714623
Si Si2 0.935815 0.737889 0.200448
Si Si3 0.680562 0.422056 0.941792
Si Si4 0.917401 0.422340 0.729206
Si Si5 0.498572 0.995825 0.913807
Si Si6 0.250000 0.750000 0.594742
Si Si7 0.141373 0.491159 0.406939
O O1 0.774920 0.101637 0.739594
O O2 0.043603 0.185313 0.744704
O O3 0.983830 0.090560 0.628667
O O4 0.042841 0.014947 0.742534
O O5 0.750000 0.750000 0.170620
O O6 0.967279 0.650031 0.240479
O O7 0.086139 0.743257 0.143785
O O8 0.736816 0.329959 0.953725
O O9 0.501679 0.423699 0.905123
O O10 0.826390 0.462897 0.895388
O O11 0.660897 0.472286 0.014338
O O12 0.923940 0.436435 0.644140
O O13 0.326801 0.038620 0.888322
O O14 0.500000 0.000000 0.000000
#
# Coordination Sequence:
#
# PCOD9431547 Si02
#       7
#     8   8   8   8   8   4   8
#     4  11  22  39  65  96 126 173 213 269 334 385
#     4  12  26  42  61  97 133 170 220 279 327 394
#     4  10  21  39  65  87 124 165 214 258 323 386
#     4  11  22  40  64  94 132 165 215 268 327 396
#     4   9  20  39  62  89 122 164 212 260 315 392
#     4  12  24  42  60  94 128 168 214 274 322 396
#     4   9  21  40  62  92 120 165 212 261 317 398
#
# _framework density 21.222003999999998
#
# number of rings (size 3 to 8) (size 9 to 14) (size 15 to 20)
#    0.000    1.538    1.538    2.769    4.308    3.692 
#    8.308    0.000    0.000    0.923    0.000    0.000 
#    0.000    0.000    0.000    0.000    0.000    0.000 
#
# Total GULP energy -289914.443041 kJ/mol
# GULP energy per Si atom -5575.277751 kJ/mol
# Density = 2.117370 g / cm^3
# Si number density = 21.222004 Si / 1000 Ang^3
#
#
#
# Elastic Constant Matrix: (Units=GPa)
#
#
# Indices 1 2 3 4 5 6 
#
# 1 140.7948 32.3115 23.0839 0.0000 0.0000 0.0000
# 2 32.3115 104.7779 12.7906 0.0000 0.0000 0.0000
# 3 23.0839 12.7906 37.1185 0.0000 0.0000 0.0000
# 4 0.0000 0.0000 0.0000 23.4725 0.0000 0.0000
# 5 0.0000 0.0000 0.0000 0.0000 7.5071 0.0000
# 6 0.0000 0.0000 0.0000 0.0000 0.0000 29.7027
#
#
#
# Elastic Compliance Matrix: (Units=1/GPa)
#
#
# Indices 1 2 3 4 5 6 
#
# 1 0.008297 -0.002013 -0.004466 0.000000 0.000000 0.000000
# 2 -0.002013 0.010452 -0.002349 0.000000 0.000000 0.000000
# 3 -0.004466 -0.002349 0.030528 0.000000 0.000000 0.000000
# 4 0.000000 0.000000 0.000000 0.042603 0.000000 0.000000
# 5 0.000000 0.000000 0.000000 0.000000 0.133208 0.000000
# 6 0.000000 0.000000 0.000000 0.000000 0.000000 0.033667
#
#
# Mechanical properties :
#
#
# Convention : Reuss Voigt Hill
#
# Bulk Modulus (GPa) = 31.62691 46.56256 39.09474
# Shear Modulus (GPa) = 17.42457 26.43680 21.93069
#
# Velocity S-wave (km/s) = 2.86853 3.53331 3.21813
# Velocity P-wave (km/s) = 5.08984 6.21563 5.68069
#
# Compressibility (1/GPa) = 0.03161864
#
# Stress axis : x y z
#
# Youngs Moduli (GPa) = 120.52832 95.67826 32.75719
#
# Poissons Ratio (x) = 0.19264 0.14629
# Poissons Ratio (y) = 0.24267 0.07696
# Poissons Ratio (z) = 0.53827 0.22479
#
# Static dielectric constant tensor:
#      x y z
#    x 1.855200 0.000000 0.000000 
#    y 0.000000 1.744310 0.000000 
#    z 0.000000 0.000000 1.849980 
# 
# From -- ./inp_files/18164.got.cif
#   From: 2010.05.17/outbox.cif.g08.bks.cpg/sg56_10_cif.got.tgz:18164.got - 2010.06.03 13:42:01.
