data_PCOD9431445
_publ_section_title
;
Structure prediction by ZEFSAII (Michael W. Deem and Ramdas Pophale) SiO2 
 PCOD9431445
Probable space group: P C C N
;
_chemical_formula_sum "Si O2"
_cell_formula_units_Z 48
_cell_length_a 29.223264
_cell_length_b 8.174076
_cell_length_c 9.015506
_cell_angle_alpha 90.000000
_cell_angle_beta 90.000000
_cell_angle_gamma 90.000000
_cell_volume 2153.562596
_symmetry_space_group_name_H-M "P C C N"
_symmetry_group_IT_number 56
_symmetry_cell_setting 'orthorhombic'
loop_
_space_group_symop_operation_xyz
x,y,z
1/2-x,1/2-y,z
1/2+x,-y,1/2-z
-x,1/2+y,1/2-z
-x,-y,-z
1/2+x,1/2+y,-z
1/2-x,y,1/2+z
x,1/2-y,1/2+z
loop_
_atom_site_type_symbol
_atom_site_label
_atom_site_fract_x
_atom_site_fract_y
_atom_site_fract_z
Si Si1 0.722027 0.420102 0.805521
Si Si2 0.357700 0.385569 0.069689
Si Si3 0.452346 0.568137 0.439305
Si Si4 0.784186 0.618864 0.019708
Si Si5 0.516446 0.360574 0.885570
Si Si6 0.415298 0.265269 0.350407
O O1 0.750000 0.250000 0.804504
O O2 0.675197 0.458795 0.898591
O O3 0.708511 0.478096 0.640562
O O4 0.758423 0.542065 0.880458
O O5 0.387464 0.330707 0.210623
O O6 0.325621 0.230512 0.031553
O O7 0.391223 0.388887 0.928551
O O8 0.500000 0.500000 0.500000
O O9 0.450222 0.738419 0.524689
O O10 0.457560 0.588138 0.262927
O O11 0.416834 0.421847 0.462537
O O12 0.750000 0.750000 0.093233
O O13 0.468654 0.279646 0.826864
O O14 0.500000 0.500000 0.000000
#
# Coordination Sequence:
#
# PCOD9431445 Si02
#       6
#     8   8   8   8   8   8
#     4  11  23  41  66  97 132 166 215 272 335 410
#     4  11  22  40  66  95 127 175 224 277 338 405
#     4  10  21  38  62  93 133 180 234 278 333 419
#     4  10  21  40  67  94 122 175 221 254 324 429
#     4  11  21  39  65  96 131 187 232 278 347 414
#     4  11  22  40  65  97 133 169 229 284 331 394
#
# _framework density 22.288647000000001
#
# number of rings (size 3 to 8) (size 9 to 14) (size 15 to 20)
#    0.000    1.333    1.667    7.000    2.333    0.000 
#    0.000    5.000    3.667    0.000    0.000    0.000 
#    0.000    0.000    0.000    0.000    0.000    0.000 
#
# Total GULP energy -267695.210783 kJ/mol
# GULP energy per Si atom -5576.983558 kJ/mol
# Density = 2.223792 g / cm^3
# Si number density = 22.288647 Si / 1000 Ang^3
#
#
#
# Elastic Constant Matrix: (Units=GPa)
#
#
# Indices 1 2 3 4 5 6 
#
# 1 95.5358 29.7243 12.4454 0.0000 0.0000 0.0000
# 2 29.7243 104.0918 29.0990 0.0000 0.0000 0.0000
# 3 12.4454 29.0990 81.2606 0.0000 0.0000 0.0000
# 4 0.0000 0.0000 0.0000 31.1594 0.0000 0.0000
# 5 0.0000 0.0000 0.0000 0.0000 21.0995 0.0000
# 6 0.0000 0.0000 0.0000 0.0000 0.0000 46.5976
#
#
#
# Elastic Compliance Matrix: (Units=1/GPa)
#
#
# Indices 1 2 3 4 5 6 
#
# 1 0.011519 -0.003107 -0.000652 0.000000 0.000000 0.000000
# 2 -0.003107 0.011514 -0.003647 0.000000 0.000000 0.000000
# 3 -0.000652 -0.003647 0.013712 0.000000 0.000000 0.000000
# 4 0.000000 0.000000 0.000000 0.032093 0.000000 0.000000
# 5 0.000000 0.000000 0.000000 0.000000 0.047395 0.000000
# 6 0.000000 0.000000 0.000000 0.000000 0.000000 0.021460
#
#
# Mechanical properties :
#
#
# Convention : Reuss Voigt Hill
#
# Bulk Modulus (GPa) = 45.59365 47.04730 46.32048
# Shear Modulus (GPa) = 31.28617 33.74594 32.51605
#
# Velocity S-wave (km/s) = 3.75064 3.89529 3.82365
# Velocity P-wave (km/s) = 6.26552 6.43312 6.34988
#
# Compressibility (1/GPa) = 0.02193288
#
# Stress axis : x y z
#
# Youngs Moduli (GPa) = 86.81384 86.85265 72.92947
#
# Poissons Ratio (x) = 0.26987 0.04751
# Poissons Ratio (y) = 0.26975 0.26598
# Poissons Ratio (z) = 0.05656 0.31676
#
# Static dielectric constant tensor:
#      x y z
#    x 1.798760 0.000000 0.000000 
#    y 0.000000 1.991350 0.000000 
#    z 0.000000 0.000000 1.819670 
# 
# From -- ./inp_files/5133.got.cif
#   From: 2010.05.17/outbox.cif.g08.bks.cpg/sg56_3_cif.got.tgz:5133.got - 2010.06.03 13:42:01.
