data_PCOD9431988
_publ_section_title
;
Structure prediction by ZEFSAII (Michael W. Deem and Ramdas Pophale) SiO2 
 PCOD9431988
Probable space group: P C C N
;
_chemical_formula_sum "Si O2"
_cell_formula_units_Z 56
_cell_length_a 5.402895
_cell_length_b 15.189459
_cell_length_c 29.328936
_cell_angle_alpha 90.000000
_cell_angle_beta 90.000000
_cell_angle_gamma 90.000000
_cell_volume 2406.939318
_symmetry_space_group_name_H-M "P C C N"
_symmetry_group_IT_number 56
_symmetry_cell_setting 'orthorhombic'
loop_
_space_group_symop_operation_xyz
x,y,z
1/2-x,1/2-y,z
1/2+x,-y,1/2-z
-x,1/2+y,1/2-z
-x,-y,-z
1/2+x,1/2+y,-z
1/2-x,y,1/2+z
x,1/2-y,1/2+z
loop_
_atom_site_type_symbol
_atom_site_label
_atom_site_fract_x
_atom_site_fract_y
_atom_site_fract_z
Si Si1 0.135992 0.460113 0.764046
Si Si2 0.487912 0.986233 0.929678
Si Si3 0.365173 0.652103 0.068617
Si Si4 0.644086 0.605973 0.878121
Si Si5 0.849180 0.349764 0.530182
Si Si6 0.491555 0.202643 0.709165
Si Si7 0.870249 0.933742 0.139958
O O1 0.410585 0.468160 0.739849
O O2 0.988177 0.384965 0.737872
O O3 0.200033 0.432298 0.815840
O O4 0.697449 0.062025 0.933921
O O5 0.273702 0.040585 0.905922
O O6 0.575766 0.914552 0.891630
O O7 0.372739 0.923219 0.968468
O O8 0.250000 0.750000 0.066059
O O9 0.484941 0.648765 0.119251
O O10 0.492124 0.646001 0.018263
O O11 0.517425 0.625019 0.926794
O O12 0.573131 0.680096 0.842955
O O13 0.551182 0.516554 0.853831
O O14 0.750000 0.250000 0.535908
O O15 0.250000 0.250000 0.728593
O O16 0.750000 0.250000 0.711439
#
# Coordination Sequence:
#
# PCOD9431988 Si02
#       7
#     8   8   8   8   8   8   8
#     4  12  25  48  79 104 141 194 245 301 367 447
#     4  10  22  39  66  97 131 185 229 289 353 431
#     4  10  23  44  64  96 138 182 236 294 346 423
#     4  10  22  40  66  98 139 179 229 289 364 435
#     4  10  22  38  64  99 138 180 230 284 356 428
#     4  12  27  45  70 110 148 182 238 310 374 437
#     4  10  23  43  69  96 131 185 240 291 357 428
#
# _framework density 23.266064
#
# number of rings (size 3 to 8) (size 9 to 14) (size 15 to 20)
#    0.000    1.429    1.429    2.571    8.000    6.857 
#    2.571    2.857    0.000    0.000    0.000    0.000 
#    0.000    0.000    0.000    0.000    0.000    0.000 
#
# Total GULP energy -311759.135314 kJ/mol
# GULP energy per Si atom -5567.127416 kJ/mol
# Density = 2.321311 g / cm^3
# Si number density = 23.266064 Si / 1000 Ang^3
#
#
#
# Elastic Constant Matrix: (Units=GPa)
#
#
# Indices 1 2 3 4 5 6 
#
# 1 48.1729 22.7257 1.8671 0.0000 0.0000 0.0000
# 2 22.7257 75.3456 50.5003 0.0000 0.0000 0.0000
# 3 1.8671 50.5003 97.1905 0.0000 0.0000 0.0000
# 4 0.0000 0.0000 0.0000 18.5824 0.0000 0.0000
# 5 0.0000 0.0000 0.0000 0.0000 16.2576 0.0000
# 6 0.0000 0.0000 0.0000 0.0000 0.0000 27.6821
#
#
#
# Elastic Compliance Matrix: (Units=1/GPa)
#
#
# Indices 1 2 3 4 5 6 
#
# 1 0.025975 -0.011508 0.005481 0.000000 0.000000 0.000000
# 2 -0.011508 0.025463 -0.013009 0.000000 0.000000 0.000000
# 3 0.005481 -0.013009 0.016943 0.000000 0.000000 0.000000
# 4 0.000000 0.000000 0.000000 0.053814 0.000000 0.000000
# 5 0.000000 0.000000 0.000000 0.000000 0.061510 0.000000
# 6 0.000000 0.000000 0.000000 0.000000 0.000000 0.036124
#
#
# Mechanical properties :
#
#
# Convention : Reuss Voigt Hill
#
# Bulk Modulus (GPa) = 32.99492 41.21059 37.10275
# Shear Modulus (GPa) = 18.65631 22.21215 20.43423
#
# Velocity S-wave (km/s) = 2.83480 3.09318 2.96680
# Velocity P-wave (km/s) = 4.99271 5.52342 5.26476
#
# Compressibility (1/GPa) = 0.03030770
#
# Stress axis : x y z
#
# Youngs Moduli (GPa) = 38.49854 39.27313 59.01972
#
# Poissons Ratio (x) = 0.45195 -0.32346
# Poissons Ratio (y) = 0.44304 0.76781
# Poissons Ratio (z) = -0.21099 0.51092
#
# Static dielectric constant tensor:
#      x y z
#    x 2.059230 0.000000 0.000000 
#    y 0.000000 1.139800 0.000000 
#    z 0.000000 0.000000 1.914900 
# 
# From -- ./inp_files/22889.got.cif
#   From: 2010.05.17/outbox.cif.g08.bks.cpg/sg56_12_cif.got.tgz:22889.got - 2010.06.03 13:42:01.
