data_PCOD9431840
_publ_section_title
;
Structure prediction by ZEFSAII (Michael W. Deem and Ramdas Pophale) SiO2 
 PCOD9431840
Probable space group: P C C N
;
_chemical_formula_sum "Si O2"
_cell_formula_units_Z 48
_cell_length_a 10.170116
_cell_length_b 12.025807
_cell_length_c 17.865732
_cell_angle_alpha 90.000000
_cell_angle_beta 90.000000
_cell_angle_gamma 90.000000
_cell_volume 2185.047846
_symmetry_space_group_name_H-M "P C C N"
_symmetry_group_IT_number 56
_symmetry_cell_setting 'orthorhombic'
loop_
_space_group_symop_operation_xyz
x,y,z
1/2-x,1/2-y,z
1/2+x,-y,1/2-z
-x,1/2+y,1/2-z
-x,-y,-z
1/2+x,1/2+y,-z
1/2-x,y,1/2+z
x,1/2-y,1/2+z
loop_
_atom_site_type_symbol
_atom_site_label
_atom_site_fract_x
_atom_site_fract_y
_atom_site_fract_z
Si Si1 0.750000 0.750000 0.702552
Si Si2 0.921520 0.306768 0.658900
Si Si3 0.337477 0.907211 0.777969
Si Si4 0.686347 0.473011 0.466066
Si Si5 0.750000 0.250000 0.524953
Si Si6 0.205392 0.415547 0.669826
Si Si7 0.583134 0.586855 0.609285
O O1 0.776558 0.650063 0.762292
O O2 0.638793 0.698448 0.647754
O O3 0.908998 0.210193 0.720512
O O4 0.804165 0.390791 0.681399
O O5 0.874696 0.246303 0.582263
O O6 0.064015 0.359002 0.657615
O O7 0.314011 0.958744 0.697702
O O8 0.421167 0.997432 0.823595
O O9 0.772475 0.362845 0.479505
O O10 0.721928 0.569742 0.407896
O O11 0.676777 0.533632 0.546064
O O12 0.553993 0.415659 0.434025
#
# Coordination Sequence:
#
# PCOD9431840 Si02
#       7
#     4   8   8   8   4   8   8
#     4  10  26  44  62 102 134 184 218 274 348 412
#     4  10  21  43  68  88 136 181 215 278 333 415
#     4   9  21  43  65  91 133 180 213 273 356 383
#     4  11  24  43  70 102 130 177 226 283 334 401
#     4  10  22  46  64  98 134 184 224 270 356 394
#     4  11  26  39  69 106 131 168 240 278 327 410
#     4  10  22  46  68  90 141 174 215 280 344 398
#
# _framework density 21.967480999999999
#
# number of rings (size 3 to 8) (size 9 to 14) (size 15 to 20)
#    0.000    2.000    3.333    0.000    7.000    5.333 
#    6.000    0.000    0.000    0.000    0.000    0.000 
#    0.000    0.000    0.000    0.000    0.000    0.000 
#
# Total GULP energy -267599.165593 kJ/mol
# GULP energy per Si atom -5574.982617 kJ/mol
# Density = 2.191748 g / cm^3
# Si number density = 21.967481 Si / 1000 Ang^3
#
#
#
# Elastic Constant Matrix: (Units=GPa)
#
#
# Indices 1 2 3 4 5 6 
#
# 1 60.6222 30.2020 12.8877 0.0000 0.0000 0.0000
# 2 30.2020 84.3788 22.6474 0.0000 0.0000 0.0000
# 3 12.8877 22.6474 83.2733 0.0000 0.0000 0.0000
# 4 0.0000 0.0000 0.0000 42.4130 0.0000 0.0000
# 5 0.0000 0.0000 0.0000 0.0000 16.3386 0.0000
# 6 0.0000 0.0000 0.0000 0.0000 0.0000 18.9971
#
#
#
# Elastic Compliance Matrix: (Units=1/GPa)
#
#
# Indices 1 2 3 4 5 6 
#
# 1 0.020196 -0.006893 -0.001251 0.000000 0.000000 0.000000
# 2 -0.006893 0.015137 -0.003050 0.000000 0.000000 0.000000
# 3 -0.001251 -0.003050 0.013032 0.000000 0.000000 0.000000
# 4 0.000000 0.000000 0.000000 0.023578 0.000000 0.000000
# 5 0.000000 0.000000 0.000000 0.000000 0.061205 0.000000
# 6 0.000000 0.000000 0.000000 0.000000 0.000000 0.052640
#
#
# Mechanical properties :
#
#
# Convention : Reuss Voigt Hill
#
# Bulk Modulus (GPa) = 38.49589 39.97207 39.23398
# Shear Modulus (GPa) = 23.05922 26.38558 24.72240
#
# Velocity S-wave (km/s) = 3.24342 3.46948 3.35835
# Velocity P-wave (km/s) = 5.62036 5.85536 5.73906
#
# Compressibility (1/GPa) = 0.02597680
#
# Stress axis : x y z
#
# Youngs Moduli (GPa) = 49.51576 66.06264 76.73580
#
# Poissons Ratio (x) = 0.45537 0.09599
# Poissons Ratio (y) = 0.34131 0.23404
# Poissons Ratio (z) = 0.06194 0.20149
#
# Static dielectric constant tensor:
#      x y z
#    x 1.857370 0.000000 0.000000 
#    y 0.000000 1.819670 0.000000 
#    z 0.000000 0.000000 1.808600 
# 
# From -- ./inp_files/15655.got.cif
#   From: 2010.05.17/outbox.cif.g08.bks.cpg/sg56_8_cif.got.tgz:15655.got - 2010.06.03 13:42:01.
