data_PCOD9431777
_publ_section_title
;
Structure prediction by ZEFSAII (Michael W. Deem and Ramdas Pophale) SiO2 
 PCOD9431777
Probable space group: P C C N
;
_chemical_formula_sum "Si O2"
_cell_formula_units_Z 64
_cell_length_a 11.320747
_cell_length_b 23.093060
_cell_length_c 12.420264
_cell_angle_alpha 90.000000
_cell_angle_beta 90.000000
_cell_angle_gamma 90.000000
_cell_volume 3247.038184
_symmetry_space_group_name_H-M "P C C N"
_symmetry_group_IT_number 56
_symmetry_cell_setting 'orthorhombic'
loop_
_space_group_symop_operation_xyz
x,y,z
1/2-x,1/2-y,z
1/2+x,-y,1/2-z
-x,1/2+y,1/2-z
-x,-y,-z
1/2+x,1/2+y,-z
1/2-x,y,1/2+z
x,1/2-y,1/2+z
loop_
_atom_site_type_symbol
_atom_site_label
_atom_site_fract_x
_atom_site_fract_y
_atom_site_fract_z
Si Si1 0.572295 0.098662 0.744080
Si Si2 0.210429 0.609871 0.035509
Si Si3 0.363696 0.333490 0.328207
Si Si4 0.270906 0.191669 0.131590
Si Si5 0.342641 0.378860 0.960904
Si Si6 0.877925 0.010369 0.064170
Si Si7 0.510672 0.311021 0.542442
Si Si8 0.083201 0.679888 0.460803
O O1 0.440627 0.111988 0.787044
O O2 0.587897 0.040287 0.676583
O O3 0.596707 0.149449 0.656369
O O4 0.658901 0.099898 0.845842
O O5 0.282852 0.554013 0.991269
O O6 0.101704 0.635400 0.964298
O O7 0.304887 0.661725 0.031273
O O8 0.326970 0.296821 0.224170
O O9 0.234051 0.346886 0.371956
O O10 0.441379 0.309830 0.426859
O O11 0.250000 0.250000 0.061053
O O12 0.411133 0.182787 0.134769
O O13 0.224725 0.134569 0.072097
O O14 0.332886 0.445393 0.929616
O O15 0.470707 0.351319 0.982421
O O16 0.000000 0.000000 0.000000
O O17 0.569185 0.248174 0.552233
#
# Coordination Sequence:
#
# PCOD9431777 Si02
#       8
#     8   8   8   8   8   8   8   8
#     4  10  21  42  64  91 125 170 210 270 328 384
#     4  10  23  42  65  92 126 169 220 264 325 400
#     4  10  22  37  59  94 127 162 218 264 328 383
#     4  11  20  37  61  90 128 165 214 270 326 390
#     4  11  22  38  63  92 119 169 211 266 325 390
#     4  11  21  42  68  85 125 169 216 266 319 389
#     4  10  22  39  63  94 131 171 210 279 331 387
#     4  11  20  43  64  90 134 166 215 264 339 391
#
# _framework density 19.710270999999999
#
# number of rings (size 3 to 8) (size 9 to 14) (size 15 to 20)
#    0.000    1.500    5.000    0.375    1.750    2.000 
#    4.500   10.625    0.000    0.000    0.000    0.000 
#    0.000    0.000    0.000    0.000    0.000    0.000 
#
# Total GULP energy -356287.286959 kJ/mol
# GULP energy per Si atom -5566.988859 kJ/mol
# Density = 1.966541 g / cm^3
# Si number density = 19.710271 Si / 1000 Ang^3
#
#
#
# Elastic Constant Matrix: (Units=GPa)
#
#
# Indices 1 2 3 4 5 6 
#
# 1 103.7741 -5.3879 19.0026 0.0000 0.0000 0.0000
# 2 -5.3879 35.9684 -9.5234 0.0000 0.0000 0.0000
# 3 19.0026 -9.5234 42.6886 0.0000 0.0000 0.0000
# 4 0.0000 0.0000 0.0000 11.5867 0.0000 0.0000
# 5 0.0000 0.0000 0.0000 0.0000 35.6782 0.0000
# 6 0.0000 0.0000 0.0000 0.0000 0.0000 34.8160
#
#
#
# Elastic Compliance Matrix: (Units=1/GPa)
#
#
# Indices 1 2 3 4 5 6 
#
# 1 0.010496 0.000356 -0.004593 0.000000 0.000000 0.000000
# 2 0.000356 0.029560 0.006436 0.000000 0.000000 0.000000
# 3 -0.004593 0.006436 0.026906 0.000000 0.000000 0.000000
# 4 0.000000 0.000000 0.000000 0.086306 0.000000 0.000000
# 5 0.000000 0.000000 0.000000 0.000000 0.028028 0.000000
# 6 0.000000 0.000000 0.000000 0.000000 0.000000 0.028722
#
#
# Mechanical properties :
#
#
# Convention : Reuss Voigt Hill
#
# Bulk Modulus (GPa) = 14.01345 21.17929 17.59637
# Shear Modulus (GPa) = 21.79548 28.30551 25.05049
#
# Velocity S-wave (km/s) = 3.32895 3.79367 3.56889
# Velocity P-wave (km/s) = 4.67986 5.47338 5.09210
#
# Compressibility (1/GPa) = 0.07136000
#
# Stress axis : x y z
#
# Youngs Moduli (GPa) = 95.27621 33.82992 37.16688
#
# Poissons Ratio (x) = -0.01205 0.17070
# Poissons Ratio (y) = -0.03394 -0.23920
# Poissons Ratio (z) = 0.43757 -0.21773
#
# Static dielectric constant tensor:
#      x y z
#    x 1.754130 0.000000 0.000000 
#    y 0.000000 1.798880 0.000000 
#    z 0.000000 0.000000 1.761080 
# 
# From -- ./inp_files/7400.got.cif
#   From: 2010.05.17/outbox.cif.g08.bks.cpg/sg56_4_cif.got.tgz:7400.got - 2010.06.03 13:42:01.
