data_PCOD9431288
_publ_section_title
;
Structure prediction by ZEFSAII (Michael W. Deem and Ramdas Pophale) SiO2 
 PCOD9431288
Probable space group: P C C N
;
_chemical_formula_sum "Si O2"
_cell_formula_units_Z 52
_cell_length_a 5.078286
_cell_length_b 25.925127
_cell_length_c 19.138185
_cell_angle_alpha 90.000000
_cell_angle_beta 90.000000
_cell_angle_gamma 90.000000
_cell_volume 2519.641755
_symmetry_space_group_name_H-M "P C C N"
_symmetry_group_IT_number 56
_symmetry_cell_setting 'orthorhombic'
loop_
_space_group_symop_operation_xyz
x,y,z
1/2-x,1/2-y,z
1/2+x,-y,1/2-z
-x,1/2+y,1/2-z
-x,-y,-z
1/2+x,1/2+y,-z
1/2-x,y,1/2+z
x,1/2-y,1/2+z
loop_
_atom_site_type_symbol
_atom_site_label
_atom_site_fract_x
_atom_site_fract_y
_atom_site_fract_z
Si Si1 0.373784 0.500183 0.575973
Si Si2 0.875667 0.563081 0.609652
Si Si3 0.250000 0.750000 0.500677
Si Si4 0.389393 0.964005 0.750684
Si Si5 0.967643 0.354834 0.501598
Si Si6 0.147892 0.299800 0.109606
Si Si7 0.606496 0.099993 0.119358
O O1 0.500000 0.500000 0.500000
O O2 0.080752 0.521379 0.578546
O O3 0.379532 0.440724 0.599455
O O4 0.586298 0.538170 0.614135
O O5 0.006264 0.570777 0.686110
O O6 0.888847 0.610812 0.556339
O O7 0.146797 0.697260 0.535413
O O8 0.470497 0.727236 0.449316
O O9 0.273505 0.930726 0.815027
O O10 0.655704 0.996392 0.768643
O O11 0.758014 0.388332 0.546645
O O12 0.142566 0.332091 0.564643
O O13 0.250000 0.250000 0.151568
O O14 0.984752 0.344299 0.146924
#
# Coordination Sequence:
#
# PCOD9431288 Si02
#       7
#     8   8   4   8   8   8   8
#     4  12  23  36  58  90 124 156 202 249 300 363
#     4  12  24  39  58  89 127 164 202 249 307 373
#     4   8  18  38  56  90 118 150 192 266 318 372
#     4  12  25  42  57  85 129 175 205 244 301 377
#     4  10  21  35  64  88 118 155 206 259 316 360
#     4   9  19  37  61  88 117 150 202 262 317 361
#     4  11  22  35  61  85 122 162 208 248 309 361
#
# _framework density 20.637855999999999
#
# number of rings (size 3 to 8) (size 9 to 14) (size 15 to 20)
#    0.000    1.231    4.615    1.385    6.462    0.000 
#    0.000    0.000    0.000    8.308    0.000    0.000 
#    0.000    0.000    0.000    0.000    0.000    0.000 
#
# Total GULP energy -289532.913264 kJ/mol
# GULP energy per Si atom -5567.940640 kJ/mol
# Density = 2.059088 g / cm^3
# Si number density = 20.637856 Si / 1000 Ang^3
#
#
#
# Elastic Constant Matrix: (Units=GPa)
#
#
# Indices 1 2 3 4 5 6 
#
# 1 63.3115 23.2836 -9.6517 0.0000 0.0000 0.0000
# 2 23.2836 145.4941 24.6388 0.0000 0.0000 0.0000
# 3 -9.6517 24.6388 62.1326 0.0000 0.0000 0.0000
# 4 0.0000 0.0000 0.0000 16.9336 0.0000 0.0000
# 5 0.0000 0.0000 0.0000 0.0000 24.1444 0.0000
# 6 0.0000 0.0000 0.0000 0.0000 0.0000 30.8356
#
#
#
# Elastic Compliance Matrix: (Units=1/GPa)
#
#
# Indices 1 2 3 4 5 6 
#
# 1 0.017732 -0.003542 0.004159 0.000000 0.000000 0.000000
# 2 -0.003542 0.008075 -0.003753 0.000000 0.000000 0.000000
# 3 0.004159 -0.003753 0.018229 0.000000 0.000000 0.000000
# 4 0.000000 0.000000 0.000000 0.059054 0.000000 0.000000
# 5 0.000000 0.000000 0.000000 0.000000 0.041418 0.000000
# 6 0.000000 0.000000 0.000000 0.000000 0.000000 0.032430
#
#
# Mechanical properties :
#
#
# Convention : Reuss Voigt Hill
#
# Bulk Modulus (GPa) = 26.47968 38.60885 32.54427
# Shear Modulus (GPa) = 25.53671 29.89387 27.71529
#
# Velocity S-wave (km/s) = 3.52145 3.81004 3.66858
# Velocity P-wave (km/s) = 5.42149 6.17281 5.80931
#
# Compressibility (1/GPa) = 0.03776480
#
# Stress axis : x y z
#
# Youngs Moduli (GPa) = 56.39671 123.83248 54.85835
#
# Poissons Ratio (x) = 0.43860 -0.22816
# Poissons Ratio (y) = 0.19975 0.20586
# Poissons Ratio (z) = -0.23455 0.46469
#
# Static dielectric constant tensor:
#      x y z
#    x 1.789060 0.000000 0.000000 
#    y 0.000000 1.698780 0.000000 
#    z 0.000000 0.000000 1.810070 
# 
# From -- ./inp_files/17548.got.cif
#   From: 2010.05.17/outbox.cif.g08.bks.cpg/sg56_9_cif.got.tgz:17548.got - 2010.06.03 13:42:01.
