data_PCOD9431883
_publ_section_title
;
Structure prediction by ZEFSAII (Michael W. Deem and Ramdas Pophale) SiO2 
 PCOD9431883
Probable space group: P C C N
;
_chemical_formula_sum "Si O2"
_cell_formula_units_Z 44
_cell_length_a 13.684967
_cell_length_b 5.530597
_cell_length_c 26.493656
_cell_angle_alpha 90.000000
_cell_angle_beta 90.000000
_cell_angle_gamma 90.000000
_cell_volume 2005.199840
_symmetry_space_group_name_H-M "P C C N"
_symmetry_group_IT_number 56
_symmetry_cell_setting 'orthorhombic'
loop_
_space_group_symop_operation_xyz
x,y,z
1/2-x,1/2-y,z
1/2+x,-y,1/2-z
-x,1/2+y,1/2-z
-x,-y,-z
1/2+x,1/2+y,-z
1/2-x,y,1/2+z
x,1/2-y,1/2+z
loop_
_atom_site_type_symbol
_atom_site_label
_atom_site_fract_x
_atom_site_fract_y
_atom_site_fract_z
Si Si1 0.103291 0.650745 0.281115
Si Si2 0.604944 0.122087 0.005887
Si Si3 0.876711 0.847854 0.762837
Si Si4 0.643445 0.124233 0.606278
Si Si5 0.250000 0.250000 0.141483
Si Si6 0.250000 0.750000 0.577391
Si Si7 0.250000 0.250000 0.944303
O O1 0.151800 0.393129 0.268002
O O2 0.093936 0.671832 0.341190
O O3 0.993879 0.642696 0.259840
O O4 0.153160 0.889733 0.258289
O O5 0.593401 0.284088 0.055653
O O6 0.692703 0.937155 0.020555
O O7 0.652168 0.258330 0.957920
O O8 0.500000 0.000000 0.000000
O O9 0.839094 0.799232 0.819460
O O10 0.750000 0.250000 0.609233
O O11 0.667535 0.849312 0.593326
O O12 0.240831 0.498983 0.109268
#
# Coordination Sequence:
#
# PCOD9431883 Si02
#       7
#     8   8   8   8   4   4   4
#     4  10  23  42  67  96 136 170 228 286 345 415
#     4  11  25  45  70  99 143 187 232 291 356 416
#     4  10  24  44  63  97 133 176 226 286 340 423
#     4  10  23  39  67 100 130 175 227 284 343 419
#     4  12  27  43  72  94 140 186 231 285 358 414
#     4  12  26  48  66 104 144 182 244 296 332 442
#     4  10  21  45  62 102 144 164 243 285 336 428
#
# _framework density 21.942951999999998
#
# number of rings (size 3 to 8) (size 9 to 14) (size 15 to 20)
#    0.000    1.455    2.727    1.636   10.182    2.182 
#    0.000    0.000    0.000    0.000    0.000    0.000 
#    0.000    0.000    0.000    0.000    0.000    0.000 
#
# Total GULP energy -245437.147065 kJ/mol
# GULP energy per Si atom -5578.116979 kJ/mol
# Density = 2.189301 g / cm^3
# Si number density = 21.942952 Si / 1000 Ang^3
#
#
#
# Elastic Constant Matrix: (Units=GPa)
#
#
# Indices 1 2 3 4 5 6 
#
# 1 59.8448 34.7861 -3.8290 0.0000 0.0000 0.0000
# 2 34.7861 165.2944 79.2333 0.0000 0.0000 0.0000
# 3 -3.8290 79.2333 113.5751 0.0000 0.0000 0.0000
# 4 0.0000 0.0000 0.0000 -0.0421 0.0000 0.0000
# 5 0.0000 0.0000 0.0000 0.0000 28.1692 0.0000
# 6 0.0000 0.0000 0.0000 0.0000 0.0000 30.3042
#
#
#
# Elastic Compliance Matrix: (Units=1/GPa)
#
#
# Indices 1 2 3 4 5 6 
#
# 1 0.021293 -0.007250 0.005775 0.000000 0.000000 0.000000
# 2 -0.007250 0.011558 -0.008307 0.000000 0.000000 0.000000
# 3 0.005775 -0.008307 0.014795 0.000000 0.000000 0.000000
# 4 0.000000 0.000000 0.000000-23.754745 0.000000 0.000000
# 5 0.000000 0.000000 0.000000 0.000000 0.035500 0.000000
# 6 0.000000 0.000000 0.000000 0.000000 0.000000 0.032999
#
#
# Mechanical properties :
#
#
# Convention : Reuss Voigt Hill
#
# Bulk Modulus (GPa) = 35.60891 62.12167 48.86529
# Shear Modulus (GPa) = -0.21178 26.92119 13.35471
#
# Velocity S-wave (km/s) = -0.31100 3.50647 2.46968
# Velocity P-wave (km/s) = 4.01674 6.69072 5.51815
#
# Compressibility (1/GPa) = 0.02808286
#
# Stress axis : x y z
#
# Youngs Moduli (GPa) = 46.96286 86.52345 67.59099
#
# Poissons Ratio (x) = 0.62726 -0.39037
# Poissons Ratio (y) = 0.34046 0.56150
# Poissons Ratio (z) = -0.27123 0.71878
#
# Static dielectric constant tensor:
#      x y z
#    x 1.325550 0.000000 0.000000 
#    y 0.000000 1.890870 0.000000 
#    z 0.000000 0.000000 1.803310 
# 
# From -- ./inp_files/22408.got.cif
#   From: 2010.05.17/outbox.cif.g08.bks.cpg/sg56_12_cif.got.tgz:22408.got - 2010.06.03 13:42:01.
