data_PCOD9431730
_publ_section_title
;
Structure prediction by ZEFSAII (Michael W. Deem and Ramdas Pophale) SiO2 
 PCOD9431730
Probable space group: P C C N
;
_chemical_formula_sum "Si O2"
_cell_formula_units_Z 40
_cell_length_a 8.556039
_cell_length_b 22.511156
_cell_length_c 9.206059
_cell_angle_alpha 90.000000
_cell_angle_beta 90.000000
_cell_angle_gamma 90.000000
_cell_volume 1773.145226
_symmetry_space_group_name_H-M "P C C N"
_symmetry_group_IT_number 56
_symmetry_cell_setting 'orthorhombic'
loop_
_space_group_symop_operation_xyz
x,y,z
1/2-x,1/2-y,z
1/2+x,-y,1/2-z
-x,1/2+y,1/2-z
-x,-y,-z
1/2+x,1/2+y,-z
1/2-x,y,1/2+z
x,1/2-y,1/2+z
loop_
_atom_site_type_symbol
_atom_site_label
_atom_site_fract_x
_atom_site_fract_y
_atom_site_fract_z
Si Si1 0.091687 0.876691 0.170779
Si Si2 0.069164 0.231194 0.967416
Si Si3 0.932344 0.493166 0.158801
Si Si4 0.092015 0.954533 0.898495
Si Si5 0.121260 0.800899 0.747940
O O1 0.022418 0.929677 0.268323
O O2 0.261689 0.856864 0.231644
O O3 0.973555 0.821773 0.146937
O O4 0.123369 0.901500 0.008896
O O5 0.250000 0.250000 0.973739
O O6 0.966482 0.285918 0.903475
O O7 0.002734 0.207599 0.121738
O O8 0.747839 0.486897 0.151752
O O9 0.984283 0.548799 0.256837
O O10 0.000000 0.500000 0.000000
O O11 0.000000 0.000000 0.000000
O O12 0.250000 0.750000 0.773659
#
# Coordination Sequence:
#
# PCOD9431730 Si02
#       5
#     8   8   8   8   8
#     4  10  22  42  68  94 130 183 225 262 340 421
#     4  11  23  42  66  99 136 168 220 288 336 387
#     4  11  22  41  67  96 133 174 224 282 333 402
#     4  10  22  42  65  96 133 172 220 273 333 402
#     4  10  21  41  66  93 130 177 222 265 325 412
#
# _framework density 22.558782999999998
#
# number of rings (size 3 to 8) (size 9 to 14) (size 15 to 20)
#    0.000    1.600    0.000    6.000    0.000    1.600 
#    0.000   36.000    0.000    0.000    0.000    0.000 
#    0.000    0.000    0.000    0.000    0.000    0.000 
#
# Total GULP energy -223219.557893 kJ/mol
# GULP energy per Si atom -5580.488947 kJ/mol
# Density = 2.250744 g / cm^3
# Si number density = 22.558783 Si / 1000 Ang^3
#
#
#
# Elastic Constant Matrix: (Units=GPa)
#
#
# Indices 1 2 3 4 5 6 
#
# 1 139.1414 45.6527 35.5298 0.0000 0.0000 0.0000
# 2 45.6527 77.9183 41.4893 0.0000 0.0000 0.0000
# 3 35.5298 41.4893 136.7104 0.0000 0.0000 0.0000
# 4 0.0000 0.0000 0.0000 40.0368 0.0000 0.0000
# 5 0.0000 0.0000 0.0000 0.0000 47.8305 0.0000
# 6 0.0000 0.0000 0.0000 0.0000 0.0000 38.3183
#
#
#
# Elastic Compliance Matrix: (Units=1/GPa)
#
#
# Indices 1 2 3 4 5 6 
#
# 1 0.008985 -0.004796 -0.000880 0.000000 0.000000 0.000000
# 2 -0.004796 0.017868 -0.004176 0.000000 0.000000 0.000000
# 3 -0.000880 -0.004176 0.008811 0.000000 0.000000 0.000000
# 4 0.000000 0.000000 0.000000 0.024977 0.000000 0.000000
# 5 0.000000 0.000000 0.000000 0.000000 0.020907 0.000000
# 6 0.000000 0.000000 0.000000 0.000000 0.000000 0.026097
#
#
# Mechanical properties :
#
#
# Convention : Reuss Voigt Hill
#
# Bulk Modulus (GPa) = 62.65681 66.56819 64.61250
# Shear Modulus (GPa) = 37.68795 40.64366 39.16580
#
# Velocity S-wave (km/s) = 4.09180 4.24922 4.17125
# Velocity P-wave (km/s) = 7.08230 7.32444 7.20438
#
# Compressibility (1/GPa) = 0.01595996
#
# Stress axis : x y z
#
# Youngs Moduli (GPa) = 111.29476 55.96711 113.49820
#
# Poissons Ratio (x) = 0.26842 0.09984
# Poissons Ratio (y) = 0.53378 0.47398
# Poissons Ratio (z) = 0.09790 0.23372
#
# Static dielectric constant tensor:
#      x y z
#    x 1.943920 0.000000 0.000000 
#    y 0.000000 1.970680 0.000000 
#    z 0.000000 0.000000 1.881280 
# 
# From -- ./inp_files/2124.got.cif
#   From: 2010.05.17/outbox.cif.g08.bks.cpg/sg56_2_cif.got.tgz:2124.got - 2010.06.03 13:42:01.
