data_PCOD9431473
_publ_section_title
;
Structure prediction by ZEFSAII (Michael W. Deem and Ramdas Pophale) SiO2 
 PCOD9431473
Probable space group: P C C N
;
_chemical_formula_sum "Si O2"
_cell_formula_units_Z 48
_cell_length_a 27.717275
_cell_length_b 8.641447
_cell_length_c 9.369773
_cell_angle_alpha 90.000000
_cell_angle_beta 90.000000
_cell_angle_gamma 90.000000
_cell_volume 2244.223320
_symmetry_space_group_name_H-M "P C C N"
_symmetry_group_IT_number 56
_symmetry_cell_setting 'orthorhombic'
loop_
_space_group_symop_operation_xyz
x,y,z
1/2-x,1/2-y,z
1/2+x,-y,1/2-z
-x,1/2+y,1/2-z
-x,-y,-z
1/2+x,1/2+y,-z
1/2-x,y,1/2+z
x,1/2-y,1/2+z
loop_
_atom_site_type_symbol
_atom_site_label
_atom_site_fract_x
_atom_site_fract_y
_atom_site_fract_z
Si Si1 0.986074 0.249631 0.051305
Si Si2 0.715548 0.400095 0.575816
Si Si3 0.137486 0.958685 0.820681
Si Si4 0.261278 0.427404 0.697164
Si Si5 0.621104 0.263872 0.447099
Si Si6 0.963589 0.922633 0.201912
O O1 0.933817 0.297815 0.991053
O O2 0.010142 0.376105 0.152597
O O3 0.977939 0.093533 0.145757
O O4 0.019163 0.196413 0.919843
O O5 0.750000 0.250000 0.559940
O O6 0.720840 0.462316 0.734532
O O7 0.733864 0.531056 0.467934
O O8 0.661823 0.364161 0.526019
O O9 0.131970 0.905074 0.985005
O O10 0.128088 0.808236 0.718311
O O11 0.189272 0.023591 0.777474
O O12 0.094132 0.074468 0.784129
O O13 0.250000 0.250000 0.719155
#
# Coordination Sequence:
#
# PCOD9431473 Si02
#       6
#     8   8   8   8   8   8
#     4  10  21  41  62  90 126 161 206 262 306 374
#     4  11  22  41  68  91 120 168 214 258 307 376
#     4  10  22  41  63  94 125 162 210 255 315 375
#     4  11  24  43  60  94 134 159 202 266 323 374
#     4  10  21  38  67  92 118 160 219 259 296 369
#     4  10  22  41  62  90 126 163 205 255 313 368
#
# _framework density 21.388242999999999
#
# number of rings (size 3 to 8) (size 9 to 14) (size 15 to 20)
#    0.000    1.667    1.667    3.000    2.333    2.667 
#   12.000    0.000    0.000    0.000    0.000    0.000 
#    0.000    0.000    0.000    0.000    0.000    0.000 
#
# Total GULP energy -268220.158586 kJ/mol
# GULP energy per Si atom -5587.919971 kJ/mol
# Density = 2.133956 g / cm^3
# Si number density = 21.388243 Si / 1000 Ang^3
#
#
#
# Elastic Constant Matrix: (Units=GPa)
#
#
# Indices 1 2 3 4 5 6 
#
# 1 75.8274 34.0445 29.8548 0.0000 0.0000 0.0000
# 2 34.0445 58.9967 22.4190 0.0000 0.0000 0.0000
# 3 29.8548 22.4190 78.7436 0.0000 0.0000 0.0000
# 4 0.0000 0.0000 0.0000 27.1260 0.0000 0.0000
# 5 0.0000 0.0000 0.0000 0.0000 16.0656 0.0000
# 6 0.0000 0.0000 0.0000 0.0000 0.0000 19.9585
#
#
#
# Elastic Compliance Matrix: (Units=1/GPa)
#
#
# Indices 1 2 3 4 5 6 
#
# 1 0.019192 -0.009318 -0.004623 0.000000 0.000000 0.000000
# 2 -0.009318 0.023530 -0.003167 0.000000 0.000000 0.000000
# 3 -0.004623 -0.003167 0.015354 0.000000 0.000000 0.000000
# 4 0.000000 0.000000 0.000000 0.036865 0.000000 0.000000
# 5 0.000000 0.000000 0.000000 0.000000 0.062245 0.000000
# 6 0.000000 0.000000 0.000000 0.000000 0.000000 0.050104
#
#
# Mechanical properties :
#
#
# Convention : Reuss Voigt Hill
#
# Bulk Modulus (GPa) = 41.91059 42.91159 42.41109
# Shear Modulus (GPa) = 20.04343 21.11333 20.57838
#
# Velocity S-wave (km/s) = 3.06457 3.14530 3.10520
# Velocity P-wave (km/s) = 5.67096 5.77038 5.72088
#
# Compressibility (1/GPa) = 0.02386032
#
# Stress axis : x y z
#
# Youngs Moduli (GPa) = 52.10613 42.49844 65.12997
#
# Poissons Ratio (x) = 0.39599 0.30112
# Poissons Ratio (y) = 0.48551 0.20624
# Poissons Ratio (z) = 0.24091 0.13457
#
# Static dielectric constant tensor:
#      x y z
#    x 1.770100 0.000000 0.000000 
#    y 0.000000 1.789940 0.000000 
#    z 0.000000 0.000000 1.770350 
# 
# From -- ./inp_files/5127.got.cif
#   From: 2010.05.17/outbox.cif.g08.bks.cpg/sg56_3_cif.got.tgz:5127.got - 2010.06.03 13:42:01.
