data_PCOD9431355
_publ_section_title
;
Structure prediction by ZEFSAII (Michael W. Deem and Ramdas Pophale) SiO2 
 PCOD9431355
Probable space group: P C C N
;
_chemical_formula_sum "Si O2"
_cell_formula_units_Z 36
_cell_length_a 7.584803
_cell_length_b 9.162206
_cell_length_c 20.819951
_cell_angle_alpha 90.000000
_cell_angle_beta 90.000000
_cell_angle_gamma 90.000000
_cell_volume 1446.851839
_symmetry_space_group_name_H-M "P C C N"
_symmetry_group_IT_number 56
_symmetry_cell_setting 'orthorhombic'
loop_
_space_group_symop_operation_xyz
x,y,z
1/2-x,1/2-y,z
1/2+x,-y,1/2-z
-x,1/2+y,1/2-z
-x,-y,-z
1/2+x,1/2+y,-z
1/2-x,y,1/2+z
x,1/2-y,1/2+z
loop_
_atom_site_type_symbol
_atom_site_label
_atom_site_fract_x
_atom_site_fract_y
_atom_site_fract_z
Si Si1 0.750000 0.750000 0.546060
Si Si2 0.111582 0.545870 0.419828
Si Si3 0.789179 0.989906 0.461135
Si Si4 0.982497 0.328029 0.706801
Si Si5 0.141649 0.016701 0.681807
O O1 0.853682 0.629112 0.585931
O O2 0.630256 0.648879 0.499046
O O3 0.237848 0.591066 0.478678
O O4 0.908430 0.562909 0.440409
O O5 0.137502 0.619698 0.352199
O O6 0.877806 0.023424 0.393689
O O7 0.024683 0.157834 0.699908
O O8 0.162989 0.421195 0.696370
O O9 0.904344 0.380297 0.773945
#
# Coordination Sequence:
#
# PCOD9431355 Si02
#       5
#     4   8   8   8   8
#     4   8  12  22  46  80 122 156 198 240 296 382
#     4   8  15  26  52  86 123 160 209 245 312 375
#     4   8  14  27  50  85 122 161 199 257 301 379
#     4  10  21  37  58  93 125 171 207 264 316 391
#     4  10  21  37  61  89 129 165 220 255 324 379
#
# _framework density 24.881606999999999
#
# number of rings (size 3 to 8) (size 9 to 14) (size 15 to 20)
#    1.333    1.778    0.000    2.667    0.000    2.667 
#    0.000    0.000    0.000    1.333    0.000    6.222 
#    0.000    5.556    0.000    0.000    0.000    0.000 
#
# Total GULP energy -200822.102756 kJ/mol
# GULP energy per Si atom -5578.391743 kJ/mol
# Density = 2.482498 g / cm^3
# Si number density = 24.881607 Si / 1000 Ang^3
#
#
#
# Elastic Constant Matrix: (Units=GPa)
#
#
# Indices 1 2 3 4 5 6 
#
# 1 86.5229 34.8448 39.1381 0.0000 0.0000 0.0000
# 2 34.8448 109.7752 77.0443 0.0000 0.0000 0.0000
# 3 39.1381 77.0443 219.9783 0.0000 0.0000 0.0000
# 4 0.0000 0.0000 0.0000 133.9391 0.0000 0.0000
# 5 0.0000 0.0000 0.0000 0.0000 15.7700 0.0000
# 6 0.0000 0.0000 0.0000 0.0000 0.0000 31.1089
#
#
#
# Elastic Compliance Matrix: (Units=1/GPa)
#
#
# Indices 1 2 3 4 5 6 
#
# 1 0.013484 -0.003443 -0.001193 0.000000 0.000000 0.000000
# 2 -0.003443 0.012957 -0.003926 0.000000 0.000000 0.000000
# 3 -0.001193 -0.003926 0.006133 0.000000 0.000000 0.000000
# 4 0.000000 0.000000 0.000000 0.007466 0.000000 0.000000
# 5 0.000000 0.000000 0.000000 0.000000 0.063412 0.000000
# 6 0.000000 0.000000 0.000000 0.000000 0.000000 0.032145
#
#
# Mechanical properties :
#
#
# Convention : Reuss Voigt Hill
#
# Bulk Modulus (GPa) = 64.71923 79.81453 72.26688
# Shear Modulus (GPa) = 31.67148 53.84688 42.75918
#
# Velocity S-wave (km/s) = 3.57163 4.65706 4.14998
# Velocity P-wave (km/s) = 6.56323 7.81441 7.21599
#
# Compressibility (1/GPa) = 0.01545136
#
# Stress axis : x y z
#
# Youngs Moduli (GPa) = 74.16305 77.17580 163.04891
#
# Poissons Ratio (x) = 0.26568 0.19457
# Poissons Ratio (y) = 0.25531 0.64008
# Poissons Ratio (z) = 0.08850 0.30297
#
# Static dielectric constant tensor:
#      x y z
#    x 2.067080 0.000000 0.000000 
#    y 0.000000 3.565510 0.000000 
#    z 0.000000 0.000000 1.970720 
# 
# From -- ./inp_files/17857.got.cif
#   From: 2010.05.17/outbox.cif.g08.bks.cpg/sg56_9_cif.got.tgz:17857.got - 2010.06.03 13:42:01.
