data_PCOD9431831
_publ_section_title
;
Structure prediction by ZEFSAII (Michael W. Deem and Ramdas Pophale) SiO2 
 PCOD9431831
Probable space group: P C C N
;
_chemical_formula_sum "Si O2"
_cell_formula_units_Z 48
_cell_length_a 13.210446
_cell_length_b 13.334273
_cell_length_c 12.499066
_cell_angle_alpha 90.000000
_cell_angle_beta 90.000000
_cell_angle_gamma 90.000000
_cell_volume 2201.731642
_symmetry_space_group_name_H-M "P C C N"
_symmetry_group_IT_number 56
_symmetry_cell_setting 'orthorhombic'
loop_
_space_group_symop_operation_xyz
x,y,z
1/2-x,1/2-y,z
1/2+x,-y,1/2-z
-x,1/2+y,1/2-z
-x,-y,-z
1/2+x,1/2+y,-z
1/2-x,y,1/2+z
x,1/2-y,1/2+z
loop_
_atom_site_type_symbol
_atom_site_label
_atom_site_fract_x
_atom_site_fract_y
_atom_site_fract_z
Si Si1 0.360936 0.202338 0.762734
Si Si2 0.811608 0.977820 0.872302
Si Si3 0.785204 0.417898 0.173127
Si Si4 0.855280 0.595038 0.020183
Si Si5 0.517878 0.319534 0.623835
Si Si6 0.657243 0.321144 0.997836
O O1 0.250000 0.250000 0.743856
O O2 0.378247 0.097519 0.698285
O O3 0.366349 0.179700 0.889052
O O4 0.442362 0.273713 0.710139
O O5 0.744668 0.029145 0.778767
O O6 0.746204 0.906134 0.948485
O O7 0.857607 0.074710 0.932908
O O8 0.833237 0.495443 0.088023
O O9 0.884080 0.351599 0.191761
O O10 0.700258 0.358441 0.111677
O O11 0.950764 0.599664 0.941485
O O12 0.561370 0.245601 0.530595
O O13 0.750000 0.250000 0.953319
#
# Coordination Sequence:
#
# PCOD9431831 Si02
#       6
#     8   8   8   8   8   8
#     4  11  24  40  62  93 131 176 217 264 317 384
#     4  10  21  43  65  90 128 171 210 264 325 384
#     4   9  21  42  62  94 128 164 215 264 329 384
#     4  10  22  41  64  89 129 168 215 267 322 382
#     4  11  22  40  65  96 126 167 219 263 322 389
#     4   9  21  40  64  95 128 165 209 273 326 378
#
# _framework density 21.801023000000001
#
# number of rings (size 3 to 8) (size 9 to 14) (size 15 to 20)
#    0.000    2.000    1.667    0.500    4.667    2.667 
#   12.000    0.000    0.000    0.000    0.000    0.000 
#    0.000    0.000    0.000    0.000    0.000    0.000 
#
# Total GULP energy -267257.253419 kJ/mol
# GULP energy per Si atom -5567.859446 kJ/mol
# Density = 2.175140 g / cm^3
# Si number density = 21.801023 Si / 1000 Ang^3
#
#
#
# Elastic Constant Matrix: (Units=GPa)
#
#
# Indices 1 2 3 4 5 6 
#
# 1 46.5606 3.1155 16.2943 0.0000 0.0000 0.0000
# 2 3.1155 44.0494 19.1053 0.0000 0.0000 0.0000
# 3 16.2943 19.1053 83.8172 0.0000 0.0000 0.0000
# 4 0.0000 0.0000 0.0000 26.2016 0.0000 0.0000
# 5 0.0000 0.0000 0.0000 0.0000 17.7711 0.0000
# 6 0.0000 0.0000 0.0000 0.0000 0.0000 23.1705
#
#
#
# Elastic Compliance Matrix: (Units=1/GPa)
#
#
# Indices 1 2 3 4 5 6 
#
# 1 0.023050 0.000348 -0.004560 0.000000 0.000000 0.000000
# 2 0.000348 0.025198 -0.005811 0.000000 0.000000 0.000000
# 3 -0.004560 -0.005811 0.014142 0.000000 0.000000 0.000000
# 4 0.000000 0.000000 0.000000 0.038166 0.000000 0.000000
# 5 0.000000 0.000000 0.000000 0.000000 0.056271 0.000000
# 6 0.000000 0.000000 0.000000 0.000000 0.000000 0.043158
#
#
# Mechanical properties :
#
#
# Convention : Reuss Voigt Hill
#
# Bulk Modulus (GPa) = 23.61720 27.93971 25.77845
# Shear Modulus (GPa) = 21.35419 22.48944 21.92182
#
# Velocity S-wave (km/s) = 3.13310 3.21530 3.17447
# Velocity P-wave (km/s) = 4.89336 5.16022 5.02856
#
# Compressibility (1/GPa) = 0.04234203
#
# Stress axis : x y z
#
# Youngs Moduli (GPa) = 43.38387 39.68628 70.71213
#
# Poissons Ratio (x) = -0.01380 0.32246
# Poissons Ratio (y) = -0.01508 0.41092
# Poissons Ratio (z) = 0.19784 0.23062
#
# Static dielectric constant tensor:
#      x y z
#    x 1.778900 0.000000 0.000000 
#    y 0.000000 1.882710 0.000000 
#    z 0.000000 0.000000 1.816780 
# 
# From -- ./inp_files/7820.got.cif
#   From: 2010.05.17/outbox.cif.g08.bks.cpg/sg56_4_cif.got.tgz:7820.got - 2010.06.03 13:42:01.
