data_PCOD9431393
_publ_section_title
;
Structure prediction by ZEFSAII (Michael W. Deem and Ramdas Pophale) SiO2 
 PCOD9431393
Probable space group: P C C N
;
_chemical_formula_sum "Si O2"
_cell_formula_units_Z 60
_cell_length_a 16.011095
_cell_length_b 11.348792
_cell_length_c 18.717812
_cell_angle_alpha 90.000000
_cell_angle_beta 90.000000
_cell_angle_gamma 90.000000
_cell_volume 3401.149732
_symmetry_space_group_name_H-M "P C C N"
_symmetry_group_IT_number 56
_symmetry_cell_setting 'orthorhombic'
loop_
_space_group_symop_operation_xyz
x,y,z
1/2-x,1/2-y,z
1/2+x,-y,1/2-z
-x,1/2+y,1/2-z
-x,-y,-z
1/2+x,1/2+y,-z
1/2-x,y,1/2+z
x,1/2-y,1/2+z
loop_
_atom_site_type_symbol
_atom_site_label
_atom_site_fract_x
_atom_site_fract_y
_atom_site_fract_z
Si Si1 0.721093 0.078373 0.560374
Si Si2 0.520696 0.842423 0.064401
Si Si3 0.539301 0.997826 0.383123
Si Si4 0.750000 0.250000 0.433279
Si Si5 0.897608 0.238866 0.830672
Si Si6 0.894742 0.621130 0.520535
Si Si7 0.417713 0.893653 0.927542
Si Si8 0.412614 0.684519 0.828795
O O1 0.712925 0.150779 0.486191
O O2 0.818237 0.090960 0.577362
O O3 0.662891 0.137446 0.620857
O O4 0.686988 0.946857 0.547981
O O5 0.482637 0.791792 0.136952
O O6 0.595458 0.759420 0.035759
O O7 0.544638 0.976817 0.076181
O O8 0.450052 0.839042 0.002278
O O9 0.590622 0.916115 0.438356
O O10 0.484300 0.914850 0.331930
O O11 0.592853 0.097740 0.342891
O O12 0.472295 0.065389 0.434236
O O13 0.676341 0.287495 0.380444
O O14 0.885482 0.280145 0.750137
O O15 0.445381 0.802719 0.867116
#
# Coordination Sequence:
#
# PCOD9431393 Si02
#       8
#     8   8   8   4   8   8   8   8
#     4  11  20  36  58  82 112 146 186 241 282 328
#     4  10  21  38  55  82 113 148 192 228 277 338
#     4   9  18  34  55  79 104 147 183 230 274 334
#     4  12  20  34  56  84 110 138 184 240 276 320
#     4  11  23  35  55  84 113 145 184 231 285 339
#     4   9  17  34  58  78 105 145 192 226 272 336
#     4  11  21  35  57  81 116 148 181 241 282 326
#     4  11  22  35  56  82 116 145 188 231 291 335
#
# _framework density 17.641093999999999
#
# number of rings (size 3 to 8) (size 9 to 14) (size 15 to 20)
#    0.000    1.600    5.333    0.000    3.733    0.533 
#    0.000    0.000    0.000    0.000    0.000    0.000 
#    0.000    0.000    0.000    0.000    0.000    0.000 
#
# Total GULP energy -334489.607413 kJ/mol
# GULP energy per Si atom -5574.826790 kJ/mol
# Density = 1.760094 g / cm^3
# Si number density = 17.641094 Si / 1000 Ang^3
#
#
#
# Elastic Constant Matrix: (Units=GPa)
#
#
# Indices 1 2 3 4 5 6 
#
# 1 40.2796 21.3372 21.7761 0.0000 0.0000 0.0000
# 2 21.3372 80.0947 34.1853 0.0000 0.0000 0.0000
# 3 21.7761 34.1853 116.9869 0.0000 0.0000 0.0000
# 4 0.0000 0.0000 0.0000 19.7567 0.0000 0.0000
# 5 0.0000 0.0000 0.0000 0.0000 15.1793 0.0000
# 6 0.0000 0.0000 0.0000 0.0000 0.0000 17.6451
#
#
#
# Elastic Compliance Matrix: (Units=1/GPa)
#
#
# Indices 1 2 3 4 5 6 
#
# 1 0.030277 -0.006467 -0.003746 0.000000 0.000000 0.000000
# 2 -0.006467 0.015646 -0.003368 0.000000 0.000000 0.000000
# 3 -0.003746 -0.003368 0.010229 0.000000 0.000000 0.000000
# 4 0.000000 0.000000 0.000000 0.050616 0.000000 0.000000
# 5 0.000000 0.000000 0.000000 0.000000 0.065879 0.000000
# 6 0.000000 0.000000 0.000000 0.000000 0.000000 0.056673
#
#
# Mechanical properties :
#
#
# Convention : Reuss Voigt Hill
#
# Bulk Modulus (GPa) = 34.49456 43.55092 39.02274
# Shear Modulus (GPa) = 18.78665 21.18705 19.98685
#
# Velocity S-wave (km/s) = 3.26688 3.46931 3.36962
# Velocity P-wave (km/s) = 5.81601 6.38662 6.10798
#
# Compressibility (1/GPa) = 0.02899007
#
# Stress axis : x y z
#
# Youngs Moduli (GPa) = 33.02785 63.91585 97.75668
#
# Poissons Ratio (x) = 0.41334 0.36621
# Poissons Ratio (y) = 0.21359 0.32925
# Poissons Ratio (z) = 0.12373 0.21527
#
# Static dielectric constant tensor:
#      x y z
#    x 1.618220 0.000000 0.000000 
#    y 0.000000 1.627140 0.000000 
#    z 0.000000 0.000000 1.593200 
# 
# From -- ./inp_files/16307.got.cif
#   From: 2010.05.17/outbox.cif.g08.bks.cpg/sg56_9_cif.got.tgz:16307.got - 2010.06.03 13:42:01.
