data_PCOD9431022
_publ_section_title
;
Structure prediction by ZEFSAII (Michael W. Deem and Ramdas Pophale) SiO2 
 PCOD9431022
Probable space group: P C C N
;
_chemical_formula_sum "Si O2"
_cell_formula_units_Z 56
_cell_length_a 5.905277
_cell_length_b 24.662400
_cell_length_c 19.309347
_cell_angle_alpha 90.000000
_cell_angle_beta 90.000000
_cell_angle_gamma 90.000000
_cell_volume 2812.180538
_symmetry_space_group_name_H-M "P C C N"
_symmetry_group_IT_number 56
_symmetry_cell_setting 'orthorhombic'
loop_
_space_group_symop_operation_xyz
x,y,z
1/2-x,1/2-y,z
1/2+x,-y,1/2-z
-x,1/2+y,1/2-z
-x,-y,-z
1/2+x,1/2+y,-z
1/2-x,y,1/2+z
x,1/2-y,1/2+z
loop_
_atom_site_type_symbol
_atom_site_label
_atom_site_fract_x
_atom_site_fract_y
_atom_site_fract_z
Si Si1 0.870156 0.200571 0.767345
Si Si2 0.602408 0.833147 0.032849
Si Si3 0.750000 0.750000 0.137150
Si Si4 0.215419 0.001463 0.712548
Si Si5 0.566767 0.110501 0.842989
Si Si6 0.237295 0.378945 0.215709
Si Si7 0.127661 0.192843 0.101087
Si Si8 0.750000 0.250000 0.519842
O O1 0.750000 0.250000 0.726542
O O2 0.718982 0.160969 0.815905
O O3 0.039739 0.237374 0.813387
O O4 0.016114 0.158424 0.722439
O O5 0.760425 0.802029 0.087351
O O6 0.505965 0.882504 0.077278
O O7 0.721299 0.837190 0.958414
O O8 0.407976 0.788371 0.024449
O O9 0.199549 0.062229 0.682617
O O10 0.475369 0.999736 0.743117
O O11 0.190871 0.946607 0.668633
O O12 0.349038 0.112493 0.791249
O O13 0.402110 0.344473 0.167240
O O14 0.250000 0.250000 0.118038
O O15 0.897130 0.209837 0.065744
#
# Coordination Sequence:
#
# PCOD9431022 Si02
#       8
#     8   8   4   8   8   8   8   4
#     4  12  22  34  59  95 127 152 206 268 331 374
#     4  11  20  37  56  87 123 161 210 249 313 377
#     4  12  20  34  52  92 126 156 194 262 304 384
#     4  10  22  45  66  94 128 172 220 273 330 383
#     4  11  23  37  67  92 119 168 216 269 314 379
#     4  11  24  42  59  91 129 163 213 262 324 390
#     4  10  24  38  57  86 131 170 202 254 323 399
#     4  10  20  40  56  80 126 170 204 248 326 398
#
# _framework density 19.913374000000001
#
# number of rings (size 3 to 8) (size 9 to 14) (size 15 to 20)
#    0.000    1.143    6.429    0.857    3.000    2.286 
#    1.286    0.714    0.000    0.857    0.000    0.000 
#    0.000    0.000    0.000    0.000    0.000    0.000 
#
# Total GULP energy -311980.047301 kJ/mol
# GULP energy per Si atom -5571.072273 kJ/mol
# Density = 1.986805 g / cm^3
# Si number density = 19.913374 Si / 1000 Ang^3
#
#
#
# Elastic Constant Matrix: (Units=GPa)
#
#
# Indices 1 2 3 4 5 6 
#
# 1 56.1172 14.7695 -1.3111 0.0000 0.0000 0.0000
# 2 14.7695 117.0135 20.8260 0.0000 0.0000 0.0000
# 3 -1.3111 20.8260 48.6695 0.0000 0.0000 0.0000
# 4 0.0000 0.0000 0.0000 -3.3266 0.0000 0.0000
# 5 0.0000 0.0000 0.0000 0.0000 5.6009 0.0000
# 6 0.0000 0.0000 0.0000 0.0000 0.0000 31.4510
#
#
#
# Elastic Compliance Matrix: (Units=1/GPa)
#
#
# Indices 1 2 3 4 5 6 
#
# 1 0.018550 -0.002631 0.001625 0.000000 0.000000 0.000000
# 2 -0.002631 0.009624 -0.004189 0.000000 0.000000 0.000000
# 3 0.001625 -0.004189 0.022383 0.000000 0.000000 0.000000
# 4 0.000000 0.000000 0.000000 -0.300608 0.000000 0.000000
# 5 0.000000 0.000000 0.000000 0.000000 0.178543 0.000000
# 6 0.000000 0.000000 0.000000 0.000000 0.000000 0.031796
#
#
# Mechanical properties :
#
#
# Convention : Reuss Voigt Hill
#
# Bulk Modulus (GPa) = 24.89516 32.26323 28.57919
# Shear Modulus (GPa) = -313.77936 19.24611 -147.26662
#
# Velocity S-wave (km/s) = -12.56639 3.11222 -8.60896
# Velocity P-wave (km/s) = 14.07208 5.39921 9.18891
#
# Compressibility (1/GPa) = 0.04016846
#
# Stress axis : x y z
#
# Youngs Moduli (GPa) = 53.90778 103.91120 44.67686
#
# Poissons Ratio (x) = 0.27336 -0.07262
# Poissons Ratio (y) = 0.14182 0.18715
# Poissons Ratio (z) = -0.08762 0.43527
#
# Static dielectric constant tensor:
#      x y z
#    x 1.833210 0.000000 0.000000 
#    y 0.000000 1.725310 0.000000 
#    z 0.000000 0.000000 1.702680 
# 
# From -- ./inp_files/17651.got.cif
#   From: 2010.05.17/outbox.cif.g08.bks.cpg/sg56_9_cif.got.tgz:17651.got - 2010.06.03 13:42:01.
