data_PCOD9431280
_publ_section_title
;
Structure prediction by ZEFSAII (Michael W. Deem and Ramdas Pophale) SiO2 
 PCOD9431280
Probable space group: P C C N
;
_chemical_formula_sum "Si O2"
_cell_formula_units_Z 48
_cell_length_a 15.639798
_cell_length_b 8.464569
_cell_length_c 18.407977
_cell_angle_alpha 90.000000
_cell_angle_beta 90.000000
_cell_angle_gamma 90.000000
_cell_volume 2436.924376
_symmetry_space_group_name_H-M "P C C N"
_symmetry_group_IT_number 56
_symmetry_cell_setting 'orthorhombic'
loop_
_space_group_symop_operation_xyz
x,y,z
1/2-x,1/2-y,z
1/2+x,-y,1/2-z
-x,1/2+y,1/2-z
-x,-y,-z
1/2+x,1/2+y,-z
1/2-x,y,1/2+z
x,1/2-y,1/2+z
loop_
_atom_site_type_symbol
_atom_site_label
_atom_site_fract_x
_atom_site_fract_y
_atom_site_fract_z
Si Si1 0.903292 0.399063 0.075454
Si Si2 0.996742 0.318015 0.308136
Si Si3 0.086960 0.936361 0.591740
Si Si4 0.583078 0.142596 0.679275
Si Si5 0.224617 0.570216 0.207037
Si Si6 0.326442 0.128739 0.808090
O O1 0.897358 0.219857 0.102704
O O2 0.843265 0.505259 0.126855
O O3 0.001658 0.456169 0.088600
O O4 0.883712 0.416358 0.990764
O O5 0.016120 0.500088 0.322128
O O6 0.087234 0.228958 0.302167
O O7 0.943980 0.227409 0.370593
O O8 0.950722 0.282195 0.232004
O O9 0.162738 0.996112 0.644262
O O10 0.666893 0.081807 0.720382
O O11 0.250000 0.750000 0.187757
O O12 0.302651 0.462476 0.233364
O O13 0.250000 0.250000 0.823942
#
# Coordination Sequence:
#
# PCOD9431280 Si02
#       6
#     8   8   8   8   8   8
#     4  10  21  41  62  81 122 160 193 242 296 351
#     4  10  21  35  61  88 115 153 204 246 285 349
#     4   9  22  41  60  85 119 158 196 243 294 352
#     4  11  20  36  60  86 116 155 202 245 289 342
#     4  11  21  37  57  88 118 151 196 250 294 346
#     4  11  21  36  60  88 117 155 199 241 292 350
#
# _framework density 19.696959
#
# number of rings (size 3 to 8) (size 9 to 14) (size 15 to 20)
#    0.000    1.667    3.333    3.000    2.333    0.667 
#    3.000    0.833    3.667    0.000    0.000    0.000 
#    0.000    0.000    0.000    0.000    0.000    0.000 
#
# Total GULP energy -268041.086665 kJ/mol
# GULP energy per Si atom -5584.189306 kJ/mol
# Density = 1.965213 g / cm^3
# Si number density = 19.696959 Si / 1000 Ang^3
#
#
#
# Elastic Constant Matrix: (Units=GPa)
#
#
# Indices 1 2 3 4 5 6 
#
# 1 71.2437 13.4739 36.6391 0.0000 0.0000 0.0000
# 2 13.4739 72.4537 31.6101 0.0000 0.0000 0.0000
# 3 36.6391 31.6101 119.0398 0.0000 0.0000 0.0000
# 4 0.0000 0.0000 0.0000 12.7599 0.0000 0.0000
# 5 0.0000 0.0000 0.0000 0.0000 27.3936 0.0000
# 6 0.0000 0.0000 0.0000 0.0000 0.0000 25.7816
#
#
#
# Elastic Compliance Matrix: (Units=1/GPa)
#
#
# Indices 1 2 3 4 5 6 
#
# 1 0.016737 -0.000978 -0.004892 0.000000 0.000000 0.000000
# 2 -0.000978 0.015668 -0.003859 0.000000 0.000000 0.000000
# 3 -0.004892 -0.003859 0.010931 0.000000 0.000000 0.000000
# 4 0.000000 0.000000 0.000000 0.078370 0.000000 0.000000
# 5 0.000000 0.000000 0.000000 0.000000 0.036505 0.000000
# 6 0.000000 0.000000 0.000000 0.000000 0.000000 0.038787
#
#
# Mechanical properties :
#
#
# Convention : Reuss Voigt Hill
#
# Bulk Modulus (GPa) = 41.88143 47.35373 44.61758
# Shear Modulus (GPa) = 22.28008 25.25464 23.76736
#
# Velocity S-wave (km/s) = 3.36690 3.58461 3.47746
# Velocity P-wave (km/s) = 6.03521 6.42074 6.23095
#
# Compressibility (1/GPa) = 0.02387693
#
# Stress axis : x y z
#
# Youngs Moduli (GPa) = 59.74767 63.82607 91.48337
#
# Poissons Ratio (x) = 0.06245 0.44751
# Poissons Ratio (y) = 0.05846 0.35306
# Poissons Ratio (z) = 0.29227 0.24632
#
# Static dielectric constant tensor:
#      x y z
#    x 1.733560 0.000000 0.000000 
#    y 0.000000 1.726050 0.000000 
#    z 0.000000 0.000000 1.665180 
# 
# From -- ./inp_files/14799.got.cif
#   From: 2010.05.17/outbox.cif.g08.bks.cpg/sg56_8_cif.got.tgz:14799.got - 2010.06.03 13:42:01.
