data_PCOD9431986
_publ_section_title
;
Structure prediction by ZEFSAII (Michael W. Deem and Ramdas Pophale) SiO2 
 PCOD9431986
Probable space group: P C C N
;
_chemical_formula_sum "Si O2"
_cell_formula_units_Z 48
_cell_length_a 12.688151
_cell_length_b 11.497369
_cell_length_c 14.318897
_cell_angle_alpha 90.000000
_cell_angle_beta 90.000000
_cell_angle_gamma 90.000000
_cell_volume 2088.845763
_symmetry_space_group_name_H-M "P C C N"
_symmetry_group_IT_number 56
_symmetry_cell_setting 'orthorhombic'
loop_
_space_group_symop_operation_xyz
x,y,z
1/2-x,1/2-y,z
1/2+x,-y,1/2-z
-x,1/2+y,1/2-z
-x,-y,-z
1/2+x,1/2+y,-z
1/2-x,y,1/2+z
x,1/2-y,1/2+z
loop_
_atom_site_type_symbol
_atom_site_label
_atom_site_fract_x
_atom_site_fract_y
_atom_site_fract_z
Si Si1 0.657650 0.340763 0.763643
Si Si2 0.313335 0.100196 0.664652
Si Si3 0.006191 0.618784 0.444572
Si Si4 0.002430 0.153342 0.267164
Si Si5 0.603951 0.970699 0.903671
Si Si6 0.392574 0.848263 0.952596
O O1 0.750000 0.250000 0.788120
O O2 0.668388 0.462475 0.815196
O O3 0.547855 0.277583 0.786786
O O4 0.656569 0.355562 0.650647
O O5 0.381767 0.144868 0.576303
O O6 0.372341 0.156375 0.753471
O O7 0.190311 0.106523 0.648038
O O8 0.040250 0.612843 0.335148
O O9 0.000000 0.500000 0.500000
O O10 0.087410 0.715186 0.484256
O O11 0.959888 0.058092 0.337175
O O12 0.514189 0.890459 0.946567
O O13 0.658084 0.057937 0.978315
#
# Coordination Sequence:
#
# PCOD9431986 Si02
#       6
#     8   8   8   8   8   8
#     4  11  20  38  62  94 124 165 213 262 310 381
#     4  10  22  38  64  92 123 165 210 252 325 381
#     4   9  21  39  58  88 127 162 200 266 315 363
#     4   9  21  37  57  91 127 155 209 265 304 374
#     4  11  21  40  66  90 124 171 210 259 324 380
#     4  10  23  39  61  92 129 161 212 271 312 374
#
# _framework density 22.979196999999999
#
# number of rings (size 3 to 8) (size 9 to 14) (size 15 to 20)
#    1.000    1.000    3.333    0.000    2.333    3.333 
#    0.000    0.000    0.000    0.000    0.000    0.000 
#    0.000    0.000    0.000    0.000    0.000    0.000 
#
# Total GULP energy -267545.562187 kJ/mol
# GULP energy per Si atom -5573.865879 kJ/mol
# Density = 2.292690 g / cm^3
# Si number density = 22.979197 Si / 1000 Ang^3
#
#
#
# Elastic Constant Matrix: (Units=GPa)
#
#
# Indices 1 2 3 4 5 6 
#
# 1 77.2983 8.2944 -1.1789 0.0000 0.0000 0.0000
# 2 8.2944 83.0708 5.4793 0.0000 0.0000 0.0000
# 3 -1.1789 5.4793 42.4085 0.0000 0.0000 0.0000
# 4 0.0000 0.0000 0.0000 31.0637 0.0000 0.0000
# 5 0.0000 0.0000 0.0000 0.0000 26.9898 0.0000
# 6 0.0000 0.0000 0.0000 0.0000 0.0000 32.5153
#
#
#
# Elastic Compliance Matrix: (Units=1/GPa)
#
#
# Indices 1 2 3 4 5 6 
#
# 1 0.013089 -0.001342 0.000537 0.000000 0.000000 0.000000
# 2 -0.001342 0.012279 -0.001624 0.000000 0.000000 0.000000
# 3 0.000537 -0.001624 0.023805 0.000000 0.000000 0.000000
# 4 0.000000 0.000000 0.000000 0.032192 0.000000 0.000000
# 5 0.000000 0.000000 0.000000 0.000000 0.037051 0.000000
# 6 0.000000 0.000000 0.000000 0.000000 0.000000 0.030755
#
#
# Mechanical properties :
#
#
# Convention : Reuss Voigt Hill
#
# Bulk Modulus (GPa) = 22.56553 25.32969 23.94761
# Shear Modulus (GPa) = 29.62078 30.79260 30.20669
#
# Velocity S-wave (km/s) = 3.59420 3.66460 3.62957
# Velocity P-wave (km/s) = 5.20246 5.38076 5.29236
#
# Compressibility (1/GPa) = 0.04431538
#
# Stress axis : x y z
#
# Youngs Moduli (GPa) = 76.39926 81.43944 42.00810
#
# Poissons Ratio (x) = 0.10932 -0.02257
# Poissons Ratio (y) = 0.10255 0.06821
# Poissons Ratio (z) = -0.04105 0.13224
#
# Static dielectric constant tensor:
#      x y z
#    x 1.931230 0.000000 0.000000 
#    y 0.000000 1.915490 0.000000 
#    z 0.000000 0.000000 1.891600 
# 
# From -- ./inp_files/12216.got.cif
#   From: 2010.05.17/outbox.cif.g08.bks.cpg/sg56_7_cif.got.tgz:12216.got - 2010.06.03 13:42:01.
