data_PCOD9431741
_publ_section_title
;
Structure prediction by ZEFSAII (Michael W. Deem and Ramdas Pophale) SiO2 
 PCOD9431741
Probable space group: P C C N
;
_chemical_formula_sum "Si O2"
_cell_formula_units_Z 52
_cell_length_a 8.225630
_cell_length_b 17.235724
_cell_length_c 17.862895
_cell_angle_alpha 90.000000
_cell_angle_beta 90.000000
_cell_angle_gamma 90.000000
_cell_volume 2532.506373
_symmetry_space_group_name_H-M "P C C N"
_symmetry_group_IT_number 56
_symmetry_cell_setting 'orthorhombic'
loop_
_space_group_symop_operation_xyz
x,y,z
1/2-x,1/2-y,z
1/2+x,-y,1/2-z
-x,1/2+y,1/2-z
-x,-y,-z
1/2+x,1/2+y,-z
1/2-x,y,1/2+z
x,1/2-y,1/2+z
loop_
_atom_site_type_symbol
_atom_site_label
_atom_site_fract_x
_atom_site_fract_y
_atom_site_fract_z
Si Si1 0.250000 0.750000 0.208887
Si Si2 0.106403 0.889670 0.463385
Si Si3 0.273964 0.601914 0.300339
Si Si4 0.335327 0.120468 0.411759
Si Si5 0.240176 0.031621 0.555860
Si Si6 0.494839 0.289219 0.412265
Si Si7 0.023116 0.499892 0.692926
O O1 0.318419 0.681920 0.260140
O O2 0.379330 0.790453 0.154930
O O3 0.209453 0.887097 0.388637
O O4 0.930270 0.922718 0.438113
O O5 0.076223 0.811589 0.509123
O O6 0.189876 0.948531 0.521843
O O7 0.091806 0.571647 0.285929
O O8 0.392756 0.537643 0.264896
O O9 0.340757 0.075775 0.490947
O O10 0.429014 0.201773 0.415234
O O11 0.148826 0.147920 0.399532
O O12 0.409504 0.063998 0.349098
O O13 0.339876 0.023345 0.632074
#
# Coordination Sequence:
#
# PCOD9431741 Si02
#       7
#     4   8   8   8   8   8   8
#     4  12  26  44  60  96 136 174 220 272 348 392
#     4  10  22  41  66  95 128 165 220 276 333 389
#     4  12  27  41  63  99 136 175 214 278 343 404
#     4  10  21  41  68  92 121 172 227 267 327 394
#     4  10  21  41  67  96 124 167 223 278 319 404
#     4  10  23  42  68  88 126 176 223 272 325 402
#     4  12  24  42  67  97 136 174 226 269 342 404
#
# _framework density 20.533017999999998
#
# number of rings (size 3 to 8) (size 9 to 14) (size 15 to 20)
#    0.000    1.231    3.077    2.308    2.154    1.846 
#    0.000    0.000    0.000    0.000    0.000    0.000 
#    0.000    0.000    0.000    0.000    0.000    0.000 
#
# Total GULP energy -290756.949220 kJ/mol
# GULP energy per Si atom -5591.479793 kJ/mol
# Density = 2.048628 g / cm^3
# Si number density = 20.533018 Si / 1000 Ang^3
#
#
#
# Elastic Constant Matrix: (Units=GPa)
#
#
# Indices 1 2 3 4 5 6 
#
# 1 42.5821 8.0093 15.0465 0.0000 0.0000 0.0000
# 2 8.0093 44.4003 21.4312 0.0000 0.0000 0.0000
# 3 15.0465 21.4312 54.4014 0.0000 0.0000 0.0000
# 4 0.0000 0.0000 0.0000 29.3225 0.0000 0.0000
# 5 0.0000 0.0000 0.0000 0.0000 18.0317 0.0000
# 6 0.0000 0.0000 0.0000 0.0000 0.0000 18.7472
#
#
#
# Elastic Compliance Matrix: (Units=1/GPa)
#
#
# Indices 1 2 3 4 5 6 
#
# 1 0.026110 -0.001512 -0.006626 0.000000 0.000000 0.000000
# 2 -0.001512 0.027898 -0.010572 0.000000 0.000000 0.000000
# 3 -0.006626 -0.010572 0.024379 0.000000 0.000000 0.000000
# 4 0.000000 0.000000 0.000000 0.034104 0.000000 0.000000
# 5 0.000000 0.000000 0.000000 0.000000 0.055458 0.000000
# 6 0.000000 0.000000 0.000000 0.000000 0.000000 0.053341
#
#
# Mechanical properties :
#
#
# Convention : Reuss Voigt Hill
#
# Bulk Modulus (GPa) = 24.40965 25.59531 25.00248
# Shear Modulus (GPa) = 18.35771 19.68008 19.01889
#
# Velocity S-wave (km/s) = 2.99332 3.09926 3.04675
# Velocity P-wave (km/s) = 4.88472 5.02988 4.95783
#
# Compressibility (1/GPa) = 0.04096741
#
# Stress axis : x y z
#
# Youngs Moduli (GPa) = 38.30002 35.84478 41.01831
#
# Poissons Ratio (x) = 0.05419 0.27179
# Poissons Ratio (y) = 0.05790 0.43365
# Poissons Ratio (z) = 0.25377 0.37896
#
# Static dielectric constant tensor:
#      x y z
#    x 1.772090 0.000000 0.000000 
#    y 0.000000 1.726880 0.000000 
#    z 0.000000 0.000000 1.686270 
# 
# From -- ./inp_files/15037.got.cif
#   From: 2010.05.17/outbox.cif.g08.bks.cpg/sg56_8_cif.got.tgz:15037.got - 2010.06.03 13:42:01.
