data_PCOD9431141
_publ_section_title
;
Structure prediction by ZEFSAII (Michael W. Deem and Ramdas Pophale) SiO2 
 PCOD9431141
Probable space group: P C C N
;
_chemical_formula_sum "Si O2"
_cell_formula_units_Z 40
_cell_length_a 13.580951
_cell_length_b 7.224569
_cell_length_c 16.899344
_cell_angle_alpha 90.000000
_cell_angle_beta 90.000000
_cell_angle_gamma 90.000000
_cell_volume 1658.104783
_symmetry_space_group_name_H-M "P C C N"
_symmetry_group_IT_number 56
_symmetry_cell_setting 'orthorhombic'
loop_
_space_group_symop_operation_xyz
x,y,z
1/2-x,1/2-y,z
1/2+x,-y,1/2-z
-x,1/2+y,1/2-z
-x,-y,-z
1/2+x,1/2+y,-z
1/2-x,y,1/2+z
x,1/2-y,1/2+z
loop_
_atom_site_type_symbol
_atom_site_label
_atom_site_fract_x
_atom_site_fract_y
_atom_site_fract_z
Si Si1 0.899796 0.444672 0.675432
Si Si2 0.765399 0.023588 0.039767
Si Si3 0.925087 0.009361 0.905483
Si Si4 0.421892 0.564477 0.263586
Si Si5 0.443446 0.119054 0.934932
O O1 0.811867 0.523943 0.625427
O O2 0.874195 0.261965 0.721743
O O3 0.981512 0.374957 0.609655
O O4 0.963396 0.573971 0.733362
O O5 0.750000 0.250000 0.039031
O O6 0.667574 0.903506 0.031091
O O7 0.846088 0.983820 0.972621
O O8 0.874668 0.996497 0.818806
O O9 0.987953 0.198275 0.922597
O O10 0.427110 0.457662 0.345645
O O11 0.500000 0.000000 0.000000
#
# Coordination Sequence:
#
# PCOD9431141 Si02
#       5
#     8   8   8   8   8
#     4  10  21  41  67  92 134 169 224 278 348 398
#     4  12  23  39  69  99 127 184 227 277 346 424
#     4  10  22  43  65  94 139 170 227 280 346 398
#     4  10  20  41  68  92 130 179 216 283 343 403
#     4  12  23  42  68 100 137 178 230 281 343 412
#
# _framework density 24.123927999999999
#
# number of rings (size 3 to 8) (size 9 to 14) (size 15 to 20)
#    1.200    0.000    6.000    0.600    0.000    0.800 
#    7.200    0.000    4.400    0.000    0.000    0.000 
#    0.000    0.000    0.000    0.000    0.000    0.000 
#
# Total GULP energy -222766.723019 kJ/mol
# GULP energy per Si atom -5569.168075 kJ/mol
# Density = 2.406902 g / cm^3
# Si number density = 24.123928 Si / 1000 Ang^3
#
#
#
# Elastic Constant Matrix: (Units=GPa)
#
#
# Indices 1 2 3 4 5 6 
#
# 1 147.6679 19.6434 49.2264 0.0000 0.0000 0.0000
# 2 19.6434 72.2171 28.8541 0.0000 0.0000 0.0000
# 3 49.2264 28.8541 146.3125 0.0000 0.0000 0.0000
# 4 0.0000 0.0000 0.0000 25.4031 0.0000 0.0000
# 5 0.0000 0.0000 0.0000 0.0000 39.9788 0.0000
# 6 0.0000 0.0000 0.0000 0.0000 0.0000 22.3575
#
#
#
# Elastic Compliance Matrix: (Units=1/GPa)
#
#
# Indices 1 2 3 4 5 6 
#
# 1 0.007715 -0.001152 -0.002368 0.000000 0.000000 0.000000
# 2 -0.001152 0.015204 -0.002611 0.000000 0.000000 0.000000
# 3 -0.002368 -0.002611 0.008146 0.000000 0.000000 0.000000
# 4 0.000000 0.000000 0.000000 0.039365 0.000000 0.000000
# 5 0.000000 0.000000 0.000000 0.000000 0.025013 0.000000
# 6 0.000000 0.000000 0.000000 0.000000 0.000000 0.044728
#
#
# Mechanical properties :
#
#
# Convention : Reuss Voigt Hill
#
# Bulk Modulus (GPa) = 53.18490 62.40502 57.79496
# Shear Modulus (GPa) = 31.50582 35.44611 33.47596
#
# Velocity S-wave (km/s) = 3.61778 3.83735 3.72918
# Velocity P-wave (km/s) = 6.28852 6.74969 6.52318
#
# Compressibility (1/GPa) = 0.01880233
#
# Stress axis : x y z
#
# Youngs Moduli (GPa) = 129.62205 65.77391 122.75417
#
# Poissons Ratio (x) = 0.07578 0.29073
# Poissons Ratio (y) = 0.14935 0.32047
# Poissons Ratio (z) = 0.30699 0.17171
#
# Static dielectric constant tensor:
#      x y z
#    x 1.958880 0.000000 0.000000 
#    y 0.000000 2.065680 0.000000 
#    z 0.000000 0.000000 1.975990 
# 
# From -- ./inp_files/16061.got.cif
#   From: 2010.05.17/outbox.cif.g08.bks.cpg/sg56_9_cif.got.tgz:16061.got - 2010.06.03 13:42:01.
