data_PCOD9431048
_publ_section_title
;
Structure prediction by ZEFSAII (Michael W. Deem and Ramdas Pophale) SiO2 
 PCOD9431048
Probable space group: P C C N
;
_chemical_formula_sum "Si O2"
_cell_formula_units_Z 64
_cell_length_a 10.156140
_cell_length_b 16.048054
_cell_length_c 20.189747
_cell_angle_alpha 90.000000
_cell_angle_beta 90.000000
_cell_angle_gamma 90.000000
_cell_volume 3290.651821
_symmetry_space_group_name_H-M "P C C N"
_symmetry_group_IT_number 56
_symmetry_cell_setting 'orthorhombic'
loop_
_space_group_symop_operation_xyz
x,y,z
1/2-x,1/2-y,z
1/2+x,-y,1/2-z
-x,1/2+y,1/2-z
-x,-y,-z
1/2+x,1/2+y,-z
1/2-x,y,1/2+z
x,1/2-y,1/2+z
loop_
_atom_site_type_symbol
_atom_site_label
_atom_site_fract_x
_atom_site_fract_y
_atom_site_fract_z
Si Si1 0.880091 0.291552 0.000303
Si Si2 0.437256 0.260577 0.383191
Si Si3 0.594369 0.776056 0.767153
Si Si4 0.019344 0.542695 0.797546
Si Si5 0.886609 0.200066 0.134387
Si Si6 0.180633 0.534582 0.292986
Si Si7 0.292150 0.105971 0.397672
Si Si8 0.389451 0.525803 0.448389
O O1 0.750000 0.250000 0.973050
O O2 0.969706 0.303031 0.936709
O O3 0.923988 0.229952 0.060198
O O4 0.850919 0.379976 0.034371
O O5 0.463929 0.240555 0.306480
O O6 0.407536 0.169540 0.415833
O O7 0.319057 0.326834 0.379554
O O8 0.750000 0.750000 0.768452
O O9 0.560651 0.871283 0.787925
O O10 0.507716 0.724046 0.818771
O O11 0.168724 0.547209 0.768347
O O12 0.049147 0.525344 0.874606
O O13 0.929495 0.472049 0.763668
O O14 0.750000 0.250000 0.149613
O O15 0.852675 0.105547 0.153340
O O16 0.175040 0.448087 0.333334
O O17 0.230245 0.040230 0.448685
O O18 0.500000 0.500000 0.500000
#
# Coordination Sequence:
#
# PCOD9431048 Si02
#       8
#     8   8   8   8   8   8   8   8
#     4  11  23  45  65  91 131 175 216 268 329 401
#     4  11  22  39  65  91 128 167 212 268 327 381
#     4  12  23  42  67  98 132 171 220 275 328 393
#     4  11  23  43  64  95 129 170 214 271 324 396
#     4  11  23  44  66  92 132 179 214 271 332 395
#     4  11  23  40  67  93 130 169 219 266 334 383
#     4  10  20  40  63  87 122 169 206 262 323 382
#     4  11  22  42  64  91 127 169 214 261 329 385
#
# _framework density 19.449034999999999
#
# number of rings (size 3 to 8) (size 9 to 14) (size 15 to 20)
#    0.000    1.000    6.250    2.250    5.250    0.500 
#    6.750    2.500    0.000    0.000    0.000    0.000 
#    0.000    0.000    0.000    0.000    0.000    0.000 
#
# Total GULP energy -356593.544827 kJ/mol
# GULP energy per Si atom -5571.774138 kJ/mol
# Density = 1.940477 g / cm^3
# Si number density = 19.449035 Si / 1000 Ang^3
#
#
#
# Elastic Constant Matrix: (Units=GPa)
#
#
# Indices 1 2 3 4 5 6 
#
# 1 31.1209 -5.8599 7.9973 0.0000 0.0000 0.0000
# 2 -5.8599 90.2045 -3.8139 0.0000 0.0000 0.0000
# 3 7.9973 -3.8139 46.8973 0.0000 0.0000 0.0000
# 4 0.0000 0.0000 0.0000 28.9210 0.0000 0.0000
# 5 0.0000 0.0000 0.0000 0.0000 -4.3443 0.0000
# 6 0.0000 0.0000 0.0000 0.0000 0.0000 32.7714
#
#
#
# Elastic Compliance Matrix: (Units=1/GPa)
#
#
# Indices 1 2 3 4 5 6 
#
# 1 0.033950 0.001967 -0.005629 0.000000 0.000000 0.000000
# 2 0.001967 0.011238 0.000578 0.000000 0.000000 0.000000
# 3 -0.005629 0.000578 0.022330 0.000000 0.000000 0.000000
# 4 0.000000 0.000000 0.000000 0.034577 0.000000 0.000000
# 5 0.000000 0.000000 0.000000 0.000000 -0.230189 0.000000
# 6 0.000000 0.000000 0.000000 0.000000 0.000000 0.030514
#
#
# Mechanical properties :
#
#
# Convention : Reuss Voigt Hill
#
# Bulk Modulus (GPa) = 16.29960 18.31885 17.30922
# Shear Modulus (GPa) = -70.45992 22.79626 -23.83183
#
# Velocity S-wave (km/s) = -6.02550 3.42731 -3.50429
# Velocity P-wave (km/s) = 6.32534 5.01012 2.73026
#
# Compressibility (1/GPa) = 0.06135119
#
# Stress axis : x y z
#
# Youngs Moduli (GPa) = 29.45528 88.98229 44.78244
#
# Poissons Ratio (x) = -0.17507 0.25210
# Poissons Ratio (y) = -0.05795 -0.02590
# Poissons Ratio (z) = 0.16581 -0.05147
#
# Static dielectric constant tensor:
#      x y z
#    x 1.714690 0.000000 0.000000 
#    y 0.000000 1.676050 0.000000 
#    z 0.000000 0.000000 1.667910 
# 
# From -- ./inp_files/15815.got.cif
#   From: 2010.05.17/outbox.cif.g08.bks.cpg/sg56_8_cif.got.tgz:15815.got - 2010.06.03 13:42:01.
