data_PCOD9431193
_publ_section_title
;
Structure prediction by ZEFSAII (Michael W. Deem and Ramdas Pophale) SiO2 
 PCOD9431193
Probable space group: P C C N
;
_chemical_formula_sum "Si O2"
_cell_formula_units_Z 56
_cell_length_a 6.128356
_cell_length_b 26.336836
_cell_length_c 13.608234
_cell_angle_alpha 90.000000
_cell_angle_beta 90.000000
_cell_angle_gamma 90.000000
_cell_volume 2196.389474
_symmetry_space_group_name_H-M "P C C N"
_symmetry_group_IT_number 56
_symmetry_cell_setting 'orthorhombic'
loop_
_space_group_symop_operation_xyz
x,y,z
1/2-x,1/2-y,z
1/2+x,-y,1/2-z
-x,1/2+y,1/2-z
-x,-y,-z
1/2+x,1/2+y,-z
1/2-x,y,1/2+z
x,1/2-y,1/2+z
loop_
_atom_site_type_symbol
_atom_site_label
_atom_site_fract_x
_atom_site_fract_y
_atom_site_fract_z
Si Si1 0.058676 0.387703 0.302890
Si Si2 0.239258 0.833992 0.560411
Si Si3 0.105173 0.198881 0.079255
Si Si4 0.095316 0.297993 0.796510
Si Si5 0.386159 0.982083 0.259074
Si Si6 0.826873 0.970448 0.588577
Si Si7 0.931959 0.898157 0.423896
O O1 0.847421 0.362913 0.348264
O O2 0.027487 0.405686 0.191577
O O3 0.250996 0.346853 0.303284
O O4 0.141522 0.432419 0.370904
O O5 0.425550 0.804452 0.503436
O O6 0.126982 0.871744 0.483245
O O7 0.063486 0.798907 0.612534
O O8 0.250000 0.250000 0.071569
O O9 0.994776 0.200707 0.187352
O O10 0.245643 0.146492 0.071617
O O11 0.250000 0.250000 0.800288
O O12 0.460473 0.956173 0.155359
O O13 0.647228 0.995613 0.278112
O O14 0.290428 0.977341 0.372729
O O15 0.873989 0.951077 0.478922
#
# Coordination Sequence:
#
# PCOD9431193 Si02
#       7
#     8   8   8   8   8   8   8
#     4  11  24  40  64  99 132 173 226 277 338 411
#     4  12  22  40  66  95 126 184 223 282 339 390
#     4  10  23  42  62  94 136 176 225 277 333 404
#     4  10  23  42  62  94 136 176 225 277 333 404
#     4   8  20  36  70  92 130 182 226 276 358 422
#     4  10  20  43  65  95 134 180 218 292 347 422
#     4  11  24  40  64  99 132 173 226 277 338 411
#
# _framework density 25.496389000000001
#
# number of rings (size 3 to 8) (size 9 to 14) (size 15 to 20)
#    0.857    0.857    2.857    0.857    2.000    4.571 
#    0.000    5.714    0.000    2.571    0.000    0.000 
#    0.000    0.000    0.000    0.000    0.000    0.000 
#
# Total GULP energy -312072.563932 kJ/mol
# GULP energy per Si atom -5572.724356 kJ/mol
# Density = 2.543836 g / cm^3
# Si number density = 25.496389 Si / 1000 Ang^3
#
#
#
# Elastic Constant Matrix: (Units=GPa)
#
#
# Indices 1 2 3 4 5 6 
#
# 1 62.0596 7.5962 18.8006 0.0000 0.0000 0.0000
# 2 7.5962 53.3973 -1.5676 0.0000 0.0000 0.0000
# 3 18.8006 -1.5676 131.0944 0.0000 0.0000 0.0000
# 4 0.0000 0.0000 0.0000 35.8360 0.0000 0.0000
# 5 0.0000 0.0000 0.0000 0.0000 88.8799 0.0000
# 6 0.0000 0.0000 0.0000 0.0000 0.0000 28.5305
#
#
#
# Elastic Compliance Matrix: (Units=1/GPa)
#
#
# Indices 1 2 3 4 5 6 
#
# 1 0.017177 -0.002517 -0.002493 0.000000 0.000000 0.000000
# 2 -0.002517 0.019103 0.000589 0.000000 0.000000 0.000000
# 3 -0.002493 0.000589 0.007993 0.000000 0.000000 0.000000
# 4 0.000000 0.000000 0.000000 0.027905 0.000000 0.000000
# 5 0.000000 0.000000 0.000000 0.000000 0.011251 0.000000
# 6 0.000000 0.000000 0.000000 0.000000 0.000000 0.035050
#
#
# Mechanical properties :
#
#
# Convention : Reuss Voigt Hill
#
# Bulk Modulus (GPa) = 28.22401 32.91218 30.56810
# Shear Modulus (GPa) = 35.93738 45.43075 40.68406
#
# Velocity S-wave (km/s) = 3.75842 4.22578 3.99893
# Velocity P-wave (km/s) = 5.47066 6.06186 5.77383
#
# Compressibility (1/GPa) = 0.03543082
#
# Stress axis : x y z
#
# Youngs Moduli (GPa) = 58.21743 52.34812 125.11358
#
# Poissons Ratio (x) = 0.13175 0.31197
# Poissons Ratio (y) = 0.14652 -0.07374
# Poissons Ratio (z) = 0.14516 -0.03085
#
# Static dielectric constant tensor:
#      x y z
#    x 2.001340 0.000000 0.000000 
#    y 0.000000 2.037340 0.000000 
#    z 0.000000 0.000000 2.036140 
# 
# From -- ./inp_files/9800.got.cif
#   From: 2010.05.17/outbox.cif.g08.bks.cpg/sg56_5_cif.got.tgz:9800.got - 2010.06.03 13:42:01.
