data_PCOD9431941
_publ_section_title
;
Structure prediction by ZEFSAII (Michael W. Deem and Ramdas Pophale) SiO2 
 PCOD9431941
Probable space group: P C C N
;
_chemical_formula_sum "Si O2"
_cell_formula_units_Z 64
_cell_length_a 29.887204
_cell_length_b 11.333161
_cell_length_c 9.153625
_cell_angle_alpha 90.000000
_cell_angle_beta 90.000000
_cell_angle_gamma 90.000000
_cell_volume 3100.483774
_symmetry_space_group_name_H-M "P C C N"
_symmetry_group_IT_number 56
_symmetry_cell_setting 'orthorhombic'
loop_
_space_group_symop_operation_xyz
x,y,z
1/2-x,1/2-y,z
1/2+x,-y,1/2-z
-x,1/2+y,1/2-z
-x,-y,-z
1/2+x,1/2+y,-z
1/2-x,y,1/2+z
x,1/2-y,1/2+z
loop_
_atom_site_type_symbol
_atom_site_label
_atom_site_fract_x
_atom_site_fract_y
_atom_site_fract_z
Si Si1 0.738624 0.502973 0.023930
Si Si2 0.397026 0.395439 0.632849
Si Si3 0.698569 0.285542 0.143012
Si Si4 0.877536 0.804052 0.679291
Si Si5 0.986552 0.870463 0.189176
Si Si6 0.719731 0.863905 0.266904
Si Si7 0.831628 0.096442 0.431910
Si Si8 0.531336 0.626143 0.838559
O O1 0.706584 0.390664 0.026711
O O2 0.752667 0.534127 0.186756
O O3 0.786417 0.478845 0.950401
O O4 0.716104 0.609264 0.937880
O O5 0.369924 0.328145 0.760297
O O6 0.393756 0.317127 0.486302
O O7 0.445173 0.406885 0.705956
O O8 0.374581 0.516258 0.585269
O O9 0.750000 0.250000 0.178105
O O10 0.674532 0.329696 0.285708
O O11 0.670769 0.182203 0.069516
O O12 0.829397 0.862469 0.698999
O O13 0.917842 0.855380 0.779269
O O14 0.995259 0.735796 0.254536
O O15 0.974794 0.858693 0.015100
O O16 0.017628 0.989169 0.196134
O O17 0.750000 0.750000 0.244545
#
# Coordination Sequence:
#
# PCOD9431941 Si02
#       8
#     8   8   8   8   8   8   8   8
#     4  11  22  39  58  82 121 165 216 277 321 385
#     4  11  23  40  63  96 132 167 213 266 334 400
#     4  10  22  37  61  77 112 163 216 266 324 381
#     4  11  24  39  64  94 134 173 216 271 338 402
#     4  10  22  43  72 102 136 176 221 274 338 417
#     4  12  25  38  58  93 129 172 222 273 327 391
#     4  11  22  40  57  87 117 163 216 266 323 387
#     4  10  22  44  71 104 137 179 224 272 345 413
#
# _framework density 20.641939000000001
#
# number of rings (size 3 to 8) (size 9 to 14) (size 15 to 20)
#    0.000    1.250    2.500    5.250    3.500    3.000 
#    0.000    5.000    0.000    0.000    0.000    0.000 
#    0.000    0.000    0.000    0.000    0.000    0.000 
#
# Total GULP energy -356635.521714 kJ/mol
# GULP energy per Si atom -5572.430027 kJ/mol
# Density = 2.059496 g / cm^3
# Si number density = 20.641939 Si / 1000 Ang^3
#
#
#
# Elastic Constant Matrix: (Units=GPa)
#
#
# Indices 1 2 3 4 5 6 
#
# 1 97.9812 -6.9241 -59.7018 0.0000 0.0000 0.0000
# 2 -6.9241 122.4075 78.2049 0.0000 0.0000 0.0000
# 3 -59.7018 78.2049 211.5899 0.0000 0.0000 0.0000
# 4 0.0000 0.0000 0.0000 34.6504 0.0000 0.0000
# 5 0.0000 0.0000 0.0000 0.0000 2.7191 0.0000
# 6 0.0000 0.0000 0.0000 0.0000 0.0000 134.2105
#
#
#
# Elastic Compliance Matrix: (Units=1/GPa)
#
#
# Indices 1 2 3 4 5 6 
#
# 1 0.012709 -0.002058 0.004347 0.000000 0.000000 0.000000
# 2 -0.002058 0.011028 -0.004657 0.000000 0.000000 0.000000
# 3 0.004347 -0.004657 0.007674 0.000000 0.000000 0.000000
# 4 0.000000 0.000000 0.000000 0.028860 0.000000 0.000000
# 5 0.000000 0.000000 0.000000 0.000000 0.367768 0.000000
# 6 0.000000 0.000000 0.000000 0.000000 0.000000 0.007451
#
#
# Mechanical properties :
#
#
# Convention : Reuss Voigt Hill
#
# Bulk Modulus (GPa) = 37.48896 50.57075 44.02986
# Shear Modulus (GPa) = 11.13294 62.34265 36.73779
#
# Velocity S-wave (km/s) = 2.32488 5.50159 4.22330
# Velocity P-wave (km/s) = 5.04061 8.05660 6.71999
#
# Compressibility (1/GPa) = 0.02667452
#
# Stress axis : x y z
#
# Youngs Moduli (GPa) = 78.68367 90.67661 130.31420
#
# Poissons Ratio (x) = 0.18663 -0.56643
# Poissons Ratio (y) = 0.16194 0.60685
# Poissons Ratio (z) = -0.34201 0.42226
#
# Static dielectric constant tensor:
#      x y z
#    x 1.815980 0.000000 0.000000 
#    y 0.000000 1.819740 0.000000 
#    z 0.000000 0.000000 1.737000 
# 
# From -- ./inp_files/5204.got.cif
#   From: 2010.05.17/outbox.cif.g08.bks.cpg/sg56_3_cif.got.tgz:5204.got - 2010.06.03 13:42:01.
