data_PCOD9431014
_publ_section_title
;
Structure prediction by ZEFSAII (Michael W. Deem and Ramdas Pophale) SiO2 
 PCOD9431014
Probable space group: P C C N
;
_chemical_formula_sum "Si O2"
_cell_formula_units_Z 64
_cell_length_a 18.346609
_cell_length_b 5.577441
_cell_length_c 29.319606
_cell_angle_alpha 90.000000
_cell_angle_beta 90.000000
_cell_angle_gamma 90.000000
_cell_volume 3000.191113
_symmetry_space_group_name_H-M "P C C N"
_symmetry_group_IT_number 56
_symmetry_cell_setting 'orthorhombic'
loop_
_space_group_symop_operation_xyz
x,y,z
1/2-x,1/2-y,z
1/2+x,-y,1/2-z
-x,1/2+y,1/2-z
-x,-y,-z
1/2+x,1/2+y,-z
1/2-x,y,1/2+z
x,1/2-y,1/2+z
loop_
_atom_site_type_symbol
_atom_site_label
_atom_site_fract_x
_atom_site_fract_y
_atom_site_fract_z
Si Si1 0.466927 0.748886 0.015837
Si Si2 0.433643 0.829252 0.852291
Si Si3 0.456618 0.600925 0.757438
Si Si4 0.169296 0.338250 0.897033
Si Si5 0.422291 0.860489 0.163024
Si Si6 0.292653 0.492468 0.597410
Si Si7 0.183234 0.576948 0.993119
Si Si8 0.485287 0.083222 0.390346
O O1 0.478369 0.732084 0.069693
O O2 0.500000 0.500000 0.000000
O O3 0.384940 0.750507 0.999438
O O4 0.500000 0.000000 0.000000
O O5 0.427834 0.657670 0.808132
O O6 0.497115 0.017326 0.839878
O O7 0.469881 0.696325 0.895541
O O8 0.356693 0.931974 0.867921
O O9 0.490268 0.331785 0.753664
O O10 0.399667 0.620678 0.715621
O O11 0.250000 0.250000 0.884751
O O12 0.170706 0.398898 0.951022
O O13 0.098933 0.171760 0.887106
O O14 0.363271 0.971475 0.129306
O O15 0.450048 0.597627 0.147681
O O16 0.250000 0.250000 0.611487
O O17 0.309145 0.460221 0.543261
O O18 0.250000 0.750000 0.600581
O O19 0.250000 0.750000 0.982169
#
# Coordination Sequence:
#
# PCOD9431014 Si02
#       8
#     8   8   8   8   8   8   8   8
#     4  12  26  42  64  96 134 173 228 288 333 391
#     4  10  23  40  68 102 130 173 231 279 345 407
#     4  10  20  39  69 103 131 165 220 283 339 405
#     4  11  25  41  63  94 138 182 226 272 336 408
#     4  10  22  41  69  97 133 171 217 286 340 405
#     4  11  26  43  66  96 135 179 226 273 337 409
#     4  11  25  43  63  95 134 188 230 279 340 412
#     4  11  22  41  67  97 128 173 225 278 344 392
#
# _framework density 21.331973999999999
#
# number of rings (size 3 to 8) (size 9 to 14) (size 15 to 20)
#    0.000    1.250    3.750    1.125    7.000    2.000 
#    0.000    0.000    2.750    0.000    0.000    0.000 
#    0.000    0.000    0.000    0.000    0.000    0.000 
#
# Total GULP energy -356455.349088 kJ/mol
# GULP energy per Si atom -5569.614829 kJ/mol
# Density = 2.128342 g / cm^3
# Si number density = 21.331974 Si / 1000 Ang^3
#
#
#
# Elastic Constant Matrix: (Units=GPa)
#
#
# Indices 1 2 3 4 5 6 
#
# 1 124.0291 47.0141 39.9801 0.0000 0.0000 0.0000
# 2 47.0141 99.0143 30.2815 0.0000 0.0000 0.0000
# 3 39.9801 30.2815 111.3895 0.0000 0.0000 0.0000
# 4 0.0000 0.0000 0.0000 28.9806 0.0000 0.0000
# 5 0.0000 0.0000 0.0000 0.0000 -19.9117 0.0000
# 6 0.0000 0.0000 0.0000 0.0000 0.0000 39.1034
#
#
#
# Elastic Compliance Matrix: (Units=1/GPa)
#
#
# Indices 1 2 3 4 5 6 
#
# 1 0.010495 -0.004178 -0.002631 0.000000 0.000000 0.000000
# 2 -0.004178 0.012679 -0.001947 0.000000 0.000000 0.000000
# 3 -0.002631 -0.001947 0.010451 0.000000 0.000000 0.000000
# 4 0.000000 0.000000 0.000000 0.034506 0.000000 0.000000
# 5 0.000000 0.000000 0.000000 0.000000 -0.050222 0.000000
# 6 0.000000 0.000000 0.000000 0.000000 0.000000 0.025573
#
#
# Mechanical properties :
#
#
# Convention : Reuss Voigt Hill
#
# Bulk Modulus (GPa) = 62.06559 63.22045 62.64302
# Shear Modulus (GPa) = 75.34066 24.11162 49.72614
#
# Velocity S-wave (km/s) = 5.94936 3.36565 4.83334
# Velocity P-wave (km/s) = 8.73793 6.69360 7.78318
#
# Compressibility (1/GPa) = 0.01611199
#
# Stress axis : x y z
#
# Youngs Moduli (GPa) = 95.28785 78.87026 95.68394
#
# Poissons Ratio (x) = 0.32956 0.25172
# Poissons Ratio (y) = 0.39816 0.18631
# Poissons Ratio (z) = 0.25068 0.15357
#
# Static dielectric constant tensor:
#      x y z
#    x 1.681400 0.000000 0.000000 
#    y 0.000000 1.902070 0.000000 
#    z 0.000000 0.000000 1.969810 
# 
# From -- ./inp_files/23703.got.cif
#   From: 2010.05.17/outbox.cif.g08.bks.cpg/sg56_12_cif.got.tgz:23703.got - 2010.06.03 13:42:01.
