data_PCOD9431501
_publ_section_title
;
Structure prediction by ZEFSAII (Michael W. Deem and Ramdas Pophale) SiO2 
 PCOD9431501
Probable space group: P C C N
;
_chemical_formula_sum "Si O2"
_cell_formula_units_Z 56
_cell_length_a 13.391040
_cell_length_b 9.374401
_cell_length_c 19.036102
_cell_angle_alpha 90.000000
_cell_angle_beta 90.000000
_cell_angle_gamma 90.000000
_cell_volume 2389.658588
_symmetry_space_group_name_H-M "P C C N"
_symmetry_group_IT_number 56
_symmetry_cell_setting 'orthorhombic'
loop_
_space_group_symop_operation_xyz
x,y,z
1/2-x,1/2-y,z
1/2+x,-y,1/2-z
-x,1/2+y,1/2-z
-x,-y,-z
1/2+x,1/2+y,-z
1/2-x,y,1/2+z
x,1/2-y,1/2+z
loop_
_atom_site_type_symbol
_atom_site_label
_atom_site_fract_x
_atom_site_fract_y
_atom_site_fract_z
Si Si1 0.655676 0.160939 0.253163
Si Si2 0.648238 0.319974 0.530130
Si Si3 0.064829 0.682477 0.114213
Si Si4 0.956940 0.555831 0.574656
Si Si5 0.137482 0.415509 0.645404
Si Si6 0.516731 0.854641 0.862585
Si Si7 0.260210 0.082630 0.493329
O O1 0.750000 0.250000 0.224513
O O2 0.612487 0.260205 0.314932
O O3 0.566689 0.139954 0.198092
O O4 0.680980 0.008793 0.290602
O O5 0.750000 0.250000 0.557538
O O6 0.635822 0.272605 0.450039
O O7 0.546918 0.292409 0.571862
O O8 0.663904 0.489851 0.523602
O O9 0.968702 0.777024 0.093673
O O10 0.049052 0.514792 0.119735
O O11 0.841327 0.529078 0.563292
O O12 0.000000 0.500000 0.500000
O O13 0.026066 0.480643 0.632286
O O14 0.199783 0.439486 0.573475
O O15 0.110676 0.248342 0.654339
O O16 0.250000 0.250000 0.486155
#
# Coordination Sequence:
#
# PCOD9431501 Si02
#       7
#     8   8   8   8   8   8   8
#     4  11  24  43  64  87 121 166 214 264 323 390
#     4  12  22  36  61  94 125 158 202 257 312 371
#     4  11  22  40  64  90 122 169 215 257 316 394
#     4   9  18  35  56  82 119 160 199 243 304 373
#     4  10  21  39  61  83 118 166 206 245 307 392
#     4  12  24  40  62  95 127 160 208 268 324 380
#     4  11  20  33  56  89 120 151 195 256 309 358
#
# _framework density 23.434308999999999
#
# number of rings (size 3 to 8) (size 9 to 14) (size 15 to 20)
#    0.000    1.143    0.000    9.857    0.000    0.000 
#    0.000    0.000    0.000    4.286    0.000    0.000 
#    0.000    0.000    0.000    0.000    0.000    0.000 
#
# Total GULP energy -312923.114097 kJ/mol
# GULP energy per Si atom -5587.912752 kJ/mol
# Density = 2.338097 g / cm^3
# Si number density = 23.434309 Si / 1000 Ang^3
#
#
#
# Elastic Constant Matrix: (Units=GPa)
#
#
# Indices 1 2 3 4 5 6 
#
# 1 42.9435 16.2227 8.6630 0.0000 0.0000 0.0000
# 2 16.2227 160.1868 11.1858 0.0000 0.0000 0.0000
# 3 8.6630 11.1858 64.9791 0.0000 0.0000 0.0000
# 4 0.0000 0.0000 0.0000 13.7640 0.0000 0.0000
# 5 0.0000 0.0000 0.0000 0.0000 34.2883 0.0000
# 6 0.0000 0.0000 0.0000 0.0000 0.0000 37.4585
#
#
#
# Elastic Compliance Matrix: (Units=1/GPa)
#
#
# Indices 1 2 3 4 5 6 
#
# 1 0.024742 -0.002303 -0.002902 0.000000 0.000000 0.000000
# 2 -0.002303 0.006533 -0.000818 0.000000 0.000000 0.000000
# 3 -0.002902 -0.000818 0.015917 0.000000 0.000000 0.000000
# 4 0.000000 0.000000 0.000000 0.072653 0.000000 0.000000
# 5 0.000000 0.000000 0.000000 0.000000 0.029164 0.000000
# 6 0.000000 0.000000 0.000000 0.000000 0.000000 0.026696
#
#
# Mechanical properties :
#
#
# Convention : Reuss Voigt Hill
#
# Bulk Modulus (GPa) = 28.45226 37.80583 33.12904
# Shear Modulus (GPa) = 25.06678 32.57136 28.81907
#
# Velocity S-wave (km/s) = 3.27412 3.73218 3.51063
# Velocity P-wave (km/s) = 5.14400 5.89406 5.53176
#
# Compressibility (1/GPa) = 0.03514660
#
# Stress axis : x y z
#
# Youngs Moduli (GPa) = 40.41732 153.06813 62.82509
#
# Poissons Ratio (x) = 0.35252 0.18233
# Poissons Ratio (y) = 0.09308 0.05136
# Poissons Ratio (z) = 0.11730 0.12515
#
# Static dielectric constant tensor:
#      x y z
#    x 1.908130 0.000000 0.000000 
#    y 0.000000 1.969770 0.000000 
#    z 0.000000 0.000000 1.854410 
# 
# From -- ./inp_files/19116.got.cif
#   From: 2010.05.17/outbox.cif.g08.bks.cpg/sg56_10_cif.got.tgz:19116.got - 2010.06.03 13:42:01.
