data_PCOD9431144
_publ_section_title
;
Structure prediction by ZEFSAII (Michael W. Deem and Ramdas Pophale) SiO2 
 PCOD9431144
Probable space group: P C C N
;
_chemical_formula_sum "Si O2"
_cell_formula_units_Z 60
_cell_length_a 17.378829
_cell_length_b 9.425233
_cell_length_c 16.833146
_cell_angle_alpha 90.000000
_cell_angle_beta 90.000000
_cell_angle_gamma 90.000000
_cell_volume 2757.261110
_symmetry_space_group_name_H-M "P C C N"
_symmetry_group_IT_number 56
_symmetry_cell_setting 'orthorhombic'
loop_
_space_group_symop_operation_xyz
x,y,z
1/2-x,1/2-y,z
1/2+x,-y,1/2-z
-x,1/2+y,1/2-z
-x,-y,-z
1/2+x,1/2+y,-z
1/2-x,y,1/2+z
x,1/2-y,1/2+z
loop_
_atom_site_type_symbol
_atom_site_label
_atom_site_fract_x
_atom_site_fract_y
_atom_site_fract_z
Si Si1 0.100898 0.309470 0.842824
Si Si2 0.166787 0.704260 0.259070
Si Si3 0.088976 0.972164 0.481782
Si Si4 0.058079 0.012410 0.927466
Si Si5 0.327599 0.689826 0.943812
Si Si6 0.507472 0.228374 0.701120
Si Si7 0.631073 0.561214 0.347561
Si Si8 0.250000 0.250000 0.738480
O O1 0.109479 0.429648 0.908119
O O2 0.074763 0.162493 0.886036
O O3 0.035152 0.336207 0.777673
O O4 0.180895 0.299070 0.795492
O O5 0.250000 0.750000 0.224794
O O6 0.186684 0.663575 0.349890
O O7 0.132348 0.576615 0.208084
O O8 0.089363 0.798907 0.271850
O O9 0.132853 0.016733 0.561316
O O10 0.109165 0.810751 0.460361
O O11 0.000000 0.000000 0.500000
O O12 0.137591 0.958812 0.967980
O O13 0.028853 0.897740 0.861037
O O14 0.000000 0.000000 0.000000
O O15 0.250000 0.750000 0.980155
O O16 0.444593 0.340183 0.667280
O O17 0.707795 0.639647 0.318672
#
# Coordination Sequence:
#
# PCOD9431144 Si02
#       8
#     8   8   8   8   8   8   8   4
#     4  11  25  42  73 101 137 193 241 285 365 438
#     4  10  22  41  71  94 139 179 236 289 351 428
#     4  12  25  43  70 101 141 182 233 295 364 427
#     4  11  23  44  70 103 142 184 243 297 357 428
#     4  10  23  41  64  98 133 181 227 285 358 423
#     4  10  20  41  68  99 136 186 233 294 349 433
#     4  11  24  45  65 105 142 176 245 297 360 432
#     4  10  24  44  68 100 138 184 236 294 348 434
#
# _framework density 21.760725000000001
#
# number of rings (size 3 to 8) (size 9 to 14) (size 15 to 20)
#    0.000    1.333    0.000    7.200    5.600    3.200 
#    9.600    0.000    0.000    0.000    0.000    0.000 
#    0.000    0.000    0.000    0.000    0.000    0.000 
#
# Total GULP energy -334790.846001 kJ/mol
# GULP energy per Si atom -5579.847433 kJ/mol
# Density = 2.171120 g / cm^3
# Si number density = 21.760725 Si / 1000 Ang^3
#
#
#
# Elastic Constant Matrix: (Units=GPa)
#
#
# Indices 1 2 3 4 5 6 
#
# 1 123.5171 3.5587 23.9531 0.0000 0.0000 0.0000
# 2 3.5587 58.8940 26.2033 0.0000 0.0000 0.0000
# 3 23.9531 26.2033 116.6311 0.0000 0.0000 0.0000
# 4 0.0000 0.0000 0.0000 35.7765 0.0000 0.0000
# 5 0.0000 0.0000 0.0000 0.0000 29.5344 0.0000
# 6 0.0000 0.0000 0.0000 0.0000 0.0000 28.0944
#
#
#
# Elastic Compliance Matrix: (Units=1/GPa)
#
#
# Indices 1 2 3 4 5 6 
#
# 1 0.008436 0.000290 -0.001798 0.000000 0.000000 0.000000
# 2 0.000290 0.018875 -0.004300 0.000000 0.000000 0.000000
# 3 -0.001798 -0.004300 0.009909 0.000000 0.000000 0.000000
# 4 0.000000 0.000000 0.000000 0.027951 0.000000 0.000000
# 5 0.000000 0.000000 0.000000 0.000000 0.033859 0.000000
# 6 0.000000 0.000000 0.000000 0.000000 0.000000 0.035594
#
#
# Mechanical properties :
#
#
# Convention : Reuss Voigt Hill
#
# Bulk Modulus (GPa) = 39.05455 45.16359 42.10907
# Shear Modulus (GPa) = 32.30464 35.03621 33.67042
#
# Velocity S-wave (km/s) = 3.85715 4.01692 3.93784
# Velocity P-wave (km/s) = 6.15004 6.50491 6.32996
#
# Compressibility (1/GPa) = 0.02560521
#
# Stress axis : x y z
#
# Youngs Moduli (GPa) = 118.53510 52.97897 100.91434
#
# Poissons Ratio (x) = -0.01537 0.18142
# Poissons Ratio (y) = -0.03439 0.43396
# Poissons Ratio (z) = 0.21310 0.22782
#
# Static dielectric constant tensor:
#      x y z
#    x 1.895690 0.000000 0.000000 
#    y 0.000000 1.819140 0.000000 
#    z 0.000000 0.000000 1.893460 
# 
# From -- ./inp_files/16642.got.cif
#   From: 2010.05.17/outbox.cif.g08.bks.cpg/sg56_9_cif.got.tgz:16642.got - 2010.06.03 13:42:01.
