data_PCOD9431677
_publ_section_title
;
Structure prediction by ZEFSAII (Michael W. Deem and Ramdas Pophale) SiO2 
 PCOD9431677
Probable space group: P C C N
;
_chemical_formula_sum "Si O2"
_cell_formula_units_Z 40
_cell_length_a 9.916801
_cell_length_b 10.083373
_cell_length_c 14.787009
_cell_angle_alpha 90.000000
_cell_angle_beta 90.000000
_cell_angle_gamma 90.000000
_cell_volume 1478.624059
_symmetry_space_group_name_H-M "P C C N"
_symmetry_group_IT_number 56
_symmetry_cell_setting 'orthorhombic'
loop_
_space_group_symop_operation_xyz
x,y,z
1/2-x,1/2-y,z
1/2+x,-y,1/2-z
-x,1/2+y,1/2-z
-x,-y,-z
1/2+x,1/2+y,-z
1/2-x,y,1/2+z
x,1/2-y,1/2+z
loop_
_atom_site_type_symbol
_atom_site_label
_atom_site_fract_x
_atom_site_fract_y
_atom_site_fract_z
Si Si1 0.759465 0.904363 0.813373
Si Si2 0.525802 0.685054 0.574860
Si Si3 0.983754 0.129610 0.076915
Si Si4 0.625993 0.168260 0.751711
Si Si5 0.790111 0.485994 0.000385
O O1 0.750000 0.750000 0.786151
O O2 0.913233 0.937551 0.848950
O O3 0.681936 0.015749 0.754476
O O4 0.691011 0.922316 0.911495
O O5 0.562663 0.801175 0.505521
O O6 0.491308 0.705300 0.678705
O O7 0.386790 0.634670 0.528108
O O8 0.636967 0.570795 0.576436
O O9 0.907672 0.219000 0.151700
O O10 0.859623 0.056096 0.027628
O O11 0.750000 0.250000 0.789757
#
# Coordination Sequence:
#
# PCOD9431677 Si02
#       5
#     8   8   8   8   8
#     4  11  24  46  68 106 150 191 252 323 375 459
#     4  10  21  42  70 103 142 192 249 303 366 460
#     4  12  24  43  77 103 151 199 251 315 391 453
#     4  11  26  44  72 107 146 195 258 309 378 464
#     4  10  21  40  69  98 141 195 242 295 383 448
#
# _framework density 27.052178000000001
#
# number of rings (size 3 to 8) (size 9 to 14) (size 15 to 20)
#    0.000    1.200    2.000    4.800    2.800    1.600 
#    0.000    1.000    0.000    0.000    0.000    0.000 
#    0.000    0.000    0.000    0.000    0.000    0.000 
#
# Total GULP energy -223262.715318 kJ/mol
# GULP energy per Si atom -5581.567883 kJ/mol
# Density = 2.699061 g / cm^3
# Si number density = 27.052178 Si / 1000 Ang^3
#
#
#
# Elastic Constant Matrix: (Units=GPa)
#
#
# Indices 1 2 3 4 5 6 
#
# 1 79.0934 15.7604 4.6148 0.0000 0.0000 0.0000
# 2 15.7604 91.4386 41.5873 0.0000 0.0000 0.0000
# 3 4.6148 41.5873 130.8623 0.0000 0.0000 0.0000
# 4 0.0000 0.0000 0.0000 24.1911 0.0000 0.0000
# 5 0.0000 0.0000 0.0000 0.0000 42.5850 0.0000
# 6 0.0000 0.0000 0.0000 0.0000 0.0000 40.8720
#
#
#
# Elastic Compliance Matrix: (Units=1/GPa)
#
#
# Indices 1 2 3 4 5 6 
#
# 1 0.013103 -0.002394 0.000299 0.000000 0.000000 0.000000
# 2 -0.002394 0.013222 -0.004117 0.000000 0.000000 0.000000
# 3 0.000299 -0.004117 0.008940 0.000000 0.000000 0.000000
# 4 0.000000 0.000000 0.000000 0.041337 0.000000 0.000000
# 5 0.000000 0.000000 0.000000 0.000000 0.023482 0.000000
# 6 0.000000 0.000000 0.000000 0.000000 0.000000 0.024467
#
#
# Mechanical properties :
#
#
# Convention : Reuss Voigt Hill
#
# Bulk Modulus (GPa) = 43.78581 47.25769 45.52175
# Shear Modulus (GPa) = 34.58078 37.49176 36.03627
#
# Velocity S-wave (km/s) = 3.57921 3.72681 3.65376
# Velocity P-wave (km/s) = 5.77077 6.00216 5.88760
#
# Compressibility (1/GPa) = 0.02283845
#
# Stress axis : x y z
#
# Youngs Moduli (GPa) = 76.31875 75.63386 111.86257
#
# Poissons Ratio (x) = 0.18109 -0.03343
# Poissons Ratio (y) = 0.18273 0.46057
# Poissons Ratio (z) = -0.02281 0.31141
#
# Static dielectric constant tensor:
#      x y z
#    x 2.336670 0.000000 0.000000 
#    y 0.000000 2.357630 0.000000 
#    z 0.000000 0.000000 2.076320 
# 
# From -- ./inp_files/11431.got.cif
#   From: 2010.05.17/outbox.cif.g08.bks.cpg/sg56_6_cif.got.tgz:11431.got - 2010.06.03 13:42:01.
