data_PCOD9431270
_publ_section_title
;
Structure prediction by ZEFSAII (Michael W. Deem and Ramdas Pophale) SiO2 
 PCOD9431270
Probable space group: P C C N
;
_chemical_formula_sum "Si O2"
_cell_formula_units_Z 52
_cell_length_a 6.457321
_cell_length_b 21.203535
_cell_length_c 18.997502
_cell_angle_alpha 90.000000
_cell_angle_beta 90.000000
_cell_angle_gamma 90.000000
_cell_volume 2601.100584
_symmetry_space_group_name_H-M "P C C N"
_symmetry_group_IT_number 56
_symmetry_cell_setting 'orthorhombic'
loop_
_space_group_symop_operation_xyz
x,y,z
1/2-x,1/2-y,z
1/2+x,-y,1/2-z
-x,1/2+y,1/2-z
-x,-y,-z
1/2+x,1/2+y,-z
1/2-x,y,1/2+z
x,1/2-y,1/2+z
loop_
_atom_site_type_symbol
_atom_site_label
_atom_site_fract_x
_atom_site_fract_y
_atom_site_fract_z
Si Si1 0.212882 0.044267 0.298988
Si Si2 0.942684 0.355064 0.122704
Si Si3 0.750000 0.750000 0.910271
Si Si4 0.665227 0.405452 0.247919
Si Si5 0.106576 0.909083 0.119205
Si Si6 0.122901 0.810224 0.997163
Si Si7 0.418548 0.009927 0.079053
O O1 0.409423 0.076881 0.332924
O O2 0.083000 0.089847 0.247648
O O3 0.273128 0.979836 0.259303
O O4 0.072906 0.023251 0.365281
O O5 0.795188 0.370146 0.188809
O O6 0.103321 0.297976 0.132304
O O7 0.070876 0.417004 0.099961
O O8 0.783076 0.338672 0.059902
O O9 0.586916 0.711959 0.958900
O O10 0.729743 0.381664 0.324699
O O11 0.072799 0.861270 0.056171
O O12 0.200624 0.974432 0.088930
O O13 0.250000 0.750000 0.026599
O O14 0.500000 0.000000 0.000000
#
# Coordination Sequence:
#
# PCOD9431270 Si02
#       7
#     8   8   4   8   8   8   8
#     4  10  21  35  57  91 135 167 199 257 332 392
#     4  10  22  42  65  94 128 173 215 275 321 392
#     4  10  24  42  66  88 128 172 228 266 328 374
#     4  10  21  39  60  92 132 166 210 258 326 394
#     4  11  22  38  65  95 132 169 207 267 332 392
#     4  10  23  43  63  90 129 169 216 271 322 382
#     4  10  21  36  60  98 131 155 208 264 331 397
#
# _framework density 19.991536
#
# number of rings (size 3 to 8) (size 9 to 14) (size 15 to 20)
#    0.000    1.846    3.077    0.000    2.154    5.538 
#    0.000    3.077    0.000    0.000    0.000    0.000 
#    0.000    0.000    0.000    0.000    0.000    0.000 
#
# Total GULP energy -290280.903016 kJ/mol
# GULP energy per Si atom -5582.325058 kJ/mol
# Density = 1.994603 g / cm^3
# Si number density = 19.991536 Si / 1000 Ang^3
#
#
#
# Elastic Constant Matrix: (Units=GPa)
#
#
# Indices 1 2 3 4 5 6 
#
# 1 112.3484 50.3311 29.4837 0.0000 0.0000 0.0000
# 2 50.3311 88.0420 37.4641 0.0000 0.0000 0.0000
# 3 29.4837 37.4641 86.7460 0.0000 0.0000 0.0000
# 4 0.0000 0.0000 0.0000 2.1091 0.0000 0.0000
# 5 0.0000 0.0000 0.0000 0.0000 28.0521 0.0000
# 6 0.0000 0.0000 0.0000 0.0000 0.0000 27.1552
#
#
#
# Elastic Compliance Matrix: (Units=1/GPa)
#
#
# Indices 1 2 3 4 5 6 
#
# 1 0.012098 -0.006330 -0.001378 0.000000 0.000000 0.000000
# 2 -0.006330 0.017227 -0.005289 0.000000 0.000000 0.000000
# 3 -0.001378 -0.005289 0.014281 0.000000 0.000000 0.000000
# 4 0.000000 0.000000 0.000000 0.474130 0.000000 0.000000
# 5 0.000000 0.000000 0.000000 0.000000 0.035648 0.000000
# 6 0.000000 0.000000 0.000000 0.000000 0.000000 0.036825
#
#
# Mechanical properties :
#
#
# Convention : Reuss Voigt Hill
#
# Bulk Modulus (GPa) = 56.77825 57.96604 57.37215
# Shear Modulus (GPa) = 8.03763 22.78712 15.41238
#
# Velocity S-wave (km/s) = 2.00730 3.37981 2.77960
# Velocity P-wave (km/s) = 5.81680 6.65500 6.24997
#
# Compressibility (1/GPa) = 0.01761238
#
# Stress axis : x y z
#
# Youngs Moduli (GPa) = 82.65652 58.04759 70.02550
#
# Poissons Ratio (x) = 0.36742 0.09652
# Poissons Ratio (y) = 0.52319 0.37035
# Poissons Ratio (z) = 0.11393 0.30700
#
# Static dielectric constant tensor:
#      x y z
#    x 1.755460 0.000000 0.000000 
#    y 0.000000 1.715190 0.000000 
#    z 0.000000 0.000000 1.687080 
# 
# From -- ./inp_files/17567.got.cif
#   From: 2010.05.17/outbox.cif.g08.bks.cpg/sg56_9_cif.got.tgz:17567.got - 2010.06.03 13:42:01.
