data_PCOD9431349
_publ_section_title
;
Structure prediction by ZEFSAII (Michael W. Deem and Ramdas Pophale) SiO2 
 PCOD9431349
Probable space group: P C C N
;
_chemical_formula_sum "Si O2"
_cell_formula_units_Z 40
_cell_length_a 7.362466
_cell_length_b 9.702494
_cell_length_c 24.252818
_cell_angle_alpha 90.000000
_cell_angle_beta 90.000000
_cell_angle_gamma 90.000000
_cell_volume 1732.482645
_symmetry_space_group_name_H-M "P C C N"
_symmetry_group_IT_number 56
_symmetry_cell_setting 'orthorhombic'
loop_
_space_group_symop_operation_xyz
x,y,z
1/2-x,1/2-y,z
1/2+x,-y,1/2-z
-x,1/2+y,1/2-z
-x,-y,-z
1/2+x,1/2+y,-z
1/2-x,y,1/2+z
x,1/2-y,1/2+z
loop_
_atom_site_type_symbol
_atom_site_label
_atom_site_fract_x
_atom_site_fract_y
_atom_site_fract_z
Si Si1 0.032960 0.783114 0.221459
Si Si2 0.822458 0.102478 0.883108
Si Si3 0.473432 0.999605 0.815203
Si Si4 0.173320 0.904588 0.426079
Si Si5 0.235313 0.089156 0.525138
O O1 0.250000 0.750000 0.229338
O O2 0.025930 0.857362 0.161615
O O3 0.986287 0.881144 0.271577
O O4 0.924966 0.640029 0.217061
O O5 0.750000 0.250000 0.907558
O O6 0.656844 0.041941 0.847047
O O7 0.856717 0.988019 0.928903
O O8 0.335013 0.950389 0.862342
O O9 0.250000 0.750000 0.430911
O O10 0.967273 0.917492 0.449075
O O11 0.265728 0.009312 0.468398
O O12 0.250000 0.250000 0.515656
#
# Coordination Sequence:
#
# PCOD9431349 Si02
#       5
#     8   8   8   8   8
#     4   9  18  33  53  75 104 140 180 221 270 335
#     4   8  17  34  54  74 103 145 186 225 273 334
#     4   9  18  34  54  78 108 142 179 227 281 324
#     4  10  21  38  58  81 115 147 181 234 281 325
#     4  10  21  37  58  83 109 146 191 228 275 335
#
# _framework density 23.088252000000001
#
# number of rings (size 3 to 8) (size 9 to 14) (size 15 to 20)
#    0.000    3.200    0.000    1.200    0.000    5.600 
#    0.000    9.000    0.000    0.000    0.000    0.000 
#    0.000    0.000    0.000    0.000    0.000    0.000 
#
# Total GULP energy -223264.317997 kJ/mol
# GULP energy per Si atom -5581.607950 kJ/mol
# Density = 2.303570 g / cm^3
# Si number density = 23.088252 Si / 1000 Ang^3
#
#
#
# Elastic Constant Matrix: (Units=GPa)
#
#
# Indices 1 2 3 4 5 6 
#
# 1 54.9565 15.9421 10.3780 0.0000 0.0000 0.0000
# 2 15.9421 211.5229 129.6191 0.0000 0.0000 0.0000
# 3 10.3780 129.6191 143.9706 0.0000 0.0000 0.0000
# 4 0.0000 0.0000 0.0000 -17.5738 0.0000 0.0000
# 5 0.0000 0.0000 0.0000 0.0000 -47.6265 0.0000
# 6 0.0000 0.0000 0.0000 0.0000 0.0000 27.2501
#
#
#
# Elastic Compliance Matrix: (Units=1/GPa)
#
#
# Indices 1 2 3 4 5 6 
#
# 1 0.018605 -0.001295 -0.000176 0.000000 0.000000 0.000000
# 2 -0.001295 0.010636 -0.009482 0.000000 0.000000 0.000000
# 3 -0.000176 -0.009482 0.015496 0.000000 0.000000 0.000000
# 4 0.000000 0.000000 0.000000 -0.056903 0.000000 0.000000
# 5 0.000000 0.000000 0.000000 0.000000 -0.020997 0.000000
# 6 0.000000 0.000000 0.000000 0.000000 0.000000 0.036697
#
#
# Mechanical properties :
#
#
# Convention : Reuss Voigt Hill
#
# Bulk Modulus (GPa) = 43.79937 80.25871 62.02904
# Shear Modulus (GPa) = 151.28940 9.37735 80.33338
#
# Velocity S-wave (km/s) = 8.10363 2.01751 5.90505
# Velocity P-wave (km/s) = 10.32328 6.34542 8.56838
#
# Compressibility (1/GPa) = 0.02283138
#
# Stress axis : x y z
#
# Youngs Moduli (GPa) = 53.74926 94.02146 64.53441
#
# Poissons Ratio (x) = 0.12173 0.01133
# Poissons Ratio (y) = 0.06959 0.61194
# Poissons Ratio (z) = 0.00943 0.89154
#
# Static dielectric constant tensor:
#      x y z
#    x 1.984610 0.000000 0.000000 
#    y 0.000000 1.956650 0.000000 
#    z 0.000000 0.000000 1.865160 
# 
# From -- ./inp_files/21961.got.cif
#   From: 2010.05.17/outbox.cif.g08.bks.cpg/sg56_11_cif.got.tgz:21961.got - 2010.06.03 13:42:01.
