data_PCOD9431795
_publ_section_title
;
Structure prediction by ZEFSAII (Michael W. Deem and Ramdas Pophale) SiO2 
 PCOD9431795
Probable space group: P C C N
;
_chemical_formula_sum "Si O2"
_cell_formula_units_Z 60
_cell_length_a 8.509206
_cell_length_b 22.751738
_cell_length_c 13.973881
_cell_angle_alpha 90.000000
_cell_angle_beta 90.000000
_cell_angle_gamma 90.000000
_cell_volume 2705.332539
_symmetry_space_group_name_H-M "P C C N"
_symmetry_group_IT_number 56
_symmetry_cell_setting 'orthorhombic'
loop_
_space_group_symop_operation_xyz
x,y,z
1/2-x,1/2-y,z
1/2+x,-y,1/2-z
-x,1/2+y,1/2-z
-x,-y,-z
1/2+x,1/2+y,-z
1/2-x,y,1/2+z
x,1/2-y,1/2+z
loop_
_atom_site_type_symbol
_atom_site_label
_atom_site_fract_x
_atom_site_fract_y
_atom_site_fract_z
Si Si1 0.146724 0.450876 0.618879
Si Si2 0.656830 0.056109 0.243426
Si Si3 0.750000 0.250000 0.401741
Si Si4 0.452359 0.621990 0.743479
Si Si5 0.072142 0.251457 0.781091
Si Si6 0.682849 0.010487 0.035173
Si Si7 0.584654 0.865144 0.838459
Si Si8 0.620172 0.369473 0.470792
O O1 0.193340 0.511523 0.671715
O O2 0.000005 0.429602 0.682850
O O3 0.187174 0.466848 0.508717
O O4 0.251959 0.393949 0.636327
O O5 0.487771 0.086244 0.234175
O O6 0.765194 0.114470 0.248547
O O7 0.676869 0.016743 0.148433
O O8 0.584833 0.241115 0.344788
O O9 0.716155 0.309849 0.458008
O O10 0.529502 0.684939 0.764230
O O11 0.475144 0.616285 0.627791
O O12 0.250000 0.250000 0.826963
O O13 0.083954 0.198800 0.706079
O O14 0.726790 0.075228 0.996889
O O15 0.500000 0.000000 0.000000
O O16 0.489424 0.863946 0.937152
#
# Coordination Sequence:
#
# PCOD9431795 Si02
#       8
#     8   8   4   8   8   8   8   8
#     4  12  22  38  66  95 132 175 217 274 348 404
#     4  11  23  38  67  97 128 176 225 276 343 417
#     4  10  24  42  74  98 134 186 228 292 348 414
#     4  11  23  41  65  93 136 173 215 289 339 405
#     4  11  23  45  68 100 136 176 236 281 348 418
#     4  11  21  40  65  96 131 174 226 277 340 417
#     4  11  23  41  70  92 128 185 225 279 345 414
#     4  10  21  42  67  97 130 176 235 276 344 417
#
# _framework density 22.178419999999999
#
# number of rings (size 3 to 8) (size 9 to 14) (size 15 to 20)
#    0.000    1.067    5.333    3.200    0.000    3.200 
#    0.000    2.667   17.600    0.000    0.000    0.000 
#    0.000    0.000    0.000    0.000    0.000    0.000 
#
# Total GULP energy -334043.445176 kJ/mol
# GULP energy per Si atom -5567.390753 kJ/mol
# Density = 2.212794 g / cm^3
# Si number density = 22.178420 Si / 1000 Ang^3
#
#
#
# Elastic Constant Matrix: (Units=GPa)
#
#
# Indices 1 2 3 4 5 6 
#
# 1 55.5826 -3.6157 -8.6069 0.0000 0.0000 0.0000
# 2 -3.6157 79.7803 -0.3842 0.0000 0.0000 0.0000
# 3 -8.6069 -0.3842 48.0099 0.0000 0.0000 0.0000
# 4 0.0000 0.0000 0.0000 26.8556 0.0000 0.0000
# 5 0.0000 0.0000 0.0000 0.0000 10.0883 0.0000
# 6 0.0000 0.0000 0.0000 0.0000 0.0000 11.7126
#
#
#
# Elastic Compliance Matrix: (Units=1/GPa)
#
#
# Indices 1 2 3 4 5 6 
#
# 1 0.018563 0.000857 0.003335 0.000000 0.000000 0.000000
# 2 0.000857 0.012575 0.000254 0.000000 0.000000 0.000000
# 3 0.003335 0.000254 0.021429 0.000000 0.000000 0.000000
# 4 0.000000 0.000000 0.000000 0.037236 0.000000 0.000000
# 5 0.000000 0.000000 0.000000 0.000000 0.099125 0.000000
# 6 0.000000 0.000000 0.000000 0.000000 0.000000 0.085378
#
#
# Mechanical properties :
#
#
# Convention : Reuss Voigt Hill
#
# Bulk Modulus (GPa) = 16.27079 17.57324 16.92201
# Shear Modulus (GPa) = 17.48865 22.79660 20.14263
#
# Velocity S-wave (km/s) = 2.81115 3.20952 3.01692
# Velocity P-wave (km/s) = 4.22954 4.65570 4.44772
#
# Compressibility (1/GPa) = 0.06145983
#
# Stress axis : x y z
#
# Youngs Moduli (GPa) = 53.86946 79.52596 46.66588
#
# Poissons Ratio (x) = -0.06818 -0.15562
# Poissons Ratio (y) = -0.04619 -0.01187
# Poissons Ratio (z) = -0.17964 -0.02023
#
# Static dielectric constant tensor:
#      x y z
#    x 1.965840 0.000000 0.000000 
#    y 0.000000 1.822970 0.000000 
#    z 0.000000 0.000000 1.905360 
# 
# From -- ./inp_files/10988.got.cif
#   From: 2010.05.17/outbox.cif.g08.bks.cpg/sg56_6_cif.got.tgz:10988.got - 2010.06.03 13:42:01.
