data_PCOD9431371
_publ_section_title
;
Structure prediction by ZEFSAII (Michael W. Deem and Ramdas Pophale) SiO2 
 PCOD9431371
Probable space group: P C C N
;
_chemical_formula_sum "Si O2"
_cell_formula_units_Z 60
_cell_length_a 6.234750
_cell_length_b 24.689748
_cell_length_c 19.466642
_cell_angle_alpha 90.000000
_cell_angle_beta 90.000000
_cell_angle_gamma 90.000000
_cell_volume 2996.585980
_symmetry_space_group_name_H-M "P C C N"
_symmetry_group_IT_number 56
_symmetry_cell_setting 'orthorhombic'
loop_
_space_group_symop_operation_xyz
x,y,z
1/2-x,1/2-y,z
1/2+x,-y,1/2-z
-x,1/2+y,1/2-z
-x,-y,-z
1/2+x,1/2+y,-z
1/2-x,y,1/2+z
x,1/2-y,1/2+z
loop_
_atom_site_type_symbol
_atom_site_label
_atom_site_fract_x
_atom_site_fract_y
_atom_site_fract_z
Si Si1 0.715167 0.110240 0.612708
Si Si2 0.250000 0.750000 0.007056
Si Si3 0.517238 0.499404 0.919620
Si Si4 0.004205 0.150751 0.486943
Si Si5 0.254281 0.093412 0.861896
Si Si6 0.874640 0.698907 0.414475
Si Si7 0.020397 0.910041 0.256329
Si Si8 0.633647 0.481426 0.320805
O O1 0.616759 0.049686 0.611518
O O2 0.514216 0.151771 0.622077
O O3 0.842235 0.120122 0.540287
O O4 0.884126 0.117230 0.675183
O O5 0.361255 0.800162 0.043720
O O6 0.440143 0.726785 0.960034
O O7 0.429766 0.441257 0.897817
O O8 0.757457 0.500615 0.891482
O O9 0.500000 0.500000 0.000000
O O10 0.114191 0.123145 0.421516
O O11 0.198527 0.171215 0.535881
O O12 0.133733 0.121646 0.797194
O O13 0.413534 0.048123 0.833367
O O14 0.750000 0.750000 0.378917
O O15 0.220954 0.936799 0.216748
O O16 0.891863 0.963712 0.278843
#
# Coordination Sequence:
#
# PCOD9431371 Si02
#       8
#     8   4   8   8   8   8   8   8
#     4  11  22  34  57  88 122 161 208 248 312 368
#     4   8  18  38  60  90 118 140 186 250 320 374
#     4  11  23  33  52  85 122 159 200 250 299 358
#     4  10  21  37  61  92 118 151 198 262 315 374
#     4  11  23  36  56  83 124 164 207 248 298 360
#     4   9  19  37  61  89 119 145 190 254 319 377
#     4  11  22  36  53  80 116 171 213 240 285 371
#     4  11  21  38  53  73 124 168 205 237 285 359
#
# _framework density 20.022784999999999
#
# number of rings (size 3 to 8) (size 9 to 14) (size 15 to 20)
#    0.000    1.600    2.667    2.400    3.733    4.267 
#    0.000    0.000    0.000    0.000    0.000   73.733 
#    0.000    0.000    0.000    0.000    0.000    0.000 
#
# Total GULP energy -334208.792073 kJ/mol
# GULP energy per Si atom -5570.146535 kJ/mol
# Density = 1.997721 g / cm^3
# Si number density = 20.022785 Si / 1000 Ang^3
#
#
#
# Elastic Constant Matrix: (Units=GPa)
#
#
# Indices 1 2 3 4 5 6 
#
# 1 80.8770 20.7790 30.8841 0.0000 0.0000 0.0000
# 2 20.7790 68.8883 22.1866 0.0000 0.0000 0.0000
# 3 30.8841 22.1866 96.7309 0.0000 0.0000 0.0000
# 4 0.0000 0.0000 0.0000 1.8782 0.0000 0.0000
# 5 0.0000 0.0000 0.0000 0.0000 -149.8710 0.0000
# 6 0.0000 0.0000 0.0000 0.0000 0.0000 38.4343
#
#
#
# Elastic Compliance Matrix: (Units=1/GPa)
#
#
# Indices 1 2 3 4 5 6 
#
# 1 0.014689 -0.003153 -0.003967 0.000000 0.000000 0.000000
# 2 -0.003153 0.016351 -0.002744 0.000000 0.000000 0.000000
# 3 -0.003967 -0.002744 0.012234 0.000000 0.000000 0.000000
# 4 0.000000 0.000000 0.000000 0.532427 0.000000 0.000000
# 5 0.000000 0.000000 0.000000 0.000000 -0.006672 0.000000
# 6 0.000000 0.000000 0.000000 0.000000 0.000000 0.026018
#
#
# Mechanical properties :
#
#
# Convention : Reuss Voigt Hill
#
# Bulk Modulus (GPa) = 42.46836 43.79952 43.13394
# Shear Modulus (GPa) = 8.03054 -10.40193 -1.18569
#
# Velocity S-wave (km/s) = 2.00485 -2.28174 -0.77036
# Velocity P-wave (km/s) = 5.15900 3.87047 4.56047
#
# Compressibility (1/GPa) = 0.02354694
#
# Stress axis : x y z
#
# Youngs Moduli (GPa) = 68.07646 61.15841 81.74119
#
# Poissons Ratio (x) = 0.19285 0.32425
# Poissons Ratio (y) = 0.21466 0.22426
# Poissons Ratio (z) = 0.27004 0.16779
#
# Static dielectric constant tensor:
#      x y z
#    x 0.703330 0.000000 0.000000 
#    y 0.000000 1.745160 0.000000 
#    z 0.000000 0.000000 1.750340 
# 
# From -- ./inp_files/17653.got.cif
#   From: 2010.05.17/outbox.cif.g08.bks.cpg/sg56_9_cif.got.tgz:17653.got - 2010.06.03 13:42:01.
