data_PCOD9431939
_publ_section_title
;
Structure prediction by ZEFSAII (Michael W. Deem and Ramdas Pophale) SiO2 
 PCOD9431939
Probable space group: P C C N
;
_chemical_formula_sum "Si O2"
_cell_formula_units_Z 64
_cell_length_a 25.055823
_cell_length_b 20.055566
_cell_length_c 5.152400
_cell_angle_alpha 90.000000
_cell_angle_beta 90.000000
_cell_angle_gamma 90.000000
_cell_volume 2589.125887
_symmetry_space_group_name_H-M "P C C N"
_symmetry_group_IT_number 56
_symmetry_cell_setting 'orthorhombic'
loop_
_space_group_symop_operation_xyz
x,y,z
1/2-x,1/2-y,z
1/2+x,-y,1/2-z
-x,1/2+y,1/2-z
-x,-y,-z
1/2+x,1/2+y,-z
1/2-x,y,1/2+z
x,1/2-y,1/2+z
loop_
_atom_site_type_symbol
_atom_site_label
_atom_site_fract_x
_atom_site_fract_y
_atom_site_fract_z
Si Si1 0.013456 0.790364 0.802570
Si Si2 0.690369 0.223954 0.577386
Si Si3 0.504236 0.081072 0.033940
Si Si4 0.109064 0.554909 0.708534
Si Si5 0.114085 0.411190 0.972773
Si Si6 0.615104 0.785039 0.356711
Si Si7 0.174003 0.919772 0.709471
Si Si8 0.219331 0.058795 0.764938
O O1 0.033258 0.740581 0.573921
O O2 0.020208 0.866724 0.696738
O O3 0.949338 0.784422 0.842757
O O4 0.750000 0.250000 0.522791
O O5 0.663263 0.231695 0.299404
O O6 0.693910 0.150462 0.688800
O O7 0.551458 0.086790 0.240818
O O8 0.443745 0.102503 0.102025
O O9 0.500000 0.000000 0.000000
O O10 0.127382 0.561074 0.413978
O O11 0.107693 0.477952 0.801076
O O12 0.151345 0.583787 0.918493
O O13 0.160296 0.420910 0.180402
O O14 0.130160 0.353735 0.775788
O O15 0.633235 0.770610 0.647425
O O16 0.216751 0.978153 0.742540
O O17 0.260693 0.080506 0.543721
#
# Coordination Sequence:
#
# PCOD9431939 Si02
#       8
#     8   8   8   8   8   8   8   8
#     4   9  18  34  54  84 118 155 207 251 301 370
#     4  10  22  37  60  88 117 163 220 267 320 377
#     4   9  19  40  66  92 127 170 216 264 327 398
#     4  10  22  40  62  92 125 169 206 268 331 380
#     4   9  20  41  63  94 127 160 212 265 316 390
#     4   9  18  32  57  86 116 155 194 245 295 361
#     4  11  23  41  61  87 128 157 216 267 318 380
#     4  11  24  39  64  90 119 159 198 257 318 361
#
# _framework density 24.718765999999999
#
# number of rings (size 3 to 8) (size 9 to 14) (size 15 to 20)
#    0.000    2.250    0.000    2.250    3.500    4.000 
#    0.000   29.375    0.000    2.250    0.000    0.000 
#    0.000    0.000    0.000    0.000    0.000    0.000 
#
# Total GULP energy -357786.636769 kJ/mol
# GULP energy per Si atom -5590.416200 kJ/mol
# Density = 2.466251 g / cm^3
# Si number density = 24.718766 Si / 1000 Ang^3
#
#
#
# Elastic Constant Matrix: (Units=GPa)
#
#
# Indices 1 2 3 4 5 6 
#
# 1 82.4922 6.5732 15.3053 0.0000 0.0000 0.0000
# 2 6.5732 97.5966 15.1350 0.0000 0.0000 0.0000
# 3 15.3053 15.1350 100.0553 0.0000 0.0000 0.0000
# 4 0.0000 0.0000 0.0000 34.4630 0.0000 0.0000
# 5 0.0000 0.0000 0.0000 0.0000 25.2109 0.0000
# 6 0.0000 0.0000 0.0000 0.0000 0.0000 16.6046
#
#
#
# Elastic Compliance Matrix: (Units=1/GPa)
#
#
# Indices 1 2 3 4 5 6 
#
# 1 0.012506 -0.000559 -0.001829 0.000000 0.000000 0.000000
# 2 -0.000559 0.010517 -0.001505 0.000000 0.000000 0.000000
# 3 -0.001829 -0.001505 0.010502 0.000000 0.000000 0.000000
# 4 0.000000 0.000000 0.000000 0.029017 0.000000 0.000000
# 5 0.000000 0.000000 0.000000 0.000000 0.039665 0.000000
# 6 0.000000 0.000000 0.000000 0.000000 0.000000 0.060224
#
#
# Mechanical properties :
#
#
# Convention : Reuss Voigt Hill
#
# Bulk Modulus (GPa) = 38.85009 39.35235 39.10122
# Shear Modulus (GPa) = 27.96465 31.46440 29.71453
#
# Velocity S-wave (km/s) = 3.36715 3.57164 3.47090
# Velocity P-wave (km/s) = 5.55589 5.74137 5.64939
#
# Compressibility (1/GPa) = 0.02573996
#
# Stress axis : x y z
#
# Youngs Moduli (GPa) = 79.96072 95.08095 95.22084
#
# Poissons Ratio (x) = 0.05313 0.17411
# Poissons Ratio (y) = 0.04468 0.14335
# Poissons Ratio (z) = 0.14621 0.14314
#
# Static dielectric constant tensor:
#      x y z
#    x 1.997560 0.000000 0.000000 
#    y 0.000000 2.043990 0.000000 
#    z 0.000000 0.000000 1.994250 
# 
# From -- ./inp_files/1279.got.cif
#   From: 2010.05.17/outbox.cif.g08.bks.cpg/sg56_1_cif.got.tgz:1279.got - 2010.06.03 13:42:01.
