data_PCOD9431829
_publ_section_title
;
Structure prediction by ZEFSAII (Michael W. Deem and Ramdas Pophale) SiO2 
 PCOD9431829
Probable space group: P C C N
;
_chemical_formula_sum "Si O2"
_cell_formula_units_Z 60
_cell_length_a 19.932321
_cell_length_b 6.884813
_cell_length_c 20.005174
_cell_angle_alpha 90.000000
_cell_angle_beta 90.000000
_cell_angle_gamma 90.000000
_cell_volume 2745.316084
_symmetry_space_group_name_H-M "P C C N"
_symmetry_group_IT_number 56
_symmetry_cell_setting 'orthorhombic'
loop_
_space_group_symop_operation_xyz
x,y,z
1/2-x,1/2-y,z
1/2+x,-y,1/2-z
-x,1/2+y,1/2-z
-x,-y,-z
1/2+x,1/2+y,-z
1/2-x,y,1/2+z
x,1/2-y,1/2+z
loop_
_atom_site_type_symbol
_atom_site_label
_atom_site_fract_x
_atom_site_fract_y
_atom_site_fract_z
Si Si1 0.445564 0.420724 0.779285
Si Si2 0.040624 0.675617 0.839778
Si Si3 0.928802 0.693637 0.102335
Si Si4 0.798514 0.566056 0.744497
Si Si5 0.042514 0.322760 0.533254
Si Si6 0.698596 0.937096 0.448979
Si Si7 0.795601 0.560698 0.595950
Si Si8 0.750000 0.250000 0.345677
O O1 0.430195 0.634899 0.805874
O O2 0.495649 0.418362 0.718092
O O3 0.474514 0.296898 0.841540
O O4 0.373339 0.343379 0.756434
O O5 0.090936 0.514389 0.868141
O O6 0.994872 0.744603 0.901585
O O7 0.870028 0.849747 0.096538
O O8 0.956187 0.671955 0.028349
O O9 0.750000 0.750000 0.757206
O O10 0.783567 0.480005 0.669988
O O11 0.792155 0.395059 0.798202
O O12 0.120214 0.371944 0.551072
O O13 0.000000 0.500000 0.500000
O O14 0.750000 0.750000 0.440830
O O15 0.712210 0.031165 0.522864
O O16 0.710174 0.099994 0.393139
O O17 0.750000 0.750000 0.593096
#
# Coordination Sequence:
#
# PCOD9431829 Si02
#       8
#     8   8   8   8   8   8   8   4
#     4  11  24  41  66  96 133 177 222 277 338 408
#     4  12  24  40  66 101 134 177 225 275 342 409
#     4  10  21  43  64  97 131 173 224 278 336 392
#     4  10  24  43  67  93 132 172 224 278 338 393
#     4  11  24  45  72 100 140 181 230 288 342 409
#     4  10  24  47  69  97 140 181 225 282 345 404
#     4   8  18  42  67  88 122 173 217 273 327 384
#     4  12  26  40  66 106 132 178 228 274 338 424
#
# _framework density 21.855405000000001
#
# number of rings (size 3 to 8) (size 9 to 14) (size 15 to 20)
#    0.000    1.600    2.667    0.800    3.733    5.867 
#    7.200    0.000    0.000    0.000    0.000    0.000 
#    0.000    0.000    0.000    0.000    0.000    0.000 
#
# Total GULP energy -334398.752204 kJ/mol
# GULP energy per Si atom -5573.312537 kJ/mol
# Density = 2.180566 g / cm^3
# Si number density = 21.855405 Si / 1000 Ang^3
#
#
#
# Elastic Constant Matrix: (Units=GPa)
#
#
# Indices 1 2 3 4 5 6 
#
# 1 63.4610 21.0564 17.0216 0.0000 0.0000 0.0000
# 2 21.0564 92.1200 42.6685 0.0000 0.0000 0.0000
# 3 17.0216 42.6685 161.5334 0.0000 0.0000 0.0000
# 4 0.0000 0.0000 0.0000 40.4599 0.0000 0.0000
# 5 0.0000 0.0000 0.0000 0.0000 31.9314 0.0000
# 6 0.0000 0.0000 0.0000 0.0000 0.0000 15.0269
#
#
#
# Elastic Compliance Matrix: (Units=1/GPa)
#
#
# Indices 1 2 3 4 5 6 
#
# 1 0.017160 -0.003515 -0.000880 0.000000 0.000000 0.000000
# 2 -0.003515 0.013089 -0.003087 0.000000 0.000000 0.000000
# 3 -0.000880 -0.003087 0.007099 0.000000 0.000000 0.000000
# 4 0.000000 0.000000 0.000000 0.024716 0.000000 0.000000
# 5 0.000000 0.000000 0.000000 0.000000 0.031317 0.000000
# 6 0.000000 0.000000 0.000000 0.000000 0.000000 0.066547
#
#
# Mechanical properties :
#
#
# Convention : Reuss Voigt Hill
#
# Bulk Modulus (GPa) = 44.67440 53.17860 48.92650
# Shear Modulus (GPa) = 27.41950 33.24151 30.33051
#
# Velocity S-wave (km/s) = 3.54586 3.90420 3.72933
# Velocity P-wave (km/s) = 6.10323 6.68644 6.40148
#
# Compressibility (1/GPa) = 0.02238418
#
# Stress axis : x y z
#
# Youngs Moduli (GPa) = 58.27537 76.40210 140.86913
#
# Poissons Ratio (x) = 0.26854 0.12394
# Poissons Ratio (y) = 0.20483 0.43486
# Poissons Ratio (z) = 0.05127 0.23585
#
# Static dielectric constant tensor:
#      x y z
#    x 1.696370 0.000000 0.000000 
#    y 0.000000 1.785310 0.000000 
#    z 0.000000 0.000000 1.869710 
# 
# From -- ./inp_files/19612.got.cif
#   From: 2010.05.17/outbox.cif.g08.bks.cpg/sg56_10_cif.got.tgz:19612.got - 2010.06.03 13:42:01.
