data_PCOD9431892
_publ_section_title
;
Structure prediction by ZEFSAII (Michael W. Deem and Ramdas Pophale) SiO2 
 PCOD9431892
Probable space group: P C C N
;
_chemical_formula_sum "Si O2"
_cell_formula_units_Z 32
_cell_length_a 7.817168
_cell_length_b 5.727454
_cell_length_c 28.742136
_cell_angle_alpha 90.000000
_cell_angle_beta 90.000000
_cell_angle_gamma 90.000000
_cell_volume 1286.856426
_symmetry_space_group_name_H-M "P C C N"
_symmetry_group_IT_number 56
_symmetry_cell_setting 'orthorhombic'
loop_
_space_group_symop_operation_xyz
x,y,z
1/2-x,1/2-y,z
1/2+x,-y,1/2-z
-x,1/2+y,1/2-z
-x,-y,-z
1/2+x,1/2+y,-z
1/2-x,y,1/2+z
x,1/2-y,1/2+z
loop_
_atom_site_type_symbol
_atom_site_label
_atom_site_fract_x
_atom_site_fract_y
_atom_site_fract_z
Si Si1 0.750000 0.750000 0.110801
Si Si2 0.750000 0.750000 0.227380
Si Si3 0.015041 0.503464 0.054967
Si Si4 0.250000 0.750000 0.891293
Si Si5 0.750000 0.750000 0.383910
Si Si6 0.889710 0.062678 0.808865
O O1 0.753513 0.496421 0.134575
O O2 0.914750 0.722188 0.077351
O O3 0.572039 0.679382 0.201960
O O4 0.810989 0.541340 0.261394
O O5 0.190808 0.455531 0.081399
O O6 0.907778 0.280324 0.073659
O O7 0.000000 0.500000 0.000000
O O8 0.888495 0.644961 0.347129
O O9 0.750000 0.250000 0.825833
#
# Coordination Sequence:
#
# PCOD9431892 Si02
#       6
#     4   4   8   4   4   8
#     4   8  19  40  64  95 126 192 252 313 393 475
#     4  11  22  46  84 109 158 214 247 308 413 506
#     4  10  21  45  70  97 144 205 264 335 410 474
#     4   8  20  40  64  94 124 186 262 310 398 468
#     4  11  27  46  70 124 150 196 281 349 394 477
#     4  11  24  46  76 121 159 202 259 322 399 503
#
# _framework density 24.866802
#
# number of rings (size 3 to 8) (size 9 to 14) (size 15 to 20)
#    1.500    0.500    2.500    0.750    0.000    3.000 
#    6.750    0.000    0.000    0.000    0.000    0.000 
#    0.000    0.000    0.000    0.000    0.000    0.000 
#
# Total GULP energy -178319.488666 kJ/mol
# GULP energy per Si atom -5572.484021 kJ/mol
# Density = 2.481020 g / cm^3
# Si number density = 24.866802 Si / 1000 Ang^3
#
#
#
# Elastic Constant Matrix: (Units=GPa)
#
#
# Indices 1 2 3 4 5 6 
#
# 1 130.8827 41.2645 52.0492 0.0000 0.0000 0.0000
# 2 41.2645 156.8502 33.0986 0.0000 0.0000 0.0000
# 3 52.0492 33.0986 120.5398 0.0000 0.0000 0.0000
# 4 0.0000 0.0000 0.0000 12.5201 0.0000 0.0000
# 5 0.0000 0.0000 0.0000 0.0000 20.8696 0.0000
# 6 0.0000 0.0000 0.0000 0.0000 0.0000 57.7233
#
#
#
# Elastic Compliance Matrix: (Units=1/GPa)
#
#
# Indices 1 2 3 4 5 6 
#
# 1 0.009663 -0.001764 -0.003688 0.000000 0.000000 0.000000
# 2 -0.001764 0.007090 -0.001185 0.000000 0.000000 0.000000
# 3 -0.003688 -0.001185 0.010214 0.000000 0.000000 0.000000
# 4 0.000000 0.000000 0.000000 0.079872 0.000000 0.000000
# 5 0.000000 0.000000 0.000000 0.000000 0.047916 0.000000
# 6 0.000000 0.000000 0.000000 0.000000 0.000000 0.017324
#
#
# Mechanical properties :
#
#
# Convention : Reuss Voigt Hill
#
# Bulk Modulus (GPa) = 73.03300 73.45524 73.24412
# Shear Modulus (GPa) = 26.32717 37.01330 31.67023
#
# Velocity S-wave (km/s) = 3.25734 3.86225 3.57262
# Velocity P-wave (km/s) = 6.60155 7.03512 6.82178
#
# Compressibility (1/GPa) = 0.01369244
#
# Stress axis : x y z
#
# Youngs Moduli (GPa) = 103.48425 141.05085 97.90472
#
# Poissons Ratio (x) = 0.24881 0.36110
# Poissons Ratio (y) = 0.18254 0.11602
# Poissons Ratio (z) = 0.38168 0.16715
#
# Static dielectric constant tensor:
#      x y z
#    x 2.192700 0.000000 0.000000 
#    y 0.000000 1.980520 0.000000 
#    z 0.000000 0.000000 1.936170 
# 
# From -- ./inp_files/23107.got.cif
#   From: 2010.05.17/outbox.cif.g08.bks.cpg/sg56_12_cif.got.tgz:23107.got - 2010.06.03 13:42:01.
