data_PCOD9431369
_publ_section_title
;
Structure prediction by ZEFSAII (Michael W. Deem and Ramdas Pophale) SiO2 
 PCOD9431369
Probable space group: P C C N
;
_chemical_formula_sum "Si O2"
_cell_formula_units_Z 52
_cell_length_a 9.242457
_cell_length_b 15.041750
_cell_length_c 20.018830
_cell_angle_alpha 90.000000
_cell_angle_beta 90.000000
_cell_angle_gamma 90.000000
_cell_volume 2783.072350
_symmetry_space_group_name_H-M "P C C N"
_symmetry_group_IT_number 56
_symmetry_cell_setting 'orthorhombic'
loop_
_space_group_symop_operation_xyz
x,y,z
1/2-x,1/2-y,z
1/2+x,-y,1/2-z
-x,1/2+y,1/2-z
-x,-y,-z
1/2+x,1/2+y,-z
1/2-x,y,1/2+z
x,1/2-y,1/2+z
loop_
_atom_site_type_symbol
_atom_site_label
_atom_site_fract_x
_atom_site_fract_y
_atom_site_fract_z
Si Si1 0.669978 0.944629 0.937336
Si Si2 0.465513 0.287512 0.185556
Si Si3 0.750000 0.250000 0.117444
Si Si4 0.750000 0.750000 0.701348
Si Si5 0.129072 0.483450 0.691265
Si Si6 0.328689 0.562681 0.432534
Si Si7 0.250000 0.250000 0.566573
Si Si8 0.820606 0.555430 0.679339
O O1 0.772389 0.971981 0.875185
O O2 0.500976 0.939174 0.915700
O O3 0.714630 0.845996 0.965245
O O4 0.684199 0.017356 0.995219
O O5 0.619216 0.252138 0.168734
O O6 0.384895 0.244864 0.247694
O O7 0.460007 0.391820 0.198156
O O8 0.379958 0.268974 0.117398
O O9 0.768719 0.337393 0.072553
O O10 0.760171 0.655399 0.665504
O O11 0.239591 0.482047 0.753935
O O12 0.996154 0.553192 0.686868
O O13 0.234176 0.506105 0.380658
#
# Coordination Sequence:
#
# PCOD9431369 Si02
#       8
#     8   8   4   4   8   8   4   8
#     4  10  22  41  60  87 121 165 196 250 301 363
#     4   9  18  33  57  84 112 154 200 239 283 357
#     4  12  20  36  58  90 114 158 206 252 286 360
#     4   9  22  37  56  86 128 158 192 246 318 358
#     4  10  21  37  61  88 119 154 202 245 300 354
#     4  11  24  39  61  88 125 156 205 250 306 354
#     4   9  16  35  60  80 110 158 198 232 292 354
#     4  11  22  38  60  93 120 160 200 256 298 368
#
# _framework density 18.684387000000001
#
# number of rings (size 3 to 8) (size 9 to 14) (size 15 to 20)
#    0.000    1.846    3.077    1.846    2.154    1.231 
#    0.000    3.077    0.000    0.923    0.000    0.000 
#    0.000    0.000    0.000    0.000    0.000    0.000 
#
# Total GULP energy -289641.369031 kJ/mol
# GULP energy per Si atom -5570.026328 kJ/mol
# Density = 1.864186 g / cm^3
# Si number density = 18.684387 Si / 1000 Ang^3
#
#
#
# Elastic Constant Matrix: (Units=GPa)
#
#
# Indices 1 2 3 4 5 6 
#
# 1 82.6372 29.8892 14.4926 0.0000 0.0000 0.0000
# 2 29.8892 112.9637 32.1934 0.0000 0.0000 0.0000
# 3 14.4926 32.1934 49.2665 0.0000 0.0000 0.0000
# 4 0.0000 0.0000 0.0000 9.3207 0.0000 0.0000
# 5 0.0000 0.0000 0.0000 0.0000 19.0290 0.0000
# 6 0.0000 0.0000 0.0000 0.0000 0.0000 28.4137
#
#
#
# Elastic Compliance Matrix: (Units=1/GPa)
#
#
# Indices 1 2 3 4 5 6 
#
# 1 0.013543 -0.003008 -0.002018 0.000000 0.000000 0.000000
# 2 -0.003008 0.011546 -0.006660 0.000000 0.000000 0.000000
# 3 -0.002018 -0.006660 0.025244 0.000000 0.000000 0.000000
# 4 0.000000 0.000000 0.000000 0.107288 0.000000 0.000000
# 5 0.000000 0.000000 0.000000 0.000000 0.052551 0.000000
# 6 0.000000 0.000000 0.000000 0.000000 0.000000 0.035194
#
#
# Mechanical properties :
#
#
# Convention : Reuss Voigt Hill
#
# Bulk Modulus (GPa) = 37.09208 44.22421 40.65814
# Shear Modulus (GPa) = 18.00330 22.57215 20.28773
#
# Velocity S-wave (km/s) = 3.10747 3.47951 3.29874
# Velocity P-wave (km/s) = 5.72453 6.31372 6.02633
#
# Compressibility (1/GPa) = 0.02695994
#
# Stress axis : x y z
#
# Youngs Moduli (GPa) = 73.83846 86.60700 39.61404
#
# Poissons Ratio (x) = 0.26053 0.07995
# Poissons Ratio (y) = 0.22212 0.26384
# Poissons Ratio (z) = 0.14902 0.57682
#
# Static dielectric constant tensor:
#      x y z
#    x 1.677520 0.000000 0.000000 
#    y 0.000000 1.706620 0.000000 
#    z 0.000000 0.000000 1.634020 
# 
# From -- ./inp_files/18176.got.cif
#   From: 2010.05.17/outbox.cif.g08.bks.cpg/sg56_10_cif.got.tgz:18176.got - 2010.06.03 13:42:01.
