data_PCOD9431210
_publ_section_title
;
Structure prediction by ZEFSAII (Michael W. Deem and Ramdas Pophale) SiO2 
 PCOD9431210
Probable space group: P C C N
;
_chemical_formula_sum "Si O2"
_cell_formula_units_Z 40
_cell_length_a 10.654172
_cell_length_b 17.135095
_cell_length_c 9.084341
_cell_angle_alpha 90.000000
_cell_angle_beta 90.000000
_cell_angle_gamma 90.000000
_cell_volume 1658.439558
_symmetry_space_group_name_H-M "P C C N"
_symmetry_group_IT_number 56
_symmetry_cell_setting 'orthorhombic'
loop_
_space_group_symop_operation_xyz
x,y,z
1/2-x,1/2-y,z
1/2+x,-y,1/2-z
-x,1/2+y,1/2-z
-x,-y,-z
1/2+x,1/2+y,-z
1/2-x,y,1/2+z
x,1/2-y,1/2+z
loop_
_atom_site_type_symbol
_atom_site_label
_atom_site_fract_x
_atom_site_fract_y
_atom_site_fract_z
Si Si1 0.014313 0.319492 0.569020
Si Si2 0.240818 0.555286 0.692095
Si Si3 0.369330 0.190667 0.893558
Si Si4 0.229733 0.658350 0.936470
Si Si5 0.815423 0.557865 0.557483
O O1 0.084047 0.316571 0.725957
O O2 0.027325 0.232828 0.497474
O O3 0.080372 0.376527 0.453185
O O4 0.878479 0.355965 0.591626
O O5 0.167653 0.617855 0.794782
O O6 0.314400 0.611289 0.578805
O O7 0.311582 0.495560 0.799228
O O8 0.167908 0.497243 0.583717
O O9 0.250000 0.250000 0.897619
O O10 0.315420 0.107462 0.947749
O O11 0.250000 0.750000 0.955062
#
# Coordination Sequence:
#
# PCOD9431210 Si02
#       5
#     8   8   8   8   8
#     4  11  24  39  70  96 128 177 214 258 322 393
#     4  10  23  41  67  88 130 174 202 283 314 365
#     4  10  21  39  67 100 130 164 210 273 327 374
#     4  11  26  46  64  90 133 175 223 257 318 386
#     4  10  20  44  66  96 131 158 217 271 332 368
#
# _framework density 24.119057999999999
#
# number of rings (size 3 to 8) (size 9 to 14) (size 15 to 20)
#    0.000    1.600    2.000    2.400    8.400    3.200 
#    0.000    3.000    0.000    0.000    0.000    0.000 
#    0.000    0.000    0.000    0.000    0.000    0.000 
#
# Total GULP energy -223119.599996 kJ/mol
# GULP energy per Si atom -5577.990000 kJ/mol
# Density = 2.406416 g / cm^3
# Si number density = 24.119058 Si / 1000 Ang^3
#
#
#
# Elastic Constant Matrix: (Units=GPa)
#
#
# Indices 1 2 3 4 5 6 
#
# 1 27.2007 -7.1512 -17.5533 0.0000 0.0000 0.0000
# 2 -7.1512 131.7277 5.4177 0.0000 0.0000 0.0000
# 3 -17.5533 5.4177 71.1517 0.0000 0.0000 0.0000
# 4 0.0000 0.0000 0.0000 37.5886 0.0000 0.0000
# 5 0.0000 0.0000 0.0000 0.0000 16.2939 0.0000
# 6 0.0000 0.0000 0.0000 0.0000 0.0000 16.9874
#
#
#
# Elastic Compliance Matrix: (Units=1/GPa)
#
#
# Indices 1 2 3 4 5 6 
#
# 1 0.044223 0.001958 0.010761 0.000000 0.000000 0.000000
# 2 0.001958 0.007702 -0.000103 0.000000 0.000000 0.000000
# 3 0.010761 -0.000103 0.016717 0.000000 0.000000 0.000000
# 4 0.000000 0.000000 0.000000 0.026604 0.000000 0.000000
# 5 0.000000 0.000000 0.000000 0.000000 0.061373 0.000000
# 6 0.000000 0.000000 0.000000 0.000000 0.000000 0.058867
#
#
# Mechanical properties :
#
#
# Convention : Reuss Voigt Hill
#
# Bulk Modulus (GPa) = 10.65271 21.27849 15.96560
# Shear Modulus (GPa) = 22.56876 30.79845 26.68360
#
# Velocity S-wave (km/s) = 3.06228 3.57730 3.32976
# Velocity P-wave (km/s) = 4.11457 5.08961 4.62784
#
# Compressibility (1/GPa) = 0.09387287
#
# Stress axis : x y z
#
# Youngs Moduli (GPa) = 22.61281 129.83682 59.81922
#
# Poissons Ratio (x) = -0.25425 -0.64370
# Poissons Ratio (y) = -0.04428 0.00618
# Poissons Ratio (z) = -0.24333 0.01342
#
# Static dielectric constant tensor:
#      x y z
#    x 2.003420 0.000000 0.000000 
#    y 0.000000 1.989800 0.000000 
#    z 0.000000 0.000000 1.957470 
# 
# From -- ./inp_files/2558.got.cif
#   From: 2010.05.17/outbox.cif.g08.bks.cpg/sg56_2_cif.got.tgz:2558.got - 2010.06.03 13:42:01.
