data_PCOD9431170
_publ_section_title
;
Structure prediction by ZEFSAII (Michael W. Deem and Ramdas Pophale) SiO2 
 PCOD9431170
Probable space group: P C C N
;
_chemical_formula_sum "Si O2"
_cell_formula_units_Z 56
_cell_length_a 5.605025
_cell_length_b 31.508159
_cell_length_c 13.824599
_cell_angle_alpha 90.000000
_cell_angle_beta 90.000000
_cell_angle_gamma 90.000000
_cell_volume 2441.479743
_symmetry_space_group_name_H-M "P C C N"
_symmetry_group_IT_number 56
_symmetry_cell_setting 'orthorhombic'
loop_
_space_group_symop_operation_xyz
x,y,z
1/2-x,1/2-y,z
1/2+x,-y,1/2-z
-x,1/2+y,1/2-z
-x,-y,-z
1/2+x,1/2+y,-z
1/2-x,y,1/2+z
x,1/2-y,1/2+z
loop_
_atom_site_type_symbol
_atom_site_label
_atom_site_fract_x
_atom_site_fract_y
_atom_site_fract_z
Si Si1 0.894668 0.159297 0.642184
Si Si2 0.365294 0.594486 0.737870
Si Si3 0.898561 0.544903 0.384967
Si Si4 0.252310 0.953483 0.069517
Si Si5 0.750000 0.250000 0.694917
Si Si6 0.250000 0.250000 0.813979
Si Si7 0.775680 0.843735 0.164810
Si Si8 0.653557 0.608687 0.500400
O O1 0.733783 0.119089 0.669656
O O2 0.770416 0.205085 0.640165
O O3 0.071922 0.158984 0.736349
O O4 0.001982 0.148041 0.538626
O O5 0.495685 0.552813 0.779558
O O6 0.177079 0.574968 0.662311
O O7 0.531180 0.630981 0.690186
O O8 0.748380 0.502165 0.396799
O O9 0.749360 0.587156 0.403918
O O10 0.090599 0.545839 0.473198
O O11 0.502579 0.930287 0.045930
O O12 0.499725 0.247425 0.753973
O O13 0.245663 0.205033 0.867597
O O14 0.849042 0.871342 0.071451
#
# Coordination Sequence:
#
# PCOD9431170 Si02
#       8
#     8   8   8   8   4   4   8   8
#     4  11  21  40  66  95 130 169 216 275 332 406
#     4  11  21  40  63  92 122 169 215 264 333 403
#     4  11  22  42  61  92 124 170 214 271 334 394
#     4  10  24  40  61  89 130 162 218 272 327 397
#     4  10  22  38  70  98 136 176 222 276 346 396
#     4  10  20  42  66  98 134 178 220 280 332 410
#     4  10  22  40  63  92 127 172 218 262 337 393
#     4  11  22  40  65  92 126 173 216 273 326 404
#
# _framework density 22.936909
#
# number of rings (size 3 to 8) (size 9 to 14) (size 15 to 20)
#    0.000    1.429    4.286    1.286    0.000    1.143 
#   10.286    5.000    0.000    0.000    0.000    0.000 
#    0.000    0.000    0.000    0.000    0.000    0.000 
#
# Total GULP energy -311844.013887 kJ/mol
# GULP energy per Si atom -5568.643105 kJ/mol
# Density = 2.288470 g / cm^3
# Si number density = 22.936909 Si / 1000 Ang^3
#
#
#
# Elastic Constant Matrix: (Units=GPa)
#
#
# Indices 1 2 3 4 5 6 
#
# 1 47.3749 42.6674 10.3844 0.0000 0.0000 0.0000
# 2 42.6674 180.0670 61.7232 0.0000 0.0000 0.0000
# 3 10.3844 61.7232 69.4983 0.0000 0.0000 0.0000
# 4 0.0000 0.0000 0.0000 -93.4342 0.0000 0.0000
# 5 0.0000 0.0000 0.0000 0.0000 28.0624 0.0000
# 6 0.0000 0.0000 0.0000 0.0000 0.0000 29.5434
#
#
#
# Elastic Compliance Matrix: (Units=1/GPa)
#
#
# Indices 1 2 3 4 5 6 
#
# 1 0.027106 -0.007238 0.002378 0.000000 0.000000 0.000000
# 2 -0.007238 0.009917 -0.007726 0.000000 0.000000 0.000000
# 3 0.002378 -0.007726 0.020895 0.000000 0.000000 0.000000
# 4 0.000000 0.000000 0.000000 -0.010703 0.000000 0.000000
# 5 0.000000 0.000000 0.000000 0.000000 0.035635 0.000000
# 6 0.000000 0.000000 0.000000 0.000000 0.000000 0.033849
#
#
# Mechanical properties :
#
#
# Convention : Reuss Voigt Hill
#
# Bulk Modulus (GPa) = 30.53804 58.49893 44.51848
# Shear Modulus (GPa) = 32.72570 4.97866 18.85218
#
# Velocity S-wave (km/s) = 3.78136 1.47489 2.87002
# Velocity P-wave (km/s) = 5.69278 5.33480 5.51669
#
# Compressibility (1/GPa) = 0.03274605
#
# Stress axis : x y z
#
# Youngs Moduli (GPa) = 36.89264 100.83891 47.85817
#
# Poissons Ratio (x) = 0.72986 -0.11381
# Poissons Ratio (y) = 0.26703 0.36975
# Poissons Ratio (z) = -0.08773 0.77907
#
# Static dielectric constant tensor:
#      x y z
#    x 2.036580 0.000000 0.000000 
#    y 0.000000 1.827230 0.000000 
#    z 0.000000 0.000000 1.943720 
# 
# From -- ./inp_files/9845.got.cif
#   From: 2010.05.17/outbox.cif.g08.bks.cpg/sg56_5_cif.got.tgz:9845.got - 2010.06.03 13:42:01.
