data_PCOD9431779
_publ_section_title
;
Structure prediction by ZEFSAII (Michael W. Deem and Ramdas Pophale) SiO2 
 PCOD9431779
Probable space group: P C C N
;
_chemical_formula_sum "Si O2"
_cell_formula_units_Z 64
_cell_length_a 17.539418
_cell_length_b 13.700935
_cell_length_c 12.333491
_cell_angle_alpha 90.000000
_cell_angle_beta 90.000000
_cell_angle_gamma 90.000000
_cell_volume 2963.817142
_symmetry_space_group_name_H-M "P C C N"
_symmetry_group_IT_number 56
_symmetry_cell_setting 'orthorhombic'
loop_
_space_group_symop_operation_xyz
x,y,z
1/2-x,1/2-y,z
1/2+x,-y,1/2-z
-x,1/2+y,1/2-z
-x,-y,-z
1/2+x,1/2+y,-z
1/2-x,y,1/2+z
x,1/2-y,1/2+z
loop_
_atom_site_type_symbol
_atom_site_label
_atom_site_fract_x
_atom_site_fract_y
_atom_site_fract_z
Si Si1 0.536072 0.820481 0.429157
Si Si2 0.080047 0.718551 0.599135
Si Si3 0.869256 0.984792 0.591754
Si Si4 0.504129 0.472665 0.246719
Si Si5 0.662856 0.756615 0.091245
Si Si6 0.353309 0.914056 0.125226
Si Si7 0.209967 0.855837 0.258261
Si Si8 0.051178 0.312438 0.260572
O O1 0.457775 0.834113 0.496731
O O2 0.539785 0.908577 0.343012
O O3 0.608442 0.801251 0.506422
O O4 0.532152 0.720570 0.359768
O O5 0.127804 0.812580 0.564528
O O6 0.135009 0.665597 0.684913
O O7 0.004160 0.752812 0.663793
O O8 0.849781 0.871640 0.605694
O O9 0.951448 0.991875 0.648768
O O10 0.865724 0.004163 0.463901
O O11 0.815447 0.066708 0.649776
O O12 0.584160 0.425424 0.280900
O O13 0.526980 0.579805 0.207058
O O14 0.750000 0.750000 0.060641
O O15 0.637455 0.708896 0.205948
O O16 0.271544 0.906801 0.179983
O O17 0.250000 0.750000 0.289794
#
# Coordination Sequence:
#
# PCOD9431779 Si02
#       8
#     8   8   8   8   8   8   8   8
#     4  11  23  44  74  99 140 188 242 301 356 426
#     4  10  21  42  65 100 140 173 226 291 351 430
#     4  12  24  47  70 103 141 188 238 300 357 438
#     4  12  23  41  74 101 131 190 240 295 357 429
#     4  11  27  46  66 101 145 188 244 295 358 430
#     4  11  24  41  69 103 135 180 238 282 363 429
#     4  10  25  44  67 106 145 183 231 293 372 427
#     4  11  22  44  67 101 132 182 236 291 353 425
#
# _framework density 21.593774
#
# number of rings (size 3 to 8) (size 9 to 14) (size 15 to 20)
#    0.000    1.000    3.750    2.625    1.750    6.000 
#    0.000    0.000    0.000    0.000    0.000    0.000 
#    0.000    0.000    0.000    0.000    0.000    0.000 
#
# Total GULP energy -356984.928191 kJ/mol
# GULP energy per Si atom -5577.889503 kJ/mol
# Density = 2.154463 g / cm^3
# Si number density = 21.593774 Si / 1000 Ang^3
#
#
#
# Elastic Constant Matrix: (Units=GPa)
#
#
# Indices 1 2 3 4 5 6 
#
# 1 103.9054 22.4445 18.0910 0.0000 0.0000 0.0000
# 2 22.4445 101.8369 15.1861 0.0000 0.0000 0.0000
# 3 18.0910 15.1861 47.9914 0.0000 0.0000 0.0000
# 4 0.0000 0.0000 0.0000 16.4219 0.0000 0.0000
# 5 0.0000 0.0000 0.0000 0.0000 21.6657 0.0000
# 6 0.0000 0.0000 0.0000 0.0000 0.0000 21.6826
#
#
#
# Elastic Compliance Matrix: (Units=1/GPa)
#
#
# Indices 1 2 3 4 5 6 
#
# 1 0.010615 -0.001829 -0.003423 0.000000 0.000000 0.000000
# 2 -0.001829 0.010621 -0.002671 0.000000 0.000000 0.000000
# 3 -0.003423 -0.002671 0.022973 0.000000 0.000000 0.000000
# 4 0.000000 0.000000 0.000000 0.060894 0.000000 0.000000
# 5 0.000000 0.000000 0.000000 0.000000 0.046156 0.000000
# 6 0.000000 0.000000 0.000000 0.000000 0.000000 0.046120
#
#
# Mechanical properties :
#
#
# Convention : Reuss Voigt Hill
#
# Bulk Modulus (GPa) = 35.25789 40.57522 37.91655
# Shear Modulus (GPa) = 22.45378 25.15485 23.80432
#
# Velocity S-wave (km/s) = 3.22813 3.41678 3.32380
# Velocity P-wave (km/s) = 5.50070 5.86489 5.68571
#
# Compressibility (1/GPa) = 0.02836245
#
# Stress axis : x y z
#
# Youngs Moduli (GPa) = 94.20469 94.15206 43.53007
#
# Poissons Ratio (x) = 0.17222 0.14899
# Poissons Ratio (y) = 0.17231 0.11628
# Poissons Ratio (z) = 0.32244 0.25151
#
# Static dielectric constant tensor:
#      x y z
#    x 1.782810 0.000000 0.000000 
#    y 0.000000 1.872320 0.000000 
#    z 0.000000 0.000000 1.834270 
# 
# From -- ./inp_files/8437.got.cif
#   From: 2010.05.17/outbox.cif.g08.bks.cpg/sg56_5_cif.got.tgz:8437.got - 2010.06.03 13:42:01.
