data_PCOD9431983
_publ_section_title
;
Structure prediction by ZEFSAII (Michael W. Deem and Ramdas Pophale) SiO2 
 PCOD9431983
Probable space group: P C C N
;
_chemical_formula_sum "Si O2"
_cell_formula_units_Z 56
_cell_length_a 19.794799
_cell_length_b 8.589659
_cell_length_c 15.087517
_cell_angle_alpha 90.000000
_cell_angle_beta 90.000000
_cell_angle_gamma 90.000000
_cell_volume 2565.339166
_symmetry_space_group_name_H-M "P C C N"
_symmetry_group_IT_number 56
_symmetry_cell_setting 'orthorhombic'
loop_
_space_group_symop_operation_xyz
x,y,z
1/2-x,1/2-y,z
1/2+x,-y,1/2-z
-x,1/2+y,1/2-z
-x,-y,-z
1/2+x,1/2+y,-z
1/2-x,y,1/2+z
x,1/2-y,1/2+z
loop_
_atom_site_type_symbol
_atom_site_label
_atom_site_fract_x
_atom_site_fract_y
_atom_site_fract_z
Si Si1 0.761188 0.567084 0.779786
Si Si2 0.055882 0.683362 0.056441
Si Si3 0.691220 0.378920 0.922276
Si Si4 0.947638 0.858123 0.172084
Si Si5 0.200789 0.101583 0.907900
Si Si6 0.900554 0.865905 0.370019
Si Si7 0.009673 0.373583 0.577759
O O1 0.750000 0.750000 0.767199
O O2 0.704099 0.477627 0.833086
O O3 0.772265 0.509547 0.679676
O O4 0.827286 0.571976 0.841990
O O5 0.120579 0.788982 0.079527
O O6 0.071232 0.503648 0.069675
O O7 0.996654 0.736567 0.123540
O O8 0.035597 0.731056 0.956678
O O9 0.750000 0.250000 0.926901
O O10 0.697005 0.491234 0.007222
O O11 0.874373 0.849294 0.124568
O O12 0.938176 0.839688 0.276433
O O13 0.979972 0.030168 0.158753
O O14 0.250000 0.250000 0.926058
O O15 0.915596 0.699032 0.415068
O O16 0.000000 0.500000 0.500000
#
# Coordination Sequence:
#
# PCOD9431983 Si02
#       7
#     8   8   8   8   8   8   8
#     4  10  24  41  68  96 129 177 230 278 329 405
#     4  11  23  41  64  96 132 170 221 271 336 396
#     4  12  24  43  66  97 136 181 219 278 345 397
#     4  10  22  42  67  94 128 169 218 278 331 395
#     4  10  23  46  67  98 130 175 231 278 335 403
#     4  11  22  42  63  94 133 168 220 271 334 398
#     4  10  22  38  63  91 126 166 209 268 320 390
#
# _framework density 21.829471000000002
#
# number of rings (size 3 to 8) (size 9 to 14) (size 15 to 20)
#    0.000    1.429    2.857    1.714    4.000    2.857 
#    5.143    0.000    0.000    0.000    0.000    0.000 
#    0.000    0.000    0.000    0.000    0.000    0.000 
#
# Total GULP energy -312717.328266 kJ/mol
# GULP energy per Si atom -5584.238005 kJ/mol
# Density = 2.177979 g / cm^3
# Si number density = 21.829471 Si / 1000 Ang^3
#
#
#
# Elastic Constant Matrix: (Units=GPa)
#
#
# Indices 1 2 3 4 5 6 
#
# 1 67.6762 20.5015 0.5692 0.0000 0.0000 0.0000
# 2 20.5015 83.6586 22.7808 0.0000 0.0000 0.0000
# 3 0.5692 22.7808 79.9866 0.0000 0.0000 0.0000
# 4 0.0000 0.0000 0.0000 -491.9942 0.0000 0.0000
# 5 0.0000 0.0000 0.0000 0.0000 30.4957 0.0000
# 6 0.0000 0.0000 0.0000 0.0000 0.0000 43.9747
#
#
#
# Elastic Compliance Matrix: (Units=1/GPa)
#
#
# Indices 1 2 3 4 5 6 
#
# 1 0.016048 -0.004230 0.001090 0.000000 0.000000 0.000000
# 2 -0.004230 0.014073 -0.003978 0.000000 0.000000 0.000000
# 3 0.001090 -0.003978 0.013627 0.000000 0.000000 0.000000
# 4 0.000000 0.000000 0.000000 -0.002033 0.000000 0.000000
# 5 0.000000 0.000000 0.000000 0.000000 0.032792 0.000000
# 6 0.000000 0.000000 0.000000 0.000000 0.000000 0.022740
#
#
# Mechanical properties :
#
#
# Convention : Reuss Voigt Hill
#
# Bulk Modulus (GPa) = 33.88206 35.44718 34.66462
# Shear Modulus (GPa) = 41.21295 -71.00678 -14.89691
#
# Velocity S-wave (km/s) = 4.34977 -5.70951 -2.61515
# Velocity P-wave (km/s) = 6.38610 5.21452 2.60682
#
# Compressibility (1/GPa) = 0.02951414
#
# Stress axis : x y z
#
# Youngs Moduli (GPa) = 62.31138 71.05721 73.38201
#
# Poissons Ratio (x) = 0.30056 -0.08002
# Poissons Ratio (y) = 0.26357 0.29192
# Poissons Ratio (z) = -0.06795 0.28267
#
# Static dielectric constant tensor:
#      x y z
#    x 1.871250 0.000000 0.000000 
#    y 0.000000 1.821230 0.000000 
#    z 0.000000 0.000000 1.858580 
# 
# From -- ./inp_files/13054.got.cif
#   From: 2010.05.17/outbox.cif.g08.bks.cpg/sg56_7_cif.got.tgz:13054.got - 2010.06.03 13:42:01.
