data_PCOD9431920
_publ_section_title
;
Structure prediction by ZEFSAII (Michael W. Deem and Ramdas Pophale) SiO2 
 PCOD9431920
Probable space group: P C C N
;
_chemical_formula_sum "Si O2"
_cell_formula_units_Z 60
_cell_length_a 18.091102
_cell_length_b 5.262493
_cell_length_c 30.081886
_cell_angle_alpha 90.000000
_cell_angle_beta 90.000000
_cell_angle_gamma 90.000000
_cell_volume 2863.924828
_symmetry_space_group_name_H-M "P C C N"
_symmetry_group_IT_number 56
_symmetry_cell_setting 'orthorhombic'
loop_
_space_group_symop_operation_xyz
x,y,z
1/2-x,1/2-y,z
1/2+x,-y,1/2-z
-x,1/2+y,1/2-z
-x,-y,-z
1/2+x,1/2+y,-z
1/2-x,y,1/2+z
x,1/2-y,1/2+z
loop_
_atom_site_type_symbol
_atom_site_label
_atom_site_fract_x
_atom_site_fract_y
_atom_site_fract_z
Si Si1 0.541329 0.130463 0.850967
Si Si2 0.832262 0.128809 0.787949
Si Si3 0.041619 0.942173 0.073009
Si Si4 0.667572 0.794722 0.016239
Si Si5 0.536295 0.104611 0.229050
Si Si6 0.424027 0.770733 0.479531
Si Si7 0.250000 0.250000 0.156754
Si Si8 0.350737 0.347206 0.586092
O O1 0.607167 0.227985 0.818555
O O2 0.506276 0.353241 0.880765
O O3 0.485285 0.975232 0.820614
O O4 0.580067 0.977343 0.890370
O O5 0.750000 0.250000 0.784347
O O6 0.877270 0.103617 0.742132
O O7 0.813448 0.865082 0.812616
O O8 0.122710 0.051326 0.085596
O O9 0.993801 0.164426 0.050641
O O10 0.048906 0.751407 0.030895
O O11 0.750000 0.750000 0.033290
O O12 0.625251 0.527560 0.020050
O O13 0.620440 0.025334 0.036395
O O14 0.672678 0.885364 0.964453
O O15 0.499214 0.878504 0.258993
O O16 0.212756 0.431618 0.120421
#
# Coordination Sequence:
#
# PCOD9431920 Si02
#       8
#     8   8   8   8   8   8   4   8
#     4  11  21  38  60  89 124 169 211 259 314 385
#     4  11  23  37  60  92 131 169 200 257 327 393
#     4  10  22  36  58  89 126 161 210 252 314 373
#     4  11  22  38  57  86 125 164 205 254 318 376
#     4  10  24  42  60  88 130 171 214 255 311 389
#     4  10  23  38  57  87 126 168 206 257 308 378
#     4  12  20  34  54  94 128 160 194 252 320 392
#     4  11  21  32  57  91 125 157 201 253 314 380
#
# _framework density 20.950271999999998
#
# number of rings (size 3 to 8) (size 9 to 14) (size 15 to 20)
#    0.000    1.333    4.667    1.200    5.600    1.600 
#    2.400    0.000    0.000    0.000    5.200    0.000 
#    0.000    0.000    0.000    0.000    0.000    0.000 
#
# Total GULP energy -334387.593159 kJ/mol
# GULP energy per Si atom -5573.126553 kJ/mol
# Density = 2.090259 g / cm^3
# Si number density = 20.950272 Si / 1000 Ang^3
#
#
#
# Elastic Constant Matrix: (Units=GPa)
#
#
# Indices 1 2 3 4 5 6 
#
# 1 101.2375 23.3285 36.2057 0.0000 0.0000 0.0000
# 2 23.3285 64.6832 8.3641 0.0000 0.0000 0.0000
# 3 36.2057 8.3641 60.9786 0.0000 0.0000 0.0000
# 4 0.0000 0.0000 0.0000 23.5988 0.0000 0.0000
# 5 0.0000 0.0000 0.0000 0.0000 26.2943 0.0000
# 6 0.0000 0.0000 0.0000 0.0000 0.0000 34.0587
#
#
#
# Elastic Compliance Matrix: (Units=1/GPa)
#
#
# Indices 1 2 3 4 5 6 
#
# 1 0.013435 -0.003883 -0.007444 0.000000 0.000000 0.000000
# 2 -0.003883 0.016861 -0.000007 0.000000 0.000000 0.000000
# 3 -0.007444 -0.000007 0.020820 0.000000 0.000000 0.000000
# 4 0.000000 0.000000 0.000000 0.042375 0.000000 0.000000
# 5 0.000000 0.000000 0.000000 0.000000 0.038031 0.000000
# 6 0.000000 0.000000 0.000000 0.000000 0.000000 0.029361
#
#
# Mechanical properties :
#
#
# Convention : Reuss Voigt Hill
#
# Bulk Modulus (GPa) = 35.15254 40.29953 37.72603
# Shear Modulus (GPa) = 25.90208 27.39042 26.64625
#
# Velocity S-wave (km/s) = 3.52001 3.61972 3.57021
# Velocity P-wave (km/s) = 5.77374 6.06197 5.91961
#
# Compressibility (1/GPa) = 0.02844745
#
# Stress axis : x y z
#
# Youngs Moduli (GPa) = 74.43365 59.30746 48.03027
#
# Poissons Ratio (x) = 0.23028 0.35755
# Poissons Ratio (y) = 0.28901 0.00036
# Poissons Ratio (z) = 0.55410 0.00044
#
# Static dielectric constant tensor:
#      x y z
#    x 1.832520 0.000000 0.000000 
#    y 0.000000 1.994860 0.000000 
#    z 0.000000 0.000000 1.743200 
# 
# From -- ./inp_files/23683.got.cif
#   From: 2010.05.17/outbox.cif.g08.bks.cpg/sg56_12_cif.got.tgz:23683.got - 2010.06.03 13:42:01.
