data_PCOD9431468
_publ_section_title
;
Structure prediction by ZEFSAII (Michael W. Deem and Ramdas Pophale) SiO2 
 PCOD9431468
Probable space group: P C C N
;
_chemical_formula_sum "Si O2"
_cell_formula_units_Z 60
_cell_length_a 17.649147
_cell_length_b 11.778650
_cell_length_c 15.080620
_cell_angle_alpha 90.000000
_cell_angle_beta 90.000000
_cell_angle_gamma 90.000000
_cell_volume 3135.006417
_symmetry_space_group_name_H-M "P C C N"
_symmetry_group_IT_number 56
_symmetry_cell_setting 'orthorhombic'
loop_
_space_group_symop_operation_xyz
x,y,z
1/2-x,1/2-y,z
1/2+x,-y,1/2-z
-x,1/2+y,1/2-z
-x,-y,-z
1/2+x,1/2+y,-z
1/2-x,y,1/2+z
x,1/2-y,1/2+z
loop_
_atom_site_type_symbol
_atom_site_label
_atom_site_fract_x
_atom_site_fract_y
_atom_site_fract_z
Si Si1 0.081049 0.242747 0.651083
Si Si2 0.810925 0.348248 0.756243
Si Si3 0.441967 0.506767 0.577624
Si Si4 0.222663 0.502752 0.075327
Si Si5 0.315345 0.848018 0.446744
Si Si6 0.525634 0.276215 0.318062
Si Si7 0.250000 0.250000 0.622094
Si Si8 0.012639 0.863543 0.002861
O O1 0.072078 0.110533 0.627373
O O2 0.169334 0.268947 0.669943
O O3 0.030202 0.264875 0.736258
O O4 0.048532 0.309648 0.565228
O O5 0.750000 0.250000 0.761602
O O6 0.786652 0.447325 0.824712
O O7 0.815633 0.390227 0.655062
O O8 0.887900 0.282481 0.783548
O O9 0.500000 0.500000 0.500000
O O10 0.359711 0.538672 0.538236
O O11 0.478129 0.598656 0.641526
O O12 0.235158 0.368044 0.071114
O O13 0.287795 0.562613 0.019947
O O14 0.250000 0.750000 0.451696
O O15 0.403376 0.824233 0.469568
O O16 0.508571 0.186978 0.397066
O O17 0.000000 0.000000 0.000000
#
# Coordination Sequence:
#
# PCOD9431468 Si02
#       8
#     8   8   8   8   8   8   4   8
#     4  11  24  43  64  92 127 169 223 263 326 396
#     4  10  21  38  65  99 127 161 209 266 332 384
#     4  10  21  41  66  88 123 173 218 262 320 391
#     4  10  21  40  63  88 131 169 211 262 319 383
#     4  11  22  40  66  99 132 165 214 273 331 391
#     4  11  23  41  65  93 129 169 212 271 325 387
#     4  10  24  46  60  86 132 178 212 262 314 396
#     4  12  25  40  66  99 133 170 216 276 335 388
#
# _framework density 19.138717
#
# number of rings (size 3 to 8) (size 9 to 14) (size 15 to 20)
#    0.000    1.333    2.667    3.600    1.867    1.067 
#    2.400    1.333    0.000    0.000    0.000    0.000 
#    0.000    0.000    0.000    0.000    0.000    0.000 
#
# Total GULP energy -334421.589356 kJ/mol
# GULP energy per Si atom -5573.693156 kJ/mol
# Density = 1.909516 g / cm^3
# Si number density = 19.138717 Si / 1000 Ang^3
#
#
#
# Elastic Constant Matrix: (Units=GPa)
#
#
# Indices 1 2 3 4 5 6 
#
# 1 106.5255 14.4115 62.0423 0.0000 0.0000 0.0000
# 2 14.4115 83.0381 20.9994 0.0000 0.0000 0.0000
# 3 62.0423 20.9994 94.6012 0.0000 0.0000 0.0000
# 4 0.0000 0.0000 0.0000 111.6090 0.0000 0.0000
# 5 0.0000 0.0000 0.0000 0.0000 23.1391 0.0000
# 6 0.0000 0.0000 0.0000 0.0000 0.0000 28.6889
#
#
#
# Elastic Compliance Matrix: (Units=1/GPa)
#
#
# Indices 1 2 3 4 5 6 
#
# 1 0.015190 -0.000124 -0.009935 0.000000 0.000000 0.000000
# 2 -0.000124 0.012760 -0.002751 0.000000 0.000000 0.000000
# 3 -0.009935 -0.002751 0.017697 0.000000 0.000000 0.000000
# 4 0.000000 0.000000 0.000000 0.008960 0.000000 0.000000
# 5 0.000000 0.000000 0.000000 0.000000 0.043217 0.000000
# 6 0.000000 0.000000 0.000000 0.000000 0.000000 0.034857
#
#
# Mechanical properties :
#
#
# Convention : Reuss Voigt Hill
#
# Bulk Modulus (GPa) = 49.93142 53.23013 51.58078
# Shear Modulus (GPa) = 30.30741 45.13484 37.72112
#
# Velocity S-wave (km/s) = 3.98372 4.86150 4.44434
# Velocity P-wave (km/s) = 6.87793 7.70620 7.30381
#
# Compressibility (1/GPa) = 0.02002747
#
# Stress axis : x y z
#
# Youngs Moduli (GPa) = 65.83110 78.37049 56.50698
#
# Poissons Ratio (x) = 0.00971 0.56139
# Poissons Ratio (y) = 0.00816 0.15546
# Poissons Ratio (z) = 0.65402 0.21561
#
# Static dielectric constant tensor:
#      x y z
#    x 1.780460 0.000000 0.000000 
#    y 0.000000 1.678250 0.000000 
#    z 0.000000 0.000000 1.631820 
# 
# From -- ./inp_files/12818.got.cif
#   From: 2010.05.17/outbox.cif.g08.bks.cpg/sg56_7_cif.got.tgz:12818.got - 2010.06.03 13:42:01.
