data_PCOD9431508
_publ_section_title
;
Structure prediction by ZEFSAII (Michael W. Deem and Ramdas Pophale) SiO2 
 PCOD9431508
Probable space group: P C C N
;
_chemical_formula_sum "Si O2"
_cell_formula_units_Z 56
_cell_length_a 15.892056
_cell_length_b 14.700823
_cell_length_c 9.408881
_cell_angle_alpha 90.000000
_cell_angle_beta 90.000000
_cell_angle_gamma 90.000000
_cell_volume 2198.162077
_symmetry_space_group_name_H-M "P C C N"
_symmetry_group_IT_number 56
_symmetry_cell_setting 'orthorhombic'
loop_
_space_group_symop_operation_xyz
x,y,z
1/2-x,1/2-y,z
1/2+x,-y,1/2-z
-x,1/2+y,1/2-z
-x,-y,-z
1/2+x,1/2+y,-z
1/2-x,y,1/2+z
x,1/2-y,1/2+z
loop_
_atom_site_type_symbol
_atom_site_label
_atom_site_fract_x
_atom_site_fract_y
_atom_site_fract_z
Si Si1 0.253127 0.846091 0.762415
Si Si2 0.248576 0.021962 0.068439
Si Si3 0.590325 0.531999 0.321450
Si Si4 0.936229 0.349686 0.112366
Si Si5 0.893828 0.400975 0.572683
Si Si6 0.495860 0.732830 0.115100
Si Si7 0.179086 0.179950 0.889972
O O1 0.250000 0.750000 0.676090
O O2 0.342218 0.859957 0.836226
O O3 0.176219 0.830844 0.870486
O O4 0.239232 0.946684 0.697006
O O5 0.349406 0.021054 0.039982
O O6 0.218882 0.124003 0.023307
O O7 0.167784 0.971832 0.003240
O O8 0.500604 0.569272 0.365961
O O9 0.569805 0.452518 0.208587
O O10 0.646120 0.607745 0.230523
O O11 0.978495 0.274191 0.218342
O O12 0.944353 0.314236 0.953637
O O13 0.957224 0.357413 0.460705
O O14 0.593753 0.734777 0.076761
O O15 0.250000 0.250000 0.838526
#
# Coordination Sequence:
#
# PCOD9431508 Si02
#       7
#     8   8   8   8   8   8   8
#     4  11  22  38  61  93 131 176 223 277 330 406
#     4  10  21  39  64  93 125 170 224 277 334 402
#     4   9  22  39  63  91 132 167 221 285 339 409
#     4  11  23  41  65  97 130 174 227 277 336 410
#     4  10  21  39  61  92 127 177 226 275 345 398
#     4  11  23  40  64  96 134 177 226 283 337 409
#     4  10  22  39  67  95 132 177 225 282 346 411
#
# _framework density 25.475829000000001
#
# number of rings (size 3 to 8) (size 9 to 14) (size 15 to 20)
#    0.000    1.714    2.857    0.857    2.000    6.286 
#    0.000    2.143    0.000    0.000    0.000    0.000 
#    0.000    0.000    0.000    0.000    0.000    0.000 
#
# Total GULP energy -312007.892457 kJ/mol
# GULP energy per Si atom -5571.569508 kJ/mol
# Density = 2.541784 g / cm^3
# Si number density = 25.475829 Si / 1000 Ang^3
#
#
#
# Elastic Constant Matrix: (Units=GPa)
#
#
# Indices 1 2 3 4 5 6 
#
# 1 150.0117 32.1827 9.8455 0.0000 0.0000 0.0000
# 2 32.1827 64.9903 14.5557 0.0000 0.0000 0.0000
# 3 9.8455 14.5557 54.7164 0.0000 0.0000 0.0000
# 4 0.0000 0.0000 0.0000 17.1712 0.0000 0.0000
# 5 0.0000 0.0000 0.0000 0.0000 21.7786 0.0000
# 6 0.0000 0.0000 0.0000 0.0000 0.0000 31.1126
#
#
#
# Elastic Compliance Matrix: (Units=1/GPa)
#
#
# Indices 1 2 3 4 5 6 
#
# 1 0.007466 -0.003611 -0.000383 0.000000 0.000000 0.000000
# 2 -0.003611 0.018109 -0.004167 0.000000 0.000000 0.000000
# 3 -0.000383 -0.004167 0.019454 0.000000 0.000000 0.000000
# 4 0.000000 0.000000 0.000000 0.058237 0.000000 0.000000
# 5 0.000000 0.000000 0.000000 0.000000 0.045917 0.000000
# 6 0.000000 0.000000 0.000000 0.000000 0.000000 0.032141
#
#
# Mechanical properties :
#
#
# Convention : Reuss Voigt Hill
#
# Bulk Modulus (GPa) = 34.83705 42.54292 38.68998
# Shear Modulus (GPa) = 24.12956 28.22145 26.17551
#
# Velocity S-wave (km/s) = 3.08093 3.33193 3.20889
# Velocity P-wave (km/s) = 5.13424 5.61587 5.38044
#
# Compressibility (1/GPa) = 0.02870507
#
# Stress axis : x y z
#
# Youngs Moduli (GPa) = 133.93982 55.22227 51.40451
#
# Poissons Ratio (x) = 0.19943 0.01967
# Poissons Ratio (y) = 0.48371 0.21423
# Poissons Ratio (z) = 0.05126 0.23014
#
# Static dielectric constant tensor:
#      x y z
#    x 2.061300 0.000000 0.000000 
#    y 0.000000 2.216200 0.000000 
#    z 0.000000 0.000000 2.089250 
# 
# From -- ./inp_files/7891.got.cif
#   From: 2010.05.17/outbox.cif.g08.bks.cpg/sg56_4_cif.got.tgz:7891.got - 2010.06.03 13:42:01.
