data_PCOD9431208
_publ_section_title
;
Structure prediction by ZEFSAII (Michael W. Deem and Ramdas Pophale) SiO2 
 PCOD9431208
Probable space group: P C C N
;
_chemical_formula_sum "Si O2"
_cell_formula_units_Z 56
_cell_length_a 20.780777
_cell_length_b 8.652908
_cell_length_c 14.683023
_cell_angle_alpha 90.000000
_cell_angle_beta 90.000000
_cell_angle_gamma 90.000000
_cell_volume 2640.215323
_symmetry_space_group_name_H-M "P C C N"
_symmetry_group_IT_number 56
_symmetry_cell_setting 'orthorhombic'
loop_
_space_group_symop_operation_xyz
x,y,z
1/2-x,1/2-y,z
1/2+x,-y,1/2-z
-x,1/2+y,1/2-z
-x,-y,-z
1/2+x,1/2+y,-z
1/2-x,y,1/2+z
x,1/2-y,1/2+z
loop_
_atom_site_type_symbol
_atom_site_label
_atom_site_fract_x
_atom_site_fract_y
_atom_site_fract_z
Si Si1 0.563824 0.848074 0.805850
Si Si2 0.750000 0.250000 0.792750
Si Si3 0.750000 0.750000 0.733111
Si Si4 0.572733 0.986248 0.204496
Si Si5 0.667150 0.990686 0.347498
Si Si6 0.661875 0.479003 0.181090
Si Si7 0.073761 0.452528 0.480381
Si Si8 0.435697 0.396771 0.485451
O O1 0.563034 0.679468 0.757129
O O2 0.611840 0.959299 0.754552
O O3 0.492987 0.919946 0.798586
O O4 0.585463 0.862572 0.911478
O O5 0.778706 0.119016 0.859459
O O6 0.797832 0.341148 0.724646
O O7 0.701246 0.656972 0.799822
O O8 0.788244 0.624542 0.672386
O O9 0.598791 0.975452 0.100907
O O10 0.623246 0.066434 0.269274
O O11 0.620312 0.959160 0.431618
O O12 0.615900 0.454790 0.093894
O O13 0.061204 0.277620 0.447087
O O14 0.000000 0.500000 0.500000
O O15 0.500000 0.500000 0.500000
#
# Coordination Sequence:
#
# PCOD9431208 Si02
#       8
#     8   4   4   8   8   8   8   8
#     4  11  22  38  64  95 133 176 217 279 346 399
#     4  10  28  44  66  90 128 192 228 282 324 398
#     4  10  20  44  66  86 124 184 228 266 324 406
#     4  11  22  38  64  95 133 176 217 279 346 399
#     4  11  23  43  65  93 131 173 229 276 337 401
#     4  11  23  43  65  93 131 173 229 276 337 401
#     4  12  24  40  68 103 134 171 217 285 348 411
#     4  10  22  36  58 100 132 168 216 259 334 414
#
# _framework density 21.210391999999999
#
# number of rings (size 3 to 8) (size 9 to 14) (size 15 to 20)
#    0.000    1.143    4.286    0.857    2.000    3.429 
#    0.000    5.714    0.000    0.000    0.000    0.000 
#    0.000    0.000    0.000    0.000    0.000    0.000 
#
# Total GULP energy -311765.846407 kJ/mol
# GULP energy per Si atom -5567.247257 kJ/mol
# Density = 2.116212 g / cm^3
# Si number density = 21.210392 Si / 1000 Ang^3
#
#
#
# Elastic Constant Matrix: (Units=GPa)
#
#
# Indices 1 2 3 4 5 6 
#
# 1 90.0316 26.0808 14.2133 0.0000 0.0000 0.0000
# 2 26.0808 67.7819 -0.9176 0.0000 0.0000 0.0000
# 3 14.2133 -0.9176 104.1205 0.0000 0.0000 0.0000
# 4 0.0000 0.0000 0.0000 1.3439 0.0000 0.0000
# 5 0.0000 0.0000 0.0000 0.0000 48.2311 0.0000
# 6 0.0000 0.0000 0.0000 0.0000 0.0000 34.5311
#
#
#
# Elastic Compliance Matrix: (Units=1/GPa)
#
#
# Indices 1 2 3 4 5 6 
#
# 1 0.012827 -0.004960 -0.001795 0.000000 0.000000 0.000000
# 2 -0.004960 0.016673 0.000824 0.000000 0.000000 0.000000
# 3 -0.001795 0.000824 0.009857 0.000000 0.000000 0.000000
# 4 0.000000 0.000000 0.000000 0.744099 0.000000 0.000000
# 5 0.000000 0.000000 0.000000 0.000000 0.020733 0.000000
# 6 0.000000 0.000000 0.000000 0.000000 0.000000 0.028959
#
#
# Mechanical properties :
#
#
# Convention : Reuss Voigt Hill
#
# Bulk Modulus (GPa) = 36.36983 37.85411 37.11197
# Shear Modulus (GPa) = 5.85360 31.65839 18.75600
#
# Velocity S-wave (km/s) = 1.66306 3.86759 2.97692
# Velocity P-wave (km/s) = 4.56860 6.15062 5.41766
#
# Compressibility (1/GPa) = 0.02749532
#
# Stress axis : x y z
#
# Youngs Moduli (GPa) = 77.95828 59.97791 101.45568
#
# Poissons Ratio (x) = 0.29749 0.18209
# Poissons Ratio (y) = 0.38667 -0.08360
# Poissons Ratio (z) = 0.13992 -0.04942
#
# Static dielectric constant tensor:
#      x y z
#    x 1.832850 0.000000 0.000000 
#    y 0.000000 2.336740 0.000000 
#    z 0.000000 0.000000 1.937880 
# 
# From -- ./inp_files/13101.got.cif
#   From: 2010.05.17/outbox.cif.g08.bks.cpg/sg56_7_cif.got.tgz:13101.got - 2010.06.03 13:42:01.
