data_PCOD9431094
_publ_section_title
;
Structure prediction by ZEFSAII (Michael W. Deem and Ramdas Pophale) SiO2 
 PCOD9431094
Probable space group: P C C N
;
_chemical_formula_sum "Si O2"
_cell_formula_units_Z 56
_cell_length_a 12.708055
_cell_length_b 13.833969
_cell_length_c 14.612803
_cell_angle_alpha 90.000000
_cell_angle_beta 90.000000
_cell_angle_gamma 90.000000
_cell_volume 2568.972252
_symmetry_space_group_name_H-M "P C C N"
_symmetry_group_IT_number 56
_symmetry_cell_setting 'orthorhombic'
loop_
_space_group_symop_operation_xyz
x,y,z
1/2-x,1/2-y,z
1/2+x,-y,1/2-z
-x,1/2+y,1/2-z
-x,-y,-z
1/2+x,1/2+y,-z
1/2-x,y,1/2+z
x,1/2-y,1/2+z
loop_
_atom_site_type_symbol
_atom_site_label
_atom_site_fract_x
_atom_site_fract_y
_atom_site_fract_z
Si Si1 0.194129 0.554483 0.439614
Si Si2 0.297660 0.148328 0.680420
Si Si3 0.791767 0.854820 0.596937
Si Si4 0.747844 0.062941 0.366390
Si Si5 0.009912 0.915872 0.635855
Si Si6 0.385628 0.609189 0.317709
Si Si7 0.972296 0.176493 0.170870
O O1 0.212046 0.439294 0.432562
O O2 0.178999 0.584053 0.544317
O O3 0.302900 0.594383 0.398779
O O4 0.107076 0.602254 0.375840
O O5 0.250000 0.250000 0.655303
O O6 0.295617 0.142474 0.791572
O O7 0.412480 0.151147 0.636421
O O8 0.242699 0.051690 0.648788
O O9 0.750000 0.750000 0.569221
O O10 0.913566 0.880268 0.571023
O O11 0.868336 0.088347 0.393134
O O12 0.685978 0.102594 0.276049
O O13 0.017195 0.845416 0.722163
O O14 0.969149 0.020672 0.673964
O O15 0.438654 0.712427 0.333437
#
# Coordination Sequence:
#
# PCOD9431094 Si02
#       7
#     8   8   8   8   8   8   8
#     4  11  24  40  66  97 138 170 221 277 337 407
#     4  10  20  40  69  97 126 174 229 269 336 404
#     4   9  19  40  66  98 132 174 222 274 324 400
#     4  12  23  42  67  97 132 172 224 278 342 403
#     4  10  21  41  70  93 124 179 221 271 340 387
#     4  11  23  45  64  92 134 173 222 277 334 409
#     4  11  21  41  67  93 129 176 217 277 341 385
#
# _framework density 21.798601000000001
#
# number of rings (size 3 to 8) (size 9 to 14) (size 15 to 20)
#    0.000    1.429    5.714    1.286    0.000    5.714 
#    5.143    1.429    3.143    0.000    0.000    0.000 
#    0.000    0.000    0.000    0.000    0.000    0.000 
#
# Total GULP energy -312347.175087 kJ/mol
# GULP energy per Si atom -5577.628127 kJ/mol
# Density = 2.174899 g / cm^3
# Si number density = 21.798601 Si / 1000 Ang^3
#
#
#
# Elastic Constant Matrix: (Units=GPa)
#
#
# Indices 1 2 3 4 5 6 
#
# 1 39.0412 24.0989 -26.2617 0.0000 0.0000 0.0000
# 2 24.0989 56.4990 4.2534 0.0000 0.0000 0.0000
# 3 -26.2617 4.2534 57.8474 0.0000 0.0000 0.0000
# 4 0.0000 0.0000 0.0000 28.9822 0.0000 0.0000
# 5 0.0000 0.0000 0.0000 0.0000 10.8781 0.0000
# 6 0.0000 0.0000 0.0000 0.0000 0.0000 19.1646
#
#
#
# Elastic Compliance Matrix: (Units=1/GPa)
#
#
# Indices 1 2 3 4 5 6 
#
# 1 0.066402 -0.030763 0.032407 0.000000 0.000000 0.000000
# 2 -0.030763 0.032050 -0.016322 0.000000 0.000000 0.000000
# 3 0.032407 -0.016322 0.033199 0.000000 0.000000 0.000000
# 4 0.000000 0.000000 0.000000 0.034504 0.000000 0.000000
# 5 0.000000 0.000000 0.000000 0.000000 0.091928 0.000000
# 6 0.000000 0.000000 0.000000 0.000000 0.000000 0.052179
#
#
# Mechanical properties :
#
#
# Convention : Reuss Voigt Hill
#
# Bulk Modulus (GPa) = 9.77555 17.50764 13.64159
# Shear Modulus (GPa) = 13.37912 21.89145 17.63529
#
# Velocity S-wave (km/s) = 2.48011 3.17244 2.84740
# Velocity P-wave (km/s) = 3.56307 4.63338 4.13302
#
# Compressibility (1/GPa) = 0.10229604
#
# Stress axis : x y z
#
# Youngs Moduli (GPa) = 15.05972 31.20154 30.12101
#
# Poissons Ratio (x) = 0.95985 -0.97614
# Poissons Ratio (y) = 0.46328 0.49164
# Poissons Ratio (z) = -0.48805 0.50928
#
# Static dielectric constant tensor:
#      x y z
#    x 1.807910 0.000000 0.000000 
#    y 0.000000 1.891910 0.000000 
#    z 0.000000 0.000000 1.824400 
# 
# From -- ./inp_files/11688.got.cif
#   From: 2010.05.17/outbox.cif.g08.bks.cpg/sg56_6_cif.got.tgz:11688.got - 2010.06.03 13:42:01.
