data_PCOD9431171
_publ_section_title
;
Structure prediction by ZEFSAII (Michael W. Deem and Ramdas Pophale) SiO2 
 PCOD9431171
Probable space group: P C C N
;
_chemical_formula_sum "Si O2"
_cell_formula_units_Z 40
_cell_length_a 18.286546
_cell_length_b 5.651993
_cell_length_c 19.103865
_cell_angle_alpha 90.000000
_cell_angle_beta 90.000000
_cell_angle_gamma 90.000000
_cell_volume 1974.488181
_symmetry_space_group_name_H-M "P C C N"
_symmetry_group_IT_number 56
_symmetry_cell_setting 'orthorhombic'
loop_
_space_group_symop_operation_xyz
x,y,z
1/2-x,1/2-y,z
1/2+x,-y,1/2-z
-x,1/2+y,1/2-z
-x,-y,-z
1/2+x,1/2+y,-z
1/2-x,y,1/2+z
x,1/2-y,1/2+z
loop_
_atom_site_type_symbol
_atom_site_label
_atom_site_fract_x
_atom_site_fract_y
_atom_site_fract_z
Si Si1 0.750000 0.750000 0.121058
Si Si2 0.250000 0.750000 0.464256
Si Si3 0.595593 0.602451 0.680981
Si Si4 0.398104 0.824361 0.042922
Si Si5 0.006463 0.713891 0.925259
Si Si6 0.451553 0.598886 0.180371
O O1 0.739791 0.497219 0.079472
O O2 0.825545 0.710407 0.163870
O O3 0.182049 0.805841 0.514165
O O4 0.564398 0.459429 0.614091
O O5 0.594866 0.441218 0.750145
O O6 0.530115 0.785884 0.697420
O O7 0.408302 0.750497 0.122902
O O8 0.438365 0.077014 0.040338
O O9 0.446280 0.672547 0.987619
O O10 0.973179 0.868596 0.863736
#
# Coordination Sequence:
#
# PCOD9431171 Si02
#       6
#     4   4   8   8   8   8
#     4  12  28  46  72 104 142 192 234 294 356 434
#     4  12  26  48  70 102 146 186 236 298 362 416
#     4  11  23  42  68 101 139 185 237 285 357 420
#     4  10  23  39  68  99 131 181 232 289 345 417
#     4  10  20  42  66  99 128 177 234 280 342 421
#     4  11  22  40  69  97 137 182 231 294 342 423
#
# _framework density 20.258413999999998
#
# number of rings (size 3 to 8) (size 9 to 14) (size 15 to 20)
#    0.000    1.200    4.000    1.800    2.800    0.000 
#    3.600    0.000    0.000    0.000    0.000    0.000 
#    0.000    0.000    0.000    0.000    0.000    0.000 
#
# Total GULP energy -223023.477905 kJ/mol
# GULP energy per Si atom -5575.586948 kJ/mol
# Density = 2.021230 g / cm^3
# Si number density = 20.258414 Si / 1000 Ang^3
#
#
#
# Elastic Constant Matrix: (Units=GPa)
#
#
# Indices 1 2 3 4 5 6 
#
# 1 108.7774 8.6647 31.1026 0.0000 0.0000 0.0000
# 2 8.6647 41.9205 11.6096 0.0000 0.0000 0.0000
# 3 31.1026 11.6096 115.1701 0.0000 0.0000 0.0000
# 4 0.0000 0.0000 0.0000 39.4759 0.0000 0.0000
# 5 0.0000 0.0000 0.0000 0.0000 18.2666 0.0000
# 6 0.0000 0.0000 0.0000 0.0000 0.0000 19.9979
#
#
#
# Elastic Compliance Matrix: (Units=1/GPa)
#
#
# Indices 1 2 3 4 5 6 
#
# 1 0.010037 -0.001362 -0.002573 0.000000 0.000000 0.000000
# 2 -0.001362 0.024725 -0.002125 0.000000 0.000000 0.000000
# 3 -0.002573 -0.002125 0.009592 0.000000 0.000000 0.000000
# 4 0.000000 0.000000 0.000000 0.025332 0.000000 0.000000
# 5 0.000000 0.000000 0.000000 0.000000 0.054745 0.000000
# 6 0.000000 0.000000 0.000000 0.000000 0.000000 0.050005
#
#
# Mechanical properties :
#
#
# Convention : Reuss Voigt Hill
#
# Bulk Modulus (GPa) = 31.02303 40.95797 35.99050
# Shear Modulus (GPa) = 25.34208 29.84748 27.59478
#
# Velocity S-wave (km/s) = 3.54070 3.84257 3.69472
# Velocity P-wave (km/s) = 5.66236 6.32051 6.00046
#
# Compressibility (1/GPa) = 0.03223412
#
# Stress axis : x y z
#
# Youngs Moduli (GPa) = 99.62762 40.44561 104.25431
#
# Poissons Ratio (x) = 0.05509 0.26829
# Poissons Ratio (y) = 0.13569 0.22149
# Poissons Ratio (z) = 0.25638 0.08593
#
# Static dielectric constant tensor:
#      x y z
#    x 1.682980 0.000000 0.000000 
#    y 0.000000 1.868910 0.000000 
#    z 0.000000 0.000000 1.759160 
# 
# From -- ./inp_files/13847.got.cif
#   From: 2010.05.17/outbox.cif.g08.bks.cpg/sg56_7_cif.got.tgz:13847.got - 2010.06.03 13:42:01.
