data_PCOD9431613
_publ_section_title
;
Structure prediction by ZEFSAII (Michael W. Deem and Ramdas Pophale) SiO2 
 PCOD9431613
Probable space group: P C C N
;
_chemical_formula_sum "Si O2"
_cell_formula_units_Z 60
_cell_length_a 5.451829
_cell_length_b 22.324159
_cell_length_c 21.710961
_cell_angle_alpha 90.000000
_cell_angle_beta 90.000000
_cell_angle_gamma 90.000000
_cell_volume 2642.386730
_symmetry_space_group_name_H-M "P C C N"
_symmetry_group_IT_number 56
_symmetry_cell_setting 'orthorhombic'
loop_
_space_group_symop_operation_xyz
x,y,z
1/2-x,1/2-y,z
1/2+x,-y,1/2-z
-x,1/2+y,1/2-z
-x,-y,-z
1/2+x,1/2+y,-z
1/2-x,y,1/2+z
x,1/2-y,1/2+z
loop_
_atom_site_type_symbol
_atom_site_label
_atom_site_fract_x
_atom_site_fract_y
_atom_site_fract_z
Si Si1 0.623431 0.312810 0.885018
Si Si2 0.750000 0.750000 0.321043
Si Si3 0.869839 0.880213 0.648412
Si Si4 0.265139 0.066847 0.601014
Si Si5 0.374539 0.658858 0.368196
Si Si6 0.075462 0.545919 0.052533
Si Si7 0.991435 0.869822 0.781191
Si Si8 0.911931 0.142120 0.014456
O O1 0.750000 0.250000 0.867957
O O2 0.369225 0.337070 0.854990
O O3 0.858959 0.354144 0.868768
O O4 0.546836 0.312887 0.957801
O O5 0.559012 0.713732 0.362643
O O6 0.631305 0.803749 0.282438
O O7 0.912907 0.900378 0.718318
O O8 0.854629 0.930612 0.595536
O O9 0.411879 0.090120 0.660583
O O10 0.372837 0.099665 0.540351
O O11 0.002368 0.097171 0.612086
O O12 0.251452 0.995896 0.594437
O O13 0.185474 0.672030 0.422947
O O14 0.268029 0.647085 0.299953
O O15 0.214363 0.598150 0.016643
O O16 0.000000 0.500000 0.000000
#
# Coordination Sequence:
#
# PCOD9431613 Si02
#       8
#     8   4   8   8   8   8   8   8
#     4  11  26  44  69 101 139 185 230 289 359 428
#     4  10  22  38  70  92 136 178 228 280 362 402
#     4  11  27  47  67 103 138 184 243 289 355 435
#     4  10  21  40  66  96 134 178 238 282 357 413
#     4  10  21  40  63 103 129 180 226 286 346 427
#     4  11  21  43  70  99 135 187 231 291 356 420
#     4  10  24  42  64  98 136 180 235 292 348 426
#     4  10  22  40  67 100 138 175 237 288 351 429
#
# _framework density 22.706745000000002
#
# number of rings (size 3 to 8) (size 9 to 14) (size 15 to 20)
#    0.000    1.600    1.333    2.000    7.467    4.267 
#    2.400    0.000    0.000    0.000    0.000    0.000 
#    0.000    0.000    0.000    0.000    0.000    0.000 
#
# Total GULP energy -334418.102737 kJ/mol
# GULP energy per Si atom -5573.635046 kJ/mol
# Density = 2.265506 g / cm^3
# Si number density = 22.706745 Si / 1000 Ang^3
#
#
#
# Elastic Constant Matrix: (Units=GPa)
#
#
# Indices 1 2 3 4 5 6 
#
# 1 92.3777 13.4678 41.1219 0.0000 0.0000 0.0000
# 2 13.4678 61.7797 19.4733 0.0000 0.0000 0.0000
# 3 41.1219 19.4733 111.4921 0.0000 0.0000 0.0000
# 4 0.0000 0.0000 0.0000 13.4020 0.0000 0.0000
# 5 0.0000 0.0000 0.0000 0.0000 13.8548 0.0000
# 6 0.0000 0.0000 0.0000 0.0000 0.0000 25.2385
#
#
#
# Elastic Compliance Matrix: (Units=1/GPa)
#
#
# Indices 1 2 3 4 5 6 
#
# 1 0.013066 -0.001407 -0.004573 0.000000 0.000000 0.000000
# 2 -0.001407 0.017281 -0.002499 0.000000 0.000000 0.000000
# 3 -0.004573 -0.002499 0.011093 0.000000 0.000000 0.000000
# 4 0.000000 0.000000 0.000000 0.074616 0.000000 0.000000
# 5 0.000000 0.000000 0.000000 0.000000 0.072177 0.000000
# 6 0.000000 0.000000 0.000000 0.000000 0.000000 0.039622
#
#
# Mechanical properties :
#
#
# Convention : Reuss Voigt Hill
#
# Bulk Modulus (GPa) = 40.84906 45.97503 43.41205
# Shear Modulus (GPa) = 19.76486 23.27151 21.51818
#
# Velocity S-wave (km/s) = 2.95352 3.20484 3.08174
# Velocity P-wave (km/s) = 5.44610 5.82974 5.64118
#
# Compressibility (1/GPa) = 0.02448037
#
# Stress axis : x y z
#
# Youngs Moduli (GPa) = 76.53393 57.86682 90.14979
#
# Poissons Ratio (x) = 0.08141 0.41230
# Poissons Ratio (y) = 0.10767 0.22532
# Poissons Ratio (z) = 0.35003 0.14464
#
# Static dielectric constant tensor:
#      x y z
#    x 1.976430 0.000000 0.000000 
#    y 0.000000 1.923810 0.000000 
#    z 0.000000 0.000000 1.900280 
# 
# From -- ./inp_files/17670.got.cif
#   From: 2010.05.17/outbox.cif.g08.bks.cpg/sg56_9_cif.got.tgz:17670.got - 2010.06.03 13:42:01.
