data_PCOD9431345
_publ_section_title
;
Structure prediction by ZEFSAII (Michael W. Deem and Ramdas Pophale) SiO2 
 PCOD9431345
Probable space group: P C C N
;
_chemical_formula_sum "Si O2"
_cell_formula_units_Z 32
_cell_length_a 7.821571
_cell_length_b 10.904164
_cell_length_c 16.877260
_cell_angle_alpha 90.000000
_cell_angle_beta 90.000000
_cell_angle_gamma 90.000000
_cell_volume 1439.422568
_symmetry_space_group_name_H-M "P C C N"
_symmetry_group_IT_number 56
_symmetry_cell_setting 'orthorhombic'
loop_
_space_group_symop_operation_xyz
x,y,z
1/2-x,1/2-y,z
1/2+x,-y,1/2-z
-x,1/2+y,1/2-z
-x,-y,-z
1/2+x,1/2+y,-z
1/2-x,y,1/2+z
x,1/2-y,1/2+z
loop_
_atom_site_type_symbol
_atom_site_label
_atom_site_fract_x
_atom_site_fract_y
_atom_site_fract_z
Si Si1 0.781931 0.120153 0.750243
Si Si2 0.345500 0.376581 0.673306
Si Si3 0.347266 0.624972 0.921507
Si Si4 0.273783 0.120188 0.503204
O O1 0.750000 0.250000 0.793556
O O2 0.656277 0.120581 0.673867
O O3 0.970872 0.119988 0.713885
O O4 0.751668 0.999382 0.800585
O O5 0.250000 0.250000 0.694981
O O6 0.353432 0.379531 0.578005
O O7 0.250000 0.750000 0.944769
O O8 0.536953 0.621734 0.957499
O O9 0.257531 0.501082 0.951831
O O10 0.250000 0.250000 0.459123
#
# Coordination Sequence:
#
# PCOD9431345 Si02
#       4
#     8   8   8   8
#     4  11  22  38  59  83 113 147 186 230 278 330
#     4  11  22  38  59  83 113 147 186 230 278 330
#     4  10  21  37  57  82 112 145 184 228 275 328
#     4  10  21  37  57  82 112 145 184 228 275 328
#
# _framework density 22.231138000000001
#
# number of rings (size 3 to 8) (size 9 to 14) (size 15 to 20)
#    0.000    1.500    0.000    9.000    0.000    6.000 
#    0.000    5.000    0.000    0.000    0.000    0.000 
#    0.000    0.000    0.000    0.000    0.000    0.000 
#
# Total GULP energy -178996.825461 kJ/mol
# GULP energy per Si atom -5593.650796 kJ/mol
# Density = 2.218054 g / cm^3
# Si number density = 22.231138 Si / 1000 Ang^3
#
#
#
# Elastic Constant Matrix: (Units=GPa)
#
#
# Indices 1 2 3 4 5 6 
#
# 1 59.1744 21.7070 -8.9296 0.0000 0.0000 0.0000
# 2 21.7070 248.2430 49.2887 0.0000 0.0000 0.0000
# 3 -8.9296 49.2887 18.3445 0.0000 0.0000 0.0000
# 4 0.0000 0.0000 0.0000 39.4004 0.0000 0.0000
# 5 0.0000 0.0000 0.0000 0.0000 19.9638 0.0000
# 6 0.0000 0.0000 0.0000 0.0000 0.0000 32.5434
#
#
#
# Elastic Compliance Matrix: (Units=1/GPa)
#
#
# Indices 1 2 3 4 5 6 
#
# 1 0.027178 -0.010724 0.042044 0.000000 0.000000 0.000000
# 2 -0.010724 0.012866 -0.039790 0.000000 0.000000 0.000000
# 3 0.042044 -0.039790 0.181887 0.000000 0.000000 0.000000
# 4 0.000000 0.000000 0.000000 0.025380 0.000000 0.000000
# 5 0.000000 0.000000 0.000000 0.000000 0.050091 0.000000
# 6 0.000000 0.000000 0.000000 0.000000 0.000000 0.030728
#
#
# Mechanical properties :
#
#
# Convention : Reuss Voigt Hill
#
# Bulk Modulus (GPa) = 4.87830 49.98822 27.43326
# Shear Modulus (GPa) = 12.09477 35.96125 24.02801
#
# Velocity S-wave (km/s) = 2.33501 4.02631 3.29116
# Velocity P-wave (km/s) = 3.07714 6.64450 5.17775
#
# Compressibility (1/GPa) = 0.20498959
#
# Stress axis : x y z
#
# Youngs Moduli (GPa) = 36.79488 77.72183 5.49792
#
# Poissons Ratio (x) = 0.83351 -0.23115
# Poissons Ratio (y) = 0.39460 0.21876
# Poissons Ratio (z) = -1.54699 3.09256
#
# Static dielectric constant tensor:
#      x y z
#    x 1.861530 0.000000 0.000000 
#    y 0.000000 1.850350 0.000000 
#    z 0.000000 0.000000 1.781510 
# 
# From -- ./inp_files/10161.got.cif
#   From: 2010.05.17/outbox.cif.g08.bks.cpg/sg56_6_cif.got.tgz:10161.got - 2010.06.03 13:42:01.
