data_PCOD9431529
_publ_section_title
;
Structure prediction by ZEFSAII (Michael W. Deem and Ramdas Pophale) SiO2 
 PCOD9431529
Probable space group: P C C N
;
_chemical_formula_sum "Si O2"
_cell_formula_units_Z 60
_cell_length_a 12.742083
_cell_length_b 8.699830
_cell_length_c 25.143999
_cell_angle_alpha 90.000000
_cell_angle_beta 90.000000
_cell_angle_gamma 90.000000
_cell_volume 2787.311757
_symmetry_space_group_name_H-M "P C C N"
_symmetry_group_IT_number 56
_symmetry_cell_setting 'orthorhombic'
loop_
_space_group_symop_operation_xyz
x,y,z
1/2-x,1/2-y,z
1/2+x,-y,1/2-z
-x,1/2+y,1/2-z
-x,-y,-z
1/2+x,1/2+y,-z
1/2-x,y,1/2+z
x,1/2-y,1/2+z
loop_
_atom_site_type_symbol
_atom_site_label
_atom_site_fract_x
_atom_site_fract_y
_atom_site_fract_z
Si Si1 0.434676 0.890180 0.460133
Si Si2 0.096420 0.157910 0.133360
Si Si3 0.059810 0.960502 0.240361
Si Si4 0.685744 0.510624 0.371419
Si Si5 0.369493 0.258294 0.788311
Si Si6 0.750000 0.250000 0.289286
Si Si7 0.049625 0.633498 0.035603
Si Si8 0.642861 0.822263 0.587197
O O1 0.511164 0.835180 0.412984
O O2 0.394308 0.750979 0.495364
O O3 0.500000 0.000000 0.500000
O O4 0.354817 0.002777 0.431664
O O5 0.129706 0.331808 0.146489
O O6 0.198076 0.066314 0.111993
O O7 0.064192 0.059946 0.185317
O O8 0.155160 0.836794 0.240847
O O9 0.949628 0.873148 0.240477
O O10 0.081224 0.088032 0.284857
O O11 0.698859 0.382323 0.326093
O O12 0.624509 0.436425 0.420150
O O13 0.250000 0.250000 0.766316
O O14 0.362417 0.311329 0.849192
O O15 0.956553 0.729964 0.064138
O O16 0.000000 0.500000 0.000000
O O17 0.750000 0.750000 0.567459
#
# Coordination Sequence:
#
# PCOD9431529 Si02
#       8
#     8   8   8   8   8   4   8   8
#     4  10  21  39  63  90 127 173 221 263 333 400
#     4  10  21  42  65  95 133 175 214 284 349 390
#     4  11  25  43  73 100 137 178 230 292 344 419
#     4  10  22  37  64  97 132 166 219 280 338 402
#     4  11  26  45  72 102 137 184 235 278 356 424
#     4  10  24  42  70 100 136 176 226 290 356 398
#     4  11  22  38  63  97 127 171 224 274 327 404
#     4  10  23  46  64  86 135 183 214 270 337 402
#
# _framework density 21.526115999999998
#
# number of rings (size 3 to 8) (size 9 to 14) (size 15 to 20)
#    0.000    1.600    2.667    0.800   11.200    3.200 
#    0.000    0.000    0.000    0.000    0.000    0.000 
#    0.000    0.000    0.000    0.000    0.000    0.000 
#
# Total GULP energy -335499.331114 kJ/mol
# GULP energy per Si atom -5591.655519 kJ/mol
# Density = 2.147712 g / cm^3
# Si number density = 21.526116 Si / 1000 Ang^3
#
#
#
# Elastic Constant Matrix: (Units=GPa)
#
#
# Indices 1 2 3 4 5 6 
#
# 1 108.7374 60.8332 33.4072 0.0000 0.0000 0.0000
# 2 60.8332 145.9167 25.8715 0.0000 0.0000 0.0000
# 3 33.4072 25.8715 57.6774 0.0000 0.0000 0.0000
# 4 0.0000 0.0000 0.0000 34.9795 0.0000 0.0000
# 5 0.0000 0.0000 0.0000 0.0000 2.4354 0.0000
# 6 0.0000 0.0000 0.0000 0.0000 0.0000 38.9103
#
#
#
# Elastic Compliance Matrix: (Units=1/GPa)
#
#
# Indices 1 2 3 4 5 6 
#
# 1 0.013562 -0.004629 -0.005779 0.000000 0.000000 0.000000
# 2 -0.004629 0.009026 -0.001367 0.000000 0.000000 0.000000
# 3 -0.005779 -0.001367 0.021298 0.000000 0.000000 0.000000
# 4 0.000000 0.000000 0.000000 0.028588 0.000000 0.000000
# 5 0.000000 0.000000 0.000000 0.000000 0.410606 0.000000
# 6 0.000000 0.000000 0.000000 0.000000 0.000000 0.025700
#
#
# Mechanical properties :
#
#
# Convention : Reuss Voigt Hill
#
# Bulk Modulus (GPa) = 49.17553 61.39502 55.28527
# Shear Modulus (GPa) = 9.27457 28.07969 18.67713
#
# Velocity S-wave (km/s) = 2.07795 3.61563 2.94879
# Velocity P-wave (km/s) = 5.35270 6.78332 6.11003
#
# Compressibility (1/GPa) = 0.02033532
#
# Stress axis : x y z
#
# Youngs Moduli (GPa) = 73.73716 110.79570 46.95277
#
# Poissons Ratio (x) = 0.51291 0.27132
# Poissons Ratio (y) = 0.34136 0.06419
# Poissons Ratio (z) = 0.42609 0.15147
#
# Static dielectric constant tensor:
#      x y z
#    x 1.773820 0.000000 0.000000 
#    y 0.000000 1.774240 0.000000 
#    z 0.000000 0.000000 1.751590 
# 
# From -- ./inp_files/22342.got.cif
#   From: 2010.05.17/outbox.cif.g08.bks.cpg/sg56_12_cif.got.tgz:22342.got - 2010.06.03 13:42:01.
