data_PCOD9431236
_publ_section_title
;
Structure prediction by ZEFSAII (Michael W. Deem and Ramdas Pophale) SiO2 
 PCOD9431236
Probable space group: P C C N
;
_chemical_formula_sum "Si O2"
_cell_formula_units_Z 56
_cell_length_a 13.635291
_cell_length_b 15.106998
_cell_length_c 12.873683
_cell_angle_alpha 90.000000
_cell_angle_beta 90.000000
_cell_angle_gamma 90.000000
_cell_volume 2651.828254
_symmetry_space_group_name_H-M "P C C N"
_symmetry_group_IT_number 56
_symmetry_cell_setting 'orthorhombic'
loop_
_space_group_symop_operation_xyz
x,y,z
1/2-x,1/2-y,z
1/2+x,-y,1/2-z
-x,1/2+y,1/2-z
-x,-y,-z
1/2+x,1/2+y,-z
1/2-x,y,1/2+z
x,1/2-y,1/2+z
loop_
_atom_site_type_symbol
_atom_site_label
_atom_site_fract_x
_atom_site_fract_y
_atom_site_fract_z
Si Si1 0.217181 0.087349 0.659228
Si Si2 0.750000 0.750000 0.995247
Si Si3 0.750000 0.250000 0.767100
Si Si4 0.758219 0.091152 0.432988
Si Si5 0.605966 0.181771 0.100692
Si Si6 0.024679 0.399468 0.268031
Si Si7 0.537357 0.697970 0.036211
Si Si8 0.086732 0.467647 0.609429
O O1 0.226558 0.165819 0.577193
O O2 0.139053 0.109652 0.745322
O O3 0.182672 0.995347 0.606331
O O4 0.329954 0.068707 0.688907
O O5 0.647642 0.734154 0.052361
O O6 0.746858 0.164247 0.842018
O O7 0.841265 0.241167 0.688139
O O8 0.810088 0.134682 0.531816
O O9 0.650851 0.045196 0.448200
O O10 0.538074 0.113682 0.164523
O O11 0.534586 0.238104 0.026613
O O12 0.995351 0.325275 0.351671
O O13 0.999564 0.490460 0.325014
O O14 0.553820 0.608503 0.968432
#
# Coordination Sequence:
#
# PCOD9431236 Si02
#       8
#     8   4   4   8   8   8   8   8
#     4   9  22  43  71  94 138 179 230 280 340 419
#     4  10  20  50  64 100 138 176 226 284 350 400
#     4  12  24  42  68 102 140 188 232 280 358 416
#     4  10  24  45  65 101 139 182 232 289 349 411
#     4  12  25  41  70 100 143 179 233 294 350 419
#     4  12  23  43  67 102 130 180 236 271 352 424
#     4  11  25  42  69 100 139 181 228 292 344 421
#     4   9  23  45  65  97 139 177 229 285 341 410
#
# _framework density 21.117505999999999
#
# number of rings (size 3 to 8) (size 9 to 14) (size 15 to 20)
#    0.857    0.571    2.857    1.714    4.000    3.429 
#    0.000    0.000    0.000    0.000    0.000    0.000 
#    0.000    0.000    0.000    0.000    0.000    0.000 
#
# Total GULP energy -312340.425392 kJ/mol
# GULP energy per Si atom -5577.507596 kJ/mol
# Density = 2.106944 g / cm^3
# Si number density = 21.117506 Si / 1000 Ang^3
#
#
#
# Elastic Constant Matrix: (Units=GPa)
#
#
# Indices 1 2 3 4 5 6 
#
# 1 73.3858 0.5994 19.3807 0.0000 0.0000 0.0000
# 2 0.5994 84.5261 20.3384 0.0000 0.0000 0.0000
# 3 19.3807 20.3384 66.6366 0.0000 0.0000 0.0000
# 4 0.0000 0.0000 0.0000 17.4351 0.0000 0.0000
# 5 0.0000 0.0000 0.0000 0.0000 34.8495 0.0000
# 6 0.0000 0.0000 0.0000 0.0000 0.0000 32.3308
#
#
#
# Elastic Compliance Matrix: (Units=1/GPa)
#
#
# Indices 1 2 3 4 5 6 
#
# 1 0.014839 0.001007 -0.004623 0.000000 0.000000 0.000000
# 2 0.001007 0.012837 -0.004211 0.000000 0.000000 0.000000
# 3 -0.004623 -0.004211 0.017637 0.000000 0.000000 0.000000
# 4 0.000000 0.000000 0.000000 0.057356 0.000000 0.000000
# 5 0.000000 0.000000 0.000000 0.000000 0.028695 0.000000
# 6 0.000000 0.000000 0.000000 0.000000 0.000000 0.030930
#
#
# Mechanical properties :
#
#
# Convention : Reuss Voigt Hill
#
# Bulk Modulus (GPa) = 33.71684 33.90950 33.81317
# Shear Modulus (GPa) = 26.61931 29.20509 27.91220
#
# Velocity S-wave (km/s) = 3.55425 3.72288 3.63954
# Velocity P-wave (km/s) = 5.73102 5.87981 5.80589
#
# Compressibility (1/GPa) = 0.02965877
#
# Stress axis : x y z
#
# Youngs Moduli (GPa) = 67.38831 77.90142 56.70013
#
# Poissons Ratio (x) = -0.07846 0.26214
# Poissons Ratio (y) = -0.06788 0.23876
# Poissons Ratio (z) = 0.31156 0.32803
#
# Static dielectric constant tensor:
#      x y z
#    x 1.536960 0.000000 0.000000 
#    y 0.000000 1.782380 0.000000 
#    z 0.000000 0.000000 1.728850 
# 
# From -- ./inp_files/7939.got.cif
#   From: 2010.05.17/outbox.cif.g08.bks.cpg/sg56_4_cif.got.tgz:7939.got - 2010.06.03 13:42:01.
