data_PCOD9431950
_publ_section_title
;
Structure prediction by ZEFSAII (Michael W. Deem and Ramdas Pophale) SiO2 
 PCOD9431950
Probable space group: P C C N
;
_chemical_formula_sum "Si O2"
_cell_formula_units_Z 44
_cell_length_a 15.040040
_cell_length_b 5.277984
_cell_length_c 25.813723
_cell_angle_alpha 90.000000
_cell_angle_beta 90.000000
_cell_angle_gamma 90.000000
_cell_volume 2049.121481
_symmetry_space_group_name_H-M "P C C N"
_symmetry_group_IT_number 56
_symmetry_cell_setting 'orthorhombic'
loop_
_space_group_symop_operation_xyz
x,y,z
1/2-x,1/2-y,z
1/2+x,-y,1/2-z
-x,1/2+y,1/2-z
-x,-y,-z
1/2+x,1/2+y,-z
1/2-x,y,1/2+z
x,1/2-y,1/2+z
loop_
_atom_site_type_symbol
_atom_site_label
_atom_site_fract_x
_atom_site_fract_y
_atom_site_fract_z
Si Si1 0.909027 0.636821 0.863384
Si Si2 0.883533 0.433936 0.547490
Si Si3 0.250000 0.750000 0.282101
Si Si4 0.750000 0.750000 0.285465
Si Si5 0.250000 0.250000 0.392982
Si Si6 0.427827 0.855858 0.568491
Si Si7 0.394008 0.895858 0.855072
O O1 0.832575 0.673208 0.821600
O O2 0.899101 0.392062 0.900208
O O3 0.005203 0.590483 0.836443
O O4 0.909229 0.892603 0.897878
O O5 0.792445 0.543767 0.569189
O O6 0.882169 0.366868 0.487509
O O7 0.903618 0.203572 0.586143
O O8 0.965825 0.629498 0.556568
O O9 0.268519 0.500825 0.248361
O O10 0.164842 0.710983 0.319492
O O11 0.330872 0.360363 0.359405
#
# Coordination Sequence:
#
# PCOD9431950 Si02
#       7
#     8   8   4   4   4   8   8
#     4  11  25  48  69  96 138 189 227 286 341 426
#     4  10  22  37  65 105 141 177 219 279 336 433
#     4  12  26  46  72 102 130 170 232 312 356 416
#     4  12  29  49  68  96 134 178 251 293 354 424
#     4  12  19  39  62 106 142 180 221 287 340 426
#     4  10  23  41  69  98 142 183 224 266 344 415
#     4  11  24  41  71 102 141 173 228 289 363 411
#
# _framework density 21.472618000000001
#
# number of rings (size 3 to 8) (size 9 to 14) (size 15 to 20)
#    0.000    1.091    3.636    1.636    2.545    4.364 
#    3.273    0.000    0.000    0.000    0.000    0.000 
#    0.000    0.000    0.000    0.000    0.000    0.000 
#
# Total GULP energy -245893.720485 kJ/mol
# GULP energy per Si atom -5588.493647 kJ/mol
# Density = 2.142375 g / cm^3
# Si number density = 21.472618 Si / 1000 Ang^3
#
#
#
# Elastic Constant Matrix: (Units=GPa)
#
#
# Indices 1 2 3 4 5 6 
#
# 1 129.7208 37.5392 61.9101 0.0000 0.0000 0.0000
# 2 37.5392 136.9889 53.6051 0.0000 0.0000 0.0000
# 3 61.9101 53.6051 116.2326 0.0000 0.0000 0.0000
# 4 0.0000 0.0000 0.0000 15.8822 0.0000 0.0000
# 5 0.0000 0.0000 0.0000 0.0000 -0.7103 0.0000
# 6 0.0000 0.0000 0.0000 0.0000 0.0000 20.3788
#
#
#
# Elastic Compliance Matrix: (Units=1/GPa)
#
#
# Indices 1 2 3 4 5 6 
#
# 1 0.010414 -0.000834 -0.005162 0.000000 0.000000 0.000000
# 2 -0.000834 0.008974 -0.003695 0.000000 0.000000 0.000000
# 3 -0.005162 -0.003695 0.013057 0.000000 0.000000 0.000000
# 4 0.000000 0.000000 0.000000 0.062964 0.000000 0.000000
# 5 0.000000 0.000000 0.000000 0.000000 -1.407848 0.000000
# 6 0.000000 0.000000 0.000000 0.000000 0.000000 0.049071
#
#
# Mechanical properties :
#
#
# Convention : Reuss Voigt Hill
#
# Bulk Modulus (GPa) = 76.54866 76.56123 76.55495
# Shear Modulus (GPa) = -4.03345 22.43598 9.20126
#
# Velocity S-wave (km/s) = -1.37204 3.23594 2.07230
# Velocity P-wave (km/s) = 5.76340 7.04943 6.43861
#
# Compressibility (1/GPa) = 0.01306359
#
# Stress axis : x y z
#
# Youngs Moduli (GPa) = 96.02565 111.43198 76.58671
#
# Poissons Ratio (x) = 0.09289 0.39537
# Poissons Ratio (y) = 0.08005 0.28297
# Poissons Ratio (z) = 0.49572 0.41171
#
# Static dielectric constant tensor:
#      x y z
#    x 1.822520 0.000000 0.000000 
#    y 0.000000 1.830540 0.000000 
#    z 0.000000 0.000000 1.757150 
# 
# From -- ./inp_files/22405.got.cif
#   From: 2010.05.17/outbox.cif.g08.bks.cpg/sg56_12_cif.got.tgz:22405.got - 2010.06.03 13:42:01.
