data_PCOD9431747
_publ_section_title
;
Structure prediction by ZEFSAII (Michael W. Deem and Ramdas Pophale) SiO2 
 PCOD9431747
Probable space group: P C C N
;
_chemical_formula_sum "Si O2"
_cell_formula_units_Z 40
_cell_length_a 12.648473
_cell_length_b 5.237348
_cell_length_c 25.945784
_cell_angle_alpha 90.000000
_cell_angle_beta 90.000000
_cell_angle_gamma 90.000000
_cell_volume 1718.764315
_symmetry_space_group_name_H-M "P C C N"
_symmetry_group_IT_number 56
_symmetry_cell_setting 'orthorhombic'
loop_
_space_group_symop_operation_xyz
x,y,z
1/2-x,1/2-y,z
1/2+x,-y,1/2-z
-x,1/2+y,1/2-z
-x,-y,-z
1/2+x,1/2+y,-z
1/2-x,y,1/2+z
x,1/2-y,1/2+z
loop_
_atom_site_type_symbol
_atom_site_label
_atom_site_fract_x
_atom_site_fract_y
_atom_site_fract_z
Si Si1 0.531726 0.902855 0.933794
Si Si2 0.716636 0.489081 0.577747
Si Si3 0.375252 0.279608 0.786402
Si Si4 0.348966 0.606428 0.028277
Si Si5 0.002662 0.715164 0.819174
O O1 0.589786 0.653382 0.957457
O O2 0.552853 0.847714 0.873376
O O3 0.404839 0.941810 0.934735
O O4 0.569603 0.163512 0.960963
O O5 0.750000 0.750000 0.602615
O O6 0.791678 0.473197 0.526061
O O7 0.750000 0.250000 0.611410
O O8 0.250000 0.250000 0.784364
O O9 0.431283 0.520118 0.815343
O O10 0.420273 0.288775 0.727910
O O11 0.419773 0.021579 0.810889
O O12 0.250000 0.750000 0.056942
#
# Coordination Sequence:
#
# PCOD9431747 Si02
#       5
#     8   8   8   8   8
#     4  12  25  44  66  94 136 168 218 284 309 382
#     4  11  25  42  64  92 124 172 223 266 330 381
#     4  10  21  41  68  94 133 170 203 262 325 392
#     4  11  25  42  64  92 124 173 221 265 331 380
#     4  10  23  41  64 100 129 168 216 255 328 387
#
# _framework density 23.272532999999999
#
# number of rings (size 3 to 8) (size 9 to 14) (size 15 to 20)
#    0.000    1.200    0.000    6.000    0.000   15.200 
#    0.000    0.000    0.000    0.000    0.000    0.000 
#    0.000    0.000    0.000    0.000    0.000    0.000 
#
# Total GULP energy -223073.082674 kJ/mol
# GULP energy per Si atom -5576.827067 kJ/mol
# Density = 2.321956 g / cm^3
# Si number density = 23.272533 Si / 1000 Ang^3
#
#
#
# Elastic Constant Matrix: (Units=GPa)
#
#
# Indices 1 2 3 4 5 6 
#
# 1 140.7453 60.3438 17.4805 0.0000 0.0000 0.0000
# 2 60.3438 204.0622 27.8008 0.0000 0.0000 0.0000
# 3 17.4805 27.8008 106.3213 0.0000 0.0000 0.0000
# 4 0.0000 0.0000 0.0000 15.1832 0.0000 0.0000
# 5 0.0000 0.0000 0.0000 0.0000 22.5288 0.0000
# 6 0.0000 0.0000 0.0000 0.0000 0.0000 52.4389
#
#
#
# Elastic Compliance Matrix: (Units=1/GPa)
#
#
# Indices 1 2 3 4 5 6 
#
# 1 0.008192 -0.002322 -0.000740 0.000000 0.000000 0.000000
# 2 -0.002322 0.005740 -0.001119 0.000000 0.000000 0.000000
# 3 -0.000740 -0.001119 0.009820 0.000000 0.000000 0.000000
# 4 0.000000 0.000000 0.000000 0.065862 0.000000 0.000000
# 5 0.000000 0.000000 0.000000 0.000000 0.044388 0.000000
# 6 0.000000 0.000000 0.000000 0.000000 0.000000 0.019070
#
#
# Mechanical properties :
#
#
# Convention : Reuss Voigt Hill
#
# Bulk Modulus (GPa) = 64.97612 73.59766 69.28689
# Shear Modulus (GPa) = 30.01876 41.06376 35.54126
#
# Velocity S-wave (km/s) = 3.59539 4.20512 3.91215
# Velocity P-wave (km/s) = 6.72428 7.43440 7.08824
#
# Compressibility (1/GPa) = 0.01539027
#
# Stress axis : x y z
#
# Youngs Moduli (GPa) = 122.06465 174.23108 101.83622
#
# Poissons Ratio (x) = 0.40453 0.07534
# Poissons Ratio (y) = 0.28341 0.11396
# Poissons Ratio (z) = 0.09031 0.19497
#
# Static dielectric constant tensor:
#      x y z
#    x 1.947900 0.000000 0.000000 
#    y 0.000000 1.970730 0.000000 
#    z 0.000000 0.000000 1.979000 
# 
# From -- ./inp_files/23441.got.cif
#   From: 2010.05.17/outbox.cif.g08.bks.cpg/sg56_12_cif.got.tgz:23441.got - 2010.06.03 13:42:01.
