data_PCOD9431768
_publ_section_title
;
Structure prediction by ZEFSAII (Michael W. Deem and Ramdas Pophale) SiO2 
 PCOD9431768
Probable space group: P C C N
;
_chemical_formula_sum "Si O2"
_cell_formula_units_Z 36
_cell_length_a 9.473541
_cell_length_b 9.625940
_cell_length_c 18.445230
_cell_angle_alpha 90.000000
_cell_angle_beta 90.000000
_cell_angle_gamma 90.000000
_cell_volume 1682.052568
_symmetry_space_group_name_H-M "P C C N"
_symmetry_group_IT_number 56
_symmetry_cell_setting 'orthorhombic'
loop_
_space_group_symop_operation_xyz
x,y,z
1/2-x,1/2-y,z
1/2+x,-y,1/2-z
-x,1/2+y,1/2-z
-x,-y,-z
1/2+x,1/2+y,-z
1/2-x,y,1/2+z
x,1/2-y,1/2+z
loop_
_atom_site_type_symbol
_atom_site_label
_atom_site_fract_x
_atom_site_fract_y
_atom_site_fract_z
Si Si1 0.941453 0.766524 0.100365
Si Si2 0.680858 0.391729 0.708250
Si Si3 0.645154 0.855234 0.762583
Si Si4 0.759437 0.993017 0.553052
Si Si5 0.750000 0.250000 0.943746
O O1 0.888213 0.788266 0.182876
O O2 0.880656 0.897381 0.055250
O O3 0.880075 0.626154 0.063589
O O4 0.107895 0.764777 0.100883
O O5 0.750000 0.250000 0.733298
O O6 0.755832 0.511728 0.753759
O O7 0.510600 0.389160 0.708354
O O8 0.732286 0.420204 0.626862
O O9 0.750000 0.750000 0.803996
O O10 0.766253 0.107788 0.490767
#
# Coordination Sequence:
#
# PCOD9431768 Si02
#       5
#     8   8   8   8   4
#     4  10  22  40  61  85 122 158 192 244 302 346
#     4  11  22  37  64  88 119 156 196 245 300 351
#     4  11  22  41  62  86 123 156 195 246 303 361
#     4  10  21  42  58  84 123 155 191 248 298 339
#     4  12  22  36  66  88 110 160 210 238 282 358
#
# _framework density 21.402422000000001
#
# number of rings (size 3 to 8) (size 9 to 14) (size 15 to 20)
#    0.000    1.333    5.556    2.667    1.556    0.000 
#    0.000    0.000    4.889    0.000    0.000    0.000 
#    0.000    0.000    0.000    0.000    0.000    0.000 
#
# Total GULP energy -200936.731293 kJ/mol
# GULP energy per Si atom -5581.575869 kJ/mol
# Density = 2.135371 g / cm^3
# Si number density = 21.402422 Si / 1000 Ang^3
#
#
#
# Elastic Constant Matrix: (Units=GPa)
#
#
# Indices 1 2 3 4 5 6 
#
# 1 170.3894 56.9760 -6.4045 0.0000 0.0000 0.0000
# 2 56.9760 139.5046 14.0803 0.0000 0.0000 0.0000
# 3 -6.4045 14.0803 14.1634 0.0000 0.0000 0.0000
# 4 0.0000 0.0000 0.0000 -3.1037 0.0000 0.0000
# 5 0.0000 0.0000 0.0000 0.0000 16.9156 0.0000
# 6 0.0000 0.0000 0.0000 0.0000 0.0000 29.7086
#
#
#
# Elastic Compliance Matrix: (Units=1/GPa)
#
#
# Indices 1 2 3 4 5 6 
#
# 1 0.007379 -0.003724 0.007039 0.000000 0.000000 0.000000
# 2 -0.003724 0.009847 -0.011473 0.000000 0.000000 0.000000
# 3 0.007039 -0.011473 0.085194 0.000000 0.000000 0.000000
# 4 0.000000 0.000000 0.000000 -0.322197 0.000000 0.000000
# 5 0.000000 0.000000 0.000000 0.000000 0.059117 0.000000
# 6 0.000000 0.000000 0.000000 0.000000 0.000000 0.033660
#
#
# Mechanical properties :
#
#
# Convention : Reuss Voigt Hill
#
# Bulk Modulus (GPa) = 11.61408 50.37343 30.99376
# Shear Modulus (GPa) = -60.98877 25.99780 -17.49548
#
# Velocity S-wave (km/s) = -5.34397 3.48905 -2.86222
# Velocity P-wave (km/s) = 5.71306 6.31021 1.89468
#
# Compressibility (1/GPa) = 0.08610237
#
# Stress axis : x y z
#
# Youngs Moduli (GPa) = 135.52423 101.55161 11.73795
#
# Poissons Ratio (x) = 0.37818 -0.08262
# Poissons Ratio (y) = 0.50470 0.13467
# Poissons Ratio (z) = -0.95393 1.16515
#
# Static dielectric constant tensor:
#      x y z
#    x 1.723180 0.000000 0.000000 
#    y 0.000000 1.873660 0.000000 
#    z 0.000000 0.000000 1.770830 
# 
# From -- ./inp_files/17855.got.cif
#   From: 2010.05.17/outbox.cif.g08.bks.cpg/sg56_9_cif.got.tgz:17855.got - 2010.06.03 13:42:01.
