data_PCOD9431169
_publ_section_title
;
Structure prediction by ZEFSAII (Michael W. Deem and Ramdas Pophale) SiO2 
 PCOD9431169
Probable space group: P C C N
;
_chemical_formula_sum "Si O2"
_cell_formula_units_Z 48
_cell_length_a 11.942978
_cell_length_b 9.113176
_cell_length_c 23.991285
_cell_angle_alpha 90.000000
_cell_angle_beta 90.000000
_cell_angle_gamma 90.000000
_cell_volume 2611.174524
_symmetry_space_group_name_H-M "P C C N"
_symmetry_group_IT_number 56
_symmetry_cell_setting 'orthorhombic'
loop_
_space_group_symop_operation_xyz
x,y,z
1/2-x,1/2-y,z
1/2+x,-y,1/2-z
-x,1/2+y,1/2-z
-x,-y,-z
1/2+x,1/2+y,-z
1/2-x,y,1/2+z
x,1/2-y,1/2+z
loop_
_atom_site_type_symbol
_atom_site_label
_atom_site_fract_x
_atom_site_fract_y
_atom_site_fract_z
Si Si1 0.371220 0.767286 0.906525
Si Si2 0.750000 0.250000 0.779989
Si Si3 0.138365 0.102063 0.384900
Si Si4 0.032596 0.648809 0.653801
Si Si5 0.750000 0.750000 0.009767
Si Si6 0.169268 0.525260 0.311178
Si Si7 0.563195 0.574663 0.949159
O O1 0.250000 0.750000 0.937415
O O2 0.352915 0.657169 0.854792
O O3 0.480932 0.708674 0.935669
O O4 0.394972 0.932670 0.889440
O O5 0.643278 0.295104 0.816352
O O6 0.782055 0.391541 0.742116
O O7 0.177422 0.155768 0.445972
O O8 0.041961 0.213043 0.366253
O O9 0.243555 0.085139 0.341896
O O10 0.063431 0.539555 0.602438
O O11 0.948508 0.558526 0.694539
O O12 0.679086 0.640230 0.971306
O O13 0.500000 0.500000 0.000000
#
# Coordination Sequence:
#
# PCOD9431169 Si02
#       7
#     8   4   8   8   4   8   8
#     4   9  19  36  65  90 123 163 221 263 314 398
#     4  12  26  40  66 102 130 170 214 280 334 386
#     4  11  19  41  68  96 117 175 224 260 317 413
#     4  11  25  42  65  95 137 161 225 277 319 402
#     4  12  22  38  72  88 132 178 224 256 344 386
#     4  10  20  42  66  91 126 177 215 266 329 398
#     4  11  22  43  61  92 130 174 215 276 324 383
#
# _framework density 18.382532000000001
#
# number of rings (size 3 to 8) (size 9 to 14) (size 15 to 20)
#    0.000    1.333    5.833    2.000    2.333    2.000 
#    4.500    1.667    0.000    0.000    0.000    0.000 
#    0.000    0.000    0.000    0.000    0.000    0.000 
#
# Total GULP energy -267548.738514 kJ/mol
# GULP energy per Si atom -5573.932052 kJ/mol
# Density = 1.834069 g / cm^3
# Si number density = 18.382532 Si / 1000 Ang^3
#
#
#
# Elastic Constant Matrix: (Units=GPa)
#
#
# Indices 1 2 3 4 5 6 
#
# 1 143.7460 71.7770 70.4467 0.0000 0.0000 0.0000
# 2 71.7770 137.2156 42.6572 0.0000 0.0000 0.0000
# 3 70.4467 42.6572 79.4715 0.0000 0.0000 0.0000
# 4 0.0000 0.0000 0.0000 4.3467 0.0000 0.0000
# 5 0.0000 0.0000 0.0000 0.0000 34.6148 0.0000
# 6 0.0000 0.0000 0.0000 0.0000 0.0000 42.1045
#
#
#
# Elastic Compliance Matrix: (Units=1/GPa)
#
#
# Indices 1 2 3 4 5 6 
#
# 1 0.014043 -0.004172 -0.010209 0.000000 0.000000 0.000000
# 2 -0.004172 0.009987 -0.001662 0.000000 0.000000 0.000000
# 3 -0.010209 -0.001662 0.022525 0.000000 0.000000 0.000000
# 4 0.000000 0.000000 0.000000 0.230061 0.000000 0.000000
# 5 0.000000 0.000000 0.000000 0.000000 0.028889 0.000000
# 6 0.000000 0.000000 0.000000 0.000000 0.000000 0.023750
#
#
# Mechanical properties :
#
#
# Convention : Reuss Voigt Hill
#
# Bulk Modulus (GPa) = 69.11624 81.13277 75.12451
# Shear Modulus (GPa) = 13.65503 27.91668 20.78585
#
# Velocity S-wave (km/s) = 2.72844 3.90122 3.36629
# Velocity P-wave (km/s) = 6.89974 8.03270 7.48768
#
# Compressibility (1/GPa) = 0.01446838
#
# Stress axis : x y z
#
# Youngs Moduli (GPa) = 71.20867 100.12985 44.39515
#
# Poissons Ratio (x) = 0.41776 0.45323
# Poissons Ratio (y) = 0.29710 0.07379
# Poissons Ratio (z) = 0.72697 0.16644
#
# Static dielectric constant tensor:
#      x y z
#    x 1.666310 0.000000 0.000000 
#    y 0.000000 1.681270 0.000000 
#    z 0.000000 0.000000 1.656310 
# 
# From -- ./inp_files/20934.got.cif
#   From: 2010.05.17/outbox.cif.g08.bks.cpg/sg56_11_cif.got.tgz:20934.got - 2010.06.03 13:42:01.
