data_PCOD9431748
_publ_section_title
;
Structure prediction by ZEFSAII (Michael W. Deem and Ramdas Pophale) SiO2 
 PCOD9431748
Probable space group: P C C N
;
_chemical_formula_sum "Si O2"
_cell_formula_units_Z 40
_cell_length_a 11.822556
_cell_length_b 9.153485
_cell_length_c 14.139562
_cell_angle_alpha 90.000000
_cell_angle_beta 90.000000
_cell_angle_gamma 90.000000
_cell_volume 1530.149309
_symmetry_space_group_name_H-M "P C C N"
_symmetry_group_IT_number 56
_symmetry_cell_setting 'orthorhombic'
loop_
_space_group_symop_operation_xyz
x,y,z
1/2-x,1/2-y,z
1/2+x,-y,1/2-z
-x,1/2+y,1/2-z
-x,-y,-z
1/2+x,1/2+y,-z
1/2-x,y,1/2+z
x,1/2-y,1/2+z
loop_
_atom_site_type_symbol
_atom_site_label
_atom_site_fract_x
_atom_site_fract_y
_atom_site_fract_z
Si Si1 0.589469 0.312096 0.475627
Si Si2 0.134807 0.013452 0.008351
Si Si3 0.622657 0.221693 0.764176
Si Si4 0.579269 0.945873 0.292841
Si Si5 0.647100 0.897628 0.084779
O O1 0.654547 0.161539 0.494141
O O2 0.623595 0.355238 0.367528
O O3 0.451411 0.302844 0.466754
O O4 0.612134 0.438070 0.550860
O O5 0.153745 0.073674 0.114428
O O6 0.220690 0.099619 0.941589
O O7 0.000000 0.000000 0.000000
O O8 0.750000 0.250000 0.732076
O O9 0.567353 0.380143 0.780125
O O10 0.543559 0.127406 0.696944
O O11 0.631314 0.883480 0.196727
#
# Coordination Sequence:
#
# PCOD9431748 Si02
#       5
#     8   8   8   8   8
#     4   9  20  41  65  94 128 174 233 279 340 412
#     4  11  24  40  64 102 143 171 228 287 345 415
#     4  10  21  41  70  99 144 180 235 294 351 421
#     4  10  24  41  69 107 133 186 240 281 354 431
#     4  10  21  41  68  95 132 182 227 287 349 412
#
# _framework density 26.141238999999999
#
# number of rings (size 3 to 8) (size 9 to 14) (size 15 to 20)
#    0.000    2.000    0.000    3.000    5.600    0.800 
#    0.000    1.000    8.800    0.000    0.000    0.000 
#    0.000    0.000    0.000    0.000    0.000    0.000 
#
# Total GULP energy -223831.638297 kJ/mol
# GULP energy per Si atom -5595.790957 kJ/mol
# Density = 2.608174 g / cm^3
# Si number density = 26.141239 Si / 1000 Ang^3
#
#
#
# Elastic Constant Matrix: (Units=GPa)
#
#
# Indices 1 2 3 4 5 6 
#
# 1 195.1523 46.7892 31.1263 0.0000 0.0000 0.0000
# 2 46.7892 58.6399 2.9907 0.0000 0.0000 0.0000
# 3 31.1263 2.9907 106.9970 0.0000 0.0000 0.0000
# 4 0.0000 0.0000 0.0000 27.1974 0.0000 0.0000
# 5 0.0000 0.0000 0.0000 0.0000 23.3885 0.0000
# 6 0.0000 0.0000 0.0000 0.0000 0.0000 64.1542
#
#
#
# Elastic Compliance Matrix: (Units=1/GPa)
#
#
# Indices 1 2 3 4 5 6 
#
# 1 0.006663 -0.005225 -0.001792 0.000000 0.000000 0.000000
# 2 -0.005225 0.021175 0.000928 0.000000 0.000000 0.000000
# 3 -0.001792 0.000928 0.009841 0.000000 0.000000 0.000000
# 4 0.000000 0.000000 0.000000 0.036768 0.000000 0.000000
# 5 0.000000 0.000000 0.000000 0.000000 0.042756 0.000000
# 6 0.000000 0.000000 0.000000 0.000000 0.000000 0.015587
#
#
# Mechanical properties :
#
#
# Convention : Reuss Voigt Hill
#
# Bulk Modulus (GPa) = 39.21394 58.06684 48.64039
# Shear Modulus (GPa) = 32.57984 41.60689 37.09337
#
# Velocity S-wave (km/s) = 3.53413 3.99384 3.77099
# Velocity P-wave (km/s) = 5.62910 6.59762 6.13251
#
# Compressibility (1/GPa) = 0.02550113
#
# Stress axis : x y z
#
# Youngs Moduli (GPa) = 150.08812 47.22589 101.61070
#
# Poissons Ratio (x) = 0.24675 0.18211
# Poissons Ratio (y) = 0.78419 -0.09430
# Poissons Ratio (z) = 0.26899 -0.04383
#
# Static dielectric constant tensor:
#      x y z
#    x 2.133770 0.000000 0.000000 
#    y 0.000000 2.106240 0.000000 
#    z 0.000000 0.000000 2.055890 
# 
# From -- ./inp_files/11441.got.cif
#   From: 2010.05.17/outbox.cif.g08.bks.cpg/sg56_6_cif.got.tgz:11441.got - 2010.06.03 13:42:01.
