data_PCOD9431751
_publ_section_title
;
Structure prediction by ZEFSAII (Michael W. Deem and Ramdas Pophale) SiO2 
 PCOD9431751
Probable space group: P C C N
;
_chemical_formula_sum "Si O2"
_cell_formula_units_Z 64
_cell_length_a 25.351249
_cell_length_b 10.909166
_cell_length_c 9.535688
_cell_angle_alpha 90.000000
_cell_angle_beta 90.000000
_cell_angle_gamma 90.000000
_cell_volume 2637.199253
_symmetry_space_group_name_H-M "P C C N"
_symmetry_group_IT_number 56
_symmetry_cell_setting 'orthorhombic'
loop_
_space_group_symop_operation_xyz
x,y,z
1/2-x,1/2-y,z
1/2+x,-y,1/2-z
-x,1/2+y,1/2-z
-x,-y,-z
1/2+x,1/2+y,-z
1/2-x,y,1/2+z
x,1/2-y,1/2+z
loop_
_atom_site_type_symbol
_atom_site_label
_atom_site_fract_x
_atom_site_fract_y
_atom_site_fract_z
Si Si1 0.716626 0.478021 0.355105
Si Si2 0.377728 0.385335 0.380677
Si Si3 0.685690 0.256257 0.516672
Si Si4 0.872643 0.775761 0.888160
Si Si5 0.000927 0.874669 0.595791
Si Si6 0.717354 0.873308 0.581823
Si Si7 0.830779 0.114641 0.775517
Si Si8 0.505040 0.632799 0.920454
O O1 0.678127 0.378413 0.423189
O O2 0.740727 0.550016 0.488088
O O3 0.700721 0.556542 0.221331
O O4 0.768661 0.412427 0.287877
O O5 0.365310 0.357252 0.541221
O O6 0.357189 0.281970 0.273747
O O7 0.439132 0.364047 0.379178
O O8 0.361011 0.506741 0.301378
O O9 0.750000 0.250000 0.523399
O O10 0.663940 0.272566 0.670285
O O11 0.656600 0.148954 0.433827
O O12 0.830539 0.853997 0.974604
O O13 0.931944 0.829568 0.908682
O O14 0.019323 0.878569 0.760840
O O15 0.017851 0.751364 0.508898
O O16 0.000000 0.000000 0.500000
O O17 0.750000 0.750000 0.615569
O O18 0.500000 0.500000 0.000000
#
# Coordination Sequence:
#
# PCOD9431751 Si02
#       8
#     8   8   8   8   8   8   8   8
#     4  11  22  37  56  80 119 163 212 265 320 375
#     4  10  22  40  62  91 127 163 204 266 326 391
#     4  10  22  36  58  77 107 160 209 261 311 369
#     4  10  23  39  62  93 130 167 211 270 328 396
#     4  10  21  41  68  99 134 170 214 269 341 422
#     4  12  24  36  57  91 126 170 216 266 321 387
#     4  11  21  39  56  82 115 158 213 259 315 373
#     4  10  21  42  71 100 131 177 223 276 348 421
#
# _framework density 24.268170000000001
#
# number of rings (size 3 to 8) (size 9 to 14) (size 15 to 20)
#    0.000    1.500    2.500    3.000    3.500    1.000 
#    0.000    5.000    0.000    0.000    0.000    0.000 
#    0.000    0.000    0.000    0.000    0.000    0.000 
#
# Total GULP energy -356844.831309 kJ/mol
# GULP energy per Si atom -5575.700489 kJ/mol
# Density = 2.421293 g / cm^3
# Si number density = 24.268170 Si / 1000 Ang^3
#
#
#
# Elastic Constant Matrix: (Units=GPa)
#
#
# Indices 1 2 3 4 5 6 
#
# 1 14.9921 -12.0776 1.5036 0.0000 0.0000 0.0000
# 2 -12.0776 112.2985 47.4212 0.0000 0.0000 0.0000
# 3 1.5036 47.4212 156.8320 0.0000 0.0000 0.0000
# 4 0.0000 0.0000 0.0000 64.7460 0.0000 0.0000
# 5 0.0000 0.0000 0.0000 0.0000 19.6333 0.0000
# 6 0.0000 0.0000 0.0000 0.0000 0.0000 15.1796
#
#
#
# Elastic Compliance Matrix: (Units=1/GPa)
#
#
# Indices 1 2 3 4 5 6 
#
# 1 0.074769 0.009565 -0.003609 0.000000 0.000000 0.000000
# 2 0.009565 0.011432 -0.003548 0.000000 0.000000 0.000000
# 3 -0.003609 -0.003548 0.007484 0.000000 0.000000 0.000000
# 4 0.000000 0.000000 0.000000 0.015445 0.000000 0.000000
# 5 0.000000 0.000000 0.000000 0.000000 0.050934 0.000000
# 6 0.000000 0.000000 0.000000 0.000000 0.000000 0.065878
#
#
# Mechanical properties :
#
#
# Convention : Reuss Voigt Hill
#
# Bulk Modulus (GPa) = 10.15217 39.75743 24.95480
# Shear Modulus (GPa) = 19.68817 36.39682 28.04249
#
# Velocity S-wave (km/s) = 2.85138 3.87690 3.40299
# Velocity P-wave (km/s) = 3.87723 6.03809 5.07402
#
# Compressibility (1/GPa) = 0.09850110
#
# Stress axis : x y z
#
# Youngs Moduli (GPa) = 13.37445 87.47375 133.62235
#
# Poissons Ratio (x) = -0.83673 0.48226
# Poissons Ratio (y) = -0.12793 0.47414
# Poissons Ratio (z) = 0.04827 0.31039
#
# Static dielectric constant tensor:
#      x y z
#    x 1.916660 0.000000 0.000000 
#    y 0.000000 2.180650 0.000000 
#    z 0.000000 0.000000 1.985470 
# 
# From -- ./inp_files/5205.got.cif
#   From: 2010.05.17/outbox.cif.g08.bks.cpg/sg56_3_cif.got.tgz:5205.got - 2010.06.03 13:42:01.
