data_PCOD9431310
_publ_section_title
;
Structure prediction by ZEFSAII (Michael W. Deem and Ramdas Pophale) SiO2 
 PCOD9431310
Probable space group: P C C N
;
_chemical_formula_sum "Si O2"
_cell_formula_units_Z 52
_cell_length_a 20.803820
_cell_length_b 6.093125
_cell_length_c 20.825999
_cell_angle_alpha 90.000000
_cell_angle_beta 90.000000
_cell_angle_gamma 90.000000
_cell_volume 2639.909376
_symmetry_space_group_name_H-M "P C C N"
_symmetry_group_IT_number 56
_symmetry_cell_setting 'orthorhombic'
loop_
_space_group_symop_operation_xyz
x,y,z
1/2-x,1/2-y,z
1/2+x,-y,1/2-z
-x,1/2+y,1/2-z
-x,-y,-z
1/2+x,1/2+y,-z
1/2-x,y,1/2+z
x,1/2-y,1/2+z
loop_
_atom_site_type_symbol
_atom_site_label
_atom_site_fract_x
_atom_site_fract_y
_atom_site_fract_z
Si Si1 0.443084 0.402699 0.546984
Si Si2 0.250000 0.750000 0.443417
Si Si3 0.464259 0.814243 0.160773
Si Si4 0.646392 0.585931 0.027771
Si Si5 0.189339 0.123003 0.353195
Si Si6 0.575905 0.100956 0.215543
Si Si7 0.040923 0.922629 0.893276
O O1 0.500000 0.500000 0.500000
O O2 0.426635 0.580134 0.601452
O O3 0.381643 0.285107 0.514936
O O4 0.479041 0.214008 0.586874
O O5 0.205290 0.581746 0.484485
O O6 0.290087 0.590024 0.395537
O O7 0.422642 0.681256 0.211745
O O8 0.517318 0.658962 0.128183
O O9 0.507150 0.984867 0.202150
O O10 0.663890 0.703609 0.094660
O O11 0.585486 0.435203 0.044417
O O12 0.250000 0.250000 0.322956
O O13 0.134424 0.054575 0.303964
O O14 0.576306 0.301365 0.164968
#
# Coordination Sequence:
#
# PCOD9431310 Si02
#       7
#     8   4   8   8   8   8   8
#     4  11  23  34  54  89 128 158 194 242 314 388
#     4  10  22  34  58  88 114 160 202 250 318 324
#     4  11  22  33  55  90 122 165 192 242 328 367
#     4  11  20  36  57  84 128 152 202 254 301 371
#     4  10  21  36  57  89 119 153 203 254 306 347
#     4  11  20  36  55  84 131 152 202 251 300 386
#     4  11  20  34  58  87 123 158 188 245 317 368
#
# _framework density 19.697645999999999
#
# number of rings (size 3 to 8) (size 9 to 14) (size 15 to 20)
#    0.000    1.231    6.154    1.385    0.000    0.000 
#    0.000    0.000    0.000    0.000    0.000   14.000 
#    4.615    0.000    0.000    0.000    0.000    0.000 
#
# Total GULP energy -289932.932281 kJ/mol
# GULP energy per Si atom -5575.633313 kJ/mol
# Density = 1.965281 g / cm^3
# Si number density = 19.697646 Si / 1000 Ang^3
#
#
#
# Elastic Constant Matrix: (Units=GPa)
#
#
# Indices 1 2 3 4 5 6 
#
# 1 85.3026 35.7505 42.1591 0.0000 0.0000 0.0000
# 2 35.7505 73.1774 30.7450 0.0000 0.0000 0.0000
# 3 42.1591 30.7450 87.5810 0.0000 0.0000 0.0000
# 4 0.0000 0.0000 0.0000 38.4760 0.0000 0.0000
# 5 0.0000 0.0000 0.0000 0.0000 17.7604 0.0000
# 6 0.0000 0.0000 0.0000 0.0000 0.0000 37.5714
#
#
#
# Elastic Compliance Matrix: (Units=1/GPa)
#
#
# Indices 1 2 3 4 5 6 
#
# 1 0.017250 -0.005793 -0.006270 0.000000 0.000000 0.000000
# 2 -0.005793 0.017975 -0.003522 0.000000 0.000000 0.000000
# 3 -0.006270 -0.003522 0.015672 0.000000 0.000000 0.000000
# 4 0.000000 0.000000 0.000000 0.025990 0.000000 0.000000
# 5 0.000000 0.000000 0.000000 0.000000 0.056305 0.000000
# 6 0.000000 0.000000 0.000000 0.000000 0.000000 0.026616
#
#
# Mechanical properties :
#
#
# Convention : Reuss Voigt Hill
#
# Bulk Modulus (GPa) = 50.68853 51.48556 51.08705
# Shear Modulus (GPa) = 25.30967 27.92200 26.61583
#
# Velocity S-wave (km/s) = 3.58845 3.76909 3.67988
# Velocity P-wave (km/s) = 6.55427 6.71834 6.63681
#
# Compressibility (1/GPa) = 0.01972833
#
# Stress axis : x y z
#
# Youngs Moduli (GPa) = 57.97245 55.63261 63.80661
#
# Poissons Ratio (x) = 0.32228 0.40006
# Poissons Ratio (y) = 0.33583 0.22470
# Poissons Ratio (z) = 0.36348 0.19591
#
# Static dielectric constant tensor:
#      x y z
#    x 1.774890 0.000000 0.000000 
#    y 0.000000 1.789390 0.000000 
#    z 0.000000 0.000000 1.684620 
# 
# From -- ./inp_files/19453.got.cif
#   From: 2010.05.17/outbox.cif.g08.bks.cpg/sg56_10_cif.got.tgz:19453.got - 2010.06.03 13:42:01.
