data_PCOD9431825
_publ_section_title
;
Structure prediction by ZEFSAII (Michael W. Deem and Ramdas Pophale) SiO2 
 PCOD9431825
Probable space group: P C C N
;
_chemical_formula_sum "Si O2"
_cell_formula_units_Z 44
_cell_length_a 15.016428
_cell_length_b 5.319826
_cell_length_c 25.384896
_cell_angle_alpha 90.000000
_cell_angle_beta 90.000000
_cell_angle_gamma 90.000000
_cell_volume 2027.866936
_symmetry_space_group_name_H-M "P C C N"
_symmetry_group_IT_number 56
_symmetry_cell_setting 'orthorhombic'
loop_
_space_group_symop_operation_xyz
x,y,z
1/2-x,1/2-y,z
1/2+x,-y,1/2-z
-x,1/2+y,1/2-z
-x,-y,-z
1/2+x,1/2+y,-z
1/2-x,y,1/2+z
x,1/2-y,1/2+z
loop_
_atom_site_type_symbol
_atom_site_label
_atom_site_fract_x
_atom_site_fract_y
_atom_site_fract_z
Si Si1 0.750000 0.750000 0.940320
Si Si2 0.831323 0.870268 0.611606
Si Si3 0.599444 0.928757 0.515869
Si Si4 0.427900 0.820609 0.693734
Si Si5 0.750000 0.250000 0.371013
Si Si6 0.958928 0.323269 0.183723
Si Si7 0.250000 0.750000 0.965052
O O1 0.761489 0.498574 0.906372
O O2 0.840067 0.765201 0.975758
O O3 0.750000 0.750000 0.646359
O O4 0.895190 0.694997 0.574863
O O5 0.885224 0.085274 0.642267
O O6 0.769687 0.011688 0.569997
O O7 0.500000 0.000000 0.500000
O O8 0.656568 0.185038 0.509711
O O9 0.334336 0.819740 0.664876
O O10 0.419780 0.832067 0.757090
O O11 0.471272 0.551618 0.681245
O O12 0.492326 0.054136 0.677009
#
# Coordination Sequence:
#
# PCOD9431825 Si02
#       7
#     4   8   8   8   4   8   4
#     4  12  26  48  70 106 146 184 252 296 344 446
#     4  10  23  42  70 102 133 182 235 292 345 423
#     4  11  25  45  69  98 142 192 231 301 357 416
#     4  10  24  47  67 105 141 180 232 293 348 436
#     4  12  27  45  74 100 146 194 233 289 362 430
#     4  10  23  45  73 101 143 178 234 294 354 416
#     4  10  21  43  62 100 142 164 249 285 336 426
#
# _framework density 21.697673999999999
#
# number of rings (size 3 to 8) (size 9 to 14) (size 15 to 20)
#    0.000    1.455    2.727    1.636    7.636    2.909 
#   11.455    0.000    0.000    0.000    0.000    0.000 
#    0.000    0.000    0.000    0.000    0.000    0.000 
#
# Total GULP energy -245182.857482 kJ/mol
# GULP energy per Si atom -5572.337670 kJ/mol
# Density = 2.164829 g / cm^3
# Si number density = 21.697674 Si / 1000 Ang^3
#
#
#
# Elastic Constant Matrix: (Units=GPa)
#
#
# Indices 1 2 3 4 5 6 
#
# 1 144.8653 21.1059 65.2181 0.0000 0.0000 0.0000
# 2 21.1059 102.9845 34.7935 0.0000 0.0000 0.0000
# 3 65.2181 34.7935 71.4899 0.0000 0.0000 0.0000
# 4 0.0000 0.0000 0.0000 15.0961 0.0000 0.0000
# 5 0.0000 0.0000 0.0000 0.0000 17.7113 0.0000
# 6 0.0000 0.0000 0.0000 0.0000 0.0000 32.9766
#
#
#
# Elastic Compliance Matrix: (Units=1/GPa)
#
#
# Indices 1 2 3 4 5 6 
#
# 1 0.011897 0.001470 -0.011569 0.000000 0.000000 0.000000
# 2 0.001470 0.011803 -0.007086 0.000000 0.000000 0.000000
# 3 -0.011569 -0.007086 0.027991 0.000000 0.000000 0.000000
# 4 0.000000 0.000000 0.000000 0.066242 0.000000 0.000000
# 5 0.000000 0.000000 0.000000 0.000000 0.056461 0.000000
# 6 0.000000 0.000000 0.000000 0.000000 0.000000 0.030325
#
#
# Mechanical properties :
#
#
# Convention : Reuss Voigt Hill
#
# Bulk Modulus (GPa) = 57.73055 62.39718 60.06387
# Shear Modulus (GPa) = 20.41976 26.37161 23.39568
#
# Velocity S-wave (km/s) = 3.07107 3.49006 3.28725
# Velocity P-wave (km/s) = 6.26417 6.71272 6.49232
#
# Compressibility (1/GPa) = 0.01732185
#
# Stress axis : x y z
#
# Youngs Moduli (GPa) = 84.05425 84.72580 35.72627
#
# Poissons Ratio (x) = -0.12458 0.41332
# Poissons Ratio (y) = -0.12359 0.25315
# Poissons Ratio (z) = 0.97242 0.60034
#
# Static dielectric constant tensor:
#      x y z
#    x 1.790490 0.000000 0.000000 
#    y 0.000000 1.720670 0.000000 
#    z 0.000000 0.000000 1.862150 
# 
# From -- ./inp_files/22410.got.cif
#   From: 2010.05.17/outbox.cif.g08.bks.cpg/sg56_12_cif.got.tgz:22410.got - 2010.06.03 13:42:01.
