data_PCOD9431380
_publ_section_title
;
Structure prediction by ZEFSAII (Michael W. Deem and Ramdas Pophale) SiO2 
 PCOD9431380
Probable space group: P C C N
;
_chemical_formula_sum "Si O2"
_cell_formula_units_Z 64
_cell_length_a 12.938721
_cell_length_b 28.350764
_cell_length_c 8.990954
_cell_angle_alpha 90.000000
_cell_angle_beta 90.000000
_cell_angle_gamma 90.000000
_cell_volume 3298.085352
_symmetry_space_group_name_H-M "P C C N"
_symmetry_group_IT_number 56
_symmetry_cell_setting 'orthorhombic'
loop_
_space_group_symop_operation_xyz
x,y,z
1/2-x,1/2-y,z
1/2+x,-y,1/2-z
-x,1/2+y,1/2-z
-x,-y,-z
1/2+x,1/2+y,-z
1/2-x,y,1/2+z
x,1/2-y,1/2+z
loop_
_atom_site_type_symbol
_atom_site_label
_atom_site_fract_x
_atom_site_fract_y
_atom_site_fract_z
Si Si1 0.799531 0.365336 0.289083
Si Si2 0.392874 0.118510 0.853725
Si Si3 0.269430 0.931916 0.982158
Si Si4 0.966861 0.471127 0.855261
Si Si5 0.416355 0.687135 0.653915
Si Si6 0.158985 0.024464 0.853464
Si Si7 0.735208 0.588802 0.897815
Si Si8 0.865333 0.271597 0.167799
O O1 0.812292 0.398971 0.431004
O O2 0.814599 0.398347 0.145916
O O3 0.681280 0.345467 0.297902
O O4 0.866948 0.318223 0.271407
O O5 0.448776 0.068332 0.826817
O O6 0.482490 0.156274 0.868410
O O7 0.322034 0.125396 0.709104
O O8 0.323207 0.112054 0.999946
O O9 0.222253 0.979058 0.912003
O O10 0.358169 0.946951 0.098450
O O11 0.946957 0.504708 0.714824
O O12 0.000000 0.500000 0.000000
O O13 0.386000 0.711638 0.498658
O O14 0.433513 0.728845 0.772291
O O15 0.214872 0.050301 0.714423
O O16 0.159888 0.061670 0.987412
O O17 0.750000 0.250000 0.174687
#
# Coordination Sequence:
#
# PCOD9431380 Si02
#       8
#     8   8   8   8   8   8   8   8
#     4  11  20  34  57  90 129 164 191 227 301 374
#     4  11  22  42  62  86 115 161 210 261 305 359
#     4  12  20  33  57  90 126 170 202 234 289 365
#     4  12  21  35  59  86 126 163 211 257 290 345
#     4  11  22  40  63  90 119 153 200 245 304 384
#     4  11  19  37  57  88 126 169 202 246 300 351
#     4  10  22  39  63  79 119 167 212 255 312 344
#     4  10  21  37  63  94 129 157 177 236 319 387
#
# _framework density 19.405197999999999
#
# number of rings (size 3 to 8) (size 9 to 14) (size 15 to 20)
#    0.000    1.000    6.250    1.875    1.750    0.500 
#    0.000    3.750    0.000    2.250    0.000    0.000 
#    0.000    0.000    0.000    0.000    0.000    0.000 
#
# Total GULP energy -357457.764124 kJ/mol
# GULP energy per Si atom -5585.277564 kJ/mol
# Density = 1.936103 g / cm^3
# Si number density = 19.405198 Si / 1000 Ang^3
#
#
#
# Elastic Constant Matrix: (Units=GPa)
#
#
# Indices 1 2 3 4 5 6 
#
# 1 23.4679 -0.6843 2.0289 0.0000 0.0000 0.0000
# 2 -0.6843 63.5284 10.3675 0.0000 0.0000 0.0000
# 3 2.0289 10.3675 72.7942 0.0000 0.0000 0.0000
# 4 0.0000 0.0000 0.0000 21.6708 0.0000 0.0000
# 5 0.0000 0.0000 0.0000 0.0000 18.8513 0.0000
# 6 0.0000 0.0000 0.0000 0.0000 0.0000 19.4429
#
#
#
# Elastic Compliance Matrix: (Units=1/GPa)
#
#
# Indices 1 2 3 4 5 6 
#
# 1 0.042742 0.000670 -0.001287 0.000000 0.000000 0.000000
# 2 0.000670 0.016126 -0.002315 0.000000 0.000000 0.000000
# 3 -0.001287 -0.002315 0.014103 0.000000 0.000000 0.000000
# 4 0.000000 0.000000 0.000000 0.046145 0.000000 0.000000
# 5 0.000000 0.000000 0.000000 0.000000 0.053047 0.000000
# 6 0.000000 0.000000 0.000000 0.000000 0.000000 0.051433
#
#
# Mechanical properties :
#
#
# Convention : Reuss Voigt Hill
#
# Bulk Modulus (GPa) = 14.90139 20.35718 17.62929
# Shear Modulus (GPa) = 19.85478 21.86490 20.85984
#
# Velocity S-wave (km/s) = 3.20217 3.36036 3.28222
# Velocity P-wave (km/s) = 4.62251 5.05662 4.84443
#
# Compressibility (1/GPa) = 0.06710782
#
# Stress axis : x y z
#
# Youngs Moduli (GPa) = 23.39605 62.01142 70.90694
#
# Poissons Ratio (x) = -0.04157 0.09124
# Poissons Ratio (y) = -0.01569 0.16418
# Poissons Ratio (z) = 0.03011 0.14358
#
# Static dielectric constant tensor:
#      x y z
#    x 1.695330 0.000000 0.000000 
#    y 0.000000 1.684770 0.000000 
#    z 0.000000 0.000000 1.704130 
# 
# From -- ./inp_files/2958.got.cif
#   From: 2010.05.17/outbox.cif.g08.bks.cpg/sg56_2_cif.got.tgz:2958.got - 2010.06.03 13:42:01.
