data_PCOD9431160
_publ_section_title
;
Structure prediction by ZEFSAII (Michael W. Deem and Ramdas Pophale) SiO2 
 PCOD9431160
Probable space group: P C C N
;
_chemical_formula_sum "Si O2"
_cell_formula_units_Z 44
_cell_length_a 10.529333
_cell_length_b 8.745320
_cell_length_c 25.034155
_cell_angle_alpha 90.000000
_cell_angle_beta 90.000000
_cell_angle_gamma 90.000000
_cell_volume 2305.204736
_symmetry_space_group_name_H-M "P C C N"
_symmetry_group_IT_number 56
_symmetry_cell_setting 'orthorhombic'
loop_
_space_group_symop_operation_xyz
x,y,z
1/2-x,1/2-y,z
1/2+x,-y,1/2-z
-x,1/2+y,1/2-z
-x,-y,-z
1/2+x,1/2+y,-z
1/2-x,y,1/2+z
x,1/2-y,1/2+z
loop_
_atom_site_type_symbol
_atom_site_label
_atom_site_fract_x
_atom_site_fract_y
_atom_site_fract_z
Si Si1 0.940964 0.006045 0.058338
Si Si2 0.750000 0.250000 0.086407
Si Si3 0.436392 0.912004 0.831254
Si Si4 0.631972 0.668021 0.860127
Si Si5 0.358081 0.880202 0.710686
Si Si6 0.598916 0.756558 0.647297
O O1 0.818944 0.116016 0.054619
O O2 0.040554 0.091357 0.096913
O O3 0.909858 0.849995 0.091144
O O4 0.000000 0.000000 0.000000
O O5 0.652642 0.167891 0.125686
O O6 0.557090 0.800675 0.828642
O O7 0.371381 0.912914 0.773401
O O8 0.453274 0.083663 0.852291
O O9 0.750000 0.750000 0.887454
O O10 0.676379 0.534765 0.820411
O O11 0.250000 0.750000 0.702063
O O12 0.499191 0.837229 0.687994
O O13 0.750000 0.750000 0.662097
#
# Coordination Sequence:
#
# PCOD9431160 Si02
#       6
#     8   4   8   8   8   8
#     4  10  23  45  66  92 121 167 218 277 335 392
#     4  10  20  42  64  90 126 162 206 276 310 396
#     4  11  21  38  64  89 134 171 212 257 328 384
#     4  10  23  41  58  91 132 164 214 270 322 384
#     4  11  23  38  62  96 134 179 216 262 319 392
#     4  11  23  40  65  95 132 170 223 272 322 403
#
# _framework density 19.087242
#
# number of rings (size 3 to 8) (size 9 to 14) (size 15 to 20)
#    0.000    1.455    2.727    2.182    0.000    5.091 
#    9.818    1.818    0.000    0.000    0.000    0.000 
#    0.000    0.000    0.000    0.000    0.000    0.000 
#
# Total GULP energy -245325.423169 kJ/mol
# GULP energy per Si atom -5575.577799 kJ/mol
# Density = 1.904380 g / cm^3
# Si number density = 19.087242 Si / 1000 Ang^3
#
#
#
# Elastic Constant Matrix: (Units=GPa)
#
#
# Indices 1 2 3 4 5 6 
#
# 1 91.9657 43.0894 35.0541 0.0000 0.0000 0.0000
# 2 43.0894 150.7894 48.2141 0.0000 0.0000 0.0000
# 3 35.0541 48.2141 98.2029 0.0000 0.0000 0.0000
# 4 0.0000 0.0000 0.0000 11.0077 0.0000 0.0000
# 5 0.0000 0.0000 0.0000 0.0000 14.6633 0.0000
# 6 0.0000 0.0000 0.0000 0.0000 0.0000 40.8111
#
#
#
# Elastic Compliance Matrix: (Units=1/GPa)
#
#
# Indices 1 2 3 4 5 6 
#
# 1 0.013480 -0.002744 -0.003464 0.000000 0.000000 0.000000
# 2 -0.002744 0.008425 -0.003157 0.000000 0.000000 0.000000
# 3 -0.003464 -0.003157 0.012970 0.000000 0.000000 0.000000
# 4 0.000000 0.000000 0.000000 0.090845 0.000000 0.000000
# 5 0.000000 0.000000 0.000000 0.000000 0.068197 0.000000
# 6 0.000000 0.000000 0.000000 0.000000 0.000000 0.024503
#
#
# Mechanical properties :
#
#
# Convention : Reuss Voigt Hill
#
# Bulk Modulus (GPa) = 61.94404 65.96370 63.95387
# Shear Modulus (GPa) = 20.61575 27.60313 24.10944
#
# Velocity S-wave (km/s) = 3.29002 3.80696 3.55789
# Velocity P-wave (km/s) = 6.85244 7.34561 7.10331
#
# Compressibility (1/GPa) = 0.01614360
#
# Stress axis : x y z
#
# Youngs Moduli (GPa) = 74.18443 118.68874 77.10341
#
# Poissons Ratio (x) = 0.32572 0.26712
# Poissons Ratio (y) = 0.20358 0.24341
# Poissons Ratio (z) = 0.25700 0.37470
#
# Static dielectric constant tensor:
#      x y z
#    x 1.826850 0.000000 0.000000 
#    y 0.000000 1.700610 0.000000 
#    z 0.000000 0.000000 1.611900 
# 
# From -- ./inp_files/20849.got.cif
#   From: 2010.05.17/outbox.cif.g08.bks.cpg/sg56_11_cif.got.tgz:20849.got - 2010.06.03 13:42:01.
