data_PCOD9431943
_publ_section_title
;
Structure prediction by ZEFSAII (Michael W. Deem and Ramdas Pophale) SiO2 
 PCOD9431943
Probable space group: P C C N
;
_chemical_formula_sum "Si O2"
_cell_formula_units_Z 44
_cell_length_a 12.169680
_cell_length_b 22.667447
_cell_length_c 8.029532
_cell_angle_alpha 90.000000
_cell_angle_beta 90.000000
_cell_angle_gamma 90.000000
_cell_volume 2214.991178
_symmetry_space_group_name_H-M "P C C N"
_symmetry_group_IT_number 56
_symmetry_cell_setting 'orthorhombic'
loop_
_space_group_symop_operation_xyz
x,y,z
1/2-x,1/2-y,z
1/2+x,-y,1/2-z
-x,1/2+y,1/2-z
-x,-y,-z
1/2+x,1/2+y,-z
1/2-x,y,1/2+z
x,1/2-y,1/2+z
loop_
_atom_site_type_symbol
_atom_site_label
_atom_site_fract_x
_atom_site_fract_y
_atom_site_fract_z
Si Si1 0.351810 0.376209 0.713491
Si Si2 0.379757 0.241747 0.389969
Si Si3 0.900295 0.183045 0.986983
Si Si4 0.250000 0.750000 0.765775
Si Si5 0.105157 0.376912 0.834063
Si Si6 0.506460 0.930295 0.488029
O O1 0.373903 0.305963 0.738902
O O2 0.223077 0.382806 0.744887
O O3 0.387510 0.395862 0.528568
O O4 0.407828 0.409400 0.868758
O O5 0.250000 0.250000 0.944502
O O6 0.475480 0.209751 0.497984
O O7 0.419190 0.307148 0.346988
O O8 0.821624 0.203169 0.133647
O O9 0.905342 0.112786 0.968073
O O10 0.841278 0.213895 0.833215
O O11 0.029976 0.411531 0.703788
O O12 0.500000 0.000000 0.500000
#
# Coordination Sequence:
#
# PCOD9431943 Si02
#       6
#     8   8   8   4   8   8
#     4  10  22  37  62  96 132 167 201 260 342 418
#     4   9  21  34  66 104 136 161 205 282 359 403
#     4  10  22  43  63  97 131 171 229 277 335 414
#     4  10  22  42  68  90 130 184 226 280 332 396
#     4  11  21  38  63  97 132 167 201 264 347 411
#     4  11  25  44  62  92 128 171 229 284 332 402
#
# _framework density 19.864639
#
# number of rings (size 3 to 8) (size 9 to 14) (size 15 to 20)
#    0.000    1.818    1.818    1.091   10.182    2.909 
#    3.273    0.000    0.000    0.000    0.000    0.000 
#    0.000    0.000    0.000    0.000    0.000    0.000 
#
# Total GULP energy -245068.724546 kJ/mol
# GULP energy per Si atom -5569.743740 kJ/mol
# Density = 1.981943 g / cm^3
# Si number density = 19.864639 Si / 1000 Ang^3
#
#
#
# Elastic Constant Matrix: (Units=GPa)
#
#
# Indices 1 2 3 4 5 6 
#
# 1 56.0402 23.0776 10.1602 0.0000 0.0000 0.0000
# 2 23.0776 145.1019 13.4672 0.0000 0.0000 0.0000
# 3 10.1602 13.4672 87.6826 0.0000 0.0000 0.0000
# 4 0.0000 0.0000 0.0000 22.6939 0.0000 0.0000
# 5 0.0000 0.0000 0.0000 0.0000 6.0901 0.0000
# 6 0.0000 0.0000 0.0000 0.0000 0.0000 12.9532
#
#
#
# Elastic Compliance Matrix: (Units=1/GPa)
#
#
# Indices 1 2 3 4 5 6 
#
# 1 0.019370 -0.002914 -0.001797 0.000000 0.000000 0.000000
# 2 -0.002914 0.007430 -0.000803 0.000000 0.000000 0.000000
# 3 -0.001797 -0.000803 0.011736 0.000000 0.000000 0.000000
# 4 0.000000 0.000000 0.000000 0.044065 0.000000 0.000000
# 5 0.000000 0.000000 0.000000 0.000000 0.164201 0.000000
# 6 0.000000 0.000000 0.000000 0.000000 0.000000 0.077201
#
#
# Mechanical properties :
#
#
# Convention : Reuss Voigt Hill
#
# Bulk Modulus (GPa) = 36.35373 42.47052 39.41212
# Shear Modulus (GPa) = 14.52637 24.48873 19.50755
#
# Velocity S-wave (km/s) = 2.70713 3.51491 3.13713
# Velocity P-wave (km/s) = 5.30206 6.15623 5.74504
#
# Compressibility (1/GPa) = 0.02750750
#
# Stress axis : x y z
#
# Youngs Moduli (GPa) = 51.62597 134.59457 85.20501
#
# Poissons Ratio (x) = 0.39220 0.15311
# Poissons Ratio (y) = 0.15043 0.06846
# Poissons Ratio (z) = 0.09277 0.10814
#
# Static dielectric constant tensor:
#      x y z
#    x 1.745200 0.000000 0.000000 
#    y 0.000000 1.682040 0.000000 
#    z 0.000000 0.000000 1.780010 
# 
# From -- ./inp_files/2730.got.cif
#   From: 2010.05.17/outbox.cif.g08.bks.cpg/sg56_2_cif.got.tgz:2730.got - 2010.06.03 13:42:01.
