data_PCOD9431448
_publ_section_title
;
Structure prediction by ZEFSAII (Michael W. Deem and Ramdas Pophale) SiO2 
 PCOD9431448
Probable space group: P C C N
;
_chemical_formula_sum "Si O2"
_cell_formula_units_Z 56
_cell_length_a 7.192861
_cell_length_b 17.324990
_cell_length_c 19.902009
_cell_angle_alpha 90.000000
_cell_angle_beta 90.000000
_cell_angle_gamma 90.000000
_cell_volume 2480.113627
_symmetry_space_group_name_H-M "P C C N"
_symmetry_group_IT_number 56
_symmetry_cell_setting 'orthorhombic'
loop_
_space_group_symop_operation_xyz
x,y,z
1/2-x,1/2-y,z
1/2+x,-y,1/2-z
-x,1/2+y,1/2-z
-x,-y,-z
1/2+x,1/2+y,-z
1/2-x,y,1/2+z
x,1/2-y,1/2+z
loop_
_atom_site_type_symbol
_atom_site_label
_atom_site_fract_x
_atom_site_fract_y
_atom_site_fract_z
Si Si1 0.997665 0.202176 0.125846
Si Si2 0.648714 0.488734 0.586062
Si Si3 0.750000 0.250000 0.740118
Si Si4 0.668639 0.948864 0.220611
Si Si5 0.750000 0.250000 0.505070
Si Si6 0.183136 0.589654 0.044940
Si Si7 0.238309 0.904386 0.192670
Si Si8 0.351154 0.372829 0.655983
O O1 0.074644 0.286142 0.148532
O O2 0.149143 0.135345 0.121516
O O3 0.853842 0.192673 0.186792
O O4 0.902455 0.215195 0.055157
O O5 0.753612 0.526117 0.648906
O O6 0.753512 0.446915 0.525234
O O7 0.522488 0.555063 0.553461
O O8 0.498770 0.428746 0.620055
O O9 0.827711 0.182164 0.788420
O O10 0.464433 0.913191 0.204799
O O11 0.793094 0.895121 0.268323
O O12 0.651287 0.028280 0.262354
O O13 0.669577 0.319127 0.462684
O O14 0.289356 0.575370 0.114294
#
# Coordination Sequence:
#
# PCOD9431448 Si02
#       8
#     8   8   4   8   4   8   8   8
#     4  10  23  34  64  91 122 162 208 255 310 370
#     4  10  21  39  64  89 122 166 203 250 317 376
#     4  11  21  36  58  94 122 156 208 262 304 364
#     4  11  21  37  63  91 122 161 206 256 309 370
#     4  11  21  40  62  90 122 166 210 250 308 384
#     4  10  21  38  63  86 123 165 198 250 312 368
#     4  11  23  38  64  94 126 165 206 263 312 370
#     4  11  19  40  59  90 123 160 205 258 307 365
#
# _framework density 22.579609999999999
#
# number of rings (size 3 to 8) (size 9 to 14) (size 15 to 20)
#    0.000    1.429    5.714    1.286    2.000    0.000 
#    0.000    0.714    9.429    3.429    0.000    0.000 
#    0.000    0.000    0.000    0.000    0.000    0.000 
#
# Total GULP energy -312290.637158 kJ/mol
# GULP energy per Si atom -5576.618521 kJ/mol
# Density = 2.252822 g / cm^3
# Si number density = 22.579610 Si / 1000 Ang^3
#
#
#
# Elastic Constant Matrix: (Units=GPa)
#
#
# Indices 1 2 3 4 5 6 
#
# 1 47.2517 3.6674 14.7908 0.0000 0.0000 0.0000
# 2 3.6674 103.9755 26.6311 0.0000 0.0000 0.0000
# 3 14.7908 26.6311 136.3325 0.0000 0.0000 0.0000
# 4 0.0000 0.0000 0.0000 41.3566 0.0000 0.0000
# 5 0.0000 0.0000 0.0000 0.0000 26.4773 0.0000
# 6 0.0000 0.0000 0.0000 0.0000 0.0000 31.4331
#
#
#
# Elastic Compliance Matrix: (Units=1/GPa)
#
#
# Indices 1 2 3 4 5 6 
#
# 1 0.021910 -0.000173 -0.002343 0.000000 0.000000 0.000000
# 2 -0.000173 0.010126 -0.001959 0.000000 0.000000 0.000000
# 3 -0.002343 -0.001959 0.007972 0.000000 0.000000 0.000000
# 4 0.000000 0.000000 0.000000 0.024180 0.000000 0.000000
# 5 0.000000 0.000000 0.000000 0.000000 0.037768 0.000000
# 6 0.000000 0.000000 0.000000 0.000000 0.000000 0.031814
#
#
# Mechanical properties :
#
#
# Convention : Reuss Voigt Hill
#
# Bulk Modulus (GPa) = 32.19849 41.97094 37.08472
# Shear Modulus (GPa) = 32.66433 36.01809 34.34121
#
# Velocity S-wave (km/s) = 3.80758 3.99828 3.90410
# Velocity P-wave (km/s) = 5.79838 6.32007 6.06484
#
# Compressibility (1/GPa) = 0.03105736
#
# Stress axis : x y z
#
# Youngs Moduli (GPa) = 45.64094 98.76015 125.43989
#
# Poissons Ratio (x) = 0.01705 0.29395
# Poissons Ratio (y) = 0.00788 0.24576
# Poissons Ratio (z) = 0.10695 0.19349
#
# Static dielectric constant tensor:
#      x y z
#    x 1.225890 0.000000 0.000000 
#    y 0.000000 1.803030 0.000000 
#    z 0.000000 0.000000 1.876810 
# 
# From -- ./inp_files/18350.got.cif
#   From: 2010.05.17/outbox.cif.g08.bks.cpg/sg56_10_cif.got.tgz:18350.got - 2010.06.03 13:42:01.
