data_PCOD9431168
_publ_section_title
;
Structure prediction by ZEFSAII (Michael W. Deem and Ramdas Pophale) SiO2 
 PCOD9431168
Probable space group: P C C N
;
_chemical_formula_sum "Si O2"
_cell_formula_units_Z 48
_cell_length_a 13.246167
_cell_length_b 9.117678
_cell_length_c 16.987733
_cell_angle_alpha 90.000000
_cell_angle_beta 90.000000
_cell_angle_gamma 90.000000
_cell_volume 2051.681314
_symmetry_space_group_name_H-M "P C C N"
_symmetry_group_IT_number 56
_symmetry_cell_setting 'orthorhombic'
loop_
_space_group_symop_operation_xyz
x,y,z
1/2-x,1/2-y,z
1/2+x,-y,1/2-z
-x,1/2+y,1/2-z
-x,-y,-z
1/2+x,1/2+y,-z
1/2-x,y,1/2+z
x,1/2-y,1/2+z
loop_
_atom_site_type_symbol
_atom_site_label
_atom_site_fract_x
_atom_site_fract_y
_atom_site_fract_z
Si Si1 0.750000 0.250000 0.956475
Si Si2 0.750000 0.750000 0.251913
Si Si3 0.418388 0.715190 0.923423
Si Si4 0.232312 0.973931 0.669424
Si Si5 0.750000 0.250000 0.195605
Si Si6 0.500000 0.500000 0.500000
Si Si7 0.472591 0.529597 0.175840
Si Si8 0.944100 0.640743 0.168065
O O1 0.696391 0.122903 0.904322
O O2 0.664122 0.322566 0.009485
O O3 0.695267 0.635184 0.310264
O O4 0.829142 0.668032 0.196573
O O5 0.346098 0.787931 0.857023
O O6 0.469583 0.573582 0.885875
O O7 0.492208 0.834439 0.959740
O O8 0.217097 0.879138 0.747203
O O9 0.353236 0.981366 0.658501
O O10 0.456345 0.428281 0.417152
O O11 0.505326 0.698085 0.171330
O O12 0.488974 0.462311 0.262955
#
# Coordination Sequence:
#
# PCOD9431168 Si02
#       8
#     4   4   8   8   4   4   8   8
#     4  10  24  42  62  94 134 184 226 274 338 414
#     4  10  22  40  68 100 128 172 226 288 340 390
#     4  11  24  41  65  95 136 177 222 275 341 403
#     4  10  21  39  65  92 124 168 228 277 329 396
#     4  10  20  42  66  88 124 180 222 260 328 418
#     4  12  26  42  64 102 140 176 224 282 336 396
#     4  11  23  43  69  98 131 179 227 280 341 414
#     4  11  24  43  69  98 134 175 226 280 342 405
#
# _framework density 23.395447000000001
#
# number of rings (size 3 to 8) (size 9 to 14) (size 15 to 20)
#    0.000    1.333    0.000    6.000    0.000   10.667 
#    0.000    0.000    0.000    3.000    0.000    0.000 
#    0.000    0.000    0.000    0.000    0.000    0.000 
#
# Total GULP energy -267675.142626 kJ/mol
# GULP energy per Si atom -5576.565471 kJ/mol
# Density = 2.334220 g / cm^3
# Si number density = 23.395447 Si / 1000 Ang^3
#
#
#
# Elastic Constant Matrix: (Units=GPa)
#
#
# Indices 1 2 3 4 5 6 
#
# 1 76.3817 7.1550 32.3598 0.0000 0.0000 0.0000
# 2 7.1550 126.4661 60.1019 0.0000 0.0000 0.0000
# 3 32.3598 60.1019 164.5746 0.0000 0.0000 0.0000
# 4 0.0000 0.0000 0.0000 8.7134 0.0000 0.0000
# 5 0.0000 0.0000 0.0000 0.0000 21.4022 0.0000
# 6 0.0000 0.0000 0.0000 0.0000 0.0000 33.0933
#
#
#
# Elastic Compliance Matrix: (Units=1/GPa)
#
#
# Indices 1 2 3 4 5 6 
#
# 1 0.014324 0.000639 -0.003050 0.000000 0.000000 0.000000
# 2 0.000639 0.009596 -0.003630 0.000000 0.000000 0.000000
# 3 -0.003050 -0.003630 0.008002 0.000000 0.000000 0.000000
# 4 0.000000 0.000000 0.000000 0.114765 0.000000 0.000000
# 5 0.000000 0.000000 0.000000 0.000000 0.046724 0.000000
# 6 0.000000 0.000000 0.000000 0.000000 0.000000 0.030218
#
#
# Mechanical properties :
#
#
# Convention : Reuss Voigt Hill
#
# Bulk Modulus (GPa) = 50.40257 62.96175 56.68216
# Shear Modulus (GPa) = 20.63343 30.49550 25.56446
#
# Velocity S-wave (km/s) = 2.97297 3.61429 3.30920
# Velocity P-wave (km/s) = 5.77713 6.66242 6.23551
#
# Compressibility (1/GPa) = 0.01984026
#
# Stress axis : x y z
#
# Youngs Moduli (GPa) = 69.81087 104.20665 124.97346
#
# Poissons Ratio (x) = -0.06659 0.38116
# Poissons Ratio (y) = -0.04461 0.45368
# Poissons Ratio (z) = 0.21292 0.37829
#
# Static dielectric constant tensor:
#      x y z
#    x 2.193240 0.000000 0.000000 
#    y 0.000000 1.891070 0.000000 
#    z 0.000000 0.000000 1.879510 
# 
# From -- ./inp_files/16237.got.cif
#   From: 2010.05.17/outbox.cif.g08.bks.cpg/sg56_9_cif.got.tgz:16237.got - 2010.06.03 13:42:01.
