data_PCOD9431571
_publ_section_title
;
Structure prediction by ZEFSAII (Michael W. Deem and Ramdas Pophale) SiO2 
 PCOD9431571
Probable space group: P C C N
;
_chemical_formula_sum "Si O2"
_cell_formula_units_Z 64
_cell_length_a 13.043015
_cell_length_b 13.500301
_cell_length_c 18.184905
_cell_angle_alpha 90.000000
_cell_angle_beta 90.000000
_cell_angle_gamma 90.000000
_cell_volume 3202.082240
_symmetry_space_group_name_H-M "P C C N"
_symmetry_group_IT_number 56
_symmetry_cell_setting 'orthorhombic'
loop_
_space_group_symop_operation_xyz
x,y,z
1/2-x,1/2-y,z
1/2+x,-y,1/2-z
-x,1/2+y,1/2-z
-x,-y,-z
1/2+x,1/2+y,-z
1/2-x,y,1/2+z
x,1/2-y,1/2+z
loop_
_atom_site_type_symbol
_atom_site_label
_atom_site_fract_x
_atom_site_fract_y
_atom_site_fract_z
Si Si1 0.819444 0.650009 0.699105
Si Si2 0.833707 0.590005 0.326454
Si Si3 0.246560 0.505881 0.415644
Si Si4 0.034778 0.252804 0.113274
Si Si5 0.165383 0.668354 0.811006
Si Si6 0.054378 0.886118 0.173378
Si Si7 0.936753 0.398102 0.498164
Si Si8 0.794751 0.861028 0.465186
O O1 0.750000 0.750000 0.686302
O O2 0.757396 0.597563 0.766606
O O3 0.814520 0.577849 0.628696
O O4 0.944147 0.651737 0.704727
O O5 0.918551 0.503939 0.317874
O O6 0.782828 0.587557 0.407425
O O7 0.893422 0.693956 0.329496
O O8 0.303488 0.569402 0.354101
O O9 0.171809 0.576179 0.463386
O O10 0.312705 0.437824 0.469874
O O11 0.937551 0.294449 0.152654
O O12 0.996930 0.179161 0.049190
O O13 0.102111 0.337752 0.077463
O O14 0.250000 0.750000 0.824227
O O15 0.143207 0.657808 0.724808
O O16 0.066666 0.864006 0.086734
O O17 0.000000 0.500000 0.500000
O O18 0.750000 0.750000 0.484717
#
# Coordination Sequence:
#
# PCOD9431571 Si02
#       8
#     8   8   8   8   8   8   8   8
#     4  12  25  41  67 104 133 172 227 285 336 403
#     4  11  21  42  68  98 134 177 222 273 338 407
#     4  12  23  41  68  96 137 174 224 283 337 406
#     4  11  23  43  71  96 135 181 220 283 347 402
#     4  12  27  48  64  93 139 185 226 274 345 416
#     4  12  25  43  70  98 135 179 227 280 340 408
#     4  12  21  42  71  99 127 176 230 273 339 409
#     4  10  21  39  68 104 134 165 222 286 337 399
#
# _framework density 19.986995
#
# number of rings (size 3 to 8) (size 9 to 14) (size 15 to 20)
#    0.000    0.500    6.250    3.750    1.750    0.500 
#    2.250    0.000    0.000    0.000    0.000    0.000 
#    0.000    0.000    0.000    0.000    0.000    0.000 
#
# Total GULP energy -357050.766756 kJ/mol
# GULP energy per Si atom -5578.918231 kJ/mol
# Density = 1.994150 g / cm^3
# Si number density = 19.986995 Si / 1000 Ang^3
#
#
#
# Elastic Constant Matrix: (Units=GPa)
#
#
# Indices 1 2 3 4 5 6 
#
# 1 82.9465 26.8916 35.8156 0.0000 0.0000 0.0000
# 2 26.8916 53.9671 37.1514 0.0000 0.0000 0.0000
# 3 35.8156 37.1514 94.5454 0.0000 0.0000 0.0000
# 4 0.0000 0.0000 0.0000 31.8400 0.0000 0.0000
# 5 0.0000 0.0000 0.0000 0.0000 35.1407 0.0000
# 6 0.0000 0.0000 0.0000 0.0000 0.0000 28.2449
#
#
#
# Elastic Compliance Matrix: (Units=1/GPa)
#
#
# Indices 1 2 3 4 5 6 
#
# 1 0.015336 -0.004993 -0.003848 0.000000 0.000000 0.000000
# 2 -0.004993 0.027027 -0.008729 0.000000 0.000000 0.000000
# 3 -0.003848 -0.008729 0.015464 0.000000 0.000000 0.000000
# 4 0.000000 0.000000 0.000000 0.031407 0.000000 0.000000
# 5 0.000000 0.000000 0.000000 0.000000 0.028457 0.000000
# 6 0.000000 0.000000 0.000000 0.000000 0.000000 0.035405
#
#
# Mechanical properties :
#
#
# Convention : Reuss Voigt Hill
#
# Bulk Modulus (GPa) = 44.07520 47.90845 45.99182
# Shear Modulus (GPa) = 25.53662 27.81849 26.67755
#
# Velocity S-wave (km/s) = 3.57832 3.73477 3.65738
# Velocity P-wave (km/s) = 6.25878 6.52839 6.39500
#
# Compressibility (1/GPa) = 0.02268850
#
# Stress axis : x y z
#
# Youngs Moduli (GPa) = 65.20555 37.00044 64.66509
#
# Poissons Ratio (x) = 0.18475 0.24880
# Poissons Ratio (y) = 0.32559 0.56443
# Poissons Ratio (z) = 0.25088 0.32296
#
# Static dielectric constant tensor:
#      x y z
#    x 1.705900 0.000000 0.000000 
#    y 0.000000 1.706540 0.000000 
#    z 0.000000 0.000000 1.764980 
# 
# From -- ./inp_files/15821.got.cif
#   From: 2010.05.17/outbox.cif.g08.bks.cpg/sg56_8_cif.got.tgz:15821.got - 2010.06.03 13:42:01.
