data_PCOD9431361
_publ_section_title
;
Structure prediction by ZEFSAII (Michael W. Deem and Ramdas Pophale) SiO2 
 PCOD9431361
Probable space group: P C C N
;
_chemical_formula_sum "Si O2"
_cell_formula_units_Z 52
_cell_length_a 11.347069
_cell_length_b 14.479195
_cell_length_c 14.643896
_cell_angle_alpha 90.000000
_cell_angle_beta 90.000000
_cell_angle_gamma 90.000000
_cell_volume 2405.939757
_symmetry_space_group_name_H-M "P C C N"
_symmetry_group_IT_number 56
_symmetry_cell_setting 'orthorhombic'
loop_
_space_group_symop_operation_xyz
x,y,z
1/2-x,1/2-y,z
1/2+x,-y,1/2-z
-x,1/2+y,1/2-z
-x,-y,-z
1/2+x,1/2+y,-z
1/2-x,y,1/2+z
x,1/2-y,1/2+z
loop_
_atom_site_type_symbol
_atom_site_label
_atom_site_fract_x
_atom_site_fract_y
_atom_site_fract_z
Si Si1 0.403389 0.846666 0.525448
Si Si2 0.141791 0.867320 0.530504
Si Si3 0.409673 0.887658 0.312038
Si Si4 0.148950 0.902132 0.317786
Si Si5 0.438129 0.393160 0.813076
Si Si6 0.430521 0.394575 0.349981
Si Si7 0.750000 0.750000 0.651974
O O1 0.277603 0.895030 0.549322
O O2 0.381099 0.740208 0.551056
O O3 0.425572 0.858964 0.417377
O O4 0.512144 0.881685 0.584374
O O5 0.129274 0.873688 0.421958
O O6 0.040561 0.920454 0.585147
O O7 0.275272 0.863940 0.286685
O O8 0.508219 0.854083 0.241457
O O9 0.412544 0.998855 0.302903
O O10 0.045646 0.868987 0.253100
O O11 0.140720 0.013890 0.322495
O O12 0.329432 0.325263 0.796092
O O13 0.345726 0.317757 0.395295
#
# Coordination Sequence:
#
# PCOD9431361 Si02
#       7
#     8   8   8   8   8   8   4
#     4  10  21  37  60  89 117 153 203 252 297 353
#     4  10  21  37  60  89 117 153 203 252 297 353
#     4  10  22  40  64  89 119 160 204 248 300 360
#     4  10  22  40  64  89 119 160 204 248 300 360
#     4  11  22  41  61  87 125 161 196 249 307 356
#     4  11  22  41  61  87 125 161 196 249 307 356
#     4  12  24  40  64  88 126 158 200 250 302 368
#
# _framework density 21.613175999999999
#
# number of rings (size 3 to 8) (size 9 to 14) (size 15 to 20)
#    0.000    1.538    3.077    1.846    2.154    0.000 
#    0.000    3.077    0.000    0.000    0.000    0.000 
#    0.000    0.000    0.000    0.000    0.000    0.000 
#
# Total GULP energy -290266.449281 kJ/mol
# GULP energy per Si atom -5582.047102 kJ/mol
# Density = 2.156398 g / cm^3
# Si number density = 21.613176 Si / 1000 Ang^3
#
#
#
# Elastic Constant Matrix: (Units=GPa)
#
#
# Indices 1 2 3 4 5 6 
#
# 1 97.4046 10.0955 30.5871 0.0000 0.0000 0.0000
# 2 10.0955 64.3600 -10.1069 0.0000 0.0000 0.0000
# 3 30.5871 -10.1069 56.5107 0.0000 0.0000 0.0000
# 4 0.0000 0.0000 0.0000 -238.3077 0.0000 0.0000
# 5 0.0000 0.0000 0.0000 0.0000 10.8041 0.0000
# 6 0.0000 0.0000 0.0000 0.0000 0.0000 29.3195
#
#
#
# Elastic Compliance Matrix: (Units=1/GPa)
#
#
# Indices 1 2 3 4 5 6 
#
# 1 0.012991 -0.003233 -0.007610 0.000000 0.000000 0.000000
# 2 -0.003233 0.016791 0.004753 0.000000 0.000000 0.000000
# 3 -0.007610 0.004753 0.022665 0.000000 0.000000 0.000000
# 4 0.000000 0.000000 0.000000 -0.004196 0.000000 0.000000
# 5 0.000000 0.000000 0.000000 0.000000 0.092557 0.000000
# 6 0.000000 0.000000 0.000000 0.000000 0.000000 0.034107
#
#
# Mechanical properties :
#
#
# Convention : Reuss Voigt Hill
#
# Bulk Modulus (GPa) = 24.83397 31.04742 27.94069
# Shear Modulus (GPa) = 24.93553 -27.12352 -1.09399
#
# Velocity S-wave (km/s) = 3.40033 -3.54637 -0.71223
# Velocity P-wave (km/s) = 5.18955 1.54039 3.50419
#
# Compressibility (1/GPa) = 0.04026742
#
# Stress axis : x y z
#
# Youngs Moduli (GPa) = 76.97537 59.55544 44.12147
#
# Poissons Ratio (x) = 0.19253 0.33576
# Poissons Ratio (y) = 0.24885 -0.20970
# Poissons Ratio (z) = 0.58577 -0.28306
#
# Static dielectric constant tensor:
#      x y z
#    x 1.815460 0.000000 0.000000 
#    y 0.000000 1.816760 0.000000 
#    z 0.000000 0.000000 1.763910 
# 
# From -- ./inp_files/11796.got.cif
#   From: 2010.05.17/outbox.cif.g08.bks.cpg/sg56_6_cif.got.tgz:11796.got - 2010.06.03 13:42:01.
