data_PCOD9431789
_publ_section_title
;
Structure prediction by ZEFSAII (Michael W. Deem and Ramdas Pophale) SiO2 
 PCOD9431789
Probable space group: P C C N
;
_chemical_formula_sum "Si O2"
_cell_formula_units_Z 48
_cell_length_a 7.934337
_cell_length_b 18.713255
_cell_length_c 14.312684
_cell_angle_alpha 90.000000
_cell_angle_beta 90.000000
_cell_angle_gamma 90.000000
_cell_volume 2125.108269
_symmetry_space_group_name_H-M "P C C N"
_symmetry_group_IT_number 56
_symmetry_cell_setting 'orthorhombic'
loop_
_space_group_symop_operation_xyz
x,y,z
1/2-x,1/2-y,z
1/2+x,-y,1/2-z
-x,1/2+y,1/2-z
-x,-y,-z
1/2+x,1/2+y,-z
1/2-x,y,1/2+z
x,1/2-y,1/2+z
loop_
_atom_site_type_symbol
_atom_site_label
_atom_site_fract_x
_atom_site_fract_y
_atom_site_fract_z
Si Si1 0.665871 0.327297 0.456356
Si Si2 0.071818 0.425555 0.716430
Si Si3 0.374676 0.698575 0.342483
Si Si4 0.310400 0.913294 0.708743
Si Si5 0.211894 0.327431 0.872838
Si Si6 0.613446 0.811578 0.438604
O O1 0.750000 0.250000 0.441947
O O2 0.672719 0.347622 0.565785
O O3 0.765496 0.383119 0.392836
O O4 0.470420 0.323514 0.424875
O O5 0.113047 0.508427 0.707601
O O6 0.182299 0.389669 0.799136
O O7 0.120911 0.381336 0.624430
O O8 0.873406 0.414200 0.739653
O O9 0.250000 0.750000 0.283804
O O10 0.430474 0.641459 0.266105
O O11 0.460585 0.764619 0.398255
O O12 0.250000 0.250000 0.826569
O O13 0.352581 0.333956 0.954151
O O14 0.750000 0.750000 0.420827
#
# Coordination Sequence:
#
# PCOD9431789 Si02
#       6
#     8   8   8   8   8   8
#     4  10  22  40  69  96 128 170 221 271 321 388
#     4  11  26  43  63  96 139 175 218 266 332 396
#     4  11  21  43  70  97 129 168 223 274 327 385
#     4  11  26  43  64  98 135 179 214 268 336 391
#     4  10  21  42  66  99 127 167 224 272 322 381
#     4  11  22  42  70 100 128 169 225 275 324 385
#
# _framework density 22.587084000000001
#
# number of rings (size 3 to 8) (size 9 to 14) (size 15 to 20)
#    0.000    1.333    5.000    1.000    4.667    2.667 
#    0.000    5.000    0.000    0.000    0.000    0.000 
#    0.000    0.000    0.000    0.000    0.000    0.000 
#
# Total GULP energy -267610.011278 kJ/mol
# GULP energy per Si atom -5575.208568 kJ/mol
# Density = 2.253567 g / cm^3
# Si number density = 22.587084 Si / 1000 Ang^3
#
#
#
# Elastic Constant Matrix: (Units=GPa)
#
#
# Indices 1 2 3 4 5 6 
#
# 1 51.7428 10.7009 0.5945 0.0000 0.0000 0.0000
# 2 10.7009 130.1605 38.1379 0.0000 0.0000 0.0000
# 3 0.5945 38.1379 82.1097 0.0000 0.0000 0.0000
# 4 0.0000 0.0000 0.0000 15.3894 0.0000 0.0000
# 5 0.0000 0.0000 0.0000 0.0000 -15.0714 0.0000
# 6 0.0000 0.0000 0.0000 0.0000 0.0000 35.2183
#
#
#
# Elastic Compliance Matrix: (Units=1/GPa)
#
#
# Indices 1 2 3 4 5 6 
#
# 1 0.019696 -0.001826 0.000706 0.000000 0.000000 0.000000
# 2 -0.001826 0.009062 -0.004196 0.000000 0.000000 0.000000
# 3 0.000706 -0.004196 0.014123 0.000000 0.000000 0.000000
# 4 0.000000 0.000000 0.000000 0.064980 0.000000 0.000000
# 5 0.000000 0.000000 0.000000 0.000000 -0.066351 0.000000
# 6 0.000000 0.000000 0.000000 0.000000 0.000000 0.028394
#
#
# Mechanical properties :
#
#
# Convention : Reuss Voigt Hill
#
# Bulk Modulus (GPa) = 31.00973 40.31995 35.66484
# Shear Modulus (GPa) = 54.77267 21.41260 38.09263
#
# Velocity S-wave (km/s) = 4.92973 3.08230 4.11113
# Velocity P-wave (km/s) = 6.79424 5.52785 6.19350
#
# Compressibility (1/GPa) = 0.03224795
#
# Stress axis : x y z
#
# Youngs Moduli (GPa) = 50.77207 110.34601 70.80818
#
# Poissons Ratio (x) = 0.20149 -0.04996
# Poissons Ratio (y) = 0.09271 0.29711
# Poissons Ratio (z) = -0.03582 0.46302
#
# Static dielectric constant tensor:
#      x y z
#    x 2.203920 0.000000 0.000000 
#    y 0.000000 1.820880 0.000000 
#    z 0.000000 0.000000 1.844120 
# 
# From -- ./inp_files/10669.got.cif
#   From: 2010.05.17/outbox.cif.g08.bks.cpg/sg56_6_cif.got.tgz:10669.got - 2010.06.03 13:42:01.
