data_PCOD9431368
_publ_section_title
;
Structure prediction by ZEFSAII (Michael W. Deem and Ramdas Pophale) SiO2 
 PCOD9431368
Probable space group: P C C N
;
_chemical_formula_sum "Si O2"
_cell_formula_units_Z 40
_cell_length_a 13.836625
_cell_length_b 6.153538
_cell_length_c 22.812313
_cell_angle_alpha 90.000000
_cell_angle_beta 90.000000
_cell_angle_gamma 90.000000
_cell_volume 1942.336089
_symmetry_space_group_name_H-M "P C C N"
_symmetry_group_IT_number 56
_symmetry_cell_setting 'orthorhombic'
loop_
_space_group_symop_operation_xyz
x,y,z
1/2-x,1/2-y,z
1/2+x,-y,1/2-z
-x,1/2+y,1/2-z
-x,-y,-z
1/2+x,1/2+y,-z
1/2-x,y,1/2+z
x,1/2-y,1/2+z
loop_
_atom_site_type_symbol
_atom_site_label
_atom_site_fract_x
_atom_site_fract_y
_atom_site_fract_z
Si Si1 0.847805 0.152611 0.764210
Si Si2 0.384332 0.378538 0.132935
Si Si3 0.497775 0.503264 0.678390
Si Si4 0.150316 0.148530 0.518495
Si Si5 0.030264 0.768225 0.557374
O O1 0.750000 0.250000 0.739010
O O2 0.905963 0.013052 0.716694
O O3 0.919848 0.338721 0.789997
O O4 0.819297 0.005082 0.820471
O O5 0.459646 0.242672 0.171642
O O6 0.344880 0.205422 0.087275
O O7 0.430486 0.557975 0.090233
O O8 0.509537 0.587678 0.611934
O O9 0.250000 0.250000 0.493765
O O10 0.059734 0.260205 0.485987
O O11 0.115864 0.895715 0.522176
#
# Coordination Sequence:
#
# PCOD9431368 Si02
#       5
#     8   8   8   8   8
#     4  11  23  38  62  90 119 162 201 244 303 361
#     4  10  21  37  63  84 120 154 194 255 298 345
#     4  10  21  42  58  87 127 155 199 252 296 360
#     4  10  21  37  61  87 115 155 200 246 297 359
#     4   9  21  40  58  84 121 156 195 246 302 349
#
# _framework density 20.593757
#
# number of rings (size 3 to 8) (size 9 to 14) (size 15 to 20)
#    0.000    2.000    2.000    0.600    8.400    0.000 
#    3.600    0.000    0.000    0.000    0.000    0.000 
#    0.000    0.000    0.000    0.000    0.000    0.000 
#
# Total GULP energy -222771.007173 kJ/mol
# GULP energy per Si atom -5569.275179 kJ/mol
# Density = 2.054688 g / cm^3
# Si number density = 20.593757 Si / 1000 Ang^3
#
#
#
# Elastic Constant Matrix: (Units=GPa)
#
#
# Indices 1 2 3 4 5 6 
#
# 1 92.4367 -5.0911 17.2590 0.0000 0.0000 0.0000
# 2 -5.0911 21.7964 -9.5889 0.0000 0.0000 0.0000
# 3 17.2590 -9.5889 54.2522 0.0000 0.0000 0.0000
# 4 0.0000 0.0000 0.0000 41.6683 0.0000 0.0000
# 5 0.0000 0.0000 0.0000 0.0000 24.1380 0.0000
# 6 0.0000 0.0000 0.0000 0.0000 0.0000 11.4137
#
#
#
# Elastic Compliance Matrix: (Units=1/GPa)
#
#
# Indices 1 2 3 4 5 6 
#
# 1 0.011529 0.001170 -0.003461 0.000000 0.000000 0.000000
# 2 0.001170 0.049866 0.008441 0.000000 0.000000 0.000000
# 3 -0.003461 0.008441 0.021025 0.000000 0.000000 0.000000
# 4 0.000000 0.000000 0.000000 0.023999 0.000000 0.000000
# 5 0.000000 0.000000 0.000000 0.000000 0.041428 0.000000
# 6 0.000000 0.000000 0.000000 0.000000 0.000000 0.087614
#
#
# Mechanical properties :
#
#
# Convention : Reuss Voigt Hill
#
# Bulk Modulus (GPa) = 10.55717 19.29368 14.92543
# Shear Modulus (GPa) = 19.62833 26.50443 23.06638
#
# Velocity S-wave (km/s) = 3.09061 3.59139 3.35037
# Velocity P-wave (km/s) = 4.22769 5.15621 4.71486
#
# Compressibility (1/GPa) = 0.09472239
#
# Stress axis : x y z
#
# Youngs Moduli (GPa) = 86.73899 20.05367 47.56161
#
# Poissons Ratio (x) = -0.02347 0.16460
# Poissons Ratio (y) = -0.10152 -0.40149
# Poissons Ratio (z) = 0.30018 -0.16928
#
# Static dielectric constant tensor:
#      x y z
#    x 1.769060 0.000000 0.000000 
#    y 0.000000 1.825090 0.000000 
#    z 0.000000 0.000000 1.717180 
# 
# From -- ./inp_files/19976.got.cif
#   From: 2010.05.17/outbox.cif.g08.bks.cpg/sg56_10_cif.got.tgz:19976.got - 2010.06.03 13:42:01.
