data_PCOD9431843
_publ_section_title
;
Structure prediction by ZEFSAII (Michael W. Deem and Ramdas Pophale) SiO2 
 PCOD9431843
Probable space group: P C C N
;
_chemical_formula_sum "Si O2"
_cell_formula_units_Z 32
_cell_length_a 13.422441
_cell_length_b 9.934345
_cell_length_c 8.974121
_cell_angle_alpha 90.000000
_cell_angle_beta 90.000000
_cell_angle_gamma 90.000000
_cell_volume 1196.637649
_symmetry_space_group_name_H-M "P C C N"
_symmetry_group_IT_number 56
_symmetry_cell_setting 'orthorhombic'
loop_
_space_group_symop_operation_xyz
x,y,z
1/2-x,1/2-y,z
1/2+x,-y,1/2-z
-x,1/2+y,1/2-z
-x,-y,-z
1/2+x,1/2+y,-z
1/2-x,y,1/2+z
x,1/2-y,1/2+z
loop_
_atom_site_type_symbol
_atom_site_label
_atom_site_fract_x
_atom_site_fract_y
_atom_site_fract_z
Si Si1 0.318552 0.132988 0.617242
Si Si2 0.448159 0.208351 0.360181
Si Si3 0.915666 0.312756 0.106190
Si Si4 0.222185 0.889556 0.774606
O O1 0.250000 0.250000 0.553480
O O2 0.391745 0.112054 0.477176
O O3 0.378390 0.200358 0.754744
O O4 0.245303 0.018879 0.678835
O O5 0.519859 0.132525 0.244116
O O6 0.517642 0.304134 0.461679
O O7 0.879693 0.160741 0.151297
O O8 0.811960 0.391417 0.103893
O O9 0.250000 0.750000 0.686483
#
# Coordination Sequence:
#
# PCOD9431843 Si02
#       4
#     8   8   8   8
#     4  11  23  45  63  99 134 184 217 283 341 414
#     4  10  21  43  68  98 132 174 232 277 335 410
#     4   8  20  43  65 104 122 177 222 289 329 403
#     4   8  21  44  67  96 136 172 225 278 350 391
#
# _framework density 26.741595
#
# number of rings (size 3 to 8) (size 9 to 14) (size 15 to 20)
#    1.500    1.000    0.000    0.750    0.000    6.000 
#   36.000    0.000    0.000    0.000    0.000    0.000 
#    0.000    0.000    0.000    0.000    0.000    0.000 
#
# Total GULP energy -178713.811625 kJ/mol
# GULP energy per Si atom -5584.806613 kJ/mol
# Density = 2.668073 g / cm^3
# Si number density = 26.741595 Si / 1000 Ang^3
#
#
#
# Elastic Constant Matrix: (Units=GPa)
#
#
# Indices 1 2 3 4 5 6 
#
# 1 84.7165 7.5695 46.3899 0.0000 0.0000 0.0000
# 2 7.5695 88.4035 13.8705 0.0000 0.0000 0.0000
# 3 46.3899 13.8705 164.7838 0.0000 0.0000 0.0000
# 4 0.0000 0.0000 0.0000 7.1054 0.0000 0.0000
# 5 0.0000 0.0000 0.0000 0.0000 6168.7404 0.0000
# 6 0.0000 0.0000 0.0000 0.0000 0.0000 15.9241
#
#
#
# Elastic Compliance Matrix: (Units=1/GPa)
#
#
# Indices 1 2 3 4 5 6 
#
# 1 0.013985 -0.000588 -0.003888 0.000000 0.000000 0.000000
# 2 -0.000588 0.011488 -0.000802 0.000000 0.000000 0.000000
# 3 -0.003888 -0.000802 0.007230 0.000000 0.000000 0.000000
# 4 0.000000 0.000000 0.000000 0.140738 0.000000 0.000000
# 5 0.000000 0.000000 0.000000 0.000000 0.000162 0.000000
# 6 0.000000 0.000000 0.000000 0.000000 0.000000 0.062798
#
#
# Mechanical properties :
#
#
# Convention : Reuss Voigt Hill
#
# Bulk Modulus (GPa) = 45.14640 52.61817 48.88229
# Shear Modulus (GPa) = 19.65878 1256.35890 638.00884
#
# Velocity S-wave (km/s) = 2.71429 21.69872 15.46289
# Velocity P-wave (km/s) = 5.17129 25.44599 18.36084
#
# Compressibility (1/GPa) = 0.02215016
#
# Stress axis : x y z
#
# Youngs Moduli (GPa) = 71.50291 87.04851 138.30305
#
# Poissons Ratio (x) = 0.05114 0.53768
# Poissons Ratio (y) = 0.04201 0.11086
# Poissons Ratio (z) = 0.27798 0.06978
#
# Static dielectric constant tensor:
#      x y z
#    x 2.149090 0.000000 0.000000 
#    y 0.000000 2.129850 0.000000 
#    z 0.000000 0.000000 2.041550 
# 
# From -- ./inp_files/3093.got.cif
#   From: 2010.05.17/outbox.cif.g08.bks.cpg/sg56_2_cif.got.tgz:3093.got - 2010.06.03 13:42:01.
