data_PCOD9431834
_publ_section_title
;
Structure prediction by ZEFSAII (Michael W. Deem and Ramdas Pophale) SiO2 
 PCOD9431834
Probable space group: P C C N
;
_chemical_formula_sum "Si O2"
_cell_formula_units_Z 60
_cell_length_a 12.596773
_cell_length_b 8.326651
_cell_length_c 26.648091
_cell_angle_alpha 90.000000
_cell_angle_beta 90.000000
_cell_angle_gamma 90.000000
_cell_volume 2795.089818
_symmetry_space_group_name_H-M "P C C N"
_symmetry_group_IT_number 56
_symmetry_cell_setting 'orthorhombic'
loop_
_space_group_symop_operation_xyz
x,y,z
1/2-x,1/2-y,z
1/2+x,-y,1/2-z
-x,1/2+y,1/2-z
-x,-y,-z
1/2+x,1/2+y,-z
1/2-x,y,1/2+z
x,1/2-y,1/2+z
loop_
_atom_site_type_symbol
_atom_site_label
_atom_site_fract_x
_atom_site_fract_y
_atom_site_fract_z
Si Si1 0.371543 0.694034 0.405015
Si Si2 0.250000 0.250000 0.608978
Si Si3 0.456328 0.223086 0.175219
Si Si4 0.003635 0.138880 0.826189
Si Si5 0.477606 0.577663 0.742143
Si Si6 0.179882 0.899854 0.097648
Si Si7 0.131677 0.185929 0.413852
Si Si8 0.967100 0.183324 0.991293
O O1 0.250000 0.750000 0.402829
O O2 0.444958 0.765499 0.360846
O O3 0.371048 0.502206 0.403288
O O4 0.427558 0.744146 0.456871
O O5 0.148019 0.207610 0.642520
O O6 0.227142 0.424157 0.583553
O O7 0.433105 0.341872 0.222129
O O8 0.492361 0.055697 0.200240
O O9 0.079257 0.226000 0.865955
O O10 0.943082 0.266383 0.789415
O O11 0.912076 0.064200 0.861419
O O12 0.071902 0.026227 0.788248
O O13 0.250000 0.750000 0.117889
O O14 0.127665 0.823237 0.048535
O O15 0.250000 0.250000 0.421176
O O16 0.062206 0.225004 0.463273
O O17 0.000000 0.000000 0.000000
#
# Coordination Sequence:
#
# PCOD9431834 Si02
#       8
#     8   4   8   8   8   8   8   8
#     4  12  26  48  73 106 144 187 237 292 366 440
#     4  12  24  44  74 106 144 192 246 300 368 442
#     4  11  24  46  69 104 142 185 239 300 359 438
#     4  10  21  43  65  98 140 180 238 294 360 431
#     4  10  21  43  68  94 140 184 235 297 358 425
#     4  11  24  43  70 100 140 184 232 297 359 428
#     4  11  25  45  72 103 140 188 235 300 363 438
#     4  11  25  48  71 101 141 179 237 292 360 440
#
# _framework density 21.466214999999998
#
# number of rings (size 3 to 8) (size 9 to 14) (size 15 to 20)
#    0.000    1.067    2.667    3.200    5.600    0.000 
#   19.200    1.333    0.000    0.000    0.000    0.000 
#    0.000    0.000    0.000    0.000    0.000    0.000 
#
# Total GULP energy -334209.724248 kJ/mol
# GULP energy per Si atom -5570.162071 kJ/mol
# Density = 2.141736 g / cm^3
# Si number density = 21.466215 Si / 1000 Ang^3
#
#
#
# Elastic Constant Matrix: (Units=GPa)
#
#
# Indices 1 2 3 4 5 6 
#
# 1 104.5966 41.4993 33.2597 0.0000 0.0000 0.0000
# 2 41.4993 91.0051 31.9385 0.0000 0.0000 0.0000
# 3 33.2597 31.9385 82.1648 0.0000 0.0000 0.0000
# 4 0.0000 0.0000 0.0000 21.1153 0.0000 0.0000
# 5 0.0000 0.0000 0.0000 0.0000 11.4539 0.0000
# 6 0.0000 0.0000 0.0000 0.0000 0.0000 19.0459
#
#
#
# Elastic Compliance Matrix: (Units=1/GPa)
#
#
# Indices 1 2 3 4 5 6 
#
# 1 0.012384 -0.004502 -0.003263 0.000000 0.000000 0.000000
# 2 -0.004502 0.014361 -0.003760 0.000000 0.000000 0.000000
# 3 -0.003263 -0.003760 0.014953 0.000000 0.000000 0.000000
# 4 0.000000 0.000000 0.000000 0.047359 0.000000 0.000000
# 5 0.000000 0.000000 0.000000 0.000000 0.087307 0.000000
# 6 0.000000 0.000000 0.000000 0.000000 0.000000 0.052505
#
#
# Mechanical properties :
#
#
# Convention : Reuss Voigt Hill
#
# Bulk Modulus (GPa) = 53.62452 54.57351 54.09902
# Shear Modulus (GPa) = 19.36970 21.72761 20.54865
#
# Velocity S-wave (km/s) = 3.00715 3.18492 3.09731
# Velocity P-wave (km/s) = 6.09035 6.24525 6.16829
#
# Compressibility (1/GPa) = 0.01864819
#
# Stress axis : x y z
#
# Youngs Moduli (GPa) = 80.74663 69.63302 66.87611
#
# Poissons Ratio (x) = 0.31351 0.21822
# Poissons Ratio (y) = 0.36354 0.25144
# Poissons Ratio (z) = 0.26348 0.26181
#
# Static dielectric constant tensor:
#      x y z
#    x 1.774240 0.000000 0.000000 
#    y 0.000000 1.905330 0.000000 
#    z 0.000000 0.000000 1.792540 
# 
# From -- ./inp_files/22320.got.cif
#   From: 2010.05.17/outbox.cif.g08.bks.cpg/sg56_12_cif.got.tgz:22320.got - 2010.06.03 13:42:01.
