data_PCOD9431803
_publ_section_title
;
Structure prediction by ZEFSAII (Michael W. Deem and Ramdas Pophale) SiO2 
 PCOD9431803
Probable space group: P C C N
;
_chemical_formula_sum "Si O2"
_cell_formula_units_Z 60
_cell_length_a 5.665723
_cell_length_b 25.212029
_cell_length_c 17.930528
_cell_angle_alpha 90.000000
_cell_angle_beta 90.000000
_cell_angle_gamma 90.000000
_cell_volume 2561.275022
_symmetry_space_group_name_H-M "P C C N"
_symmetry_group_IT_number 56
_symmetry_cell_setting 'orthorhombic'
loop_
_space_group_symop_operation_xyz
x,y,z
1/2-x,1/2-y,z
1/2+x,-y,1/2-z
-x,1/2+y,1/2-z
-x,-y,-z
1/2+x,1/2+y,-z
1/2-x,y,1/2+z
x,1/2-y,1/2+z
loop_
_atom_site_type_symbol
_atom_site_label
_atom_site_fract_x
_atom_site_fract_y
_atom_site_fract_z
Si Si1 0.750000 0.750000 0.041690
Si Si2 0.971125 0.105715 0.111031
Si Si3 0.364337 0.332291 0.563008
Si Si4 0.878792 0.528000 0.727532
Si Si5 0.860291 0.099780 0.466492
Si Si6 0.875254 0.307138 0.368933
Si Si7 0.114351 0.996090 0.080724
Si Si8 0.588294 0.365942 0.715520
O O1 0.624164 0.706196 0.092048
O O2 0.920544 0.719575 0.984199
O O3 0.099412 0.160466 0.092059
O O4 0.835056 0.107978 0.189075
O O5 0.150089 0.055899 0.108917
O O6 0.794691 0.096005 0.042257
O O7 0.399131 0.379333 0.502007
O O8 0.508748 0.338379 0.638760
O O9 0.119232 0.496957 0.757032
O O10 0.929611 0.528833 0.638945
O O11 0.913718 0.587285 0.758802
O O12 0.754265 0.145756 0.413941
O O13 0.836401 0.043385 0.425799
O O14 0.750000 0.250000 0.372421
O O15 0.891796 0.326262 0.284083
O O16 0.000000 0.000000 0.000000
#
# Coordination Sequence:
#
# PCOD9431803 Si02
#       8
#     4   8   8   8   8   8   8   8
#     4  12  26  44  74  98 134 192 250 312 376 446
#     4  10  21  43  68 101 139 181 234 283 363 454
#     4  11  24  44  71  99 135 191 239 302 373 454
#     4  12  25  48  72 107 154 204 243 303 381 461
#     4  10  21  42  68  99 136 179 233 294 363 432
#     4  12  25  47  68 101 138 182 245 310 373 436
#     4  10  21  42  70 106 144 187 242 295 368 451
#     4  11  26  43  70 104 146 189 240 307 376 454
#
# _framework density 23.425833000000001
#
# number of rings (size 3 to 8) (size 9 to 14) (size 15 to 20)
#    0.000    1.067    5.333    0.800    0.000    3.200 
#    7.200    0.000    0.000    0.000    0.000    0.000 
#    0.000    0.000    0.000    0.000    0.000    0.000 
#
# Total GULP energy -334881.311125 kJ/mol
# GULP energy per Si atom -5581.355185 kJ/mol
# Density = 2.337251 g / cm^3
# Si number density = 23.425833 Si / 1000 Ang^3
#
#
#
# Elastic Constant Matrix: (Units=GPa)
#
#
# Indices 1 2 3 4 5 6 
#
# 1 47.5614 20.0016 24.8188 0.0000 0.0000 0.0000
# 2 20.0016 104.3388 57.5802 0.0000 0.0000 0.0000
# 3 24.8188 57.5802 168.6204 0.0000 0.0000 0.0000
# 4 0.0000 0.0000 0.0000 43.2377 0.0000 0.0000
# 5 0.0000 0.0000 0.0000 0.0000 23.2377 0.0000
# 6 0.0000 0.0000 0.0000 0.0000 0.0000 25.4689
#
#
#
# Elastic Compliance Matrix: (Units=1/GPa)
#
#
# Indices 1 2 3 4 5 6 
#
# 1 0.023619 -0.003215 -0.002379 0.000000 0.000000 0.000000
# 2 -0.003215 0.012247 -0.003709 0.000000 0.000000 0.000000
# 3 -0.002379 -0.003709 0.007547 0.000000 0.000000 0.000000
# 4 0.000000 0.000000 0.000000 0.023128 0.000000 0.000000
# 5 0.000000 0.000000 0.000000 0.000000 0.043034 0.000000
# 6 0.000000 0.000000 0.000000 0.000000 0.000000 0.039264
#
#
# Mechanical properties :
#
#
# Convention : Reuss Voigt Hill
#
# Bulk Modulus (GPa) = 40.30956 58.36911 49.33933
# Shear Modulus (GPa) = 28.45556 32.93019 30.69287
#
# Velocity S-wave (km/s) = 3.48905 3.75336 3.62362
# Velocity P-wave (km/s) = 5.78584 6.61470 6.21411
#
# Compressibility (1/GPa) = 0.02480801
#
# Stress axis : x y z
#
# Youngs Moduli (GPa) = 42.33932 81.65059 132.50122
#
# Poissons Ratio (x) = 0.26251 0.31515
# Poissons Ratio (y) = 0.13612 0.49144
# Poissons Ratio (z) = 0.10070 0.30284
#
# Static dielectric constant tensor:
#      x y z
#    x 1.962530 0.000000 0.000000 
#    y 0.000000 1.939380 0.000000 
#    z 0.000000 0.000000 1.867510 
# 
# From -- ./inp_files/14118.got.cif
#   From: 2010.05.17/outbox.cif.g08.bks.cpg/sg56_8_cif.got.tgz:14118.got - 2010.06.03 13:42:01.
