data_PCOD9431693
_publ_section_title
;
Structure prediction by ZEFSAII (Michael W. Deem and Ramdas Pophale) SiO2 
 PCOD9431693
Probable space group: P C C N
;
_chemical_formula_sum "Si O2"
_cell_formula_units_Z 64
_cell_length_a 12.809434
_cell_length_b 25.820084
_cell_length_c 8.336110
_cell_angle_alpha 90.000000
_cell_angle_beta 90.000000
_cell_angle_gamma 90.000000
_cell_volume 2757.090539
_symmetry_space_group_name_H-M "P C C N"
_symmetry_group_IT_number 56
_symmetry_cell_setting 'orthorhombic'
loop_
_space_group_symop_operation_xyz
x,y,z
1/2-x,1/2-y,z
1/2+x,-y,1/2-z
-x,1/2+y,1/2-z
-x,-y,-z
1/2+x,1/2+y,-z
1/2-x,y,1/2+z
x,1/2-y,1/2+z
loop_
_atom_site_type_symbol
_atom_site_label
_atom_site_fract_x
_atom_site_fract_y
_atom_site_fract_z
Si Si1 0.999677 0.292528 0.797184
Si Si2 0.947674 0.921276 0.040885
Si Si3 0.383468 0.523171 0.814728
Si Si4 0.838269 0.793341 0.167878
Si Si5 0.679200 0.649607 0.843229
Si Si6 0.635807 0.264102 0.591768
Si Si7 0.298656 0.924787 0.002298
Si Si8 0.872337 0.137751 0.798596
O O1 0.918876 0.289021 0.651171
O O2 0.935158 0.291830 0.959625
O O3 0.059238 0.237234 0.784780
O O4 0.086806 0.336789 0.782430
O O5 0.016201 0.875275 0.119964
O O6 0.913353 0.963121 0.172065
O O7 0.849317 0.902112 0.937011
O O8 0.026013 0.947540 0.913335
O O9 0.365654 0.547546 0.640210
O O10 0.277600 0.534390 0.914311
O O11 0.750000 0.750000 0.190622
O O12 0.792669 0.841593 0.268071
O O13 0.836959 0.807845 0.982492
O O14 0.750000 0.250000 0.533267
O O15 0.645183 0.303783 0.741005
O O16 0.220984 0.883186 0.087676
O O17 0.363061 0.896828 0.862984
#
# Coordination Sequence:
#
# PCOD9431693 Si02
#       8
#     8   8   8   8   8   8   8   8
#     4  11  24  42  63  88 130 174 215 273 329 383
#     4  10  22  41  61  96 129 172 212 286 327 400
#     4   9  20  40  66  89 131 167 217 266 349 391
#     4  10  21  41  62  88 118 170 214 266 329 378
#     4  11  23  39  66  89 125 163 223 271 322 391
#     4  12  27  40  62  96 134 178 220 275 318 393
#     4   9  20  40  65  92 124 179 214 271 326 417
#     4  10  23  39  63  91 134 172 225 265 337 389
#
# _framework density 23.212876000000001
#
# number of rings (size 3 to 8) (size 9 to 14) (size 15 to 20)
#    0.000    1.750    1.250    2.250    7.000    2.500 
#    0.000    0.000    0.000    0.000    0.000    0.000 
#    0.000    0.000    0.000    0.000    0.000    0.000 
#
# Total GULP energy -357896.756849 kJ/mol
# GULP energy per Si atom -5592.136826 kJ/mol
# Density = 2.316004 g / cm^3
# Si number density = 23.212876 Si / 1000 Ang^3
#
#
#
# Elastic Constant Matrix: (Units=GPa)
#
#
# Indices 1 2 3 4 5 6 
#
# 1 74.9975 10.3147 16.2622 0.0000 0.0000 0.0000
# 2 10.3147 64.1089 0.5575 0.0000 0.0000 0.0000
# 3 16.2622 0.5575 78.7548 0.0000 0.0000 0.0000
# 4 0.0000 0.0000 0.0000 29.3384 0.0000 0.0000
# 5 0.0000 0.0000 0.0000 0.0000 33.0778 0.0000
# 6 0.0000 0.0000 0.0000 0.0000 0.0000 20.0230
#
#
#
# Elastic Compliance Matrix: (Units=1/GPa)
#
#
# Indices 1 2 3 4 5 6 
#
# 1 0.014282 -0.002272 -0.002933 0.000000 0.000000 0.000000
# 2 -0.002272 0.015961 0.000356 0.000000 0.000000 0.000000
# 3 -0.002933 0.000356 0.013301 0.000000 0.000000 0.000000
# 4 0.000000 0.000000 0.000000 0.034085 0.000000 0.000000
# 5 0.000000 0.000000 0.000000 0.000000 0.030232 0.000000
# 6 0.000000 0.000000 0.000000 0.000000 0.000000 0.049943
#
#
# Mechanical properties :
#
#
# Convention : Reuss Voigt Hill
#
# Bulk Modulus (GPa) = 29.54599 30.23667 29.89133
# Shear Modulus (GPa) = 27.96674 29.20296 28.58485
#
# Velocity S-wave (km/s) = 3.47478 3.55075 3.51297
# Velocity P-wave (km/s) = 5.37166 5.46484 5.41845
#
# Compressibility (1/GPa) = 0.03384554
#
# Stress axis : x y z
#
# Youngs Moduli (GPa) = 70.01669 62.65277 75.18361
#
# Poissons Ratio (x) = 0.14237 0.22052
# Poissons Ratio (y) = 0.15911 -0.02678
# Poissons Ratio (z) = 0.20536 -0.02232
#
# Static dielectric constant tensor:
#      x y z
#    x 1.886420 0.000000 0.000000 
#    y 0.000000 1.916690 0.000000 
#    z 0.000000 0.000000 1.856590 
# 
# From -- ./inp_files/2960.got.cif
#   From: 2010.05.17/outbox.cif.g08.bks.cpg/sg56_2_cif.got.tgz:2960.got - 2010.06.03 13:42:01.
