data_PCOD9431498
_publ_section_title
;
Structure prediction by ZEFSAII (Michael W. Deem and Ramdas Pophale) SiO2 
 PCOD9431498
Probable space group: P C C N
;
_chemical_formula_sum "Si O2"
_cell_formula_units_Z 48
_cell_length_a 8.893975
_cell_length_b 29.095339
_cell_length_c 9.489176
_cell_angle_alpha 90.000000
_cell_angle_beta 90.000000
_cell_angle_gamma 90.000000
_cell_volume 2455.544607
_symmetry_space_group_name_H-M "P C C N"
_symmetry_group_IT_number 56
_symmetry_cell_setting 'orthorhombic'
loop_
_space_group_symop_operation_xyz
x,y,z
1/2-x,1/2-y,z
1/2+x,-y,1/2-z
-x,1/2+y,1/2-z
-x,-y,-z
1/2+x,1/2+y,-z
1/2-x,y,1/2+z
x,1/2-y,1/2+z
loop_
_atom_site_type_symbol
_atom_site_label
_atom_site_fract_x
_atom_site_fract_y
_atom_site_fract_z
Si Si1 0.419522 0.487981 0.644569
Si Si2 0.933698 0.615416 0.805995
Si Si3 0.841136 0.632388 0.497456
Si Si4 0.563265 0.283966 0.031510
Si Si5 0.630887 0.299092 0.701565
Si Si6 0.068409 0.035087 0.111473
O O1 0.500000 0.500000 0.500000
O O2 0.476943 0.437872 0.693918
O O3 0.469359 0.527352 0.750951
O O4 0.240844 0.480602 0.635746
O O5 0.840093 0.626567 0.665131
O O6 0.824755 0.627665 0.934938
O O7 0.073373 0.649171 0.804382
O O8 0.928564 0.587548 0.438858
O O9 0.929222 0.679104 0.459545
O O10 0.703640 0.297798 0.132439
O O11 0.530909 0.233854 0.098901
O O12 0.613768 0.283434 0.865975
O O13 0.000000 0.000000 0.000000
#
# Coordination Sequence:
#
# PCOD9431498 Si02
#       6
#     8   8   8   8   8   8
#     4  11  24  40  62  91 120 165 203 251 307 354
#     4  10  23  41  60  86 120 155 199 241 298 354
#     4  10  23  40  61  86 119 157 195 246 294 354
#     4  10  21  39  60  89 119 153 196 244 298 350
#     4  10  21  39  61  88 120 153 195 246 294 356
#     4  11  22  42  62  87 126 157 206 251 297 363
#
# _framework density 19.547599999999999
#
# number of rings (size 3 to 8) (size 9 to 14) (size 15 to 20)
#    0.000    1.667    1.667    3.000    7.000    6.000 
#    0.000    3.333    0.000    0.000    0.000    0.000 
#    0.000    0.000    0.000    0.000    0.000    0.000 
#
# Total GULP energy -267784.683971 kJ/mol
# GULP energy per Si atom -5578.847583 kJ/mol
# Density = 1.950311 g / cm^3
# Si number density = 19.547600 Si / 1000 Ang^3
#
#
#
# Elastic Constant Matrix: (Units=GPa)
#
#
# Indices 1 2 3 4 5 6 
#
# 1 16.0813 6.4796 -5.0737 0.0000 0.0000 0.0000
# 2 6.4796 48.3359 -15.2152 0.0000 0.0000 0.0000
# 3 -5.0737 -15.2152 74.2208 0.0000 0.0000 0.0000
# 4 0.0000 0.0000 0.0000 24.1010 0.0000 0.0000
# 5 0.0000 0.0000 0.0000 0.0000 27.8688 0.0000
# 6 0.0000 0.0000 0.0000 0.0000 0.0000 35.8506
#
#
#
# Elastic Compliance Matrix: (Units=1/GPa)
#
#
# Indices 1 2 3 4 5 6 
#
# 1 0.066313 -0.007977 0.002898 0.000000 0.000000 0.000000
# 2 -0.007977 0.023075 0.004185 0.000000 0.000000 0.000000
# 3 0.002898 0.004185 0.014529 0.000000 0.000000 0.000000
# 4 0.000000 0.000000 0.000000 0.041492 0.000000 0.000000
# 5 0.000000 0.000000 0.000000 0.000000 0.035882 0.000000
# 6 0.000000 0.000000 0.000000 0.000000 0.000000 0.027894
#
#
# Mechanical properties :
#
#
# Convention : Reuss Voigt Hill
#
# Bulk Modulus (GPa) = 9.79158 12.33548 11.06353
# Shear Modulus (GPa) = 20.40676 27.72724 24.06700
#
# Velocity S-wave (km/s) = 3.23453 3.77031 3.51265
# Velocity P-wave (km/s) = 4.35540 5.02771 4.70358
#
# Compressibility (1/GPa) = 0.10212854
#
# Stress axis : x y z
#
# Youngs Moduli (GPa) = 15.08008 43.33638 68.82620
#
# Poissons Ratio (x) = 0.34570 -0.19944
# Poissons Ratio (y) = 0.12030 -0.28805
# Poissons Ratio (z) = -0.04370 -0.18137
#
# Static dielectric constant tensor:
#      x y z
#    x 1.664770 0.000000 0.000000 
#    y 0.000000 1.691370 0.000000 
#    z 0.000000 0.000000 1.636920 
# 
# From -- ./inp_files/2224.got.cif
#   From: 2010.05.17/outbox.cif.g08.bks.cpg/sg56_2_cif.got.tgz:2224.got - 2010.06.03 13:42:01.
