data_PCOD9431665
_publ_section_title
;
Structure prediction by ZEFSAII (Michael W. Deem and Ramdas Pophale) SiO2 
 PCOD9431665
Probable space group: P C C N
;
_chemical_formula_sum "Si O2"
_cell_formula_units_Z 48
_cell_length_a 29.814056
_cell_length_b 8.396971
_cell_length_c 9.069838
_cell_angle_alpha 90.000000
_cell_angle_beta 90.000000
_cell_angle_gamma 90.000000
_cell_volume 2270.613660
_symmetry_space_group_name_H-M "P C C N"
_symmetry_group_IT_number 56
_symmetry_cell_setting 'orthorhombic'
loop_
_space_group_symop_operation_xyz
x,y,z
1/2-x,1/2-y,z
1/2+x,-y,1/2-z
-x,1/2+y,1/2-z
-x,-y,-z
1/2+x,1/2+y,-z
1/2-x,y,1/2+z
x,1/2-y,1/2+z
loop_
_atom_site_type_symbol
_atom_site_label
_atom_site_fract_x
_atom_site_fract_y
_atom_site_fract_z
Si Si1 0.788280 0.954729 0.003097
Si Si2 0.898389 0.122714 0.460525
Si Si3 0.750000 0.250000 0.837007
Si Si4 0.037235 0.074088 0.392229
Si Si5 0.021519 0.631212 0.607492
Si Si6 0.750000 0.750000 0.264450
Si Si7 0.342579 0.824495 0.328353
O O1 0.768632 0.882003 0.153313
O O2 0.834218 0.037568 0.050913
O O3 0.787120 0.822270 0.875374
O O4 0.757506 0.095615 0.938391
O O5 0.938105 0.257795 0.455007
O O6 0.875125 0.121212 0.302105
O O7 0.863304 0.179113 0.582557
O O8 0.918148 0.954116 0.513285
O O9 0.705145 0.224654 0.741748
O O10 0.018917 0.247495 0.351987
O O11 0.039389 0.963316 0.248830
O O12 0.000000 0.000000 0.500000
O O13 0.000000 0.500000 0.500000
#
# Coordination Sequence:
#
# PCOD9431665 Si02
#       7
#     8   8   4   8   8   4   8
#     4  11  23  42  68  98 134 186 242 301 354 425
#     4  11  24  42  67 103 146 177 233 303 343 424
#     4  12  24  40  78  98 130 196 256 288 360 420
#     4  10  21  40  68 101 132 180 224 275 350 420
#     4  11  23  43  74 100 138 183 223 283 356 436
#     4  10  24  42  66  96 138 178 250 300 360 418
#     4  12  24  41  69 101 140 183 248 293 352 412
#
# _framework density 21.139659000000002
#
# number of rings (size 3 to 8) (size 9 to 14) (size 15 to 20)
#    0.000    1.000    5.000    2.500    2.333    0.000 
#    0.000    1.667    0.000    0.000    0.000    0.000 
#    0.000    0.000    0.000    0.000    0.000    0.000 
#
# Total GULP energy -268073.930222 kJ/mol
# GULP energy per Si atom -5584.873546 kJ/mol
# Density = 2.109154 g / cm^3
# Si number density = 21.139659 Si / 1000 Ang^3
#
#
#
# Elastic Constant Matrix: (Units=GPa)
#
#
# Indices 1 2 3 4 5 6 
#
# 1 71.0161 27.6914 21.4622 0.0000 0.0000 0.0000
# 2 27.6914 84.8685 23.4299 0.0000 0.0000 0.0000
# 3 21.4622 23.4299 98.8074 0.0000 0.0000 0.0000
# 4 0.0000 0.0000 0.0000 41.6346 0.0000 0.0000
# 5 0.0000 0.0000 0.0000 0.0000 46.2316 0.0000
# 6 0.0000 0.0000 0.0000 0.0000 0.0000 34.4741
#
#
#
# Elastic Compliance Matrix: (Units=1/GPa)
#
#
# Indices 1 2 3 4 5 6 
#
# 1 0.016691 -0.004756 -0.002498 0.000000 0.000000 0.000000
# 2 -0.004756 0.013964 -0.002278 0.000000 0.000000 0.000000
# 3 -0.002498 -0.002278 0.011203 0.000000 0.000000 0.000000
# 4 0.000000 0.000000 0.000000 0.024019 0.000000 0.000000
# 5 0.000000 0.000000 0.000000 0.000000 0.021630 0.000000
# 6 0.000000 0.000000 0.000000 0.000000 0.000000 0.029007
#
#
# Mechanical properties :
#
#
# Convention : Reuss Voigt Hill
#
# Bulk Modulus (GPa) = 43.87141 44.42875 44.15008
# Shear Modulus (GPa) = 34.92203 36.60862 35.76532
#
# Velocity S-wave (km/s) = 4.06885 4.16595 4.11768
# Velocity P-wave (km/s) = 6.54769 6.64850 6.59829
#
# Compressibility (1/GPa) = 0.02279389
#
# Stress axis : x y z
#
# Youngs Moduli (GPa) = 59.91321 71.61373 89.25876
#
# Poissons Ratio (x) = 0.34063 0.22293
# Poissons Ratio (y) = 0.28497 0.20333
# Poissons Ratio (z) = 0.14964 0.16314
#
# Static dielectric constant tensor:
#      x y z
#    x 1.667110 0.000000 0.000000 
#    y 0.000000 1.831420 0.000000 
#    z 0.000000 0.000000 1.773670 
# 
# From -- ./inp_files/2279.got.cif
#   From: 2010.05.17/outbox.cif.g08.bks.cpg/sg56_2_cif.got.tgz:2279.got - 2010.06.03 13:42:01.
