data_PCOD9431343
_publ_section_title
;
Structure prediction by ZEFSAII (Michael W. Deem and Ramdas Pophale) SiO2 
 PCOD9431343
Probable space group: P C C N
;
_chemical_formula_sum "Si O2"
_cell_formula_units_Z 40
_cell_length_a 12.124948
_cell_length_b 24.337609
_cell_length_c 5.441167
_cell_angle_alpha 90.000000
_cell_angle_beta 90.000000
_cell_angle_gamma 90.000000
_cell_volume 1605.646178
_symmetry_space_group_name_H-M "P C C N"
_symmetry_group_IT_number 56
_symmetry_cell_setting 'orthorhombic'
loop_
_space_group_symop_operation_xyz
x,y,z
1/2-x,1/2-y,z
1/2+x,-y,1/2-z
-x,1/2+y,1/2-z
-x,-y,-z
1/2+x,1/2+y,-z
1/2-x,y,1/2+z
x,1/2-y,1/2+z
loop_
_atom_site_type_symbol
_atom_site_label
_atom_site_fract_x
_atom_site_fract_y
_atom_site_fract_z
Si Si1 0.722856 0.870246 0.056466
Si Si2 0.478123 0.876311 0.243172
Si Si3 0.180766 0.528645 0.059109
Si Si4 0.706644 0.188183 0.881231
Si Si5 0.430175 0.448627 0.881969
O O1 0.767030 0.840811 0.297951
O O2 0.594845 0.877998 0.111245
O O3 0.808266 0.923317 0.036814
O O4 0.395313 0.919024 0.114347
O O5 0.418807 0.818418 0.205416
O O6 0.496185 0.897516 0.523206
O O7 0.270901 0.528816 0.283544
O O8 0.104056 0.476253 0.124989
O O9 0.750000 0.250000 0.907882
O O10 0.771600 0.162929 0.649194
O O11 0.500000 0.500000 0.000000
#
# Coordination Sequence:
#
# PCOD9431343 Si02
#       5
#     8   8   8   8   8
#     4  10  21  37  55  84 120 159 211 258 304 366
#     4  10  21  37  61  88 121 166 208 259 318 374
#     4  11  22  36  54  82 123 167 213 256 301 367
#     4  10  22  41  64  94 125 156 202 259 324 394
#     4   9  20  37  55  80 118 164 208 252 298 357
#
# _framework density 24.912089000000002
#
# number of rings (size 3 to 8) (size 9 to 14) (size 15 to 20)
#    0.000    2.000    0.000    3.600    0.000    8.000 
#    0.000   11.000    0.000    0.000    0.000   67.200 
#    0.000    0.000    0.000    0.000    0.000    0.000 
#
# Total GULP energy -222715.640604 kJ/mol
# GULP energy per Si atom -5567.891015 kJ/mol
# Density = 2.485539 g / cm^3
# Si number density = 24.912089 Si / 1000 Ang^3
#
#
#
# Elastic Constant Matrix: (Units=GPa)
#
#
# Indices 1 2 3 4 5 6 
#
# 1 124.0137 24.9488 32.0941 0.0000 0.0000 0.0000
# 2 24.9488 48.4560 -2.0068 0.0000 0.0000 0.0000
# 3 32.0941 -2.0068 152.7134 0.0000 0.0000 0.0000
# 4 0.0000 0.0000 0.0000 11.0271 0.0000 0.0000
# 5 0.0000 0.0000 0.0000 0.0000 58.4085 0.0000
# 6 0.0000 0.0000 0.0000 0.0000 0.0000 43.1580
#
#
#
# Elastic Compliance Matrix: (Units=1/GPa)
#
#
# Indices 1 2 3 4 5 6 
#
# 1 0.009617 -0.005038 -0.002087 0.000000 0.000000 0.000000
# 2 -0.005038 0.023288 0.001365 0.000000 0.000000 0.000000
# 3 -0.002087 0.001365 0.007005 0.000000 0.000000 0.000000
# 4 0.000000 0.000000 0.000000 0.090685 0.000000 0.000000
# 5 0.000000 0.000000 0.000000 0.000000 0.017121 0.000000
# 6 0.000000 0.000000 0.000000 0.000000 0.000000 0.023171
#
#
# Mechanical properties :
#
#
# Convention : Reuss Voigt Hill
#
# Bulk Modulus (GPa) = 35.22543 48.36171 41.79357
# Shear Modulus (GPa) = 26.05912 40.52853 33.29382
#
# Velocity S-wave (km/s) = 3.23777 4.03781 3.65972
# Velocity P-wave (km/s) = 5.30548 6.41823 5.88820
#
# Compressibility (1/GPa) = 0.02838858
#
# Stress axis : x y z
#
# Youngs Moduli (GPa) = 103.97808 42.94081 142.75857
#
# Poissons Ratio (x) = 0.21635 0.29799
# Poissons Ratio (y) = 0.52386 -0.19484
# Poissons Ratio (z) = 0.21704 -0.05861
#
# Static dielectric constant tensor:
#      x y z
#    x 2.057790 0.000000 0.000000 
#    y 0.000000 2.121170 0.000000 
#    z 0.000000 0.000000 2.164580 
# 
# From -- ./inp_files/304.got.cif
#   From: 2010.05.17/outbox.cif.g08.bks.cpg/sg56_1_cif.got.tgz:304.got - 2010.06.03 13:42:01.
