data_PCOD9431999
_publ_section_title
;
Structure prediction by ZEFSAII (Michael W. Deem and Ramdas Pophale) SiO2 
 PCOD9431999
Probable space group: P C C N
;
_chemical_formula_sum "Si O2"
_cell_formula_units_Z 60
_cell_length_a 20.084889
_cell_length_b 6.907383
_cell_length_c 22.505380
_cell_angle_alpha 90.000000
_cell_angle_beta 90.000000
_cell_angle_gamma 90.000000
_cell_volume 3122.261858
_symmetry_space_group_name_H-M "P C C N"
_symmetry_group_IT_number 56
_symmetry_cell_setting 'orthorhombic'
loop_
_space_group_symop_operation_xyz
x,y,z
1/2-x,1/2-y,z
1/2+x,-y,1/2-z
-x,1/2+y,1/2-z
-x,-y,-z
1/2+x,1/2+y,-z
1/2-x,y,1/2+z
x,1/2-y,1/2+z
loop_
_atom_site_type_symbol
_atom_site_label
_atom_site_fract_x
_atom_site_fract_y
_atom_site_fract_z
Si Si1 0.645276 0.141406 0.458788
Si Si2 0.313614 0.113589 0.181168
Si Si3 0.448264 0.179509 0.504762
Si Si4 0.324059 0.334447 0.821051
Si Si5 0.566273 0.992181 0.901276
Si Si6 0.750000 0.250000 0.866584
Si Si7 0.924646 0.572549 0.115205
Si Si8 0.672667 0.207760 0.596789
O O1 0.598766 0.320763 0.435160
O O2 0.703299 0.132077 0.411019
O O3 0.669531 0.177681 0.525735
O O4 0.612125 0.933155 0.464720
O O5 0.250000 0.250000 0.165675
O O6 0.327841 0.139217 0.250486
O O7 0.377648 0.117019 0.137571
O O8 0.290592 0.893687 0.173421
O O9 0.466253 0.349668 0.549880
O O10 0.429600 0.288941 0.443746
O O11 0.500000 0.000000 0.500000
O O12 0.250000 0.250000 0.835640
O O13 0.379666 0.181397 0.837840
O O14 0.340202 0.521989 0.861510
O O15 0.501088 0.051074 0.864437
O O16 0.883123 0.374041 0.105682
O O17 0.750000 0.250000 0.611156
#
# Coordination Sequence:
#
# PCOD9431999 Si02
#       8
#     8   8   8   8   8   4   8   8
#     4  11  21  37  63  98 131 162 212 259 332 383
#     4  10  24  47  68  92 127 176 225 267 321 383
#     4  12  22  37  63  93 134 176 205 257 335 403
#     4  11  25  44  66  91 124 175 226 268 320 389
#     4  11  24  42  63  97 134 171 212 272 326 395
#     4  10  22  38  66  98 124 164 212 272 314 386
#     4  12  24  40  63  97 134 169 216 266 332 391
#     4  12  23  39  64  97 132 170 214 274 327 391
#
# _framework density 19.216839
#
# number of rings (size 3 to 8) (size 9 to 14) (size 15 to 20)
#    0.000    0.800    6.000    2.000    0.933    0.000 
#    2.400    1.333    0.000    0.000    0.000    0.000 
#    0.000    0.000    0.000    0.000    0.000    0.000 
#
# Total GULP energy -334376.541734 kJ/mol
# GULP energy per Si atom -5572.942362 kJ/mol
# Density = 1.917310 g / cm^3
# Si number density = 19.216839 Si / 1000 Ang^3
#
#
#
# Elastic Constant Matrix: (Units=GPa)
#
#
# Indices 1 2 3 4 5 6 
#
# 1 110.9425 28.8547 45.7544 0.0000 0.0000 0.0000
# 2 28.8547 71.1123 47.0336 0.0000 0.0000 0.0000
# 3 45.7544 47.0336 99.8842 0.0000 0.0000 0.0000
# 4 0.0000 0.0000 0.0000 18.0724 0.0000 0.0000
# 5 0.0000 0.0000 0.0000 0.0000 15.0344 0.0000
# 6 0.0000 0.0000 0.0000 0.0000 0.0000 42.5118
#
#
#
# Elastic Compliance Matrix: (Units=1/GPa)
#
#
# Indices 1 2 3 4 5 6 
#
# 1 0.011250 -0.001679 -0.004362 0.000000 0.000000 0.000000
# 2 -0.001679 0.020673 -0.008965 0.000000 0.000000 0.000000
# 3 -0.004362 -0.008965 0.016232 0.000000 0.000000 0.000000
# 4 0.000000 0.000000 0.000000 0.055333 0.000000 0.000000
# 5 0.000000 0.000000 0.000000 0.000000 0.066514 0.000000
# 6 0.000000 0.000000 0.000000 0.000000 0.000000 0.023523
#
#
# Mechanical properties :
#
#
# Convention : Reuss Voigt Hill
#
# Bulk Modulus (GPa) = 55.12632 58.35829 56.74231
# Shear Modulus (GPa) = 21.77837 25.81014 23.79425
#
# Velocity S-wave (km/s) = 3.37010 3.66881 3.52262
# Velocity P-wave (km/s) = 6.62512 6.95565 6.79240
#
# Compressibility (1/GPa) = 0.01814015
#
# Stress axis : x y z
#
# Youngs Moduli (GPa) = 88.89232 48.37118 61.60842
#
# Poissons Ratio (x) = 0.08123 0.26876
# Poissons Ratio (y) = 0.14929 0.55235
# Poissons Ratio (z) = 0.38778 0.43367
#
# Static dielectric constant tensor:
#      x y z
#    x 1.792230 0.000000 0.000000 
#    y 0.000000 1.679870 0.000000 
#    z 0.000000 0.000000 1.662240 
# 
# From -- ./inp_files/21353.got.cif
#   From: 2010.05.17/outbox.cif.g08.bks.cpg/sg56_11_cif.got.tgz:21353.got - 2010.06.03 13:42:01.
