data_PCOD9431458
_publ_section_title
;
Structure prediction by ZEFSAII (Michael W. Deem and Ramdas Pophale) SiO2 
 PCOD9431458
Probable space group: P C C N
;
_chemical_formula_sum "Si O2"
_cell_formula_units_Z 32
_cell_length_a 10.570549
_cell_length_b 7.854211
_cell_length_c 12.697274
_cell_angle_alpha 90.000000
_cell_angle_beta 90.000000
_cell_angle_gamma 90.000000
_cell_volume 1054.169871
_symmetry_space_group_name_H-M "P C C N"
_symmetry_group_IT_number 56
_symmetry_cell_setting 'orthorhombic'
loop_
_space_group_symop_operation_xyz
x,y,z
1/2-x,1/2-y,z
1/2+x,-y,1/2-z
-x,1/2+y,1/2-z
-x,-y,-z
1/2+x,1/2+y,-z
1/2-x,y,1/2+z
x,1/2-y,1/2+z
loop_
_atom_site_type_symbol
_atom_site_label
_atom_site_fract_x
_atom_site_fract_y
_atom_site_fract_z
Si Si1 0.916919 0.881517 0.116737
Si Si2 0.261801 0.074351 0.068464
Si Si3 0.892178 0.523478 0.236672
Si Si4 0.509444 0.342720 0.545096
O O1 0.884643 0.705471 0.178069
O O2 0.023881 0.816134 0.034490
O O3 0.801297 0.948518 0.047428
O O4 0.979240 0.010700 0.195782
O O5 0.218763 0.994779 0.178830
O O6 0.141882 0.257727 0.083564
O O7 0.405700 0.983128 0.036539
O O8 0.913038 0.375803 0.150797
#
# Coordination Sequence:
#
# PCOD9431458 Si02
#       4
#     8   8   8   8
#     4  10  21  39  64  98 131 164 212 265 319 384
#     4  10  21  38  64  93 121 168 219 254 312 390
#     4  11  22  39  66  98 129 169 214 268 323 380
#     4   9  21  38  59  91 125 161 210 261 310 374
#
# _framework density 30.355640999999999
#
# number of rings (size 3 to 8) (size 9 to 14) (size 15 to 20)
#    0.000    2.000    0.000    3.750    0.000   13.000 
#    0.000    5.000    0.000   36.000    0.000    0.000 
#    0.000    0.000    0.000    0.000    0.000    0.000 
#
# Total GULP energy -178733.585507 kJ/mol
# GULP energy per Si atom -5585.424547 kJ/mol
# Density = 3.028655 g / cm^3
# Si number density = 30.355641 Si / 1000 Ang^3
#
#
#
# Elastic Constant Matrix: (Units=GPa)
#
#
# Indices 1 2 3 4 5 6 
#
# 1 187.6219 67.7324 120.1335 0.0000 0.0000 0.0000
# 2 67.7324 127.0220 45.2364 0.0000 0.0000 0.0000
# 3 120.1335 45.2364 218.2980 0.0000 0.0000 0.0000
# 4 0.0000 0.0000 0.0000 60.8943 0.0000 0.0000
# 5 0.0000 0.0000 0.0000 0.0000 87.3066 0.0000
# 6 0.0000 0.0000 0.0000 0.0000 0.0000 38.4686
#
#
#
# Elastic Compliance Matrix: (Units=1/GPa)
#
#
# Indices 1 2 3 4 5 6 
#
# 1 0.009442 -0.003438 -0.004484 0.000000 0.000000 0.000000
# 2 -0.003438 0.009752 -0.000129 0.000000 0.000000 0.000000
# 3 -0.004484 -0.000129 0.007075 0.000000 0.000000 0.000000
# 4 0.000000 0.000000 0.000000 0.016422 0.000000 0.000000
# 5 0.000000 0.000000 0.000000 0.000000 0.011454 0.000000
# 6 0.000000 0.000000 0.000000 0.000000 0.000000 0.025995
#
#
# Mechanical properties :
#
#
# Convention : Reuss Voigt Hill
#
# Bulk Modulus (GPa) = 98.34921 111.01628 104.68274
# Shear Modulus (GPa) = 50.18590 57.32321 53.75456
#
# Velocity S-wave (km/s) = 4.07045 4.35027 4.21268
# Velocity P-wave (km/s) = 7.38652 7.86667 7.63037
#
# Compressibility (1/GPa) = 0.01016785
#
# Stress axis : x y z
#
# Youngs Moduli (GPa) = 105.91195 102.54558 141.34297
#
# Poissons Ratio (x) = 0.35255 0.63372
# Poissons Ratio (y) = 0.36412 0.01821
# Poissons Ratio (z) = 0.47486 0.01321
#
# Static dielectric constant tensor:
#      x y z
#    x 2.999920 0.000000 0.000000 
#    y 0.000000 2.734030 0.000000 
#    z 0.000000 0.000000 2.305110 
# 
# From -- ./inp_files/2644.got.cif
#   From: 2010.05.17/outbox.cif.g08.bks.cpg/sg56_2_cif.got.tgz:2644.got - 2010.06.03 13:42:01.
