data_PCOD9431652
_publ_section_title
;
Structure prediction by ZEFSAII (Michael W. Deem and Ramdas Pophale) SiO2 
 PCOD9431652
Probable space group: P C C N
;
_chemical_formula_sum "Si O2"
_cell_formula_units_Z 48
_cell_length_a 28.248653
_cell_length_b 9.150455
_cell_length_c 9.043436
_cell_angle_alpha 90.000000
_cell_angle_beta 90.000000
_cell_angle_gamma 90.000000
_cell_volume 2337.619939
_symmetry_space_group_name_H-M "P C C N"
_symmetry_group_IT_number 56
_symmetry_cell_setting 'orthorhombic'
loop_
_space_group_symop_operation_xyz
x,y,z
1/2-x,1/2-y,z
1/2+x,-y,1/2-z
-x,1/2+y,1/2-z
-x,-y,-z
1/2+x,1/2+y,-z
1/2-x,y,1/2+z
x,1/2-y,1/2+z
loop_
_atom_site_type_symbol
_atom_site_label
_atom_site_fract_x
_atom_site_fract_y
_atom_site_fract_z
Si Si1 0.288398 0.455791 0.401202
Si Si2 0.497394 0.845513 0.920882
Si Si3 0.250000 0.250000 0.643739
Si Si4 0.097009 0.648588 0.442894
Si Si5 0.033795 0.395859 0.403627
Si Si6 0.655653 0.163490 0.266788
Si Si7 0.250000 0.750000 0.052516
O O1 0.285729 0.335815 0.532230
O O2 0.268406 0.374934 0.255258
O O3 0.336909 0.525275 0.341208
O O4 0.260925 0.602383 0.458055
O O5 0.446973 0.763239 0.940629
O O6 0.508679 0.859572 0.749173
O O7 0.537506 0.747886 0.999312
O O8 0.500000 0.000000 0.000000
O O9 0.079801 0.492898 0.382850
O O10 0.137608 0.708030 0.337283
O O11 0.117106 0.634198 0.607276
O O12 0.000000 0.500000 0.500000
O O13 0.704212 0.210952 0.347920
#
# Coordination Sequence:
#
# PCOD9431652 Si02
#       7
#     8   8   4   8   8   8   4
#     4  11  23  43  68  97 131 186 237 291 351 426
#     4  11  21  41  72  94 136 181 218 274 355 436
#     4  10  24  42  68  94 134 174 248 286 364 426
#     4  11  24  41  65 105 135 171 234 293 336 402
#     4  10  21  40  66  96 131 176 222 274 351 424
#     4  12  24  40  69 100 141 174 242 301 335 415
#     4  12  24  42  76  98 130 198 250 278 364 410
#
# _framework density 20.533705999999999
#
# number of rings (size 3 to 8) (size 9 to 14) (size 15 to 20)
#    0.000    1.000    3.333    5.500    0.000    0.000 
#    0.000    3.333    0.000    0.000    0.000    0.000 
#    0.000    0.000    0.000    0.000    0.000    0.000 
#
# Total GULP energy -267914.557250 kJ/mol
# GULP energy per Si atom -5581.553276 kJ/mol
# Density = 2.048697 g / cm^3
# Si number density = 20.533706 Si / 1000 Ang^3
#
#
#
# Elastic Constant Matrix: (Units=GPa)
#
#
# Indices 1 2 3 4 5 6 
#
# 1 50.7133 33.3553 30.3367 0.0000 0.0000 0.0000
# 2 33.3553 138.9886 54.4465 0.0000 0.0000 0.0000
# 3 30.3367 54.4465 130.8902 0.0000 0.0000 0.0000
# 4 0.0000 0.0000 0.0000 35.7528 0.0000 0.0000
# 5 0.0000 0.0000 0.0000 0.0000 45.1492 0.0000
# 6 0.0000 0.0000 0.0000 0.0000 0.0000 41.8490
#
#
#
# Elastic Compliance Matrix: (Units=1/GPa)
#
#
# Indices 1 2 3 4 5 6 
#
# 1 0.025009 -0.004457 -0.003942 0.000000 0.000000 0.000000
# 2 -0.004457 0.009390 -0.002873 0.000000 0.000000 0.000000
# 3 -0.003942 -0.002873 0.009749 0.000000 0.000000 0.000000
# 4 0.000000 0.000000 0.000000 0.027970 0.000000 0.000000
# 5 0.000000 0.000000 0.000000 0.000000 0.022149 0.000000
# 6 0.000000 0.000000 0.000000 0.000000 0.000000 0.023895
#
#
# Mechanical properties :
#
#
# Convention : Reuss Voigt Hill
#
# Bulk Modulus (GPa) = 46.29105 61.87434 54.08269
# Shear Modulus (GPa) = 33.80501 38.04710 35.92605
#
# Velocity S-wave (km/s) = 4.06189 4.30921 4.18738
# Velocity P-wave (km/s) = 6.67768 7.41334 7.05510
#
# Compressibility (1/GPa) = 0.02160245
#
# Stress axis : x y z
#
# Youngs Moduli (GPa) = 39.98612 106.49688 102.57792
#
# Poissons Ratio (x) = 0.47470 0.40438
# Poissons Ratio (y) = 0.17824 0.29469
# Poissons Ratio (z) = 0.15763 0.30595
#
# Static dielectric constant tensor:
#      x y z
#    x 1.773000 0.000000 0.000000 
#    y 0.000000 1.733450 0.000000 
#    z 0.000000 0.000000 1.740090 
# 
# From -- ./inp_files/2272.got.cif
#   From: 2010.05.17/outbox.cif.g08.bks.cpg/sg56_2_cif.got.tgz:2272.got - 2010.06.03 13:42:01.
