data_PCOD9431835
_publ_section_title
;
Structure prediction by ZEFSAII (Michael W. Deem and Ramdas Pophale) SiO2 
 PCOD9431835
Probable space group: P C C N
;
_chemical_formula_sum "Si O2"
_cell_formula_units_Z 60
_cell_length_a 25.095958
_cell_length_b 8.073612
_cell_length_c 13.880495
_cell_angle_alpha 90.000000
_cell_angle_beta 90.000000
_cell_angle_gamma 90.000000
_cell_volume 2812.396878
_symmetry_space_group_name_H-M "P C C N"
_symmetry_group_IT_number 56
_symmetry_cell_setting 'orthorhombic'
loop_
_space_group_symop_operation_xyz
x,y,z
1/2-x,1/2-y,z
1/2+x,-y,1/2-z
-x,1/2+y,1/2-z
-x,-y,-z
1/2+x,1/2+y,-z
1/2-x,y,1/2+z
x,1/2-y,1/2+z
loop_
_atom_site_type_symbol
_atom_site_label
_atom_site_fract_x
_atom_site_fract_y
_atom_site_fract_z
Si Si1 0.619583 0.777931 0.879457
Si Si2 0.284950 0.407509 0.021049
Si Si3 0.690653 0.091831 0.867984
Si Si4 0.522930 0.817273 0.017426
Si Si5 0.033247 0.177696 0.774344
Si Si6 0.450515 0.815543 0.361082
Si Si7 0.334439 0.780106 0.443185
Si Si8 0.750000 0.250000 0.692533
O O1 0.667423 0.656885 0.909697
O O2 0.579919 0.741822 0.791039
O O3 0.647117 0.951281 0.855271
O O4 0.581448 0.800936 0.971730
O O5 0.250000 0.250000 0.984456
O O6 0.242844 0.513641 0.082130
O O7 0.312395 0.530885 0.944756
O O8 0.711038 0.156574 0.766107
O O9 0.667361 0.221438 0.945810
O O10 0.523891 0.778166 0.128898
O O11 0.485793 0.690232 0.958195
O O12 0.500000 0.000000 0.000000
O O13 0.980029 0.186712 0.709642
O O14 0.047236 0.992018 0.807732
O O15 0.391479 0.771114 0.394310
O O16 0.292503 0.670834 0.381827
#
# Coordination Sequence:
#
# PCOD9431835 Si02
#       8
#     8   8   8   8   8   8   8   4
#     4  10  23  41  68  95 132 178 215 273 344 393
#     4  10  21  43  66  92 135 173 216 278 342 399
#     4  11  22  44  64  94 137 169 225 282 322 411
#     4  11  23  45  68  98 136 180 221 278 342 402
#     4  11  23  46  63 105 138 172 235 284 329 422
#     4  11  25  41  71  98 140 182 227 288 344 404
#     4  12  23  44  68 100 128 182 228 275 340 409
#     4  12  22  40  66  94 128 168 222 276 328 386
#
# _framework density 21.334116000000002
#
# number of rings (size 3 to 8) (size 9 to 14) (size 15 to 20)
#    0.000    1.067    2.667    4.400    0.000    2.133 
#    9.600    3.333    0.000    0.000    0.000    0.000 
#    0.000    0.000    0.000    0.000    0.000    0.000 
#
# Total GULP energy -335134.640490 kJ/mol
# GULP energy per Si atom -5585.577342 kJ/mol
# Density = 2.128556 g / cm^3
# Si number density = 21.334116 Si / 1000 Ang^3
#
#
#
# Elastic Constant Matrix: (Units=GPa)
#
#
# Indices 1 2 3 4 5 6 
#
# 1 141.8061 30.3993 53.8915 0.0000 0.0000 0.0000
# 2 30.3993 49.7393 30.0696 0.0000 0.0000 0.0000
# 3 53.8915 30.0696 143.0696 0.0000 0.0000 0.0000
# 4 0.0000 0.0000 0.0000 -97.8572 0.0000 0.0000
# 5 0.0000 0.0000 0.0000 0.0000 21.2801 0.0000
# 6 0.0000 0.0000 0.0000 0.0000 0.0000 27.1108
#
#
#
# Elastic Compliance Matrix: (Units=1/GPa)
#
#
# Indices 1 2 3 4 5 6 
#
# 1 0.008840 -0.003883 -0.002514 0.000000 0.000000 0.000000
# 2 -0.003883 0.024737 -0.003736 0.000000 0.000000 0.000000
# 3 -0.002514 -0.003736 0.008722 0.000000 0.000000 0.000000
# 4 0.000000 0.000000 0.000000 -0.010219 0.000000 0.000000
# 5 0.000000 0.000000 0.000000 0.000000 0.046992 0.000000
# 6 0.000000 0.000000 0.000000 0.000000 0.000000 0.036886
#
#
# Mechanical properties :
#
#
# Convention : Reuss Voigt Hill
#
# Bulk Modulus (GPa) = 45.38815 62.59289 53.99052
# Shear Modulus (GPa) = 34.82698 4.79037 19.80867
#
# Velocity S-wave (km/s) = 4.04475 1.50009 3.05043
# Velocity P-wave (km/s) = 6.56768 5.69240 6.14564
#
# Compressibility (1/GPa) = 0.02203218
#
# Stress axis : x y z
#
# Youngs Moduli (GPa) = 113.12817 40.42564 114.65615
#
# Poissons Ratio (x) = 0.15697 0.28820
# Poissons Ratio (y) = 0.43927 0.42840
# Poissons Ratio (z) = 0.28436 0.15105
#
# Static dielectric constant tensor:
#      x y z
#    x 1.767880 0.000000 0.000000 
#    y 0.000000 1.815270 0.000000 
#    z 0.000000 0.000000 1.761920 
# 
# From -- ./inp_files/13234.got.cif
#   From: 2010.05.17/outbox.cif.g08.bks.cpg/sg56_7_cif.got.tgz:13234.got - 2010.06.03 13:42:01.
