data_PCOD9431758
_publ_section_title
;
Structure prediction by ZEFSAII (Michael W. Deem and Ramdas Pophale) SiO2 
 PCOD9431758
Probable space group: P C C N
;
_chemical_formula_sum "Si O2"
_cell_formula_units_Z 64
_cell_length_a 17.646794
_cell_length_b 11.681344
_cell_length_c 13.982713
_cell_angle_alpha 90.000000
_cell_angle_beta 90.000000
_cell_angle_gamma 90.000000
_cell_volume 2882.372285
_symmetry_space_group_name_H-M "P C C N"
_symmetry_group_IT_number 56
_symmetry_cell_setting 'orthorhombic'
loop_
_space_group_symop_operation_xyz
x,y,z
1/2-x,1/2-y,z
1/2+x,-y,1/2-z
-x,1/2+y,1/2-z
-x,-y,-z
1/2+x,1/2+y,-z
1/2-x,y,1/2+z
x,1/2-y,1/2+z
loop_
_atom_site_type_symbol
_atom_site_label
_atom_site_fract_x
_atom_site_fract_y
_atom_site_fract_z
Si Si1 0.555203 0.559525 0.123889
Si Si2 0.192421 0.150449 0.205454
Si Si3 0.831920 0.220437 0.954245
Si Si4 0.637971 0.276122 0.240219
Si Si5 0.802985 0.532609 0.492530
Si Si6 0.961347 0.778296 0.288402
Si Si7 0.481457 0.688688 0.960292
Si Si8 0.235155 0.563712 0.832918
O O1 0.635304 0.571383 0.070422
O O2 0.553491 0.603214 0.232553
O O3 0.523293 0.433358 0.097192
O O4 0.505450 0.652026 0.065833
O O5 0.250000 0.250000 0.232054
O O6 0.107772 0.191950 0.232628
O O7 0.216596 0.038703 0.262172
O O8 0.202932 0.122441 0.092489
O O9 0.750000 0.250000 0.995411
O O10 0.840288 0.280019 0.852308
O O11 0.899663 0.244829 0.026184
O O12 0.833839 0.083153 0.942261
O O13 0.547096 0.264281 0.234933
O O14 0.681023 0.382421 0.189584
O O15 0.677392 0.163853 0.195709
O O16 0.734564 0.488620 0.559761
O O17 0.964612 0.774820 0.403946
#
# Coordination Sequence:
#
# PCOD9431758 Si02
#       8
#     8   8   8   8   8   8   8   8
#     4  10  21  41  69  98 134 187 234 282 349 436
#     4  12  27  48  71 103 149 199 246 291 361 448
#     4  11  20  39  69 100 146 179 229 299 367 431
#     4  11  22  43  74 112 144 174 244 310 373 422
#     4  11  23  43  70  97 139 195 238 285 360 438
#     4  12  25  41  73 107 142 183 239 300 353 430
#     4  10  22  39  67 102 137 182 237 289 357 426
#     4  11  25  46  69 108 145 184 241 306 367 428
#
# _framework density 22.203932999999999
#
# number of rings (size 3 to 8) (size 9 to 14) (size 15 to 20)
#    0.000    1.000    5.000    2.250    5.250    1.500 
#    0.000    0.000    0.000    1.500    0.000    0.000 
#    0.000    0.000    0.000    0.000    0.000    0.000 
#
# Total GULP energy -357387.186704 kJ/mol
# GULP energy per Si atom -5584.174792 kJ/mol
# Density = 2.215340 g / cm^3
# Si number density = 22.203933 Si / 1000 Ang^3
#
#
#
# Elastic Constant Matrix: (Units=GPa)
#
#
# Indices 1 2 3 4 5 6 
#
# 1 116.7811 35.3625 8.6235 0.0000 0.0000 0.0000
# 2 35.3625 68.1872 31.5859 0.0000 0.0000 0.0000
# 3 8.6235 31.5859 94.8024 0.0000 0.0000 0.0000
# 4 0.0000 0.0000 0.0000 47.3041 0.0000 0.0000
# 5 0.0000 0.0000 0.0000 0.0000 33.3457 0.0000
# 6 0.0000 0.0000 0.0000 0.0000 0.0000 24.1094
#
#
#
# Elastic Compliance Matrix: (Units=1/GPa)
#
#
# Indices 1 2 3 4 5 6 
#
# 1 0.010236 -0.005767 0.000990 0.000000 0.000000 0.000000
# 2 -0.005767 0.020592 -0.006336 0.000000 0.000000 0.000000
# 3 0.000990 -0.006336 0.012569 0.000000 0.000000 0.000000
# 4 0.000000 0.000000 0.000000 0.021140 0.000000 0.000000
# 5 0.000000 0.000000 0.000000 0.000000 0.029989 0.000000
# 6 0.000000 0.000000 0.000000 0.000000 0.000000 0.041478
#
#
# Mechanical properties :
#
#
# Convention : Reuss Voigt Hill
#
# Bulk Modulus (GPa) = 47.23428 47.87937 47.55682
# Shear Modulus (GPa) = 30.25054 34.56509 32.40782
#
# Velocity S-wave (km/s) = 3.69507 3.94980 3.82455
# Velocity P-wave (km/s) = 6.28680 6.51241 6.40060
#
# Compressibility (1/GPa) = 0.02117106
#
# Stress axis : x y z
#
# Youngs Moduli (GPa) = 97.69119 48.56365 79.55986
#
# Poissons Ratio (x) = 0.28009 -0.07880
# Poissons Ratio (y) = 0.56343 0.50409
# Poissons Ratio (z) = -0.09676 0.30770
#
# Static dielectric constant tensor:
#      x y z
#    x 1.887920 0.000000 0.000000 
#    y 0.000000 1.800000 0.000000 
#    z 0.000000 0.000000 1.877210 
# 
# From -- ./inp_files/12853.got.cif
#   From: 2010.05.17/outbox.cif.g08.bks.cpg/sg56_7_cif.got.tgz:12853.got - 2010.06.03 13:42:01.
