data_PCOD9431764
_publ_section_title
;
Structure prediction by ZEFSAII (Michael W. Deem and Ramdas Pophale) SiO2 
 PCOD9431764
Probable space group: P C C N
;
_chemical_formula_sum "Si O2"
_cell_formula_units_Z 48
_cell_length_a 19.847510
_cell_length_b 5.632214
_cell_length_c 16.987467
_cell_angle_alpha 90.000000
_cell_angle_beta 90.000000
_cell_angle_gamma 90.000000
_cell_volume 1898.951196
_symmetry_space_group_name_H-M "P C C N"
_symmetry_group_IT_number 56
_symmetry_cell_setting 'orthorhombic'
loop_
_space_group_symop_operation_xyz
x,y,z
1/2-x,1/2-y,z
1/2+x,-y,1/2-z
-x,1/2+y,1/2-z
-x,-y,-z
1/2+x,1/2+y,-z
1/2-x,y,1/2+z
x,1/2-y,1/2+z
loop_
_atom_site_type_symbol
_atom_site_label
_atom_site_fract_x
_atom_site_fract_y
_atom_site_fract_z
Si Si1 0.657938 0.984571 0.188368
Si Si2 0.678817 0.289196 0.839502
Si Si3 0.467692 0.723304 0.868845
Si Si4 0.318958 0.334433 0.477873
Si Si5 0.890764 0.343978 0.488303
Si Si6 0.925189 0.573915 0.768273
O O1 0.697429 0.908527 0.111694
O O2 0.608220 0.793096 0.224814
O O3 0.700271 0.057567 0.263661
O O4 0.606571 0.182349 0.155061
O O5 0.750000 0.250000 0.882599
O O6 0.637877 0.075515 0.800420
O O7 0.622738 0.405281 0.896784
O O8 0.459407 0.687979 0.961958
O O9 0.473727 0.522574 0.801793
O O10 0.527974 0.893028 0.844632
O O11 0.250000 0.250000 0.519671
O O12 0.354900 0.577910 0.508803
O O13 0.361498 0.089219 0.473518
#
# Coordination Sequence:
#
# PCOD9431764 Si02
#       6
#     8   8   8   8   8   8
#     4  10  23  39  66  98 129 183 226 295 347 414
#     4  11  27  43  64 100 148 185 235 288 368 433
#     4  10  21  41  72  96 135 174 243 292 359 415
#     4  11  23  41  70  97 135 182 245 288 349 420
#     4  11  25  46  67 104 140 192 232 293 360 430
#     4  11  21  41  68 102 133 181 234 303 358 420
#
# _framework density 25.27711
#
# number of rings (size 3 to 8) (size 9 to 14) (size 15 to 20)
#    0.000    1.333    3.333    1.500    4.667    0.667 
#    0.000    0.833    0.000    0.000    0.000    0.000 
#    0.000    0.000    0.000    0.000    0.000    0.000 
#
# Total GULP energy -267272.686248 kJ/mol
# GULP energy per Si atom -5568.180963 kJ/mol
# Density = 2.521958 g / cm^3
# Si number density = 25.277110 Si / 1000 Ang^3
#
#
#
# Elastic Constant Matrix: (Units=GPa)
#
#
# Indices 1 2 3 4 5 6 
#
# 1 67.3814 -0.6701 9.8119 0.0000 0.0000 0.0000
# 2 -0.6701 39.7474 26.6162 0.0000 0.0000 0.0000
# 3 9.8119 26.6162 96.7291 0.0000 0.0000 0.0000
# 4 0.0000 0.0000 0.0000 29.8172 0.0000 0.0000
# 5 0.0000 0.0000 0.0000 0.0000 30.0947 0.0000
# 6 0.0000 0.0000 0.0000 0.0000 0.0000 25.1447
#
#
#
# Elastic Compliance Matrix: (Units=1/GPa)
#
#
# Indices 1 2 3 4 5 6 
#
# 1 0.015143 0.001574 -0.001969 0.000000 0.000000 0.000000
# 2 0.001574 0.031005 -0.008691 0.000000 0.000000 0.000000
# 3 -0.001969 -0.008691 0.012929 0.000000 0.000000 0.000000
# 4 0.000000 0.000000 0.000000 0.033538 0.000000 0.000000
# 5 0.000000 0.000000 0.000000 0.000000 0.033228 0.000000
# 6 0.000000 0.000000 0.000000 0.000000 0.000000 0.039770
#
#
# Mechanical properties :
#
#
# Convention : Reuss Voigt Hill
#
# Bulk Modulus (GPa) = 24.44677 30.59710 27.52194
# Shear Modulus (GPa) = 25.32649 28.21797 26.77223
#
# Velocity S-wave (km/s) = 3.16880 3.34480 3.25799
# Velocity P-wave (km/s) = 4.80426 5.20076 5.00643
#
# Compressibility (1/GPa) = 0.04090519
#
# Stress axis : x y z
#
# Youngs Moduli (GPa) = 66.03582 32.25260 77.34329
#
# Poissons Ratio (x) = -0.05076 0.15230
# Poissons Ratio (y) = -0.10394 0.67220
# Poissons Ratio (z) = 0.13004 0.28031
#
# Static dielectric constant tensor:
#      x y z
#    x 2.113820 0.000000 0.000000 
#    y 0.000000 2.189550 0.000000 
#    z 0.000000 0.000000 2.087890 
# 
# From -- ./inp_files/16928.got.cif
#   From: 2010.05.17/outbox.cif.g08.bks.cpg/sg56_9_cif.got.tgz:16928.got - 2010.06.03 13:42:01.
