data_PCOD9431044
_publ_section_title
;
Structure prediction by ZEFSAII (Michael W. Deem and Ramdas Pophale) SiO2 
 PCOD9431044
Probable space group: P C C N
;
_chemical_formula_sum "Si O2"
_cell_formula_units_Z 64
_cell_length_a 7.623461
_cell_length_b 19.129047
_cell_length_c 16.182899
_cell_angle_alpha 90.000000
_cell_angle_beta 90.000000
_cell_angle_gamma 90.000000
_cell_volume 2359.944778
_symmetry_space_group_name_H-M "P C C N"
_symmetry_group_IT_number 56
_symmetry_cell_setting 'orthorhombic'
loop_
_space_group_symop_operation_xyz
x,y,z
1/2-x,1/2-y,z
1/2+x,-y,1/2-z
-x,1/2+y,1/2-z
-x,-y,-z
1/2+x,1/2+y,-z
1/2-x,y,1/2+z
x,1/2-y,1/2+z
loop_
_atom_site_type_symbol
_atom_site_label
_atom_site_fract_x
_atom_site_fract_y
_atom_site_fract_z
Si Si1 0.624010 0.619635 0.857493
Si Si2 0.165731 0.605513 0.098922
Si Si3 0.550623 0.236088 0.180704
Si Si4 0.947069 0.269469 0.990723
Si Si5 0.308951 0.968657 0.435390
Si Si6 0.571346 0.983590 0.216796
Si Si7 0.822890 0.871245 0.030701
Si Si8 0.528457 0.877715 0.690399
O O1 0.564718 0.694058 0.822529
O O2 0.448803 0.587156 0.901246
O O3 0.664062 0.568126 0.782622
O O4 0.754250 0.623504 0.936584
O O5 0.349562 0.633317 0.135845
O O6 0.079534 0.560230 0.170896
O O7 0.023928 0.662996 0.066331
O O8 0.213265 0.561907 0.016410
O O9 0.750000 0.250000 0.209907
O O10 0.565195 0.211223 0.086487
O O11 0.468991 0.177442 0.236944
O O12 0.750000 0.250000 0.967386
O O13 0.072952 0.202945 0.983557
O O14 0.179721 0.982696 0.358325
O O15 0.380541 0.045830 0.459443
O O16 0.499923 0.045443 0.273940
O O17 0.808401 0.864096 0.130228
#
# Coordination Sequence:
#
# PCOD9431044 Si02
#       8
#     8   8   8   8   8   8   8   8
#     4  11  22  43  64  95 127 171 218 271 331 395
#     4  12  24  41  69  94 134 176 224 279 339 411
#     4  10  21  35  62  94 128 153 203 282 332 380
#     4  10  20  40  63 100 127 166 219 283 338 395
#     4  12  23  45  63  97 137 178 225 275 343 420
#     4  12  26  38  63  98 131 175 227 278 328 399
#     4  11  23  40  68  94 134 173 216 269 354 410
#     4  12  23  39  64  96 129 167 216 278 339 399
#
# _framework density 27.119278000000001
#
# number of rings (size 3 to 8) (size 9 to 14) (size 15 to 20)
#    0.000    0.750    3.750    6.000    3.500    0.000 
#    0.000    0.625    0.000    0.000    0.000    0.000 
#    0.000    0.000    0.000    0.000    0.000    0.000 
#
# Total GULP energy -358054.696477 kJ/mol
# GULP energy per Si atom -5594.604632 kJ/mol
# Density = 2.705755 g / cm^3
# Si number density = 27.119278 Si / 1000 Ang^3
#
#
#
# Elastic Constant Matrix: (Units=GPa)
#
#
# Indices 1 2 3 4 5 6 
#
# 1 62.0225 23.5339 29.7093 0.0000 0.0000 0.0000
# 2 23.5339 153.7474 68.8731 0.0000 0.0000 0.0000
# 3 29.7093 68.8731 200.7127 0.0000 0.0000 0.0000
# 4 0.0000 0.0000 0.0000 74.2943 0.0000 0.0000
# 5 0.0000 0.0000 0.0000 0.0000 -23.5317 0.0000
# 6 0.0000 0.0000 0.0000 0.0000 0.0000 30.5353
#
#
#
# Elastic Compliance Matrix: (Units=1/GPa)
#
#
# Indices 1 2 3 4 5 6 
#
# 1 0.017775 -0.001822 -0.002006 0.000000 0.000000 0.000000
# 2 -0.001822 0.007872 -0.002432 0.000000 0.000000 0.000000
# 3 -0.002006 -0.002432 0.006114 0.000000 0.000000 0.000000
# 4 0.000000 0.000000 0.000000 0.013460 0.000000 0.000000
# 5 0.000000 0.000000 0.000000 0.000000 -0.042496 0.000000
# 6 0.000000 0.000000 0.000000 0.000000 0.000000 0.032749
#
#
# Mechanical properties :
#
#
# Convention : Reuss Voigt Hill
#
# Bulk Modulus (GPa) = 51.96995 73.41279 62.69137
# Shear Modulus (GPa) = 91.89858 35.88402 63.89130
#
# Velocity S-wave (km/s) = 5.82755 3.64152 4.85906
# Velocity P-wave (km/s) = 8.03029 6.69402 7.39241
#
# Compressibility (1/GPa) = 0.01924189
#
# Stress axis : x y z
#
# Youngs Moduli (GPa) = 56.25743 127.02626 163.57163
#
# Poissons Ratio (x) = 0.23149 0.32809
# Poissons Ratio (y) = 0.10252 0.39774
# Poissons Ratio (z) = 0.11284 0.30888
#
# Static dielectric constant tensor:
#      x y z
#    x 3.251170 0.000000 0.000000 
#    y 0.000000 2.770530 0.000000 
#    z 0.000000 0.000000 2.057970 
# 
# From -- ./inp_files/11853.got.cif
#   From: 2010.05.17/outbox.cif.g08.bks.cpg/sg56_6_cif.got.tgz:11853.got - 2010.06.03 13:42:01.
