data_PCOD9431135
_publ_section_title
;
Structure prediction by ZEFSAII (Michael W. Deem and Ramdas Pophale) SiO2 
 PCOD9431135
Probable space group: P C C N
;
_chemical_formula_sum "Si O2"
_cell_formula_units_Z 44
_cell_length_a 7.786118
_cell_length_b 16.163341
_cell_length_c 16.955104
_cell_angle_alpha 90.000000
_cell_angle_beta 90.000000
_cell_angle_gamma 90.000000
_cell_volume 2133.794418
_symmetry_space_group_name_H-M "P C C N"
_symmetry_group_IT_number 56
_symmetry_cell_setting 'orthorhombic'
loop_
_space_group_symop_operation_xyz
x,y,z
1/2-x,1/2-y,z
1/2+x,-y,1/2-z
-x,1/2+y,1/2-z
-x,-y,-z
1/2+x,1/2+y,-z
1/2-x,y,1/2+z
x,1/2-y,1/2+z
loop_
_atom_site_type_symbol
_atom_site_label
_atom_site_fract_x
_atom_site_fract_y
_atom_site_fract_z
Si Si1 0.561547 0.788468 0.625851
Si Si2 0.745632 0.405942 0.603481
Si Si3 0.387265 0.354632 0.130622
Si Si4 0.750000 0.250000 0.484910
Si Si5 0.652082 0.559345 0.029193
Si Si6 0.045311 0.321073 0.196090
O O1 0.750000 0.750000 0.616264
O O2 0.418345 0.748381 0.570127
O O3 0.582405 0.882745 0.597947
O O4 0.510914 0.786283 0.717286
O O5 0.755061 0.332596 0.538279
O O6 0.711328 0.494193 0.562643
O O7 0.602092 0.380313 0.665322
O O8 0.936106 0.404448 0.642442
O O9 0.232665 0.363622 0.192548
O O10 0.440176 0.258108 0.137482
O O11 0.310252 0.382299 0.045932
O O12 0.500000 0.500000 0.000000
#
# Coordination Sequence:
#
# PCOD9431135 Si02
#       6
#     8   8   8   4   8   8
#     4  12  26  44  65 102 133 174 223 283 331 399
#     4  11  22  43  67  95 125 177 218 271 330 390
#     4  10  20  41  66  89 129 170 211 272 318 397
#     4  12  24  38  74  94 126 178 230 266 328 400
#     4  10  22  44  67  94 138 168 223 283 324 389
#     4  11  23  40  67  96 128 173 221 261 342 391
#
# _framework density 20.620545
#
# number of rings (size 3 to 8) (size 9 to 14) (size 15 to 20)
#    0.000    1.091    7.273    0.000    7.636    0.727 
#    6.545    0.000    0.000    0.000    0.000    0.000 
#    0.000    0.000    0.000    0.000    0.000    0.000 
#
# Total GULP energy -245585.153767 kJ/mol
# GULP energy per Si atom -5581.480767 kJ/mol
# Density = 2.057361 g / cm^3
# Si number density = 20.620545 Si / 1000 Ang^3
#
#
#
# Elastic Constant Matrix: (Units=GPa)
#
#
# Indices 1 2 3 4 5 6 
#
# 1 103.4650 6.2406 26.3886 0.0000 0.0000 0.0000
# 2 6.2406 78.7322 17.8479 0.0000 0.0000 0.0000
# 3 26.3886 17.8479 58.7819 0.0000 0.0000 0.0000
# 4 0.0000 0.0000 0.0000 8.6494 0.0000 0.0000
# 5 0.0000 0.0000 0.0000 0.0000 25.3155 0.0000
# 6 0.0000 0.0000 0.0000 0.0000 0.0000 22.7807
#
#
#
# Elastic Compliance Matrix: (Units=1/GPa)
#
#
# Indices 1 2 3 4 5 6 
#
# 1 0.010920 0.000264 -0.004982 0.000000 0.000000 0.000000
# 2 0.000264 0.013647 -0.004262 0.000000 0.000000 0.000000
# 3 -0.004982 -0.004262 0.020543 0.000000 0.000000 0.000000
# 4 0.000000 0.000000 0.000000 0.115615 0.000000 0.000000
# 5 0.000000 0.000000 0.000000 0.000000 0.039502 0.000000
# 6 0.000000 0.000000 0.000000 0.000000 0.000000 0.043897
#
#
# Mechanical properties :
#
#
# Convention : Reuss Voigt Hill
#
# Bulk Modulus (GPa) = 36.83452 37.99258 37.41355
# Shear Modulus (GPa) = 18.44116 24.04925 21.24521
#
# Velocity S-wave (km/s) = 2.99375 3.41878 3.21330
# Velocity P-wave (km/s) = 5.46368 5.83513 5.65246
#
# Compressibility (1/GPa) = 0.02714844
#
# Stress axis : x y z
#
# Youngs Moduli (GPa) = 91.57567 73.27884 48.67890
#
# Poissons Ratio (x) = -0.01934 0.24254
# Poissons Ratio (y) = -0.02417 0.20747
# Poissons Ratio (z) = 0.45626 0.31231
#
# Static dielectric constant tensor:
#      x y z
#    x 1.787170 0.000000 0.000000 
#    y 0.000000 1.725700 0.000000 
#    z 0.000000 0.000000 1.750760 
# 
# From -- ./inp_files/10580.got.cif
#   From: 2010.05.17/outbox.cif.g08.bks.cpg/sg56_6_cif.got.tgz:10580.got - 2010.06.03 13:42:01.
