data_PCOD9431259
_publ_section_title
;
Structure prediction by ZEFSAII (Michael W. Deem and Ramdas Pophale) SiO2 
 PCOD9431259
Probable space group: P C C N
;
_chemical_formula_sum "Si O2"
_cell_formula_units_Z 40
_cell_length_a 6.276818
_cell_length_b 18.973470
_cell_length_c 18.561404
_cell_angle_alpha 90.000000
_cell_angle_beta 90.000000
_cell_angle_gamma 90.000000
_cell_volume 2210.533621
_symmetry_space_group_name_H-M "P C C N"
_symmetry_group_IT_number 56
_symmetry_cell_setting 'orthorhombic'
loop_
_space_group_symop_operation_xyz
x,y,z
1/2-x,1/2-y,z
1/2+x,-y,1/2-z
-x,1/2+y,1/2-z
-x,-y,-z
1/2+x,1/2+y,-z
1/2-x,y,1/2+z
x,1/2-y,1/2+z
loop_
_atom_site_type_symbol
_atom_site_label
_atom_site_fract_x
_atom_site_fract_y
_atom_site_fract_z
Si Si1 0.458570 0.076881 0.086505
Si Si2 0.061793 0.411806 0.306366
Si Si3 0.792768 0.167813 0.690262
Si Si4 0.188755 0.038790 0.955842
Si Si5 0.904410 0.567378 0.297576
O O1 0.553896 0.146131 0.124005
O O2 0.275643 0.053596 0.142458
O O3 0.649035 0.019736 0.077796
O O4 0.337557 0.082429 0.010612
O O5 0.082758 0.415760 0.392120
O O6 0.293081 0.399670 0.272203
O O7 0.899802 0.360998 0.264477
O O8 0.004904 0.491638 0.282279
O O9 0.750000 0.250000 0.693789
O O10 0.580277 0.122469 0.677454
O O11 0.000000 0.000000 0.000000
#
# Coordination Sequence:
#
# PCOD9431259 Si02
#       5
#     8   8   8   8   8
#     4  10  21  34  60  91 119 159 203 260 322 371
#     4  11  20  33  62  91 117 155 206 263 309 371
#     4  11  24  39  60  89 127 167 207 263 318 381
#     4  11  20  35  60  96 122 154 205 265 315 377
#     4  11  19  37  60  90 115 152 210 260 310 372
#
# _framework density 18.095178000000001
#
# number of rings (size 3 to 8) (size 9 to 14) (size 15 to 20)
#    0.000    1.200    6.000    1.200    0.000    3.200 
#    0.000    0.000    0.000   18.000    0.000    0.000 
#    0.000    0.000    0.000    0.000    0.000    0.000 
#
# Total GULP energy -223037.533379 kJ/mol
# GULP energy per Si atom -5575.938334 kJ/mol
# Density = 1.805399 g / cm^3
# Si number density = 18.095178 Si / 1000 Ang^3
#
#
#
# Elastic Constant Matrix: (Units=GPa)
#
#
# Indices 1 2 3 4 5 6 
#
# 1 98.6322 41.7218 46.1589 0.0000 0.0000 0.0000
# 2 41.7218 110.4440 42.4951 0.0000 0.0000 0.0000
# 3 46.1589 42.4951 131.2833 0.0000 0.0000 0.0000
# 4 0.0000 0.0000 0.0000 8.5741 0.0000 0.0000
# 5 0.0000 0.0000 0.0000 0.0000 37.0160 0.0000
# 6 0.0000 0.0000 0.0000 0.0000 0.0000 20.4442
#
#
#
# Elastic Compliance Matrix: (Units=1/GPa)
#
#
# Indices 1 2 3 4 5 6 
#
# 1 0.013336 -0.003694 -0.003493 0.000000 0.000000 0.000000
# 2 -0.003694 0.011366 -0.002380 0.000000 0.000000 0.000000
# 3 -0.003493 -0.002380 0.009616 0.000000 0.000000 0.000000
# 4 0.000000 0.000000 0.000000 0.116630 0.000000 0.000000
# 5 0.000000 0.000000 0.000000 0.000000 0.027015 0.000000
# 6 0.000000 0.000000 0.000000 0.000000 0.000000 0.048914
#
#
# Mechanical properties :
#
#
# Convention : Reuss Voigt Hill
#
# Bulk Modulus (GPa) = 65.86373 66.79011 66.32692
# Shear Modulus (GPa) = 19.91465 27.20579 23.56022
#
# Velocity S-wave (km/s) = 3.32105 3.88168 3.61226
# Velocity P-wave (km/s) = 7.15426 7.55517 7.35744
#
# Compressibility (1/GPa) = 0.01518286
#
# Stress axis : x y z
#
# Youngs Moduli (GPa) = 74.98517 87.98515 103.99571
#
# Poissons Ratio (x) = 0.32500 0.36328
# Poissons Ratio (y) = 0.27698 0.24753
# Poissons Ratio (z) = 0.26194 0.20942
#
# Static dielectric constant tensor:
#      x y z
#    x 1.660990 0.000000 0.000000 
#    y 0.000000 1.571950 0.000000 
#    z 0.000000 0.000000 1.675790 
# 
# From -- ./inp_files/13815.got.cif
#   From: 2010.05.17/outbox.cif.g08.bks.cpg/sg56_7_cif.got.tgz:13815.got - 2010.06.03 13:42:01.
