data_PCOD9431644
_publ_section_title
;
Structure prediction by ZEFSAII (Michael W. Deem and Ramdas Pophale) SiO2 
 PCOD9431644
Probable space group: P C C N
;
_chemical_formula_sum "Si O2"
_cell_formula_units_Z 44
_cell_length_a 21.030966
_cell_length_b 5.168999
_cell_length_c 16.651643
_cell_angle_alpha 90.000000
_cell_angle_beta 90.000000
_cell_angle_gamma 90.000000
_cell_volume 1810.184162
_symmetry_space_group_name_H-M "P C C N"
_symmetry_group_IT_number 56
_symmetry_cell_setting 'orthorhombic'
loop_
_space_group_symop_operation_xyz
x,y,z
1/2-x,1/2-y,z
1/2+x,-y,1/2-z
-x,1/2+y,1/2-z
-x,-y,-z
1/2+x,1/2+y,-z
1/2-x,y,1/2+z
x,1/2-y,1/2+z
loop_
_atom_site_type_symbol
_atom_site_label
_atom_site_fract_x
_atom_site_fract_y
_atom_site_fract_z
Si Si1 0.177477 0.793418 0.454697
Si Si2 0.750000 0.750000 0.338570
Si Si3 0.802236 0.939222 0.185351
Si Si4 0.438748 0.184741 0.822037
Si Si5 0.866693 0.697546 0.458658
Si Si6 0.993119 0.815692 0.859734
O O1 0.250000 0.750000 0.486039
O O2 0.183838 0.701368 0.362181
O O3 0.134902 0.573748 0.495844
O O4 0.152361 0.069968 0.481869
O O5 0.774910 0.965144 0.275037
O O6 0.810532 0.683834 0.392407
O O7 0.750000 0.750000 0.143071
O O8 0.866954 0.777592 0.187467
O O9 0.476306 0.403836 0.871614
O O10 0.466079 0.180586 0.731394
O O11 0.454159 0.908712 0.860683
O O12 0.934377 0.741918 0.417506
#
# Coordination Sequence:
#
# PCOD9431644 Si02
#       6
#     8   4   8   8   8   8
#     4  12  25  43  67  96 148 177 219 276 370 401
#     4  10  22  44  74 104 136 170 252 282 338 404
#     4  10  23  45  68 104 136 180 226 290 344 411
#     4  10  21  40  65  97 133 174 229 282 342 396
#     4  12  23  47  67 105 132 185 225 290 333 417
#     4  10  21  40  66  96 132 178 225 287 334 399
#
# _framework density 24.306918
#
# number of rings (size 3 to 8) (size 9 to 14) (size 15 to 20)
#    0.545    0.727    3.636    2.182    0.000    2.909 
#    3.273    5.455    0.000    0.000    0.000    0.000 
#    0.000    0.000    0.000    0.000    0.000    0.000 
#
# Total GULP energy -246406.828982 kJ/mol
# GULP energy per Si atom -5600.155204 kJ/mol
# Density = 2.425159 g / cm^3
# Si number density = 24.306918 Si / 1000 Ang^3
#
#
#
# Elastic Constant Matrix: (Units=GPa)
#
#
# Indices 1 2 3 4 5 6 
#
# 1 117.6455 23.0586 16.7163 0.0000 0.0000 0.0000
# 2 23.0586 133.3809 31.2301 0.0000 0.0000 0.0000
# 3 16.7163 31.2301 113.8106 0.0000 0.0000 0.0000
# 4 0.0000 0.0000 0.0000 28.8667 0.0000 0.0000
# 5 0.0000 0.0000 0.0000 0.0000 41.7531 0.0000
# 6 0.0000 0.0000 0.0000 0.0000 0.0000 37.1716
#
#
#
# Elastic Compliance Matrix: (Units=1/GPa)
#
#
# Indices 1 2 3 4 5 6 
#
# 1 0.008892 -0.001316 -0.000945 0.000000 0.000000 0.000000
# 2 -0.001316 0.008207 -0.002059 0.000000 0.000000 0.000000
# 3 -0.000945 -0.002059 0.009490 0.000000 0.000000 0.000000
# 4 0.000000 0.000000 0.000000 0.034642 0.000000 0.000000
# 5 0.000000 0.000000 0.000000 0.000000 0.023950 0.000000
# 6 0.000000 0.000000 0.000000 0.000000 0.000000 0.026902
#
#
# Mechanical properties :
#
#
# Convention : Reuss Voigt Hill
#
# Bulk Modulus (GPa) = 55.71018 56.31632 56.01325
# Shear Modulus (GPa) = 39.46121 41.14708 40.30415
#
# Velocity S-wave (km/s) = 4.03358 4.11885 4.07644
# Velocity P-wave (km/s) = 6.68299 6.77045 6.72686
#
# Compressibility (1/GPa) = 0.01795004
#
# Stress axis : x y z
#
# Youngs Moduli (GPa) = 112.45656 121.84916 105.37142
#
# Poissons Ratio (x) = 0.16036 0.09957
# Poissons Ratio (y) = 0.14800 0.21693
# Poissons Ratio (z) = 0.10627 0.25085
#
# Static dielectric constant tensor:
#      x y z
#    x 1.915280 0.000000 0.000000 
#    y 0.000000 1.923760 0.000000 
#    z 0.000000 0.000000 1.945150 
# 
# From -- ./inp_files/16905.got.cif
#   From: 2010.05.17/outbox.cif.g08.bks.cpg/sg56_9_cif.got.tgz:16905.got - 2010.06.03 13:42:01.
