data_PCOD9431401
_publ_section_title
;
Structure prediction by ZEFSAII (Michael W. Deem and Ramdas Pophale) SiO2 
 PCOD9431401
Probable space group: P C C N
;
_chemical_formula_sum "Si O2"
_cell_formula_units_Z 56
_cell_length_a 13.847252
_cell_length_b 12.955482
_cell_length_c 14.113653
_cell_angle_alpha 90.000000
_cell_angle_beta 90.000000
_cell_angle_gamma 90.000000
_cell_volume 2531.958637
_symmetry_space_group_name_H-M "P C C N"
_symmetry_group_IT_number 56
_symmetry_cell_setting 'orthorhombic'
loop_
_space_group_symop_operation_xyz
x,y,z
1/2-x,1/2-y,z
1/2+x,-y,1/2-z
-x,1/2+y,1/2-z
-x,-y,-z
1/2+x,1/2+y,-z
1/2-x,y,1/2+z
x,1/2-y,1/2+z
loop_
_atom_site_type_symbol
_atom_site_label
_atom_site_fract_x
_atom_site_fract_y
_atom_site_fract_z
Si Si1 0.649007 0.295068 0.863406
Si Si2 0.103222 0.158980 0.191852
Si Si3 0.464372 0.198083 0.488426
Si Si4 0.331835 0.320575 0.380952
Si Si5 0.246899 0.506514 0.632258
Si Si6 0.814824 0.516718 0.578097
Si Si7 0.908206 0.094489 0.250879
O O1 0.750000 0.250000 0.902229
O O2 0.569460 0.313120 0.943771
O O3 0.681230 0.404120 0.820164
O O4 0.611318 0.211219 0.787491
O O5 0.137445 0.227202 0.280020
O O6 0.023101 0.084130 0.239735
O O7 0.198314 0.101988 0.154994
O O8 0.048838 0.202297 0.100732
O O9 0.422626 0.305501 0.447332
O O10 0.399480 0.100408 0.450035
O O11 0.250000 0.250000 0.428267
O O12 0.275589 0.426784 0.370687
O O13 0.230492 0.522136 0.520292
O O14 0.353831 0.522780 0.672121
O O15 0.860706 0.435481 0.650294
#
# Coordination Sequence:
#
# PCOD9431401 Si02
#       7
#     8   8   8   8   8   8   8
#     4  10  21  38  59  85 128 162 213 254 294 380
#     4  11  21  39  69  90 125 168 209 261 332 376
#     4  10  21  40  65  96 123 164 213 267 321 386
#     4  10  21  39  65  98 128 154 212 273 319 380
#     4  10  22  40  63  89 125 168 217 257 311 389
#     4  10  21  40  67  94 126 167 211 268 326 376
#     4  11  21  38  64  92 124 169 211 261 314 379
#
# _framework density 22.117265
#
# number of rings (size 3 to 8) (size 9 to 14) (size 15 to 20)
#    0.000    1.714    2.857    1.714    0.000    5.143 
#    0.000   17.857    0.000    0.000    0.000    0.000 
#    0.000    0.000    0.000    0.000    0.000    0.000 
#
# Total GULP energy -312142.127771 kJ/mol
# GULP energy per Si atom -5573.966567 kJ/mol
# Density = 2.206693 g / cm^3
# Si number density = 22.117265 Si / 1000 Ang^3
#
#
#
# Elastic Constant Matrix: (Units=GPa)
#
#
# Indices 1 2 3 4 5 6 
#
# 1 91.2478 -5.9466 29.9619 0.0000 0.0000 0.0000
# 2 -5.9466 24.1497 14.3640 0.0000 0.0000 0.0000
# 3 29.9619 14.3640 106.6769 0.0000 0.0000 0.0000
# 4 0.0000 0.0000 0.0000 28.6227 0.0000 0.0000
# 5 0.0000 0.0000 0.0000 0.0000 32.6005 0.0000
# 6 0.0000 0.0000 0.0000 0.0000 0.0000 20.4329
#
#
#
# Elastic Compliance Matrix: (Units=1/GPa)
#
#
# Indices 1 2 3 4 5 6 
#
# 1 0.012764 0.005734 -0.004357 0.000000 0.000000 0.000000
# 2 0.005734 0.047590 -0.008019 0.000000 0.000000 0.000000
# 3 -0.004357 -0.008019 0.011678 0.000000 0.000000 0.000000
# 4 0.000000 0.000000 0.000000 0.034937 0.000000 0.000000
# 5 0.000000 0.000000 0.000000 0.000000 0.030674 0.000000
# 6 0.000000 0.000000 0.000000 0.000000 0.000000 0.048941
#
#
# Mechanical properties :
#
#
# Convention : Reuss Voigt Hill
#
# Bulk Modulus (GPa) = 17.02170 33.20367 25.11268
# Shear Modulus (GPa) = 22.78439 28.57754 25.68097
#
# Velocity S-wave (km/s) = 3.21310 3.59847 3.41123
# Velocity P-wave (km/s) = 4.63445 5.68423 5.18597
#
# Compressibility (1/GPa) = 0.05874855
#
# Stress axis : x y z
#
# Youngs Moduli (GPa) = 78.34826 21.01291 85.63456
#
# Poissons Ratio (x) = -0.12050 0.37311
# Poissons Ratio (y) = -0.44928 0.68666
# Poissons Ratio (z) = 0.34136 0.16849
#
# Static dielectric constant tensor:
#      x y z
#    x 1.852130 0.000000 0.000000 
#    y 0.000000 1.914300 0.000000 
#    z 0.000000 0.000000 1.829680 
# 
# From -- ./inp_files/12374.got.cif
#   From: 2010.05.17/outbox.cif.g08.bks.cpg/sg56_7_cif.got.tgz:12374.got - 2010.06.03 13:42:01.
