data_PCOD9431096
_publ_section_title
;
Structure prediction by ZEFSAII (Michael W. Deem and Ramdas Pophale) SiO2 
 PCOD9431096
Probable space group: P C C N
;
_chemical_formula_sum "Si O2"
_cell_formula_units_Z 44
_cell_length_a 9.832387
_cell_length_b 11.661942
_cell_length_c 18.111629
_cell_angle_alpha 90.000000
_cell_angle_beta 90.000000
_cell_angle_gamma 90.000000
_cell_volume 2076.764993
_symmetry_space_group_name_H-M "P C C N"
_symmetry_group_IT_number 56
_symmetry_cell_setting 'orthorhombic'
loop_
_space_group_symop_operation_xyz
x,y,z
1/2-x,1/2-y,z
1/2+x,-y,1/2-z
-x,1/2+y,1/2-z
-x,-y,-z
1/2+x,1/2+y,-z
1/2-x,y,1/2+z
x,1/2-y,1/2+z
loop_
_atom_site_type_symbol
_atom_site_label
_atom_site_fract_x
_atom_site_fract_y
_atom_site_fract_z
Si Si1 0.750000 0.250000 0.066322
Si Si2 0.235295 0.379024 0.139502
Si Si3 0.521726 0.711818 0.159006
Si Si4 0.698688 0.587194 0.694255
Si Si5 0.430246 0.651059 0.317373
Si Si6 0.625918 0.067381 0.462342
O O1 0.879031 0.263930 0.119975
O O2 0.777764 0.136729 0.018289
O O3 0.250000 0.250000 0.109108
O O4 0.313090 0.382784 0.218495
O O5 0.292067 0.474536 0.085492
O O6 0.078108 0.395897 0.160483
O O7 0.653546 0.629237 0.168692
O O8 0.586036 0.837673 0.151915
O O9 0.440902 0.704490 0.236085
O O10 0.434642 0.664137 0.092270
O O11 0.673949 0.454142 0.684906
O O12 0.500000 0.000000 0.500000
#
# Coordination Sequence:
#
# PCOD9431096 Si02
#       6
#     4   8   8   8   8   8
#     4  12  30  46  62 104 134 184 234 268 348 420
#     4  11  22  43  69 101 132 178 223 280 341 406
#     4  10  22  42  71  98 131 174 225 282 331 410
#     4  10  20  40  70 104 123 169 236 272 340 390
#     4  11  23  43  71  92 133 175 229 284 321 403
#     4  12  27  47  66 101 146 176 220 282 354 405
#
# _framework density 21.186799000000001
#
# number of rings (size 3 to 8) (size 9 to 14) (size 15 to 20)
#    0.000    1.091    5.455    2.182    2.545    4.364 
#   13.091    0.000    0.000    0.000    0.000    0.000 
#    0.000    0.000    0.000    0.000    0.000    0.000 
#
# Total GULP energy -246095.843943 kJ/mol
# GULP energy per Si atom -5593.087362 kJ/mol
# Density = 2.113858 g / cm^3
# Si number density = 21.186799 Si / 1000 Ang^3
#
#
#
# Elastic Constant Matrix: (Units=GPa)
#
#
# Indices 1 2 3 4 5 6 
#
# 1 31.3130 -4.2479 26.0559 0.0000 0.0000 0.0000
# 2 -4.2479 48.9546 6.3753 0.0000 0.0000 0.0000
# 3 26.0559 6.3753 83.8268 0.0000 0.0000 0.0000
# 4 0.0000 0.0000 0.0000 30.5703 0.0000 0.0000
# 5 0.0000 0.0000 0.0000 0.0000 25.6255 0.0000
# 6 0.0000 0.0000 0.0000 0.0000 0.0000 25.8241
#
#
#
# Elastic Compliance Matrix: (Units=1/GPa)
#
#
# Indices 1 2 3 4 5 6 
#
# 1 0.044616 0.005734 -0.014304 0.000000 0.000000 0.000000
# 2 0.005734 0.021368 -0.003408 0.000000 0.000000 0.000000
# 3 -0.014304 -0.003408 0.016635 0.000000 0.000000 0.000000
# 4 0.000000 0.000000 0.000000 0.032712 0.000000 0.000000
# 5 0.000000 0.000000 0.000000 0.000000 0.039024 0.000000
# 6 0.000000 0.000000 0.000000 0.000000 0.000000 0.038723
#
#
# Mechanical properties :
#
#
# Convention : Reuss Voigt Hill
#
# Bulk Modulus (GPa) = 17.04607 24.49565 20.77086
# Shear Modulus (GPa) = 21.13381 25.46472 23.29927
#
# Velocity S-wave (km/s) = 3.16175 3.47062 3.31978
# Velocity P-wave (km/s) = 4.62514 5.25806 4.95172
#
# Compressibility (1/GPa) = 0.05866454
#
# Stress axis : x y z
#
# Youngs Moduli (GPa) = 22.41337 46.79796 60.11536
#
# Poissons Ratio (x) = -0.26835 0.85990
# Poissons Ratio (y) = -0.12853 0.20485
# Poissons Ratio (z) = 0.32060 0.15947
#
# Static dielectric constant tensor:
#      x y z
#    x 1.766180 0.000000 0.000000 
#    y 0.000000 1.847780 0.000000 
#    z 0.000000 0.000000 1.764230 
# 
# From -- ./inp_files/15542.got.cif
#   From: 2010.05.17/outbox.cif.g08.bks.cpg/sg56_8_cif.got.tgz:15542.got - 2010.06.03 13:42:01.
