data_PCOD9431641
_publ_section_title
;
Structure prediction by ZEFSAII (Michael W. Deem and Ramdas Pophale) SiO2 
 PCOD9431641
Probable space group: P C C N
;
_chemical_formula_sum "Si O2"
_cell_formula_units_Z 64
_cell_length_a 13.038667
_cell_length_b 22.200235
_cell_length_c 10.318107
_cell_angle_alpha 90.000000
_cell_angle_beta 90.000000
_cell_angle_gamma 90.000000
_cell_volume 2986.694435
_symmetry_space_group_name_H-M "P C C N"
_symmetry_group_IT_number 56
_symmetry_cell_setting 'orthorhombic'
loop_
_space_group_symop_operation_xyz
x,y,z
1/2-x,1/2-y,z
1/2+x,-y,1/2-z
-x,1/2+y,1/2-z
-x,-y,-z
1/2+x,1/2+y,-z
1/2-x,y,1/2+z
x,1/2-y,1/2+z
loop_
_atom_site_type_symbol
_atom_site_label
_atom_site_fract_x
_atom_site_fract_y
_atom_site_fract_z
Si Si1 0.472777 0.358485 0.917305
Si Si2 0.332391 0.082194 0.802909
Si Si3 0.679236 0.540099 0.976937
Si Si4 0.825718 0.308128 0.012477
Si Si5 0.653851 0.097937 0.539142
Si Si6 0.467125 0.849284 0.217194
Si Si7 0.528085 0.746957 0.392209
Si Si8 0.306122 0.309380 0.728731
O O1 0.411260 0.412956 0.987024
O O2 0.590327 0.379353 0.912443
O O3 0.404134 0.340345 0.796479
O O4 0.474630 0.296889 0.997361
O O5 0.319648 0.036434 0.680790
O O6 0.275241 0.064540 0.936357
O O7 0.447671 0.103901 0.832931
O O8 0.277813 0.139362 0.733699
O O9 0.662450 0.473189 0.030230
O O10 0.750000 0.250000 0.004344
O O11 0.758384 0.365205 0.053257
O O12 0.879384 0.327686 0.879212
O O13 0.923943 0.291061 0.100042
O O14 0.585539 0.119057 0.660215
O O15 0.522859 0.788020 0.263665
O O16 0.636449 0.712796 0.400934
O O17 0.250000 0.250000 0.783719
#
# Coordination Sequence:
#
# PCOD9431641 Si02
#       8
#     8   8   8   8   8   8   8   8
#     4  10  21  40  65  94 132 177 227 271 348 406
#     4  11  25  44  70 100 138 179 224 296 346 419
#     4  11  24  46  70  99 133 183 239 285 350 417
#     4  12  26  41  67  96 137 176 224 288 345 429
#     4  11  25  45  67  94 128 188 231 281 345 416
#     4  11  24  43  64  98 133 173 227 282 348 411
#     4  11  22  41  61  97 134 173 218 279 345 418
#     4  11  22  36  65 102 135 172 217 282 350 422
#
# _framework density 21.428372
#
# number of rings (size 3 to 8) (size 9 to 14) (size 15 to 20)
#    0.000    1.000    6.250    1.125    5.250    1.500 
#    0.000    0.625    0.000    0.000    0.000    0.000 
#    0.000    0.000    0.000    0.000    0.000    0.000 
#
# Total GULP energy -356820.139286 kJ/mol
# GULP energy per Si atom -5575.314676 kJ/mol
# Density = 2.137960 g / cm^3
# Si number density = 21.428372 Si / 1000 Ang^3
#
#
#
# Elastic Constant Matrix: (Units=GPa)
#
#
# Indices 1 2 3 4 5 6 
#
# 1 100.6492 23.5507 10.7788 0.0000 0.0000 0.0000
# 2 23.5507 64.0848 -2.4090 0.0000 0.0000 0.0000
# 3 10.7788 -2.4090 26.4141 0.0000 0.0000 0.0000
# 4 0.0000 0.0000 0.0000 10.2163 0.0000 0.0000
# 5 0.0000 0.0000 0.0000 0.0000 28.3277 0.0000
# 6 0.0000 0.0000 0.0000 0.0000 0.0000 15.0299
#
#
#
# Elastic Compliance Matrix: (Units=1/GPa)
#
#
# Indices 1 2 3 4 5 6 
#
# 1 0.011517 -0.004424 -0.005103 0.000000 0.000000 0.000000
# 2 -0.004424 0.017358 0.003388 0.000000 0.000000 0.000000
# 3 -0.005103 0.003388 0.040250 0.000000 0.000000 0.000000
# 4 0.000000 0.000000 0.000000 0.097883 0.000000 0.000000
# 5 0.000000 0.000000 0.000000 0.000000 0.035301 0.000000
# 6 0.000000 0.000000 0.000000 0.000000 0.000000 0.066534
#
#
# Mechanical properties :
#
#
# Convention : Reuss Voigt Hill
#
# Bulk Modulus (GPa) = 17.59125 28.33212 22.96169
# Shear Modulus (GPa) = 16.66277 21.32996 18.99637
#
# Velocity S-wave (km/s) = 2.79158 3.15843 2.98065
# Velocity P-wave (km/s) = 4.31482 5.15280 4.75232
#
# Compressibility (1/GPa) = 0.05684644
#
# Stress axis : x y z
#
# Youngs Moduli (GPa) = 86.82613 57.61167 24.84470
#
# Poissons Ratio (x) = 0.25489 0.12679
# Poissons Ratio (y) = 0.38415 -0.08418
# Poissons Ratio (z) = 0.44310 -0.19521
#
# Static dielectric constant tensor:
#      x y z
#    x 1.858990 0.000000 0.000000 
#    y 0.000000 1.778780 0.000000 
#    z 0.000000 0.000000 1.885790 
# 
# From -- ./inp_files/7406.got.cif
#   From: 2010.05.17/outbox.cif.g08.bks.cpg/sg56_4_cif.got.tgz:7406.got - 2010.06.03 13:42:01.
