data_PCOD9431221
_publ_section_title
;
Structure prediction by ZEFSAII (Michael W. Deem and Ramdas Pophale) SiO2 
 PCOD9431221
Probable space group: P C C N
;
_chemical_formula_sum "Si O2"
_cell_formula_units_Z 48
_cell_length_a 8.578605
_cell_length_b 27.770863
_cell_length_c 9.180168
_cell_angle_alpha 90.000000
_cell_angle_beta 90.000000
_cell_angle_gamma 90.000000
_cell_volume 2187.039749
_symmetry_space_group_name_H-M "P C C N"
_symmetry_group_IT_number 56
_symmetry_cell_setting 'orthorhombic'
loop_
_space_group_symop_operation_xyz
x,y,z
1/2-x,1/2-y,z
1/2+x,-y,1/2-z
-x,1/2+y,1/2-z
-x,-y,-z
1/2+x,1/2+y,-z
1/2-x,y,1/2+z
x,1/2-y,1/2+z
loop_
_atom_site_type_symbol
_atom_site_label
_atom_site_fract_x
_atom_site_fract_y
_atom_site_fract_z
Si Si1 0.250000 0.250000 0.026516
Si Si2 0.400196 0.385706 0.825876
Si Si3 0.000000 0.500000 0.000000
Si Si4 0.628982 0.814484 0.229242
Si Si5 0.978904 0.104679 0.131228
Si Si6 0.284412 0.475463 0.227265
Si Si7 0.132232 0.573942 0.886752
O O1 0.134726 0.222366 0.136689
O O2 0.348060 0.214847 0.919948
O O3 0.284032 0.347398 0.758229
O O4 0.319331 0.438094 0.818498
O O5 0.554879 0.392384 0.731526
O O6 0.439460 0.373108 0.989512
O O7 0.991381 0.439212 0.990124
O O8 0.168243 0.497283 0.107860
O O9 0.492538 0.853898 0.246651
O O10 0.075002 0.056073 0.163568
O O11 0.805101 0.090125 0.087881
O O12 0.362978 0.516698 0.330851
#
# Coordination Sequence:
#
# PCOD9431221 Si02
#       7
#     4   8   4   8   8   8   8
#     4  10  20  44  74  96 120 152 208 262 342 418
#     4  11  23  37  59  92 125 164 219 258 318 376
#     4   8  22  36  52  82 114 186 226 256 300 346
#     4  10  22  41  71 100 118 157 203 269 323 406
#     4  11  23  37  59  94 129 162 220 271 316 376
#     4   9  22  36  57  81 125 176 222 258 298 358
#     4  10  23  36  57  83 135 176 215 259 307 363
#
# _framework density 21.947476000000002
#
# number of rings (size 3 to 8) (size 9 to 14) (size 15 to 20)
#    1.000    1.000    1.667    1.000    7.000    2.667 
#    0.000    0.000    0.000    6.000    0.000    0.000 
#    0.000    0.000    0.000    0.000    0.000    0.000 
#
# Total GULP energy -267426.181978 kJ/mol
# GULP energy per Si atom -5571.378791 kJ/mol
# Density = 2.189752 g / cm^3
# Si number density = 21.947476 Si / 1000 Ang^3
#
#
#
# Elastic Constant Matrix: (Units=GPa)
#
#
# Indices 1 2 3 4 5 6 
#
# 1 72.8729 -1.3734 16.1804 0.0000 0.0000 0.0000
# 2 -1.3734 67.4966 22.0102 0.0000 0.0000 0.0000
# 3 16.1804 22.0102 83.7581 0.0000 0.0000 0.0000
# 4 0.0000 0.0000 0.0000 40.6247 0.0000 0.0000
# 5 0.0000 0.0000 0.0000 0.0000 21.4997 0.0000
# 6 0.0000 0.0000 0.0000 0.0000 0.0000 23.7460
#
#
#
# Elastic Compliance Matrix: (Units=1/GPa)
#
#
# Indices 1 2 3 4 5 6 
#
# 1 0.014444 0.001317 -0.003136 0.000000 0.000000 0.000000
# 2 0.001317 0.016324 -0.004544 0.000000 0.000000 0.000000
# 3 -0.003136 -0.004544 0.013739 0.000000 0.000000 0.000000
# 4 0.000000 0.000000 0.000000 0.024616 0.000000 0.000000
# 5 0.000000 0.000000 0.000000 0.000000 0.046512 0.000000
# 6 0.000000 0.000000 0.000000 0.000000 0.000000 0.042112
#
#
# Mechanical properties :
#
#
# Convention : Reuss Voigt Hill
#
# Bulk Modulus (GPa) = 31.46673 33.08466 32.27570
# Shear Modulus (GPa) = 27.61400 29.66145 28.63772
#
# Velocity S-wave (km/s) = 3.55094 3.68023 3.61616
# Velocity P-wave (km/s) = 5.58396 5.75899 5.67215
#
# Compressibility (1/GPa) = 0.03177959
#
# Stress axis : x y z
#
# Youngs Moduli (GPa) = 69.23445 61.25901 72.78509
#
# Poissons Ratio (x) = -0.08065 0.22827
# Poissons Ratio (y) = -0.09115 0.33074
# Poissons Ratio (z) = 0.21713 0.27836
#
# Static dielectric constant tensor:
#      x y z
#    x 2.097680 0.000000 0.000000 
#    y 0.000000 1.853870 0.000000 
#    z 0.000000 0.000000 2.712210 
# 
# From -- ./inp_files/2289.got.cif
#   From: 2010.05.17/outbox.cif.g08.bks.cpg/sg56_2_cif.got.tgz:2289.got - 2010.06.03 13:42:01.
