data_PCOD9431958
_publ_section_title
;
Structure prediction by ZEFSAII (Michael W. Deem and Ramdas Pophale) SiO2 
 PCOD9431958
Probable space group: P C C N
;
_chemical_formula_sum "Si O2"
_cell_formula_units_Z 48
_cell_length_a 5.277055
_cell_length_b 30.707170
_cell_length_c 14.349639
_cell_angle_alpha 90.000000
_cell_angle_beta 90.000000
_cell_angle_gamma 90.000000
_cell_volume 2325.264651
_symmetry_space_group_name_H-M "P C C N"
_symmetry_group_IT_number 56
_symmetry_cell_setting 'orthorhombic'
loop_
_space_group_symop_operation_xyz
x,y,z
1/2-x,1/2-y,z
1/2+x,-y,1/2-z
-x,1/2+y,1/2-z
-x,-y,-z
1/2+x,1/2+y,-z
1/2-x,y,1/2+z
x,1/2-y,1/2+z
loop_
_atom_site_type_symbol
_atom_site_label
_atom_site_fract_x
_atom_site_fract_y
_atom_site_fract_z
Si Si1 0.257971 0.019093 0.883293
Si Si2 0.594102 0.685624 0.677733
Si Si3 0.253478 0.036183 0.599212
Si Si4 0.000077 0.220763 0.524555
Si Si5 0.406438 0.684065 0.273938
Si Si6 0.180969 0.100687 0.751695
O O1 0.184979 0.058130 0.815140
O O2 0.523156 0.994473 0.863596
O O3 0.279228 0.037723 0.988148
O O4 0.025851 0.985223 0.881546
O O5 0.541411 0.693698 0.569977
O O6 0.362109 0.701435 0.740673
O O7 0.622981 0.634625 0.703373
O O8 0.866188 0.703670 0.710998
O O9 0.240933 0.082550 0.649422
O O10 0.750000 0.250000 0.512138
O O11 0.959589 0.193248 0.618396
O O12 0.250000 0.250000 0.537378
O O13 0.436169 0.632002 0.255285
#
# Coordination Sequence:
#
# PCOD9431958 Si02
#       6
#     8   8   8   8   8   8
#     4  10  22  38  59  90 122 169 214 259 316 370
#     4  10  25  43  65 100 127 168 215 266 328 383
#     4  10  22  38  59  90 122 169 214 259 316 370
#     4  12  26  46  72  96 130 171 210 269 330 404
#     4  10  25  43  65 100 127 168 215 266 328 383
#     4  10  24  38  67  84 134 160 218 262 321 370
#
# _framework density 20.642810000000001
#
# number of rings (size 3 to 8) (size 9 to 14) (size 15 to 20)
#    1.000    0.667    0.000    3.000    7.000    4.000 
#    3.000    0.000    0.000    0.000    0.000    0.000 
#    0.000    0.000    0.000    0.000    0.000    0.000 
#
# Total GULP energy -267883.891739 kJ/mol
# GULP energy per Si atom -5580.914411 kJ/mol
# Density = 2.059583 g / cm^3
# Si number density = 20.642810 Si / 1000 Ang^3
#
#
#
# Elastic Constant Matrix: (Units=GPa)
#
#
# Indices 1 2 3 4 5 6 
#
# 1 100.1382 9.7167 26.5955 0.0000 0.0000 0.0000
# 2 9.7167 44.8570 15.5456 0.0000 0.0000 0.0000
# 3 26.5955 15.5456 101.2778 0.0000 0.0000 0.0000
# 4 0.0000 0.0000 0.0000 68.7112 0.0000 0.0000
# 5 0.0000 0.0000 0.0000 0.0000 23.3078 0.0000
# 6 0.0000 0.0000 0.0000 0.0000 0.0000 17.7004
#
#
#
# Elastic Compliance Matrix: (Units=1/GPa)
#
#
# Indices 1 2 3 4 5 6 
#
# 1 0.010822 -0.001436 -0.002621 0.000000 0.000000 0.000000
# 2 -0.001436 0.023736 -0.003266 0.000000 0.000000 0.000000
# 3 -0.002621 -0.003266 0.011064 0.000000 0.000000 0.000000
# 4 0.000000 0.000000 0.000000 0.014554 0.000000 0.000000
# 5 0.000000 0.000000 0.000000 0.000000 0.042904 0.000000
# 6 0.000000 0.000000 0.000000 0.000000 0.000000 0.056496
#
#
# Mechanical properties :
#
#
# Convention : Reuss Voigt Hill
#
# Bulk Modulus (GPa) = 32.28464 38.88764 35.58614
# Shear Modulus (GPa) = 27.09343 34.90489 30.99916
#
# Velocity S-wave (km/s) = 3.62676 4.11651 3.87937
# Velocity P-wave (km/s) = 5.76294 6.43999 6.11085
#
# Compressibility (1/GPa) = 0.03097448
#
# Stress axis : x y z
#
# Youngs Moduli (GPa) = 92.40667 42.12997 90.38663
#
# Poissons Ratio (x) = 0.06048 0.23694
# Poissons Ratio (y) = 0.13267 0.29524
# Poissons Ratio (z) = 0.24224 0.13761
#
# Static dielectric constant tensor:
#      x y z
#    x 1.705440 0.000000 0.000000 
#    y 0.000000 1.682750 0.000000 
#    z 0.000000 0.000000 1.728300 
# 
# From -- ./inp_files/9773.got.cif
#   From: 2010.05.17/outbox.cif.g08.bks.cpg/sg56_5_cif.got.tgz:9773.got - 2010.06.03 13:42:01.
