data_PCOD9431451
_publ_section_title
;
Structure prediction by ZEFSAII (Michael W. Deem and Ramdas Pophale) SiO2 
 PCOD9431451
Probable space group: P C C N
;
_chemical_formula_sum "Si O2"
_cell_formula_units_Z 52
_cell_length_a 18.731668
_cell_length_b 13.609755
_cell_length_c 8.933149
_cell_angle_alpha 90.000000
_cell_angle_beta 90.000000
_cell_angle_gamma 90.000000
_cell_volume 2277.358156
_symmetry_space_group_name_H-M "P C C N"
_symmetry_group_IT_number 56
_symmetry_cell_setting 'orthorhombic'
loop_
_space_group_symop_operation_xyz
x,y,z
1/2-x,1/2-y,z
1/2+x,-y,1/2-z
-x,1/2+y,1/2-z
-x,-y,-z
1/2+x,1/2+y,-z
1/2-x,y,1/2+z
x,1/2-y,1/2+z
loop_
_atom_site_type_symbol
_atom_site_label
_atom_site_fract_x
_atom_site_fract_y
_atom_site_fract_z
Si Si1 0.072072 0.060425 0.029066
Si Si2 0.750000 0.750000 0.496352
Si Si3 0.845800 0.848923 0.739463
Si Si4 0.782248 0.359270 0.316883
Si Si5 0.415823 0.710220 0.347952
Si Si6 0.984190 0.750609 0.594166
Si Si7 0.156373 0.579934 0.363103
O O1 0.120187 0.053503 0.180132
O O2 0.047590 0.172129 0.020226
O O3 0.119440 0.023797 0.890250
O O4 0.000000 0.000000 0.000000
O O5 0.787273 0.831542 0.606259
O O6 0.691899 0.796717 0.382943
O O7 0.917265 0.804581 0.664835
O O8 0.750000 0.250000 0.834055
O O9 0.843767 0.346456 0.191912
O O10 0.717973 0.425178 0.258300
O O11 0.810447 0.390372 0.477045
O O12 0.454924 0.689974 0.504197
O O13 0.473130 0.690596 0.219502
O O14 0.396033 0.827011 0.335851
#
# Coordination Sequence:
#
# PCOD9431451 Si02
#       7
#     8   4   8   8   8   8   8
#     4  12  23  41  64  96 134 166 207 274 336 374
#     4  10  22  42  68  94 116 168 230 274 304 376
#     4  11  22  41  67  95 122 167 227 267 319 387
#     4  10  21  38  63  96 126 170 218 251 317 404
#     4  11  20  37  67  93 125 166 216 258 310 393
#     4  12  21  39  67  96 118 170 218 260 314 386
#     4  11  23  39  61  95 135 166 205 269 329 378
#
# _framework density 22.833473999999999
#
# number of rings (size 3 to 8) (size 9 to 14) (size 15 to 20)
#    0.000    0.923    6.154    1.385    2.154    1.231 
#    0.000    0.000    3.385    5.538    0.000    0.000 
#    0.000    0.000    0.000    0.000    0.000    0.000 
#
# Total GULP energy -290022.153355 kJ/mol
# GULP energy per Si atom -5577.349103 kJ/mol
# Density = 2.278150 g / cm^3
# Si number density = 22.833474 Si / 1000 Ang^3
#
#
#
# Elastic Constant Matrix: (Units=GPa)
#
#
# Indices 1 2 3 4 5 6 
#
# 1 101.2840 2.3763 33.1685 0.0000 0.0000 0.0000
# 2 2.3763 18.6319 3.4413 0.0000 0.0000 0.0000
# 3 33.1685 3.4413 108.6270 0.0000 0.0000 0.0000
# 4 0.0000 0.0000 0.0000 17.4695 0.0000 0.0000
# 5 0.0000 0.0000 0.0000 0.0000 52.7831 0.0000
# 6 0.0000 0.0000 0.0000 0.0000 0.0000 30.0479
#
#
#
# Elastic Compliance Matrix: (Units=1/GPa)
#
#
# Indices 1 2 3 4 5 6 
#
# 1 0.010982 -0.000786 -0.003328 0.000000 0.000000 0.000000
# 2 -0.000786 0.054044 -0.001472 0.000000 0.000000 0.000000
# 3 -0.003328 -0.001472 0.010269 0.000000 0.000000 0.000000
# 4 0.000000 0.000000 0.000000 0.057242 0.000000 0.000000
# 5 0.000000 0.000000 0.000000 0.000000 0.018945 0.000000
# 6 0.000000 0.000000 0.000000 0.000000 0.000000 0.033280
#
#
# Mechanical properties :
#
#
# Convention : Reuss Voigt Hill
#
# Bulk Modulus (GPa) = 15.59544 34.05725 24.82634
# Shear Modulus (GPa) = 23.00878 32.69723 27.85300
#
# Velocity S-wave (km/s) = 3.17784 3.78827 3.49640
# Velocity P-wave (km/s) = 4.50664 5.83802 5.21499
#
# Compressibility (1/GPa) = 0.06412130
#
# Stress axis : x y z
#
# Youngs Moduli (GPa) = 91.06144 18.50359 97.38323
#
# Poissons Ratio (x) = 0.01454 0.32412
# Poissons Ratio (y) = 0.07156 0.14336
# Poissons Ratio (z) = 0.30308 0.02724
#
# Static dielectric constant tensor:
#      x y z
#    x 1.902100 0.000000 0.000000 
#    y 0.000000 1.777070 0.000000 
#    z 0.000000 0.000000 1.863940 
# 
# From -- ./inp_files/4077.got.cif
#   From: 2010.05.17/outbox.cif.g08.bks.cpg/sg56_3_cif.got.tgz:4077.got - 2010.06.03 13:42:01.
