data_PCOD9431724
_publ_section_title
;
Structure prediction by ZEFSAII (Michael W. Deem and Ramdas Pophale) SiO2 
 PCOD9431724
Probable space group: P C C N
;
_chemical_formula_sum "Si O2"
_cell_formula_units_Z 60
_cell_length_a 18.143650
_cell_length_b 8.477927
_cell_length_c 18.209624
_cell_angle_alpha 90.000000
_cell_angle_beta 90.000000
_cell_angle_gamma 90.000000
_cell_volume 2801.014201
_symmetry_space_group_name_H-M "P C C N"
_symmetry_group_IT_number 56
_symmetry_cell_setting 'orthorhombic'
loop_
_space_group_symop_operation_xyz
x,y,z
1/2-x,1/2-y,z
1/2+x,-y,1/2-z
-x,1/2+y,1/2-z
-x,-y,-z
1/2+x,1/2+y,-z
1/2-x,y,1/2+z
x,1/2-y,1/2+z
loop_
_atom_site_type_symbol
_atom_site_label
_atom_site_fract_x
_atom_site_fract_y
_atom_site_fract_z
Si Si1 0.717901 0.521076 0.015888
Si Si2 0.150176 0.508297 0.185225
Si Si3 0.875502 0.088683 0.566332
Si Si4 0.367701 0.583593 0.851838
Si Si5 0.866795 0.230764 0.930162
Si Si6 0.520750 0.426881 0.829371
Si Si7 0.520995 0.564279 0.680755
Si Si8 0.750000 0.750000 0.892643
O O1 0.802291 0.504178 0.041344
O O2 0.669730 0.532580 0.089209
O O3 0.692571 0.360982 0.977177
O O4 0.705162 0.646069 0.951694
O O5 0.162433 0.551889 0.270269
O O6 0.165457 0.657524 0.132753
O O7 0.198112 0.362546 0.156081
O O8 0.061328 0.489116 0.177239
O O9 0.856465 0.237915 0.619531
O O10 0.907544 0.160832 0.490722
O O11 0.931461 0.981679 0.610965
O O12 0.454534 0.543592 0.849964
O O13 0.921075 0.105911 0.892848
O O14 0.556167 0.494568 0.755046
O O15 0.488834 0.251998 0.813057
#
# Coordination Sequence:
#
# PCOD9431724 Si02
#       8
#     8   8   8   8   8   8   8   4
#     4  11  26  44  64  96 136 177 218 275 327 411
#     4  10  23  44  65  96 131 175 218 284 325 403
#     4  11  22  42  65  93 131 180 212 275 333 403
#     4  10  23  43  66  96 135 167 233 266 336 401
#     4  10  21  41  65  91 130 170 223 261 339 387
#     4  10  22  40  68  99 124 174 215 289 323 400
#     4  10  22  41  65  94 135 164 228 271 342 395
#     4  12  26  42  66  96 138 170 216 276 342 380
#
# _framework density 21.420812999999999
#
# number of rings (size 3 to 8) (size 9 to 14) (size 15 to 20)
#    0.000    1.600    1.333    4.000    1.867    9.067 
#    9.600    0.000    0.000    0.000    0.000    0.000 
#    0.000    0.000    0.000    0.000    0.000    0.000 
#
# Total GULP energy -335143.149637 kJ/mol
# GULP energy per Si atom -5585.719161 kJ/mol
# Density = 2.137206 g / cm^3
# Si number density = 21.420813 Si / 1000 Ang^3
#
#
#
# Elastic Constant Matrix: (Units=GPa)
#
#
# Indices 1 2 3 4 5 6 
#
# 1 34.2112 0.7075 30.6911 0.0000 0.0000 0.0000
# 2 0.7075 57.7195 28.7828 0.0000 0.0000 0.0000
# 3 30.6911 28.7828 152.1262 0.0000 0.0000 0.0000
# 4 0.0000 0.0000 0.0000 40.2043 0.0000 0.0000
# 5 0.0000 0.0000 0.0000 0.0000 -112.6568 0.0000
# 6 0.0000 0.0000 0.0000 0.0000 0.0000 17.8000
#
#
#
# Elastic Compliance Matrix: (Units=1/GPa)
#
#
# Indices 1 2 3 4 5 6 
#
# 1 0.036335 0.003545 -0.008001 0.000000 0.000000 0.000000
# 2 0.003545 0.019476 -0.004400 0.000000 0.000000 0.000000
# 3 -0.008001 -0.004400 0.009020 0.000000 0.000000 0.000000
# 4 0.000000 0.000000 0.000000 0.024873 0.000000 0.000000
# 5 0.000000 0.000000 0.000000 0.000000 -0.008877 0.000000
# 6 0.000000 0.000000 0.000000 0.000000 0.000000 0.056180
#
#
# Mechanical properties :
#
#
# Convention : Reuss Voigt Hill
#
# Bulk Modulus (GPa) = 21.22349 40.49105 30.85727
# Shear Modulus (GPa) = 29.33826 1.32788 15.33307
#
# Velocity S-wave (km/s) = 3.70485 0.78819 2.67835
# Velocity P-wave (km/s) = 5.31324 4.44658 4.89911
#
# Compressibility (1/GPa) = 0.04711760
#
# Stress axis : x y z
#
# Youngs Moduli (GPa) = 27.52193 51.34561 110.86258
#
# Poissons Ratio (x) = -0.18199 0.88702
# Poissons Ratio (y) = -0.09755 0.48779
# Poissons Ratio (z) = 0.22020 0.22592
#
# Static dielectric constant tensor:
#      x y z
#    x 1.799810 0.000000 0.000000 
#    y 0.000000 1.838760 0.000000 
#    z 0.000000 0.000000 1.775930 
# 
# From -- ./inp_files/16667.got.cif
#   From: 2010.05.17/outbox.cif.g08.bks.cpg/sg56_9_cif.got.tgz:16667.got - 2010.06.03 13:42:01.
