data_PCOD9431686
_publ_section_title
;
Structure prediction by ZEFSAII (Michael W. Deem and Ramdas Pophale) SiO2 
 PCOD9431686
Probable space group: P C C N
;
_chemical_formula_sum "Si O2"
_cell_formula_units_Z 56
_cell_length_a 10.819992
_cell_length_b 14.436001
_cell_length_c 14.475123
_cell_angle_alpha 90.000000
_cell_angle_beta 90.000000
_cell_angle_gamma 90.000000
_cell_volume 2260.976799
_symmetry_space_group_name_H-M "P C C N"
_symmetry_group_IT_number 56
_symmetry_cell_setting 'orthorhombic'
loop_
_space_group_symop_operation_xyz
x,y,z
1/2-x,1/2-y,z
1/2+x,-y,1/2-z
-x,1/2+y,1/2-z
-x,-y,-z
1/2+x,1/2+y,-z
1/2-x,y,1/2+z
x,1/2-y,1/2+z
loop_
_atom_site_type_symbol
_atom_site_label
_atom_site_fract_x
_atom_site_fract_y
_atom_site_fract_z
Si Si1 0.264698 0.354773 0.418833
Si Si2 0.352131 0.815145 0.592744
Si Si3 0.965232 0.353095 0.956530
Si Si4 0.937609 0.690793 0.848131
Si Si5 0.270736 0.954667 0.467376
Si Si6 0.809048 0.628083 0.288950
Si Si7 0.844127 0.077363 0.732612
O O1 0.250000 0.250000 0.454351
O O2 0.405012 0.395432 0.426076
O O3 0.191184 0.438080 0.465067
O O4 0.242463 0.351264 0.309421
O O5 0.250000 0.750000 0.543818
O O6 0.451865 0.736150 0.610592
O O7 0.374905 0.895225 0.519540
O O8 0.295683 0.856480 0.686015
O O9 0.853756 0.425558 0.972840
O O10 0.992628 0.306285 0.054951
O O11 0.803957 0.642207 0.859621
O O12 0.909381 0.793285 0.810483
O O13 0.023561 0.622385 0.789392
O O14 0.237123 0.927315 0.361086
O O15 0.855621 0.524069 0.277746
#
# Coordination Sequence:
#
# PCOD9431686 Si02
#       7
#     8   8   8   8   8   8   8
#     4  11  21  37  62  87 120 166 207 257 305 383
#     4  10  22  41  63  94 125 160 212 265 318 388
#     4  10  22  38  63  88 124 163 208 258 326 383
#     4  10  21  41  61  90 127 167 208 263 323 382
#     4   9  22  42  60  92 127 162 205 263 318 383
#     4  10  22  42  61  90 130 163 213 266 319 387
#     4  10  22  41  66  91 123 169 215 260 322 383
#
# _framework density 24.768053999999999
#
# number of rings (size 3 to 8) (size 9 to 14) (size 15 to 20)
#    0.000    2.000    1.429    1.286    4.000    2.857 
#   12.857    1.429    0.000    0.000    0.000    0.000 
#    0.000    0.000    0.000    0.000    0.000    0.000 
#
# Total GULP energy -312470.393376 kJ/mol
# GULP energy per Si atom -5579.828453 kJ/mol
# Density = 2.471168 g / cm^3
# Si number density = 24.768054 Si / 1000 Ang^3
#
#
#
# Elastic Constant Matrix: (Units=GPa)
#
#
# Indices 1 2 3 4 5 6 
#
# 1 49.9944 16.7728 7.0817 0.0000 0.0000 0.0000
# 2 16.7728 158.0992 40.4438 0.0000 0.0000 0.0000
# 3 7.0817 40.4438 83.0590 0.0000 0.0000 0.0000
# 4 0.0000 0.0000 0.0000 36.2765 0.0000 0.0000
# 5 0.0000 0.0000 0.0000 0.0000 26.0997 0.0000
# 6 0.0000 0.0000 0.0000 0.0000 0.0000 33.6196
#
#
#
# Elastic Compliance Matrix: (Units=1/GPa)
#
#
# Indices 1 2 3 4 5 6 
#
# 1 0.020787 -0.002001 -0.000798 0.000000 0.000000 0.000000
# 2 -0.002001 0.007418 -0.003441 0.000000 0.000000 0.000000
# 3 -0.000798 -0.003441 0.013783 0.000000 0.000000 0.000000
# 4 0.000000 0.000000 0.000000 0.027566 0.000000 0.000000
# 5 0.000000 0.000000 0.000000 0.000000 0.038315 0.000000
# 6 0.000000 0.000000 0.000000 0.000000 0.000000 0.029745
#
#
# Mechanical properties :
#
#
# Convention : Reuss Voigt Hill
#
# Bulk Modulus (GPa) = 33.89016 46.63880 40.26448
# Shear Modulus (GPa) = 31.26381 34.32277 32.79329
#
# Velocity S-wave (km/s) = 3.55669 3.72663 3.64265
# Velocity P-wave (km/s) = 5.52987 6.11458 5.82956
#
# Compressibility (1/GPa) = 0.02950709
#
# Stress axis : x y z
#
# Youngs Moduli (GPa) = 48.10783 134.81121 72.55141
#
# Poissons Ratio (x) = 0.26978 0.05789
# Poissons Ratio (y) = 0.09627 0.24967
# Poissons Ratio (z) = 0.03838 0.46393
#
# Static dielectric constant tensor:
#      x y z
#    x 2.142240 0.000000 0.000000 
#    y 0.000000 2.051430 0.000000 
#    z 0.000000 0.000000 2.018610 
# 
# From -- ./inp_files/11693.got.cif
#   From: 2010.05.17/outbox.cif.g08.bks.cpg/sg56_6_cif.got.tgz:11693.got - 2010.06.03 13:42:01.
