data_PCOD9431765
_publ_section_title
;
Structure prediction by ZEFSAII (Michael W. Deem and Ramdas Pophale) SiO2 
 PCOD9431765
Probable space group: P C C N
;
_chemical_formula_sum "Si O2"
_cell_formula_units_Z 56
_cell_length_a 19.163770
_cell_length_b 13.785429
_cell_length_c 9.360766
_cell_angle_alpha 90.000000
_cell_angle_beta 90.000000
_cell_angle_gamma 90.000000
_cell_volume 2472.934564
_symmetry_space_group_name_H-M "P C C N"
_symmetry_group_IT_number 56
_symmetry_cell_setting 'orthorhombic'
loop_
_space_group_symop_operation_xyz
x,y,z
1/2-x,1/2-y,z
1/2+x,-y,1/2-z
-x,1/2+y,1/2-z
-x,-y,-z
1/2+x,1/2+y,-z
1/2-x,y,1/2+z
x,1/2-y,1/2+z
loop_
_atom_site_type_symbol
_atom_site_label
_atom_site_fract_x
_atom_site_fract_y
_atom_site_fract_z
Si Si1 0.901089 0.816581 0.168198
Si Si2 0.081179 0.480464 0.958305
Si Si3 0.205547 0.459265 0.429253
Si Si4 0.186311 0.683951 0.371416
Si Si5 0.388339 0.823553 0.081877
Si Si6 0.834232 0.612447 0.254979
Si Si7 0.963478 0.790609 0.436735
O O1 0.858222 0.914968 0.164333
O O2 0.854603 0.725488 0.226750
O O3 0.968996 0.803515 0.268549
O O4 0.927176 0.801706 0.006013
O O5 0.125596 0.568516 0.020049
O O6 0.099885 0.455600 0.794465
O O7 0.091531 0.376514 0.030463
O O8 0.000000 0.500000 0.000000
O O9 0.206514 0.575276 0.415924
O O10 0.274617 0.415403 0.358823
O O11 0.193850 0.419479 0.590079
O O12 0.250000 0.750000 0.314133
O O13 0.158497 0.743257 0.506331
O O14 0.127033 0.677983 0.249206
O O15 0.465874 0.804273 0.023051
#
# Coordination Sequence:
#
# PCOD9431765 Si02
#       7
#     8   8   8   8   8   8   8
#     4  11  22  44  69 104 140 176 228 294 363 436
#     4   9  21  43  73  97 137 185 240 287 361 414
#     4  12  28  44  70 106 146 185 243 293 361 434
#     4  12  28  44  70  97 142 188 246 292 353 417
#     4  11  24  45  68  99 136 188 238 295 349 421
#     4  11  26  43  73 106 141 187 233 297 366 432
#     4  10  21  41  72  99 138 181 230 291 363 427
#
# _framework density 22.645160000000001
#
# number of rings (size 3 to 8) (size 9 to 14) (size 15 to 20)
#    0.000    1.143    1.429    3.429   12.000    1.143 
#    0.000    0.714    0.000    0.000    0.000    0.000 
#    0.000    0.000    0.000    0.000    0.000    0.000 
#
# Total GULP energy -312298.641393 kJ/mol
# GULP energy per Si atom -5576.761453 kJ/mol
# Density = 2.259362 g / cm^3
# Si number density = 22.645160 Si / 1000 Ang^3
#
#
#
# Elastic Constant Matrix: (Units=GPa)
#
#
# Indices 1 2 3 4 5 6 
#
# 1 58.3313 8.3247 18.1486 0.0000 0.0000 0.0000
# 2 8.3247 92.6048 -0.6162 0.0000 0.0000 0.0000
# 3 18.1486 -0.6162 117.4758 0.0000 0.0000 0.0000
# 4 0.0000 0.0000 0.0000 22.1561 0.0000 0.0000
# 5 0.0000 0.0000 0.0000 0.0000 33.7158 0.0000
# 6 0.0000 0.0000 0.0000 0.0000 0.0000 30.4250
#
#
#
# Elastic Compliance Matrix: (Units=1/GPa)
#
#
# Indices 1 2 3 4 5 6 
#
# 1 0.018261 -0.001660 -0.002830 0.000000 0.000000 0.000000
# 2 -0.001660 0.010950 0.000314 0.000000 0.000000 0.000000
# 3 -0.002830 0.000314 0.008951 0.000000 0.000000 0.000000
# 4 0.000000 0.000000 0.000000 0.045134 0.000000 0.000000
# 5 0.000000 0.000000 0.000000 0.000000 0.029660 0.000000
# 6 0.000000 0.000000 0.000000 0.000000 0.000000 0.032868
#
#
# Mechanical properties :
#
#
# Convention : Reuss Voigt Hill
#
# Bulk Modulus (GPa) = 33.54632 35.56956 34.55794
# Shear Modulus (GPa) = 30.46688 33.42970 31.94829
#
# Velocity S-wave (km/s) = 3.67195 3.84636 3.76017
# Velocity P-wave (km/s) = 5.72920 5.95545 5.84342
#
# Compressibility (1/GPa) = 0.02980953
#
# Stress axis : x y z
#
# Youngs Moduli (GPa) = 54.76194 91.32487 111.71681
#
# Poissons Ratio (x) = 0.15163 0.31613
# Poissons Ratio (y) = 0.09093 -0.03507
# Poissons Ratio (z) = 0.15496 -0.02867
#
# Static dielectric constant tensor:
#      x y z
#    x 1.924990 0.000000 0.000000 
#    y 0.000000 1.891290 0.000000 
#    z 0.000000 0.000000 1.949860 
# 
# From -- ./inp_files/4464.got.cif
#   From: 2010.05.17/outbox.cif.g08.bks.cpg/sg56_3_cif.got.tgz:4464.got - 2010.06.03 13:42:01.
