data_PCOD9431158
_publ_section_title
;
Structure prediction by ZEFSAII (Michael W. Deem and Ramdas Pophale) SiO2 
 PCOD9431158
Probable space group: P C C N
;
_chemical_formula_sum "Si O2"
_cell_formula_units_Z 60
_cell_length_a 8.695656
_cell_length_b 26.100551
_cell_length_c 11.584124
_cell_angle_alpha 90.000000
_cell_angle_beta 90.000000
_cell_angle_gamma 90.000000
_cell_volume 2629.149150
_symmetry_space_group_name_H-M "P C C N"
_symmetry_group_IT_number 56
_symmetry_cell_setting 'orthorhombic'
loop_
_space_group_symop_operation_xyz
x,y,z
1/2-x,1/2-y,z
1/2+x,-y,1/2-z
-x,1/2+y,1/2-z
-x,-y,-z
1/2+x,1/2+y,-z
1/2-x,y,1/2+z
x,1/2-y,1/2+z
loop_
_atom_site_type_symbol
_atom_site_label
_atom_site_fract_x
_atom_site_fract_y
_atom_site_fract_z
Si Si1 0.276529 0.697097 0.024732
Si Si2 0.297875 0.093634 0.408761
Si Si3 0.332223 0.511243 0.766734
Si Si4 0.250000 0.250000 0.757532
Si Si5 0.494261 0.823543 0.726675
Si Si6 0.204756 0.622501 0.337766
Si Si7 0.472511 0.162651 0.854648
Si Si8 0.885999 0.976515 0.903007
O O1 0.250000 0.750000 0.955677
O O2 0.392565 0.706945 0.131064
O O3 0.109013 0.681481 0.066042
O O4 0.338786 0.647872 0.958263
O O5 0.410562 0.133362 0.343912
O O6 0.131428 0.118898 0.409886
O O7 0.343621 0.077213 0.538785
O O8 0.299244 0.041901 0.332368
O O9 0.267889 0.562090 0.828789
O O10 0.513315 0.520759 0.786618
O O11 0.266435 0.506541 0.637205
O O12 0.383593 0.287241 0.706007
O O13 0.355986 0.208862 0.824507
O O14 0.364087 0.850495 0.802053
O O15 0.066638 0.639436 0.253435
O O16 0.000000 0.000000 0.000000
#
# Coordination Sequence:
#
# PCOD9431158 Si02
#       8
#     8   8   8   4   8   8   8   8
#     4  11  23  41  65  91 125 166 217 274 327 404
#     4  10  22  41  67  95 133 177 219 267 335 396
#     4  11  22  41  65  98 138 175 223 278 324 406
#     4  10  20  42  62  80 122 158 206 266 324 378
#     4  10  22  41  64  89 127 169 210 269 331 389
#     4  11  24  38  63  95 126 164 215 259 329 393
#     4  10  23  41  64  92 123 169 209 272 331 391
#     4  10  22  40  65  92 135 179 218 270 329 383
#
# _framework density 22.821069999999999
#
# number of rings (size 3 to 8) (size 9 to 14) (size 15 to 20)
#    0.000    1.600    1.333    3.200    1.867    5.333 
#    0.000    9.333    0.000    0.000    0.000    0.000 
#    0.000    0.000    0.000    0.000    0.000    0.000 
#
# Total GULP energy -334552.377357 kJ/mol
# GULP energy per Si atom -5575.872956 kJ/mol
# Density = 2.276913 g / cm^3
# Si number density = 22.821070 Si / 1000 Ang^3
#
#
#
# Elastic Constant Matrix: (Units=GPa)
#
#
# Indices 1 2 3 4 5 6 
#
# 1 141.5689 43.1211 30.4234 0.0000 0.0000 0.0000
# 2 43.1211 135.6515 8.5083 0.0000 0.0000 0.0000
# 3 30.4234 8.5083 29.8409 0.0000 0.0000 0.0000
# 4 0.0000 0.0000 0.0000 12.3009 0.0000 0.0000
# 5 0.0000 0.0000 0.0000 0.0000 24.0264 0.0000
# 6 0.0000 0.0000 0.0000 0.0000 0.0000 37.3214
#
#
#
# Elastic Compliance Matrix: (Units=1/GPa)
#
#
# Indices 1 2 3 4 5 6 
#
# 1 0.009838 -0.002544 -0.009305 0.000000 0.000000 0.000000
# 2 -0.002544 0.008164 0.000266 0.000000 0.000000 0.000000
# 3 -0.009305 0.000266 0.042922 0.000000 0.000000 0.000000
# 4 0.000000 0.000000 0.000000 0.081295 0.000000 0.000000
# 5 0.000000 0.000000 0.000000 0.000000 0.041621 0.000000
# 6 0.000000 0.000000 0.000000 0.000000 0.000000 0.026794
#
#
# Mechanical properties :
#
#
# Convention : Reuss Voigt Hill
#
# Bulk Modulus (GPa) = 26.48455 52.35188 39.41821
# Shear Modulus (GPa) = 20.29341 29.73031 25.01186
#
# Velocity S-wave (km/s) = 2.98525 3.61329 3.31418
# Velocity P-wave (km/s) = 4.84900 6.35592 5.65290
#
# Compressibility (1/GPa) = 0.03775786
#
# Stress axis : x y z
#
# Youngs Moduli (GPa) = 101.64515 122.49237 23.29820
#
# Poissons Ratio (x) = 0.31159 0.21679
# Poissons Ratio (y) = 0.25856 -0.00619
# Poissons Ratio (z) = 0.94580 -0.03255
#
# Static dielectric constant tensor:
#      x y z
#    x 1.856110 0.000000 0.000000 
#    y 0.000000 1.885360 0.000000 
#    z 0.000000 0.000000 1.903890 
# 
# From -- ./inp_files/6554.got.cif
#   From: 2010.05.17/outbox.cif.g08.bks.cpg/sg56_4_cif.got.tgz:6554.got - 2010.06.03 13:42:01.
