data_PCOD9431792
_publ_section_title
;
Structure prediction by ZEFSAII (Michael W. Deem and Ramdas Pophale) SiO2 
 PCOD9431792
Probable space group: P C C N
;
_chemical_formula_sum "Si O2"
_cell_formula_units_Z 32
_cell_length_a 7.393284
_cell_length_b 31.233996
_cell_length_c 5.458895
_cell_angle_alpha 90.000000
_cell_angle_beta 90.000000
_cell_angle_gamma 90.000000
_cell_volume 1260.577875
_symmetry_space_group_name_H-M "P C C N"
_symmetry_group_IT_number 56
_symmetry_cell_setting 'orthorhombic'
loop_
_space_group_symop_operation_xyz
x,y,z
1/2-x,1/2-y,z
1/2+x,-y,1/2-z
-x,1/2+y,1/2-z
-x,-y,-z
1/2+x,1/2+y,-z
1/2-x,y,1/2+z
x,1/2-y,1/2+z
loop_
_atom_site_type_symbol
_atom_site_label
_atom_site_fract_x
_atom_site_fract_y
_atom_site_fract_z
Si Si1 0.342750 0.081917 0.520681
Si Si2 0.957205 0.733265 0.473223
Si Si3 0.362533 0.646891 0.083334
Si Si4 0.707838 0.486284 0.488220
O O1 0.290154 0.095230 0.796600
O O2 0.528846 0.102995 0.446667
O O3 0.326597 0.030169 0.517911
O O4 0.750000 0.750000 0.450421
O O5 0.038130 0.759226 0.703364
O O6 0.987687 0.684334 0.546828
O O7 0.226370 0.650770 0.851916
O O8 0.500000 0.500000 0.500000
O O9 0.740100 0.463076 0.235082
#
# Coordination Sequence:
#
# PCOD9431792 Si02
#       4
#     8   8   8   8
#     4  10  23  43  69  95 134 182 220 270 334 401
#     4  10  23  40  65  97 126 182 226 269 335 402
#     4  12  26  43  68 101 135 174 226 287 336 392
#     4  10  21  42  67 103 131 175 222 271 329 402
#
# _framework density 25.385185
#
# number of rings (size 3 to 8) (size 9 to 14) (size 15 to 20)
#    0.000    1.500    0.000    3.750    7.000    3.000 
#    0.000   30.000    0.000    0.000    0.000    0.000 
#    0.000    0.000    0.000    0.000    0.000    0.000 
#
# Total GULP energy -179073.650994 kJ/mol
# GULP energy per Si atom -5596.051594 kJ/mol
# Density = 2.532741 g / cm^3
# Si number density = 25.385185 Si / 1000 Ang^3
#
#
#
# Elastic Constant Matrix: (Units=GPa)
#
#
# Indices 1 2 3 4 5 6 
#
# 1 91.0740 34.2817 12.1493 0.0000 0.0000 0.0000
# 2 34.2817 83.4023 -27.5842 0.0000 0.0000 0.0000
# 3 12.1493 -27.5842 187.1012 0.0000 0.0000 0.0000
# 4 0.0000 0.0000 0.0000 25.4412 0.0000 0.0000
# 5 0.0000 0.0000 0.0000 0.0000 35.7761 0.0000
# 6 0.0000 0.0000 0.0000 0.0000 0.0000 55.9451
#
#
#
# Elastic Compliance Matrix: (Units=1/GPa)
#
#
# Indices 1 2 3 4 5 6 
#
# 1 0.013535 -0.006154 -0.001786 0.000000 0.000000 0.000000
# 2 -0.006154 0.015403 0.002670 0.000000 0.000000 0.000000
# 3 -0.001786 0.002670 0.005854 0.000000 0.000000 0.000000
# 4 0.000000 0.000000 0.000000 0.039306 0.000000 0.000000
# 5 0.000000 0.000000 0.000000 0.000000 0.027952 0.000000
# 6 0.000000 0.000000 0.000000 0.000000 0.000000 0.017875
#
#
# Mechanical properties :
#
#
# Convention : Reuss Voigt Hill
#
# Bulk Modulus (GPa) = 41.23298 44.36346 42.79822
# Shear Modulus (GPa) = 36.08843 46.28121 41.18482
#
# Velocity S-wave (km/s) = 3.77455 4.27448 4.03227
# Velocity P-wave (km/s) = 5.93923 6.47114 6.21088
#
# Compressibility (1/GPa) = 0.02425243
#
# Stress axis : x y z
#
# Youngs Moduli (GPa) = 73.88329 64.92294 170.81210
#
# Poissons Ratio (x) = 0.39954 0.30510
# Poissons Ratio (y) = 0.45469 -0.45614
# Poissons Ratio (z) = 0.13197 -0.17337
#
# Static dielectric constant tensor:
#      x y z
#    x 1.986560 0.000000 0.000000 
#    y 0.000000 1.986330 0.000000 
#    z 0.000000 0.000000 2.092940 
# 
# From -- ./inp_files/134.got.cif
#   From: 2010.05.17/outbox.cif.g08.bks.cpg/sg56_1_cif.got.tgz:134.got - 2010.06.03 13:42:01.
