data_PCOD9431527
_publ_section_title
;
Structure prediction by ZEFSAII (Michael W. Deem and Ramdas Pophale) SiO2 
 PCOD9431527
Probable space group: P C C N
;
_chemical_formula_sum "Si O2"
_cell_formula_units_Z 60
_cell_length_a 6.308920
_cell_length_b 17.458715
_cell_length_c 27.147706
_cell_angle_alpha 90.000000
_cell_angle_beta 90.000000
_cell_angle_gamma 90.000000
_cell_volume 2990.201350
_symmetry_space_group_name_H-M "P C C N"
_symmetry_group_IT_number 56
_symmetry_cell_setting 'orthorhombic'
loop_
_space_group_symop_operation_xyz
x,y,z
1/2-x,1/2-y,z
1/2+x,-y,1/2-z
-x,1/2+y,1/2-z
-x,-y,-z
1/2+x,1/2+y,-z
1/2-x,y,1/2+z
x,1/2-y,1/2+z
loop_
_atom_site_type_symbol
_atom_site_label
_atom_site_fract_x
_atom_site_fract_y
_atom_site_fract_z
Si Si1 0.479742 0.892060 0.457447
Si Si2 0.250000 0.250000 0.548854
Si Si3 0.472806 0.452538 0.681173
Si Si4 0.609110 0.053118 0.436981
Si Si5 0.373049 0.563669 0.207994
Si Si6 0.649981 0.166565 0.862525
Si Si7 0.376834 0.821451 0.885730
Si Si8 0.746079 0.915192 0.133742
O O1 0.625452 0.821063 0.475230
O O2 0.368649 0.924785 0.506233
O O3 0.300737 0.865361 0.418648
O O4 0.622329 0.960671 0.434362
O O5 0.437074 0.288775 0.580219
O O6 0.579059 0.446143 0.734933
O O7 0.236713 0.485214 0.689152
O O8 0.508861 0.373518 0.654088
O O9 0.592771 0.514800 0.647533
O O10 0.755716 0.106681 0.402967
O O11 0.373569 0.070899 0.416278
O O12 0.213744 0.631062 0.190783
O O13 0.582552 0.583486 0.177406
O O14 0.750000 0.250000 0.869162
O O15 0.397989 0.160114 0.867471
O O16 0.250000 0.750000 0.862921
#
# Coordination Sequence:
#
# PCOD9431527 Si02
#       8
#     8   4   8   8   8   8   8   8
#     4  10  22  40  61  96 129 166 219 261 312 379
#     4  10  24  40  62  92 130 170 206 262 324 380
#     4  11  20  38  63  90 123 162 211 262 315 383
#     4  10  22  39  66  94 124 171 218 259 315 377
#     4  10  22  36  63  93 117 164 210 260 320 376
#     4  10  24  41  61  93 128 165 211 262 322 382
#     4  10  23  40  61  90 129 169 206 264 318 376
#     4  10  21  39  63  90 123 161 203 266 308 373
#
# _framework density 20.065538
#
# number of rings (size 3 to 8) (size 9 to 14) (size 15 to 20)
#    0.000    1.867    2.667    0.000    5.600    6.400 
#    0.000    4.000    0.000    0.000    0.000    0.000 
#    0.000    0.000    0.000    0.000    0.000    0.000 
#
# Total GULP energy -334566.222160 kJ/mol
# GULP energy per Si atom -5576.103703 kJ/mol
# Density = 2.001987 g / cm^3
# Si number density = 20.065538 Si / 1000 Ang^3
#
#
#
# Elastic Constant Matrix: (Units=GPa)
#
#
# Indices 1 2 3 4 5 6 
#
# 1 65.8486 33.4095 12.8547 0.0000 0.0000 0.0000
# 2 33.4095 109.8145 41.1914 0.0000 0.0000 0.0000
# 3 12.8547 41.1914 74.7555 0.0000 0.0000 0.0000
# 4 0.0000 0.0000 0.0000 17.9650 0.0000 0.0000
# 5 0.0000 0.0000 0.0000 0.0000 16.1602 0.0000
# 6 0.0000 0.0000 0.0000 0.0000 0.0000 32.4492
#
#
#
# Elastic Compliance Matrix: (Units=1/GPa)
#
#
# Indices 1 2 3 4 5 6 
#
# 1 0.017959 -0.005427 -0.000098 0.000000 0.000000 0.000000
# 2 -0.005427 0.013119 -0.006295 0.000000 0.000000 0.000000
# 3 -0.000098 -0.006295 0.016863 0.000000 0.000000 0.000000
# 4 0.000000 0.000000 0.000000 0.055664 0.000000 0.000000
# 5 0.000000 0.000000 0.000000 0.000000 0.061880 0.000000
# 6 0.000000 0.000000 0.000000 0.000000 0.000000 0.030817
#
#
# Mechanical properties :
#
#
# Convention : Reuss Voigt Hill
#
# Bulk Modulus (GPa) = 41.15255 47.25887 44.20571
# Shear Modulus (GPa) = 21.92574 24.17908 23.05241
#
# Velocity S-wave (km/s) = 3.30920 3.47508 3.39315
# Velocity P-wave (km/s) = 5.92913 6.30119 6.11799
#
# Compressibility (1/GPa) = 0.02429983
#
# Stress axis : x y z
#
# Youngs Moduli (GPa) = 55.68245 76.22649 59.30274
#
# Poissons Ratio (x) = 0.41369 0.00580
# Poissons Ratio (y) = 0.30219 0.37334
# Poissons Ratio (z) = 0.00544 0.47988
#
# Static dielectric constant tensor:
#      x y z
#    x 1.752790 0.000000 0.000000 
#    y 0.000000 1.757630 0.000000 
#    z 0.000000 0.000000 1.685950 
# 
# From -- ./inp_files/21784.got.cif
#   From: 2010.05.17/outbox.cif.g08.bks.cpg/sg56_11_cif.got.tgz:21784.got - 2010.06.03 13:42:01.
