data_PCOD9431820
_publ_section_title
;
Structure prediction by ZEFSAII (Michael W. Deem and Ramdas Pophale) SiO2 
 PCOD9431820
Probable space group: P C C N
;
_chemical_formula_sum "Si O2"
_cell_formula_units_Z 60
_cell_length_a 5.526067
_cell_length_b 16.510394
_cell_length_c 27.166833
_cell_angle_alpha 90.000000
_cell_angle_beta 90.000000
_cell_angle_gamma 90.000000
_cell_volume 2478.635106
_symmetry_space_group_name_H-M "P C C N"
_symmetry_group_IT_number 56
_symmetry_cell_setting 'orthorhombic'
loop_
_space_group_symop_operation_xyz
x,y,z
1/2-x,1/2-y,z
1/2+x,-y,1/2-z
-x,1/2+y,1/2-z
-x,-y,-z
1/2+x,1/2+y,-z
1/2-x,y,1/2+z
x,1/2-y,1/2+z
loop_
_atom_site_type_symbol
_atom_site_label
_atom_site_fract_x
_atom_site_fract_y
_atom_site_fract_z
Si Si1 0.505001 0.789969 0.915045
Si Si2 0.229900 0.931099 0.465152
Si Si3 0.737202 0.625050 0.149019
Si Si4 0.345534 0.144827 0.182102
Si Si5 0.077214 0.003535 0.279729
Si Si6 0.903179 0.977117 0.886972
Si Si7 0.750000 0.750000 0.724779
Si Si8 0.519700 0.413341 0.438063
O O1 0.250000 0.750000 0.928412
O O2 0.466680 0.880947 0.933851
O O3 0.539493 0.791672 0.856120
O O4 0.750000 0.750000 0.935585
O O5 0.473185 0.932945 0.433518
O O6 0.209086 0.890757 0.518967
O O7 0.167270 0.027054 0.466325
O O8 0.927292 0.583265 0.186453
O O9 0.572675 0.548173 0.134763
O O10 0.612728 0.695244 0.182084
O O11 0.875794 0.646943 0.098017
O O12 0.559418 0.080940 0.191548
O O13 0.150551 0.091815 0.152570
O O14 0.237196 0.180262 0.232437
O O15 0.829354 0.999768 0.248970
O O16 0.669514 0.027331 0.902908
#
# Coordination Sequence:
#
# PCOD9431820 Si02
#       8
#     8   8   8   8   8   8   4   8
#     4  12  26  45  67 103 154 189 232 301 384 451
#     4  10  22  41  70 111 135 182 243 308 376 441
#     4  11  25  45  68 102 146 195 249 307 374 451
#     4  12  24  44  72 101 141 191 250 308 373 430
#     4  12  25  44  75  99 137 189 250 303 365 429
#     4  11  21  45  75 104 142 188 251 319 372 448
#     4  12  28  42  66 104 150 198 250 306 372 454
#     4  10  21  42  75 102 137 182 250 305 365 444
#
# _framework density 24.206872000000001
#
# number of rings (size 3 to 8) (size 9 to 14) (size 15 to 20)
#    0.000    0.800    4.667    2.800    0.000    2.133 
#    1.200    2.000    0.000    0.000    0.000    0.000 
#    0.000    0.000    0.000    0.000    0.000    0.000 
#
# Total GULP energy -334125.422444 kJ/mol
# GULP energy per Si atom -5568.757041 kJ/mol
# Density = 2.415178 g / cm^3
# Si number density = 24.206872 Si / 1000 Ang^3
#
#
#
# Elastic Constant Matrix: (Units=GPa)
#
#
# Indices 1 2 3 4 5 6 
#
# 1 81.3545 8.1805 9.5724 0.0000 0.0000 0.0000
# 2 8.1805 41.6588 9.2343 0.0000 0.0000 0.0000
# 3 9.5724 9.2343 124.6230 0.0000 0.0000 0.0000
# 4 0.0000 0.0000 0.0000 33.4728 0.0000 0.0000
# 5 0.0000 0.0000 0.0000 0.0000 37.0362 0.0000
# 6 0.0000 0.0000 0.0000 0.0000 0.0000 17.7299
#
#
#
# Elastic Compliance Matrix: (Units=1/GPa)
#
#
# Indices 1 2 3 4 5 6 
#
# 1 0.012617 -0.002301 -0.000799 0.000000 0.000000 0.000000
# 2 -0.002301 0.024825 -0.001663 0.000000 0.000000 0.000000
# 3 -0.000799 -0.001663 0.008209 0.000000 0.000000 0.000000
# 4 0.000000 0.000000 0.000000 0.029875 0.000000 0.000000
# 5 0.000000 0.000000 0.000000 0.000000 0.027001 0.000000
# 6 0.000000 0.000000 0.000000 0.000000 0.000000 0.056402
#
#
# Mechanical properties :
#
#
# Convention : Reuss Voigt Hill
#
# Bulk Modulus (GPa) = 27.68030 33.51230 30.59630
# Shear Modulus (GPa) = 27.70164 32.35772 30.02968
#
# Velocity S-wave (km/s) = 3.38653 3.66008 3.52596
# Velocity P-wave (km/s) = 5.17215 5.63345 5.40772
#
# Compressibility (1/GPa) = 0.03612678
#
# Stress axis : x y z
#
# Youngs Moduli (GPa) = 79.25695 40.28214 121.82116
#
# Poissons Ratio (x) = 0.09267 0.09729
# Poissons Ratio (y) = 0.18234 0.20256
# Poissons Ratio (z) = 0.06330 0.06698
#
# Static dielectric constant tensor:
#      x y z
#    x 1.972780 0.000000 0.000000 
#    y 0.000000 2.046260 0.000000 
#    z 0.000000 0.000000 2.026280 
# 
# From -- ./inp_files/21792.got.cif
#   From: 2010.05.17/outbox.cif.g08.bks.cpg/sg56_11_cif.got.tgz:21792.got - 2010.06.03 13:42:01.
