data_PCOD9431985
_publ_section_title
;
Structure prediction by ZEFSAII (Michael W. Deem and Ramdas Pophale) SiO2 
 PCOD9431985
Probable space group: P C C N
;
_chemical_formula_sum "Si O2"
_cell_formula_units_Z 48
_cell_length_a 5.493790
_cell_length_b 19.420333
_cell_length_c 21.610717
_cell_angle_alpha 90.000000
_cell_angle_beta 90.000000
_cell_angle_gamma 90.000000
_cell_volume 2305.674005
_symmetry_space_group_name_H-M "P C C N"
_symmetry_group_IT_number 56
_symmetry_cell_setting 'orthorhombic'
loop_
_space_group_symop_operation_xyz
x,y,z
1/2-x,1/2-y,z
1/2+x,-y,1/2-z
-x,1/2+y,1/2-z
-x,-y,-z
1/2+x,1/2+y,-z
1/2-x,y,1/2+z
x,1/2-y,1/2+z
loop_
_atom_site_type_symbol
_atom_site_label
_atom_site_fract_x
_atom_site_fract_y
_atom_site_fract_z
Si Si1 0.908057 0.440275 0.084875
Si Si2 0.633436 0.083886 0.942748
Si Si3 0.634051 0.814749 0.136313
Si Si4 0.630879 0.316461 0.246250
Si Si5 0.410908 0.074937 0.660615
Si Si6 0.959017 0.078778 0.827533
O O1 0.950044 0.521564 0.073327
O O2 0.661515 0.425163 0.121384
O O3 0.157521 0.419787 0.121698
O O4 0.864092 0.410937 0.016142
O O5 0.545441 0.153351 0.912507
O O6 0.866302 0.069413 0.899215
O O7 0.750000 0.750000 0.103660
O O8 0.503240 0.782568 0.195486
O O9 0.795566 0.877656 0.162872
O O10 0.750000 0.250000 0.213216
O O11 0.444095 0.359874 0.205088
O O12 0.802162 0.373740 0.280350
O O13 0.432045 0.000329 0.695109
#
# Coordination Sequence:
#
# PCOD9431985 Si02
#       6
#     8   8   8   8   8   8
#     4  10  22  41  64  95 124 168 208 262 319 383
#     4   9  21  37  63  92 126 156 210 268 323 377
#     4  11  21  38  62  91 123 164 215 266 332 371
#     4  11  25  41  60  93 132 176 212 272 330 391
#     4  11  25  40  66  95 130 169 217 259 317 394
#     4  10  22  38  63  93 125 163 218 272 319 373
#
# _framework density 20.818207999999998
#
# number of rings (size 3 to 8) (size 9 to 14) (size 15 to 20)
#    0.000    1.667    3.333    0.000    7.000    2.000 
#    0.000    1.667    0.000    0.000    0.000    0.000 
#    0.000    0.000    0.000    0.000    0.000    0.000 
#
# Total GULP energy -267205.190987 kJ/mol
# GULP energy per Si atom -5566.774812 kJ/mol
# Density = 2.077082 g / cm^3
# Si number density = 20.818208 Si / 1000 Ang^3
#
#
#
# Elastic Constant Matrix: (Units=GPa)
#
#
# Indices 1 2 3 4 5 6 
#
# 1 77.2267 7.5887 25.2171 0.0000 0.0000 0.0000
# 2 7.5887 90.7479 24.1170 0.0000 0.0000 0.0000
# 3 25.2171 24.1170 70.0315 0.0000 0.0000 0.0000
# 4 0.0000 0.0000 0.0000 -11.9325 0.0000 0.0000
# 5 0.0000 0.0000 0.0000 0.0000 -8.8076 0.0000
# 6 0.0000 0.0000 0.0000 0.0000 0.0000 34.1447
#
#
#
# Elastic Compliance Matrix: (Units=1/GPa)
#
#
# Indices 1 2 3 4 5 6 
#
# 1 0.014677 0.000195 -0.005352 0.000000 0.000000 0.000000
# 2 0.000195 0.012132 -0.004248 0.000000 0.000000 0.000000
# 3 -0.005352 -0.004248 0.017670 0.000000 0.000000 0.000000
# 4 0.000000 0.000000 0.000000 -0.083805 0.000000 0.000000
# 5 0.000000 0.000000 0.000000 0.000000 -0.113539 0.000000
# 6 0.000000 0.000000 0.000000 0.000000 0.000000 0.029287
#
#
# Mechanical properties :
#
#
# Convention : Reuss Voigt Hill
#
# Bulk Modulus (GPa) = 38.95864 39.09462 39.02663
# Shear Modulus (GPa) = -51.96938 14.75316 -18.60811
#
# Velocity S-wave (km/s) = -5.00176 2.66497 -2.99296
# Velocity P-wave (km/s) = 3.82132 5.31876 2.61598
#
# Compressibility (1/GPa) = 0.02566825
#
# Stress axis : x y z
#
# Youngs Moduli (GPa) = 68.13190 82.42506 56.59463
#
# Poissons Ratio (x) = -0.01607 0.30291
# Poissons Ratio (y) = -0.01329 0.24043
# Poissons Ratio (z) = 0.36466 0.35016
#
# Static dielectric constant tensor:
#      x y z
#    x 1.851960 0.000000 0.000000 
#    y 0.000000 1.753520 0.000000 
#    z 0.000000 0.000000 1.772030 
# 
# From -- ./inp_files/17520.got.cif
#   From: 2010.05.17/outbox.cif.g08.bks.cpg/sg56_9_cif.got.tgz:17520.got - 2010.06.03 13:42:01.
