data_PCOD9431519
_publ_section_title
;
Structure prediction by ZEFSAII (Michael W. Deem and Ramdas Pophale) SiO2 
 PCOD9431519
Probable space group: P C C N
;
_chemical_formula_sum "Si O2"
_cell_formula_units_Z 60
_cell_length_a 11.126690
_cell_length_b 15.983540
_cell_length_c 12.609132
_cell_angle_alpha 90.000000
_cell_angle_beta 90.000000
_cell_angle_gamma 90.000000
_cell_volume 2242.457143
_symmetry_space_group_name_H-M "P C C N"
_symmetry_group_IT_number 56
_symmetry_cell_setting 'orthorhombic'
loop_
_space_group_symop_operation_xyz
x,y,z
1/2-x,1/2-y,z
1/2+x,-y,1/2-z
-x,1/2+y,1/2-z
-x,-y,-z
1/2+x,1/2+y,-z
1/2-x,y,1/2+z
x,1/2-y,1/2+z
loop_
_atom_site_type_symbol
_atom_site_label
_atom_site_fract_x
_atom_site_fract_y
_atom_site_fract_z
Si Si1 0.082627 0.652578 0.040083
Si Si2 0.774730 0.938793 0.027039
Si Si3 0.599689 0.594854 0.377623
Si Si4 0.983542 0.159586 0.997580
Si Si5 0.750000 0.750000 0.324814
Si Si6 0.590857 0.883245 0.205165
Si Si7 0.909728 0.432063 0.290294
Si Si8 0.717263 0.384266 0.120465
O O1 0.043735 0.621433 0.156332
O O2 0.027058 0.745657 0.040144
O O3 0.012247 0.594115 0.956301
O O4 0.209856 0.654684 0.980540
O O5 0.677868 0.894752 0.102818
O O6 0.884217 0.879016 0.997703
O O7 0.811436 0.019695 0.093053
O O8 0.698608 0.968071 0.923456
O O9 0.670119 0.682285 0.385431
O O10 0.539744 0.587898 0.263767
O O11 0.920043 0.100830 0.908948
O O12 0.913046 0.157910 0.109937
O O13 0.651707 0.804041 0.260549
O O14 0.602833 0.968805 0.271573
O O15 0.804766 0.384863 0.222380
#
# Coordination Sequence:
#
# PCOD9431519 Si02
#       8
#     8   8   8   8   4   8   8   8
#     4  10  21  42  64  89 128 179 220 269 341 403
#     4  10  21  40  67  92 126 169 219 282 336 392
#     4  10  21  39  65  93 129 171 218 277 340 405
#     4  12  23  41  68  98 135 174 229 281 331 398
#     4  12  22  34  62 102 134 158 220 292 338 394
#     4  10  21  39  62  94 126 167 216 276 344 398
#     4  10  23  43  66  96 134 179 226 271 339 414
#     4  10  23  43  64  92 133 179 222 271 333 403
#
# _framework density 26.756364000000001
#
# number of rings (size 3 to 8) (size 9 to 14) (size 15 to 20)
#    0.000    1.600    0.000    4.800    1.867    5.333 
#    7.200    5.333    0.000    0.000    0.000    0.000 
#    0.000    0.000    0.000    0.000    0.000    0.000 
#
# Total GULP energy -335836.708842 kJ/mol
# GULP energy per Si atom -5597.278481 kJ/mol
# Density = 2.669547 g / cm^3
# Si number density = 26.756364 Si / 1000 Ang^3
#
#
#
# Elastic Constant Matrix: (Units=GPa)
#
#
# Indices 1 2 3 4 5 6 
#
# 1 126.4806 21.6687 34.8326 0.0000 0.0000 0.0000
# 2 21.6687 80.6200 12.7263 0.0000 0.0000 0.0000
# 3 34.8326 12.7263 111.3861 0.0000 0.0000 0.0000
# 4 0.0000 0.0000 0.0000 33.8200 0.0000 0.0000
# 5 0.0000 0.0000 0.0000 0.0000 57.3858 0.0000
# 6 0.0000 0.0000 0.0000 0.0000 0.0000 52.4576
#
#
#
# Elastic Compliance Matrix: (Units=1/GPa)
#
#
# Indices 1 2 3 4 5 6 
#
# 1 0.008958 -0.002002 -0.002573 0.000000 0.000000 0.000000
# 2 -0.002002 0.013079 -0.000868 0.000000 0.000000 0.000000
# 3 -0.002573 -0.000868 0.009881 0.000000 0.000000 0.000000
# 4 0.000000 0.000000 0.000000 0.029568 0.000000 0.000000
# 5 0.000000 0.000000 0.000000 0.000000 0.017426 0.000000
# 6 0.000000 0.000000 0.000000 0.000000 0.000000 0.019063
#
#
# Mechanical properties :
#
#
# Convention : Reuss Voigt Hill
#
# Bulk Modulus (GPa) = 47.54406 50.77135 49.15770
# Shear Modulus (GPa) = 43.15127 45.34994 44.25061
#
# Velocity S-wave (km/s) = 4.02026 4.12141 4.07115
# Velocity P-wave (km/s) = 6.27358 6.45482 6.36484
#
# Compressibility (1/GPa) = 0.02103312
#
# Stress axis : x y z
#
# Youngs Moduli (GPa) = 111.63532 76.45897 101.19926
#
# Poissons Ratio (x) = 0.15303 0.26034
# Poissons Ratio (y) = 0.22344 0.08788
# Poissons Ratio (z) = 0.28719 0.06640
#
# Static dielectric constant tensor:
#      x y z
#    x 2.125550 0.000000 0.000000 
#    y 0.000000 2.066790 0.000000 
#    z 0.000000 0.000000 2.127890 
# 
# From -- ./inp_files/11825.got.cif
#   From: 2010.05.17/outbox.cif.g08.bks.cpg/sg56_6_cif.got.tgz:11825.got - 2010.06.03 13:42:01.
