data_PCOD9431706
_publ_section_title
;
Structure prediction by ZEFSAII (Michael W. Deem and Ramdas Pophale) SiO2 
 PCOD9431706
Probable space group: P C C N
;
_chemical_formula_sum "Si O2"
_cell_formula_units_Z 36
_cell_length_a 15.910373
_cell_length_b 5.128545
_cell_length_c 19.999715
_cell_angle_alpha 90.000000
_cell_angle_beta 90.000000
_cell_angle_gamma 90.000000
_cell_volume 1631.918023
_symmetry_space_group_name_H-M "P C C N"
_symmetry_group_IT_number 56
_symmetry_cell_setting 'orthorhombic'
loop_
_space_group_symop_operation_xyz
x,y,z
1/2-x,1/2-y,z
1/2+x,-y,1/2-z
-x,1/2+y,1/2-z
-x,-y,-z
1/2+x,1/2+y,-z
1/2-x,y,1/2+z
x,1/2-y,1/2+z
loop_
_atom_site_type_symbol
_atom_site_label
_atom_site_fract_x
_atom_site_fract_y
_atom_site_fract_z
Si Si1 0.530409 0.768026 0.916115
Si Si2 0.750000 0.250000 0.965483
Si Si3 0.750000 0.250000 0.246245
Si Si4 0.885788 0.207257 0.860878
Si Si5 0.124259 0.401710 0.953349
Si Si6 0.750000 0.750000 0.652859
O O1 0.543154 0.511463 0.871469
O O2 0.579909 0.009807 0.881728
O O3 0.436468 0.872159 0.925467
O O4 0.569417 0.746694 0.991421
O O5 0.799093 0.457738 0.009051
O O6 0.817135 0.120286 0.916187
O O7 0.667046 0.227645 0.293085
O O8 0.748533 0.500010 0.199597
O O9 0.167320 0.246658 0.893834
#
# Coordination Sequence:
#
# PCOD9431706 Si02
#       6
#     8   4   4   8   8   4
#     4  10  22  39  66  95 126 156 197 259 315 375
#     4   9  19  36  64  92 123 157 200 256 308 371
#     4  11  25  42  64  88 121 171 222 256 290 359
#     4  10  21  41  63  89 120 165 214 252 297 358
#     4  10  22  38  63  98 128 156 195 253 329 373
#     4  12  24  40  62  90 126 164 206 258 308 370
#
# _framework density 22.059930000000001
#
# number of rings (size 3 to 8) (size 9 to 14) (size 15 to 20)
#    0.000    1.778    0.000    3.333    0.000   19.556 
#    0.000    4.444    0.000    0.000    0.000    0.000 
#    0.000    0.000    0.000    0.000    0.000    0.000 
#
# Total GULP energy -201425.089900 kJ/mol
# GULP energy per Si atom -5595.141386 kJ/mol
# Density = 2.200972 g / cm^3
# Si number density = 22.059930 Si / 1000 Ang^3
#
#
#
# Elastic Constant Matrix: (Units=GPa)
#
#
# Indices 1 2 3 4 5 6 
#
# 1 59.6697 20.8689 37.8911 0.0000 0.0000 0.0000
# 2 20.8689 108.3092 62.6483 0.0000 0.0000 0.0000
# 3 37.8911 62.6483 117.5494 0.0000 0.0000 0.0000
# 4 0.0000 0.0000 0.0000 20.3355 0.0000 0.0000
# 5 0.0000 0.0000 0.0000 0.0000 4.2724 0.0000
# 6 0.0000 0.0000 0.0000 0.0000 0.0000 36.8315
#
#
#
# Elastic Compliance Matrix: (Units=1/GPa)
#
#
# Indices 1 2 3 4 5 6 
#
# 1 0.021075 -0.000190 -0.006692 0.000000 0.000000 0.000000
# 2 -0.000190 0.013349 -0.007053 0.000000 0.000000 0.000000
# 3 -0.006692 -0.007053 0.014423 0.000000 0.000000 0.000000
# 4 0.000000 0.000000 0.000000 0.049175 0.000000 0.000000
# 5 0.000000 0.000000 0.000000 0.000000 0.234059 0.000000
# 6 0.000000 0.000000 0.000000 0.000000 0.000000 0.027151
#
#
# Mechanical properties :
#
#
# Convention : Reuss Voigt Hill
#
# Bulk Modulus (GPa) = 47.67159 58.70498 53.18828
# Shear Modulus (GPa) = 12.68730 23.22921 17.95826
#
# Velocity S-wave (km/s) = 2.40079 3.24852 2.85628
# Velocity P-wave (km/s) = 5.41682 6.38278 5.91954
#
# Compressibility (1/GPa) = 0.02097686
#
# Stress axis : x y z
#
# Youngs Moduli (GPa) = 47.44970 74.91100 69.33218
#
# Poissons Ratio (x) = 0.01422 0.46398
# Poissons Ratio (y) = 0.00901 0.48902
# Poissons Ratio (z) = 0.31754 0.52837
#
# Static dielectric constant tensor:
#      x y z
#    x 1.848870 0.000000 0.000000 
#    y 0.000000 1.830890 0.000000 
#    z 0.000000 0.000000 1.792230 
# 
# From -- ./inp_files/17425.got.cif
#   From: 2010.05.17/outbox.cif.g08.bks.cpg/sg56_9_cif.got.tgz:17425.got - 2010.06.03 13:42:01.
