data_PCOD9431646
_publ_section_title
;
Structure prediction by ZEFSAII (Michael W. Deem and Ramdas Pophale) SiO2 
 PCOD9431646
Probable space group: P C C N
;
_chemical_formula_sum "Si O2"
_cell_formula_units_Z 64
_cell_length_a 17.023463
_cell_length_b 11.808812
_cell_length_c 13.917976
_cell_angle_alpha 90.000000
_cell_angle_beta 90.000000
_cell_angle_gamma 90.000000
_cell_volume 2797.887210
_symmetry_space_group_name_H-M "P C C N"
_symmetry_group_IT_number 56
_symmetry_cell_setting 'orthorhombic'
loop_
_space_group_symop_operation_xyz
x,y,z
1/2-x,1/2-y,z
1/2+x,-y,1/2-z
-x,1/2+y,1/2-z
-x,-y,-z
1/2+x,1/2+y,-z
1/2-x,y,1/2+z
x,1/2-y,1/2+z
loop_
_atom_site_type_symbol
_atom_site_label
_atom_site_fract_x
_atom_site_fract_y
_atom_site_fract_z
Si Si1 0.586523 0.592597 0.381448
Si Si2 0.082318 0.859249 0.958281
Si Si3 0.074963 0.451798 0.623044
Si Si4 0.343416 0.223894 0.276528
Si Si5 0.260051 0.377642 0.055895
Si Si6 0.556831 0.384841 0.493359
Si Si7 0.709042 0.005112 0.631702
Si Si8 0.375550 0.022995 0.825080
O O1 0.584875 0.681938 0.293622
O O2 0.680687 0.595261 0.388904
O O3 0.565420 0.458228 0.395867
O O4 0.532657 0.636250 0.469494
O O5 0.095196 0.737033 0.003805
O O6 0.999682 0.877693 0.904905
O O7 0.149730 0.892979 0.882656
O O8 0.080717 0.949112 0.044992
O O9 0.157800 0.385004 0.612288
O O10 0.071897 0.497811 0.731210
O O11 0.250000 0.250000 0.246791
O O12 0.335263 0.109686 0.338515
O O13 0.368086 0.339785 0.330459
O O14 0.250000 0.250000 0.017012
O O15 0.260564 0.470501 0.973219
O O16 0.593528 0.457992 0.581575
O O17 0.786750 0.021200 0.694080
#
# Coordination Sequence:
#
# PCOD9431646 Si02
#       8
#     8   8   8   8   8   8   8   8
#     4  11  23  41  62  96 127 175 210 272 332 390
#     4  10  23  47  64  96 133 179 215 266 332 414
#     4  10  23  42  69  95 129 168 227 272 330 382
#     4  10  21  40  66 100 127 155 228 283 324 380
#     4  11  18  35  66  94 124 164 214 277 327 370
#     4  11  25  42  63  94 140 175 218 259 339 406
#     4  10  22  37  66  95 127 171 215 269 333 385
#     4  11  21  42  62 100 129 164 216 279 324 382
#
# _framework density 22.874403000000001
#
# number of rings (size 3 to 8) (size 9 to 14) (size 15 to 20)
#    0.000    1.500    1.250    5.250    1.750    0.500 
#    6.750    0.000    2.750    0.000    0.000    0.000 
#    0.000    0.000    0.000    0.000    0.000    0.000 
#
# Total GULP energy -356693.151894 kJ/mol
# GULP energy per Si atom -5573.330498 kJ/mol
# Density = 2.282234 g / cm^3
# Si number density = 22.874403 Si / 1000 Ang^3
#
#
#
# Elastic Constant Matrix: (Units=GPa)
#
#
# Indices 1 2 3 4 5 6 
#
# 1 83.9208 40.4260 14.7423 0.0000 0.0000 0.0000
# 2 40.4260 117.7858 10.8634 0.0000 0.0000 0.0000
# 3 14.7423 10.8634 42.3903 0.0000 0.0000 0.0000
# 4 0.0000 0.0000 0.0000 31.8061 0.0000 0.0000
# 5 0.0000 0.0000 0.0000 0.0000 30.4920 0.0000
# 6 0.0000 0.0000 0.0000 0.0000 0.0000 30.1200
#
#
#
# Elastic Compliance Matrix: (Units=1/GPa)
#
#
# Indices 1 2 3 4 5 6 
#
# 1 0.014900 -0.004748 -0.003965 0.000000 0.000000 0.000000
# 2 -0.004748 0.010209 -0.000965 0.000000 0.000000 0.000000
# 3 -0.003965 -0.000965 0.025217 0.000000 0.000000 0.000000
# 4 0.000000 0.000000 0.000000 0.031441 0.000000 0.000000
# 5 0.000000 0.000000 0.000000 0.000000 0.032795 0.000000
# 6 0.000000 0.000000 0.000000 0.000000 0.000000 0.033201
#
#
# Mechanical properties :
#
#
# Convention : Reuss Voigt Hill
#
# Bulk Modulus (GPa) = 32.29045 41.79559 37.04302
# Shear Modulus (GPa) = 28.17845 30.35461 29.26653
#
# Velocity S-wave (km/s) = 3.51362 3.64677 3.58081
# Velocity P-wave (km/s) = 5.53243 6.00361 5.77283
#
# Compressibility (1/GPa) = 0.03096890
#
# Stress axis : x y z
#
# Youngs Moduli (GPa) = 67.11497 97.95630 39.65653
#
# Poissons Ratio (x) = 0.46511 0.15724
# Poissons Ratio (y) = 0.31867 0.03826
# Poissons Ratio (z) = 0.26611 0.09452
#
# Static dielectric constant tensor:
#      x y z
#    x 1.938540 0.000000 0.000000 
#    y 0.000000 1.863630 0.000000 
#    z 0.000000 0.000000 1.958170 
# 
# From -- ./inp_files/12851.got.cif
#   From: 2010.05.17/outbox.cif.g08.bks.cpg/sg56_7_cif.got.tgz:12851.got - 2010.06.03 13:42:01.
