data_PCOD9431868
_publ_section_title
;
Structure prediction by ZEFSAII (Michael W. Deem and Ramdas Pophale) SiO2 
 PCOD9431868
Probable space group: P C C N
;
_chemical_formula_sum "Si O2"
_cell_formula_units_Z 64
_cell_length_a 22.614667
_cell_length_b 8.954461
_cell_length_c 14.625787
_cell_angle_alpha 90.000000
_cell_angle_beta 90.000000
_cell_angle_gamma 90.000000
_cell_volume 2961.753367
_symmetry_space_group_name_H-M "P C C N"
_symmetry_group_IT_number 56
_symmetry_cell_setting 'orthorhombic'
loop_
_space_group_symop_operation_xyz
x,y,z
1/2-x,1/2-y,z
1/2+x,-y,1/2-z
-x,1/2+y,1/2-z
-x,-y,-z
1/2+x,1/2+y,-z
1/2-x,y,1/2+z
x,1/2-y,1/2+z
loop_
_atom_site_type_symbol
_atom_site_label
_atom_site_fract_x
_atom_site_fract_y
_atom_site_fract_z
Si Si1 0.935742 0.367116 0.714196
Si Si2 0.819328 0.445269 0.275750
Si Si3 0.106710 0.223317 0.180374
Si Si4 0.486062 0.314557 0.832284
Si Si5 0.811996 0.289510 0.937882
Si Si6 0.815261 0.987447 0.285787
Si Si7 0.110788 0.868581 0.404187
Si Si8 0.550337 0.631322 0.502442
O O1 0.977235 0.509650 0.689857
O O2 0.869174 0.431395 0.730137
O O3 0.939760 0.239019 0.636841
O O4 0.954585 0.274959 0.804640
O O5 0.866028 0.559243 0.322029
O O6 0.813888 0.317022 0.350784
O O7 0.752180 0.496692 0.254653
O O8 0.846041 0.388651 0.181231
O O9 0.060164 0.237870 0.262341
O O10 0.163500 0.319371 0.209450
O O11 0.077174 0.302704 0.091517
O O12 0.470896 0.268877 0.935103
O O13 0.750000 0.250000 0.985047
O O14 0.814933 0.449947 0.889623
O O15 0.862507 0.278595 0.011520
O O16 0.097435 0.034249 0.439852
O O17 0.500000 0.500000 0.500000
#
# Coordination Sequence:
#
# PCOD9431868 Si02
#       8
#     8   8   8   8   8   8   8   8
#     4  11  24  42  70  96 138 178 235 282 346 423
#     4  11  24  42  70 100 140 181 236 284 349 427
#     4  11  23  44  69  99 138 179 233 285 351 416
#     4  11  25  45  67 101 133 180 230 287 350 414
#     4  10  23  39  64  99 136 178 227 282 342 416
#     4  10  21  44  66  97 137 184 217 290 352 408
#     4  12  24  43  69 102 135 188 230 286 356 421
#     4  12  25  46  70 101 141 180 229 297 354 414
#
# _framework density 21.608820999999999
#
# number of rings (size 3 to 8) (size 9 to 14) (size 15 to 20)
#    0.000    1.000    3.750    3.375    3.500    0.000 
#    0.000    1.250    0.000    0.000    0.000    0.000 
#    0.000    0.000    0.000    0.000    0.000    0.000 
#
# Total GULP energy -357014.254862 kJ/mol
# GULP energy per Si atom -5578.347732 kJ/mol
# Density = 2.155964 g / cm^3
# Si number density = 21.608821 Si / 1000 Ang^3
#
#
#
# Elastic Constant Matrix: (Units=GPa)
#
#
# Indices 1 2 3 4 5 6 
#
# 1 74.6446 22.0456 24.0770 0.0000 0.0000 0.0000
# 2 22.0456 66.4529 10.1890 0.0000 0.0000 0.0000
# 3 24.0770 10.1890 77.6161 0.0000 0.0000 0.0000
# 4 0.0000 0.0000 0.0000 31.7625 0.0000 0.0000
# 5 0.0000 0.0000 0.0000 0.0000 31.7723 0.0000
# 6 0.0000 0.0000 0.0000 0.0000 0.0000 33.7100
#
#
#
# Elastic Compliance Matrix: (Units=1/GPa)
#
#
# Indices 1 2 3 4 5 6 
#
# 1 0.016208 -0.004701 -0.004411 0.000000 0.000000 0.000000
# 2 -0.004701 0.016721 -0.000737 0.000000 0.000000 0.000000
# 3 -0.004411 -0.000737 0.014349 0.000000 0.000000 0.000000
# 4 0.000000 0.000000 0.000000 0.031484 0.000000 0.000000
# 5 0.000000 0.000000 0.000000 0.000000 0.031474 0.000000
# 6 0.000000 0.000000 0.000000 0.000000 0.000000 0.029665
#
#
# Mechanical properties :
#
#
# Convention : Reuss Voigt Hill
#
# Bulk Modulus (GPa) = 36.25680 36.81520 36.53600
# Shear Modulus (GPa) = 29.62265 30.27574 29.94920
#
# Velocity S-wave (km/s) = 3.70653 3.74716 3.72690
# Velocity P-wave (km/s) = 5.92730 5.98296 5.95519
#
# Compressibility (1/GPa) = 0.02758103
#
# Stress axis : x y z
#
# Youngs Moduli (GPa) = 61.69869 59.80627 69.69192
#
# Poissons Ratio (x) = 0.28113 0.30739
# Poissons Ratio (y) = 0.29002 0.05135
# Poissons Ratio (z) = 0.27213 0.04407
#
# Static dielectric constant tensor:
#      x y z
#    x 1.895560 0.000000 0.000000 
#    y 0.000000 1.799480 0.000000 
#    z 0.000000 0.000000 1.736500 
# 
# From -- ./inp_files/11058.got.cif
#   From: 2010.05.17/outbox.cif.g08.bks.cpg/sg56_6_cif.got.tgz:11058.got - 2010.06.03 13:42:01.
