data_PCOD9431276
_publ_section_title
;
Structure prediction by ZEFSAII (Michael W. Deem and Ramdas Pophale) SiO2 
 PCOD9431276
Probable space group: P C C N
;
_chemical_formula_sum "Si O2"
_cell_formula_units_Z 52
_cell_length_a 9.258837
_cell_length_b 9.005057
_cell_length_c 26.698108
_cell_angle_alpha 90.000000
_cell_angle_beta 90.000000
_cell_angle_gamma 90.000000
_cell_volume 2225.990929
_symmetry_space_group_name_H-M "P C C N"
_symmetry_group_IT_number 56
_symmetry_cell_setting 'orthorhombic'
loop_
_space_group_symop_operation_xyz
x,y,z
1/2-x,1/2-y,z
1/2+x,-y,1/2-z
-x,1/2+y,1/2-z
-x,-y,-z
1/2+x,1/2+y,-z
1/2-x,y,1/2+z
x,1/2-y,1/2+z
loop_
_atom_site_type_symbol
_atom_site_label
_atom_site_fract_x
_atom_site_fract_y
_atom_site_fract_z
Si Si1 0.826870 0.548160 0.836175
Si Si2 0.679917 0.531293 0.446102
Si Si3 0.007791 0.741876 0.013153
Si Si4 0.250000 0.250000 0.244101
Si Si5 0.982388 0.192936 0.279376
Si Si6 0.971347 0.030469 0.068915
Si Si7 0.014345 0.528310 0.318779
O O1 0.876024 0.586257 0.891636
O O2 0.861032 0.662535 0.791880
O O3 0.654590 0.554429 0.831848
O O4 0.889106 0.390613 0.820549
O O5 0.617818 0.367871 0.458309
O O6 0.613014 0.638060 0.487697
O O7 0.852678 0.534998 0.439277
O O8 0.938101 0.865022 0.049397
O O9 0.080403 0.840294 0.968609
O O10 0.150957 0.140812 0.276279
O O11 0.004349 0.361391 0.297062
O O12 0.924578 0.133760 0.225422
O O13 0.919252 0.045335 0.125964
#
# Coordination Sequence:
#
# PCOD9431276 Si02
#       7
#     8   8   8   4   8   8   8
#     4  10  21  37  65  89 116 158 211 250 291 356
#     4  10  21  37  64  90 112 154 209 248 289 361
#     4  10  21  35  60  89 115 151 193 255 311 335
#     4  10  22  36  58  96 118 162 194 250 314 346
#     4  11  20  38  59  90 127 154 204 248 295 364
#     4  10  21  39  61  86 122 153 203 252 294 358
#     4  10  22  36  64  90 118 164 204 248 300 349
#
# _framework density 23.360385000000001
#
# number of rings (size 3 to 8) (size 9 to 14) (size 15 to 20)
#    0.000    1.846    1.538    2.308    6.462    2.462 
#    0.000    0.000   33.846    7.385    0.000    0.000 
#    0.000    0.000    0.000    0.000    0.000    0.000 
#
# Total GULP energy -289839.165370 kJ/mol
# GULP energy per Si atom -5573.830103 kJ/mol
# Density = 2.330722 g / cm^3
# Si number density = 23.360385 Si / 1000 Ang^3
#
#
#
# Elastic Constant Matrix: (Units=GPa)
#
#
# Indices 1 2 3 4 5 6 
#
# 1 17.1029 -2.7375 10.8844 0.0000 0.0000 0.0000
# 2 -2.7375 82.4087 2.5691 0.0000 0.0000 0.0000
# 3 10.8844 2.5691 99.1504 0.0000 0.0000 0.0000
# 4 0.0000 0.0000 0.0000 19.0102 0.0000 0.0000
# 5 0.0000 0.0000 0.0000 0.0000 27.5841 0.0000
# 6 0.0000 0.0000 0.0000 0.0000 0.0000 33.3345
#
#
#
# Elastic Compliance Matrix: (Units=1/GPa)
#
#
# Indices 1 2 3 4 5 6 
#
# 1 0.063302 0.002321 -0.007009 0.000000 0.000000 0.000000
# 2 0.002321 0.012230 -0.000572 0.000000 0.000000 0.000000
# 3 -0.007009 -0.000572 0.010870 0.000000 0.000000 0.000000
# 4 0.000000 0.000000 0.000000 0.052603 0.000000 0.000000
# 5 0.000000 0.000000 0.000000 0.000000 0.036253 0.000000
# 6 0.000000 0.000000 0.000000 0.000000 0.000000 0.029999
#
#
# Mechanical properties :
#
#
# Convention : Reuss Voigt Hill
#
# Bulk Modulus (GPa) = 13.17836 24.45490 18.81663
# Shear Modulus (GPa) = 20.74090 28.51550 24.62820
#
# Velocity S-wave (km/s) = 2.98294 3.49761 3.25048
# Velocity P-wave (km/s) = 4.18539 5.17709 4.70743
#
# Compressibility (1/GPa) = 0.07588199
#
# Stress axis : x y z
#
# Youngs Moduli (GPa) = 15.79737 81.76905 91.99679
#
# Poissons Ratio (x) = -0.18981 0.64482
# Poissons Ratio (y) = -0.03667 0.05259
# Poissons Ratio (z) = 0.11073 0.04675
#
# Static dielectric constant tensor:
#      x y z
#    x 2.004200 0.000000 0.000000 
#    y 0.000000 1.987360 0.000000 
#    z 0.000000 0.000000 1.975870 
# 
# From -- ./inp_files/22267.got.cif
#   From: 2010.05.17/outbox.cif.g08.bks.cpg/sg56_12_cif.got.tgz:22267.got - 2010.06.03 13:42:01.
