data_PCOD9431306
_publ_section_title
;
Structure prediction by ZEFSAII (Michael W. Deem and Ramdas Pophale) SiO2 
 PCOD9431306
Probable space group: P C C N
;
_chemical_formula_sum "Si O2"
_cell_formula_units_Z 64
_cell_length_a 4.966853
_cell_length_b 30.610333
_cell_length_c 19.987319
_cell_angle_alpha 90.000000
_cell_angle_beta 90.000000
_cell_angle_gamma 90.000000
_cell_volume 3038.812504
_symmetry_space_group_name_H-M "P C C N"
_symmetry_group_IT_number 56
_symmetry_cell_setting 'orthorhombic'
loop_
_space_group_symop_operation_xyz
x,y,z
1/2-x,1/2-y,z
1/2+x,-y,1/2-z
-x,1/2+y,1/2-z
-x,-y,-z
1/2+x,1/2+y,-z
1/2-x,y,1/2+z
x,1/2-y,1/2+z
loop_
_atom_site_type_symbol
_atom_site_label
_atom_site_fract_x
_atom_site_fract_y
_atom_site_fract_z
Si Si1 0.074390 0.400922 0.376963
Si Si2 0.157098 0.584767 0.924083
Si Si3 0.648656 0.700952 0.877105
Si Si4 0.894626 0.502421 0.576201
Si Si5 0.366707 0.841488 0.818226
Si Si6 0.620186 0.520784 0.784191
Si Si7 0.431770 0.606946 0.712195
Si Si8 0.327279 0.128179 0.515532
O O1 0.173063 0.447971 0.404776
O O2 0.291904 0.382852 0.325178
O O3 0.066327 0.369347 0.440628
O O4 0.788248 0.408537 0.342033
O O5 0.155649 0.532935 0.918942
O O6 0.093384 0.612662 0.858048
O O7 0.457700 0.598912 0.944275
O O8 0.955300 0.603188 0.979584
O O9 0.750000 0.750000 0.885313
O O10 0.340427 0.690385 0.857750
O O11 0.700230 0.673267 0.944632
O O12 0.841918 0.680202 0.820023
O O13 0.089634 0.487152 0.636980
O O14 0.000000 0.500000 0.500000
O O15 0.218321 0.854280 0.750574
O O16 0.914578 0.512056 0.754295
O O17 0.513743 0.568501 0.763518
#
# Coordination Sequence:
#
# PCOD9431306 Si02
#       8
#     8   8   8   8   8   8   8   8
#     4  12  25  38  59  85 126 175 218 251 308 365
#     4  10  21  36  57  82 121 159 200 260 313 344
#     4  10  21  40  69  96 118 146 187 251 325 389
#     4  12  24  39  59  90 126 172 226 284 306 353
#     4  10  21  38  63  93 120 152 199 253 306 370
#     4  12  24  42  58  83 122 173 224 265 306 364
#     4  12  23  41  59  85 121 170 213 253 304 373
#     4  10  22  39  57  88 121 153 195 251 313 378
#
# _framework density 21.060856999999999
#
# number of rings (size 3 to 8) (size 9 to 14) (size 15 to 20)
#    0.000    1.000    5.000    1.875    0.000    2.500 
#    0.000    0.000    0.000    4.500    0.000    0.000 
#    0.000    0.000    0.000    0.000    0.000    0.000 
#
# Total GULP energy -357836.882929 kJ/mol
# GULP energy per Si atom -5591.201296 kJ/mol
# Density = 2.101292 g / cm^3
# Si number density = 21.060857 Si / 1000 Ang^3
#
#
#
# Elastic Constant Matrix: (Units=GPa)
#
#
# Indices 1 2 3 4 5 6 
#
# 1 76.3645 7.0690 9.3822 0.0000 0.0000 0.0000
# 2 7.0690 68.8289 19.9283 0.0000 0.0000 0.0000
# 3 9.3822 19.9283 95.8620 0.0000 0.0000 0.0000
# 4 0.0000 0.0000 0.0000 13.2830 0.0000 0.0000
# 5 0.0000 0.0000 0.0000 0.0000 17.3123 0.0000
# 6 0.0000 0.0000 0.0000 0.0000 0.0000 14.4709
#
#
#
# Elastic Compliance Matrix: (Units=1/GPa)
#
#
# Indices 1 2 3 4 5 6 
#
# 1 0.013326 -0.001054 -0.001085 0.000000 0.000000 0.000000
# 2 -0.001054 0.015543 -0.003128 0.000000 0.000000 0.000000
# 3 -0.001085 -0.003128 0.011188 0.000000 0.000000 0.000000
# 4 0.000000 0.000000 0.000000 0.075284 0.000000 0.000000
# 5 0.000000 0.000000 0.000000 0.000000 0.057762 0.000000
# 6 0.000000 0.000000 0.000000 0.000000 0.000000 0.069104
#
#
# Mechanical properties :
#
#
# Convention : Reuss Voigt Hill
#
# Bulk Modulus (GPa) = 33.87305 34.86827 34.37066
# Shear Modulus (GPa) = 19.04156 22.65828 20.84992
#
# Velocity S-wave (km/s) = 3.01012 3.28357 3.14982
# Velocity P-wave (km/s) = 5.31031 5.56486 5.43908
#
# Compressibility (1/GPa) = 0.02952200
#
# Stress axis : x y z
#
# Youngs Moduli (GPa) = 75.04121 64.33885 89.38063
#
# Poissons Ratio (x) = 0.06784 0.09698
# Poissons Ratio (y) = 0.07913 0.27957
# Poissons Ratio (z) = 0.08142 0.20125
#
# Static dielectric constant tensor:
#      x y z
#    x 1.768610 0.000000 0.000000 
#    y 0.000000 1.758890 0.000000 
#    z 0.000000 0.000000 1.797110 
# 
# From -- ./inp_files/14198.got.cif
#   From: 2010.05.17/outbox.cif.g08.bks.cpg/sg56_8_cif.got.tgz:14198.got - 2010.06.03 13:42:01.
