data_PCOD9431204
_publ_section_title
;
Structure prediction by ZEFSAII (Michael W. Deem and Ramdas Pophale) SiO2 
 PCOD9431204
Probable space group: P C C N
;
_chemical_formula_sum "Si O2"
_cell_formula_units_Z 36
_cell_length_a 7.906980
_cell_length_b 9.083028
_cell_length_c 22.278091
_cell_angle_alpha 90.000000
_cell_angle_beta 90.000000
_cell_angle_gamma 90.000000
_cell_volume 1599.997363
_symmetry_space_group_name_H-M "P C C N"
_symmetry_group_IT_number 56
_symmetry_cell_setting 'orthorhombic'
loop_
_space_group_symop_operation_xyz
x,y,z
1/2-x,1/2-y,z
1/2+x,-y,1/2-z
-x,1/2+y,1/2-z
-x,-y,-z
1/2+x,1/2+y,-z
1/2-x,y,1/2+z
x,1/2-y,1/2+z
loop_
_atom_site_type_symbol
_atom_site_label
_atom_site_fract_x
_atom_site_fract_y
_atom_site_fract_z
Si Si1 0.573461 0.677782 0.061346
Si Si2 0.208257 0.544707 0.749314
Si Si3 0.985856 0.794011 0.800658
Si Si4 0.564361 0.175830 0.568991
Si Si5 0.250000 0.750000 0.640205
O O1 0.750000 0.750000 0.079672
O O2 0.582987 0.501186 0.067154
O O3 0.416983 0.733829 0.100890
O O4 0.529982 0.717799 0.992394
O O5 0.049110 0.642891 0.771633
O O6 0.354330 0.591960 0.794950
O O7 0.261217 0.611820 0.685080
O O8 0.154336 0.379717 0.737173
O O9 0.961256 0.778867 0.871442
O O10 0.750000 0.250000 0.571145
#
# Coordination Sequence:
#
# PCOD9431204 Si02
#       5
#     8   8   8   8   4
#     4  11  25  43  71  99 129 180 221 270 339 395
#     4  10  22  39  64  92 131 169 221 267 334 390
#     4  10  21  41  60  93 126 173 207 276 322 389
#     4  11  22  45  66  94 139 167 221 279 324 397
#     4  10  20  44  64  94 138 168 220 276 322 402
#
# _framework density 22.500038
#
# number of rings (size 3 to 8) (size 9 to 14) (size 15 to 20)
#    0.000    1.778    5.556    0.000    0.000    5.333 
#    4.000    0.000    0.000    0.000    0.000    0.000 
#    0.000    0.000    0.000    0.000    0.000    0.000 
#
# Total GULP energy -201374.598946 kJ/mol
# GULP energy per Si atom -5593.738860 kJ/mol
# Density = 2.244883 g / cm^3
# Si number density = 22.500038 Si / 1000 Ang^3
#
#
#
# Elastic Constant Matrix: (Units=GPa)
#
#
# Indices 1 2 3 4 5 6 
#
# 1 125.0063 31.3801 34.9503 0.0000 0.0000 0.0000
# 2 31.3801 89.4194 26.7974 0.0000 0.0000 0.0000
# 3 34.9503 26.7974 146.0674 0.0000 0.0000 0.0000
# 4 0.0000 0.0000 0.0000 901.8511 0.0000 0.0000
# 5 0.0000 0.0000 0.0000 0.0000 0.8409 0.0000
# 6 0.0000 0.0000 0.0000 0.0000 0.0000 37.5275
#
#
#
# Elastic Compliance Matrix: (Units=1/GPa)
#
#
# Indices 1 2 3 4 5 6 
#
# 1 0.009152 -0.002704 -0.001694 0.000000 0.000000 0.000000
# 2 -0.002704 0.012633 -0.001671 0.000000 0.000000 0.000000
# 3 -0.001694 -0.001671 0.007558 0.000000 0.000000 0.000000
# 4 0.000000 0.000000 0.000000 0.001109 0.000000 0.000000
# 5 0.000000 0.000000 0.000000 0.000000 1.189176 0.000000
# 6 0.000000 0.000000 0.000000 0.000000 0.000000 0.026647
#
#
# Mechanical properties :
#
#
# Convention : Reuss Voigt Hill
#
# Bulk Modulus (GPa) = 58.11984 60.74985 59.43484
# Shear Modulus (GPa) = 3.95524 205.86826 104.91175
#
# Velocity S-wave (km/s) = 1.32729 9.57578 6.83583
# Velocity P-wave (km/s) = 5.31376 12.21962 9.42218
#
# Compressibility (1/GPa) = 0.01720583
#
# Stress axis : x y z
#
# Youngs Moduli (GPa) = 109.26624 79.15867 132.31181
#
# Poissons Ratio (x) = 0.21406 0.22410
# Poissons Ratio (y) = 0.29547 0.22104
# Poissons Ratio (z) = 0.18507 0.13224
#
# Static dielectric constant tensor:
#      x y z
#    x 1.956390 0.000000 0.000000 
#    y 0.000000 1.806780 0.000000 
#    z 0.000000 0.000000 1.804650 
# 
# From -- ./inp_files/17888.got.cif
#   From: 2010.05.17/outbox.cif.g08.bks.cpg/sg56_9_cif.got.tgz:17888.got - 2010.06.03 13:42:01.
