data_PCOD9431873
_publ_section_title
;
Structure prediction by ZEFSAII (Michael W. Deem and Ramdas Pophale) SiO2 
 PCOD9431873
Probable space group: P C C N
;
_chemical_formula_sum "Si O2"
_cell_formula_units_Z 48
_cell_length_a 18.068138
_cell_length_b 8.448209
_cell_length_c 15.019815
_cell_angle_alpha 90.000000
_cell_angle_beta 90.000000
_cell_angle_gamma 90.000000
_cell_volume 2292.675720
_symmetry_space_group_name_H-M "P C C N"
_symmetry_group_IT_number 56
_symmetry_cell_setting 'orthorhombic'
loop_
_space_group_symop_operation_xyz
x,y,z
1/2-x,1/2-y,z
1/2+x,-y,1/2-z
-x,1/2+y,1/2-z
-x,-y,-z
1/2+x,1/2+y,-z
1/2-x,y,1/2+z
x,1/2-y,1/2+z
loop_
_atom_site_type_symbol
_atom_site_label
_atom_site_fract_x
_atom_site_fract_y
_atom_site_fract_z
Si Si1 0.592436 0.734206 0.727604
Si Si2 0.632781 0.839979 0.034207
Si Si3 0.911190 0.182916 0.999303
Si Si4 0.250000 0.250000 0.687423
Si Si5 0.000000 0.500000 0.000000
Si Si6 0.281284 0.029505 0.524320
Si Si7 0.497144 0.989019 0.351140
O O1 0.594723 0.649107 0.630817
O O2 0.676413 0.769712 0.755205
O O3 0.552745 0.620677 0.797010
O O4 0.545742 0.893061 0.714588
O O5 0.563612 0.868411 0.969839
O O6 0.703336 0.953617 0.025662
O O7 0.664981 0.664783 0.017940
O O8 0.826287 0.132332 0.981731
O O9 0.935187 0.364102 0.997563
O O10 0.937670 0.110525 0.093000
O O11 0.957194 0.094186 0.921591
O O12 0.263530 0.099390 0.622429
#
# Coordination Sequence:
#
# PCOD9431873 Si02
#       7
#     8   8   8   4   4   8   8
#     4  12  23  40  65 106 134 176 220 291 355 415
#     4  10  22  38  67  98 130 175 225 283 345 409
#     4  11  22  45  63 100 131 187 230 282 333 437
#     4  10  22  36  72  98 134 180 226 270 360 434
#     4  12  24  38  72  96 130 180 240 278 338 412
#     4  10  21  44  69  93 131 184 228 272 338 436
#     4  11  25  40  69  96 139 172 224 289 348 413
#
# _framework density 20.936236000000001
#
# number of rings (size 3 to 8) (size 9 to 14) (size 15 to 20)
#    0.000    1.333    5.000    2.000    4.667    0.667 
#    0.000    0.000    0.000    1.000    0.000    0.000 
#    0.000    0.000    0.000    0.000    0.000    0.000 
#
# Total GULP energy -267265.825291 kJ/mol
# GULP energy per Si atom -5568.038027 kJ/mol
# Density = 2.088858 g / cm^3
# Si number density = 20.936236 Si / 1000 Ang^3
#
#
#
# Elastic Constant Matrix: (Units=GPa)
#
#
# Indices 1 2 3 4 5 6 
#
# 1 141.7084 53.6468 -2.1480 0.0000 0.0000 0.0000
# 2 53.6468 99.5589 16.1916 0.0000 0.0000 0.0000
# 3 -2.1480 16.1916 30.2240 0.0000 0.0000 0.0000
# 4 0.0000 0.0000 0.0000 7.5943 0.0000 0.0000
# 5 0.0000 0.0000 0.0000 0.0000 -35.8224 0.0000
# 6 0.0000 0.0000 0.0000 0.0000 0.0000 31.2611
#
#
#
# Elastic Compliance Matrix: (Units=1/GPa)
#
#
# Indices 1 2 3 4 5 6 
#
# 1 0.009215 -0.005556 0.003631 0.000000 0.000000 0.000000
# 2 -0.005556 0.014353 -0.008084 0.000000 0.000000 0.000000
# 3 0.003631 -0.008084 0.037675 0.000000 0.000000 0.000000
# 4 0.000000 0.000000 0.000000 0.131678 0.000000 0.000000
# 5 0.000000 0.000000 0.000000 0.000000 -0.027916 0.000000
# 6 0.000000 0.000000 0.000000 0.000000 0.000000 0.031989
#
#
# Mechanical properties :
#
#
# Convention : Reuss Voigt Hill
#
# Bulk Modulus (GPa) = 24.25661 45.20802 34.73231
# Shear Modulus (GPa) = 21.66810 14.19333 17.93071
#
# Velocity S-wave (km/s) = 3.22056 2.60654 2.92968
# Velocity P-wave (km/s) = 5.04386 5.54065 5.29808
#
# Compressibility (1/GPa) = 0.04122587
#
# Stress axis : x y z
#
# Youngs Moduli (GPa) = 108.51647 69.67217 26.54267
#
# Poissons Ratio (x) = 0.38711 -0.09639
# Poissons Ratio (y) = 0.60293 0.21457
# Poissons Ratio (z) = -0.39407 0.56323
#
# Static dielectric constant tensor:
#      x y z
#    x 1.794870 0.000000 0.000000 
#    y 0.000000 1.745570 0.000000 
#    z 0.000000 0.000000 1.773290 
# 
# From -- ./inp_files/12729.got.cif
#   From: 2010.05.17/outbox.cif.g08.bks.cpg/sg56_7_cif.got.tgz:12729.got - 2010.06.03 13:42:01.
