data_PCOD9431512
_publ_section_title
;
Structure prediction by ZEFSAII (Michael W. Deem and Ramdas Pophale) SiO2 
 PCOD9431512
Probable space group: P C C N
;
_chemical_formula_sum "Si O2"
_cell_formula_units_Z 48
_cell_length_a 16.014591
_cell_length_b 16.706209
_cell_length_c 9.641562
_cell_angle_alpha 90.000000
_cell_angle_beta 90.000000
_cell_angle_gamma 90.000000
_cell_volume 2579.533428
_symmetry_space_group_name_H-M "P C C N"
_symmetry_group_IT_number 56
_symmetry_cell_setting 'orthorhombic'
loop_
_space_group_symop_operation_xyz
x,y,z
1/2-x,1/2-y,z
1/2+x,-y,1/2-z
-x,1/2+y,1/2-z
-x,-y,-z
1/2+x,1/2+y,-z
1/2-x,y,1/2+z
x,1/2-y,1/2+z
loop_
_atom_site_type_symbol
_atom_site_label
_atom_site_fract_x
_atom_site_fract_y
_atom_site_fract_z
Si Si1 0.266707 0.553077 0.274619
Si Si2 0.402111 0.155192 0.126235
Si Si3 0.745254 0.556417 0.972480
Si Si4 0.838547 0.791303 0.074640
Si Si5 0.662642 0.298578 0.299848
Si Si6 0.907881 0.166493 0.602634
O O1 0.250117 0.478345 0.373691
O O2 0.191066 0.616322 0.263082
O O3 0.343489 0.601543 0.338288
O O4 0.283809 0.515897 0.124568
O O5 0.382008 0.182914 0.282937
O O6 0.498807 0.133685 0.114343
O O7 0.335051 0.087833 0.081602
O O8 0.387733 0.228096 0.018735
O O9 0.684398 0.632297 0.979881
O O10 0.750000 0.750000 0.612528
O O11 0.750000 0.250000 0.322902
O O12 0.617760 0.312549 0.445787
O O13 0.606978 0.245732 0.196245
#
# Coordination Sequence:
#
# PCOD9431512 Si02
#       6
#     8   8   8   8   8   8
#     4  11  22  40  62  87 117 158 202 238 290 359
#     4  11  23  39  61  90 121 152 198 248 297 341
#     4  11  22  40  63  85 118 157 203 239 288 361
#     4  10  21  39  62  85 114 161 201 237 287 362
#     4  10  21  39  62  85 115 160 201 235 286 361
#     4  11  23  39  61  90 121 153 196 250 295 341
#
# _framework density 18.608017
#
# number of rings (size 3 to 8) (size 9 to 14) (size 15 to 20)
#    0.000    1.333    3.333    4.000    4.667    0.667 
#    0.000    0.833    0.000    0.000    0.000    0.000 
#    0.000    0.000    0.000    0.000    0.000    0.000 
#
# Total GULP energy -268070.133471 kJ/mol
# GULP energy per Si atom -5584.794447 kJ/mol
# Density = 1.856566 g / cm^3
# Si number density = 18.608017 Si / 1000 Ang^3
#
#
#
# Elastic Constant Matrix: (Units=GPa)
#
#
# Indices 1 2 3 4 5 6 
#
# 1 46.5403 6.5582 33.2044 0.0000 0.0000 0.0000
# 2 6.5582 57.5286 0.5789 0.0000 0.0000 0.0000
# 3 33.2044 0.5789 60.3537 0.0000 0.0000 0.0000
# 4 0.0000 0.0000 0.0000 36.5566 0.0000 0.0000
# 5 0.0000 0.0000 0.0000 0.0000 12.3155 0.0000
# 6 0.0000 0.0000 0.0000 0.0000 0.0000 10.3907
#
#
#
# Elastic Compliance Matrix: (Units=1/GPa)
#
#
# Indices 1 2 3 4 5 6 
#
# 1 0.036238 -0.003931 -0.019899 0.000000 0.000000 0.000000
# 2 -0.003931 0.017811 0.001992 0.000000 0.000000 0.000000
# 3 -0.019899 0.001992 0.027498 0.000000 0.000000 0.000000
# 4 0.000000 0.000000 0.000000 0.027355 0.000000 0.000000
# 5 0.000000 0.000000 0.000000 0.000000 0.081198 0.000000
# 6 0.000000 0.000000 0.000000 0.000000 0.000000 0.096239
#
#
# Mechanical properties :
#
#
# Convention : Reuss Voigt Hill
#
# Bulk Modulus (GPa) = 26.40615 27.23394 26.82005
# Shear Modulus (GPa) = 14.59267 20.12464 17.35865
#
# Velocity S-wave (km/s) = 2.80342 3.29219 3.05759
# Velocity P-wave (km/s) = 4.96995 5.39618 5.18744
#
# Compressibility (1/GPa) = 0.03786996
#
# Stress axis : x y z
#
# Youngs Moduli (GPa) = 27.59561 56.14593 36.36689
#
# Poissons Ratio (x) = 0.22070 0.72366
# Poissons Ratio (y) = 0.10847 -0.07243
# Poissons Ratio (z) = 0.54912 -0.11183
#
# Static dielectric constant tensor:
#      x y z
#    x 1.621310 0.000000 0.000000 
#    y 0.000000 1.647000 0.000000 
#    z 0.000000 0.000000 1.613020 
# 
# From -- ./inp_files/3395.got.cif
#   From: 2010.05.17/outbox.cif.g08.bks.cpg/sg56_2_cif.got.tgz:3395.got - 2010.06.03 13:42:01.
