data_PCOD9431186
_publ_section_title
;
Structure prediction by ZEFSAII (Michael W. Deem and Ramdas Pophale) SiO2 
 PCOD9431186
Probable space group: P C C N
;
_chemical_formula_sum "Si O2"
_cell_formula_units_Z 36
_cell_length_a 11.967615
_cell_length_b 10.494136
_cell_length_c 12.609131
_cell_angle_alpha 90.000000
_cell_angle_beta 90.000000
_cell_angle_gamma 90.000000
_cell_volume 1583.577981
_symmetry_space_group_name_H-M "P C C N"
_symmetry_group_IT_number 56
_symmetry_cell_setting 'orthorhombic'
loop_
_space_group_symop_operation_xyz
x,y,z
1/2-x,1/2-y,z
1/2+x,-y,1/2-z
-x,1/2+y,1/2-z
-x,-y,-z
1/2+x,1/2+y,-z
1/2-x,y,1/2+z
x,1/2-y,1/2+z
loop_
_atom_site_type_symbol
_atom_site_label
_atom_site_fract_x
_atom_site_fract_y
_atom_site_fract_z
Si Si1 0.370261 0.008332 0.625811
Si Si2 0.750000 0.750000 0.930237
Si Si3 0.518844 0.852553 0.027107
Si Si4 0.108272 0.868882 0.916467
Si Si5 0.366492 0.745809 0.702598
O O1 0.291556 0.130200 0.640206
O O2 0.494759 0.056919 0.608062
O O3 0.335099 0.946860 0.511275
O O4 0.385023 0.897108 0.712055
O O5 0.643236 0.799877 0.999224
O O6 0.433742 0.767728 0.957686
O O7 0.472665 0.816208 0.144015
O O8 0.500000 0.000000 0.000000
O O9 0.162146 0.839253 0.804309
O O10 0.250000 0.750000 0.638227
#
# Coordination Sequence:
#
# PCOD9431186 Si02
#       5
#     8   4   8   8   8
#     4   9  20  42  63  91 129 169 222 272 334 394
#     4  10  20  42  70  92 128 180 218 288 336 398
#     4  10  22  40  64  95 129 172 225 272 342 405
#     4   9  21  40  62  85 131 171 215 277 324 393
#     4  11  23  38  63  97 130 175 217 275 332 408
#
# _framework density 22.733329999999999
#
# number of rings (size 3 to 8) (size 9 to 14) (size 15 to 20)
#    0.000    2.222    0.000    2.667    3.111    5.333 
#    0.000    4.444    0.000    0.000    0.000    0.000 
#    0.000    0.000    0.000    0.000    0.000    0.000 
#
# Total GULP energy -200468.575471 kJ/mol
# GULP energy per Si atom -5568.571541 kJ/mol
# Density = 2.268159 g / cm^3
# Si number density = 22.733330 Si / 1000 Ang^3
#
#
#
# Elastic Constant Matrix: (Units=GPa)
#
#
# Indices 1 2 3 4 5 6 
#
# 1 61.2977 19.9752 6.0061 0.0000 0.0000 0.0000
# 2 19.9752 158.9743 20.8739 0.0000 0.0000 0.0000
# 3 6.0061 20.8739 53.7372 0.0000 0.0000 0.0000
# 4 0.0000 0.0000 0.0000 26.8246 0.0000 0.0000
# 5 0.0000 0.0000 0.0000 0.0000 17.9403 0.0000
# 6 0.0000 0.0000 0.0000 0.0000 0.0000 31.8100
#
#
#
# Elastic Compliance Matrix: (Units=1/GPa)
#
#
# Indices 1 2 3 4 5 6 
#
# 1 0.017076 -0.001997 -0.001133 0.000000 0.000000 0.000000
# 2 -0.001997 0.006862 -0.002442 0.000000 0.000000 0.000000
# 3 -0.001133 -0.002442 0.019684 0.000000 0.000000 0.000000
# 4 0.000000 0.000000 0.000000 0.037279 0.000000 0.000000
# 5 0.000000 0.000000 0.000000 0.000000 0.055741 0.000000
# 6 0.000000 0.000000 0.000000 0.000000 0.000000 0.031437
#
#
# Mechanical properties :
#
#
# Convention : Reuss Voigt Hill
#
# Bulk Modulus (GPa) = 30.79014 40.85774 35.82394
# Shear Modulus (GPa) = 26.30912 30.45856 28.38384
#
# Velocity S-wave (km/s) = 3.40559 3.66433 3.53732
# Velocity P-wave (km/s) = 5.38865 5.99289 5.69878
#
# Compressibility (1/GPa) = 0.03247793
#
# Stress axis : x y z
#
# Youngs Moduli (GPa) = 58.56333 145.73207 50.80165
#
# Poissons Ratio (x) = 0.29100 0.05755
# Poissons Ratio (y) = 0.11694 0.12407
# Poissons Ratio (z) = 0.06634 0.35592
#
# Static dielectric constant tensor:
#      x y z
#    x 1.854940 0.000000 0.000000 
#    y 0.000000 1.922820 0.000000 
#    z 0.000000 0.000000 1.966610 
# 
# From -- ./inp_files/7601.got.cif
#   From: 2010.05.17/outbox.cif.g08.bks.cpg/sg56_4_cif.got.tgz:7601.got - 2010.06.03 13:42:01.
