data_PCOD9431009
_publ_section_title
;
Structure prediction by ZEFSAII (Michael W. Deem and Ramdas Pophale) SiO2 
 PCOD9431009
Probable space group: P C C N
;
_chemical_formula_sum "Si O2"
_cell_formula_units_Z 56
_cell_length_a 19.004141
_cell_length_b 9.901688
_cell_length_c 14.679622
_cell_angle_alpha 90.000000
_cell_angle_beta 90.000000
_cell_angle_gamma 90.000000
_cell_volume 2762.309610
_symmetry_space_group_name_H-M "P C C N"
_symmetry_group_IT_number 56
_symmetry_cell_setting 'orthorhombic'
loop_
_space_group_symop_operation_xyz
x,y,z
1/2-x,1/2-y,z
1/2+x,-y,1/2-z
-x,1/2+y,1/2-z
-x,-y,-z
1/2+x,1/2+y,-z
1/2-x,y,1/2+z
x,1/2-y,1/2+z
loop_
_atom_site_type_symbol
_atom_site_label
_atom_site_fract_x
_atom_site_fract_y
_atom_site_fract_z
Si Si1 0.048523 0.251156 0.594240
Si Si2 0.939581 0.186655 0.942988
Si Si3 0.166308 0.543335 0.434732
Si Si4 0.478693 0.520437 0.832162
Si Si5 0.417447 0.971965 0.145766
Si Si6 0.768485 0.092323 0.260783
Si Si7 0.699339 0.879718 0.388508
O O1 0.121981 0.318860 0.617474
O O2 0.007833 0.306214 0.506898
O O3 0.994879 0.318391 0.667514
O O4 0.068177 0.095605 0.578683
O O5 0.935563 0.328144 0.893822
O O6 0.958052 0.063642 0.876425
O O7 0.868923 0.161225 0.002383
O O8 0.093974 0.490948 0.386661
O O9 0.216362 0.576152 0.348279
O O10 0.202738 0.448100 0.510404
O O11 0.466146 0.482437 0.729153
O O12 0.339842 0.952889 0.187246
O O13 0.750000 0.250000 0.277439
O O14 0.713576 0.990468 0.309280
O O15 0.750000 0.750000 0.379999
#
# Coordination Sequence:
#
# PCOD9431009 Si02
#       7
#     8   8   8   8   8   8   8
#     4  11  21  41  63  96 127 168 218 265 341 396
#     4  11  20  40  70  93 129 171 212 283 337 392
#     4  10  22  43  67  91 131 171 230 269 331 400
#     4  10  20  39  67  93 125 168 212 272 333 394
#     4  11  23  38  62 100 133 159 219 282 326 400
#     4  11  26  43  64  95 130 179 232 269 329 405
#     4  12  23  44  69  91 134 181 219 274 333 398
#
# _framework density 20.27289
#
# number of rings (size 3 to 8) (size 9 to 14) (size 15 to 20)
#    0.000    1.143    4.286    3.000    0.000    2.286 
#    0.000    0.000    0.000    0.000    0.000    0.000 
#    0.000    0.000    0.000    0.000    0.000    0.000 
#
# Total GULP energy -311764.994087 kJ/mol
# GULP energy per Si atom -5567.232037 kJ/mol
# Density = 2.022675 g / cm^3
# Si number density = 20.272890 Si / 1000 Ang^3
#
#
#
# Elastic Constant Matrix: (Units=GPa)
#
#
# Indices 1 2 3 4 5 6 
#
# 1 124.1394 58.8750 9.8348 0.0000 0.0000 0.0000
# 2 58.8750 147.4988 19.3999 0.0000 0.0000 0.0000
# 3 9.8348 19.3999 63.0366 0.0000 0.0000 0.0000
# 4 0.0000 0.0000 0.0000 -2.6263 0.0000 0.0000
# 5 0.0000 0.0000 0.0000 0.0000 2.2597 0.0000
# 6 0.0000 0.0000 0.0000 0.0000 0.0000 42.5950
#
#
#
# Elastic Compliance Matrix: (Units=1/GPa)
#
#
# Indices 1 2 3 4 5 6 
#
# 1 0.009944 -0.003924 -0.000344 0.000000 0.000000 0.000000
# 2 -0.003924 0.008614 -0.002039 0.000000 0.000000 0.000000
# 3 -0.000344 -0.002039 0.016545 0.000000 0.000000 0.000000
# 4 0.000000 0.000000 0.000000 -0.380759 0.000000 0.000000
# 5 0.000000 0.000000 0.000000 0.000000 0.442528 0.000000
# 6 0.000000 0.000000 0.000000 0.000000 0.000000 0.023477
#
#
# Mechanical properties :
#
#
# Convention : Reuss Voigt Hill
#
# Bulk Modulus (GPa) = 44.46488 56.76603 50.61545
# Shear Modulus (GPa) = 35.59788 24.88334 30.24061
#
# Velocity S-wave (km/s) = 4.19493 3.50726 3.86641
# Velocity P-wave (km/s) = 6.74122 6.66805 6.70474
#
# Compressibility (1/GPa) = 0.02248966
#
# Stress axis : x y z
#
# Youngs Moduli (GPa) = 100.56672 116.08863 60.44157
#
# Poissons Ratio (x) = 0.45551 0.02078
# Poissons Ratio (y) = 0.39461 0.12323
# Poissons Ratio (z) = 0.03457 0.23669
#
# Static dielectric constant tensor:
#      x y z
#    x 1.740750 0.000000 0.000000 
#    y 0.000000 1.810960 0.000000 
#    z 0.000000 0.000000 1.761580 
# 
# From -- ./inp_files/13068.got.cif
#   From: 2010.05.17/outbox.cif.g08.bks.cpg/sg56_7_cif.got.tgz:13068.got - 2010.06.03 13:42:01.
