data_PCOD9431060
_publ_section_title
;
Structure prediction by ZEFSAII (Michael W. Deem and Ramdas Pophale) SiO2 
 PCOD9431060
Probable space group: P C C N
;
_chemical_formula_sum "Si O2"
_cell_formula_units_Z 48
_cell_length_a 7.901262
_cell_length_b 15.516506
_cell_length_c 18.036375
_cell_angle_alpha 90.000000
_cell_angle_beta 90.000000
_cell_angle_gamma 90.000000
_cell_volume 2211.259200
_symmetry_space_group_name_H-M "P C C N"
_symmetry_group_IT_number 56
_symmetry_cell_setting 'orthorhombic'
loop_
_space_group_symop_operation_xyz
x,y,z
1/2-x,1/2-y,z
1/2+x,-y,1/2-z
-x,1/2+y,1/2-z
-x,-y,-z
1/2+x,1/2+y,-z
1/2-x,y,1/2+z
x,1/2-y,1/2+z
loop_
_atom_site_type_symbol
_atom_site_label
_atom_site_fract_x
_atom_site_fract_y
_atom_site_fract_z
Si Si1 0.735028 0.437164 0.232408
Si Si2 0.750000 0.250000 0.543119
Si Si3 0.250000 0.750000 0.196372
Si Si4 0.002652 0.182878 0.921634
Si Si5 0.584382 0.507656 0.865504
Si Si6 0.263573 0.413736 0.501855
Si Si7 0.890274 0.076545 0.590181
O O1 0.727233 0.338133 0.258620
O O2 0.576145 0.464275 0.182621
O O3 0.767196 0.494138 0.305357
O O4 0.893147 0.449442 0.175969
O O5 0.593574 0.225403 0.490333
O O6 0.789065 0.165458 0.588841
O O7 0.078136 0.763004 0.146702
O O8 0.938944 0.086069 0.902765
O O9 0.194950 0.160156 0.946697
O O10 0.627666 0.570517 0.933038
O O11 0.437497 0.402789 0.546732
O O12 0.296301 0.500752 0.454902
#
# Coordination Sequence:
#
# PCOD9431060 Si02
#       7
#     8   4   4   8   8   8   8
#     4  11  22  40  62  96 131 177 217 271 341 418
#     4  11  21  38  62  90 128 172 210 272 344 376
#     4   9  23  40  66  94 130 174 222 268 354 398
#     4  10  20  40  64  91 127 167 217 277 323 396
#     4  11  21  39  65  93 129 171 217 271 332 403
#     4  11  22  40  65  99 126 169 233 274 330 402
#     4  11  23  38  65  96 130 174 222 280 332 414
#
# _framework density 21.707090999999998
#
# number of rings (size 3 to 8) (size 9 to 14) (size 15 to 20)
#    0.000    1.333    3.333    3.000    0.000    0.667 
#    0.000    1.667    0.000    9.000    0.000    0.000 
#    0.000    0.000    0.000    0.000    0.000    0.000 
#
# Total GULP energy -267789.828033 kJ/mol
# GULP energy per Si atom -5578.954751 kJ/mol
# Density = 2.165768 g / cm^3
# Si number density = 21.707091 Si / 1000 Ang^3
#
#
#
# Elastic Constant Matrix: (Units=GPa)
#
#
# Indices 1 2 3 4 5 6 
#
# 1 97.8379 38.1119 36.1104 0.0000 0.0000 0.0000
# 2 38.1119 80.1587 42.2440 0.0000 0.0000 0.0000
# 3 36.1104 42.2440 115.7774 0.0000 0.0000 0.0000
# 4 0.0000 0.0000 0.0000 27.2858 0.0000 0.0000
# 5 0.0000 0.0000 0.0000 0.0000 22.7886 0.0000
# 6 0.0000 0.0000 0.0000 0.0000 0.0000 28.5895
#
#
#
# Elastic Compliance Matrix: (Units=1/GPa)
#
#
# Indices 1 2 3 4 5 6 
#
# 1 0.012992 -0.005004 -0.002226 0.000000 0.000000 0.000000
# 2 -0.005004 0.017372 -0.004778 0.000000 0.000000 0.000000
# 3 -0.002226 -0.004778 0.011075 0.000000 0.000000 0.000000
# 4 0.000000 0.000000 0.000000 0.036649 0.000000 0.000000
# 5 0.000000 0.000000 0.000000 0.000000 0.043882 0.000000
# 6 0.000000 0.000000 0.000000 0.000000 0.000000 0.034978
#
#
# Mechanical properties :
#
#
# Convention : Reuss Voigt Hill
#
# Bulk Modulus (GPa) = 57.39561 58.52293 57.95927
# Shear Modulus (GPa) = 26.77062 27.55329 27.16196
#
# Velocity S-wave (km/s) = 3.51560 3.56662 3.54120
# Velocity P-wave (km/s) = 6.55573 6.63173 6.59384
#
# Compressibility (1/GPa) = 0.01742293
#
# Stress axis : x y z
#
# Youngs Moduli (GPa) = 76.97115 57.56266 90.29313
#
# Poissons Ratio (x) = 0.28803 0.20103
# Poissons Ratio (y) = 0.38515 0.43143
# Poissons Ratio (z) = 0.17137 0.27504
#
# Static dielectric constant tensor:
#      x y z
#    x 1.895730 0.000000 0.000000 
#    y 0.000000 1.759330 0.000000 
#    z 0.000000 0.000000 1.767370 
# 
# From -- ./inp_files/14861.got.cif
#   From: 2010.05.17/outbox.cif.g08.bks.cpg/sg56_8_cif.got.tgz:14861.got - 2010.06.03 13:42:01.
