data_PCOD9431561
_publ_section_title
;
Structure prediction by ZEFSAII (Michael W. Deem and Ramdas Pophale) SiO2 
 PCOD9431561
Probable space group: P C C N
;
_chemical_formula_sum "Si O2"
_cell_formula_units_Z 64
_cell_length_a 13.796787
_cell_length_b 15.395030
_cell_length_c 12.463404
_cell_angle_alpha 90.000000
_cell_angle_beta 90.000000
_cell_angle_gamma 90.000000
_cell_volume 2647.251310
_symmetry_space_group_name_H-M "P C C N"
_symmetry_group_IT_number 56
_symmetry_cell_setting 'orthorhombic'
loop_
_space_group_symop_operation_xyz
x,y,z
1/2-x,1/2-y,z
1/2+x,-y,1/2-z
-x,1/2+y,1/2-z
-x,-y,-z
1/2+x,1/2+y,-z
1/2-x,y,1/2+z
x,1/2-y,1/2+z
loop_
_atom_site_type_symbol
_atom_site_label
_atom_site_fract_x
_atom_site_fract_y
_atom_site_fract_z
Si Si1 0.871757 0.423832 0.305114
Si Si2 0.248223 0.502239 0.506056
Si Si3 0.725192 0.653642 0.334431
Si Si4 0.985167 0.798804 0.276739
Si Si5 0.634247 0.244436 0.551072
Si Si6 0.325389 0.917410 0.313488
Si Si7 0.419348 0.608229 0.585252
Si Si8 0.907297 0.889133 0.706270
O O1 0.819678 0.438981 0.417728
O O2 0.956827 0.354662 0.310077
O O3 0.782407 0.392409 0.229600
O O4 0.912608 0.516607 0.263702
O O5 0.254805 0.413298 0.570349
O O6 0.352633 0.550439 0.506569
O O7 0.199056 0.501688 0.390123
O O8 0.750000 0.750000 0.373127
O O9 0.613894 0.652546 0.302654
O O10 0.795784 0.634811 0.233216
O O11 0.057765 0.798651 0.377372
O O12 0.958548 0.699438 0.249136
O O13 0.750000 0.250000 0.562021
O O14 0.622562 0.150203 0.606973
O O15 0.613183 0.292316 0.437681
O O16 0.385049 0.924033 0.203880
O O17 0.535917 0.601028 0.592970
#
# Coordination Sequence:
#
# PCOD9431561 Si02
#       8
#     8   8   8   8   8   8   8   8
#     4  10  22  39  66 101 139 185 230 297 373 427
#     4  10  21  39  66  98 137 181 231 289 361 435
#     4   9  21  42  66  90 130 187 246 294 338 416
#     4  11  21  40  71  96 141 187 235 302 354 424
#     4  12  23  39  64 110 140 178 227 285 372 443
#     4  11  23  41  64 102 147 176 220 295 372 437
#     4  11  23  38  67 100 145 180 221 293 363 443
#     4  10  22  40  64  98 136 186 241 292 349 425
#
# _framework density 24.176020000000001
#
# number of rings (size 3 to 8) (size 9 to 14) (size 15 to 20)
#    0.000    1.500    3.750    0.750    1.750    1.500 
#    0.000    5.000    0.000   42.000    0.000    0.000 
#    0.000    0.000    0.000    0.000    0.000    0.000 
#
# Total GULP energy -356726.406993 kJ/mol
# GULP energy per Si atom -5573.850109 kJ/mol
# Density = 2.412099 g / cm^3
# Si number density = 24.176020 Si / 1000 Ang^3
#
#
#
# Elastic Constant Matrix: (Units=GPa)
#
#
# Indices 1 2 3 4 5 6 
#
# 1 149.1604 52.9285 41.5075 0.0000 0.0000 0.0000
# 2 52.9285 112.4825 45.6541 0.0000 0.0000 0.0000
# 3 41.5075 45.6541 76.1012 0.0000 0.0000 0.0000
# 4 0.0000 0.0000 0.0000 16.9018 0.0000 0.0000
# 5 0.0000 0.0000 0.0000 0.0000 6.9366 0.0000
# 6 0.0000 0.0000 0.0000 0.0000 0.0000 38.4678
#
#
#
# Elastic Compliance Matrix: (Units=1/GPa)
#
#
# Indices 1 2 3 4 5 6 
#
# 1 0.008526 -0.002808 -0.002966 0.000000 0.000000 0.000000
# 2 -0.002808 0.012677 -0.006073 0.000000 0.000000 0.000000
# 3 -0.002966 -0.006073 0.018401 0.000000 0.000000 0.000000
# 4 0.000000 0.000000 0.000000 0.059165 0.000000 0.000000
# 5 0.000000 0.000000 0.000000 0.000000 0.144162 0.000000
# 6 0.000000 0.000000 0.000000 0.000000 0.000000 0.025996
#
#
# Mechanical properties :
#
#
# Convention : Reuss Voigt Hill
#
# Bulk Modulus (GPa) = 62.85407 68.65826 65.75616
# Shear Modulus (GPa) = 16.78280 25.63818 21.21049
#
# Velocity S-wave (km/s) = 2.63761 3.26003 2.96520
# Velocity P-wave (km/s) = 5.94398 6.52927 6.24349
#
# Compressibility (1/GPa) = 0.01590987
#
# Stress axis : x y z
#
# Youngs Moduli (GPa) = 117.28961 78.88515 54.34395
#
# Poissons Ratio (x) = 0.22152 0.16116
# Poissons Ratio (y) = 0.32937 0.33004
# Poissons Ratio (z) = 0.34783 0.47909
#
# Static dielectric constant tensor:
#      x y z
#    x 1.957430 0.000000 0.000000 
#    y 0.000000 1.973370 0.000000 
#    z 0.000000 0.000000 1.950170 
# 
# From -- ./inp_files/8053.got.cif
#   From: 2010.05.17/outbox.cif.g08.bks.cpg/sg56_5_cif.got.tgz:8053.got - 2010.06.03 13:42:01.
