data_PCOD9431131
_publ_section_title
;
Structure prediction by ZEFSAII (Michael W. Deem and Ramdas Pophale) SiO2 
 PCOD9431131
Probable space group: P C C N
;
_chemical_formula_sum "Si O2"
_cell_formula_units_Z 48
_cell_length_a 15.903597
_cell_length_b 9.735520
_cell_length_c 14.832792
_cell_angle_alpha 90.000000
_cell_angle_beta 90.000000
_cell_angle_gamma 90.000000
_cell_volume 2296.558021
_symmetry_space_group_name_H-M "P C C N"
_symmetry_group_IT_number 56
_symmetry_cell_setting 'orthorhombic'
loop_
_space_group_symop_operation_xyz
x,y,z
1/2-x,1/2-y,z
1/2+x,-y,1/2-z
-x,1/2+y,1/2-z
-x,-y,-z
1/2+x,1/2+y,-z
1/2-x,y,1/2+z
x,1/2-y,1/2+z
loop_
_atom_site_type_symbol
_atom_site_label
_atom_site_fract_x
_atom_site_fract_y
_atom_site_fract_z
Si Si1 0.525343 0.535553 0.134847
Si Si2 0.616006 0.883011 0.806444
Si Si3 0.950225 0.433997 0.082211
Si Si4 0.743940 0.408072 0.852749
Si Si5 0.601645 0.335971 0.987703
Si Si6 0.121359 0.086646 0.253704
O O1 0.597235 0.573182 0.204348
O O2 0.469570 0.659596 0.092124
O O3 0.460332 0.447677 0.193786
O O4 0.566709 0.446783 0.057174
O O5 0.524930 0.872837 0.854786
O O6 0.651307 0.731512 0.787514
O O7 0.672761 0.997090 0.857241
O O8 0.902865 0.548899 0.143222
O O9 0.895376 0.309817 0.038969
O O10 0.000000 0.500000 0.000000
O O11 0.750000 0.250000 0.825480
O O12 0.687030 0.393479 0.942993
O O13 0.691204 0.479458 0.774892
#
# Coordination Sequence:
#
# PCOD9431131 Si02
#       6
#     8   8   8   8   8   8
#     4   9  20  38  69  93 125 172 231 270 335 409
#     4  11  22  41  66  97 135 177 221 285 341 418
#     4  11  22  38  69  98 133 170 235 281 331 412
#     4  11  25  42  63  93 138 176 225 279 355 407
#     4  10  20  41  65  98 128 178 224 288 332 410
#     4  10  22  42  67  95 129 181 222 274 340 413
#
# _framework density 20.900845
#
# number of rings (size 3 to 8) (size 9 to 14) (size 15 to 20)
#    0.000    1.667    1.667    2.500    2.333    2.667 
#    6.000    0.000    0.000    0.000    0.000    0.000 
#    0.000    0.000    0.000    0.000    0.000    0.000 
#
# Total GULP energy -267385.767694 kJ/mol
# GULP energy per Si atom -5570.536827 kJ/mol
# Density = 2.085327 g / cm^3
# Si number density = 20.900845 Si / 1000 Ang^3
#
#
#
# Elastic Constant Matrix: (Units=GPa)
#
#
# Indices 1 2 3 4 5 6 
#
# 1 50.0153 17.6422 20.7715 0.0000 0.0000 0.0000
# 2 17.6422 101.7638 25.6930 0.0000 0.0000 0.0000
# 3 20.7715 25.6930 86.7558 0.0000 0.0000 0.0000
# 4 0.0000 0.0000 0.0000 22.6559 0.0000 0.0000
# 5 0.0000 0.0000 0.0000 0.0000 3.8123 0.0000
# 6 0.0000 0.0000 0.0000 0.0000 0.0000 35.4795
#
#
#
# Elastic Compliance Matrix: (Units=1/GPa)
#
#
# Indices 1 2 3 4 5 6 
#
# 1 0.022915 -0.002797 -0.004658 0.000000 0.000000 0.000000
# 2 -0.002797 0.010962 -0.002577 0.000000 0.000000 0.000000
# 3 -0.004658 -0.002577 0.013405 0.000000 0.000000 0.000000
# 4 0.000000 0.000000 0.000000 0.044139 0.000000 0.000000
# 5 0.000000 0.000000 0.000000 0.000000 0.262312 0.000000
# 6 0.000000 0.000000 0.000000 0.000000 0.000000 0.028185
#
#
# Mechanical properties :
#
#
# Convention : Reuss Voigt Hill
#
# Bulk Modulus (GPa) = 36.73935 40.74983 38.74459
# Shear Modulus (GPa) = 12.16384 24.01806 18.09095
#
# Velocity S-wave (km/s) = 2.41504 3.39358 2.94523
# Velocity P-wave (km/s) = 5.03911 5.90713 5.49030
#
# Compressibility (1/GPa) = 0.02721878
#
# Stress axis : x y z
#
# Youngs Moduli (GPa) = 43.63971 91.22339 74.59870
#
# Poissons Ratio (x) = 0.25511 0.34750
# Poissons Ratio (y) = 0.12204 0.19223
# Poissons Ratio (z) = 0.20328 0.23507
#
# Static dielectric constant tensor:
#      x y z
#    x 1.844550 0.000000 0.000000 
#    y 0.000000 1.884590 0.000000 
#    z 0.000000 0.000000 1.755700 
# 
# From -- ./inp_files/12700.got.cif
#   From: 2010.05.17/outbox.cif.g08.bks.cpg/sg56_7_cif.got.tgz:12700.got - 2010.06.03 13:42:01.
