data_PCOD9431016
_publ_section_title
;
Structure prediction by ZEFSAII (Michael W. Deem and Ramdas Pophale) SiO2 
 PCOD9431016
Probable space group: P C C N
;
_chemical_formula_sum "Si O2"
_cell_formula_units_Z 64
_cell_length_a 9.456708
_cell_length_b 21.711395
_cell_length_c 14.068072
_cell_angle_alpha 90.000000
_cell_angle_beta 90.000000
_cell_angle_gamma 90.000000
_cell_volume 2888.432948
_symmetry_space_group_name_H-M "P C C N"
_symmetry_group_IT_number 56
_symmetry_cell_setting 'orthorhombic'
loop_
_space_group_symop_operation_xyz
x,y,z
1/2-x,1/2-y,z
1/2+x,-y,1/2-z
-x,1/2+y,1/2-z
-x,-y,-z
1/2+x,1/2+y,-z
1/2-x,y,1/2+z
x,1/2-y,1/2+z
loop_
_atom_site_type_symbol
_atom_site_label
_atom_site_fract_x
_atom_site_fract_y
_atom_site_fract_z
Si Si1 0.203151 0.019138 0.787369
Si Si2 0.545099 0.863653 0.689445
Si Si3 0.498262 0.443522 0.317528
Si Si4 0.083392 0.749638 0.607839
Si Si5 0.315581 0.890818 0.849171
Si Si6 0.451845 0.131429 0.995185
Si Si7 0.428658 0.824944 0.289427
Si Si8 0.742372 0.678246 0.856460
O O1 0.117907 0.072447 0.841396
O O2 0.357043 0.043366 0.757366
O O3 0.237956 0.956904 0.845046
O O4 0.104886 0.999508 0.698365
O O5 0.494827 0.816348 0.608282
O O6 0.408651 0.880285 0.753952
O O7 0.663841 0.834441 0.761018
O O8 0.441581 0.423211 0.419236
O O9 0.580244 0.383374 0.281583
O O10 0.250000 0.750000 0.581245
O O11 0.078001 0.766730 0.720892
O O12 0.996456 0.803205 0.553753
O O13 0.203068 0.835500 0.856954
O O14 0.422099 0.886764 0.935276
O O15 0.313610 0.141049 0.058467
O O16 0.578064 0.832078 0.338711
O O17 0.750000 0.750000 0.879630
#
# Coordination Sequence:
#
# PCOD9431016 Si02
#       8
#     8   8   8   8   8   8   8   8
#     4  11  21  39  68  95 124 172 227 278 315 415
#     4  11  21  38  69  99 126 175 233 273 335 403
#     4  10  22  41  66  93 125 169 229 272 328 392
#     4  11  22  41  69  98 129 176 233 282 328 414
#     4  10  22  42  65  98 133 175 223 272 347 404
#     4  10  26  43  63  98 139 179 212 288 358 403
#     4  10  20  39  69  92 124 175 221 270 325 412
#     4  11  22  39  62  97 136 170 211 278 352 408
#
# _framework density 22.157343999999998
#
# number of rings (size 3 to 8) (size 9 to 14) (size 15 to 20)
#    0.000    1.500    5.000    0.000    0.000    2.500 
#    0.000    1.250    0.000    3.750    0.000    0.000 
#    0.000    0.000    0.000    0.000    0.000    0.000 
#
# Total GULP energy -357369.967745 kJ/mol
# GULP energy per Si atom -5583.905746 kJ/mol
# Density = 2.210691 g / cm^3
# Si number density = 22.157344 Si / 1000 Ang^3
#
#
#
# Elastic Constant Matrix: (Units=GPa)
#
#
# Indices 1 2 3 4 5 6 
#
# 1 119.9238 7.5249 13.5660 0.0000 0.0000 0.0000
# 2 7.5249 84.1713 11.5414 0.0000 0.0000 0.0000
# 3 13.5660 11.5414 37.7785 0.0000 0.0000 0.0000
# 4 0.0000 0.0000 0.0000 17.4018 0.0000 0.0000
# 5 0.0000 0.0000 0.0000 0.0000 15.2966 0.0000
# 6 0.0000 0.0000 0.0000 0.0000 0.0000 41.8986
#
#
#
# Elastic Compliance Matrix: (Units=1/GPa)
#
#
# Indices 1 2 3 4 5 6 
#
# 1 0.008702 -0.000365 -0.003014 0.000000 0.000000 0.000000
# 2 -0.000365 0.012415 -0.003662 0.000000 0.000000 0.000000
# 3 -0.003014 -0.003662 0.028671 0.000000 0.000000 0.000000
# 4 0.000000 0.000000 0.000000 0.057465 0.000000 0.000000
# 5 0.000000 0.000000 0.000000 0.000000 0.065374 0.000000
# 6 0.000000 0.000000 0.000000 0.000000 0.000000 0.023867
#
#
# Mechanical properties :
#
#
# Convention : Reuss Voigt Hill
#
# Bulk Modulus (GPa) = 28.00480 34.12648 31.06564
# Shear Modulus (GPa) = 22.47409 28.86881 25.67145
#
# Velocity S-wave (km/s) = 3.18826 3.61349 3.40751
# Velocity P-wave (km/s) = 5.12053 5.73106 5.43437
#
# Compressibility (1/GPa) = 0.03570817
#
# Stress axis : x y z
#
# Youngs Moduli (GPa) = 114.91066 80.54608 34.87857
#
# Poissons Ratio (x) = 0.02938 0.10511
# Poissons Ratio (y) = 0.04192 0.12772
# Poissons Ratio (z) = 0.34629 0.29495
#
# Static dielectric constant tensor:
#      x y z
#    x 1.846600 0.000000 0.000000 
#    y 0.000000 1.882090 0.000000 
#    z 0.000000 0.000000 1.819680 
# 
# From -- ./inp_files/11073.got.cif
#   From: 2010.05.17/outbox.cif.g08.bks.cpg/sg56_6_cif.got.tgz:11073.got - 2010.06.03 13:42:01.
