data_PCOD9431896
_publ_section_title
;
Structure prediction by ZEFSAII (Michael W. Deem and Ramdas Pophale) SiO2 
 PCOD9431896
Probable space group: P C C N
;
_chemical_formula_sum "Si O2"
_cell_formula_units_Z 48
_cell_length_a 12.103868
_cell_length_b 8.815980
_cell_length_c 22.552488
_cell_angle_alpha 90.000000
_cell_angle_beta 90.000000
_cell_angle_gamma 90.000000
_cell_volume 2406.518671
_symmetry_space_group_name_H-M "P C C N"
_symmetry_group_IT_number 56
_symmetry_cell_setting 'orthorhombic'
loop_
_space_group_symop_operation_xyz
x,y,z
1/2-x,1/2-y,z
1/2+x,-y,1/2-z
-x,1/2+y,1/2-z
-x,-y,-z
1/2+x,1/2+y,-z
1/2-x,y,1/2+z
x,1/2-y,1/2+z
loop_
_atom_site_type_symbol
_atom_site_label
_atom_site_fract_x
_atom_site_fract_y
_atom_site_fract_z
Si Si1 0.276915 0.572003 0.446690
Si Si2 0.858949 0.590332 0.210382
Si Si3 0.000725 0.428777 0.123139
Si Si4 0.082873 0.395978 0.655439
Si Si5 0.226507 0.573372 0.086825
Si Si6 0.640087 0.584916 0.153238
O O1 0.250000 0.750000 0.434734
O O2 0.401277 0.548090 0.423286
O O3 0.267289 0.544183 0.516384
O O4 0.194622 0.464828 0.409194
O O5 0.878610 0.636186 0.277534
O O6 0.734210 0.531428 0.200104
O O7 0.871375 0.736851 0.167385
O O8 0.946011 0.468533 0.186557
O O9 0.043670 0.257448 0.124085
O O10 0.104751 0.533015 0.109314
O O11 0.182588 0.473812 0.620459
O O12 0.977117 0.505712 0.658779
O O13 0.250000 0.750000 0.097138
#
# Coordination Sequence:
#
# PCOD9431896 Si02
#       6
#     8   8   8   8   8   8
#     4  10  21  46  68  95 130 173 227 278 327 405
#     4  10  24  40  67  93 137 168 218 273 323 413
#     4  11  23  44  67  98 133 173 225 273 339 391
#     4  12  24  41  68  99 134 171 220 275 332 392
#     4  11  26  43  65  96 136 174 224 274 330 393
#     4  10  22  43  65  95 125 176 217 263 340 385
#
# _framework density 19.945824999999999
#
# number of rings (size 3 to 8) (size 9 to 14) (size 15 to 20)
#    0.000    1.333    1.667    3.000    7.000    0.667 
#   15.000    0.000    0.000    0.000    0.000    0.000 
#    0.000    0.000    0.000    0.000    0.000    0.000 
#
# Total GULP energy -268293.633503 kJ/mol
# GULP energy per Si atom -5589.450698 kJ/mol
# Density = 1.990043 g / cm^3
# Si number density = 19.945825 Si / 1000 Ang^3
#
#
#
# Elastic Constant Matrix: (Units=GPa)
#
#
# Indices 1 2 3 4 5 6 
#
# 1 151.9052 40.6317 42.3628 0.0000 0.0000 0.0000
# 2 40.6317 67.8424 43.2528 0.0000 0.0000 0.0000
# 3 42.3628 43.2528 76.9373 0.0000 0.0000 0.0000
# 4 0.0000 0.0000 0.0000 11.4526 0.0000 0.0000
# 5 0.0000 0.0000 0.0000 0.0000 14.5371 0.0000
# 6 0.0000 0.0000 0.0000 0.0000 0.0000 40.7195
#
#
#
# Elastic Compliance Matrix: (Units=1/GPa)
#
#
# Indices 1 2 3 4 5 6 
#
# 1 0.008191 -0.003165 -0.002731 0.000000 0.000000 0.000000
# 2 -0.003165 0.024197 -0.011861 0.000000 0.000000 0.000000
# 3 -0.002731 -0.011861 0.021169 0.000000 0.000000 0.000000
# 4 0.000000 0.000000 0.000000 0.087316 0.000000 0.000000
# 5 0.000000 0.000000 0.000000 0.000000 0.068790 0.000000
# 6 0.000000 0.000000 0.000000 0.000000 0.000000 0.024558
#
#
# Mechanical properties :
#
#
# Convention : Reuss Voigt Hill
#
# Bulk Modulus (GPa) = 55.41783 61.01994 58.21889
# Shear Modulus (GPa) = 18.13239 24.70434 21.41836
#
# Velocity S-wave (km/s) = 3.01837 3.52315 3.28048
# Velocity P-wave (km/s) = 6.32391 6.87091 6.60308
#
# Compressibility (1/GPa) = 0.01804473
#
# Stress axis : x y z
#
# Youngs Moduli (GPa) = 122.08288 41.32721 47.23823
#
# Poissons Ratio (x) = 0.13078 0.12901
# Poissons Ratio (y) = 0.38634 0.56028
# Poissons Ratio (z) = 0.33342 0.49017
#
# Static dielectric constant tensor:
#      x y z
#    x 1.687830 0.000000 0.000000 
#    y 0.000000 1.705850 0.000000 
#    z 0.000000 0.000000 1.680160 
# 
# From -- ./inp_files/20888.got.cif
#   From: 2010.05.17/outbox.cif.g08.bks.cpg/sg56_11_cif.got.tgz:20888.got - 2010.06.03 13:42:01.
