data_PCOD9431997
_publ_section_title
;
Structure prediction by ZEFSAII (Michael W. Deem and Ramdas Pophale) SiO2 
 PCOD9431997
Probable space group: P C C N
;
_chemical_formula_sum "Si O2"
_cell_formula_units_Z 60
_cell_length_a 16.487094
_cell_length_b 10.849768
_cell_length_c 14.410139
_cell_angle_alpha 90.000000
_cell_angle_beta 90.000000
_cell_angle_gamma 90.000000
_cell_volume 2577.702162
_symmetry_space_group_name_H-M "P C C N"
_symmetry_group_IT_number 56
_symmetry_cell_setting 'orthorhombic'
loop_
_space_group_symop_operation_xyz
x,y,z
1/2-x,1/2-y,z
1/2+x,-y,1/2-z
-x,1/2+y,1/2-z
-x,-y,-z
1/2+x,1/2+y,-z
1/2-x,y,1/2+z
x,1/2-y,1/2+z
loop_
_atom_site_type_symbol
_atom_site_label
_atom_site_fract_x
_atom_site_fract_y
_atom_site_fract_z
Si Si1 0.592124 0.870987 0.793076
Si Si2 0.743505 0.937732 0.895748
Si Si3 0.250000 0.250000 0.463778
Si Si4 0.424388 0.273144 0.394789
Si Si5 0.978412 0.237447 0.058681
Si Si6 0.383979 0.975017 0.948084
Si Si7 0.813763 0.396307 0.245868
Si Si8 0.377975 0.863077 0.279474
O O1 0.686945 0.865209 0.822092
O O2 0.566806 0.787957 0.705253
O O3 0.540321 0.814964 0.876328
O O4 0.584969 0.018507 0.773293
O O5 0.788477 0.848418 0.965733
O O6 0.801993 0.027318 0.839949
O O7 0.678598 0.995553 0.968637
O O8 0.326986 0.285522 0.404993
O O9 0.471873 0.190969 0.470272
O O10 0.446530 0.412342 0.429386
O O11 0.913751 0.339125 0.027584
O O12 0.928176 0.146736 0.125356
O O13 0.350716 0.960819 0.843365
O O14 0.870140 0.275413 0.263219
O O15 0.719394 0.381419 0.212997
#
# Coordination Sequence:
#
# PCOD9431997 Si02
#       8
#     8   8   4   8   8   8   8   8
#     4  11  24  40  66  94 130 172 213 277 328 395
#     4  10  22  38  66  95 128 166 215 267 319 390
#     4  10  22  40  58  96 132 162 212 266 318 394
#     4  11  25  39  66  94 131 174 212 271 336 386
#     4  11  23  45  65  96 130 174 224 265 328 408
#     4  10  22  41  70  96 128 174 217 269 325 396
#     4   9  20  42  67  95 127 174 215 270 326 380
#     4   9  22  42  64  92 135 163 220 270 320 392
#
# _framework density 23.276543
#
# number of rings (size 3 to 8) (size 9 to 14) (size 15 to 20)
#    0.000    1.867    2.667    0.400   11.200    1.600 
#    2.400   13.333    0.000    0.000    0.000    0.000 
#    0.000    0.000    0.000    0.000    0.000    0.000 
#
# Total GULP energy -334052.367528 kJ/mol
# GULP energy per Si atom -5567.539459 kJ/mol
# Density = 2.322356 g / cm^3
# Si number density = 23.276543 Si / 1000 Ang^3
#
#
#
# Elastic Constant Matrix: (Units=GPa)
#
#
# Indices 1 2 3 4 5 6 
#
# 1 20.8243 0.8676 9.8198 0.0000 0.0000 0.0000
# 2 0.8676 32.5200 30.6565 0.0000 0.0000 0.0000
# 3 9.8198 30.6565 113.4395 0.0000 0.0000 0.0000
# 4 0.0000 0.0000 0.0000 45.3569 0.0000 0.0000
# 5 0.0000 0.0000 0.0000 0.0000 18.9620 0.0000
# 6 0.0000 0.0000 0.0000 0.0000 0.0000 13.2880
#
#
#
# Elastic Compliance Matrix: (Units=1/GPa)
#
#
# Indices 1 2 3 4 5 6 
#
# 1 0.050397 0.003714 -0.005366 0.000000 0.000000 0.000000
# 2 0.003714 0.041536 -0.011546 0.000000 0.000000 0.000000
# 3 -0.005366 -0.011546 0.012400 0.000000 0.000000 0.000000
# 4 0.000000 0.000000 0.000000 0.022047 0.000000 0.000000
# 5 0.000000 0.000000 0.000000 0.000000 0.052737 0.000000
# 6 0.000000 0.000000 0.000000 0.000000 0.000000 0.075256
#
#
# Mechanical properties :
#
#
# Convention : Reuss Voigt Hill
#
# Bulk Modulus (GPa) = 12.83108 27.71907 20.27507
# Shear Modulus (GPa) = 16.29999 23.88402 20.09201
#
# Velocity S-wave (km/s) = 2.64914 3.20675 2.94119
# Velocity P-wave (km/s) = 3.85768 5.06413 4.50151
#
# Compressibility (1/GPa) = 0.07793578
#
# Stress axis : x y z
#
# Youngs Moduli (GPa) = 19.84264 24.07548 80.64398
#
# Poissons Ratio (x) = -0.08942 0.43276
# Poissons Ratio (y) = -0.07370 0.93115
# Poissons Ratio (z) = 0.10648 0.27799
#
# Static dielectric constant tensor:
#      x y z
#    x 1.927400 0.000000 0.000000 
#    y 0.000000 2.017120 0.000000 
#    z 0.000000 0.000000 1.858680 
# 
# From -- ./inp_files/12827.got.cif
#   From: 2010.05.17/outbox.cif.g08.bks.cpg/sg56_7_cif.got.tgz:12827.got - 2010.06.03 13:42:01.
