data_PCOD9431228
_publ_section_title
;
Structure prediction by ZEFSAII (Michael W. Deem and Ramdas Pophale) SiO2 
 PCOD9431228
Probable space group: P C C N
;
_chemical_formula_sum "Si O2"
_cell_formula_units_Z 48
_cell_length_a 9.413680
_cell_length_b 12.798705
_cell_length_c 15.244069
_cell_angle_alpha 90.000000
_cell_angle_beta 90.000000
_cell_angle_gamma 90.000000
_cell_volume 1836.649843
_symmetry_space_group_name_H-M "P C C N"
_symmetry_group_IT_number 56
_symmetry_cell_setting 'orthorhombic'
loop_
_space_group_symop_operation_xyz
x,y,z
1/2-x,1/2-y,z
1/2+x,-y,1/2-z
-x,1/2+y,1/2-z
-x,-y,-z
1/2+x,1/2+y,-z
1/2-x,y,1/2+z
x,1/2-y,1/2+z
loop_
_atom_site_type_symbol
_atom_site_label
_atom_site_fract_x
_atom_site_fract_y
_atom_site_fract_z
Si Si1 0.540591 0.771460 0.595801
Si Si2 0.520681 0.501019 0.820611
Si Si3 0.728577 0.400187 0.096036
Si Si4 0.250000 0.250000 0.267676
Si Si5 0.526106 0.882538 0.846153
Si Si6 0.750000 0.250000 0.451144
Si Si7 0.772645 0.906728 0.970661
O O1 0.504949 0.883787 0.641497
O O2 0.640877 0.704057 0.660599
O O3 0.390702 0.710278 0.595001
O O4 0.630620 0.811780 0.510271
O O5 0.255767 0.486925 0.949038
O O6 0.523908 0.477206 0.717320
O O7 0.642185 0.547954 0.884686
O O8 0.678688 0.336374 0.011895
O O9 0.609999 0.419828 0.167416
O O10 0.870014 0.342485 0.128473
O O11 0.356619 0.185148 0.206660
O O12 0.612051 0.898624 0.935445
#
# Coordination Sequence:
#
# PCOD9431228 Si02
#       7
#     8   8   8   4   8   4   8
#     4  10  22  42  67  91 132 180 225 279 342 417
#     4  10  20  46  63  90 135 178 222 278 341 408
#     4  11  23  41  67  98 127 177 236 273 338 415
#     4  10  26  44  60  98 138 180 216 290 376 402
#     4  11  25  40  66  97 138 168 221 288 355 409
#     4  12  22  40  68  96 130 166 236 290 324 404
#     4  11  21  43  68  96 128 187 232 279 328 431
#
# _framework density 26.134543000000001
#
# number of rings (size 3 to 8) (size 9 to 14) (size 15 to 20)
#    0.000    1.333    3.333    2.500    4.667    0.000 
#    6.000    3.333    0.000    0.000    0.000    0.000 
#    0.000    0.000    0.000    0.000    0.000    0.000 
#
# Total GULP energy -267413.912134 kJ/mol
# GULP energy per Si atom -5571.123169 kJ/mol
# Density = 2.607506 g / cm^3
# Si number density = 26.134543 Si / 1000 Ang^3
#
#
#
# Elastic Constant Matrix: (Units=GPa)
#
#
# Indices 1 2 3 4 5 6 
#
# 1 140.9144 16.1187 12.4680 0.0000 0.0000 0.0000
# 2 16.1187 55.9364 10.4095 0.0000 0.0000 0.0000
# 3 12.4680 10.4095 57.2093 0.0000 0.0000 0.0000
# 4 0.0000 0.0000 0.0000 22.2830 0.0000 0.0000
# 5 0.0000 0.0000 0.0000 0.0000 48.8093 0.0000
# 6 0.0000 0.0000 0.0000 0.0000 0.0000 39.4952
#
#
#
# Elastic Compliance Matrix: (Units=1/GPa)
#
#
# Indices 1 2 3 4 5 6 
#
# 1 0.007427 -0.001903 -0.001272 0.000000 0.000000 0.000000
# 2 -0.001903 0.018992 -0.003041 0.000000 0.000000 0.000000
# 3 -0.001272 -0.003041 0.018310 0.000000 0.000000 0.000000
# 4 0.000000 0.000000 0.000000 0.044877 0.000000 0.000000
# 5 0.000000 0.000000 0.000000 0.000000 0.020488 0.000000
# 6 0.000000 0.000000 0.000000 0.000000 0.000000 0.025320
#
#
# Mechanical properties :
#
#
# Convention : Reuss Voigt Hill
#
# Bulk Modulus (GPa) = 30.96362 36.89472 33.92917
# Shear Modulus (GPa) = 31.52353 36.45510 33.98931
#
# Velocity S-wave (km/s) = 3.47681 3.73889 3.61023
# Velocity P-wave (km/s) = 5.29066 5.72599 5.51262
#
# Compressibility (1/GPa) = 0.03229596
#
# Stress axis : x y z
#
# Youngs Moduli (GPa) = 134.64770 52.65434 54.61431
#
# Poissons Ratio (x) = 0.10022 0.06948
# Poissons Ratio (y) = 0.25628 0.16607
# Poissons Ratio (z) = 0.17130 0.16011
#
# Static dielectric constant tensor:
#      x y z
#    x 2.134890 0.000000 0.000000 
#    y 0.000000 2.098340 0.000000 
#    z 0.000000 0.000000 2.072280 
# 
# From -- ./inp_files/10727.got.cif
#   From: 2010.05.17/outbox.cif.g08.bks.cpg/sg56_6_cif.got.tgz:10727.got - 2010.06.03 13:42:01.
