data_PCOD9431250
_publ_section_title
;
Structure prediction by ZEFSAII (Michael W. Deem and Ramdas Pophale) SiO2 
 PCOD9431250
Probable space group: P C C N
;
_chemical_formula_sum "Si O2"
_cell_formula_units_Z 64
_cell_length_a 13.879682
_cell_length_b 20.788401
_cell_length_c 10.209010
_cell_angle_alpha 90.000000
_cell_angle_beta 90.000000
_cell_angle_gamma 90.000000
_cell_volume 2945.670944
_symmetry_space_group_name_H-M "P C C N"
_symmetry_group_IT_number 56
_symmetry_cell_setting 'orthorhombic'
loop_
_space_group_symop_operation_xyz
x,y,z
1/2-x,1/2-y,z
1/2+x,-y,1/2-z
-x,1/2+y,1/2-z
-x,-y,-z
1/2+x,1/2+y,-z
1/2-x,y,1/2+z
x,1/2-y,1/2+z
loop_
_atom_site_type_symbol
_atom_site_label
_atom_site_fract_x
_atom_site_fract_y
_atom_site_fract_z
Si Si1 0.940193 0.820170 0.200937
Si Si2 0.323127 0.832505 0.990561
Si Si3 0.097915 0.428124 0.892018
Si Si4 0.453964 0.291290 0.496625
Si Si5 0.891889 0.964020 0.143125
Si Si6 0.875085 0.470426 0.899777
Si Si7 0.621270 0.004697 0.354839
Si Si8 0.667714 0.150862 0.304777
O O1 0.919077 0.770299 0.084584
O O2 0.926928 0.793767 0.349197
O O3 0.055390 0.831676 0.188822
O O4 0.887792 0.888704 0.180749
O O5 0.428133 0.799389 0.011595
O O6 0.339108 0.907583 0.026041
O O7 0.233696 0.817329 0.084572
O O8 0.296400 0.828439 0.838476
O O9 0.140989 0.450851 0.754547
O O10 0.090923 0.353657 0.925508
O O11 0.988627 0.454768 0.889269
O O12 0.142307 0.467599 0.011431
O O13 0.846692 0.010078 0.253063
O O14 0.854573 0.980232 0.999351
O O15 0.006371 0.980527 0.143030
O O16 0.667649 0.073447 0.320973
#
# Coordination Sequence:
#
# PCOD9431250 Si02
#       8
#     8   8   8   8   8   8   8   8
#     4  10  21  35  48  69 100 132 169 204 236 285
#     4  10  21  34  49  69  97 134 169 202 239 286
#     4   9  15  29  50  68  89 119 154 197 252 295
#     4  10  21  34  49  69  97 134 169 202 239 286
#     4   9  17  29  48  72  94 118 153 203 253 292
#     4   9  15  29  50  68  89 119 154 197 252 295
#     4   9  17  29  48  72  94 118 153 203 253 292
#     4  10  21  35  48  69 100 132 169 204 236 285
#
# _framework density 21.726797000000001
#
# number of rings (size 3 to 8) (size 9 to 14) (size 15 to 20)
#    0.000    2.500    2.500    0.000    3.500    1.500 
#    0.000    2.500    0.000    0.000    0.000    0.000 
#    0.000    6.000    0.000    0.000    0.000    0.000 
#
# Total GULP energy -357282.169679 kJ/mol
# GULP energy per Si atom -5582.533901 kJ/mol
# Density = 2.167735 g / cm^3
# Si number density = 21.726797 Si / 1000 Ang^3
#
#
#
# Elastic Constant Matrix: (Units=GPa)
#
#
# Indices 1 2 3 4 5 6 
#
# 1 40.5295 0.1482 -10.0629 0.0000 0.0000 0.0000
# 2 0.1482 98.9141 50.4111 0.0000 0.0000 0.0000
# 3 -10.0629 50.4111 149.4615 0.0000 0.0000 0.0000
# 4 0.0000 0.0000 0.0000 18.3830 0.0000 0.0000
# 5 0.0000 0.0000 0.0000 0.0000 -3.1224 0.0000
# 6 0.0000 0.0000 0.0000 0.0000 0.0000 5.4993
#
#
#
# Elastic Compliance Matrix: (Units=1/GPa)
#
#
# Indices 1 2 3 4 5 6 
#
# 1 0.025190 -0.001089 0.002063 0.000000 0.000000 0.000000
# 2 -0.001089 0.012255 -0.004207 0.000000 0.000000 0.000000
# 3 0.002063 -0.004207 0.008249 0.000000 0.000000 0.000000
# 4 0.000000 0.000000 0.000000 0.054398 0.000000 0.000000
# 5 0.000000 0.000000 0.000000 0.000000 -0.320265 0.000000
# 6 0.000000 0.000000 0.000000 0.000000 0.000000 0.181842
#
#
# Mechanical properties :
#
#
# Convention : Reuss Voigt Hill
#
# Bulk Modulus (GPa) = 25.49204 41.09974 33.29589
# Shear Modulus (GPa) = -266.11529 20.71255 -122.70137
#
# Velocity S-wave (km/s) = -11.07919 3.09093 -7.52312
# Velocity P-wave (km/s) = 12.32502 5.62994 7.75274
#
# Compressibility (1/GPa) = 0.03922793
#
# Stress axis : x y z
#
# Youngs Moduli (GPa) = 39.69883 81.59629 121.23352
#
# Poissons Ratio (x) = 0.08888 -0.25015
# Poissons Ratio (y) = 0.04324 0.51002
# Poissons Ratio (z) = -0.08191 0.34327
#
# Static dielectric constant tensor:
#      x y z
#    x 1.847040 0.000000 0.000000 
#    y 0.000000 1.770450 0.000000 
#    z 0.000000 0.000000 1.776440 
# 
# From -- ./inp_files/4274.got.cif
#   From: 2010.05.17/outbox.cif.g08.bks.cpg/sg56_3_cif.got.tgz:4274.got - 2010.06.03 13:42:01.
