data_PCOD9431493
_publ_section_title
;
Structure prediction by ZEFSAII (Michael W. Deem and Ramdas Pophale) SiO2 
 PCOD9431493
Probable space group: P C C N
;
_chemical_formula_sum "Si O2"
_cell_formula_units_Z 40
_cell_length_a 15.011668
_cell_length_b 10.908527
_cell_length_c 9.765267
_cell_angle_alpha 90.000000
_cell_angle_beta 90.000000
_cell_angle_gamma 90.000000
_cell_volume 1599.113111
_symmetry_space_group_name_H-M "P C C N"
_symmetry_group_IT_number 56
_symmetry_cell_setting 'orthorhombic'
loop_
_space_group_symop_operation_xyz
x,y,z
1/2-x,1/2-y,z
1/2+x,-y,1/2-z
-x,1/2+y,1/2-z
-x,-y,-z
1/2+x,1/2+y,-z
1/2-x,y,1/2+z
x,1/2-y,1/2+z
loop_
_atom_site_type_symbol
_atom_site_label
_atom_site_fract_x
_atom_site_fract_y
_atom_site_fract_z
Si Si1 0.365296 0.104838 0.993985
Si Si2 0.328598 0.845264 0.612937
Si Si3 0.240966 0.414698 0.251995
Si Si4 0.574371 0.473282 0.113091
Si Si5 0.049213 0.862898 0.607347
O O1 0.302223 0.143409 0.117415
O O2 0.385918 0.957904 0.023988
O O3 0.463391 0.160936 0.984785
O O4 0.315098 0.135133 0.853833
O O5 0.250000 0.750000 0.608413
O O6 0.291225 0.962291 0.693512
O O7 0.361982 0.874435 0.460186
O O8 0.410330 0.762936 0.665326
O O9 0.151693 0.432728 0.343523
O O10 0.526950 0.437071 0.254201
O O11 0.500000 0.500000 0.000000
#
# Coordination Sequence:
#
# PCOD9431493 Si02
#       5
#     8   8   8   8   8
#     4  10  21  39  59  93 130 177 210 267 331 405
#     4  12  22  37  64 101 130 160 222 283 324 379
#     4  11  21  38  65  93 131 175 222 266 330 397
#     4  11  23  39  59  96 132 175 213 273 341 404
#     4  10  23  36  60  95 139 169 214 275 342 390
#
# _framework density 25.013864999999999
#
# number of rings (size 3 to 8) (size 9 to 14) (size 15 to 20)
#    0.000    1.200    6.000    1.200    5.600    0.000 
#    0.000    0.000    0.000    1.200    5.200    0.000 
#    0.000    0.000    0.000    0.000    0.000    0.000 
#
# Total GULP energy -223227.117376 kJ/mol
# GULP energy per Si atom -5580.677934 kJ/mol
# Density = 2.495693 g / cm^3
# Si number density = 25.013865 Si / 1000 Ang^3
#
#
#
# Elastic Constant Matrix: (Units=GPa)
#
#
# Indices 1 2 3 4 5 6 
#
# 1 122.0960 36.5049 45.3244 0.0000 0.0000 0.0000
# 2 36.5049 46.8257 22.2013 0.0000 0.0000 0.0000
# 3 45.3244 22.2013 101.5076 0.0000 0.0000 0.0000
# 4 0.0000 0.0000 0.0000 9.4109 0.0000 0.0000
# 5 0.0000 0.0000 0.0000 0.0000 49.3384 0.0000
# 6 0.0000 0.0000 0.0000 0.0000 0.0000 13.6089
#
#
#
# Elastic Compliance Matrix: (Units=1/GPa)
#
#
# Indices 1 2 3 4 5 6 
#
# 1 0.011763 -0.007453 -0.003622 0.000000 0.000000 0.000000
# 2 -0.007453 0.028549 -0.002916 0.000000 0.000000 0.000000
# 3 -0.003622 -0.002916 0.012107 0.000000 0.000000 0.000000
# 4 0.000000 0.000000 0.000000 0.106260 0.000000 0.000000
# 5 0.000000 0.000000 0.000000 0.000000 0.020268 0.000000
# 6 0.000000 0.000000 0.000000 0.000000 0.000000 0.073481
#
#
# Mechanical properties :
#
#
# Convention : Reuss Voigt Hill
#
# Bulk Modulus (GPa) = 40.92397 53.16562 47.04480
# Shear Modulus (GPa) = 17.32762 25.56488 21.44625
#
# Velocity S-wave (km/s) = 2.63481 3.20039 2.93127
# Velocity P-wave (km/s) = 5.06482 5.91246 5.50498
#
# Compressibility (1/GPa) = 0.02443555
#
# Stress axis : x y z
#
# Youngs Moduli (GPa) = 85.00981 35.02772 82.59881
#
# Poissons Ratio (x) = 0.26107 0.29920
# Poissons Ratio (y) = 0.63359 0.24087
# Poissons Ratio (z) = 0.30794 0.10215
#
# Static dielectric constant tensor:
#      x y z
#    x 2.018990 0.000000 0.000000 
#    y 0.000000 2.168690 0.000000 
#    z 0.000000 0.000000 1.839310 
# 
# From -- ./inp_files/3204.got.cif
#   From: 2010.05.17/outbox.cif.g08.bks.cpg/sg56_2_cif.got.tgz:3204.got - 2010.06.03 13:42:01.
