data_PCOD9431618
_publ_section_title
;
Structure prediction by ZEFSAII (Michael W. Deem and Ramdas Pophale) SiO2 
 PCOD9431618
Probable space group: P C C N
;
_chemical_formula_sum "Si O2"
_cell_formula_units_Z 64
_cell_length_a 15.891359
_cell_length_b 16.720239
_cell_length_c 10.928907
_cell_angle_alpha 90.000000
_cell_angle_beta 90.000000
_cell_angle_gamma 90.000000
_cell_volume 2903.890595
_symmetry_space_group_name_H-M "P C C N"
_symmetry_group_IT_number 56
_symmetry_cell_setting 'orthorhombic'
loop_
_space_group_symop_operation_xyz
x,y,z
1/2-x,1/2-y,z
1/2+x,-y,1/2-z
-x,1/2+y,1/2-z
-x,-y,-z
1/2+x,1/2+y,-z
1/2-x,y,1/2+z
x,1/2-y,1/2+z
loop_
_atom_site_type_symbol
_atom_site_label
_atom_site_fract_x
_atom_site_fract_y
_atom_site_fract_z
Si Si1 0.108025 0.044324 0.768041
Si Si2 0.491682 0.711129 0.667087
Si Si3 0.321500 0.635170 0.742995
Si Si4 0.238345 0.076823 0.973158
Si Si5 0.402798 0.346654 0.529919
Si Si6 0.889111 0.831652 0.879995
Si Si7 0.979002 0.110612 0.928748
Si Si8 0.283415 0.607437 0.008811
O O1 0.174565 0.086677 0.859795
O O2 0.093418 0.096514 0.647701
O O3 0.021132 0.043274 0.844313
O O4 0.144905 0.956782 0.743021
O O5 0.404689 0.687836 0.729442
O O6 0.509015 0.663421 0.540941
O O7 0.571186 0.687139 0.749368
O O8 0.489337 0.805180 0.641826
O O9 0.262878 0.646762 0.624306
O O10 0.277250 0.647509 0.874685
O O11 0.327615 0.116264 0.950992
O O12 0.194085 0.117159 0.091990
O O13 0.249628 0.982900 0.994934
O O14 0.376739 0.256245 0.562552
O O15 0.963295 0.877299 0.952675
O O16 0.882522 0.099066 0.961852
#
# Coordination Sequence:
#
# PCOD9431618 Si02
#       8
#     8   8   8   8   8   8   8   8
#     4  10  22  41  63  94 133 162 215 267 324 395
#     4  11  24  40  67  95 130 171 217 272 328 398
#     4  11  25  45  67  99 130 169 226 272 335 392
#     4  10  23  39  63  93 131 173 213 260 328 389
#     4  11  22  40  61  95 131 166 211 269 321 394
#     4  10  21  40  63  92 128 171 212 260 319 395
#     4  10  22  43  66  91 126 173 216 266 330 387
#     4  11  24  44  69  95 132 173 222 281 327 393
#
# _framework density 22.039396
#
# number of rings (size 3 to 8) (size 9 to 14) (size 15 to 20)
#    0.000    1.500    3.750    0.375    3.500    3.500 
#    0.000    1.250    0.000    0.000    0.000    0.000 
#    0.000    0.000    0.000    0.000    0.000    0.000 
#
# Total GULP energy -357736.635737 kJ/mol
# GULP energy per Si atom -5589.634933 kJ/mol
# Density = 2.198923 g / cm^3
# Si number density = 22.039396 Si / 1000 Ang^3
#
#
#
# Elastic Constant Matrix: (Units=GPa)
#
#
# Indices 1 2 3 4 5 6 
#
# 1 65.1686 16.4620 21.3009 0.0000 0.0000 0.0000
# 2 16.4620 60.1377 27.8329 0.0000 0.0000 0.0000
# 3 21.3009 27.8329 99.6495 0.0000 0.0000 0.0000
# 4 0.0000 0.0000 0.0000 15.0016 0.0000 0.0000
# 5 0.0000 0.0000 0.0000 0.0000 33.2526 0.0000
# 6 0.0000 0.0000 0.0000 0.0000 0.0000 30.8244
#
#
#
# Elastic Compliance Matrix: (Units=1/GPa)
#
#
# Indices 1 2 3 4 5 6 
#
# 1 0.017093 -0.003431 -0.002695 0.000000 0.000000 0.000000
# 2 -0.003431 0.019786 -0.004793 0.000000 0.000000 0.000000
# 3 -0.002695 -0.004793 0.011950 0.000000 0.000000 0.000000
# 4 0.000000 0.000000 0.000000 0.066659 0.000000 0.000000
# 5 0.000000 0.000000 0.000000 0.000000 0.030073 0.000000
# 6 0.000000 0.000000 0.000000 0.000000 0.000000 0.032442
#
#
# Mechanical properties :
#
#
# Convention : Reuss Voigt Hill
#
# Bulk Modulus (GPa) = 37.05156 39.57193 38.31175
# Shear Modulus (GPa) = 23.94195 26.43972 25.19084
#
# Velocity S-wave (km/s) = 3.29952 3.46736 3.38448
# Velocity P-wave (km/s) = 5.60034 5.83303 5.71787
#
# Compressibility (1/GPa) = 0.02698942
#
# Stress axis : x y z
#
# Youngs Moduli (GPa) = 58.50492 50.54060 83.68208
#
# Poissons Ratio (x) = 0.17343 0.22554
# Poissons Ratio (y) = 0.20076 0.40108
# Poissons Ratio (z) = 0.15768 0.24224
#
# Static dielectric constant tensor:
#      x y z
#    x 1.791060 0.000000 0.000000 
#    y 0.000000 1.769840 0.000000 
#    z 0.000000 0.000000 1.876620 
# 
# From -- ./inp_files/8055.got.cif
#   From: 2010.05.17/outbox.cif.g08.bks.cpg/sg56_5_cif.got.tgz:8055.got - 2010.06.03 13:42:01.
