data_PCOD9431924
_publ_section_title
;
Structure prediction by ZEFSAII (Michael W. Deem and Ramdas Pophale) SiO2 
 PCOD9431924
Probable space group: P C C N
;
_chemical_formula_sum "Si O2"
_cell_formula_units_Z 32
_cell_length_a 12.048408
_cell_length_b 18.250289
_cell_length_c 5.607941
_cell_angle_alpha 90.000000
_cell_angle_beta 90.000000
_cell_angle_gamma 90.000000
_cell_volume 1233.112919
_symmetry_space_group_name_H-M "P C C N"
_symmetry_group_IT_number 56
_symmetry_cell_setting 'orthorhombic'
loop_
_space_group_symop_operation_xyz
x,y,z
1/2-x,1/2-y,z
1/2+x,-y,1/2-z
-x,1/2+y,1/2-z
-x,-y,-z
1/2+x,1/2+y,-z
1/2-x,y,1/2+z
x,1/2-y,1/2+z
loop_
_atom_site_type_symbol
_atom_site_label
_atom_site_fract_x
_atom_site_fract_y
_atom_site_fract_z
Si Si1 0.981293 0.420720 0.379341
Si Si2 0.878834 0.221052 0.080173
Si Si3 0.807502 0.023694 0.569862
Si Si4 0.227004 0.360680 0.395093
O O1 0.903292 0.363398 0.520218
O O2 0.923748 0.438374 0.126910
O O3 0.000000 0.500000 0.500000
O O4 0.100221 0.384401 0.364417
O O5 0.750000 0.250000 0.092721
O O6 0.925948 0.260488 0.841712
O O7 0.761358 0.043605 0.311043
O O8 0.801239 0.935425 0.582920
O O9 0.235200 0.324551 0.651883
#
# Coordination Sequence:
#
# PCOD9431924 Si02
#       4
#     8   8   8   8
#     4  12  24  42  77 110 144 203 257 312 369 442
#     4  10  26  48  70 102 154 199 239 301 392 461
#     4  10  22  36  58  99 144 176 231 311 366 419
#     4  10  22  39  57  99 145 173 238 310 366 412
#
# _framework density 25.950582000000001
#
# number of rings (size 3 to 8) (size 9 to 14) (size 15 to 20)
#    0.000    1.500    5.000    0.000    7.000    8.000 
#    0.000    0.000    0.000    4.500    0.000    0.000 
#    0.000    0.000    0.000    0.000    0.000    0.000 
#
# Total GULP energy -178855.949696 kJ/mol
# GULP energy per Si atom -5589.248428 kJ/mol
# Density = 2.589152 g / cm^3
# Si number density = 25.950582 Si / 1000 Ang^3
#
#
#
# Elastic Constant Matrix: (Units=GPa)
#
#
# Indices 1 2 3 4 5 6 
#
# 1 77.8955 62.6605 39.8151 0.0000 0.0000 0.0000
# 2 62.6605 117.9946 25.2611 0.0000 0.0000 0.0000
# 3 39.8151 25.2611 222.4039 0.0000 0.0000 0.0000
# 4 0.0000 0.0000 0.0000 -70.6284 0.0000 0.0000
# 5 0.0000 0.0000 0.0000 0.0000 32.8716 0.0000
# 6 0.0000 0.0000 0.0000 0.0000 0.0000 18.7145
#
#
#
# Elastic Compliance Matrix: (Units=1/GPa)
#
#
# Indices 1 2 3 4 5 6 
#
# 1 0.024150 -0.012196 -0.002938 0.000000 0.000000 0.000000
# 2 -0.012196 0.014845 0.000497 0.000000 0.000000 0.000000
# 3 -0.002938 0.000497 0.004966 0.000000 0.000000 0.000000
# 4 0.000000 0.000000 0.000000 -0.014159 0.000000 0.000000
# 5 0.000000 0.000000 0.000000 0.000000 0.030421 0.000000
# 6 0.000000 0.000000 0.000000 0.000000 0.000000 0.053434
#
#
# Mechanical properties :
#
#
# Convention : Reuss Voigt Hill
#
# Bulk Modulus (GPa) = 68.08545 74.86305 71.47425
# Shear Modulus (GPa) = 33.82327 15.56201 24.69264
#
# Velocity S-wave (km/s) = 3.61414 2.45149 3.08803
# Velocity P-wave (km/s) = 6.61132 6.07651 6.34955
#
# Compressibility (1/GPa) = 0.01468743
#
# Stress axis : x y z
#
# Youngs Moduli (GPa) = 41.40798 67.36280 201.37549
#
# Poissons Ratio (x) = 0.82154 0.59167
# Poissons Ratio (y) = 0.50500 -0.10012
# Poissons Ratio (z) = 0.12166 -0.03349
#
# Static dielectric constant tensor:
#      x y z
#    x 2.050020 0.000000 0.000000 
#    y 0.000000 1.996430 0.000000 
#    z 0.000000 0.000000 2.043410 
# 
# From -- ./inp_files/377.got.cif
#   From: 2010.05.17/outbox.cif.g08.bks.cpg/sg56_1_cif.got.tgz:377.got - 2010.06.03 13:42:01.
