data_PCOD9431113
_publ_section_title
;
Structure prediction by ZEFSAII (Michael W. Deem and Ramdas Pophale) SiO2 
 PCOD9431113
Probable space group: P C C N
;
_chemical_formula_sum "Si O2"
_cell_formula_units_Z 64
_cell_length_a 9.090030
_cell_length_b 26.215204
_cell_length_c 12.898787
_cell_angle_alpha 90.000000
_cell_angle_beta 90.000000
_cell_angle_gamma 90.000000
_cell_volume 3073.742127
_symmetry_space_group_name_H-M "P C C N"
_symmetry_group_IT_number 56
_symmetry_cell_setting 'orthorhombic'
loop_
_space_group_symop_operation_xyz
x,y,z
1/2-x,1/2-y,z
1/2+x,-y,1/2-z
-x,1/2+y,1/2-z
-x,-y,-z
1/2+x,1/2+y,-z
1/2-x,y,1/2+z
x,1/2-y,1/2+z
loop_
_atom_site_type_symbol
_atom_site_label
_atom_site_fract_x
_atom_site_fract_y
_atom_site_fract_z
Si Si1 0.470371 0.156507 0.763658
Si Si2 0.377546 0.789322 0.627024
Si Si3 0.096696 0.279275 0.969686
Si Si4 0.583883 0.736522 0.307074
Si Si5 0.761848 0.106242 0.361245
Si Si6 0.690385 0.561133 0.686655
Si Si7 0.017377 0.958012 0.257757
Si Si8 0.507734 0.560642 0.492232
O O1 0.436167 0.181901 0.877117
O O2 0.478643 0.205241 0.688666
O O3 0.624493 0.127114 0.774245
O O4 0.348736 0.112558 0.749182
O O5 0.250000 0.750000 0.659374
O O6 0.466561 0.761660 0.537672
O O7 0.492000 0.793074 0.721432
O O8 0.315529 0.843276 0.596368
O O9 0.250000 0.250000 0.955546
O O10 0.092171 0.296072 0.088325
O O11 0.750000 0.750000 0.274807
O O12 0.640667 0.069695 0.311553
O O13 0.864313 0.082133 0.449423
O O14 0.580952 0.515107 0.721322
O O15 0.646457 0.573986 0.566755
O O16 0.857523 0.543574 0.703506
O O17 0.995332 0.930012 0.369349
O O18 0.500000 0.500000 0.500000
#
# Coordination Sequence:
#
# PCOD9431113 Si02
#       8
#     8   8   8   8   8   8   8   8
#     4  10  20  41  59  90 130 166 206 276 315 381
#     4  11  21  39  57  88 126 164 207 271 315 373
#     4  10  22  39  61  84 127 168 212 262 318 388
#     4  10  22  39  61  89 124 167 216 254 323 392
#     4  11  23  39  65  93 128 172 221 266 335 390
#     4  10  22  41  68  95 131 166 221 270 333 392
#     4  11  23  43  68  97 128 176 213 275 334 395
#     4   9  21  44  65  90 131 166 210 275 329 388
#
# _framework density 20.821525999999999
#
# number of rings (size 3 to 8) (size 9 to 14) (size 15 to 20)
#    0.000    1.750    2.500    3.750    3.500    3.500 
#    4.500    8.125    0.000    0.000    0.000    0.000 
#    0.000    0.000    0.000    0.000    0.000    0.000 
#
# Total GULP energy -356853.613172 kJ/mol
# GULP energy per Si atom -5575.837706 kJ/mol
# Density = 2.077414 g / cm^3
# Si number density = 20.821526 Si / 1000 Ang^3
#
#
#
# Elastic Constant Matrix: (Units=GPa)
#
#
# Indices 1 2 3 4 5 6 
#
# 1 131.9228 26.5073 40.2554 0.0000 0.0000 0.0000
# 2 26.5073 98.7524 12.5211 0.0000 0.0000 0.0000
# 3 40.2554 12.5211 96.3589 0.0000 0.0000 0.0000
# 4 0.0000 0.0000 0.0000 17.1113 0.0000 0.0000
# 5 0.0000 0.0000 0.0000 0.0000 -128.5863 0.0000
# 6 0.0000 0.0000 0.0000 0.0000 0.0000 30.4095
#
#
#
# Elastic Compliance Matrix: (Units=1/GPa)
#
#
# Indices 1 2 3 4 5 6 
#
# 1 0.009054 -0.001983 -0.003525 0.000000 0.000000 0.000000
# 2 -0.001983 0.010730 -0.000566 0.000000 0.000000 0.000000
# 3 -0.003525 -0.000566 0.011924 0.000000 0.000000 0.000000
# 4 0.000000 0.000000 0.000000 0.058441 0.000000 0.000000
# 5 0.000000 0.000000 0.000000 0.000000 -0.007777 0.000000
# 6 0.000000 0.000000 0.000000 0.000000 0.000000 0.032884
#
#
# Mechanical properties :
#
#
# Convention : Reuss Voigt Hill
#
# Bulk Modulus (GPa) = 51.12295 53.95573 52.53934
# Shear Modulus (GPa) = 37.33425 0.30361 18.81893
#
# Velocity S-wave (km/s) = 4.23905 0.38227 3.00962
# Velocity P-wave (km/s) = 6.96890 5.11513 6.11270
#
# Compressibility (1/GPa) = 0.01956069
#
# Stress axis : x y z
#
# Youngs Moduli (GPa) = 110.44471 93.19256 83.86496
#
# Poissons Ratio (x) = 0.18484 0.29561
# Poissons Ratio (y) = 0.21906 0.04744
# Poissons Ratio (z) = 0.38930 0.05272
#
# Static dielectric constant tensor:
#      x y z
#    x 1.674290 0.000000 0.000000 
#    y 0.000000 1.748650 0.000000 
#    z 0.000000 0.000000 1.763920 
# 
# From -- ./inp_files/11038.got.cif
#   From: 2010.05.17/outbox.cif.g08.bks.cpg/sg56_6_cif.got.tgz:11038.got - 2010.06.03 13:42:01.
