data_PCOD9431357
_publ_section_title
;
Structure prediction by ZEFSAII (Michael W. Deem and Ramdas Pophale) SiO2 
 PCOD9431357
Probable space group: P C C N
;
_chemical_formula_sum "Si O2"
_cell_formula_units_Z 48
_cell_length_a 18.247149
_cell_length_b 5.142075
_cell_length_c 25.960978
_cell_angle_alpha 90.000000
_cell_angle_beta 90.000000
_cell_angle_gamma 90.000000
_cell_volume 2435.872062
_symmetry_space_group_name_H-M "P C C N"
_symmetry_group_IT_number 56
_symmetry_cell_setting 'orthorhombic'
loop_
_space_group_symop_operation_xyz
x,y,z
1/2-x,1/2-y,z
1/2+x,-y,1/2-z
-x,1/2+y,1/2-z
-x,-y,-z
1/2+x,1/2+y,-z
1/2-x,y,1/2+z
x,1/2-y,1/2+z
loop_
_atom_site_type_symbol
_atom_site_label
_atom_site_fract_x
_atom_site_fract_y
_atom_site_fract_z
Si Si1 0.407149 0.727627 0.763869
Si Si2 0.750000 0.750000 0.631112
Si Si3 0.459475 0.942477 0.921414
Si Si4 0.250000 0.750000 0.797985
Si Si5 0.567743 0.818316 0.485184
Si Si6 0.326860 0.911046 0.445478
Si Si7 0.527211 0.771896 0.183598
O O1 0.320971 0.688711 0.764649
O O2 0.442319 0.511308 0.801864
O O3 0.446913 0.703769 0.709066
O O4 0.425712 0.011961 0.785824
O O5 0.733980 0.499741 0.665973
O O6 0.811977 0.654959 0.591824
O O7 0.538148 0.800198 0.931549
O O8 0.391205 0.746283 0.916220
O O9 0.469419 0.143322 0.875245
O O10 0.435599 0.087084 0.973686
O O11 0.500000 0.000000 0.500000
O O12 0.640352 0.982150 0.500164
O O13 0.250000 0.750000 0.450210
#
# Coordination Sequence:
#
# PCOD9431357 Si02
#       7
#     8   4   8   4   8   8   8
#     4  10  23  38  57  92 123 156 203 253 304 364
#     4  12  24  34  56  94 124 162 182 246 326 368
#     4  10  21  37  59  84 124 161 206 247 303 368
#     4  12  24  36  58  90 128 154 202 252 318 366
#     4   9  21  36  54  88 118 157 201 248 301 368
#     4  11  22  34  55  93 127 157 196 250 312 375
#     4  10  22  39  60  87 123 162 203 249 301 369
#
# _framework density 19.705466999999999
#
# number of rings (size 3 to 8) (size 9 to 14) (size 15 to 20)
#    0.000    1.667    0.833    3.000   11.667    0.000 
#    0.000    0.000    0.000    0.000   36.833    0.000 
#    0.000    0.000    0.000    0.000    0.000    0.000 
#
# Total GULP energy -267763.405065 kJ/mol
# GULP energy per Si atom -5578.404272 kJ/mol
# Density = 1.966062 g / cm^3
# Si number density = 19.705467 Si / 1000 Ang^3
#
#
#
# Elastic Constant Matrix: (Units=GPa)
#
#
# Indices 1 2 3 4 5 6 
#
# 1 148.0884 23.5388 46.9584 0.0000 0.0000 0.0000
# 2 23.5388 74.4833 -3.0043 0.0000 0.0000 0.0000
# 3 46.9584 -3.0043 32.0652 0.0000 0.0000 0.0000
# 4 0.0000 0.0000 0.0000 20.8783 0.0000 0.0000
# 5 0.0000 0.0000 0.0000 0.0000 21.0465 0.0000
# 6 0.0000 0.0000 0.0000 0.0000 0.0000 39.0569
#
#
#
# Elastic Compliance Matrix: (Units=1/GPa)
#
#
# Indices 1 2 3 4 5 6 
#
# 1 0.014535 -0.005473 -0.021799 0.000000 0.000000 0.000000
# 2 -0.005473 0.015537 0.009470 0.000000 0.000000 0.000000
# 3 -0.021799 0.009470 0.063997 0.000000 0.000000 0.000000
# 4 0.000000 0.000000 0.000000 0.047897 0.000000 0.000000
# 5 0.000000 0.000000 0.000000 0.000000 0.047514 0.000000
# 6 0.000000 0.000000 0.000000 0.000000 0.000000 0.025604
#
#
# Mechanical properties :
#
#
# Convention : Reuss Voigt Hill
#
# Bulk Modulus (GPa) = 17.10357 43.29141 30.19749
# Shear Modulus (GPa) = 18.50656 28.67260 23.58958
#
# Velocity S-wave (km/s) = 3.06789 3.81866 3.46368
# Velocity P-wave (km/s) = 4.60953 6.43893 5.59945
#
# Compressibility (1/GPa) = 0.05846731
#
# Stress axis : x y z
#
# Youngs Moduli (GPa) = 68.80001 64.36109 15.62572
#
# Poissons Ratio (x) = 0.35223 0.34062
# Poissons Ratio (y) = 0.37652 -0.14798
# Poissons Ratio (z) = 1.49974 -0.60952
#
# Static dielectric constant tensor:
#      x y z
#    x 1.671610 0.000000 0.000000 
#    y 0.000000 0.789720 0.000000 
#    z 0.000000 0.000000 1.793820 
# 
# From -- ./inp_files/22498.got.cif
#   From: 2010.05.17/outbox.cif.g08.bks.cpg/sg56_12_cif.got.tgz:22498.got - 2010.06.03 13:42:01.
