data_PCOD9431898
_publ_section_title
;
Structure prediction by ZEFSAII (Michael W. Deem and Ramdas Pophale) SiO2 
 PCOD9431898
Probable space group: P C C N
;
_chemical_formula_sum "Si O2"
_cell_formula_units_Z 32
_cell_length_a 7.892201
_cell_length_b 11.052592
_cell_length_c 13.339843
_cell_angle_alpha 90.000000
_cell_angle_beta 90.000000
_cell_angle_gamma 90.000000
_cell_volume 1163.624869
_symmetry_space_group_name_H-M "P C C N"
_symmetry_group_IT_number 56
_symmetry_cell_setting 'orthorhombic'
loop_
_space_group_symop_operation_xyz
x,y,z
1/2-x,1/2-y,z
1/2+x,-y,1/2-z
-x,1/2+y,1/2-z
-x,-y,-z
1/2+x,1/2+y,-z
1/2-x,y,1/2+z
x,1/2-y,1/2+z
loop_
_atom_site_type_symbol
_atom_site_label
_atom_site_fract_x
_atom_site_fract_y
_atom_site_fract_z
Si Si1 0.426283 0.303317 0.995765
Si Si2 0.534386 0.975263 0.830743
Si Si3 0.261091 0.951994 0.488382
Si Si4 0.552753 0.727287 0.718300
O O1 0.250000 0.250000 0.044071
O O2 0.360852 0.429491 0.952257
O O3 0.609600 0.342392 0.035964
O O4 0.474866 0.223019 0.901155
O O5 0.500628 0.090130 0.757415
O O6 0.704521 0.013404 0.896007
O O7 0.494957 0.850990 0.769474
O O8 0.403121 0.950084 0.920432
O O9 0.750000 0.750000 0.731660
#
# Coordination Sequence:
#
# PCOD9431898 Si02
#       4
#     8   8   8   8
#     4  10  21  46  76 105 155 201 255 332 388 468
#     4  11  25  50  76 116 155 209 262 323 403 474
#     4  10  23  46  75 108 153 205 264 320 392 475
#     4  11  25  50  73 114 161 196 258 322 396 485
#
# _framework density 27.500271000000001
#
# number of rings (size 3 to 8) (size 9 to 14) (size 15 to 20)
#    0.000    1.500    5.000    0.000    3.500    2.000 
#    4.500    2.500    5.500    0.000    0.000    0.000 
#    0.000    0.000    0.000    0.000    0.000    0.000 
#
# Total GULP energy -178182.877822 kJ/mol
# GULP energy per Si atom -5568.214932 kJ/mol
# Density = 2.743768 g / cm^3
# Si number density = 27.500271 Si / 1000 Ang^3
#
#
#
# Elastic Constant Matrix: (Units=GPa)
#
#
# Indices 1 2 3 4 5 6 
#
# 1 122.1790 54.2358 34.9104 0.0000 0.0000 0.0000
# 2 54.2358 223.6360 63.9674 0.0000 0.0000 0.0000
# 3 34.9104 63.9674 103.2594 0.0000 0.0000 0.0000
# 4 0.0000 0.0000 0.0000 38.6050 0.0000 0.0000
# 5 0.0000 0.0000 0.0000 0.0000 90.9792 0.0000
# 6 0.0000 0.0000 0.0000 0.0000 0.0000 52.3247
#
#
#
# Elastic Compliance Matrix: (Units=1/GPa)
#
#
# Indices 1 2 3 4 5 6 
#
# 1 0.009560 -0.001694 -0.002183 0.000000 0.000000 0.000000
# 2 -0.001694 0.005735 -0.002980 0.000000 0.000000 0.000000
# 3 -0.002183 -0.002980 0.012268 0.000000 0.000000 0.000000
# 4 0.000000 0.000000 0.000000 0.025903 0.000000 0.000000
# 5 0.000000 0.000000 0.000000 0.000000 0.010992 0.000000
# 6 0.000000 0.000000 0.000000 0.000000 0.000000 0.019111
#
#
# Mechanical properties :
#
#
# Convention : Reuss Voigt Hill
#
# Bulk Modulus (GPa) = 72.20230 83.92243 78.06237
# Shear Modulus (GPa) = 49.06778 56.11250 52.59014
#
# Velocity S-wave (km/s) = 4.22864 4.52202 4.37779
# Velocity P-wave (km/s) = 7.08195 7.60579 7.34854
#
# Compressibility (1/GPa) = 0.01384997
#
# Stress axis : x y z
#
# Youngs Moduli (GPa) = 104.59744 174.37523 81.51154
#
# Poissons Ratio (x) = 0.29544 0.17791
# Poissons Ratio (y) = 0.17722 0.24289
# Poissons Ratio (z) = 0.22830 0.51960
#
# Static dielectric constant tensor:
#      x y z
#    x 2.253920 0.000000 0.000000 
#    y 0.000000 2.044120 0.000000 
#    z 0.000000 0.000000 2.248440 
# 
# From -- ./inp_files/10070.got.cif
#   From: 2010.05.17/outbox.cif.g08.bks.cpg/sg56_6_cif.got.tgz:10070.got - 2010.06.03 13:42:01.
