data_PCOD9431607
_publ_section_title
;
Structure prediction by ZEFSAII (Michael W. Deem and Ramdas Pophale) SiO2 
 PCOD9431607
Probable space group: P C C N
;
_chemical_formula_sum "Si O2"
_cell_formula_units_Z 24
_cell_length_a 7.854139
_cell_length_b 5.383527
_cell_length_c 21.861406
_cell_angle_alpha 90.000000
_cell_angle_beta 90.000000
_cell_angle_gamma 90.000000
_cell_volume 924.365160
_symmetry_space_group_name_H-M "P C C N"
_symmetry_group_IT_number 56
_symmetry_cell_setting 'orthorhombic'
loop_
_space_group_symop_operation_xyz
x,y,z
1/2-x,1/2-y,z
1/2+x,-y,1/2-z
-x,1/2+y,1/2-z
-x,-y,-z
1/2+x,1/2+y,-z
1/2-x,y,1/2+z
x,1/2-y,1/2+z
loop_
_atom_site_type_symbol
_atom_site_label
_atom_site_fract_x
_atom_site_fract_y
_atom_site_fract_z
Si Si1 0.800796 0.997979 0.480267
Si Si2 0.845958 0.501619 0.614085
Si Si3 0.934186 0.871912 0.780084
O O1 0.750000 0.750000 0.445968
O O2 0.675660 0.990842 0.540346
O O3 0.750000 0.250000 0.447508
O O4 0.000000 0.000000 0.500000
O O5 0.750000 0.750000 0.635088
O O6 0.015456 0.468187 0.652277
O O7 0.750000 0.250000 0.629132
O O8 0.750000 0.750000 0.778050
O O9 0.045589 0.628923 0.758716
#
# Coordination Sequence:
#
# PCOD9431607 Si02
#       3
#     8   8   8
#     4  10  21  40  66  94 128 169 213 268 327 386
#     4  10  21  40  62  91 129 167 214 267 317 386
#     4  12  24  40  65  93 128 172 217 267 324 384
#
# _framework density 25.963766
#
# number of rings (size 3 to 8) (size 9 to 14) (size 15 to 20)
#    0.000    1.333    0.000    7.000    0.000    0.000 
#    0.000   20.000    0.000    8.000    0.000    0.000 
#    0.000    0.000    0.000    0.000    0.000    0.000 
#
# Total GULP energy -134053.136953 kJ/mol
# GULP energy per Si atom -5585.547373 kJ/mol
# Density = 2.590467 g / cm^3
# Si number density = 25.963766 Si / 1000 Ang^3
#
#
#
# Elastic Constant Matrix: (Units=GPa)
#
#
# Indices 1 2 3 4 5 6 
#
# 1 117.1932 66.3175 49.4351 0.0000 0.0000 0.0000
# 2 66.3175 283.5158 34.9381 0.0000 0.0000 0.0000
# 3 49.4351 34.9381 122.0559 0.0000 0.0000 0.0000
# 4 0.0000 0.0000 0.0000 54.7098 0.0000 0.0000
# 5 0.0000 0.0000 0.0000 0.0000 66.5883 0.0000
# 6 0.0000 0.0000 0.0000 0.0000 0.0000 53.9985
#
#
#
# Elastic Compliance Matrix: (Units=1/GPa)
#
#
# Indices 1 2 3 4 5 6 
#
# 1 0.011465 -0.002187 -0.004018 0.000000 0.000000 0.000000
# 2 -0.002187 0.004073 -0.000280 0.000000 0.000000 0.000000
# 3 -0.004018 -0.000280 0.009900 0.000000 0.000000 0.000000
# 4 0.000000 0.000000 0.000000 0.018278 0.000000 0.000000
# 5 0.000000 0.000000 0.000000 0.000000 0.015018 0.000000
# 6 0.000000 0.000000 0.000000 0.000000 0.000000 0.018519
#
#
# Mechanical properties :
#
#
# Convention : Reuss Voigt Hill
#
# Bulk Modulus (GPa) = 80.19618 91.57180 85.88399
# Shear Modulus (GPa) = 52.97768 59.86427 56.42098
#
# Velocity S-wave (km/s) = 4.52203 4.80696 4.66667
# Velocity P-wave (km/s) = 7.63019 8.13356 7.88589
#
# Compressibility (1/GPa) = 0.01246942
#
# Stress axis : x y z
#
# Youngs Moduli (GPa) = 87.22132 245.50874 101.00575
#
# Poissons Ratio (x) = 0.53686 0.40581
# Poissons Ratio (y) = 0.19073 0.02831
# Poissons Ratio (z) = 0.35042 0.06881
#
# Static dielectric constant tensor:
#      x y z
#    x 2.128190 0.000000 0.000000 
#    y 0.000000 2.181930 0.000000 
#    z 0.000000 0.000000 2.074080 
# 
# From -- ./inp_files/20232.got.cif
#   From: 2010.05.17/outbox.cif.g08.bks.cpg/sg56_11_cif.got.tgz:20232.got - 2010.06.03 13:42:01.
