data_PCOD9431255
_publ_section_title
;
Structure prediction by ZEFSAII (Michael W. Deem and Ramdas Pophale) SiO2 
 PCOD9431255
Probable space group: P C C N
;
_chemical_formula_sum "Si O2"
_cell_formula_units_Z 32
_cell_length_a 15.065237
_cell_length_b 9.515876
_cell_length_c 8.632262
_cell_angle_alpha 90.000000
_cell_angle_beta 90.000000
_cell_angle_gamma 90.000000
_cell_volume 1237.511820
_symmetry_space_group_name_H-M "P C C N"
_symmetry_group_IT_number 56
_symmetry_cell_setting 'orthorhombic'
loop_
_space_group_symop_operation_xyz
x,y,z
1/2-x,1/2-y,z
1/2+x,-y,1/2-z
-x,1/2+y,1/2-z
-x,-y,-z
1/2+x,1/2+y,-z
1/2-x,y,1/2+z
x,1/2-y,1/2+z
loop_
_atom_site_type_symbol
_atom_site_label
_atom_site_fract_x
_atom_site_fract_y
_atom_site_fract_z
Si Si1 0.674598 0.918544 0.284481
Si Si2 0.499736 0.089235 0.845940
Si Si3 0.156658 0.763571 0.227923
Si Si4 0.856999 0.972347 0.139085
O O1 0.650036 0.076185 0.225209
O O2 0.778542 0.902328 0.244391
O O3 0.656035 0.915110 0.467134
O O4 0.594245 0.840526 0.198321
O O5 0.571565 0.212478 0.864915
O O6 0.545440 0.987641 0.714913
O O7 0.500000 0.000000 0.000000
O O8 0.250000 0.750000 0.141023
O O9 0.164934 0.640666 0.356452
#
# Coordination Sequence:
#
# PCOD9431255 Si02
#       4
#     8   8   8   8
#     4  11  19  35  59  79 126 149 206 242 299 353
#     4  10  21  34  54  85 120 161 198 246 300 353
#     4   8  20  33  55  83 121 147 202 241 297 338
#     4   9  21  33  53  86 113 158 194 247 293 344
#
# _framework density 25.858340999999999
#
# number of rings (size 3 to 8) (size 9 to 14) (size 15 to 20)
#    1.500    1.000    0.000    2.250    3.500    5.000 
#    0.000    0.000    0.000    1.500    0.000    7.000 
#    0.000    0.000    0.000    0.000    0.000    0.000 
#
# Total GULP energy -178471.972233 kJ/mol
# GULP energy per Si atom -5577.249132 kJ/mol
# Density = 2.579949 g / cm^3
# Si number density = 25.858341 Si / 1000 Ang^3
#
#
#
# Elastic Constant Matrix: (Units=GPa)
#
#
# Indices 1 2 3 4 5 6 
#
# 1 188.4904 11.2348 41.1689 0.0000 0.0000 0.0000
# 2 11.2348 39.2615 -17.0566 0.0000 0.0000 0.0000
# 3 41.1689 -17.0566 123.9263 0.0000 0.0000 0.0000
# 4 0.0000 0.0000 0.0000 22.4388 0.0000 0.0000
# 5 0.0000 0.0000 0.0000 0.0000 44.1485 0.0000
# 6 0.0000 0.0000 0.0000 0.0000 0.0000 46.4780
#
#
#
# Elastic Compliance Matrix: (Units=1/GPa)
#
#
# Indices 1 2 3 4 5 6 
#
# 1 0.005985 -0.002740 -0.002366 0.000000 0.000000 0.000000
# 2 -0.002740 0.028345 0.004812 0.000000 0.000000 0.000000
# 3 -0.002366 0.004812 0.009517 0.000000 0.000000 0.000000
# 4 0.000000 0.000000 0.000000 0.044566 0.000000 0.000000
# 5 0.000000 0.000000 0.000000 0.000000 0.022651 0.000000
# 6 0.000000 0.000000 0.000000 0.000000 0.000000 0.021516
#
#
# Mechanical properties :
#
#
# Convention : Reuss Voigt Hill
#
# Bulk Modulus (GPa) = 23.11664 46.93026 35.02345
# Shear Modulus (GPa) = 33.87814 43.70179 38.78996
#
# Velocity S-wave (km/s) = 3.62352 4.11548 3.87731
# Velocity P-wave (km/s) = 5.14448 6.38524 5.79814
#
# Compressibility (1/GPa) = 0.04325887
#
# Stress axis : x y z
#
# Youngs Moduli (GPa) = 167.07579 35.27987 105.07079
#
# Poissons Ratio (x) = 0.09668 0.24855
# Poissons Ratio (y) = 0.45785 -0.50556
# Poissons Ratio (z) = 0.39522 -0.16975
#
# Static dielectric constant tensor:
#      x y z
#    x 2.171730 0.000000 0.000000 
#    y 0.000000 1.947300 0.000000 
#    z 0.000000 0.000000 1.979350 
# 
# From -- ./inp_files/3140.got.cif
#   From: 2010.05.17/outbox.cif.g08.bks.cpg/sg56_2_cif.got.tgz:3140.got - 2010.06.03 13:42:01.
