data_PCOD9431683
_publ_section_title
;
Structure prediction by ZEFSAII (Michael W. Deem and Ramdas Pophale) SiO2 
 PCOD9431683
Probable space group: P C C N
;
_chemical_formula_sum "Si O2"
_cell_formula_units_Z 60
_cell_length_a 21.497935
_cell_length_b 5.304071
_cell_length_c 24.319112
_cell_angle_alpha 90.000000
_cell_angle_beta 90.000000
_cell_angle_gamma 90.000000
_cell_volume 2773.025014
_symmetry_space_group_name_H-M "P C C N"
_symmetry_group_IT_number 56
_symmetry_cell_setting 'orthorhombic'
loop_
_space_group_symop_operation_xyz
x,y,z
1/2-x,1/2-y,z
1/2+x,-y,1/2-z
-x,1/2+y,1/2-z
-x,-y,-z
1/2+x,1/2+y,-z
1/2-x,y,1/2+z
x,1/2-y,1/2+z
loop_
_atom_site_type_symbol
_atom_site_label
_atom_site_fract_x
_atom_site_fract_y
_atom_site_fract_z
Si Si1 0.328914 0.562334 0.220199
Si Si2 0.190494 0.000910 0.098614
Si Si3 0.622973 0.082390 0.069189
Si Si4 0.830578 0.003073 0.446289
Si Si5 0.250000 0.750000 0.874362
Si Si6 0.428851 0.073645 0.374517
Si Si7 0.180597 0.436962 0.288735
Si Si8 0.522528 0.059210 0.283132
O O1 0.295072 0.505752 0.162793
O O2 0.315510 0.839097 0.244145
O O3 0.403155 0.549627 0.213382
O O4 0.313457 0.335404 0.261724
O O5 0.151967 0.244884 0.082543
O O6 0.254112 0.999254 0.061616
O O7 0.152140 0.751867 0.086269
O O8 0.691430 0.145967 0.092766
O O9 0.583765 0.333171 0.085786
O O10 0.591975 0.834663 0.096436
O O11 0.639032 0.026654 0.005784
O O12 0.273723 0.522634 0.836990
O O13 0.495296 0.075829 0.344980
O O14 0.384907 0.046759 0.320594
O O15 0.501182 0.306377 0.248361
#
# Coordination Sequence:
#
# PCOD9431683 Si02
#       8
#     8   8   8   8   4   8   8   8
#     4  12  23  40  60  90 122 168 203 262 300 370
#     4  10  22  37  62  85 117 152 220 245 300 376
#     4  11  23  39  63  87 125 157 209 258 317 363
#     4  10  21  41  60  85 114 162 203 259 306 372
#     4  10  24  36  56  90 128 168 194 256 306 392
#     4  11  22  39  61  95 121 161 210 255 308 383
#     4  11  23  37  56  87 133 161 202 239 312 375
#     4  12  22  40  68  88 126 170 210 258 312 370
#
# _framework density 21.637021000000001
#
# number of rings (size 3 to 8) (size 9 to 14) (size 15 to 20)
#    0.000    1.067    2.667    4.800    0.000   11.200 
#    0.000    0.000    0.000    4.800    0.000    0.000 
#    0.000    0.000    0.000    0.000    0.000    0.000 
#
# Total GULP energy -335160.510690 kJ/mol
# GULP energy per Si atom -5586.008511 kJ/mol
# Density = 2.158777 g / cm^3
# Si number density = 21.637021 Si / 1000 Ang^3
#
#
#
# Elastic Constant Matrix: (Units=GPa)
#
#
# Indices 1 2 3 4 5 6 
#
# 1 43.2195 -6.6306 -21.5398 0.0000 0.0000 0.0000
# 2 -6.6306 192.0041 33.8487 0.0000 0.0000 0.0000
# 3 -21.5398 33.8487 81.5712 0.0000 0.0000 0.0000
# 4 0.0000 0.0000 0.0000 35.0336 0.0000 0.0000
# 5 0.0000 0.0000 0.0000 0.0000 27.7435 0.0000
# 6 0.0000 0.0000 0.0000 0.0000 0.0000 19.4634
#
#
#
# Elastic Compliance Matrix: (Units=1/GPa)
#
#
# Indices 1 2 3 4 5 6 
#
# 1 0.026665 -0.000346 0.007185 0.000000 0.000000 0.000000
# 2 -0.000346 0.005624 -0.002425 0.000000 0.000000 0.000000
# 3 0.007185 -0.002425 0.015163 0.000000 0.000000 0.000000
# 4 0.000000 0.000000 0.000000 0.028544 0.000000 0.000000
# 5 0.000000 0.000000 0.000000 0.000000 0.036045 0.000000
# 6 0.000000 0.000000 0.000000 0.000000 0.000000 0.051378
#
#
# Mechanical properties :
#
#
# Convention : Reuss Voigt Hill
#
# Bulk Modulus (GPa) = 17.76828 36.46127 27.11477
# Shear Modulus (GPa) = 28.84326 37.18919 33.01623
#
# Velocity S-wave (km/s) = 3.65506 4.15031 3.91053
# Velocity P-wave (km/s) = 5.10318 6.31306 5.74008
#
# Compressibility (1/GPa) = 0.05628007
#
# Stress axis : x y z
#
# Youngs Moduli (GPa) = 37.50176 177.81636 65.95125
#
# Poissons Ratio (x) = 0.06148 -0.47385
# Poissons Ratio (y) = 0.01297 0.15993
# Poissons Ratio (z) = -0.26944 0.43119
#
# Static dielectric constant tensor:
#      x y z
#    x 1.751030 0.000000 0.000000 
#    y 0.000000 1.819800 0.000000 
#    z 0.000000 0.000000 1.782800 
# 
# From -- ./inp_files/19622.got.cif
#   From: 2010.05.17/outbox.cif.g08.bks.cpg/sg56_10_cif.got.tgz:19622.got - 2010.06.03 13:42:01.
