data_PCOD9431823
_publ_section_title
;
Structure prediction by ZEFSAII (Michael W. Deem and Ramdas Pophale) SiO2 
 PCOD9431823
Probable space group: P C C N
;
_chemical_formula_sum "Si O2"
_cell_formula_units_Z 52
_cell_length_a 7.518268
_cell_length_b 20.871852
_cell_length_c 13.109956
_cell_angle_alpha 90.000000
_cell_angle_beta 90.000000
_cell_angle_gamma 90.000000
_cell_volume 2057.216616
_symmetry_space_group_name_H-M "P C C N"
_symmetry_group_IT_number 56
_symmetry_cell_setting 'orthorhombic'
loop_
_space_group_symop_operation_xyz
x,y,z
1/2-x,1/2-y,z
1/2+x,-y,1/2-z
-x,1/2+y,1/2-z
-x,-y,-z
1/2+x,1/2+y,-z
1/2-x,y,1/2+z
x,1/2-y,1/2+z
loop_
_atom_site_type_symbol
_atom_site_label
_atom_site_fract_x
_atom_site_fract_y
_atom_site_fract_z
Si Si1 0.912970 0.697649 0.121405
Si Si2 0.255396 0.417709 0.758790
Si Si3 0.750000 0.250000 0.104595
Si Si4 0.283930 0.838379 0.723958
Si Si5 0.678423 0.680203 0.405703
Si Si6 0.897967 0.454456 0.653683
Si Si7 0.955022 0.361372 0.488273
O O1 0.750000 0.750000 0.132935
O O2 0.833017 0.633023 0.166332
O O3 0.107063 0.697329 0.176053
O O4 0.951046 0.692581 0.000787
O O5 0.361369 0.374217 0.677385
O O6 0.340388 0.473857 0.824065
O O7 0.098922 0.449135 0.692508
O O8 0.639748 0.206525 0.185993
O O9 0.649286 0.303271 0.041624
O O10 0.212403 0.903439 0.777028
O O11 0.415655 0.853932 0.630976
O O12 0.750000 0.750000 0.365986
O O13 0.848080 0.650939 0.469146
O O14 0.887223 0.427454 0.538636
#
# Coordination Sequence:
#
# PCOD9431823 Si02
#       7
#     8   8   4   8   8   8   8
#     4  10  23  40  60  91 124 160 204 247 313 360
#     4  10  21  43  61  84 126 158 205 259 290 370
#     4  10  22  34  62  88 116 160 196 236 310 348
#     4  10  22  41  61  89 128 155 203 252 298 369
#     4  10  23  40  60  91 124 160 204 247 313 360
#     4   9  22  41  61  89 117 163 207 244 308 355
#     4  10  22  41  61  89 128 155 203 252 298 369
#
# _framework density 25.276872999999998
#
# number of rings (size 3 to 8) (size 9 to 14) (size 15 to 20)
#    0.000    2.154    0.000    1.846    8.615    3.692 
#    5.538    6.154    0.000    0.000    0.000    0.000 
#    0.000    0.000    0.000    0.000    0.000    0.000 
#
# Total GULP energy -290900.846096 kJ/mol
# GULP energy per Si atom -5594.247040 kJ/mol
# Density = 2.521934 g / cm^3
# Si number density = 25.276873 Si / 1000 Ang^3
#
#
#
# Elastic Constant Matrix: (Units=GPa)
#
#
# Indices 1 2 3 4 5 6 
#
# 1 56.6927 13.3631 -7.5930 0.0000 0.0000 0.0000
# 2 13.3631 91.8562 6.7075 0.0000 0.0000 0.0000
# 3 -7.5930 6.7075 119.9052 0.0000 0.0000 0.0000
# 4 0.0000 0.0000 0.0000 10.9165 0.0000 0.0000
# 5 0.0000 0.0000 0.0000 0.0000 21.0076 0.0000
# 6 0.0000 0.0000 0.0000 0.0000 0.0000 49.2566
#
#
#
# Elastic Compliance Matrix: (Units=1/GPa)
#
#
# Indices 1 2 3 4 5 6 
#
# 1 0.018473 -0.002784 0.001326 0.000000 0.000000 0.000000
# 2 -0.002784 0.011351 -0.000811 0.000000 0.000000 0.000000
# 3 0.001326 -0.000811 0.008469 0.000000 0.000000 0.000000
# 4 0.000000 0.000000 0.000000 0.091604 0.000000 0.000000
# 5 0.000000 0.000000 0.000000 0.000000 0.047602 0.000000
# 6 0.000000 0.000000 0.000000 0.000000 0.000000 0.020302
#
#
# Mechanical properties :
#
#
# Convention : Reuss Voigt Hill
#
# Bulk Modulus (GPa) = 29.62701 32.60105 31.11403
# Shear Modulus (GPa) = 23.40918 33.30126 28.35522
#
# Velocity S-wave (km/s) = 3.04651 3.63362 3.35294
# Velocity P-wave (km/s) = 4.91135 5.52538 5.22739
#
# Compressibility (1/GPa) = 0.03375299
#
# Stress axis : x y z
#
# Youngs Moduli (GPa) = 54.13380 88.09905 118.07435
#
# Poissons Ratio (x) = 0.24528 -0.15651
# Poissons Ratio (y) = 0.15072 0.09579
# Poissons Ratio (z) = -0.07176 0.07147
#
# Static dielectric constant tensor:
#      x y z
#    x 2.157180 0.000000 0.000000 
#    y 0.000000 1.953020 0.000000 
#    z 0.000000 0.000000 2.024810 
# 
# From -- ./inp_files/10846.got.cif
#   From: 2010.05.17/outbox.cif.g08.bks.cpg/sg56_6_cif.got.tgz:10846.got - 2010.06.03 13:42:01.
