data_PCOD9431947
_publ_section_title
;
Structure prediction by ZEFSAII (Michael W. Deem and Ramdas Pophale) SiO2 
 PCOD9431947
Probable space group: P C C N
;
_chemical_formula_sum "Si O2"
_cell_formula_units_Z 60
_cell_length_a 6.058088
_cell_length_b 19.002603
_cell_length_c 24.651467
_cell_angle_alpha 90.000000
_cell_angle_beta 90.000000
_cell_angle_gamma 90.000000
_cell_volume 2837.863106
_symmetry_space_group_name_H-M "P C C N"
_symmetry_group_IT_number 56
_symmetry_cell_setting 'orthorhombic'
loop_
_space_group_symop_operation_xyz
x,y,z
1/2-x,1/2-y,z
1/2+x,-y,1/2-z
-x,1/2+y,1/2-z
-x,-y,-z
1/2+x,1/2+y,-z
1/2-x,y,1/2+z
x,1/2-y,1/2+z
loop_
_atom_site_type_symbol
_atom_site_label
_atom_site_fract_x
_atom_site_fract_y
_atom_site_fract_z
Si Si1 0.209618 0.594406 0.883762
Si Si2 0.497876 0.619061 0.102434
Si Si3 0.750000 0.250000 0.857843
Si Si4 0.050479 0.420858 0.517829
Si Si5 0.597650 0.882024 0.308783
Si Si6 0.346369 0.985826 0.150144
Si Si7 0.681888 0.823702 0.911950
Si Si8 0.896205 0.851553 0.687732
O O1 0.362398 0.592393 0.936906
O O2 0.349500 0.598505 0.827962
O O3 0.047723 0.526298 0.879957
O O4 0.064488 0.664230 0.891874
O O5 0.334581 0.684539 0.108190
O O6 0.354338 0.548625 0.115547
O O7 0.694926 0.633024 0.145873
O O8 0.565994 0.617139 0.040133
O O9 0.540809 0.217445 0.826035
O O10 0.261833 0.390414 0.549785
O O11 0.000000 0.500000 0.500000
O O12 0.674286 0.832147 0.357722
O O13 0.652875 0.849028 0.251247
O O14 0.737196 0.953926 0.313571
O O15 0.447094 0.920048 0.181665
O O16 0.750000 0.750000 0.938089
#
# Coordination Sequence:
#
# PCOD9431947 Si02
#       8
#     8   8   4   8   8   8   8   8
#     4  10  22  42  62  94 133 165 214 271 327 400
#     4  11  24  42  63  95 133 172 219 272 321 402
#     4  10  26  44  60  94 128 184 222 262 334 388
#     4  11  23  41  68  96 130 173 219 272 337 392
#     4  10  23  39  64  93 127 168 213 274 330 394
#     4  10  22  37  63  97 127 167 213 269 336 385
#     4  10  24  41  63  95 127 170 222 274 335 395
#     4  11  24  40  66  91 135 171 223 273 327 402
#
# _framework density 21.142669999999999
#
# number of rings (size 3 to 8) (size 9 to 14) (size 15 to 20)
#    0.000    1.600    0.000    4.400    3.733   13.867 
#    0.000    0.000    0.000    0.000    0.000    0.000 
#    0.000    0.000    0.000    0.000    0.000    0.000 
#
# Total GULP energy -334418.369937 kJ/mol
# GULP energy per Si atom -5573.639499 kJ/mol
# Density = 2.109455 g / cm^3
# Si number density = 21.142670 Si / 1000 Ang^3
#
#
#
# Elastic Constant Matrix: (Units=GPa)
#
#
# Indices 1 2 3 4 5 6 
#
# 1 72.7059 4.1299 25.6113 0.0000 0.0000 0.0000
# 2 4.1299 75.1286 4.1081 0.0000 0.0000 0.0000
# 3 25.6113 4.1081 133.3550 0.0000 0.0000 0.0000
# 4 0.0000 0.0000 0.0000 9.5430 0.0000 0.0000
# 5 0.0000 0.0000 0.0000 0.0000 7.4772 0.0000
# 6 0.0000 0.0000 0.0000 0.0000 0.0000 21.9006
#
#
#
# Elastic Compliance Matrix: (Units=1/GPa)
#
#
# Indices 1 2 3 4 5 6 
#
# 1 0.014785 -0.000659 -0.002819 0.000000 0.000000 0.000000
# 2 -0.000659 0.013362 -0.000285 0.000000 0.000000 0.000000
# 3 -0.002819 -0.000285 0.008049 0.000000 0.000000 0.000000
# 4 0.000000 0.000000 0.000000 0.104789 0.000000 0.000000
# 5 0.000000 0.000000 0.000000 0.000000 0.133740 0.000000
# 6 0.000000 0.000000 0.000000 0.000000 0.000000 0.045661
#
#
# Mechanical properties :
#
#
# Convention : Reuss Voigt Hill
#
# Bulk Modulus (GPa) = 34.87955 38.76536 36.82246
# Shear Modulus (GPa) = 14.81623 24.27350 19.54486
#
# Velocity S-wave (km/s) = 2.65009 3.39201 3.04374
# Velocity P-wave (km/s) = 5.08891 5.80654 5.45953
#
# Compressibility (1/GPa) = 0.02867009
#
# Stress axis : x y z
#
# Youngs Moduli (GPa) = 67.63832 74.83740 124.23921
#
# Poissons Ratio (x) = 0.04929 0.35025
# Poissons Ratio (y) = 0.04454 0.03543
# Poissons Ratio (z) = 0.19068 0.02134
#
# Static dielectric constant tensor:
#      x y z
#    x 1.838300 0.000000 0.000000 
#    y 0.000000 1.789310 0.000000 
#    z 0.000000 0.000000 1.751980 
# 
# From -- ./inp_files/20154.got.cif
#   From: 2010.05.17/outbox.cif.g08.bks.cpg/sg56_11_cif.got.tgz:20154.got - 2010.06.03 13:42:01.
