data_PCOD9431392
_publ_section_title
;
Structure prediction by ZEFSAII (Michael W. Deem and Ramdas Pophale) SiO2 
 PCOD9431392
Probable space group: P C C N
;
_chemical_formula_sum "Si O2"
_cell_formula_units_Z 28
_cell_length_a 7.134073
_cell_length_b 12.884280
_cell_length_c 12.469927
_cell_angle_alpha 90.000000
_cell_angle_beta 90.000000
_cell_angle_gamma 90.000000
_cell_volume 1146.203194
_symmetry_space_group_name_H-M "P C C N"
_symmetry_group_IT_number 56
_symmetry_cell_setting 'orthorhombic'
loop_
_space_group_symop_operation_xyz
x,y,z
1/2-x,1/2-y,z
1/2+x,-y,1/2-z
-x,1/2+y,1/2-z
-x,-y,-z
1/2+x,1/2+y,-z
1/2-x,y,1/2+z
x,1/2-y,1/2+z
loop_
_atom_site_type_symbol
_atom_site_label
_atom_site_fract_x
_atom_site_fract_y
_atom_site_fract_z
Si Si1 0.229485 0.090520 0.018327
Si Si2 0.250000 0.250000 0.840799
Si Si3 0.914918 0.422678 0.126673
Si Si4 0.467398 0.607533 0.782017
O O1 0.415423 0.140841 0.074415
O O2 0.073547 0.080002 0.107712
O O3 0.171770 0.160029 0.917934
O O4 0.307931 0.983667 0.969041
O O5 0.085071 0.300949 0.772484
O O6 0.748951 0.370897 0.193216
O O7 0.012909 0.508617 0.202942
#
# Coordination Sequence:
#
# PCOD9431392 Si02
#       4
#     8   4   8   8
#     4  10  21  41  62  95 132 171 217 277 322 401
#     4  10  24  40  62  90 144 174 204 270 348 378
#     4  10  21  37  70  96 125 169 230 264 332 384
#     4  11  20  41  66  96 126 178 217 277 320 403
#
# _framework density 24.428477999999998
#
# number of rings (size 3 to 8) (size 9 to 14) (size 15 to 20)
#    0.000    1.714    2.857    1.714    0.000    0.000 
#    0.000    8.571    0.000    0.000    0.000    0.000 
#    0.000    0.000    0.000    0.000    0.000    0.000 
#
# Total GULP energy -156826.576452 kJ/mol
# GULP energy per Si atom -5600.949159 kJ/mol
# Density = 2.437288 g / cm^3
# Si number density = 24.428478 Si / 1000 Ang^3
#
#
#
# Elastic Constant Matrix: (Units=GPa)
#
#
# Indices 1 2 3 4 5 6 
#
# 1 141.1336 26.8720 42.0526 0.0000 0.0000 0.0000
# 2 26.8720 50.2168 23.8324 0.0000 0.0000 0.0000
# 3 42.0526 23.8324 115.9058 0.0000 0.0000 0.0000
# 4 0.0000 0.0000 0.0000 32.6721 0.0000 0.0000
# 5 0.0000 0.0000 0.0000 0.0000 40.0196 0.0000
# 6 0.0000 0.0000 0.0000 0.0000 0.0000 27.0063
#
#
#
# Elastic Compliance Matrix: (Units=1/GPa)
#
#
# Indices 1 2 3 4 5 6 
#
# 1 0.008436 -0.003393 -0.002363 0.000000 0.000000 0.000000
# 2 -0.003393 0.023431 -0.003587 0.000000 0.000000 0.000000
# 3 -0.002363 -0.003587 0.010223 0.000000 0.000000 0.000000
# 4 0.000000 0.000000 0.000000 0.030607 0.000000 0.000000
# 5 0.000000 0.000000 0.000000 0.000000 0.024988 0.000000
# 6 0.000000 0.000000 0.000000 0.000000 0.000000 0.037028
#
#
# Mechanical properties :
#
#
# Convention : Reuss Voigt Hill
#
# Bulk Modulus (GPa) = 42.72707 54.75224 48.73966
# Shear Modulus (GPa) = 31.01746 34.23955 32.62850
#
# Velocity S-wave (km/s) = 3.56719 3.74789 3.65865
# Velocity P-wave (km/s) = 5.87325 6.41801 6.15166
#
# Compressibility (1/GPa) = 0.02340436
#
# Stress axis : x y z
#
# Youngs Moduli (GPa) = 118.54645 42.67765 97.82260
#
# Poissons Ratio (x) = 0.14479 0.23115
# Poissons Ratio (y) = 0.40218 0.35090
# Poissons Ratio (z) = 0.28012 0.15309
#
# Static dielectric constant tensor:
#      x y z
#    x 1.904760 0.000000 0.000000 
#    y 0.000000 2.011060 0.000000 
#    z 0.000000 0.000000 1.948110 
# 
# From -- ./inp_files/5894.got.cif
#   From: 2010.05.17/outbox.cif.g08.bks.cpg/sg56_3_cif.got.tgz:5894.got - 2010.06.03 13:42:01.
