data_PCOD9431031
_publ_section_title
;
Structure prediction by ZEFSAII (Michael W. Deem and Ramdas Pophale) SiO2 
 PCOD9431031
Probable space group: P C C N
;
_chemical_formula_sum "Si O2"
_cell_formula_units_Z 48
_cell_length_a 15.868631
_cell_length_b 9.067607
_cell_length_c 16.521308
_cell_angle_alpha 90.000000
_cell_angle_beta 90.000000
_cell_angle_gamma 90.000000
_cell_volume 2377.259426
_symmetry_space_group_name_H-M "P C C N"
_symmetry_group_IT_number 56
_symmetry_cell_setting 'orthorhombic'
loop_
_space_group_symop_operation_xyz
x,y,z
1/2-x,1/2-y,z
1/2+x,-y,1/2-z
-x,1/2+y,1/2-z
-x,-y,-z
1/2+x,1/2+y,-z
1/2-x,y,1/2+z
x,1/2-y,1/2+z
loop_
_atom_site_type_symbol
_atom_site_label
_atom_site_fract_x
_atom_site_fract_y
_atom_site_fract_z
Si Si1 0.065997 0.247530 0.601036
Si Si2 0.653030 0.515744 0.778802
Si Si3 0.915841 0.785334 0.084501
Si Si4 0.250000 0.750000 0.273637
Si Si5 0.250000 0.250000 0.309880
Si Si6 0.486399 0.546986 0.678736
Si Si7 0.093794 0.611054 0.350390
O O1 0.111510 0.379216 0.651975
O O2 0.096758 0.253393 0.509543
O O3 0.965439 0.276648 0.601692
O O4 0.068719 0.086264 0.642067
O O5 0.693515 0.354388 0.784270
O O6 0.731790 0.611354 0.746582
O O7 0.577791 0.495398 0.713243
O O8 0.831807 0.753615 0.135000
O O9 0.990312 0.681214 0.118919
O O10 0.926688 0.957113 0.105223
O O11 0.189318 0.658755 0.335009
O O12 0.441169 0.602545 0.759160
#
# Coordination Sequence:
#
# PCOD9431031 Si02
#       7
#     8   8   8   4   4   8   8
#     4  11  23  40  63  97 126 165 216 280 331 390
#     4  10  22  38  66  87 123 171 224 269 319 398
#     4  11  23  39  64  92 134 165 212 278 339 384
#     4  12  22  40  66  90 126 170 232 272 316 384
#     4  10  20  40  60  90 122 168 216 264 334 392
#     4  10  21  41  66  91 121 172 221 262 324 415
#     4  11  22  41  64  93 124 172 222 264 320 399
#
# _framework density 20.191317999999999
#
# number of rings (size 3 to 8) (size 9 to 14) (size 15 to 20)
#    0.000    1.333    3.333    4.000    2.333    0.667 
#    0.000    0.833    0.000    0.000    0.000    0.000 
#    0.000    0.000    0.000    0.000    0.000    0.000 
#
# Total GULP energy -267460.342449 kJ/mol
# GULP energy per Si atom -5572.090468 kJ/mol
# Density = 2.014536 g / cm^3
# Si number density = 20.191318 Si / 1000 Ang^3
#
#
#
# Elastic Constant Matrix: (Units=GPa)
#
#
# Indices 1 2 3 4 5 6 
#
# 1 63.8369 19.6913 2.1854 0.0000 0.0000 0.0000
# 2 19.6913 67.5030 3.1401 0.0000 0.0000 0.0000
# 3 2.1854 3.1401 52.5641 0.0000 0.0000 0.0000
# 4 0.0000 0.0000 0.0000 30.4859 0.0000 0.0000
# 5 0.0000 0.0000 0.0000 0.0000 19.5389 0.0000
# 6 0.0000 0.0000 0.0000 0.0000 0.0000 443.2273
#
#
#
# Elastic Compliance Matrix: (Units=1/GPa)
#
#
# Indices 1 2 3 4 5 6 
#
# 1 0.017223 -0.005005 -0.000417 0.000000 0.000000 0.000000
# 2 -0.005005 0.016310 -0.000766 0.000000 0.000000 0.000000
# 3 -0.000417 -0.000766 0.019088 0.000000 0.000000 0.000000
# 4 0.000000 0.000000 0.000000 0.032802 0.000000 0.000000
# 5 0.000000 0.000000 0.000000 0.000000 0.051180 0.000000
# 6 0.000000 0.000000 0.000000 0.000000 0.000000 0.002256
#
#
# Mechanical properties :
#
#
# Convention : Reuss Voigt Hill
#
# Bulk Modulus (GPa) = 24.84835 25.99306 25.42070
# Shear Modulus (GPa) = 30.36757 109.24288 69.80522
#
# Velocity S-wave (km/s) = 3.88234 7.36351 5.88617
# Velocity P-wave (km/s) = 5.69473 9.23019 7.66898
#
# Compressibility (1/GPa) = 0.04024413
#
# Stress axis : x y z
#
# Youngs Moduli (GPa) = 58.06202 61.31306 52.39026
#
# Poissons Ratio (x) = 0.30685 0.02185
# Poissons Ratio (y) = 0.29058 0.04014
# Poissons Ratio (z) = 0.02422 0.04698
#
# Static dielectric constant tensor:
#      x y z
#    x 1.598130 0.000000 0.000000 
#    y 0.000000 1.819460 0.000000 
#    z 0.000000 0.000000 1.679730 
# 
# From -- ./inp_files/10726.got.cif
#   From: 2010.05.17/outbox.cif.g08.bks.cpg/sg56_6_cif.got.tgz:10726.got - 2010.06.03 13:42:01.
