data_PCOD9431954
_publ_section_title
;
Structure prediction by ZEFSAII (Michael W. Deem and Ramdas Pophale) SiO2 
 PCOD9431954
Probable space group: P C C N
;
_chemical_formula_sum "Si O2"
_cell_formula_units_Z 52
_cell_length_a 7.422995
_cell_length_b 17.549004
_cell_length_c 14.284264
_cell_angle_alpha 90.000000
_cell_angle_beta 90.000000
_cell_angle_gamma 90.000000
_cell_volume 1860.756348
_symmetry_space_group_name_H-M "P C C N"
_symmetry_group_IT_number 56
_symmetry_cell_setting 'orthorhombic'
loop_
_space_group_symop_operation_xyz
x,y,z
1/2-x,1/2-y,z
1/2+x,-y,1/2-z
-x,1/2+y,1/2-z
-x,-y,-z
1/2+x,1/2+y,-z
1/2-x,y,1/2+z
x,1/2-y,1/2+z
loop_
_atom_site_type_symbol
_atom_site_label
_atom_site_fract_x
_atom_site_fract_y
_atom_site_fract_z
Si Si1 0.683218 0.586323 0.600169
Si Si2 0.250000 0.250000 0.392516
Si Si3 0.451828 0.739490 0.399589
Si Si4 0.891523 0.304670 0.392229
Si Si5 0.082631 0.539645 0.635633
Si Si6 0.623264 0.425946 0.650140
Si Si7 0.949024 0.614269 0.312941
O O1 0.679548 0.671884 0.556696
O O2 0.892574 0.560857 0.589628
O O3 0.597206 0.502124 0.588960
O O4 0.614917 0.606188 0.706333
O O5 0.420529 0.212097 0.340723
O O6 0.250000 0.750000 0.359216
O O7 0.431995 0.775196 0.503712
O O8 0.472035 0.649209 0.388528
O O9 0.577265 0.800894 0.349102
O O10 0.750000 0.250000 0.346299
O O11 0.803475 0.388070 0.397744
O O12 0.147344 0.453846 0.628620
O O13 0.053754 0.554631 0.746027
O O14 0.838880 0.408882 0.668574
#
# Coordination Sequence:
#
# PCOD9431954 Si02
#       7
#     8   4   8   8   8   8   8
#     4   9  19  34  52  82 116 142 185 246 293 339
#     4  10  22  38  56  84 114 152 190 240 284 348
#     4   9  19  35  55  81 108 148 191 236 287 352
#     4  10  22  38  57  81 116 152 194 235 287 349
#     4   9  19  34  54  84 111 147 190 238 292 351
#     4   9  18  34  56  81 112 145 192 239 293 346
#     4   9  18  33  57  82 112 146 186 239 295 344
#
# _framework density 27.945627000000002
#
# number of rings (size 3 to 8) (size 9 to 14) (size 15 to 20)
#    0.000    2.769    0.000    0.000    6.462    1.231 
#    2.769    2.308    0.000    0.000    0.000    0.000 
#    0.000    0.000    0.000    0.000    0.000    0.000 
#
# Total GULP energy -289985.633615 kJ/mol
# GULP energy per Si atom -5576.646800 kJ/mol
# Density = 2.788202 g / cm^3
# Si number density = 27.945627 Si / 1000 Ang^3
#
#
#
# Elastic Constant Matrix: (Units=GPa)
#
#
# Indices 1 2 3 4 5 6 
#
# 1 72.6634 24.9771 7.9055 0.0000 0.0000 0.0000
# 2 24.9771 316.7448 32.0895 0.0000 0.0000 0.0000
# 3 7.9055 32.0895 95.8298 0.0000 0.0000 0.0000
# 4 0.0000 0.0000 0.0000 -46.8057 0.0000 0.0000
# 5 0.0000 0.0000 0.0000 0.0000 10.6016 0.0000
# 6 0.0000 0.0000 0.0000 0.0000 0.0000 36.3901
#
#
#
# Elastic Compliance Matrix: (Units=1/GPa)
#
#
# Indices 1 2 3 4 5 6 
#
# 1 0.014208 -0.001037 -0.000825 0.000000 0.000000 0.000000
# 2 -0.001037 0.003344 -0.001034 0.000000 0.000000 0.000000
# 3 -0.000825 -0.001034 0.010850 0.000000 0.000000 0.000000
# 4 0.000000 0.000000 0.000000 -0.021365 0.000000 0.000000
# 5 0.000000 0.000000 0.000000 0.000000 0.094326 0.000000
# 6 0.000000 0.000000 0.000000 0.000000 0.000000 0.027480
#
#
# Mechanical properties :
#
#
# Convention : Reuss Voigt Hill
#
# Bulk Modulus (GPa) = 44.22890 68.35359 56.29124
# Shear Modulus (GPa) = 35.16904 28.05490 31.61197
#
# Velocity S-wave (km/s) = 3.55136 3.17189 3.36697
# Velocity P-wave (km/s) = 5.71641 6.15850 5.94157
#
# Compressibility (1/GPa) = 0.02260965
#
# Stress axis : x y z
#
# Youngs Moduli (GPa) = 70.38170 299.07508 92.17014
#
# Poissons Ratio (x) = 0.31009 0.07603
# Poissons Ratio (y) = 0.07297 0.09531
# Poissons Ratio (z) = 0.05806 0.30928
#
# Static dielectric constant tensor:
#      x y z
#    x 2.358090 0.000000 0.000000 
#    y 0.000000 2.333430 0.000000 
#    z 0.000000 0.000000 2.166110 
# 
# From -- ./inp_files/15046.got.cif
#   From: 2010.05.17/outbox.cif.g08.bks.cpg/sg56_8_cif.got.tgz:15046.got - 2010.06.03 13:42:01.
