data_PCOD9431430
_publ_section_title
;
Structure prediction by ZEFSAII (Michael W. Deem and Ramdas Pophale) SiO2 
 PCOD9431430
Probable space group: P C C N
;
_chemical_formula_sum "Si O2"
_cell_formula_units_Z 56
_cell_length_a 27.299397
_cell_length_b 5.526496
_cell_length_c 14.858211
_cell_angle_alpha 90.000000
_cell_angle_beta 90.000000
_cell_angle_gamma 90.000000
_cell_volume 2241.658417
_symmetry_space_group_name_H-M "P C C N"
_symmetry_group_IT_number 56
_symmetry_cell_setting 'orthorhombic'
loop_
_space_group_symop_operation_xyz
x,y,z
1/2-x,1/2-y,z
1/2+x,-y,1/2-z
-x,1/2+y,1/2-z
-x,-y,-z
1/2+x,1/2+y,-z
1/2-x,y,1/2+z
x,1/2-y,1/2+z
loop_
_atom_site_type_symbol
_atom_site_label
_atom_site_fract_x
_atom_site_fract_y
_atom_site_fract_z
Si Si1 0.888328 0.446291 0.661839
Si Si2 0.194300 0.809739 0.426388
Si Si3 0.615500 0.686959 0.519080
Si Si4 0.696212 0.162780 0.370235
Si Si5 0.147581 0.329932 0.173080
Si Si6 0.001460 0.408150 0.665437
Si Si7 0.978676 0.578290 0.127791
O O1 0.842888 0.267676 0.652147
O O2 0.890901 0.550716 0.561745
O O3 0.873881 0.664363 0.727717
O O4 0.943018 0.378939 0.688371
O O5 0.250000 0.750000 0.395237
O O6 0.193383 0.661520 0.520762
O O7 0.168922 0.066226 0.456860
O O8 0.613176 0.709535 0.412521
O O9 0.570955 0.551736 0.570051
O O10 0.750000 0.250000 0.344934
O O11 0.663068 0.389278 0.340537
O O12 0.684756 0.894898 0.334732
O O13 0.004710 0.661577 0.612989
O O14 0.027616 0.411798 0.762381
O O15 0.010343 0.161206 0.612147
#
# Coordination Sequence:
#
# PCOD9431430 Si02
#       7
#     8   8   8   8   8   8   8
#     4  11  22  38  59  87 125 154 204 250 299 358
#     4  10  21  38  62  85 117 162 200 247 300 357
#     4  10  21  40  59  85 123 157 202 248 304 356
#     4  10  22  43  60  82 117 157 203 250 295 351
#     4  11  24  37  62  88 117 160 198 247 307 353
#     4   9  18  32  56  88 111 154 198 242 295 359
#     4   9  17  32  59  83 114 154 199 239 300 356
#
# _framework density 24.981504999999999
#
# number of rings (size 3 to 8) (size 9 to 14) (size 15 to 20)
#    0.000    2.000    2.857    0.429    2.000    1.143 
#    2.571    0.714    0.000    0.000    0.000   14.000 
#    0.000    0.000    0.000    0.000    0.000    0.000 
#
# Total GULP energy -312168.760206 kJ/mol
# GULP energy per Si atom -5574.442147 kJ/mol
# Density = 2.492465 g / cm^3
# Si number density = 24.981505 Si / 1000 Ang^3
#
#
#
# Elastic Constant Matrix: (Units=GPa)
#
#
# Indices 1 2 3 4 5 6 
#
# 1 100.4765 15.0073 4.0878 0.0000 0.0000 0.0000
# 2 15.0073 123.4551 5.8175 0.0000 0.0000 0.0000
# 3 4.0878 5.8175 46.3965 0.0000 0.0000 0.0000
# 4 0.0000 0.0000 0.0000 -5.4735 0.0000 0.0000
# 5 0.0000 0.0000 0.0000 0.0000 -1.2891 0.0000
# 6 0.0000 0.0000 0.0000 0.0000 0.0000 30.3346
#
#
#
# Elastic Compliance Matrix: (Units=1/GPa)
#
#
# Indices 1 2 3 4 5 6 
#
# 1 0.010162 -0.001200 -0.000745 0.000000 0.000000 0.000000
# 2 -0.001200 0.008290 -0.000934 0.000000 0.000000 0.000000
# 3 -0.000745 -0.000934 0.021736 0.000000 0.000000 0.000000
# 4 0.000000 0.000000 0.000000 -0.182699 0.000000 0.000000
# 5 0.000000 0.000000 0.000000 0.000000 -0.775713 0.000000
# 6 0.000000 0.000000 0.000000 0.000000 0.000000 0.032966
#
#
# Mechanical properties :
#
#
# Convention : Reuss Voigt Hill
#
# Bulk Modulus (GPa) = 29.04390 35.57259 32.30824
# Shear Modulus (GPa) = -5.76021 21.07544 7.65761
#
# Velocity S-wave (km/s) = -1.52013 2.90770 1.75270
# Velocity P-wave (km/s) = 2.92751 5.05405 4.13000
#
# Compressibility (1/GPa) = 0.03443064
#
# Stress axis : x y z
#
# Youngs Moduli (GPa) = 98.40441 120.62708 46.00655
#
# Poissons Ratio (x) = 0.14478 0.03427
# Poissons Ratio (y) = 0.11811 0.04296
# Poissons Ratio (z) = 0.07330 0.11263
#
# Static dielectric constant tensor:
#      x y z
#    x 2.076110 0.000000 0.000000 
#    y 0.000000 2.370380 0.000000 
#    z 0.000000 0.000000 1.946700 
# 
# From -- ./inp_files/9810.got.cif
#   From: 2010.05.17/outbox.cif.g08.bks.cpg/sg56_5_cif.got.tgz:9810.got - 2010.06.03 13:42:01.
