data_PCOD9431865
_publ_section_title
;
Structure prediction by ZEFSAII (Michael W. Deem and Ramdas Pophale) SiO2 
 PCOD9431865
Probable space group: P C C N
;
_chemical_formula_sum "Si O2"
_cell_formula_units_Z 56
_cell_length_a 22.704224
_cell_length_b 7.909102
_cell_length_c 14.970197
_cell_angle_alpha 90.000000
_cell_angle_beta 90.000000
_cell_angle_gamma 90.000000
_cell_volume 2688.198626
_symmetry_space_group_name_H-M "P C C N"
_symmetry_group_IT_number 56
_symmetry_cell_setting 'orthorhombic'
loop_
_space_group_symop_operation_xyz
x,y,z
1/2-x,1/2-y,z
1/2+x,-y,1/2-z
-x,1/2+y,1/2-z
-x,-y,-z
1/2+x,1/2+y,-z
1/2-x,y,1/2+z
x,1/2-y,1/2+z
loop_
_atom_site_type_symbol
_atom_site_label
_atom_site_fract_x
_atom_site_fract_y
_atom_site_fract_z
Si Si1 0.299470 0.392757 0.696842
Si Si2 0.997629 0.232861 0.077344
Si Si3 0.928057 0.613525 0.575220
Si Si4 0.815024 0.419488 0.622852
Si Si5 0.282746 0.068333 0.991427
Si Si6 0.580480 0.794564 0.255587
Si Si7 0.113828 0.931702 0.378398
O O1 0.250000 0.250000 0.711448
O O2 0.295546 0.525227 0.777802
O O3 0.291585 0.462761 0.596821
O O4 0.363049 0.303852 0.705722
O O5 0.030607 0.203384 0.170436
O O6 0.950323 0.383448 0.082239
O O7 0.047905 0.234415 0.002112
O O8 0.959150 0.065916 0.060510
O O9 0.860254 0.560803 0.584591
O O10 0.943858 0.694183 0.669970
O O11 0.760383 0.434982 0.556337
O O12 0.849936 0.243512 0.629619
O O13 0.250000 0.250000 0.982063
O O14 0.344764 0.050715 0.939477
O O15 0.602288 0.973110 0.215222
#
# Coordination Sequence:
#
# PCOD9431865 Si02
#       7
#     8   8   8   8   8   8   8
#     4  10  23  41  66  97 122 173 217 265 329 395
#     4  10  22  41  62  96 128 171 223 262 330 385
#     4   9  21  41  62  90 131 173 208 274 320 392
#     4  10  21  44  66  93 139 165 217 274 333 393
#     4  11  23  42  68  95 131 170 220 271 336 395
#     4  11  22  39  65  91 132 171 220 264 327 392
#     4  11  24  42  65 101 132 175 216 279 329 394
#
# _framework density 20.831793999999999
#
# number of rings (size 3 to 8) (size 9 to 14) (size 15 to 20)
#    0.000    1.714    0.000    4.286    6.000    0.571 
#   15.429    4.286    0.000    0.000    0.000    0.000 
#    0.000    0.000    0.000    0.000    0.000    0.000 
#
# Total GULP energy -312712.870320 kJ/mol
# GULP energy per Si atom -5584.158399 kJ/mol
# Density = 2.078438 g / cm^3
# Si number density = 20.831794 Si / 1000 Ang^3
#
#
#
# Elastic Constant Matrix: (Units=GPa)
#
#
# Indices 1 2 3 4 5 6 
#
# 1 79.4415 22.6636 79.4872 0.0000 0.0000 0.0000
# 2 22.6636 87.7688 43.2606 0.0000 0.0000 0.0000
# 3 79.4872 43.2606 128.0221 0.0000 0.0000 0.0000
# 4 0.0000 0.0000 0.0000 -6.5226 0.0000 0.0000
# 5 0.0000 0.0000 0.0000 0.0000 34.8229 0.0000
# 6 0.0000 0.0000 0.0000 0.0000 0.0000 16.8334
#
#
#
# Elastic Compliance Matrix: (Units=1/GPa)
#
#
# Indices 1 2 3 4 5 6 
#
# 1 0.033503 0.001922 -0.021451 0.000000 0.000000 0.000000
# 2 0.001922 0.013781 -0.005850 0.000000 0.000000 0.000000
# 3 -0.021451 -0.005850 0.023107 0.000000 0.000000 0.000000
# 4 0.000000 0.000000 0.000000 -0.153313 0.000000 0.000000
# 5 0.000000 0.000000 0.000000 0.000000 0.028717 0.000000
# 6 0.000000 0.000000 0.000000 0.000000 0.000000 0.059406
#
#
# Mechanical properties :
#
#
# Convention : Reuss Voigt Hill
#
# Bulk Modulus (GPa) = 50.93698 65.11726 58.02712
# Shear Modulus (GPa) = 79.99751 19.01481 49.50616
#
# Velocity S-wave (km/s) = 6.20363 3.02450 4.88019
# Velocity P-wave (km/s) = 8.70735 6.59722 7.72468
#
# Compressibility (1/GPa) = 0.01963210
#
# Stress axis : x y z
#
# Youngs Moduli (GPa) = 29.84817 72.56513 43.27777
#
# Poissons Ratio (x) = -0.13946 0.92835
# Poissons Ratio (y) = -0.05737 0.25317
# Poissons Ratio (z) = 0.64027 0.42451
#
# Static dielectric constant tensor:
#      x y z
#    x 1.765550 0.000000 0.000000 
#    y 0.000000 1.771110 0.000000 
#    z 0.000000 0.000000 1.707870 
# 
# From -- ./inp_files/13090.got.cif
#   From: 2010.05.17/outbox.cif.g08.bks.cpg/sg56_7_cif.got.tgz:13090.got - 2010.06.03 13:42:01.
