data_PCOD9431968
_publ_section_title
;
Structure prediction by ZEFSAII (Michael W. Deem and Ramdas Pophale) SiO2 
 PCOD9431968
Probable space group: P C C N
;
_chemical_formula_sum "Si O2"
_cell_formula_units_Z 48
_cell_length_a 13.841067
_cell_length_b 16.039773
_cell_length_c 9.437483
_cell_angle_alpha 90.000000
_cell_angle_beta 90.000000
_cell_angle_gamma 90.000000
_cell_volume 2095.192694
_symmetry_space_group_name_H-M "P C C N"
_symmetry_group_IT_number 56
_symmetry_cell_setting 'orthorhombic'
loop_
_space_group_symop_operation_xyz
x,y,z
1/2-x,1/2-y,z
1/2+x,-y,1/2-z
-x,1/2+y,1/2-z
-x,-y,-z
1/2+x,1/2+y,-z
1/2-x,y,1/2+z
x,1/2-y,1/2+z
loop_
_atom_site_type_symbol
_atom_site_label
_atom_site_fract_x
_atom_site_fract_y
_atom_site_fract_z
Si Si1 0.890436 0.085040 0.176257
Si Si2 0.438160 0.033924 0.867513
Si Si3 0.137194 0.639601 0.845124
Si Si4 0.979858 0.747409 0.342947
Si Si5 0.357263 0.220045 0.912014
Si Si6 0.772002 0.382980 0.417529
O O1 0.811015 0.084356 0.305481
O O2 0.984632 0.038832 0.238672
O O3 0.938690 0.176312 0.151705
O O4 0.840772 0.062159 0.024464
O O5 0.380116 0.120452 0.895220
O O6 0.363894 0.960190 0.834654
O O7 0.500000 0.000000 0.000000
O O8 0.162050 0.670138 0.688399
O O9 0.033839 0.670279 0.892432
O O10 0.212386 0.664603 0.963116
O O11 0.884391 0.740486 0.436780
O O12 0.939942 0.758184 0.187022
O O13 0.250000 0.250000 0.873905
#
# Coordination Sequence:
#
# PCOD9431968 Si02
#       6
#     8   8   8   8   8   8
#     4  10  22  39  62  93 130 169 215 271 341 410
#     4  11  21  45  67  88 136 183 217 283 353 397
#     4  11  22  41  63  93 131 175 214 280 338 407
#     4  11  22  41  66  91 131 174 219 269 347 406
#     4  11  24  44  66  98 128 174 236 278 335 410
#     4  10  22  38  60  97 126 159 222 264 335 399
#
# _framework density 22.909586999999998
#
# number of rings (size 3 to 8) (size 9 to 14) (size 15 to 20)
#    0.000    1.333    3.333    2.500    0.000    4.667 
#   15.000    0.000    0.000    0.000    0.000    0.000 
#    0.000    0.000    0.000    0.000    0.000    0.000 
#
# Total GULP energy -267269.588982 kJ/mol
# GULP energy per Si atom -5568.116437 kJ/mol
# Density = 2.285744 g / cm^3
# Si number density = 22.909587 Si / 1000 Ang^3
#
#
#
# Elastic Constant Matrix: (Units=GPa)
#
#
# Indices 1 2 3 4 5 6 
#
# 1 128.7843 44.4967 26.2021 0.0000 0.0000 0.0000
# 2 44.4967 60.4891 3.6902 0.0000 0.0000 0.0000
# 3 26.2021 3.6902 111.2889 0.0000 0.0000 0.0000
# 4 0.0000 0.0000 0.0000 15.7385 0.0000 0.0000
# 5 0.0000 0.0000 0.0000 0.0000 45.8076 0.0000
# 6 0.0000 0.0000 0.0000 0.0000 0.0000 29.4339
#
#
#
# Elastic Compliance Matrix: (Units=1/GPa)
#
#
# Indices 1 2 3 4 5 6 
#
# 1 0.010979 -0.007935 -0.002322 0.000000 0.000000 0.000000
# 2 -0.007935 0.022300 0.001129 0.000000 0.000000 0.000000
# 3 -0.002322 0.001129 0.009495 0.000000 0.000000 0.000000
# 4 0.000000 0.000000 0.000000 0.063538 0.000000 0.000000
# 5 0.000000 0.000000 0.000000 0.000000 0.021830 0.000000
# 6 0.000000 0.000000 0.000000 0.000000 0.000000 0.033974
#
#
# Mechanical properties :
#
#
# Convention : Reuss Voigt Hill
#
# Bulk Modulus (GPa) = 40.78600 49.92671 45.35635
# Shear Modulus (GPa) = 26.51893 33.27422 29.89658
#
# Velocity S-wave (km/s) = 3.40597 3.81519 3.61637
# Velocity P-wave (km/s) = 5.77141 6.42245 6.10561
#
# Compressibility (1/GPa) = 0.02451822
#
# Stress axis : x y z
#
# Youngs Moduli (GPa) = 91.08469 44.84340 105.32042
#
# Poissons Ratio (x) = 0.35581 0.24453
# Poissons Ratio (y) = 0.72271 -0.11887
# Poissons Ratio (z) = 0.21148 -0.05061
#
# Static dielectric constant tensor:
#      x y z
#    x 1.857620 0.000000 0.000000 
#    y 0.000000 1.983280 0.000000 
#    z 0.000000 0.000000 1.907990 
# 
# From -- ./inp_files/3400.got.cif
#   From: 2010.05.17/outbox.cif.g08.bks.cpg/sg56_2_cif.got.tgz:3400.got - 2010.06.03 13:42:01.
