data_PCOD9431447
_publ_section_title
;
Structure prediction by ZEFSAII (Michael W. Deem and Ramdas Pophale) SiO2 
 PCOD9431447
Probable space group: P C C N
;
_chemical_formula_sum "Si O2"
_cell_formula_units_Z 56
_cell_length_a 14.543889
_cell_length_b 5.284368
_cell_length_c 31.238563
_cell_angle_alpha 90.000000
_cell_angle_beta 90.000000
_cell_angle_gamma 90.000000
_cell_volume 2400.847932
_symmetry_space_group_name_H-M "P C C N"
_symmetry_group_IT_number 56
_symmetry_cell_setting 'orthorhombic'
loop_
_space_group_symop_operation_xyz
x,y,z
1/2-x,1/2-y,z
1/2+x,-y,1/2-z
-x,1/2+y,1/2-z
-x,-y,-z
1/2+x,1/2+y,-z
1/2-x,y,1/2+z
x,1/2-y,1/2+z
loop_
_atom_site_type_symbol
_atom_site_label
_atom_site_fract_x
_atom_site_fract_y
_atom_site_fract_z
Si Si1 0.342601 0.591542 0.472151
Si Si2 0.504417 0.579773 0.935500
Si Si3 0.146258 0.815311 0.559994
Si Si4 0.132366 0.207233 0.395156
Si Si5 0.962442 0.925935 0.363949
Si Si6 0.750000 0.250000 0.229685
Si Si7 0.053021 0.567868 0.233998
Si Si8 0.250000 0.250000 0.321927
O O1 0.250000 0.750000 0.481560
O O2 0.442700 0.704795 0.458015
O O3 0.359418 0.486759 0.520301
O O4 0.310088 0.452103 0.429072
O O5 0.588995 0.430079 0.956295
O O6 0.427016 0.372985 0.926936
O O7 0.539497 0.657315 0.887837
O O8 0.250000 0.750000 0.570499
O O9 0.099140 0.914033 0.602944
O O10 0.177495 0.358412 0.356537
O O11 0.066470 0.015781 0.370225
O O12 0.940104 0.968798 0.314866
O O13 0.656338 0.347943 0.252548
O O14 0.780047 0.505944 0.204546
O O15 0.010374 0.322835 0.259639
#
# Coordination Sequence:
#
# PCOD9431447 Si02
#       8
#     8   8   8   8   8   4   8   4
#     4  10  21  38  62  99 138 183 237 291 358 423
#     4  10  22  39  64  95 129 185 233 293 358 432
#     4  10  23  41  62  95 139 185 238 292 350 434
#     4  10  22  38  65  98 134 182 225 297 357 439
#     4  10  24  42  68  94 134 181 234 294 367 432
#     4  12  28  48  74 114 142 202 248 312 394 464
#     4  12  28  50  80 112 152 192 251 322 380 467
#     4  12  26  44  74 106 152 180 246 306 386 458
#
# _framework density 23.325092999999999
#
# number of rings (size 3 to 8) (size 9 to 14) (size 15 to 20)
#    0.000    1.429    0.000    3.857   12.000    6.857 
#    0.000    4.286    0.000    0.000    0.000    0.000 
#    0.000    0.000    0.000    0.000    0.000    0.000 
#
# Total GULP energy -311825.874994 kJ/mol
# GULP energy per Si atom -5568.319196 kJ/mol
# Density = 2.327200 g / cm^3
# Si number density = 23.325093 Si / 1000 Ang^3
#
#
#
# Elastic Constant Matrix: (Units=GPa)
#
#
# Indices 1 2 3 4 5 6 
#
# 1 103.7671 -0.6711 24.9043 0.0000 0.0000 0.0000
# 2 -0.6711 51.8907 13.7175 0.0000 0.0000 0.0000
# 3 24.9043 13.7175 153.7172 0.0000 0.0000 0.0000
# 4 0.0000 0.0000 0.0000 21.6129 0.0000 0.0000
# 5 0.0000 0.0000 0.0000 0.0000 26.8142 0.0000
# 6 0.0000 0.0000 0.0000 0.0000 0.0000 15.1729
#
#
#
# Elastic Compliance Matrix: (Units=1/GPa)
#
#
# Indices 1 2 3 4 5 6 
#
# 1 0.010043 0.000574 -0.001678 0.000000 0.000000 0.000000
# 2 0.000574 0.019770 -0.001857 0.000000 0.000000 0.000000
# 3 -0.001678 -0.001857 0.006943 0.000000 0.000000 0.000000
# 4 0.000000 0.000000 0.000000 0.046269 0.000000 0.000000
# 5 0.000000 0.000000 0.000000 0.000000 0.037294 0.000000
# 6 0.000000 0.000000 0.000000 0.000000 0.000000 0.065907
#
#
# Mechanical properties :
#
#
# Convention : Reuss Voigt Hill
#
# Bulk Modulus (GPa) = 32.43349 42.80850 37.62100
# Shear Modulus (GPa) = 24.70025 30.81493 27.75759
#
# Velocity S-wave (km/s) = 3.25769 3.63865 3.45343
# Velocity P-wave (km/s) = 5.29955 6.00382 5.66264
#
# Compressibility (1/GPa) = 0.03083233
#
# Stress axis : x y z
#
# Youngs Moduli (GPa) = 99.56698 50.58266 144.02786
#
# Poissons Ratio (x) = -0.02901 0.24173
# Poissons Ratio (y) = -0.05711 0.26748
# Poissons Ratio (z) = 0.16711 0.09394
#
# Static dielectric constant tensor:
#      x y z
#    x 1.993840 0.000000 0.000000 
#    y 0.000000 2.034200 0.000000 
#    z 0.000000 0.000000 1.908770 
# 
# From -- ./inp_files/23627.got.cif
#   From: 2010.05.17/outbox.cif.g08.bks.cpg/sg56_12_cif.got.tgz:23627.got - 2010.06.03 13:42:01.
