data_PCOD9431889
_publ_section_title
;
Structure prediction by ZEFSAII (Michael W. Deem and Ramdas Pophale) SiO2 
 PCOD9431889
Probable space group: P C C N
;
_chemical_formula_sum "Si O2"
_cell_formula_units_Z 48
_cell_length_a 9.147114
_cell_length_b 11.231302
_cell_length_c 22.255828
_cell_angle_alpha 90.000000
_cell_angle_beta 90.000000
_cell_angle_gamma 90.000000
_cell_volume 2286.430228
_symmetry_space_group_name_H-M "P C C N"
_symmetry_group_IT_number 56
_symmetry_cell_setting 'orthorhombic'
loop_
_space_group_symop_operation_xyz
x,y,z
1/2-x,1/2-y,z
1/2+x,-y,1/2-z
-x,1/2+y,1/2-z
-x,-y,-z
1/2+x,1/2+y,-z
1/2-x,y,1/2+z
x,1/2-y,1/2+z
loop_
_atom_site_type_symbol
_atom_site_label
_atom_site_fract_x
_atom_site_fract_y
_atom_site_fract_z
Si Si1 0.904689 0.187401 0.139867
Si Si2 0.594238 0.685853 0.266694
Si Si3 0.083248 0.720328 0.065678
Si Si4 0.991565 0.925279 0.143068
Si Si5 0.106580 0.179963 0.543681
Si Si6 0.328925 0.986900 0.142481
O O1 0.750000 0.250000 0.131177
O O2 0.972191 0.229782 0.203525
O O3 0.016400 0.236588 0.089810
O O4 0.899142 0.045266 0.135755
O O5 0.750000 0.750000 0.275245
O O6 0.566770 0.651339 0.198461
O O7 0.598113 0.563222 0.304971
O O8 0.250000 0.750000 0.047147
O O9 0.003560 0.842045 0.084676
O O10 0.097673 0.637370 0.124516
O O11 0.996032 0.656706 0.012901
O O12 0.158895 0.965022 0.156523
O O13 0.250000 0.250000 0.523624
O O14 0.156420 0.067032 0.582521
#
# Coordination Sequence:
#
# PCOD9431889 Si02
#       6
#     8   8   8   8   8   8
#     4  11  24  42  67  98 132 184 223 272 345 408
#     4  11  24  42  70  93 138 173 223 274 335 406
#     4  10  24  41  66  99 132 176 227 282 334 401
#     4  11  24  42  66 101 136 168 229 285 335 402
#     4  11  21  45  68  93 137 176 223 281 337 404
#     4  10  21  45  68  96 134 180 218 274 343 404
#
# _framework density 20.993425999999999
#
# number of rings (size 3 to 8) (size 9 to 14) (size 15 to 20)
#    0.000    1.333    3.333    2.000    4.667    2.000 
#   12.000    0.000    0.000    0.000    0.000    0.000 
#    0.000    0.000    0.000    0.000    0.000    0.000 
#
# Total GULP energy -268408.421536 kJ/mol
# GULP energy per Si atom -5591.842115 kJ/mol
# Density = 2.094564 g / cm^3
# Si number density = 20.993426 Si / 1000 Ang^3
#
#
#
# Elastic Constant Matrix: (Units=GPa)
#
#
# Indices 1 2 3 4 5 6 
#
# 1 83.3525 29.7320 24.8681 0.0000 0.0000 0.0000
# 2 29.7320 77.5913 -5.4822 0.0000 0.0000 0.0000
# 3 24.8681 -5.4822 31.2860 0.0000 0.0000 0.0000
# 4 0.0000 0.0000 0.0000 21.8602 0.0000 0.0000
# 5 0.0000 0.0000 0.0000 0.0000 22.8536 0.0000
# 6 0.0000 0.0000 0.0000 0.0000 0.0000 23.2818
#
#
#
# Elastic Compliance Matrix: (Units=1/GPa)
#
#
# Indices 1 2 3 4 5 6 
#
# 1 0.020652 -0.009187 -0.018026 0.000000 0.000000 0.000000
# 2 -0.009187 0.017137 0.010305 0.000000 0.000000 0.000000
# 3 -0.018026 0.010305 0.048097 0.000000 0.000000 0.000000
# 4 0.000000 0.000000 0.000000 0.045745 0.000000 0.000000
# 5 0.000000 0.000000 0.000000 0.000000 0.043757 0.000000
# 6 0.000000 0.000000 0.000000 0.000000 0.000000 0.042952
#
#
# Mechanical properties :
#
#
# Convention : Reuss Voigt Hill
#
# Bulk Modulus (GPa) = 19.20458 32.27396 25.73927
# Shear Modulus (GPa) = 18.55208 23.13993 20.84600
#
# Velocity S-wave (km/s) = 2.97595 3.32361 3.15457
# Velocity P-wave (km/s) = 4.57997 5.48956 5.05526
#
# Compressibility (1/GPa) = 0.05207092
#
# Stress axis : x y z
#
# Youngs Moduli (GPa) = 48.42077 58.35450 20.79136
#
# Poissons Ratio (x) = 0.53612 0.37478
# Poissons Ratio (y) = 0.44486 -0.21426
# Poissons Ratio (z) = 0.87282 -0.60137
#
# Static dielectric constant tensor:
#      x y z
#    x 1.720450 0.000000 0.000000 
#    y 0.000000 1.781330 0.000000 
#    z 0.000000 0.000000 1.724430 
# 
# From -- ./inp_files/20494.got.cif
#   From: 2010.05.17/outbox.cif.g08.bks.cpg/sg56_11_cif.got.tgz:20494.got - 2010.06.03 13:42:01.
