data_PCOD9431910
_publ_section_title
;
Structure prediction by ZEFSAII (Michael W. Deem and Ramdas Pophale) SiO2 
 PCOD9431910
Probable space group: P C C N
;
_chemical_formula_sum "Si O2"
_cell_formula_units_Z 60
_cell_length_a 17.599859
_cell_length_b 15.448729
_cell_length_c 10.328215
_cell_angle_alpha 90.000000
_cell_angle_beta 90.000000
_cell_angle_gamma 90.000000
_cell_volume 2808.194687
_symmetry_space_group_name_H-M "P C C N"
_symmetry_group_IT_number 56
_symmetry_cell_setting 'orthorhombic'
loop_
_space_group_symop_operation_xyz
x,y,z
1/2-x,1/2-y,z
1/2+x,-y,1/2-z
-x,1/2+y,1/2-z
-x,-y,-z
1/2+x,1/2+y,-z
1/2-x,y,1/2+z
x,1/2-y,1/2+z
loop_
_atom_site_type_symbol
_atom_site_label
_atom_site_fract_x
_atom_site_fract_y
_atom_site_fract_z
Si Si1 0.859929 0.600738 0.647597
Si Si2 0.799598 0.441383 0.956099
Si Si3 0.613372 0.696117 0.903428
Si Si4 0.310697 0.594471 0.829159
Si Si5 0.750000 0.750000 0.732491
Si Si6 0.886017 0.607723 0.944794
Si Si7 0.047253 0.722075 0.278682
Si Si8 0.456098 0.650205 0.509019
O O1 0.900359 0.628084 0.516608
O O2 0.836776 0.501911 0.634147
O O3 0.795117 0.674658 0.659039
O O4 0.898729 0.603512 0.788975
O O5 0.772538 0.417392 0.812088
O O6 0.815019 0.544837 0.974554
O O7 0.885990 0.410197 0.961361
O O8 0.751327 0.389020 0.060734
O O9 0.688893 0.694572 0.816531
O O10 0.625081 0.790539 0.969125
O O11 0.537767 0.692095 0.816887
O O12 0.382394 0.659031 0.818526
O O13 0.966245 0.595455 0.015072
O O14 0.054588 0.806890 0.368162
O O15 0.046106 0.723375 0.122225
#
# Coordination Sequence:
#
# PCOD9431910 Si02
#       8
#     8   8   8   8   4   8   8   8
#     4  10  22  37  58  90 132 159 210 256 311 388
#     4  10  22  43  63  93 125 168 210 272 318 385
#     4  10  22  36  61  90 130 163 203 255 310 379
#     4  10  24  42  61  92 127 164 214 263 320 377
#     4  10  22  34  60  98 122 176 204 258 322 382
#     4   9  21  37  62  91 124 162 209 255 319 382
#     4  10  24  42  64  92 123 166 213 264 317 384
#     4  10  22  41  68  89 126 164 219 263 324 386
#
# _framework density 21.366040000000002
#
# number of rings (size 3 to 8) (size 9 to 14) (size 15 to 20)
#    0.000    2.133    0.000    0.800   18.667    2.133 
#    0.000    2.667    0.000    0.000    0.000    0.000 
#    0.000    0.000    0.000    0.000    0.000    0.000 
#
# Total GULP energy -334231.745574 kJ/mol
# GULP energy per Si atom -5570.529093 kJ/mol
# Density = 2.131741 g / cm^3
# Si number density = 21.366040 Si / 1000 Ang^3
#
#
#
# Elastic Constant Matrix: (Units=GPa)
#
#
# Indices 1 2 3 4 5 6 
#
# 1 64.6941 -5.6834 13.6937 0.0000 0.0000 0.0000
# 2 -5.6834 13.4835 -2.7685 0.0000 0.0000 0.0000
# 3 13.6937 -2.7685 37.6603 0.0000 0.0000 0.0000
# 4 0.0000 0.0000 0.0000 18.7592 0.0000 0.0000
# 5 0.0000 0.0000 0.0000 0.0000 27.5174 0.0000
# 6 0.0000 0.0000 0.0000 0.0000 0.0000 15.8039
#
#
#
# Elastic Compliance Matrix: (Units=1/GPa)
#
#
# Indices 1 2 3 4 5 6 
#
# 1 0.017221 0.006065 -0.005816 0.000000 0.000000 0.000000
# 2 0.006065 0.077437 0.003487 0.000000 0.000000 0.000000
# 3 -0.005816 0.003487 0.028924 0.000000 0.000000 0.000000
# 4 0.000000 0.000000 0.000000 0.053307 0.000000 0.000000
# 5 0.000000 0.000000 0.000000 0.000000 0.036341 0.000000
# 6 0.000000 0.000000 0.000000 0.000000 0.000000 0.063275
#
#
# Mechanical properties :
#
#
# Convention : Reuss Voigt Hill
#
# Bulk Modulus (GPa) = 7.63041 14.03573 10.83307
# Shear Modulus (GPa) = 15.98883 19.78920 17.88902
#
# Velocity S-wave (km/s) = 2.73853 3.04665 2.89669
# Velocity P-wave (km/s) = 3.68489 4.35426 4.03348
#
# Compressibility (1/GPa) = 0.13105460
#
# Stress axis : x y z
#
# Youngs Moduli (GPa) = 58.06791 12.91372 34.57306
#
# Poissons Ratio (x) = -0.07832 0.20108
# Poissons Ratio (y) = -0.35217 -0.12057
# Poissons Ratio (z) = 0.33772 -0.04503
#
# Static dielectric constant tensor:
#      x y z
#    x 1.842230 0.000000 0.000000 
#    y 0.000000 1.811010 0.000000 
#    z 0.000000 0.000000 1.850090 
# 
# From -- ./inp_files/4146.got.cif
#   From: 2010.05.17/outbox.cif.g08.bks.cpg/sg56_3_cif.got.tgz:4146.got - 2010.06.03 13:42:01.
