data_PCOD9431403
_publ_section_title
;
Structure prediction by ZEFSAII (Michael W. Deem and Ramdas Pophale) SiO2 
 PCOD9431403
Probable space group: P C C N
;
_chemical_formula_sum "Si O2"
_cell_formula_units_Z 36
_cell_length_a 7.955590
_cell_length_b 9.295586
_cell_length_c 20.102470
_cell_angle_alpha 90.000000
_cell_angle_beta 90.000000
_cell_angle_gamma 90.000000
_cell_volume 1486.615269
_symmetry_space_group_name_H-M "P C C N"
_symmetry_group_IT_number 56
_symmetry_cell_setting 'orthorhombic'
loop_
_space_group_symop_operation_xyz
x,y,z
1/2-x,1/2-y,z
1/2+x,-y,1/2-z
-x,1/2+y,1/2-z
-x,-y,-z
1/2+x,1/2+y,-z
1/2-x,y,1/2+z
x,1/2-y,1/2+z
loop_
_atom_site_type_symbol
_atom_site_label
_atom_site_fract_x
_atom_site_fract_y
_atom_site_fract_z
Si Si1 0.151393 0.437456 0.815021
Si Si2 0.672633 0.056181 0.395035
Si Si3 0.750000 0.750000 0.434980
Si Si4 0.482498 0.307493 0.445813
Si Si5 0.011553 0.840023 0.234146
O O1 0.035330 0.326522 0.772406
O O2 0.338907 0.416779 0.788884
O O3 0.134096 0.379767 0.889713
O O4 0.076545 0.595255 0.803074
O O5 0.521053 0.138794 0.432014
O O6 0.840466 0.114437 0.431147
O O7 0.650389 0.113761 0.320209
O O8 0.676857 0.884839 0.395291
O O9 0.605357 0.686963 0.483492
#
# Coordination Sequence:
#
# PCOD9431403 Si02
#       5
#     8   8   4   8   8
#     4  10  21  38  61  85 116 151 187 233 287 348
#     4  10  22  38  59  86 116 151 193 239 287 343
#     4  12  22  38  60  84 112 152 200 242 280 338
#     4  10  21  39  59  83 117 154 189 235 295 342
#     4  10  21  38  59  87 117 149 188 234 289 345
#
# _framework density 24.216083999999999
#
# number of rings (size 3 to 8) (size 9 to 14) (size 15 to 20)
#    0.000    1.778    0.000    5.333    0.000    6.222 
#    0.000    0.000    0.000    0.000    0.000    0.000 
#    0.000    0.000    0.000    0.000    0.000    0.000 
#
# Total GULP energy -201336.499521 kJ/mol
# GULP energy per Si atom -5592.680542 kJ/mol
# Density = 2.416097 g / cm^3
# Si number density = 24.216084 Si / 1000 Ang^3
#
#
#
# Elastic Constant Matrix: (Units=GPa)
#
#
# Indices 1 2 3 4 5 6 
#
# 1 115.8710 21.5547 21.6166 0.0000 0.0000 0.0000
# 2 21.5547 130.7685 31.6104 0.0000 0.0000 0.0000
# 3 21.6166 31.6104 49.1403 0.0000 0.0000 0.0000
# 4 0.0000 0.0000 0.0000 20.7866 0.0000 0.0000
# 5 0.0000 0.0000 0.0000 0.0000 23.9488 0.0000
# 6 0.0000 0.0000 0.0000 0.0000 0.0000 34.3790
#
#
#
# Elastic Compliance Matrix: (Units=1/GPa)
#
#
# Indices 1 2 3 4 5 6 
#
# 1 0.009449 -0.000655 -0.003736 0.000000 0.000000 0.000000
# 2 -0.000655 0.009100 -0.005566 0.000000 0.000000 0.000000
# 3 -0.003736 -0.005566 0.025574 0.000000 0.000000 0.000000
# 4 0.000000 0.000000 0.000000 0.048108 0.000000 0.000000
# 5 0.000000 0.000000 0.000000 0.000000 0.041756 0.000000
# 6 0.000000 0.000000 0.000000 0.000000 0.000000 0.029088
#
#
# Mechanical properties :
#
#
# Convention : Reuss Voigt Hill
#
# Bulk Modulus (GPa) = 41.30395 49.48256 45.39325
# Shear Modulus (GPa) = 26.17023 30.55609 28.36316
#
# Velocity S-wave (km/s) = 3.29096 3.55605 3.42607
# Velocity P-wave (km/s) = 5.61551 6.11055 5.86825
#
# Compressibility (1/GPa) = 0.02421076
#
# Stress axis : x y z
#
# Youngs Moduli (GPa) = 105.83208 109.88439 39.10274
#
# Poissons Ratio (x) = 0.07192 0.14607
# Poissons Ratio (y) = 0.06927 0.21765
# Poissons Ratio (z) = 0.39534 0.61163
#
# Static dielectric constant tensor:
#      x y z
#    x 1.956550 0.000000 0.000000 
#    y 0.000000 1.967690 0.000000 
#    z 0.000000 0.000000 1.927120 
# 
# From -- ./inp_files/17863.got.cif
#   From: 2010.05.17/outbox.cif.g08.bks.cpg/sg56_9_cif.got.tgz:17863.got - 2010.06.03 13:42:01.
