data_PCOD9431846
_publ_section_title
;
Structure prediction by ZEFSAII (Michael W. Deem and Ramdas Pophale) SiO2 
 PCOD9431846
Probable space group: P C C N
;
_chemical_formula_sum "Si O2"
_cell_formula_units_Z 32
_cell_length_a 8.277190
_cell_length_b 9.620896
_cell_length_c 15.183407
_cell_angle_alpha 90.000000
_cell_angle_beta 90.000000
_cell_angle_gamma 90.000000
_cell_volume 1209.115193
_symmetry_space_group_name_H-M "P C C N"
_symmetry_group_IT_number 56
_symmetry_cell_setting 'orthorhombic'
loop_
_space_group_symop_operation_xyz
x,y,z
1/2-x,1/2-y,z
1/2+x,-y,1/2-z
-x,1/2+y,1/2-z
-x,-y,-z
1/2+x,1/2+y,-z
1/2-x,y,1/2+z
x,1/2-y,1/2+z
loop_
_atom_site_type_symbol
_atom_site_label
_atom_site_fract_x
_atom_site_fract_y
_atom_site_fract_z
Si Si1 0.963777 0.094138 0.724066
Si Si2 0.371476 0.948310 0.378770
Si Si3 0.091140 0.199963 0.007450
Si Si4 0.081589 0.830742 0.652541
O O1 0.750000 0.250000 0.863249
O O2 0.789294 0.073358 0.678549
O O3 0.984909 0.251888 0.758886
O O4 0.990527 0.017883 0.818292
O O5 0.442670 0.814323 0.426801
O O6 0.417749 0.996710 0.165925
O O7 0.355826 0.057094 0.459334
O O8 0.250000 0.250000 0.055932
O O9 0.036070 0.298047 0.927902
#
# Coordination Sequence:
#
# PCOD9431846 Si02
#       4
#     8   8   8   8
#     4  11  22  44  72 102 148 188 252 305 366 436
#     4  10  22  42  70 106 142 198 246 300 369 447
#     4  10  21  43  69 101 153 192 242 300 376 439
#     4  11  23  44  69 107 148 195 245 309 369 440
#
# _framework density 26.465633
#
# number of rings (size 3 to 8) (size 9 to 14) (size 15 to 20)
#    0.000    1.500    5.000    0.000    0.000    0.000 
#   13.500    1.250    0.000    0.000    0.000    0.000 
#    0.000    0.000    0.000    0.000    0.000    0.000 
#
# Total GULP energy -178786.990115 kJ/mol
# GULP energy per Si atom -5587.093441 kJ/mol
# Density = 2.640540 g / cm^3
# Si number density = 26.465633 Si / 1000 Ang^3
#
#
#
# Elastic Constant Matrix: (Units=GPa)
#
#
# Indices 1 2 3 4 5 6 
#
# 1 141.6954 41.3261 38.4412 0.0000 0.0000 0.0000
# 2 41.3261 86.7565 15.9241 0.0000 0.0000 0.0000
# 3 38.4412 15.9241 95.4918 0.0000 0.0000 0.0000
# 4 0.0000 0.0000 0.0000 32.3964 0.0000 0.0000
# 5 0.0000 0.0000 0.0000 0.0000 52.6655 0.0000
# 6 0.0000 0.0000 0.0000 0.0000 0.0000 35.5958
#
#
#
# Elastic Compliance Matrix: (Units=1/GPa)
#
#
# Indices 1 2 3 4 5 6 
#
# 1 0.008951 -0.003716 -0.002983 0.000000 0.000000 0.000000
# 2 -0.003716 0.013433 -0.000744 0.000000 0.000000 0.000000
# 3 -0.002983 -0.000744 0.011797 0.000000 0.000000 0.000000
# 4 0.000000 0.000000 0.000000 0.030868 0.000000 0.000000
# 5 0.000000 0.000000 0.000000 0.000000 0.018988 0.000000
# 6 0.000000 0.000000 0.000000 0.000000 0.000000 0.028093
#
#
# Mechanical properties :
#
#
# Convention : Reuss Voigt Hill
#
# Bulk Modulus (GPa) = 51.83032 57.25849 54.54441
# Shear Modulus (GPa) = 37.46776 39.34837 38.40807
#
# Velocity S-wave (km/s) = 3.76668 3.86005 3.81365
# Velocity P-wave (km/s) = 6.20836 6.44583 6.32821
#
# Compressibility (1/GPa) = 0.01929373
#
# Stress axis : x y z
#
# Youngs Moduli (GPa) = 111.72471 74.44245 84.76562
#
# Poissons Ratio (x) = 0.27662 0.25290
# Poissons Ratio (y) = 0.41516 0.06308
# Poissons Ratio (z) = 0.33333 0.05540
#
# Static dielectric constant tensor:
#      x y z
#    x 2.044130 0.000000 0.000000 
#    y 0.000000 2.132260 0.000000 
#    z 0.000000 0.000000 2.059180 
# 
# From -- ./inp_files/14363.got.cif
#   From: 2010.05.17/outbox.cif.g08.bks.cpg/sg56_8_cif.got.tgz:14363.got - 2010.06.03 13:42:01.
