data_PCOD9431725
_publ_section_title
;
Structure prediction by ZEFSAII (Michael W. Deem and Ramdas Pophale) SiO2 
 PCOD9431725
Probable space group: P C C N
;
_chemical_formula_sum "Si O2"
_cell_formula_units_Z 60
_cell_length_a 11.976589
_cell_length_b 20.067226
_cell_length_c 12.584199
_cell_angle_alpha 90.000000
_cell_angle_beta 90.000000
_cell_angle_gamma 90.000000
_cell_volume 3024.447605
_symmetry_space_group_name_H-M "P C C N"
_symmetry_group_IT_number 56
_symmetry_cell_setting 'orthorhombic'
loop_
_space_group_symop_operation_xyz
x,y,z
1/2-x,1/2-y,z
1/2+x,-y,1/2-z
-x,1/2+y,1/2-z
-x,-y,-z
1/2+x,1/2+y,-z
1/2-x,y,1/2+z
x,1/2-y,1/2+z
loop_
_atom_site_type_symbol
_atom_site_label
_atom_site_fract_x
_atom_site_fract_y
_atom_site_fract_z
Si Si1 0.436365 0.182776 0.842932
Si Si2 0.911381 0.107930 0.020622
Si Si3 0.282047 0.517804 0.138000
Si Si4 0.750000 0.750000 0.014451
Si Si5 0.651628 0.629007 0.878176
Si Si6 0.558677 0.068570 0.968391
Si Si7 0.803059 0.389787 0.168057
Si Si8 0.364130 0.716959 0.155191
O O1 0.351994 0.226046 0.912837
O O2 0.377068 0.158596 0.736522
O O3 0.477461 0.118660 0.908279
O O4 0.544418 0.227809 0.818153
O O5 0.871750 0.045749 0.947676
O O6 0.905877 0.169645 0.939147
O O7 0.818527 0.115112 0.113312
O O8 0.034383 0.106861 0.068681
O O9 0.277069 0.438452 0.132556
O O10 0.165063 0.551088 0.104850
O O11 0.309815 0.545873 0.254689
O O12 0.710987 0.686837 0.945046
O O13 0.608853 0.103027 0.073283
O O14 0.500000 0.000000 0.000000
O O15 0.832334 0.327744 0.243121
O O16 0.250000 0.750000 0.116548
#
# Coordination Sequence:
#
# PCOD9431725 Si02
#       8
#     8   8   8   4   8   8   8   8
#     4  12  26  44  67  99 134 175 232 273 332 423
#     4  10  21  41  65  96 131 174 215 279 333 399
#     4  10  22  41  64 102 127 171 232 272 339 403
#     4  12  28  48  62  96 134 186 224 266 344 408
#     4  12  24  44  68  89 137 180 220 276 330 395
#     4  11  23  43  66  94 131 175 226 284 336 392
#     4  10  22  38  66  99 132 164 220 278 348 392
#     4  11  22  39  65 101 134 170 220 272 340 411
#
# _framework density 19.838332999999999
#
# number of rings (size 3 to 8) (size 9 to 14) (size 15 to 20)
#    0.000    1.067    1.333    6.400    1.867    3.733 
#    2.400    2.667    0.000    0.000    0.000    0.000 
#    0.000    0.000    0.000    0.000    0.000    0.000 
#
# Total GULP energy -335665.326040 kJ/mol
# GULP energy per Si atom -5594.422101 kJ/mol
# Density = 1.979318 g / cm^3
# Si number density = 19.838333 Si / 1000 Ang^3
#
#
#
# Elastic Constant Matrix: (Units=GPa)
#
#
# Indices 1 2 3 4 5 6 
#
# 1 50.1017 7.7291 8.3542 0.0000 0.0000 0.0000
# 2 7.7291 103.5371 15.4913 0.0000 0.0000 0.0000
# 3 8.3542 15.4913 83.7585 0.0000 0.0000 0.0000
# 4 0.0000 0.0000 0.0000 15.9267 0.0000 0.0000
# 5 0.0000 0.0000 0.0000 0.0000 21.1878 0.0000
# 6 0.0000 0.0000 0.0000 0.0000 0.0000 36.7503
#
#
#
# Elastic Compliance Matrix: (Units=1/GPa)
#
#
# Indices 1 2 3 4 5 6 
#
# 1 0.020455 -0.001256 -0.001808 0.000000 0.000000 0.000000
# 2 -0.001256 0.010010 -0.001726 0.000000 0.000000 0.000000
# 3 -0.001808 -0.001726 0.012439 0.000000 0.000000 0.000000
# 4 0.000000 0.000000 0.000000 0.062787 0.000000 0.000000
# 5 0.000000 0.000000 0.000000 0.000000 0.047197 0.000000
# 6 0.000000 0.000000 0.000000 0.000000 0.000000 0.027211
#
#
# Mechanical properties :
#
#
# Convention : Reuss Voigt Hill
#
# Bulk Modulus (GPa) = 30.00931 33.39404 31.70167
# Shear Modulus (GPa) = 24.90198 28.49448 26.69823
#
# Velocity S-wave (km/s) = 3.54679 3.79401 3.67248
# Velocity P-wave (km/s) = 5.65090 6.00519 5.83074
#
# Compressibility (1/GPa) = 0.03332299
#
# Stress axis : x y z
#
# Youngs Moduli (GPa) = 48.88858 99.89573 80.39454
#
# Poissons Ratio (x) = 0.12552 0.14534
# Poissons Ratio (y) = 0.06143 0.13877
# Poissons Ratio (z) = 0.08838 0.17243
#
# Static dielectric constant tensor:
#      x y z
#    x 1.685720 0.000000 0.000000 
#    y 0.000000 1.672940 0.000000 
#    z 0.000000 0.000000 1.687180 
# 
# From -- ./inp_files/7320.got.cif
#   From: 2010.05.17/outbox.cif.g08.bks.cpg/sg56_4_cif.got.tgz:7320.got - 2010.06.03 13:42:01.
