data_PCOD9431338
_publ_section_title
;
Structure prediction by ZEFSAII (Michael W. Deem and Ramdas Pophale) SiO2 
 PCOD9431338
Probable space group: P C C N
;
_chemical_formula_sum "Si O2"
_cell_formula_units_Z 60
_cell_length_a 29.916241
_cell_length_b 5.050256
_cell_length_c 17.735911
_cell_angle_alpha 90.000000
_cell_angle_beta 90.000000
_cell_angle_gamma 90.000000
_cell_volume 2679.624360
_symmetry_space_group_name_H-M "P C C N"
_symmetry_group_IT_number 56
_symmetry_cell_setting 'orthorhombic'
loop_
_space_group_symop_operation_xyz
x,y,z
1/2-x,1/2-y,z
1/2+x,-y,1/2-z
-x,1/2+y,1/2-z
-x,-y,-z
1/2+x,1/2+y,-z
1/2-x,y,1/2+z
x,1/2-y,1/2+z
loop_
_atom_site_type_symbol
_atom_site_label
_atom_site_fract_x
_atom_site_fract_y
_atom_site_fract_z
Si Si1 0.410846 0.849236 0.064283
Si Si2 0.601857 0.683470 0.035051
Si Si3 0.003926 0.189203 0.928873
Si Si4 0.750000 0.250000 0.164397
Si Si5 0.705549 0.666303 0.780432
Si Si6 0.383145 0.900857 0.715746
Si Si7 0.478109 0.359878 0.217505
Si Si8 0.160759 0.945145 0.837585
O O1 0.464352 0.902099 0.064689
O O2 0.397883 0.802901 0.150845
O O3 0.403762 0.582148 0.015326
O O4 0.385722 0.084673 0.022573
O O5 0.555097 0.773960 0.073344
O O6 0.634490 0.621392 0.103551
O O7 0.992098 0.997878 0.859858
O O8 0.000000 0.000000 0.000000
O O9 0.771942 0.472016 0.218514
O O10 0.705918 0.343714 0.121431
O O11 0.750000 0.750000 0.826265
O O12 0.663292 0.520916 0.815873
O O13 0.681208 0.897247 0.733582
O O14 0.424648 0.103144 0.725327
O O15 0.370907 0.770685 0.796666
O O16 0.496964 0.063867 0.224986
#
# Coordination Sequence:
#
# PCOD9431338 Si02
#       8
#     8   8   8   4   8   8   8   8
#     4  10  24  40  58  89 129 176 209 259 315 377
#     4  11  23  38  62  91 125 168 219 257 309 378
#     4   9  21  41  59  83 126 178 217 252 305 384
#     4   8  18  38  58  98 118 152 194 266 324 390
#     4   9  19  37  65  95 120 156 211 267 324 387
#     4  10  23  38  64  91 131 168 217 267 331 381
#     4  11  25  39  59  94 134 167 214 274 327 371
#     4  10  21  36  67  95 120 159 215 268 321 388
#
# _framework density 22.391200000000001
#
# number of rings (size 3 to 8) (size 9 to 14) (size 15 to 20)
#    0.000    2.133    0.000    1.200    9.333    7.467 
#    0.000    0.000    0.000    7.200    0.000    0.000 
#    0.000    0.000    0.000    0.000    0.000    0.000 
#
# Total GULP energy -334955.221542 kJ/mol
# GULP energy per Si atom -5582.587026 kJ/mol
# Density = 2.234024 g / cm^3
# Si number density = 22.391200 Si / 1000 Ang^3
#
#
#
# Elastic Constant Matrix: (Units=GPa)
#
#
# Indices 1 2 3 4 5 6 
#
# 1 169.6598 25.6815 35.0083 0.0000 0.0000 0.0000
# 2 25.6815 76.6544 5.4428 0.0000 0.0000 0.0000
# 3 35.0083 5.4428 65.0736 0.0000 0.0000 0.0000
# 4 0.0000 0.0000 0.0000 14.3070 0.0000 0.0000
# 5 0.0000 0.0000 0.0000 0.0000 5.4739 0.0000
# 6 0.0000 0.0000 0.0000 0.0000 0.0000 27.8445
#
#
#
# Elastic Compliance Matrix: (Units=1/GPa)
#
#
# Indices 1 2 3 4 5 6 
#
# 1 0.006943 -0.002073 -0.003562 0.000000 0.000000 0.000000
# 2 -0.002073 0.013743 -0.000034 0.000000 0.000000 0.000000
# 3 -0.003562 -0.000034 0.017286 0.000000 0.000000 0.000000
# 4 0.000000 0.000000 0.000000 0.069896 0.000000 0.000000
# 5 0.000000 0.000000 0.000000 0.000000 0.182685 0.000000
# 6 0.000000 0.000000 0.000000 0.000000 0.000000 0.035914
#
#
# Mechanical properties :
#
#
# Convention : Reuss Voigt Hill
#
# Bulk Modulus (GPa) = 37.54649 49.29475 43.42062
# Shear Modulus (GPa) = 14.42242 25.87543 20.14893
#
# Velocity S-wave (km/s) = 2.54069 3.40311 3.00302
# Velocity P-wave (km/s) = 5.04099 6.12410 5.60875
#
# Compressibility (1/GPa) = 0.02663364
#
# Stress axis : x y z
#
# Youngs Moduli (GPa) = 144.03179 72.76658 57.84956
#
# Poissons Ratio (x) = 0.15086 0.20605
# Poissons Ratio (y) = 0.29860 0.00197
# Poissons Ratio (z) = 0.51300 0.00248
#
# Static dielectric constant tensor:
#      x y z
#    x 1.902330 0.000000 0.000000 
#    y 0.000000 1.943320 0.000000 
#    z 0.000000 0.000000 1.846600 
# 
# From -- ./inp_files/17110.got.cif
#   From: 2010.05.17/outbox.cif.g08.bks.cpg/sg56_9_cif.got.tgz:17110.got - 2010.06.03 13:42:01.
