data_PCOD9431050
_publ_section_title
;
Structure prediction by ZEFSAII (Michael W. Deem and Ramdas Pophale) SiO2 
 PCOD9431050
Probable space group: P C C N
;
_chemical_formula_sum "Si O2"
_cell_formula_units_Z 56
_cell_length_a 13.244497
_cell_length_b 17.319824
_cell_length_c 10.584663
_cell_angle_alpha 90.000000
_cell_angle_beta 90.000000
_cell_angle_gamma 90.000000
_cell_volume 2428.040794
_symmetry_space_group_name_H-M "P C C N"
_symmetry_group_IT_number 56
_symmetry_cell_setting 'orthorhombic'
loop_
_space_group_symop_operation_xyz
x,y,z
1/2-x,1/2-y,z
1/2+x,-y,1/2-z
-x,1/2+y,1/2-z
-x,-y,-z
1/2+x,1/2+y,-z
1/2-x,y,1/2+z
x,1/2-y,1/2+z
loop_
_atom_site_type_symbol
_atom_site_label
_atom_site_fract_x
_atom_site_fract_y
_atom_site_fract_z
Si Si1 0.861303 0.269924 0.440204
Si Si2 0.898664 0.452743 0.791169
Si Si3 0.178142 0.559309 0.617469
Si Si4 0.665288 0.932539 0.581051
Si Si5 0.373808 0.054505 0.819272
Si Si6 0.440484 0.710324 0.806318
Si Si7 0.155328 0.308199 0.611576
O O1 0.750000 0.250000 0.394455
O O2 0.870768 0.360586 0.417494
O O3 0.871465 0.250126 0.587360
O O4 0.933782 0.230497 0.340240
O O5 0.800674 0.436879 0.877664
O O6 0.876209 0.532057 0.712611
O O7 0.910304 0.380513 0.694060
O O8 0.008940 0.448884 0.855180
O O9 0.135628 0.495918 0.522001
O O10 0.148988 0.527671 0.754594
O O11 0.787764 0.933068 0.578515
O O12 0.639718 0.849098 0.525009
O O13 0.345252 0.121989 0.716196
O O14 0.550967 0.731880 0.854594
O O15 0.250000 0.250000 0.616414
#
# Coordination Sequence:
#
# PCOD9431050 Si02
#       7
#     8   8   8   8   8   8   8
#     4  12  24  41  65  97 138 178 223 282 344 409
#     4  10  20  40  63  95 130 171 230 280 334 421
#     4  10  21  39  62  91 129 171 215 281 335 408
#     4  10  21  40  68  93 127 179 223 281 349 403
#     4   9  22  38  65  94 125 169 223 276 346 404
#     4  11  25  41  67  98 135 188 230 279 351 406
#     4  10  24  44  64  95 134 177 231 285 342 421
#
# _framework density 23.063863999999999
#
# number of rings (size 3 to 8) (size 9 to 14) (size 15 to 20)
#    0.000    1.714    2.857    0.429    2.000    6.286 
#    5.143    0.000    0.000    0.000    0.000    0.000 
#    0.000    0.000    0.000    0.000    0.000    0.000 
#
# Total GULP energy -312212.103547 kJ/mol
# GULP energy per Si atom -5575.216135 kJ/mol
# Density = 2.301137 g / cm^3
# Si number density = 23.063864 Si / 1000 Ang^3
#
#
#
# Elastic Constant Matrix: (Units=GPa)
#
#
# Indices 1 2 3 4 5 6 
#
# 1 83.9005 9.4188 -2.8458 0.0000 0.0000 0.0000
# 2 9.4188 60.3496 3.1070 0.0000 0.0000 0.0000
# 3 -2.8458 3.1070 42.3512 0.0000 0.0000 0.0000
# 4 0.0000 0.0000 0.0000 16.5399 0.0000 0.0000
# 5 0.0000 0.0000 0.0000 0.0000 18.0458 0.0000
# 6 0.0000 0.0000 0.0000 0.0000 0.0000 20.8479
#
#
#
# Elastic Compliance Matrix: (Units=1/GPa)
#
#
# Indices 1 2 3 4 5 6 
#
# 1 0.012170 -0.001949 0.000961 0.000000 0.000000 0.000000
# 2 -0.001949 0.016945 -0.001374 0.000000 0.000000 0.000000
# 3 0.000961 -0.001374 0.023777 0.000000 0.000000 0.000000
# 4 0.000000 0.000000 0.000000 0.060460 0.000000 0.000000
# 5 0.000000 0.000000 0.000000 0.000000 0.055414 0.000000
# 6 0.000000 0.000000 0.000000 0.000000 0.000000 0.047966
#
#
# Mechanical properties :
#
#
# Convention : Reuss Voigt Hill
#
# Bulk Modulus (GPa) = 20.76056 22.88460 21.82258
# Shear Modulus (GPa) = 21.05139 22.88148 21.96643
#
# Velocity S-wave (km/s) = 3.02444 3.15317 3.08947
# Velocity P-wave (km/s) = 4.60621 4.81668 4.71262
#
# Compressibility (1/GPa) = 0.04816826
#
# Stress axis : x y z
#
# Youngs Moduli (GPa) = 82.16758 59.01436 42.05664
#
# Poissons Ratio (x) = 0.11501 -0.04041
# Poissons Ratio (y) = 0.16013 0.05779
# Poissons Ratio (z) = -0.07894 0.08109
#
# Static dielectric constant tensor:
#      x y z
#    x 1.916890 0.000000 0.000000 
#    y 0.000000 1.896950 0.000000 
#    z 0.000000 0.000000 1.877270 
# 
# From -- ./inp_files/7272.got.cif
#   From: 2010.05.17/outbox.cif.g08.bks.cpg/sg56_4_cif.got.tgz:7272.got - 2010.06.03 13:42:01.
