data_PCOD9431312
_publ_section_title
;
Structure prediction by ZEFSAII (Michael W. Deem and Ramdas Pophale) SiO2 
 PCOD9431312
Probable space group: P C C N
;
_chemical_formula_sum "Si O2"
_cell_formula_units_Z 40
_cell_length_a 8.948634
_cell_length_b 7.693215
_cell_length_c 27.537839
_cell_angle_alpha 90.000000
_cell_angle_beta 90.000000
_cell_angle_gamma 90.000000
_cell_volume 1895.808525
_symmetry_space_group_name_H-M "P C C N"
_symmetry_group_IT_number 56
_symmetry_cell_setting 'orthorhombic'
loop_
_space_group_symop_operation_xyz
x,y,z
1/2-x,1/2-y,z
1/2+x,-y,1/2-z
-x,1/2+y,1/2-z
-x,-y,-z
1/2+x,1/2+y,-z
1/2-x,y,1/2+z
x,1/2-y,1/2+z
loop_
_atom_site_type_symbol
_atom_site_label
_atom_site_fract_x
_atom_site_fract_y
_atom_site_fract_z
Si Si1 0.570429 0.701131 0.998720
Si Si2 0.422155 0.703726 0.201510
Si Si3 0.423461 0.792430 0.399660
Si Si4 0.577002 0.705986 0.802482
Si Si5 0.425287 0.211563 0.395212
O O1 0.750000 0.750000 0.996751
O O2 0.501995 0.772541 0.948823
O O3 0.500000 0.500000 0.000000
O O4 0.523498 0.775712 0.051511
O O5 0.250000 0.750000 0.207549
O O6 0.436270 0.499567 0.195061
O O7 0.509559 0.744784 0.250641
O O8 0.488044 0.782189 0.151676
O O9 0.250000 0.750000 0.401874
O O10 0.492667 0.720198 0.349680
O O11 0.440191 0.002008 0.397841
O O12 0.750000 0.750000 0.804803
O O13 0.250000 0.250000 0.389162
#
# Coordination Sequence:
#
# PCOD9431312 Si02
#       5
#     8   8   8   8   8
#     4   9  18  37  59  82 116 155 193 239 293 350
#     4  11  23  38  58  84 111 147 191 236 288 344
#     4  10  21  36  58  86 115 149 192 237 287 344
#     4  11  23  39  58  82 115 151 189 237 288 346
#     4   9  20  38  57  80 114 150 186 233 286 342
#
# _framework density 21.099177999999998
#
# number of rings (size 3 to 8) (size 9 to 14) (size 15 to 20)
#    0.000    2.000    0.000    3.000    0.000    7.200 
#    0.000    9.000    0.000    0.000    0.000    0.000 
#    0.000    0.000    0.000    0.000    0.000    0.000 
#
# Total GULP energy -222984.772983 kJ/mol
# GULP energy per Si atom -5574.619325 kJ/mol
# Density = 2.105116 g / cm^3
# Si number density = 21.099178 Si / 1000 Ang^3
#
#
#
# Elastic Constant Matrix: (Units=GPa)
#
#
# Indices 1 2 3 4 5 6 
#
# 1 135.5372 4.2227 111.3386 0.0000 0.0000 0.0000
# 2 4.2227 53.4079 19.7110 0.0000 0.0000 0.0000
# 3 111.3386 19.7110 250.3455 0.0000 0.0000 0.0000
# 4 0.0000 0.0000 0.0000 15.3761 0.0000 0.0000
# 5 0.0000 0.0000 0.0000 0.0000 78.8641 0.0000
# 6 0.0000 0.0000 0.0000 0.0000 0.0000 31.8768
#
#
#
# Elastic Compliance Matrix: (Units=1/GPa)
#
#
# Indices 1 2 3 4 5 6 
#
# 1 0.011679 0.001023 -0.005275 0.000000 0.000000 0.000000
# 2 0.001023 0.019374 -0.001981 0.000000 0.000000 0.000000
# 3 -0.005275 -0.001981 0.006496 0.000000 0.000000 0.000000
# 4 0.000000 0.000000 0.000000 0.065036 0.000000 0.000000
# 5 0.000000 0.000000 0.000000 0.000000 0.012680 0.000000
# 6 0.000000 0.000000 0.000000 0.000000 0.000000 0.031371
#
#
# Mechanical properties :
#
#
# Convention : Reuss Voigt Hill
#
# Bulk Modulus (GPa) = 39.86381 78.87058 59.36720
# Shear Modulus (GPa) = 29.85750 45.49128 37.67439
#
# Velocity S-wave (km/s) = 3.76587 4.64839 4.23020
# Velocity P-wave (km/s) = 6.15171 8.14076 7.21511
#
# Compressibility (1/GPa) = 0.02508541
#
# Stress axis : x y z
#
# Youngs Moduli (GPa) = 85.62243 51.61598 153.93346
#
# Poissons Ratio (x) = -0.05282 0.81196
# Poissons Ratio (y) = -0.08762 0.30487
# Poissons Ratio (z) = 0.45164 0.10223
#
# Static dielectric constant tensor:
#      x y z
#    x 1.563820 0.000000 0.000000 
#    y 0.000000 1.823210 0.000000 
#    z 0.000000 0.000000 1.836080 
# 
# From -- ./inp_files/20299.got.cif
#   From: 2010.05.17/outbox.cif.g08.bks.cpg/sg56_11_cif.got.tgz:20299.got - 2010.06.03 13:42:01.
