data_PCOD9431491
_publ_section_title
;
Structure prediction by ZEFSAII (Michael W. Deem and Ramdas Pophale) SiO2 
 PCOD9431491
Probable space group: P C C N
;
_chemical_formula_sum "Si O2"
_cell_formula_units_Z 32
_cell_length_a 8.776681
_cell_length_b 14.593803
_cell_length_c 13.073744
_cell_angle_alpha 90.000000
_cell_angle_beta 90.000000
_cell_angle_gamma 90.000000
_cell_volume 1674.552507
_symmetry_space_group_name_H-M "P C C N"
_symmetry_group_IT_number 56
_symmetry_cell_setting 'orthorhombic'
loop_
_space_group_symop_operation_xyz
x,y,z
1/2-x,1/2-y,z
1/2+x,-y,1/2-z
-x,1/2+y,1/2-z
-x,-y,-z
1/2+x,1/2+y,-z
1/2-x,y,1/2+z
x,1/2-y,1/2+z
loop_
_atom_site_type_symbol
_atom_site_label
_atom_site_fract_x
_atom_site_fract_y
_atom_site_fract_z
Si Si1 0.898617 0.191790 0.027444
Si Si2 0.424394 0.222608 0.854440
Si Si3 0.109761 0.891609 0.185641
Si Si4 0.439759 0.923970 0.276796
O O1 0.750000 0.250000 0.056311
O O2 0.853961 0.121949 0.935080
O O3 0.018477 0.258420 0.970029
O O4 0.964418 0.134747 0.120543
O O5 0.250000 0.250000 0.843814
O O6 0.531053 0.293857 0.790150
O O7 0.461059 0.122703 0.812738
O O8 0.263907 0.912522 0.245211
O O9 0.991020 0.972640 0.204146
#
# Coordination Sequence:
#
# PCOD9431491 Si02
#       4
#     8   8   8   8
#     4  10  21  40  63  87 124 161 207 253 311 361
#     4  10  21  39  59  91 124 161 208 256 301 376
#     4  10  22  39  61  95 119 163 211 249 311 375
#     4  12  21  41  66  88 129 165 200 264 309 364
#
# _framework density 19.109582
#
# number of rings (size 3 to 8) (size 9 to 14) (size 15 to 20)
#    1.500    0.000    2.500    4.500    0.000    1.000 
#    0.000    3.750    0.000    0.000    0.000    0.000 
#    0.000    0.000    0.000    0.000    0.000    0.000 
#
# Total GULP energy -178345.906984 kJ/mol
# GULP energy per Si atom -5573.309593 kJ/mol
# Density = 1.906609 g / cm^3
# Si number density = 19.109582 Si / 1000 Ang^3
#
#
#
# Elastic Constant Matrix: (Units=GPa)
#
#
# Indices 1 2 3 4 5 6 
#
# 1 66.5592 -16.8605 -18.8052 0.0000 0.0000 0.0000
# 2 -16.8605 28.0170 -2.6943 0.0000 0.0000 0.0000
# 3 -18.8052 -2.6943 52.7976 0.0000 0.0000 0.0000
# 4 0.0000 0.0000 0.0000 3.7323 0.0000 0.0000
# 5 0.0000 0.0000 0.0000 0.0000 -4.2155 0.0000
# 6 0.0000 0.0000 0.0000 0.0000 0.0000 36.3399
#
#
#
# Elastic Compliance Matrix: (Units=1/GPa)
#
#
# Indices 1 2 3 4 5 6 
#
# 1 0.020631 0.013187 0.008021 0.000000 0.000000 0.000000
# 2 0.013187 0.044297 0.006957 0.000000 0.000000 0.000000
# 3 0.008021 0.006957 0.022152 0.000000 0.000000 0.000000
# 4 0.000000 0.000000 0.000000 0.267929 0.000000 0.000000
# 5 0.000000 0.000000 0.000000 0.000000 -0.237217 0.000000
# 6 0.000000 0.000000 0.000000 0.000000 0.000000 0.027518
#
#
# Mechanical properties :
#
#
# Convention : Reuss Voigt Hill
#
# Bulk Modulus (GPa) = 6.97294 7.85043 7.41169
# Shear Modulus (GPa) = 36.55418 19.55359 28.05388
#
# Velocity S-wave (km/s) = 4.37838 3.20227 3.83567
# Velocity P-wave (km/s) = 5.40529 4.21779 4.84804
#
# Compressibility (1/GPa) = 0.14341159
#
# Stress axis : x y z
#
# Youngs Moduli (GPa) = 48.47095 22.57465 45.14219
#
# Poissons Ratio (x) = -0.29769 -0.36209
# Poissons Ratio (y) = -0.63918 -0.31407
# Poissons Ratio (z) = -0.38879 -0.15706
#
# Static dielectric constant tensor:
#      x y z
#    x 1.643930 0.000000 0.000000 
#    y 0.000000 1.637300 0.000000 
#    z 0.000000 0.000000 1.683050 
# 
# From -- ./inp_files/5984.got.cif
#   From: 2010.05.17/outbox.cif.g08.bks.cpg/sg56_3_cif.got.tgz:5984.got - 2010.06.03 13:42:01.
