data_PCOD9431123
_publ_section_title
;
Structure prediction by ZEFSAII (Michael W. Deem and Ramdas Pophale) SiO2 
 PCOD9431123
Probable space group: P C C N
;
_chemical_formula_sum "Si O2"
_cell_formula_units_Z 52
_cell_length_a 16.130174
_cell_length_b 7.999094
_cell_length_c 19.410696
_cell_angle_alpha 90.000000
_cell_angle_beta 90.000000
_cell_angle_gamma 90.000000
_cell_volume 2504.499565
_symmetry_space_group_name_H-M "P C C N"
_symmetry_group_IT_number 56
_symmetry_cell_setting 'orthorhombic'
loop_
_space_group_symop_operation_xyz
x,y,z
1/2-x,1/2-y,z
1/2+x,-y,1/2-z
-x,1/2+y,1/2-z
-x,-y,-z
1/2+x,1/2+y,-z
1/2-x,y,1/2+z
x,1/2-y,1/2+z
loop_
_atom_site_type_symbol
_atom_site_label
_atom_site_fract_x
_atom_site_fract_y
_atom_site_fract_z
Si Si1 0.080405 0.407391 0.024850
Si Si2 0.452766 0.034945 0.174648
Si Si3 0.739393 0.544557 0.964332
Si Si4 0.263886 0.936186 0.185956
Si Si5 0.078098 0.441532 0.455832
Si Si6 0.935325 0.791205 0.180990
Si Si7 0.250000 0.250000 0.781909
O O1 0.059386 0.360394 0.104149
O O2 0.166225 0.509365 0.019317
O O3 0.089905 0.250857 0.976050
O O4 0.000000 0.500000 0.000000
O O5 0.362641 0.951413 0.180216
O O6 0.518952 0.885153 0.167589
O O7 0.463089 0.144143 0.243501
O O8 0.750000 0.750000 0.958188
O O9 0.722408 0.470431 0.888486
O O10 0.667298 0.489857 0.017334
O O11 0.250000 0.750000 0.211741
O O12 0.237174 0.086268 0.235139
O O13 0.051592 0.435416 0.376202
O O14 0.000000 0.500000 0.500000
O O15 0.835736 0.769708 0.178308
#
# Coordination Sequence:
#
# PCOD9431123 Si02
#       7
#     8   8   8   8   8   8   4
#     4  10  20  41  64  89 123 165 217 269 323 388
#     4  10  24  40  62  95 125 168 218 262 335 389
#     4   9  20  37  63  88 126 165 211 269 322 387
#     4  10  21  39  67  94 125 169 222 265 325 392
#     4  11  25  38  63  95 127 169 220 265 328 395
#     4  11  25  42  65  93 133 175 216 271 337 397
#     4  10  24  42  62  98 134 176 216 270 334 398
#
# _framework density 20.762632
#
# number of rings (size 3 to 8) (size 9 to 14) (size 15 to 20)
#    0.000    1.846    2.308    0.000   11.846    0.000 
#    0.000    0.000    0.000    0.923    0.000    0.000 
#    0.000    0.000    0.000    0.000    0.000    0.000 
#
# Total GULP energy -289789.317305 kJ/mol
# GULP energy per Si atom -5572.871487 kJ/mol
# Density = 2.071538 g / cm^3
# Si number density = 20.762632 Si / 1000 Ang^3
#
#
#
# Elastic Constant Matrix: (Units=GPa)
#
#
# Indices 1 2 3 4 5 6 
#
# 1 78.8767 -7.6575 23.2873 0.0000 0.0000 0.0000
# 2 -7.6575 45.2565 2.4169 0.0000 0.0000 0.0000
# 3 23.2873 2.4169 84.4514 0.0000 0.0000 0.0000
# 4 0.0000 0.0000 0.0000 -35.5313 0.0000 0.0000
# 5 0.0000 0.0000 0.0000 0.0000 34.0354 0.0000
# 6 0.0000 0.0000 0.0000 0.0000 0.0000 23.2525
#
#
#
# Elastic Compliance Matrix: (Units=1/GPa)
#
#
# Indices 1 2 3 4 5 6 
#
# 1 0.014100 0.002597 -0.003962 0.000000 0.000000 0.000000
# 2 0.002597 0.022609 -0.001363 0.000000 0.000000 0.000000
# 3 -0.003962 -0.001363 0.012973 0.000000 0.000000 0.000000
# 4 0.000000 0.000000 0.000000 -0.028144 0.000000 0.000000
# 5 0.000000 0.000000 0.000000 0.000000 0.029381 0.000000
# 6 0.000000 0.000000 0.000000 0.000000 0.000000 0.043006
#
#
# Mechanical properties :
#
#
# Convention : Reuss Voigt Hill
#
# Bulk Modulus (GPa) = 22.61175 27.18644 24.89910
# Shear Modulus (GPa) = 43.81254 17.05385 30.43320
#
# Velocity S-wave (km/s) = 4.59863 2.86907 3.83269
# Velocity P-wave (km/s) = 6.25387 4.90895 5.62177
#
# Compressibility (1/GPa) = 0.04422479
#
# Stress axis : x y z
#
# Youngs Moduli (GPa) = 70.92191 44.23105 77.08453
#
# Poissons Ratio (x) = -0.11488 0.30544
# Poissons Ratio (y) = -0.18421 0.10509
# Poissons Ratio (z) = 0.28102 0.06030
#
# Static dielectric constant tensor:
#      x y z
#    x 1.830740 0.000000 0.000000 
#    y 0.000000 1.911340 0.000000 
#    z 0.000000 0.000000 1.806670 
# 
# From -- ./inp_files/19071.got.cif
#   From: 2010.05.17/outbox.cif.g08.bks.cpg/sg56_10_cif.got.tgz:19071.got - 2010.06.03 13:42:01.
