data_PCOD9431670
_publ_section_title
;
Structure prediction by ZEFSAII (Michael W. Deem and Ramdas Pophale) SiO2 
 PCOD9431670
Probable space group: P C C N
;
_chemical_formula_sum "Si O2"
_cell_formula_units_Z 64
_cell_length_a 17.744720
_cell_length_b 18.006675
_cell_length_c 9.198731
_cell_angle_alpha 90.000000
_cell_angle_beta 90.000000
_cell_angle_gamma 90.000000
_cell_volume 2939.209860
_symmetry_space_group_name_H-M "P C C N"
_symmetry_group_IT_number 56
_symmetry_cell_setting 'orthorhombic'
loop_
_space_group_symop_operation_xyz
x,y,z
1/2-x,1/2-y,z
1/2+x,-y,1/2-z
-x,1/2+y,1/2-z
-x,-y,-z
1/2+x,1/2+y,-z
1/2-x,y,1/2+z
x,1/2-y,1/2+z
loop_
_atom_site_type_symbol
_atom_site_label
_atom_site_fract_x
_atom_site_fract_y
_atom_site_fract_z
Si Si1 0.737217 0.090638 0.974290
Si Si2 0.810848 0.188410 0.722349
Si Si3 0.065173 0.188870 0.486499
Si Si4 0.548684 0.929937 0.553206
Si Si5 0.978733 0.293174 0.282300
Si Si6 0.299196 0.373229 0.386038
Si Si7 0.686979 0.504250 0.212896
Si Si8 0.163550 0.326013 0.589998
O O1 0.778004 0.144511 0.860404
O O2 0.694427 0.032301 0.870717
O O3 0.682737 0.133831 0.084512
O O4 0.799032 0.054069 0.081513
O O5 0.750000 0.250000 0.680986
O O6 0.890826 0.221197 0.764849
O O7 0.118224 0.118308 0.455755
O O8 0.125048 0.253429 0.526394
O O9 0.019044 0.220869 0.349974
O O10 0.012548 0.185179 0.626321
O O11 0.496683 0.863045 0.612665
O O12 0.602971 0.892694 0.431208
O O13 0.500000 0.000000 0.500000
O O14 0.609028 0.954634 0.677065
O O15 0.259316 0.442170 0.307079
O O16 0.237718 0.346955 0.500866
O O17 0.314458 0.315852 0.256081
#
# Coordination Sequence:
#
# PCOD9431670 Si02
#       8
#     8   8   8   8   8   8   8   8
#     4  10  23  43  68  98 126 163 228 275 328 403
#     4  11  25  46  73  96 125 169 224 281 349 398
#     4  11  24  42  61  99 139 176 223 276 339 395
#     4  10  22  43  67  96 137 179 221 272 354 400
#     4  11  26  43  68  98 139 173 227 284 343 411
#     4  11  22  38  65  92 137 178 227 264 327 399
#     4  10  21  40  68  95 133 175 218 269 330 402
#     4  10  23  39  64  94 130 186 222 273 322 398
#
# _framework density 21.774559
#
# number of rings (size 3 to 8) (size 9 to 14) (size 15 to 20)
#    0.000    1.500    1.250    3.000   10.500    2.000 
#    4.500    0.625    0.000    0.000    0.000    0.000 
#    0.000    0.000    0.000    0.000    0.000    0.000 
#
# Total GULP energy -357788.793899 kJ/mol
# GULP energy per Si atom -5590.449905 kJ/mol
# Density = 2.172500 g / cm^3
# Si number density = 21.774559 Si / 1000 Ang^3
#
#
#
# Elastic Constant Matrix: (Units=GPa)
#
#
# Indices 1 2 3 4 5 6 
#
# 1 114.3519 29.3862 20.7232 0.0000 0.0000 0.0000
# 2 29.3862 51.0933 0.8989 0.0000 0.0000 0.0000
# 3 20.7232 0.8989 96.7879 0.0000 0.0000 0.0000
# 4 0.0000 0.0000 0.0000 3.8982 0.0000 0.0000
# 5 0.0000 0.0000 0.0000 0.0000 14.2790 0.0000
# 6 0.0000 0.0000 0.0000 0.0000 0.0000 31.9747
#
#
#
# Elastic Compliance Matrix: (Units=1/GPa)
#
#
# Indices 1 2 3 4 5 6 
#
# 1 0.010726 -0.006130 -0.002240 0.000000 0.000000 0.000000
# 2 -0.006130 0.023078 0.001098 0.000000 0.000000 0.000000
# 3 -0.002240 0.001098 0.010801 0.000000 0.000000 0.000000
# 4 0.000000 0.000000 0.000000 0.256530 0.000000 0.000000
# 5 0.000000 0.000000 0.000000 0.000000 0.070033 0.000000
# 6 0.000000 0.000000 0.000000 0.000000 0.000000 0.031275
#
#
# Mechanical properties :
#
#
# Convention : Reuss Voigt Hill
#
# Bulk Modulus (GPa) = 33.26345 40.47218 36.86782
# Shear Modulus (GPa) = 11.70943 24.11201 17.91072
#
# Velocity S-wave (km/s) = 2.32148 3.33129 2.87113
# Velocity P-wave (km/s) = 4.74290 5.78135 5.28768
#
# Compressibility (1/GPa) = 0.03006303
#
# Stress axis : x y z
#
# Youngs Moduli (GPa) = 93.23134 43.33098 92.58237
#
# Poissons Ratio (x) = 0.26560 0.20735
# Poissons Ratio (y) = 0.57147 -0.10166
# Poissons Ratio (z) = 0.20880 -0.04758
#
# Static dielectric constant tensor:
#      x y z
#    x 1.784140 0.000000 0.000000 
#    y 0.000000 1.836380 0.000000 
#    z 0.000000 0.000000 1.791520 
# 
# From -- ./inp_files/4205.got.cif
#   From: 2010.05.17/outbox.cif.g08.bks.cpg/sg56_3_cif.got.tgz:4205.got - 2010.06.03 13:42:01.
