data_PCOD9431301
_publ_section_title
;
Structure prediction by ZEFSAII (Michael W. Deem and Ramdas Pophale) SiO2 
 PCOD9431301
Probable space group: P C C N
;
_chemical_formula_sum "Si O2"
_cell_formula_units_Z 32
_cell_length_a 4.887608
_cell_length_b 24.259133
_cell_length_c 13.362928
_cell_angle_alpha 90.000000
_cell_angle_beta 90.000000
_cell_angle_gamma 90.000000
_cell_volume 1584.430781
_symmetry_space_group_name_H-M "P C C N"
_symmetry_group_IT_number 56
_symmetry_cell_setting 'orthorhombic'
loop_
_space_group_symop_operation_xyz
x,y,z
1/2-x,1/2-y,z
1/2+x,-y,1/2-z
-x,1/2+y,1/2-z
-x,-y,-z
1/2+x,1/2+y,-z
1/2-x,y,1/2+z
x,1/2-y,1/2+z
loop_
_atom_site_type_symbol
_atom_site_label
_atom_site_fract_x
_atom_site_fract_y
_atom_site_fract_z
Si Si1 0.553223 0.196397 0.587755
Si Si2 0.579673 0.119128 0.408498
Si Si3 0.448704 0.360664 0.679038
Si Si4 0.400465 0.062080 0.998847
O O1 0.750000 0.250000 0.586541
O O2 0.515412 0.173379 0.475482
O O3 0.263109 0.187832 0.644593
O O4 0.747054 0.153463 0.643799
O O5 0.482140 0.129997 0.296208
O O6 0.393886 0.069803 0.449926
O O7 0.889559 0.100509 0.433874
O O8 0.373926 0.413074 0.610716
O O9 0.500000 0.000000 0.000000
#
# Coordination Sequence:
#
# PCOD9431301 Si02
#       4
#     8   8   8   8
#     4  10  21  38  57  81 111 144 187 236 284 342
#     4  10  21  37  57  82 114 149 189 238 287 342
#     4  10  21  37  57  83 114 148 189 236 286 342
#     4  10  21  36  56  84 116 151 192 236 285 344
#
# _framework density 20.196528000000001
#
# number of rings (size 3 to 8) (size 9 to 14) (size 15 to 20)
#    0.000    2.000    0.000    3.000    0.000    3.000 
#    0.000    7.500    0.000    0.000    0.000    0.000 
#    0.000    0.000    0.000    0.000    0.000    0.000 
#
# Total GULP energy -178233.973413 kJ/mol
# GULP energy per Si atom -5569.811669 kJ/mol
# Density = 2.015056 g / cm^3
# Si number density = 20.196528 Si / 1000 Ang^3
#
#
#
# Elastic Constant Matrix: (Units=GPa)
#
#
# Indices 1 2 3 4 5 6 
#
# 1 100.4773 -4.2564 21.4284 0.0000 0.0000 0.0000
# 2 -4.2564 58.3554 32.4036 0.0000 0.0000 0.0000
# 3 21.4284 32.4036 177.0382 0.0000 0.0000 0.0000
# 4 0.0000 0.0000 0.0000 2.2827 0.0000 0.0000
# 5 0.0000 0.0000 0.0000 0.0000 17.7048 0.0000
# 6 0.0000 0.0000 0.0000 0.0000 0.0000 37.0244
#
#
#
# Elastic Compliance Matrix: (Units=1/GPa)
#
#
# Indices 1 2 3 4 5 6 
#
# 1 0.010351 0.001615 -0.001548 0.000000 0.000000 0.000000
# 2 0.001615 0.019327 -0.003733 0.000000 0.000000 0.000000
# 3 -0.001548 -0.003733 0.006519 0.000000 0.000000 0.000000
# 4 0.000000 0.000000 0.000000 0.438087 0.000000 0.000000
# 5 0.000000 0.000000 0.000000 0.000000 0.056482 0.000000
# 6 0.000000 0.000000 0.000000 0.000000 0.000000 0.027009
#
#
# Mechanical properties :
#
#
# Convention : Reuss Voigt Hill
#
# Bulk Modulus (GPa) = 34.64498 48.33579 41.49039
# Shear Modulus (GPa) = 8.69974 30.48871 19.59422
#
# Velocity S-wave (km/s) = 2.07771 3.88957 3.11815
# Velocity P-wave (km/s) = 4.79030 6.64503 5.79238
#
# Compressibility (1/GPa) = 0.02886421
#
# Stress axis : x y z
#
# Youngs Moduli (GPa) = 96.60775 51.74119 153.39407
#
# Poissons Ratio (x) = -0.08355 0.23752
# Poissons Ratio (y) = -0.15600 0.57260
# Poissons Ratio (z) = 0.14959 0.19314
#
# Static dielectric constant tensor:
#      x y z
#    x 1.711550 0.000000 0.000000 
#    y 0.000000 1.779560 0.000000 
#    z 0.000000 0.000000 1.742950 
# 
# From -- ./inp_files/5061.got.cif
#   From: 2010.05.17/outbox.cif.g08.bks.cpg/sg56_3_cif.got.tgz:5061.got - 2010.06.03 13:42:01.
