data_PCOD9431435
_publ_section_title
;
Structure prediction by ZEFSAII (Michael W. Deem and Ramdas Pophale) SiO2 
 PCOD9431435
Probable space group: P C C N
;
_chemical_formula_sum "Si O2"
_cell_formula_units_Z 56
_cell_length_a 18.854546
_cell_length_b 13.452007
_cell_length_c 8.793105
_cell_angle_alpha 90.000000
_cell_angle_beta 90.000000
_cell_angle_gamma 90.000000
_cell_volume 2230.208277
_symmetry_space_group_name_H-M "P C C N"
_symmetry_group_IT_number 56
_symmetry_cell_setting 'orthorhombic'
loop_
_space_group_symop_operation_xyz
x,y,z
1/2-x,1/2-y,z
1/2+x,-y,1/2-z
-x,1/2+y,1/2-z
-x,-y,-z
1/2+x,1/2+y,-z
1/2-x,y,1/2+z
x,1/2-y,1/2+z
loop_
_atom_site_type_symbol
_atom_site_label
_atom_site_fract_x
_atom_site_fract_y
_atom_site_fract_z
Si Si1 0.968782 0.392828 0.261326
Si Si2 0.745740 0.102489 0.508136
Si Si3 0.640910 0.701679 0.575759
Si Si4 0.846498 0.123112 0.255093
Si Si5 0.361995 0.392079 0.752856
Si Si6 0.165446 0.484708 0.740986
Si Si7 0.529491 0.295224 0.434591
O O1 0.917690 0.486834 0.269783
O O2 0.952245 0.319164 0.400646
O O3 0.052869 0.407598 0.261530
O O4 0.953991 0.336551 0.101399
O O5 0.800651 0.053145 0.626624
O O6 0.702836 0.018731 0.413045
O O7 0.794615 0.158002 0.388040
O O8 0.686794 0.163218 0.600787
O O9 0.659948 0.815068 0.615356
O O10 0.656503 0.660539 0.407737
O O11 0.672499 0.627530 0.701959
O O12 0.554936 0.695535 0.589762
O O13 0.834943 0.003950 0.243530
O O14 0.925229 0.145667 0.309038
#
# Coordination Sequence:
#
# PCOD9431435 Si02
#       7
#     8   8   8   8   8   8   8
#     4  10  21  38  62  90 117 148 190 239 294 348
#     4  10  24  38  62  82 116 154 208 230 274 342
#     4  10  21  38  62  90 117 148 190 239 294 348
#     4  11  21  43  60  83 116 159 190 242 283 339
#     4  10  21  38  62  90 117 148 190 239 294 348
#     4  11  21  43  60  83 116 159 190 242 283 339
#     4  10  21  38  62  90 117 148 190 239 294 348
#
# _framework density 25.109763000000001
#
# number of rings (size 3 to 8) (size 9 to 14) (size 15 to 20)
#    0.000    1.714    2.857    0.857    4.000    2.286 
#    0.000   10.000    0.000    0.000    0.000    0.000 
#    0.000    0.000    0.000    0.000    0.000    0.000 
#
# Total GULP energy -313469.516743 kJ/mol
# GULP energy per Si atom -5597.669942 kJ/mol
# Density = 2.505261 g / cm^3
# Si number density = 25.109763 Si / 1000 Ang^3
#
#
#
# Elastic Constant Matrix: (Units=GPa)
#
#
# Indices 1 2 3 4 5 6 
#
# 1 49.9156 5.0376 28.1171 0.0000 0.0000 0.0000
# 2 5.0376 79.4296 2.1311 0.0000 0.0000 0.0000
# 3 28.1171 2.1311 79.3663 0.0000 0.0000 0.0000
# 4 0.0000 0.0000 0.0000 26.7668 0.0000 0.0000
# 5 0.0000 0.0000 0.0000 0.0000 33.0977 0.0000
# 6 0.0000 0.0000 0.0000 0.0000 0.0000 33.0985
#
#
#
# Elastic Compliance Matrix: (Units=1/GPa)
#
#
# Indices 1 2 3 4 5 6 
#
# 1 0.025174 -0.001358 -0.008882 0.000000 0.000000 0.000000
# 2 -0.001358 0.012672 0.000141 0.000000 0.000000 0.000000
# 3 -0.008882 0.000141 0.015743 0.000000 0.000000 0.000000
# 4 0.000000 0.000000 0.000000 0.037360 0.000000 0.000000
# 5 0.000000 0.000000 0.000000 0.000000 0.030214 0.000000
# 6 0.000000 0.000000 0.000000 0.000000 0.000000 0.030213
#
#
# Mechanical properties :
#
#
# Convention : Reuss Voigt Hill
#
# Bulk Modulus (GPa) = 29.94890 31.03146 30.49018
# Shear Modulus (GPa) = 27.36672 30.15431 28.76052
#
# Velocity S-wave (km/s) = 3.30492 3.46916 3.38804
# Velocity P-wave (km/s) = 5.14941 5.33216 5.24158
#
# Compressibility (1/GPa) = 0.03339021
#
# Stress axis : x y z
#
# Youngs Moduli (GPa) = 39.72345 78.91334 63.52182
#
# Poissons Ratio (x) = 0.10719 0.56420
# Poissons Ratio (y) = 0.05396 -0.00895
# Poissons Ratio (z) = 0.35282 -0.01112
#
# Static dielectric constant tensor:
#      x y z
#    x 1.979530 0.000000 0.000000 
#    y 0.000000 1.968210 0.000000 
#    z 0.000000 0.000000 1.969680 
# 
# From -- ./inp_files/3588.got.cif
#   From: 2010.05.17/outbox.cif.g08.bks.cpg/sg56_2_cif.got.tgz:3588.got - 2010.06.03 13:42:01.
