data_PCOD9431746
_publ_section_title
;
Structure prediction by ZEFSAII (Michael W. Deem and Ramdas Pophale) SiO2 
 PCOD9431746
Probable space group: P C C N
;
_chemical_formula_sum "Si O2"
_cell_formula_units_Z 40
_cell_length_a 9.492786
_cell_length_b 12.546003
_cell_length_c 14.639663
_cell_angle_alpha 90.000000
_cell_angle_beta 90.000000
_cell_angle_gamma 90.000000
_cell_volume 1743.532941
_symmetry_space_group_name_H-M "P C C N"
_symmetry_group_IT_number 56
_symmetry_cell_setting 'orthorhombic'
loop_
_space_group_symop_operation_xyz
x,y,z
1/2-x,1/2-y,z
1/2+x,-y,1/2-z
-x,1/2+y,1/2-z
-x,-y,-z
1/2+x,1/2+y,-z
1/2-x,y,1/2+z
x,1/2-y,1/2+z
loop_
_atom_site_type_symbol
_atom_site_label
_atom_site_fract_x
_atom_site_fract_y
_atom_site_fract_z
Si Si1 0.659334 0.914971 0.870354
Si Si2 0.632546 0.165022 0.850265
Si Si3 0.878272 0.703515 0.690632
Si Si4 0.346625 0.651455 0.434056
Si Si5 0.857243 0.546314 0.538699
O O1 0.688079 0.847007 0.780640
O O2 0.498265 0.879741 0.893113
O O3 0.663754 0.039985 0.841669
O O4 0.766542 0.900107 0.955427
O O5 0.750000 0.250000 0.821595
O O6 0.493816 0.205857 0.799287
O O7 0.617726 0.178110 0.960024
O O8 0.750000 0.750000 0.632955
O O9 0.922222 0.609847 0.624299
O O10 0.250000 0.750000 0.399297
O O11 0.248690 0.546879 0.428957
O O12 0.000000 0.500000 0.500000
#
# Coordination Sequence:
#
# PCOD9431746 Si02
#       5
#     8   8   8   8   8
#     4  11  25  44  66  97 135 177 226 276 336 412
#     4  10  22  43  66  91 129 176 222 274 333 402
#     4  12  26  41  65  98 133 170 217 281 339 394
#     4  10  21  41  68  94 128 177 223 271 336 407
#     4  11  24  43  68  96 131 174 222 280 337 399
#
# _framework density 22.941924
#
# number of rings (size 3 to 8) (size 9 to 14) (size 15 to 20)
#    0.000    1.200    0.000    8.400    0.000   12.800 
#    0.000    0.000    0.000    0.000    0.000    0.000 
#    0.000    0.000    0.000    0.000    0.000    0.000 
#
# Total GULP energy -223188.591430 kJ/mol
# GULP energy per Si atom -5579.714786 kJ/mol
# Density = 2.288971 g / cm^3
# Si number density = 22.941924 Si / 1000 Ang^3
#
#
#
# Elastic Constant Matrix: (Units=GPa)
#
#
# Indices 1 2 3 4 5 6 
#
# 1 92.9454 8.4764 -11.1622 0.0000 0.0000 0.0000
# 2 8.4764 92.8652 41.0461 0.0000 0.0000 0.0000
# 3 -11.1622 41.0461 53.5197 0.0000 0.0000 0.0000
# 4 0.0000 0.0000 0.0000 94.1530 0.0000 0.0000
# 5 0.0000 0.0000 0.0000 0.0000 40.0724 0.0000
# 6 0.0000 0.0000 0.0000 0.0000 0.0000 43.5601
#
#
#
# Elastic Compliance Matrix: (Units=1/GPa)
#
#
# Indices 1 2 3 4 5 6 
#
# 1 0.011643 -0.003231 0.004907 0.000000 0.000000 0.000000
# 2 -0.003231 0.017187 -0.013855 0.000000 0.000000 0.000000
# 3 0.004907 -0.013855 0.030334 0.000000 0.000000 0.000000
# 4 0.000000 0.000000 0.000000 0.010621 0.000000 0.000000
# 5 0.000000 0.000000 0.000000 0.000000 0.024955 0.000000
# 6 0.000000 0.000000 0.000000 0.000000 0.000000 0.022957
#
#
# Mechanical properties :
#
#
# Convention : Reuss Voigt Hill
#
# Bulk Modulus (GPa) = 28.73241 35.11675 31.92458
# Shear Modulus (GPa) = 32.53956 48.95511 40.74734
#
# Velocity S-wave (km/s) = 3.77018 4.62440 4.21896
# Velocity P-wave (km/s) = 5.61280 6.62219 6.13828
#
# Compressibility (1/GPa) = 0.03480390
#
# Stress axis : x y z
#
# Youngs Moduli (GPa) = 85.88888 58.18245 32.96600
#
# Poissons Ratio (x) = 0.18801 -0.16175
# Poissons Ratio (y) = 0.27754 0.45676
# Poissons Ratio (z) = -0.42142 0.80615
#
# Static dielectric constant tensor:
#      x y z
#    x 1.672220 0.000000 0.000000 
#    y 0.000000 8.195810 0.000000 
#    z 0.000000 0.000000 1.879980 
# 
# From -- ./inp_files/14483.got.cif
#   From: 2010.05.17/outbox.cif.g08.bks.cpg/sg56_8_cif.got.tgz:14483.got - 2010.06.03 13:42:01.
