data_PCOD9431863
_publ_section_title
;
Structure prediction by ZEFSAII (Michael W. Deem and Ramdas Pophale) SiO2 
 PCOD9431863
Probable space group: P C C N
;
_chemical_formula_sum "Si O2"
_cell_formula_units_Z 28
_cell_length_a 10.294714
_cell_length_b 6.360164
_cell_length_c 16.544232
_cell_angle_alpha 90.000000
_cell_angle_beta 90.000000
_cell_angle_gamma 90.000000
_cell_volume 1083.251282
_symmetry_space_group_name_H-M "P C C N"
_symmetry_group_IT_number 56
_symmetry_cell_setting 'orthorhombic'
loop_
_space_group_symop_operation_xyz
x,y,z
1/2-x,1/2-y,z
1/2+x,-y,1/2-z
-x,1/2+y,1/2-z
-x,-y,-z
1/2+x,1/2+y,-z
1/2-x,y,1/2+z
x,1/2-y,1/2+z
loop_
_atom_site_type_symbol
_atom_site_label
_atom_site_fract_x
_atom_site_fract_y
_atom_site_fract_z
Si Si1 0.750000 0.750000 0.323450
Si Si2 0.124796 0.937129 0.089612
Si Si3 0.112395 0.173045 0.336566
Si Si4 0.949137 0.314730 0.056825
O O1 0.745266 0.512981 0.364644
O O2 0.633200 0.785722 0.257963
O O3 0.012308 0.804790 0.133830
O O4 0.133911 0.839774 0.000430
O O5 0.070660 0.172313 0.079338
O O6 0.250000 0.250000 0.374829
O O7 0.105226 0.931555 0.365020
O O8 0.000000 0.500000 0.000000
#
# Coordination Sequence:
#
# PCOD9431863 Si02
#       4
#     4   8   8   8
#     4  10  24  40  68 110 140 188 236 314 372 444
#     4  10  21  44  66 101 140 182 247 298 371 443
#     4   9  22  41  67  99 141 189 237 298 378 440
#     4   9  20  44  68  94 136 187 240 302 355 456
#
# _framework density 25.848109000000001
#
# number of rings (size 3 to 8) (size 9 to 14) (size 15 to 20)
#    0.857    1.714    0.000    0.000    4.000    1.143 
#   28.286   10.000    0.000    0.000    0.000    0.000 
#    0.000    0.000    0.000    0.000    0.000    0.000 
#
# Total GULP energy -156111.296719 kJ/mol
# GULP energy per Si atom -5575.403454 kJ/mol
# Density = 2.578928 g / cm^3
# Si number density = 25.848109 Si / 1000 Ang^3
#
#
#
# Elastic Constant Matrix: (Units=GPa)
#
#
# Indices 1 2 3 4 5 6 
#
# 1 71.0742 36.0427 -0.8671 0.0000 0.0000 0.0000
# 2 36.0427 133.6300 29.7154 0.0000 0.0000 0.0000
# 3 -0.8671 29.7154 77.3698 0.0000 0.0000 0.0000
# 4 0.0000 0.0000 0.0000 336.4729 0.0000 0.0000
# 5 0.0000 0.0000 0.0000 0.0000 1.3690 0.0000
# 6 0.0000 0.0000 0.0000 0.0000 0.0000 65.6990
#
#
#
# Elastic Compliance Matrix: (Units=1/GPa)
#
#
# Indices 1 2 3 4 5 6 
#
# 1 0.016601 -0.004941 0.002084 0.000000 0.000000 0.000000
# 2 -0.004941 0.009653 -0.003763 0.000000 0.000000 0.000000
# 3 0.002084 -0.003763 0.014393 0.000000 0.000000 0.000000
# 4 0.000000 0.000000 0.000000 0.002972 0.000000 0.000000
# 5 0.000000 0.000000 0.000000 0.000000 0.730472 0.000000
# 6 0.000000 0.000000 0.000000 0.000000 0.000000 0.015221
#
#
# Mechanical properties :
#
#
# Convention : Reuss Voigt Hill
#
# Bulk Modulus (GPa) = 36.48681 45.76178 41.12430
# Shear Modulus (GPa) = 6.16001 95.18706 50.67353
#
# Velocity S-wave (km/s) = 1.54542 6.07499 4.43248
# Velocity P-wave (km/s) = 4.16304 8.18229 6.49156
#
# Compressibility (1/GPa) = 0.02740716
#
# Stress axis : x y z
#
# Youngs Moduli (GPa) = 60.23795 103.59766 69.47613
#
# Poissons Ratio (x) = 0.51187 -0.14477
# Poissons Ratio (y) = 0.29763 0.26142
# Poissons Ratio (z) = -0.12552 0.38981
#
# Static dielectric constant tensor:
#      x y z
#    x 2.937190 0.000000 0.000000 
#    y 0.000000 2.067590 0.000000 
#    z 0.000000 0.000000 2.149800 
# 
# From -- ./inp_files/15302.got.cif
#   From: 2010.05.17/outbox.cif.g08.bks.cpg/sg56_8_cif.got.tgz:15302.got - 2010.06.03 13:42:01.
