data_PCOD9431319
_publ_section_title
;
Structure prediction by ZEFSAII (Michael W. Deem and Ramdas Pophale) SiO2 
 PCOD9431319
Probable space group: P C C N
;
_chemical_formula_sum "Si O2"
_cell_formula_units_Z 56
_cell_length_a 30.692337
_cell_length_b 5.100858
_cell_length_c 14.399608
_cell_angle_alpha 90.000000
_cell_angle_beta 90.000000
_cell_angle_gamma 90.000000
_cell_volume 2254.363069
_symmetry_space_group_name_H-M "P C C N"
_symmetry_group_IT_number 56
_symmetry_cell_setting 'orthorhombic'
loop_
_space_group_symop_operation_xyz
x,y,z
1/2-x,1/2-y,z
1/2+x,-y,1/2-z
-x,1/2+y,1/2-z
-x,-y,-z
1/2+x,1/2+y,-z
1/2-x,y,1/2+z
x,1/2-y,1/2+z
loop_
_atom_site_type_symbol
_atom_site_label
_atom_site_fract_x
_atom_site_fract_y
_atom_site_fract_z
Si Si1 0.777429 0.490180 0.225436
Si Si2 0.487168 0.698036 0.805283
Si Si3 0.666927 0.225336 0.565212
Si Si4 0.403500 0.507077 0.727943
Si Si5 0.564954 0.810711 0.430852
Si Si6 0.346535 0.605171 0.136478
Si Si7 0.610934 0.714738 0.607441
O O1 0.750000 0.250000 0.268845
O O2 0.814645 0.566686 0.300217
O O3 0.750000 0.750000 0.203340
O O4 0.797591 0.352758 0.133341
O O5 0.503846 0.491941 0.727849
O O6 0.435583 0.660112 0.797637
O O7 0.516748 0.624747 0.893990
O O8 0.677748 0.197680 0.456654
O O9 0.628834 0.440242 0.573249
O O10 0.647921 0.941020 0.594191
O O11 0.424508 0.451862 0.628008
O O12 0.360032 0.659812 0.705064
O O13 0.399090 0.236692 0.784155
O O14 0.570543 0.777573 0.540058
O O15 0.607157 0.984799 0.399452
#
# Coordination Sequence:
#
# PCOD9431319 Si02
#       7
#     8   8   8   8   8   8   8
#     4  12  28  47  73 104 136 173 225 292 351 424
#     4  10  21  36  60  94 139 182 226 285 336 386
#     4  11  24  45  68  99 135 174 222 278 344 409
#     4  11  21  39  67  96 137 184 233 278 341 399
#     4  10  22  40  64  98 139 179 234 276 334 405
#     4  11  23  44  73  98 135 188 228 277 343 428
#     4  11  23  37  69  98 129 183 231 273 332 409
#
# _framework density 24.840719
#
# number of rings (size 3 to 8) (size 9 to 14) (size 15 to 20)
#    0.000    1.143    4.286    1.714    2.000    1.143 
#    0.000    1.429    0.000    6.857    0.000    0.000 
#    0.000    0.000    0.000    0.000    0.000    0.000 
#
# Total GULP energy -312816.127212 kJ/mol
# GULP energy per Si atom -5586.002272 kJ/mol
# Density = 2.478418 g / cm^3
# Si number density = 24.840719 Si / 1000 Ang^3
#
#
#
# Elastic Constant Matrix: (Units=GPa)
#
#
# Indices 1 2 3 4 5 6 
#
# 1 64.5695 34.9303 28.0428 0.0000 0.0000 0.0000
# 2 34.9303 86.8736 18.1194 0.0000 0.0000 0.0000
# 3 28.0428 18.1194 99.6147 0.0000 0.0000 0.0000
# 4 0.0000 0.0000 0.0000 22.2029 0.0000 0.0000
# 5 0.0000 0.0000 0.0000 0.0000 28.5537 0.0000
# 6 0.0000 0.0000 0.0000 0.0000 0.0000 47.2359
#
#
#
# Elastic Compliance Matrix: (Units=1/GPa)
#
#
# Indices 1 2 3 4 5 6 
#
# 1 0.021726 -0.007754 -0.004706 0.000000 0.000000 0.000000
# 2 -0.007754 0.014732 -0.000497 0.000000 0.000000 0.000000
# 3 -0.004706 -0.000497 0.011454 0.000000 0.000000 0.000000
# 4 0.000000 0.000000 0.000000 0.045039 0.000000 0.000000
# 5 0.000000 0.000000 0.000000 0.000000 0.035022 0.000000
# 6 0.000000 0.000000 0.000000 0.000000 0.000000 0.021170
#
#
# Mechanical properties :
#
#
# Convention : Reuss Voigt Hill
#
# Bulk Modulus (GPa) = 45.45729 45.91587 45.68658
# Shear Modulus (GPa) = 27.41398 30.92953 29.17175
#
# Velocity S-wave (km/s) = 3.32564 3.53245 3.43060
# Velocity P-wave (km/s) = 5.75202 5.92974 5.84155
#
# Compressibility (1/GPa) = 0.02199867
#
# Stress axis : x y z
#
# Youngs Moduli (GPa) = 46.02870 67.87775 87.30761
#
# Poissons Ratio (x) = 0.52632 0.41084
# Poissons Ratio (y) = 0.35691 0.04338
# Poissons Ratio (z) = 0.21659 0.03373
#
# Static dielectric constant tensor:
#      x y z
#    x 2.108860 0.000000 0.000000 
#    y 0.000000 2.015810 0.000000 
#    z 0.000000 0.000000 1.930640 
# 
# From -- ./inp_files/13451.got.cif
#   From: 2010.05.17/outbox.cif.g08.bks.cpg/sg56_7_cif.got.tgz:13451.got - 2010.06.03 13:42:01.
