data_PCOD9431097
_publ_section_title
;
Structure prediction by ZEFSAII (Michael W. Deem and Ramdas Pophale) SiO2 
 PCOD9431097
Probable space group: P C C N
;
_chemical_formula_sum "Si O2"
_cell_formula_units_Z 40
_cell_length_a 24.151333
_cell_length_b 5.267840
_cell_length_c 12.346614
_cell_angle_alpha 90.000000
_cell_angle_beta 90.000000
_cell_angle_gamma 90.000000
_cell_volume 1570.802387
_symmetry_space_group_name_H-M "P C C N"
_symmetry_group_IT_number 56
_symmetry_cell_setting 'orthorhombic'
loop_
_space_group_symop_operation_xyz
x,y,z
1/2-x,1/2-y,z
1/2+x,-y,1/2-z
-x,1/2+y,1/2-z
-x,-y,-z
1/2+x,1/2+y,-z
1/2-x,y,1/2+z
x,1/2-y,1/2+z
loop_
_atom_site_type_symbol
_atom_site_label
_atom_site_fract_x
_atom_site_fract_y
_atom_site_fract_z
Si Si1 0.369980 0.660423 0.249247
Si Si2 0.250000 0.250000 0.940861
Si Si3 0.632725 0.877535 0.018095
Si Si4 0.552687 0.509865 0.126973
Si Si5 0.250000 0.750000 0.289717
Si Si6 0.445307 0.777224 0.584304
O O1 0.364559 0.517685 0.363948
O O2 0.306512 0.719896 0.221843
O O3 0.405719 0.531385 0.155218
O O4 0.411750 0.891432 0.278299
O O5 0.304673 0.193277 0.010175
O O6 0.259331 0.499429 0.865100
O O7 0.598005 0.634136 0.049725
O O8 0.598753 0.054519 0.938172
O O9 0.503274 0.703555 0.150402
O O10 0.530324 0.303526 0.040214
#
# Coordination Sequence:
#
# PCOD9431097 Si02
#       6
#     8   4   8   8   4   8
#     4  10  22  39  62  92 125 174 217 270 340 399
#     4  10  20  40  70  90 134 180 216 270 342 398
#     4  10  21  40  63  91 127 173 211 276 333 404
#     4  10  21  41  62  87 129 168 212 280 341 400
#     4  10  20  42  64  96 132 170 230 270 324 410
#     4  10  23  39  60  98 126 163 226 279 332 413
#
# _framework density 25.464690000000001
#
# number of rings (size 3 to 8) (size 9 to 14) (size 15 to 20)
#    0.000    2.000    2.000    0.600    2.800    1.600 
#    3.600    0.000    0.000    0.000    0.000    0.000 
#    0.000    0.000    0.000    0.000    0.000    0.000 
#
# Total GULP energy -222822.365122 kJ/mol
# GULP energy per Si atom -5570.559128 kJ/mol
# Density = 2.540673 g / cm^3
# Si number density = 25.464690 Si / 1000 Ang^3
#
#
#
# Elastic Constant Matrix: (Units=GPa)
#
#
# Indices 1 2 3 4 5 6 
#
# 1 182.4196 19.9311 51.9499 0.0000 0.0000 0.0000
# 2 19.9311 45.3905 21.6029 0.0000 0.0000 0.0000
# 3 51.9499 21.6029 82.7139 0.0000 0.0000 0.0000
# 4 0.0000 0.0000 0.0000 197.6025 0.0000 0.0000
# 5 0.0000 0.0000 0.0000 0.0000 -14.8976 0.0000
# 6 0.0000 0.0000 0.0000 0.0000 0.0000 21.1397
#
#
#
# Elastic Compliance Matrix: (Units=1/GPa)
#
#
# Indices 1 2 3 4 5 6 
#
# 1 0.006722 -0.001076 -0.003941 0.000000 0.000000 0.000000
# 2 -0.001076 0.025331 -0.005940 0.000000 0.000000 0.000000
# 3 -0.003941 -0.005940 0.016116 0.000000 0.000000 0.000000
# 4 0.000000 0.000000 0.000000 0.005061 0.000000 0.000000
# 5 0.000000 0.000000 0.000000 0.000000 -0.067125 0.000000
# 6 0.000000 0.000000 0.000000 0.000000 0.000000 0.047304
#
#
# Mechanical properties :
#
#
# Convention : Reuss Voigt Hill
#
# Bulk Modulus (GPa) = 38.08758 55.27687 46.68223
# Shear Modulus (GPa) = 78.03532 55.23825 66.63679
#
# Velocity S-wave (km/s) = 5.54175 4.66253 5.12105
# Velocity P-wave (km/s) = 7.47914 7.12320 7.30334
#
# Compressibility (1/GPa) = 0.02625528
#
# Stress axis : x y z
#
# Youngs Moduli (GPa) = 148.77294 39.47801 62.04937
#
# Poissons Ratio (x) = 0.04248 0.24451
# Poissons Ratio (y) = 0.16008 0.36857
# Poissons Ratio (z) = 0.58626 0.23450
#
# Static dielectric constant tensor:
#      x y z
#    x 2.066900 0.000000 0.000000 
#    y 0.000000 2.676720 0.000000 
#    z 0.000000 0.000000 3.356960 
# 
# From -- ./inp_files/9577.got.cif
#   From: 2010.05.17/outbox.cif.g08.bks.cpg/sg56_5_cif.got.tgz:9577.got - 2010.06.03 13:42:01.
