data_PCOD9431828
_publ_section_title
;
Structure prediction by ZEFSAII (Michael W. Deem and Ramdas Pophale) SiO2 
 PCOD9431828
Probable space group: P C C N
;
_chemical_formula_sum "Si O2"
_cell_formula_units_Z 40
_cell_length_a 4.922019
_cell_length_b 28.997824
_cell_length_c 13.407337
_cell_angle_alpha 90.000000
_cell_angle_beta 90.000000
_cell_angle_gamma 90.000000
_cell_volume 1913.600259
_symmetry_space_group_name_H-M "P C C N"
_symmetry_group_IT_number 56
_symmetry_cell_setting 'orthorhombic'
loop_
_space_group_symop_operation_xyz
x,y,z
1/2-x,1/2-y,z
1/2+x,-y,1/2-z
-x,1/2+y,1/2-z
-x,-y,-z
1/2+x,1/2+y,-z
1/2-x,y,1/2+z
x,1/2-y,1/2+z
loop_
_atom_site_type_symbol
_atom_site_label
_atom_site_fract_x
_atom_site_fract_y
_atom_site_fract_z
Si Si1 0.976409 0.556870 0.703410
Si Si2 0.715611 0.805226 0.058233
Si Si3 0.003425 0.781990 0.353477
Si Si4 0.468737 0.992027 0.116453
Si Si5 0.199664 0.658528 0.666759
O O1 0.007064 0.537571 0.815735
O O2 0.164315 0.524114 0.636639
O O3 0.104357 0.607149 0.692710
O O4 0.673890 0.546715 0.662137
O O5 0.750000 0.750000 0.073651
O O6 0.506427 0.829429 0.134799
O O7 0.010262 0.826324 0.074732
O O8 0.604510 0.811412 0.946519
O O9 0.250000 0.750000 0.390677
O O10 0.115338 0.810271 0.260698
O O11 0.750000 0.750000 0.322214
O O12 0.500000 0.000000 0.000000
#
# Coordination Sequence:
#
# PCOD9431828 Si02
#       5
#     8   8   8   8   8
#     4  10  23  38  61  94 115 148 202 239 290 367
#     4  11  23  40  59  84 121 162 200 240 292 350
#     4  11  23  39  59  84 116 159 201 235 288 350
#     4  10  21  43  64  83 121 158 187 239 304 359
#     4  12  23  38  61  89 120 151 196 253 293 336
#
# _framework density 20.903008
#
# number of rings (size 3 to 8) (size 9 to 14) (size 15 to 20)
#    0.000    1.200    0.000    7.800    0.000    3.200 
#    0.000    0.000    0.000    0.000    0.000    0.000 
#    0.000    0.000    0.000    0.000    0.000    0.000 
#
# Total GULP energy -223544.444154 kJ/mol
# GULP energy per Si atom -5588.611104 kJ/mol
# Density = 2.085543 g / cm^3
# Si number density = 20.903008 Si / 1000 Ang^3
#
#
#
# Elastic Constant Matrix: (Units=GPa)
#
#
# Indices 1 2 3 4 5 6 
#
# 1 72.9963 -8.4246 -10.1793 0.0000 0.0000 0.0000
# 2 -8.4246 39.0531 0.7935 0.0000 0.0000 0.0000
# 3 -10.1793 0.7935 122.1137 0.0000 0.0000 0.0000
# 4 0.0000 0.0000 0.0000 1.7018 0.0000 0.0000
# 5 0.0000 0.0000 0.0000 0.0000 28.1629 0.0000
# 6 0.0000 0.0000 0.0000 0.0000 0.0000 24.2978
#
#
#
# Elastic Compliance Matrix: (Units=1/GPa)
#
#
# Indices 1 2 3 4 5 6 
#
# 1 0.014213 0.003042 0.001165 0.000000 0.000000 0.000000
# 2 0.003042 0.026261 0.000083 0.000000 0.000000 0.000000
# 3 0.001165 0.000083 0.008286 0.000000 0.000000 0.000000
# 4 0.000000 0.000000 0.000000 0.587615 0.000000 0.000000
# 5 0.000000 0.000000 0.000000 0.000000 0.035508 0.000000
# 6 0.000000 0.000000 0.000000 0.000000 0.000000 0.041156
#
#
# Mechanical properties :
#
#
# Convention : Reuss Voigt Hill
#
# Bulk Modulus (GPa) = 17.43981 22.06024 19.75002
# Shear Modulus (GPa) = 6.91018 27.63073 17.27045
#
# Velocity S-wave (km/s) = 1.82017 3.63968 2.87752
# Velocity P-wave (km/s) = 3.57472 5.31409 4.52870
#
# Compressibility (1/GPa) = 0.05734008
#
# Stress axis : x y z
#
# Youngs Moduli (GPa) = 70.35853 38.07957 120.69035
#
# Poissons Ratio (x) = -0.11585 -0.14061
# Poissons Ratio (y) = -0.21406 -0.01001
# Poissons Ratio (z) = -0.08197 -0.00316
#
# Static dielectric constant tensor:
#      x y z
#    x 1.735860 0.000000 0.000000 
#    y 0.000000 1.762920 0.000000 
#    z 0.000000 0.000000 1.756750 
# 
# From -- ./inp_files/5679.got.cif
#   From: 2010.05.17/outbox.cif.g08.bks.cpg/sg56_3_cif.got.tgz:5679.got - 2010.06.03 13:42:01.
