data_PCOD9431309
_publ_section_title
;
Structure prediction by ZEFSAII (Michael W. Deem and Ramdas Pophale) SiO2 
 PCOD9431309
Probable space group: P C C N
;
_chemical_formula_sum "Si O2"
_cell_formula_units_Z 56
_cell_length_a 7.672277
_cell_length_b 19.013191
_cell_length_c 15.445937
_cell_angle_alpha 90.000000
_cell_angle_beta 90.000000
_cell_angle_gamma 90.000000
_cell_volume 2253.167843
_symmetry_space_group_name_H-M "P C C N"
_symmetry_group_IT_number 56
_symmetry_cell_setting 'orthorhombic'
loop_
_space_group_symop_operation_xyz
x,y,z
1/2-x,1/2-y,z
1/2+x,-y,1/2-z
-x,1/2+y,1/2-z
-x,-y,-z
1/2+x,1/2+y,-z
1/2-x,y,1/2+z
x,1/2-y,1/2+z
loop_
_atom_site_type_symbol
_atom_site_label
_atom_site_fract_x
_atom_site_fract_y
_atom_site_fract_z
Si Si1 0.542659 0.308846 0.242976
Si Si2 0.418518 0.300507 0.882982
Si Si3 0.457712 0.246050 0.561013
Si Si4 0.484399 0.903592 0.915002
Si Si5 0.324507 0.571180 0.239537
Si Si6 0.684851 0.921768 0.176624
Si Si7 0.825561 0.464550 0.929484
O O1 0.520780 0.243006 0.308636
O O2 0.547387 0.282056 0.146267
O O3 0.701522 0.360936 0.258237
O O4 0.381808 0.363023 0.255192
O O5 0.250000 0.250000 0.894848
O O6 0.340660 0.377618 0.866103
O O7 0.508955 0.296819 0.975841
O O8 0.250000 0.250000 0.578064
O O9 0.505663 0.326518 0.548808
O O10 0.465866 0.907309 0.811470
O O11 0.650751 0.951843 0.934731
O O12 0.328321 0.937118 0.972666
O O13 0.261545 0.496033 0.280697
O O14 0.325244 0.555005 0.137179
O O15 0.510867 0.937707 0.116733
#
# Coordination Sequence:
#
# PCOD9431309 Si02
#       7
#     8   8   8   8   8   8   8
#     4  10  21  36  57  88 117 158 200 251 304 369
#     4   9  18  35  60  87 119 148 200 259 306 355
#     4  11  21  34  61  89 117 152 207 255 302 359
#     4  10  21  37  62  91 120 169 204 254 311 372
#     4  10  21  38  60  86 128 161 202 253 309 376
#     4   9  18  37  61  88 122 156 200 260 306 361
#     4   9  19  37  63  90 123 162 212 245 312 373
#
# _framework density 24.853897
#
# number of rings (size 3 to 8) (size 9 to 14) (size 15 to 20)
#    0.000    2.286    0.000    4.714    4.000    0.571 
#    0.000    2.143    0.000    5.143    0.000    0.000 
#    0.000    0.000    0.000    0.000    0.000    0.000 
#
# Total GULP energy -312586.560248 kJ/mol
# GULP energy per Si atom -5581.902862 kJ/mol
# Density = 2.479733 g / cm^3
# Si number density = 24.853897 Si / 1000 Ang^3
#
#
#
# Elastic Constant Matrix: (Units=GPa)
#
#
# Indices 1 2 3 4 5 6 
#
# 1 35.1831 26.1265 15.4641 0.0000 0.0000 0.0000
# 2 26.1265 79.3590 -2.1876 0.0000 0.0000 0.0000
# 3 15.4641 -2.1876 109.3956 0.0000 0.0000 0.0000
# 4 0.0000 0.0000 0.0000 15.4732 0.0000 0.0000
# 5 0.0000 0.0000 0.0000 0.0000 3.4184 0.0000
# 6 0.0000 0.0000 0.0000 0.0000 0.0000 12.0974
#
#
#
# Elastic Compliance Matrix: (Units=1/GPa)
#
#
# Indices 1 2 3 4 5 6 
#
# 1 0.041346 -0.013781 -0.006120 0.000000 0.000000 0.000000
# 2 -0.013781 0.017201 0.002292 0.000000 0.000000 0.000000
# 3 -0.006120 0.002292 0.010052 0.000000 0.000000 0.000000
# 4 0.000000 0.000000 0.000000 0.064628 0.000000 0.000000
# 5 0.000000 0.000000 0.000000 0.000000 0.292531 0.000000
# 6 0.000000 0.000000 0.000000 0.000000 0.000000 0.082663
#
#
# Mechanical properties :
#
#
# Convention : Reuss Voigt Hill
#
# Bulk Modulus (GPa) = 29.95673 33.63819 31.79746
# Shear Modulus (GPa) = 9.01282 18.50011 13.75647
#
# Velocity S-wave (km/s) = 1.90636 2.73125 2.35520
# Velocity P-wave (km/s) = 4.11399 4.84871 4.49638
#
# Compressibility (1/GPa) = 0.03338148
#
# Stress axis : x y z
#
# Youngs Moduli (GPa) = 24.18606 58.13619 99.48151
#
# Poissons Ratio (x) = 0.80115 0.60885
# Poissons Ratio (y) = 0.33330 -0.22801
# Poissons Ratio (z) = 0.14802 -0.13325
#
# Static dielectric constant tensor:
#      x y z
#    x 2.156820 0.000000 0.000000 
#    y 0.000000 1.986920 0.000000 
#    z 0.000000 0.000000 1.991640 
# 
# From -- ./inp_files/10884.got.cif
#   From: 2010.05.17/outbox.cif.g08.bks.cpg/sg56_6_cif.got.tgz:10884.got - 2010.06.03 13:42:01.
