data_PCOD9431605
_publ_section_title
;
Structure prediction by ZEFSAII (Michael W. Deem and Ramdas Pophale) SiO2 
 PCOD9431605
Probable space group: P C C N
;
_chemical_formula_sum "Si O2"
_cell_formula_units_Z 40
_cell_length_a 14.218331
_cell_length_b 10.081109
_cell_length_c 10.947398
_cell_angle_alpha 90.000000
_cell_angle_beta 90.000000
_cell_angle_gamma 90.000000
_cell_volume 1569.162202
_symmetry_space_group_name_H-M "P C C N"
_symmetry_group_IT_number 56
_symmetry_cell_setting 'orthorhombic'
loop_
_space_group_symop_operation_xyz
x,y,z
1/2-x,1/2-y,z
1/2+x,-y,1/2-z
-x,1/2+y,1/2-z
-x,-y,-z
1/2+x,1/2+y,-z
1/2-x,y,1/2+z
x,1/2-y,1/2+z
loop_
_atom_site_type_symbol
_atom_site_label
_atom_site_fract_x
_atom_site_fract_y
_atom_site_fract_z
Si Si1 0.250000 0.750000 0.298968
Si Si2 0.898354 0.132549 0.056299
Si Si3 0.004742 0.527869 0.763306
Si Si4 0.042184 0.232465 0.370797
Si Si5 0.211689 0.992550 0.151576
Si Si6 0.250000 0.250000 0.792149
O O1 0.339996 0.746609 0.385987
O O2 0.268055 0.871477 0.209206
O O3 0.942035 0.038841 0.157754
O O4 0.819701 0.043876 0.984858
O O5 0.981119 0.188203 0.970405
O O6 0.002565 0.417734 0.869507
O O7 0.111619 0.514007 0.719516
O O8 0.978440 0.683489 0.755635
O O9 0.155749 0.234456 0.374285
O O10 0.258078 0.126105 0.198860
#
# Coordination Sequence:
#
# PCOD9431605 Si02
#       6
#     4   8   8   8   8   4
#     4  12  24  40  66  98 128 166 218 264 312 382
#     4  11  22  40  66  93 123 171 213 257 319 383
#     4  10  21  40  62  86 121 165 207 256 318 372
#     4  10  21  40  63  90 127 168 210 261 314 375
#     4  10  22  41  63  91 127 166 212 264 315 375
#     4  10  22  40  62  92 130 168 210 268 322 368
#
# _framework density 25.491309999999999
#
# number of rings (size 3 to 8) (size 9 to 14) (size 15 to 20)
#    0.000    1.600    0.000    6.600    0.000    1.600 
#    0.000   31.000    0.000    0.000    0.000    1.400 
#    0.000    0.000    0.000    0.000    0.000    0.000 
#
# Total GULP energy -223416.792823 kJ/mol
# GULP energy per Si atom -5585.419821 kJ/mol
# Density = 2.543329 g / cm^3
# Si number density = 25.491310 Si / 1000 Ang^3
#
#
#
# Elastic Constant Matrix: (Units=GPa)
#
#
# Indices 1 2 3 4 5 6 
#
# 1 113.6774 -6.2822 37.6482 0.0000 0.0000 0.0000
# 2 -6.2822 121.1728 23.5480 0.0000 0.0000 0.0000
# 3 37.6482 23.5480 58.3291 0.0000 0.0000 0.0000
# 4 0.0000 0.0000 0.0000 19.6867 0.0000 0.0000
# 5 0.0000 0.0000 0.0000 0.0000 37.7801 0.0000
# 6 0.0000 0.0000 0.0000 0.0000 0.0000 37.9652
#
#
#
# Elastic Compliance Matrix: (Units=1/GPa)
#
#
# Indices 1 2 3 4 5 6 
#
# 1 0.011731 0.002257 -0.008483 0.000000 0.000000 0.000000
# 2 0.002257 0.009389 -0.005247 0.000000 0.000000 0.000000
# 3 -0.008483 -0.005247 0.024737 0.000000 0.000000 0.000000
# 4 0.000000 0.000000 0.000000 0.050796 0.000000 0.000000
# 5 0.000000 0.000000 0.000000 0.000000 0.026469 0.000000
# 6 0.000000 0.000000 0.000000 0.000000 0.000000 0.026340
#
#
# Mechanical properties :
#
#
# Convention : Reuss Voigt Hill
#
# Bulk Modulus (GPa) = 43.64626 44.77861 44.21243
# Shear Modulus (GPa) = 27.77074 34.97076 31.37075
#
# Velocity S-wave (km/s) = 3.30422 3.70789 3.51186
# Velocity P-wave (km/s) = 5.63172 5.99464 5.81601
#
# Compressibility (1/GPa) = 0.02291147
#
# Stress axis : x y z
#
# Youngs Moduli (GPa) = 85.24522 106.50341 40.42448
#
# Poissons Ratio (x) = -0.24034 0.34291
# Poissons Ratio (y) = -0.19237 0.21211
# Poissons Ratio (z) = 0.72311 0.55884
#
# Static dielectric constant tensor:
#      x y z
#    x 2.075380 0.000000 0.000000 
#    y 0.000000 2.133820 0.000000 
#    z 0.000000 0.000000 2.068770 
# 
# From -- ./inp_files/7035.got.cif
#   From: 2010.05.17/outbox.cif.g08.bks.cpg/sg56_4_cif.got.tgz:7035.got - 2010.06.03 13:42:01.
