data_PCOD9431697
_publ_section_title
;
Structure prediction by ZEFSAII (Michael W. Deem and Ramdas Pophale) SiO2 
 PCOD9431697
Probable space group: P C C N
;
_chemical_formula_sum "Si O2"
_cell_formula_units_Z 60
_cell_length_a 12.811063
_cell_length_b 20.058909
_cell_length_c 10.955821
_cell_angle_alpha 90.000000
_cell_angle_beta 90.000000
_cell_angle_gamma 90.000000
_cell_volume 2815.382476
_symmetry_space_group_name_H-M "P C C N"
_symmetry_group_IT_number 56
_symmetry_cell_setting 'orthorhombic'
loop_
_space_group_symop_operation_xyz
x,y,z
1/2-x,1/2-y,z
1/2+x,-y,1/2-z
-x,1/2+y,1/2-z
-x,-y,-z
1/2+x,1/2+y,-z
1/2-x,y,1/2+z
x,1/2-y,1/2+z
loop_
_atom_site_type_symbol
_atom_site_label
_atom_site_fract_x
_atom_site_fract_y
_atom_site_fract_z
Si Si1 0.928151 0.287125 0.069402
Si Si2 0.062415 0.635511 0.513977
Si Si3 0.891935 0.860761 0.587510
Si Si4 0.232072 0.672786 0.116698
Si Si5 0.750000 0.750000 0.204922
Si Si6 0.572357 0.088484 0.744165
Si Si7 0.914212 0.533779 0.910239
Si Si8 0.056455 0.159673 0.758663
O O1 0.957511 0.298619 0.209229
O O2 0.924144 0.209559 0.041409
O O3 0.827953 0.324232 0.014631
O O4 0.023334 0.319890 0.992508
O O5 0.165258 0.628538 0.597481
O O6 0.060929 0.584995 0.401148
O O7 0.961647 0.641132 0.600706
O O8 0.808809 0.807173 0.629676
O O9 0.847457 0.921977 0.506329
O O10 0.959846 0.891207 0.698702
O O11 0.250000 0.750000 0.146083
O O12 0.154885 0.644466 0.217485
O O13 0.842689 0.793594 0.267792
O O14 0.616400 0.025337 0.819652
O O15 0.948734 0.591351 0.816566
O O16 0.000000 0.500000 0.000000
#
# Coordination Sequence:
#
# PCOD9431697 Si02
#       8
#     8   8   8   8   4   8   8   8
#     4   9  19  38  59  87 130 162 205 262 338 398
#     4  11  22  35  61  96 126 164 203 285 333 386
#     4   9  19  40  66  90 127 178 216 274 338 404
#     4   9  21  36  62  94 124 163 214 272 333 402
#     4  12  22  40  64 108 136 164 232 294 332 394
#     4  10  21  41  62  91 132 170 222 266 340 416
#     4   9  21  45  68  85 127 188 220 264 339 420
#     4  11  24  40  65  98 133 170 224 277 343 402
#
# _framework density 21.311492000000001
#
# number of rings (size 3 to 8) (size 9 to 14) (size 15 to 20)
#    0.000    2.133    1.333    1.600    5.600    3.200 
#    7.200    1.333    0.000    0.000    0.000    0.000 
#    0.000    0.000    0.000    0.000    0.000    0.000 
#
# Total GULP energy -334247.070267 kJ/mol
# GULP energy per Si atom -5570.784504 kJ/mol
# Density = 2.126299 g / cm^3
# Si number density = 21.311492 Si / 1000 Ang^3
#
#
#
# Elastic Constant Matrix: (Units=GPa)
#
#
# Indices 1 2 3 4 5 6 
#
# 1 59.6159 21.9084 21.4011 0.0000 0.0000 0.0000
# 2 21.9084 83.8262 25.3892 0.0000 0.0000 0.0000
# 3 21.4011 25.3892 89.0170 0.0000 0.0000 0.0000
# 4 0.0000 0.0000 0.0000 31.6154 0.0000 0.0000
# 5 0.0000 0.0000 0.0000 0.0000 20.1329 0.0000
# 6 0.0000 0.0000 0.0000 0.0000 0.0000 6.2916
#
#
#
# Elastic Compliance Matrix: (Units=1/GPa)
#
#
# Indices 1 2 3 4 5 6 
#
# 1 0.019528 -0.004030 -0.003545 0.000000 0.000000 0.000000
# 2 -0.004030 0.013889 -0.002993 0.000000 0.000000 0.000000
# 3 -0.003545 -0.002993 0.012940 0.000000 0.000000 0.000000
# 4 0.000000 0.000000 0.000000 0.031630 0.000000 0.000000
# 5 0.000000 0.000000 0.000000 0.000000 0.049670 0.000000
# 6 0.000000 0.000000 0.000000 0.000000 0.000000 0.158942
#
#
# Mechanical properties :
#
#
# Convention : Reuss Voigt Hill
#
# Bulk Modulus (GPa) = 39.64967 41.09516 40.37241
# Shear Modulus (GPa) = 15.81572 22.52533 19.17052
#
# Velocity S-wave (km/s) = 2.72715 3.25461 3.00249
# Velocity P-wave (km/s) = 5.34431 5.78345 5.56821
#
# Compressibility (1/GPa) = 0.02522089
#
# Stress axis : x y z
#
# Youngs Moduli (GPa) = 51.20923 71.99911 77.28155
#
# Poissons Ratio (x) = 0.29015 0.27399
# Poissons Ratio (y) = 0.20637 0.23127
# Poissons Ratio (z) = 0.18156 0.21546
#
# Static dielectric constant tensor:
#      x y z
#    x 1.472630 0.000000 0.000000 
#    y 0.000000 1.842930 0.000000 
#    z 0.000000 0.000000 1.857220 
# 
# From -- ./inp_files/7345.got.cif
#   From: 2010.05.17/outbox.cif.g08.bks.cpg/sg56_4_cif.got.tgz:7345.got - 2010.06.03 13:42:01.
