data_PCOD9431413
_publ_section_title
;
Structure prediction by ZEFSAII (Michael W. Deem and Ramdas Pophale) SiO2 
 PCOD9431413
Probable space group: P C C N
;
_chemical_formula_sum "Si O2"
_cell_formula_units_Z 60
_cell_length_a 9.036379
_cell_length_b 12.592584
_cell_length_c 24.386445
_cell_angle_alpha 90.000000
_cell_angle_beta 90.000000
_cell_angle_gamma 90.000000
_cell_volume 2774.966781
_symmetry_space_group_name_H-M "P C C N"
_symmetry_group_IT_number 56
_symmetry_cell_setting 'orthorhombic'
loop_
_space_group_symop_operation_xyz
x,y,z
1/2-x,1/2-y,z
1/2+x,-y,1/2-z
-x,1/2+y,1/2-z
-x,-y,-z
1/2+x,1/2+y,-z
1/2-x,y,1/2+z
x,1/2-y,1/2+z
loop_
_atom_site_type_symbol
_atom_site_label
_atom_site_fract_x
_atom_site_fract_y
_atom_site_fract_z
Si Si1 0.130933 0.173981 0.109425
Si Si2 0.140872 0.854838 0.963716
Si Si3 0.525206 0.298114 0.219600
Si Si4 0.034370 0.418929 0.431942
Si Si5 0.189552 0.926375 0.278974
Si Si6 0.250000 0.250000 0.415708
Si Si7 0.534929 0.880448 0.162923
Si Si8 0.700318 0.052595 0.349870
O O1 0.250000 0.250000 0.085379
O O2 0.989461 0.192284 0.072643
O O3 0.092005 0.203615 0.171647
O O4 0.192168 0.055158 0.114827
O O5 0.250000 0.750000 0.968380
O O6 0.133648 0.972733 0.931935
O O7 0.095079 0.901971 0.022966
O O8 0.608006 0.186243 0.218884
O O9 0.640701 0.394917 0.207977
O O10 0.466520 0.315663 0.280297
O O11 0.147792 0.328398 0.448704
O O12 0.949276 0.394091 0.374459
O O13 0.184874 0.965209 0.215579
O O14 0.108615 0.007414 0.319287
O O15 0.140751 0.177853 0.379317
O O16 0.362570 0.893837 0.144352
#
# Coordination Sequence:
#
# PCOD9431413 Si02
#       8
#     8   8   8   8   8   4   8   8
#     4  11  23  39  64  96 127 172 225 281 337 407
#     4  10  25  47  76  97 131 179 226 293 356 411
#     4  10  22  36  60  91 133 182 216 276 326 397
#     4  10  25  48  70 103 136 175 231 288 351 411
#     4  10  21  38  60  92 136 175 229 261 327 410
#     4  12  28  40  72 100 138 172 234 278 334 422
#     4  11  24  38  64 100 131 185 220 276 331 411
#     4  10  22  42  64  91 138 178 217 276 345 401
#
# _framework density 21.621880999999998
#
# number of rings (size 3 to 8) (size 9 to 14) (size 15 to 20)
#    0.000    1.600    1.333    1.600    9.333    4.267 
#    0.000    0.667    0.000    0.000    0.000    0.000 
#    0.000    0.000    0.000    0.000    0.000    0.000 
#
# Total GULP energy -334089.610395 kJ/mol
# GULP energy per Si atom -5568.160173 kJ/mol
# Density = 2.157267 g / cm^3
# Si number density = 21.621881 Si / 1000 Ang^3
#
#
#
# Elastic Constant Matrix: (Units=GPa)
#
#
# Indices 1 2 3 4 5 6 
#
# 1 62.9818 40.4707 18.0361 0.0000 0.0000 0.0000
# 2 40.4707 91.4635 11.5842 0.0000 0.0000 0.0000
# 3 18.0361 11.5842 46.0969 0.0000 0.0000 0.0000
# 4 0.0000 0.0000 0.0000 25.8115 0.0000 0.0000
# 5 0.0000 0.0000 0.0000 0.0000 -34.2931 0.0000
# 6 0.0000 0.0000 0.0000 0.0000 0.0000 37.2555
#
#
#
# Elastic Compliance Matrix: (Units=1/GPa)
#
#
# Indices 1 2 3 4 5 6 
#
# 1 0.024190 -0.009817 -0.006998 0.000000 0.000000 0.000000
# 2 -0.009817 0.015277 0.000002 0.000000 0.000000 0.000000
# 3 -0.006998 0.000002 0.024431 0.000000 0.000000 0.000000
# 4 0.000000 0.000000 0.000000 0.038742 0.000000 0.000000
# 5 0.000000 0.000000 0.000000 0.000000 -0.029160 0.000000
# 6 0.000000 0.000000 0.000000 0.000000 0.000000 0.026842
#
#
# Mechanical properties :
#
#
# Convention : Reuss Voigt Hill
#
# Bulk Modulus (GPa) = 33.03375 37.85827 35.44601
# Shear Modulus (GPa) = 34.71314 14.45151 24.58232
#
# Velocity S-wave (km/s) = 4.01117 2.58810 3.37548
# Velocity P-wave (km/s) = 6.06331 5.14570 5.62326
#
# Compressibility (1/GPa) = 0.03027207
#
# Stress axis : x y z
#
# Youngs Moduli (GPa) = 41.33966 65.45784 40.93193
#
# Poissons Ratio (x) = 0.64262 0.28642
# Poissons Ratio (y) = 0.40584 -0.00008
# Poissons Ratio (z) = 0.28928 -0.00013
#
# Static dielectric constant tensor:
#      x y z
#    x 1.828890 0.000000 0.000000 
#    y 0.000000 1.740900 0.000000 
#    z 0.000000 0.000000 1.788770 
# 
# From -- ./inp_files/22109.got.cif
#   From: 2010.05.17/outbox.cif.g08.bks.cpg/sg56_12_cif.got.tgz:22109.got - 2010.06.03 13:42:01.
