data_PCOD9431023
_publ_section_title
;
Structure prediction by ZEFSAII (Michael W. Deem and Ramdas Pophale) SiO2 
 PCOD9431023
Probable space group: P C C N
;
_chemical_formula_sum "Si O2"
_cell_formula_units_Z 48
_cell_length_a 14.197155
_cell_length_b 10.535654
_cell_length_c 18.240752
_cell_angle_alpha 90.000000
_cell_angle_beta 90.000000
_cell_angle_gamma 90.000000
_cell_volume 2728.384428
_symmetry_space_group_name_H-M "P C C N"
_symmetry_group_IT_number 56
_symmetry_cell_setting 'orthorhombic'
loop_
_space_group_symop_operation_xyz
x,y,z
1/2-x,1/2-y,z
1/2+x,-y,1/2-z
-x,1/2+y,1/2-z
-x,-y,-z
1/2+x,1/2+y,-z
1/2-x,y,1/2+z
x,1/2-y,1/2+z
loop_
_atom_site_type_symbol
_atom_site_label
_atom_site_fract_x
_atom_site_fract_y
_atom_site_fract_z
Si Si1 0.349952 0.967237 0.149077
Si Si2 0.977827 0.704848 0.871997
Si Si3 0.613827 0.332362 0.501063
Si Si4 0.814433 0.874531 0.921323
Si Si5 0.656009 0.167317 0.695683
Si Si6 0.307043 0.560567 0.953559
O O1 0.418588 0.087415 0.158071
O O2 0.248606 0.024861 0.124323
O O3 0.387321 0.880334 0.082061
O O4 0.345156 0.891016 0.224100
O O5 0.908395 0.824184 0.882933
O O6 0.065631 0.746424 0.822567
O O7 0.019124 0.662817 0.951417
O O8 0.694556 0.418240 0.539805
O O9 0.648824 0.187053 0.509093
O O10 0.750000 0.750000 0.932106
O O11 0.835474 0.940292 0.998802
O O12 0.750000 0.250000 0.686197
O O13 0.660803 0.063609 0.630363
#
# Coordination Sequence:
#
# PCOD9431023 Si02
#       6
#     8   8   8   8   8   8
#     4  10  22  36  58  84 116 151 184 235 288 341
#     4  10  20  40  56  84 114 146 191 239 281 335
#     4   9  17  34  60  81 105 144 196 227 274 332
#     4   9  20  37  59  81 113 149 191 237 286 337
#     4  11  22  37  57  84 119 151 185 232 290 333
#     4   9  17  36  56  83 109 146 187 234 274 337
#
# _framework density 17.592828999999998
#
# number of rings (size 3 to 8) (size 9 to 14) (size 15 to 20)
#    0.000    2.333    3.333    0.500    4.667    4.000 
#    3.000    2.500    0.000    0.000    0.000    0.000 
#    0.000    0.000    0.000    0.000    0.000    0.000 
#
# Total GULP energy -267634.070798 kJ/mol
# GULP energy per Si atom -5575.709808 kJ/mol
# Density = 1.755279 g / cm^3
# Si number density = 17.592829 Si / 1000 Ang^3
#
#
#
# Elastic Constant Matrix: (Units=GPa)
#
#
# Indices 1 2 3 4 5 6 
#
# 1 79.2482 13.5118 18.7216 0.0000 0.0000 0.0000
# 2 13.5118 36.6185 34.6839 0.0000 0.0000 0.0000
# 3 18.7216 34.6839 118.9950 0.0000 0.0000 0.0000
# 4 0.0000 0.0000 0.0000 28.3929 0.0000 0.0000
# 5 0.0000 0.0000 0.0000 0.0000 9.0568 0.0000
# 6 0.0000 0.0000 0.0000 0.0000 0.0000 6.8000
#
#
#
# Elastic Compliance Matrix: (Units=1/GPa)
#
#
# Indices 1 2 3 4 5 6 
#
# 1 0.013540 -0.004114 -0.000931 0.000000 0.000000 0.000000
# 2 -0.004114 0.038973 -0.010712 0.000000 0.000000 0.000000
# 3 -0.000931 -0.010712 0.011673 0.000000 0.000000 0.000000
# 4 0.000000 0.000000 0.000000 0.035220 0.000000 0.000000
# 5 0.000000 0.000000 0.000000 0.000000 0.110414 0.000000
# 6 0.000000 0.000000 0.000000 0.000000 0.000000 0.147059
#
#
# Mechanical properties :
#
#
# Convention : Reuss Voigt Hill
#
# Bulk Modulus (GPa) = 30.60872 40.96623 35.78748
# Shear Modulus (GPa) = 12.52242 20.04623 16.28432
#
# Velocity S-wave (km/s) = 2.67084 3.37924 3.04571
# Velocity P-wave (km/s) = 5.19108 6.20983 5.72317
#
# Compressibility (1/GPa) = 0.03267043
#
# Stress axis : x y z
#
# Youngs Moduli (GPa) = 73.85519 25.65875 85.67101
#
# Poissons Ratio (x) = 0.10557 0.07977
# Poissons Ratio (y) = 0.30386 0.91774
# Poissons Ratio (z) = 0.06877 0.27486
#
# Static dielectric constant tensor:
#      x y z
#    x 1.626100 0.000000 0.000000 
#    y 0.000000 1.591030 0.000000 
#    z 0.000000 0.000000 1.585500 
# 
# From -- ./inp_files/16251.got.cif
#   From: 2010.05.17/outbox.cif.g08.bks.cpg/sg56_9_cif.got.tgz:16251.got - 2010.06.03 13:42:01.
