data_PCOD9431784
_publ_section_title
;
Structure prediction by ZEFSAII (Michael W. Deem and Ramdas Pophale) SiO2 
 PCOD9431784
Probable space group: P C C N
;
_chemical_formula_sum "Si O2"
_cell_formula_units_Z 64
_cell_length_a 9.991271
_cell_length_b 29.193014
_cell_length_c 8.822305
_cell_angle_alpha 90.000000
_cell_angle_beta 90.000000
_cell_angle_gamma 90.000000
_cell_volume 2573.248583
_symmetry_space_group_name_H-M "P C C N"
_symmetry_group_IT_number 56
_symmetry_cell_setting 'orthorhombic'
loop_
_space_group_symop_operation_xyz
x,y,z
1/2-x,1/2-y,z
1/2+x,-y,1/2-z
-x,1/2+y,1/2-z
-x,-y,-z
1/2+x,1/2+y,-z
1/2-x,y,1/2+z
x,1/2-y,1/2+z
loop_
_atom_site_type_symbol
_atom_site_label
_atom_site_fract_x
_atom_site_fract_y
_atom_site_fract_z
Si Si1 0.091092 0.931449 0.887200
Si Si2 0.652264 0.058344 0.269438
Si Si3 0.848533 0.708383 0.887928
Si Si4 0.444270 0.113461 0.070729
Si Si5 0.986414 0.755819 0.115598
Si Si6 0.660513 0.176475 0.892719
Si Si7 0.917891 0.528236 0.125913
Si Si8 0.434890 0.663957 0.945597
O O1 0.217948 0.914391 0.787510
O O2 0.006579 0.886309 0.928081
O O3 0.008366 0.962420 0.773626
O O4 0.139008 0.948340 0.051504
O O5 0.522345 0.083910 0.199843
O O6 0.684057 0.009180 0.190257
O O7 0.750000 0.750000 0.845678
O O8 0.843752 0.653320 0.871493
O O9 0.973689 0.723076 0.780482
O O10 0.878661 0.717702 0.065353
O O11 0.562412 0.141170 0.981465
O O12 0.381765 0.075988 0.954887
O O13 0.119982 0.728926 0.070636
O O14 0.962728 0.799044 0.006496
O O15 0.624250 0.177110 0.715989
O O16 0.811529 0.164193 0.935975
O O17 0.000000 0.500000 0.000000
#
# Coordination Sequence:
#
# PCOD9431784 Si02
#       8
#     8   8   8   8   8   8   8   8
#     4  12  22  39  67 104 136 175 219 269 348 416
#     4  11  22  39  68  99 140 176 220 280 347 422
#     4  11  24  44  69  88 128 180 238 284 334 388
#     4  10  21  42  65  99 128 181 226 286 343 407
#     4  11  24  41  63  94 132 175 224 277 337 397
#     4  11  23  37  60  97 138 171 212 267 343 406
#     4  10  22  41  68  94 139 176 218 282 341 408
#     4  12  23  37  64  98 137 171 213 269 340 413
#
# _framework density 24.871286000000001
#
# number of rings (size 3 to 8) (size 9 to 14) (size 15 to 20)
#    0.000    1.000    3.750    4.125    3.500    1.000 
#    0.000    0.000   35.750    0.000    0.000    0.000 
#    0.000    0.000    0.000    0.000    0.000    0.000 
#
# Total GULP energy -357045.700081 kJ/mol
# GULP energy per Si atom -5578.839064 kJ/mol
# Density = 2.481468 g / cm^3
# Si number density = 24.871286 Si / 1000 Ang^3
#
#
#
# Elastic Constant Matrix: (Units=GPa)
#
#
# Indices 1 2 3 4 5 6 
#
# 1 26.3381 22.0222 6.0391 0.0000 0.0000 0.0000
# 2 22.0222 151.8320 38.3356 0.0000 0.0000 0.0000
# 3 6.0391 38.3356 152.5905 0.0000 0.0000 0.0000
# 4 0.0000 0.0000 0.0000 44.6339 0.0000 0.0000
# 5 0.0000 0.0000 0.0000 0.0000 26.4523 0.0000
# 6 0.0000 0.0000 0.0000 0.0000 0.0000 35.8285
#
#
#
# Elastic Compliance Matrix: (Units=1/GPa)
#
#
# Indices 1 2 3 4 5 6 
#
# 1 0.043211 -0.006231 -0.000145 0.000000 0.000000 0.000000
# 2 -0.006231 0.007931 -0.001746 0.000000 0.000000 0.000000
# 3 -0.000145 -0.001746 0.006998 0.000000 0.000000 0.000000
# 4 0.000000 0.000000 0.000000 0.022404 0.000000 0.000000
# 5 0.000000 0.000000 0.000000 0.000000 0.037804 0.000000
# 6 0.000000 0.000000 0.000000 0.000000 0.000000 0.027911
#
#
# Mechanical properties :
#
#
# Convention : Reuss Voigt Hill
#
# Bulk Modulus (GPa) = 23.86836 51.50604 37.68720
# Shear Modulus (GPa) = 28.33387 39.00718 33.67052
#
# Velocity S-wave (km/s) = 3.37889 3.96455 3.68338
# Velocity P-wave (km/s) = 4.98399 6.45840 5.76849
#
# Compressibility (1/GPa) = 0.04189647
#
# Stress axis : x y z
#
# Youngs Moduli (GPa) = 23.14231 126.09088 142.90142
#
# Poissons Ratio (x) = 0.78566 0.02068
# Poissons Ratio (y) = 0.14420 0.24949
# Poissons Ratio (z) = 0.00335 0.22014
#
# Static dielectric constant tensor:
#      x y z
#    x 2.047870 0.000000 0.000000 
#    y 0.000000 2.075630 0.000000 
#    z 0.000000 0.000000 1.954670 
# 
# From -- ./inp_files/2974.got.cif
#   From: 2010.05.17/outbox.cif.g08.bks.cpg/sg56_2_cif.got.tgz:2974.got - 2010.06.03 13:42:01.
