data_PCOD9431850
_publ_section_title
;
Structure prediction by ZEFSAII (Michael W. Deem and Ramdas Pophale) SiO2 
 PCOD9431850
Probable space group: P C C N
;
_chemical_formula_sum "Si O2"
_cell_formula_units_Z 60
_cell_length_a 8.868213
_cell_length_b 22.432886
_cell_length_c 14.463010
_cell_angle_alpha 90.000000
_cell_angle_beta 90.000000
_cell_angle_gamma 90.000000
_cell_volume 2877.265587
_symmetry_space_group_name_H-M "P C C N"
_symmetry_group_IT_number 56
_symmetry_cell_setting 'orthorhombic'
loop_
_space_group_symop_operation_xyz
x,y,z
1/2-x,1/2-y,z
1/2+x,-y,1/2-z
-x,1/2+y,1/2-z
-x,-y,-z
1/2+x,1/2+y,-z
1/2-x,y,1/2+z
x,1/2-y,1/2+z
loop_
_atom_site_type_symbol
_atom_site_label
_atom_site_fract_x
_atom_site_fract_y
_atom_site_fract_z
Si Si1 0.843157 0.123568 0.052572
Si Si2 0.106041 0.158594 0.395680
Si Si3 0.023638 0.076663 0.224736
Si Si4 0.250000 0.750000 0.376159
Si Si5 0.918481 0.239005 0.806503
Si Si6 0.147598 0.036054 0.721925
Si Si7 0.971033 0.434152 0.041575
Si Si8 0.940223 0.625556 0.621345
O O1 0.771755 0.189770 0.065335
O O2 0.705924 0.077198 0.052338
O O3 0.948466 0.109173 0.139351
O O4 0.946296 0.115507 0.962718
O O5 0.074568 0.123307 0.301056
O O6 0.285082 0.156900 0.411590
O O7 0.029681 0.221413 0.369658
O O8 0.031867 0.118816 0.476073
O O9 0.175866 0.041202 0.200352
O O10 0.904761 0.031634 0.269574
O O11 0.108634 0.749229 0.303190
O O12 0.750000 0.250000 0.844716
O O13 0.972759 0.171668 0.813278
O O14 0.107715 0.068185 0.819012
O O15 0.054384 0.066824 0.639924
O O16 0.000000 0.500000 0.000000
#
# Coordination Sequence:
#
# PCOD9431850 Si02
#       8
#     8   8   8   4   8   8   8   8
#     4  12  26  44  70 104 140 182 235 287 351 421
#     4  11  23  45  67 102 136 181 224 291 350 411
#     4  11  23  44  71  96 138 179 229 292 346 423
#     4  10  24  42  76 102 132 178 240 278 340 418
#     4  10  21  43  70  95 133 175 229 274 344 408
#     4  11  25  43  69  99 136 182 232 285 355 413
#     4  12  26  42  68 101 138 181 231 288 345 417
#     4  11  26  42  69 102 137 181 228 284 356 414
#
# _framework density 20.853133
#
# number of rings (size 3 to 8) (size 9 to 14) (size 15 to 20)
#    0.400    0.533    2.667    3.600    6.533    2.667 
#    0.000    0.000    0.000    0.000    0.000    0.000 
#    0.000    0.000    0.000    0.000    0.000    0.000 
#
# Total GULP energy -335157.275740 kJ/mol
# GULP energy per Si atom -5585.954596 kJ/mol
# Density = 2.080567 g / cm^3
# Si number density = 20.853133 Si / 1000 Ang^3
#
#
#
# Elastic Constant Matrix: (Units=GPa)
#
#
# Indices 1 2 3 4 5 6 
#
# 1 95.2548 23.3985 23.8746 0.0000 0.0000 0.0000
# 2 23.3985 51.9093 -0.5606 0.0000 0.0000 0.0000
# 3 23.8746 -0.5606 81.4393 0.0000 0.0000 0.0000
# 4 0.0000 0.0000 0.0000 28.4380 0.0000 0.0000
# 5 0.0000 0.0000 0.0000 0.0000 23.7534 0.0000
# 6 0.0000 0.0000 0.0000 0.0000 0.0000 30.6117
#
#
#
# Elastic Compliance Matrix: (Units=1/GPa)
#
#
# Indices 1 2 3 4 5 6 
#
# 1 0.012893 -0.005853 -0.003820 0.000000 0.000000 0.000000
# 2 -0.005853 0.021923 0.001867 0.000000 0.000000 0.000000
# 3 -0.003820 0.001867 0.013412 0.000000 0.000000 0.000000
# 4 0.000000 0.000000 0.000000 0.035164 0.000000 0.000000
# 5 0.000000 0.000000 0.000000 0.000000 0.042099 0.000000
# 6 0.000000 0.000000 0.000000 0.000000 0.000000 0.032667
#
#
# Mechanical properties :
#
#
# Convention : Reuss Voigt Hill
#
# Bulk Modulus (GPa) = 30.66041 35.78092 33.22067
# Shear Modulus (GPa) = 27.07924 28.68667 27.88295
#
# Velocity S-wave (km/s) = 3.60748 3.71300 3.66062
# Velocity P-wave (km/s) = 5.66452 5.96470 5.81655
#
# Compressibility (1/GPa) = 0.03261535
#
# Stress axis : x y z
#
# Youngs Moduli (GPa) = 77.55920 45.61453 74.56102
#
# Poissons Ratio (x) = 0.26698 0.28483
# Poissons Ratio (y) = 0.45396 -0.13919
# Poissons Ratio (z) = 0.29628 -0.08515
#
# Static dielectric constant tensor:
#      x y z
#    x 1.762050 0.000000 0.000000 
#    y 0.000000 1.757510 0.000000 
#    z 0.000000 0.000000 1.743480 
# 
# From -- ./inp_files/10999.got.cif
#   From: 2010.05.17/outbox.cif.g08.bks.cpg/sg56_6_cif.got.tgz:10999.got - 2010.06.03 13:42:01.
