data_PCOD9431187
_publ_section_title
;
Structure prediction by ZEFSAII (Michael W. Deem and Ramdas Pophale) SiO2 
 PCOD9431187
Probable space group: P C C N
;
_chemical_formula_sum "Si O2"
_cell_formula_units_Z 56
_cell_length_a 11.052293
_cell_length_b 13.910747
_cell_length_c 14.165486
_cell_angle_alpha 90.000000
_cell_angle_beta 90.000000
_cell_angle_gamma 90.000000
_cell_volume 2177.881877
_symmetry_space_group_name_H-M "P C C N"
_symmetry_group_IT_number 56
_symmetry_cell_setting 'orthorhombic'
loop_
_space_group_symop_operation_xyz
x,y,z
1/2-x,1/2-y,z
1/2+x,-y,1/2-z
-x,1/2+y,1/2-z
-x,-y,-z
1/2+x,1/2+y,-z
1/2-x,y,1/2+z
x,1/2-y,1/2+z
loop_
_atom_site_type_symbol
_atom_site_label
_atom_site_fract_x
_atom_site_fract_y
_atom_site_fract_z
Si Si1 0.620203 0.298555 0.622729
Si Si2 0.120714 0.992659 0.692044
Si Si3 0.253730 0.525238 0.873688
Si Si4 0.533171 0.372258 0.015806
Si Si5 0.789998 0.860634 0.893836
Si Si6 0.499649 0.661044 0.186866
Si Si7 0.392839 0.143682 0.821262
O O1 0.750000 0.250000 0.614886
O O2 0.641243 0.408301 0.595388
O O3 0.538970 0.236997 0.553820
O O4 0.574801 0.290326 0.729149
O O5 0.182618 0.060415 0.613431
O O6 0.059092 0.070061 0.762854
O O7 0.223671 0.950211 0.761964
O O8 0.020496 0.913422 0.667247
O O9 0.372795 0.564504 0.924795
O O10 0.207618 0.416667 0.877655
O O11 0.395479 0.397920 0.038117
O O12 0.567022 0.372746 0.906632
O O13 0.750000 0.750000 0.912144
O O14 0.850112 0.859565 0.788357
O O15 0.591095 0.745025 0.154678
#
# Coordination Sequence:
#
# PCOD9431187 Si02
#       7
#     8   8   8   8   8   8   8
#     4  10  20  42  70  94 140 191 233 294 357 430
#     4  11  22  42  75 103 136 190 242 291 355 444
#     4  10  22  40  68  99 144 177 235 301 356 420
#     4  11  24  44  68 110 143 186 240 306 358 430
#     4  11  21  43  70  97 146 185 233 294 352 421
#     4  12  24  44  74 103 143 190 245 295 370 423
#     4  11  21  43  73 104 135 197 243 288 359 440
#
# _framework density 25.713056999999999
#
# number of rings (size 3 to 8) (size 9 to 14) (size 15 to 20)
#    0.000    1.143    5.714    0.857    0.000    2.286 
#    5.143    2.143    3.143    0.000    0.000    0.000 
#    0.000    0.000    0.000    0.000    0.000    0.000 
#
# Total GULP energy -313596.631604 kJ/mol
# GULP energy per Si atom -5599.939850 kJ/mol
# Density = 2.565453 g / cm^3
# Si number density = 25.713057 Si / 1000 Ang^3
#
#
#
# Elastic Constant Matrix: (Units=GPa)
#
#
# Indices 1 2 3 4 5 6 
#
# 1 75.3341 27.2000 13.8905 0.0000 0.0000 0.0000
# 2 27.2000 140.1671 7.5045 0.0000 0.0000 0.0000
# 3 13.8905 7.5045 81.2055 0.0000 0.0000 0.0000
# 4 0.0000 0.0000 0.0000 32.8144 0.0000 0.0000
# 5 0.0000 0.0000 0.0000 0.0000 3.0372 0.0000
# 6 0.0000 0.0000 0.0000 0.0000 0.0000 46.0341
#
#
#
# Elastic Compliance Matrix: (Units=1/GPa)
#
#
# Indices 1 2 3 4 5 6 
#
# 1 0.014675 -0.002727 -0.002258 0.000000 0.000000 0.000000
# 2 -0.002727 0.007677 -0.000243 0.000000 0.000000 0.000000
# 3 -0.002258 -0.000243 0.012723 0.000000 0.000000 0.000000
# 4 0.000000 0.000000 0.000000 0.030474 0.000000 0.000000
# 5 0.000000 0.000000 0.000000 0.000000 0.329253 0.000000
# 6 0.000000 0.000000 0.000000 0.000000 0.000000 0.021723
#
#
# Mechanical properties :
#
#
# Convention : Reuss Voigt Hill
#
# Bulk Modulus (GPa) = 40.61959 43.76631 42.19295
# Shear Modulus (GPa) = 11.48930 32.91790 22.20360
#
# Velocity S-wave (km/s) = 2.11612 3.58187 2.94175
# Velocity P-wave (km/s) = 4.66928 5.84503 5.28992
#
# Compressibility (1/GPa) = 0.02461867
#
# Stress axis : x y z
#
# Youngs Moduli (GPa) = 68.14238 130.26753 78.59672
#
# Poissons Ratio (x) = 0.35522 0.17749
# Poissons Ratio (y) = 0.18582 0.01910
# Poissons Ratio (z) = 0.15388 0.03165
#
# Static dielectric constant tensor:
#      x y z
#    x 2.060540 0.000000 0.000000 
#    y 0.000000 2.093580 0.000000 
#    z 0.000000 0.000000 1.992790 
# 
# From -- ./inp_files/11692.got.cif
#   From: 2010.05.17/outbox.cif.g08.bks.cpg/sg56_6_cif.got.tgz:11692.got - 2010.06.03 13:42:01.
