data_PCOD9431704
_publ_section_title
;
Structure prediction by ZEFSAII (Michael W. Deem and Ramdas Pophale) SiO2 
 PCOD9431704
Probable space group: P C C N
;
_chemical_formula_sum "Si O2"
_cell_formula_units_Z 40
_cell_length_a 12.566653
_cell_length_b 5.001543
_cell_length_c 27.631274
_cell_angle_alpha 90.000000
_cell_angle_beta 90.000000
_cell_angle_gamma 90.000000
_cell_volume 1736.698941
_symmetry_space_group_name_H-M "P C C N"
_symmetry_group_IT_number 56
_symmetry_cell_setting 'orthorhombic'
loop_
_space_group_symop_operation_xyz
x,y,z
1/2-x,1/2-y,z
1/2+x,-y,1/2-z
-x,1/2+y,1/2-z
-x,-y,-z
1/2+x,1/2+y,-z
1/2-x,y,1/2+z
x,1/2-y,1/2+z
loop_
_atom_site_type_symbol
_atom_site_label
_atom_site_fract_x
_atom_site_fract_y
_atom_site_fract_z
Si Si1 0.680872 0.484467 0.317071
Si Si2 0.876938 0.753902 0.459781
Si Si3 0.135073 0.711598 0.292000
Si Si4 0.517995 0.728502 0.061380
Si Si5 0.956244 0.699332 0.164162
O O1 0.750000 0.250000 0.339320
O O2 0.656310 0.403186 0.261273
O O3 0.568609 0.448331 0.341977
O O4 0.750000 0.750000 0.319107
O O5 0.750000 0.750000 0.450339
O O6 0.945093 0.533890 0.430222
O O7 0.903906 0.684911 0.515958
O O8 0.933864 0.038005 0.451323
O O9 0.250000 0.750000 0.317070
O O10 0.055908 0.502031 0.317150
O O11 0.094767 0.014105 0.294380
O O12 0.584995 0.798144 0.109413
#
# Coordination Sequence:
#
# PCOD9431704 Si02
#       5
#     8   8   8   8   8
#     4  11  23  40  61  89 124 167 213 252 308 380
#     4  10  21  41  63  84 122 163 194 250 319 378
#     4  11  23  40  61  88 124 166 210 254 314 378
#     4  10  23  39  60  94 119 151 211 252 305 393
#     4  12  23  40  63  91 125 159 204 268 316 361
#
# _framework density 23.032202000000002
#
# number of rings (size 3 to 8) (size 9 to 14) (size 15 to 20)
#    0.000    1.200    0.000    7.200    0.000    4.000 
#    0.000    0.000    0.000    0.000    0.000    0.000 
#    0.000    0.000    0.000    0.000    0.000    0.000 
#
# Total GULP energy -223201.594704 kJ/mol
# GULP energy per Si atom -5580.039868 kJ/mol
# Density = 2.297978 g / cm^3
# Si number density = 23.032202 Si / 1000 Ang^3
#
#
#
# Elastic Constant Matrix: (Units=GPa)
#
#
# Indices 1 2 3 4 5 6 
#
# 1 55.0732 11.9002 -5.2238 0.0000 0.0000 0.0000
# 2 11.9002 122.5650 5.0903 0.0000 0.0000 0.0000
# 3 -5.2238 5.0903 74.9356 0.0000 0.0000 0.0000
# 4 0.0000 0.0000 0.0000 12.0039 0.0000 0.0000
# 5 0.0000 0.0000 0.0000 0.0000 3.3631 0.0000
# 6 0.0000 0.0000 0.0000 0.0000 0.0000 44.7274
#
#
#
# Elastic Compliance Matrix: (Units=1/GPa)
#
#
# Indices 1 2 3 4 5 6 
#
# 1 0.018699 -0.001875 0.001431 0.000000 0.000000 0.000000
# 2 -0.001875 0.008370 -0.000699 0.000000 0.000000 0.000000
# 3 0.001431 -0.000699 0.013492 0.000000 0.000000 0.000000
# 4 0.000000 0.000000 0.000000 0.083306 0.000000 0.000000
# 5 0.000000 0.000000 0.000000 0.000000 0.297341 0.000000
# 6 0.000000 0.000000 0.000000 0.000000 0.000000 0.022358
#
#
# Mechanical properties :
#
#
# Convention : Reuss Voigt Hill
#
# Bulk Modulus (GPa) = 26.12748 30.67858 28.40303
# Shear Modulus (GPa) = 10.90251 28.07269 19.48760
#
# Velocity S-wave (km/s) = 2.17804 3.49498 2.91194
# Velocity P-wave (km/s) = 4.20639 5.44383 4.86462
#
# Compressibility (1/GPa) = 0.03827388
#
# Stress axis : x y z
#
# Youngs Moduli (GPa) = 53.48021 119.47407 74.11777
#
# Poissons Ratio (x) = 0.22400 -0.10605
# Poissons Ratio (y) = 0.10027 0.05183
# Poissons Ratio (z) = -0.07652 0.08354
#
# Static dielectric constant tensor:
#      x y z
#    x 1.898450 0.000000 0.000000 
#    y 0.000000 1.839380 0.000000 
#    z 0.000000 0.000000 1.954930 
# 
# From -- ./inp_files/22171.got.cif
#   From: 2010.05.17/outbox.cif.g08.bks.cpg/sg56_12_cif.got.tgz:22171.got - 2010.06.03 13:42:01.
