data_PCOD9431010
_publ_section_title
;
Structure prediction by ZEFSAII (Michael W. Deem and Ramdas Pophale) SiO2 
 PCOD9431010
Probable space group: P C C N
;
_chemical_formula_sum "Si O2"
_cell_formula_units_Z 48
_cell_length_a 15.455517
_cell_length_b 10.363075
_cell_length_c 12.916187
_cell_angle_alpha 90.000000
_cell_angle_beta 90.000000
_cell_angle_gamma 90.000000
_cell_volume 2068.742814
_symmetry_space_group_name_H-M "P C C N"
_symmetry_group_IT_number 56
_symmetry_cell_setting 'orthorhombic'
loop_
_space_group_symop_operation_xyz
x,y,z
1/2-x,1/2-y,z
1/2+x,-y,1/2-z
-x,1/2+y,1/2-z
-x,-y,-z
1/2+x,1/2+y,-z
1/2-x,y,1/2+z
x,1/2-y,1/2+z
loop_
_atom_site_type_symbol
_atom_site_label
_atom_site_fract_x
_atom_site_fract_y
_atom_site_fract_z
Si Si1 0.266030 0.602933 0.659307
Si Si2 0.146159 0.263216 0.632190
Si Si3 0.574792 0.402764 0.193519
Si Si4 0.841080 0.940831 0.677503
Si Si5 0.491959 0.607615 0.325872
Si Si6 0.188240 0.455763 0.470332
O O1 0.250000 0.750000 0.636682
O O2 0.359129 0.594838 0.710843
O O3 0.199913 0.548068 0.745578
O O4 0.245112 0.526065 0.556631
O O5 0.250000 0.250000 0.630162
O O6 0.129980 0.326411 0.745574
O O7 0.129659 0.355239 0.534052
O O8 0.085047 0.139939 0.623853
O O9 0.510169 0.521782 0.221913
O O10 0.543354 0.254754 0.184732
O O11 0.628206 0.446450 0.092938
O O12 0.920427 0.014262 0.621751
O O13 0.760670 0.898743 0.606800
#
# Coordination Sequence:
#
# PCOD9431010 Si02
#       6
#     8   8   8   8   8   8
#     4  10  20  39  67  99 134 178 237 283 342 419
#     4  11  24  47  72 100 143 187 242 288 347 433
#     4  11  25  45  72 100 143 187 225 292 352 417
#     4  10  22  43  67 101 138 188 225 292 350 414
#     4  12  23  45  69 102 141 183 235 288 350 413
#     4  10  24  42  70 103 135 189 236 281 353 425
#
# _framework density 23.202499
#
# number of rings (size 3 to 8) (size 9 to 14) (size 15 to 20)
#    0.000    1.333    3.333    3.000    2.333    2.667 
#    3.000    1.667    0.000    0.000    0.000    0.000 
#    0.000    0.000    0.000    0.000    0.000    0.000 
#
# Total GULP energy -267869.080775 kJ/mol
# GULP energy per Si atom -5580.605849 kJ/mol
# Density = 2.314969 g / cm^3
# Si number density = 23.202499 Si / 1000 Ang^3
#
#
#
# Elastic Constant Matrix: (Units=GPa)
#
#
# Indices 1 2 3 4 5 6 
#
# 1 76.1247 34.7881 16.9763 0.0000 0.0000 0.0000
# 2 34.7881 109.2113 32.2156 0.0000 0.0000 0.0000
# 3 16.9763 32.2156 75.4269 0.0000 0.0000 0.0000
# 4 0.0000 0.0000 0.0000 12.4207 0.0000 0.0000
# 5 0.0000 0.0000 0.0000 0.0000 11.0725 0.0000
# 6 0.0000 0.0000 0.0000 0.0000 0.0000 49.2460
#
#
#
# Elastic Compliance Matrix: (Units=1/GPa)
#
#
# Indices 1 2 3 4 5 6 
#
# 1 0.015538 -0.004483 -0.001583 0.000000 0.000000 0.000000
# 2 -0.004483 0.011770 -0.004018 0.000000 0.000000 0.000000
# 3 -0.001583 -0.004018 0.015330 0.000000 0.000000 0.000000
# 4 0.000000 0.000000 0.000000 0.080511 0.000000 0.000000
# 5 0.000000 0.000000 0.000000 0.000000 0.090314 0.000000
# 6 0.000000 0.000000 0.000000 0.000000 0.000000 0.020306
#
#
# Mechanical properties :
#
#
# Convention : Reuss Voigt Hill
#
# Bulk Modulus (GPa) = 44.50115 47.63588 46.06852
# Shear Modulus (GPa) = 19.12593 26.33336 22.72965
#
# Velocity S-wave (km/s) = 2.87419 3.37254 3.13328
# Velocity P-wave (km/s) = 5.49870 5.97833 5.74352
#
# Compressibility (1/GPa) = 0.02247133
#
# Stress axis : x y z
#
# Youngs Moduli (GPa) = 64.35950 84.96382 65.23065
#
# Poissons Ratio (x) = 0.38086 0.10323
# Poissons Ratio (y) = 0.28850 0.26210
# Poissons Ratio (z) = 0.10185 0.34139
#
# Static dielectric constant tensor:
#      x y z
#    x 1.974460 0.000000 0.000000 
#    y 0.000000 1.839750 0.000000 
#    z 0.000000 0.000000 1.867680 
# 
# From -- ./inp_files/8290.got.cif
#   From: 2010.05.17/outbox.cif.g08.bks.cpg/sg56_5_cif.got.tgz:8290.got - 2010.06.03 13:42:01.
