data_PCOD9431375
_publ_section_title
;
Structure prediction by ZEFSAII (Michael W. Deem and Ramdas Pophale) SiO2 
 PCOD9431375
Probable space group: P C C N
;
_chemical_formula_sum "Si O2"
_cell_formula_units_Z 40
_cell_length_a 5.103927
_cell_length_b 24.812312
_cell_length_c 14.445594
_cell_angle_alpha 90.000000
_cell_angle_beta 90.000000
_cell_angle_gamma 90.000000
_cell_volume 1829.393334
_symmetry_space_group_name_H-M "P C C N"
_symmetry_group_IT_number 56
_symmetry_cell_setting 'orthorhombic'
loop_
_space_group_symop_operation_xyz
x,y,z
1/2-x,1/2-y,z
1/2+x,-y,1/2-z
-x,1/2+y,1/2-z
-x,-y,-z
1/2+x,1/2+y,-z
1/2-x,y,1/2+z
x,1/2-y,1/2+z
loop_
_atom_site_type_symbol
_atom_site_label
_atom_site_fract_x
_atom_site_fract_y
_atom_site_fract_z
Si Si1 0.999121 0.523611 0.198293
Si Si2 0.390688 0.604393 0.033654
Si Si3 0.494761 0.285780 0.886032
Si Si4 0.634498 0.886021 0.722555
Si Si5 0.606251 0.567799 0.426212
O O1 0.732282 0.494052 0.234001
O O2 0.915385 0.586013 0.202507
O O3 0.061750 0.494238 0.102132
O O4 0.109155 0.591252 0.994490
O O5 0.608944 0.577017 0.969310
O O6 0.434045 0.668871 0.038026
O O7 0.453408 0.588558 0.140400
O O8 0.750000 0.250000 0.865570
O O9 0.394556 0.323014 0.800196
O O10 0.250000 0.250000 0.915726
O O11 0.577697 0.900892 0.827918
#
# Coordination Sequence:
#
# PCOD9431375 Si02
#       5
#     8   8   8   8   8
#     4  10  21  37  62  94 132 170 202 258 312 376
#     4  10  24  38  65  90 123 164 209 257 311 371
#     4  10  22  43  63  86 124 161 208 270 319 361
#     4   9  24  41  65  91 131 163 209 259 313 375
#     4  11  21  41  63  95 127 163 208 252 314 389
#
# _framework density 21.865172000000001
#
# number of rings (size 3 to 8) (size 9 to 14) (size 15 to 20)
#    1.200    0.800    0.000    3.600    0.000   11.200 
#    0.000    6.000    0.000    0.000    0.000    0.000 
#    0.000    0.000    0.000    0.000    0.000    0.000 
#
# Total GULP energy -223326.840994 kJ/mol
# GULP energy per Si atom -5583.171025 kJ/mol
# Density = 2.181541 g / cm^3
# Si number density = 21.865172 Si / 1000 Ang^3
#
#
#
# Elastic Constant Matrix: (Units=GPa)
#
#
# Indices 1 2 3 4 5 6 
#
# 1 78.4211 33.7826 -6.2943 0.0000 0.0000 0.0000
# 2 33.7826 130.5125 14.6871 0.0000 0.0000 0.0000
# 3 -6.2943 14.6871 95.3271 0.0000 0.0000 0.0000
# 4 0.0000 0.0000 0.0000 20.9007 0.0000 0.0000
# 5 0.0000 0.0000 0.0000 0.0000 35.5661 0.0000
# 6 0.0000 0.0000 0.0000 0.0000 0.0000 39.2896
#
#
#
# Elastic Compliance Matrix: (Units=1/GPa)
#
#
# Indices 1 2 3 4 5 6 
#
# 1 0.014580 -0.003951 0.001571 0.000000 0.000000 0.000000
# 2 -0.003951 0.008868 -0.001627 0.000000 0.000000 0.000000
# 3 0.001571 -0.001627 0.010845 0.000000 0.000000 0.000000
# 4 0.000000 0.000000 0.000000 0.047845 0.000000 0.000000
# 5 0.000000 0.000000 0.000000 0.000000 0.028117 0.000000
# 6 0.000000 0.000000 0.000000 0.000000 0.000000 0.025452
#
#
# Mechanical properties :
#
#
# Convention : Reuss Voigt Hill
#
# Bulk Modulus (GPa) = 38.05292 43.17906 40.61599
# Shear Modulus (GPa) = 32.79142 36.62364 34.70753
#
# Velocity S-wave (km/s) = 3.87681 4.09709 3.98847
# Velocity P-wave (km/s) = 6.12215 6.49402 6.31082
#
# Compressibility (1/GPa) = 0.02627920
#
# Stress axis : x y z
#
# Youngs Moduli (GPa) = 68.58855 112.76713 92.21139
#
# Poissons Ratio (x) = 0.44551 -0.14490
# Poissons Ratio (y) = 0.27097 0.15004
# Poissons Ratio (z) = -0.10778 0.18349
#
# Static dielectric constant tensor:
#      x y z
#    x 1.821240 0.000000 0.000000 
#    y 0.000000 1.861280 0.000000 
#    z 0.000000 0.000000 1.825520 
# 
# From -- ./inp_files/9596.got.cif
#   From: 2010.05.17/outbox.cif.g08.bks.cpg/sg56_5_cif.got.tgz:9596.got - 2010.06.03 13:42:01.
