data_PCOD9431712
_publ_section_title
;
Structure prediction by ZEFSAII (Michael W. Deem and Ramdas Pophale) SiO2 
 PCOD9431712
Probable space group: P C C N
;
_chemical_formula_sum "Si O2"
_cell_formula_units_Z 24
_cell_length_a 9.388155
_cell_length_b 10.468942
_cell_length_c 9.087990
_cell_angle_alpha 90.000000
_cell_angle_beta 90.000000
_cell_angle_gamma 90.000000
_cell_volume 893.204465
_symmetry_space_group_name_H-M "P C C N"
_symmetry_group_IT_number 56
_symmetry_cell_setting 'orthorhombic'
loop_
_space_group_symop_operation_xyz
x,y,z
1/2-x,1/2-y,z
1/2+x,-y,1/2-z
-x,1/2+y,1/2-z
-x,-y,-z
1/2+x,1/2+y,-z
1/2-x,y,1/2+z
x,1/2-y,1/2+z
loop_
_atom_site_type_symbol
_atom_site_label
_atom_site_fract_x
_atom_site_fract_y
_atom_site_fract_z
Si Si1 0.405973 0.198651 0.456692
Si Si2 0.400570 0.500108 0.191262
Si Si3 0.664815 0.371183 0.513753
O O1 0.250000 0.250000 0.424675
O O2 0.458913 0.079711 0.357834
O O3 0.525856 0.306267 0.445592
O O4 0.410146 0.141007 0.623330
O O5 0.374920 0.530697 0.359730
O O6 0.267794 0.563505 0.103657
O O7 0.750000 0.250000 0.580721
#
# Coordination Sequence:
#
# PCOD9431712 Si02
#       3
#     8   8   8
#     4  10  23  39  62  95 127 163 210 258 311 371
#     4  10  23  42  63  92 127 165 211 258 310 374
#     4  10  21  41  64  88 126 167 207 259 314 369
#
# _framework density 26.869546
#
# number of rings (size 3 to 8) (size 9 to 14) (size 15 to 20)
#    0.000    2.000    0.000    3.000    0.000   13.333 
#    0.000    0.000    0.000    0.000    0.000    0.000 
#    0.000    0.000    0.000    0.000    0.000    0.000 
#
# Total GULP energy -134833.747197 kJ/mol
# GULP energy per Si atom -5618.072800 kJ/mol
# Density = 2.680839 g / cm^3
# Si number density = 26.869546 Si / 1000 Ang^3
#
#
#
# Elastic Constant Matrix: (Units=GPa)
#
#
# Indices 1 2 3 4 5 6 
#
# 1 197.3950 48.3861 5.7777 0.0000 0.0000 0.0000
# 2 48.3861 94.8830 6.0108 0.0000 0.0000 0.0000
# 3 5.7777 6.0108 53.1369 0.0000 0.0000 0.0000
# 4 0.0000 0.0000 0.0000 28.6602 0.0000 0.0000
# 5 0.0000 0.0000 0.0000 0.0000 29.4431 0.0000
# 6 0.0000 0.0000 0.0000 0.0000 0.0000 44.8694
#
#
#
# Elastic Compliance Matrix: (Units=1/GPa)
#
#
# Indices 1 2 3 4 5 6 
#
# 1 0.005794 -0.002936 -0.000298 0.000000 0.000000 0.000000
# 2 -0.002936 0.012103 -0.001050 0.000000 0.000000 0.000000
# 3 -0.000298 -0.001050 0.018970 0.000000 0.000000 0.000000
# 4 0.000000 0.000000 0.000000 0.034892 0.000000 0.000000
# 5 0.000000 0.000000 0.000000 0.000000 0.033964 0.000000
# 6 0.000000 0.000000 0.000000 0.000000 0.000000 0.022287
#
#
# Mechanical properties :
#
#
# Convention : Reuss Voigt Hill
#
# Bulk Modulus (GPa) = 35.33529 51.75158 43.54343
# Shear Modulus (GPa) = 34.24394 39.61055 36.92725
#
# Velocity S-wave (km/s) = 3.57382 3.84367 3.71120
# Velocity P-wave (km/s) = 5.49625 6.24504 5.88257
#
# Compressibility (1/GPa) = 0.02830032
#
# Stress axis : x y z
#
# Youngs Moduli (GPa) = 172.58075 82.62384 52.71355
#
# Poissons Ratio (x) = 0.24258 0.01570
# Poissons Ratio (y) = 0.50670 0.05534
# Poissons Ratio (z) = 0.05141 0.08674
#
# Static dielectric constant tensor:
#      x y z
#    x 2.066950 0.000000 0.000000 
#    y 0.000000 2.093540 0.000000 
#    z 0.000000 0.000000 2.098840 
# 
# From -- ./inp_files/1781.got.cif
#   From: 2010.05.17/outbox.cif.g08.bks.cpg/sg56_1_cif.got.tgz:1781.got - 2010.06.03 13:42:01.
