data_PCOD9431977
_publ_section_title
;
Structure prediction by ZEFSAII (Michael W. Deem and Ramdas Pophale) SiO2 
 PCOD9431977
Probable space group: P C C N
;
_chemical_formula_sum "Si O2"
_cell_formula_units_Z 40
_cell_length_a 7.450237
_cell_length_b 13.322771
_cell_length_c 15.502059
_cell_angle_alpha 90.000000
_cell_angle_beta 90.000000
_cell_angle_gamma 90.000000
_cell_volume 1538.700294
_symmetry_space_group_name_H-M "P C C N"
_symmetry_group_IT_number 56
_symmetry_cell_setting 'orthorhombic'
loop_
_space_group_symop_operation_xyz
x,y,z
1/2-x,1/2-y,z
1/2+x,-y,1/2-z
-x,1/2+y,1/2-z
-x,-y,-z
1/2+x,1/2+y,-z
1/2-x,y,1/2+z
x,1/2-y,1/2+z
loop_
_atom_site_type_symbol
_atom_site_label
_atom_site_fract_x
_atom_site_fract_y
_atom_site_fract_z
Si Si1 0.514939 0.757250 0.083585
Si Si2 0.849154 0.425302 0.318651
Si Si3 0.810064 0.053151 0.486337
Si Si4 0.573405 0.178541 0.592984
Si Si5 0.041598 0.120480 0.266777
O O1 0.468510 0.665713 0.147197
O O2 0.362551 0.835969 0.049840
O O3 0.625688 0.832584 0.146451
O O4 0.548410 0.707509 0.990563
O O5 0.793084 0.489615 0.403705
O O6 0.671452 0.376177 0.281005
O O7 0.918505 0.503872 0.248969
O O8 0.676297 0.074320 0.565370
O O9 0.000000 0.000000 0.500000
O O10 0.750000 0.250000 0.608320
O O11 0.446688 0.177557 0.676372
#
# Coordination Sequence:
#
# PCOD9431977 Si02
#       5
#     8   8   8   8   8
#     4   9  20  40  59  91 122 162 219 260 300 396
#     4  10  22  38  62  92 125 163 217 255 319 380
#     4   9  18  34  61  89 122 158 214 257 311 378
#     4   9  18  34  63  88 111 174 213 248 310 387
#     4  11  21  37  65  90 125 162 212 266 312 379
#
# _framework density 25.995967
#
# number of rings (size 3 to 8) (size 9 to 14) (size 15 to 20)
#    0.000    2.400    0.000    7.200    5.600    3.200 
#    0.000    1.000    4.400    0.000    0.000    0.000 
#    0.000    0.000    0.000    0.000    0.000    0.000 
#
# Total GULP energy -222802.497476 kJ/mol
# GULP energy per Si atom -5570.062437 kJ/mol
# Density = 2.593680 g / cm^3
# Si number density = 25.995967 Si / 1000 Ang^3
#
#
#
# Elastic Constant Matrix: (Units=GPa)
#
#
# Indices 1 2 3 4 5 6 
#
# 1 89.0126 28.9726 6.0722 0.0000 0.0000 0.0000
# 2 28.9726 95.1787 29.9381 0.0000 0.0000 0.0000
# 3 6.0722 29.9381 120.4441 0.0000 0.0000 0.0000
# 4 0.0000 0.0000 0.0000 35.8449 0.0000 0.0000
# 5 0.0000 0.0000 0.0000 0.0000 7.5561 0.0000
# 6 0.0000 0.0000 0.0000 0.0000 0.0000 35.3633
#
#
#
# Elastic Compliance Matrix: (Units=1/GPa)
#
#
# Indices 1 2 3 4 5 6 
#
# 1 0.012483 -0.003907 0.000342 0.000000 0.000000 0.000000
# 2 -0.003907 0.012621 -0.002940 0.000000 0.000000 0.000000
# 3 0.000342 -0.002940 0.009016 0.000000 0.000000 0.000000
# 4 0.000000 0.000000 0.000000 0.027898 0.000000 0.000000
# 5 0.000000 0.000000 0.000000 0.000000 0.132344 0.000000
# 6 0.000000 0.000000 0.000000 0.000000 0.000000 0.028278
#
#
# Mechanical properties :
#
#
# Convention : Reuss Voigt Hill
#
# Bulk Modulus (GPa) = 47.37380 48.28902 47.83141
# Shear Modulus (GPa) = 20.60267 31.72969 26.16618
#
# Velocity S-wave (km/s) = 2.81825 3.49744 3.17606
# Velocity P-wave (km/s) = 5.37151 5.90977 5.64706
#
# Compressibility (1/GPa) = 0.02110871
#
# Stress axis : x y z
#
# Youngs Moduli (GPa) = 80.10997 79.23464 110.91193
#
# Poissons Ratio (x) = 0.30960 -0.03792
# Poissons Ratio (y) = 0.31302 0.32609
# Poissons Ratio (z) = -0.02739 0.23296
#
# Static dielectric constant tensor:
#      x y z
#    x 2.149070 0.000000 0.000000 
#    y 0.000000 2.130060 0.000000 
#    z 0.000000 0.000000 2.194010 
# 
# From -- ./inp_files/14407.got.cif
#   From: 2010.05.17/outbox.cif.g08.bks.cpg/sg56_8_cif.got.tgz:14407.got - 2010.06.03 13:42:01.
