data_PCOD9431402
_publ_section_title
;
Structure prediction by ZEFSAII (Michael W. Deem and Ramdas Pophale) SiO2 
 PCOD9431402
Probable space group: P C C N
;
_chemical_formula_sum "Si O2"
_cell_formula_units_Z 48
_cell_length_a 8.169737
_cell_length_b 8.673700
_cell_length_c 33.306395
_cell_angle_alpha 90.000000
_cell_angle_beta 90.000000
_cell_angle_gamma 90.000000
_cell_volume 2360.152694
_symmetry_space_group_name_H-M "P C C N"
_symmetry_group_IT_number 56
_symmetry_cell_setting 'orthorhombic'
loop_
_space_group_symop_operation_xyz
x,y,z
1/2-x,1/2-y,z
1/2+x,-y,1/2-z
-x,1/2+y,1/2-z
-x,-y,-z
1/2+x,1/2+y,-z
1/2-x,y,1/2+z
x,1/2-y,1/2+z
loop_
_atom_site_type_symbol
_atom_site_label
_atom_site_fract_x
_atom_site_fract_y
_atom_site_fract_z
Si Si1 0.688328 0.430883 0.293486
Si Si2 0.182691 0.566965 0.792357
Si Si3 0.198148 0.075142 0.959888
Si Si4 0.697372 0.075517 0.457570
Si Si5 0.304054 0.572906 0.877736
Si Si6 0.693008 0.576796 0.875776
O O1 0.750000 0.250000 0.292514
O O2 0.755630 0.492385 0.250720
O O3 0.504744 0.505229 0.293733
O O4 0.758297 0.487094 0.335826
O O5 0.250000 0.750000 0.793131
O O6 0.252314 0.505754 0.834646
O O7 0.250000 0.250000 0.964283
O O8 0.000393 0.064604 0.958647
O O9 0.261618 0.011239 0.917389
O O10 0.257573 0.986106 0.999475
O O11 0.750000 0.250000 0.452839
O O12 0.759466 0.985634 0.418251
O O13 0.250000 0.750000 0.880006
O O14 0.498588 0.569997 0.878760
O O15 0.750000 0.750000 0.870379
#
# Coordination Sequence:
#
# PCOD9431402 Si02
#       6
#     8   8   8   8   8   8
#     4  11  24  43  67  97 130 169 218 269 324 386
#     4  10  22  42  66  94 129 170 214 264 325 386
#     4  10  22  38  58  86 117 154 199 250 308 370
#     4  10  22  39  59  86 119 156 202 252 306 371
#     4  10  21  38  59  86 120 162 207 253 310 375
#     4  11  22  38  62  91 126 165 210 261 317 381
#
# _framework density 20.337667
#
# number of rings (size 3 to 8) (size 9 to 14) (size 15 to 20)
#    0.000    1.667    0.000    4.500    0.000    7.333 
#    0.000    4.167    0.000    0.000    0.000    0.000 
#    0.000    0.000    0.000    0.000    0.000    0.000 
#
# Total GULP energy -267286.643951 kJ/mol
# GULP energy per Si atom -5568.471749 kJ/mol
# Density = 2.029138 g / cm^3
# Si number density = 20.337667 Si / 1000 Ang^3
#
#
#
# Elastic Constant Matrix: (Units=GPa)
#
#
# Indices 1 2 3 4 5 6 
#
# 1 70.8165 15.2864 32.4453 0.0000 0.0000 0.0000
# 2 15.2864 69.4971 41.8283 0.0000 0.0000 0.0000
# 3 32.4453 41.8283 192.0829 0.0000 0.0000 0.0000
# 4 0.0000 0.0000 0.0000 1833.2161 0.0000 0.0000
# 5 0.0000 0.0000 0.0000 0.0000 25.0095 0.0000
# 6 0.0000 0.0000 0.0000 0.0000 0.0000 31.6148
#
#
#
# Elastic Compliance Matrix: (Units=1/GPa)
#
#
# Indices 1 2 3 4 5 6 
#
# 1 0.015572 -0.002120 -0.002169 0.000000 0.000000 0.000000
# 2 -0.002120 0.016848 -0.003311 0.000000 0.000000 0.000000
# 3 -0.002169 -0.003311 0.006293 0.000000 0.000000 0.000000
# 4 0.000000 0.000000 0.000000 0.000545 0.000000 0.000000
# 5 0.000000 0.000000 0.000000 0.000000 0.039985 0.000000
# 6 0.000000 0.000000 0.000000 0.000000 0.000000 0.031631
#
#
# Mechanical properties :
#
#
# Convention : Reuss Voigt Hill
#
# Bulk Modulus (GPa) = 42.52642 56.83517 49.68080
# Shear Modulus (GPa) = 37.33800 394.15717 215.74759
#
# Velocity S-wave (km/s) = 4.28939 13.93654 10.31082
# Velocity P-wave (km/s) = 6.74444 16.94037 12.89309
#
# Compressibility (1/GPa) = 0.02351479
#
# Stress axis : x y z
#
# Youngs Moduli (GPa) = 64.21689 59.35410 158.89743
#
# Poissons Ratio (x) = 0.12583 0.34460
# Poissons Ratio (y) = 0.13614 0.52607
# Poissons Ratio (z) = 0.13927 0.19651
#
# Static dielectric constant tensor:
#      x y z
#    x 1.777020 0.000000 0.000000 
#    y 0.000000 1.790990 0.000000 
#    z 0.000000 0.000000 1.754530 
# 
# From -- ./inp_files/23218.got.cif
#   From: 2010.05.17/outbox.cif.g08.bks.cpg/sg56_12_cif.got.tgz:23218.got - 2010.06.03 13:42:01.
