data_PCOD9431074
_publ_section_title
;
Structure prediction by ZEFSAII (Michael W. Deem and Ramdas Pophale) SiO2 
 PCOD9431074
Probable space group: P C C N
;
_chemical_formula_sum "Si O2"
_cell_formula_units_Z 36
_cell_length_a 10.164787
_cell_length_b 12.633258
_cell_length_c 14.180873
_cell_angle_alpha 90.000000
_cell_angle_beta 90.000000
_cell_angle_gamma 90.000000
_cell_volume 1821.027967
_symmetry_space_group_name_H-M "P C C N"
_symmetry_group_IT_number 56
_symmetry_cell_setting 'orthorhombic'
loop_
_space_group_symop_operation_xyz
x,y,z
1/2-x,1/2-y,z
1/2+x,-y,1/2-z
-x,1/2+y,1/2-z
-x,-y,-z
1/2+x,1/2+y,-z
1/2-x,y,1/2+z
x,1/2-y,1/2+z
loop_
_atom_site_type_symbol
_atom_site_label
_atom_site_fract_x
_atom_site_fract_y
_atom_site_fract_z
Si Si1 0.349483 0.650996 0.322292
Si Si2 0.792827 0.523648 0.552469
Si Si3 0.418463 0.511131 0.143541
Si Si4 0.250000 0.250000 0.879672
Si Si5 0.393697 0.230071 0.694538
O O1 0.250000 0.750000 0.315436
O O2 0.294088 0.563795 0.394360
O O3 0.370355 0.592208 0.222583
O O4 0.491031 0.700271 0.348765
O O5 0.820330 0.491296 0.445251
O O6 0.737162 0.642029 0.563175
O O7 0.935565 0.529434 0.603276
O O8 0.422429 0.393487 0.186779
O O9 0.370898 0.257696 0.804873
O O10 0.250000 0.250000 0.650824
#
# Coordination Sequence:
#
# PCOD9431074 Si02
#       5
#     8   8   8   4   8
#     4  12  23  42  71  98 131 176 228 278 340 413
#     4  11  24  41  67  97 134 177 224 280 345 398
#     4  11  23  43  64  97 136 174 223 285 336 399
#     4  10  20  40  66  90 128 180 214 266 342 410
#     4  10  21  40  68  92 130 171 214 268 336 398
#
# _framework density 19.769055999999999
#
# number of rings (size 3 to 8) (size 9 to 14) (size 15 to 20)
#    0.667    0.444    6.667    0.000    1.556    0.889 
#    0.000    1.111    0.000    0.000    0.000    0.000 
#    0.000    0.000    0.000    0.000    0.000    0.000 
#
# Total GULP energy -200915.926401 kJ/mol
# GULP energy per Si atom -5580.997956 kJ/mol
# Density = 1.972406 g / cm^3
# Si number density = 19.769056 Si / 1000 Ang^3
#
#
#
# Elastic Constant Matrix: (Units=GPa)
#
#
# Indices 1 2 3 4 5 6 
#
# 1 100.3945 54.5121 45.2692 0.0000 0.0000 0.0000
# 2 54.5121 161.3103 55.2621 0.0000 0.0000 0.0000
# 3 45.2692 55.2621 72.8002 0.0000 0.0000 0.0000
# 4 0.0000 0.0000 0.0000 0.3885 0.0000 0.0000
# 5 0.0000 0.0000 0.0000 0.0000 13.8869 0.0000
# 6 0.0000 0.0000 0.0000 0.0000 0.0000 35.5824
#
#
#
# Elastic Compliance Matrix: (Units=1/GPa)
#
#
# Indices 1 2 3 4 5 6 
#
# 1 0.014526 -0.002452 -0.007171 0.000000 0.000000 0.000000
# 2 -0.002452 0.008792 -0.005149 0.000000 0.000000 0.000000
# 3 -0.007171 -0.005149 0.022104 0.000000 0.000000 0.000000
# 4 0.000000 0.000000 0.000000 2.574277 0.000000 0.000000
# 5 0.000000 0.000000 0.000000 0.000000 0.072010 0.000000
# 6 0.000000 0.000000 0.000000 0.000000 0.000000 0.028104
#
#
# Mechanical properties :
#
#
# Convention : Reuss Voigt Hill
#
# Bulk Modulus (GPa) = 62.98390 71.62131 67.30261
# Shear Modulus (GPa) = 1.81511 21.93568 11.87540
#
# Velocity S-wave (km/s) = 0.95925 3.33467 2.45359
# Velocity P-wave (km/s) = 5.75811 7.15083 6.49193
#
# Compressibility (1/GPa) = 0.01587707
#
# Stress axis : x y z
#
# Youngs Moduli (GPa) = 68.84378 113.74197 45.24051
#
# Poissons Ratio (x) = 0.27889 0.32443
# Poissons Ratio (y) = 0.16880 0.23295
# Poissons Ratio (z) = 0.49369 0.58567
#
# Static dielectric constant tensor:
#      x y z
#    x 1.715090 0.000000 0.000000 
#    y 0.000000 1.677390 0.000000 
#    z 0.000000 0.000000 1.684970 
# 
# From -- ./inp_files/11333.got.cif
#   From: 2010.05.17/outbox.cif.g08.bks.cpg/sg56_6_cif.got.tgz:11333.got - 2010.06.03 13:42:01.
