data_PCOD9431333
_publ_section_title
;
Structure prediction by ZEFSAII (Michael W. Deem and Ramdas Pophale) SiO2 
 PCOD9431333
Probable space group: P C C N
;
_chemical_formula_sum "Si O2"
_cell_formula_units_Z 40
_cell_length_a 9.034684
_cell_length_b 8.292461
_cell_length_c 24.676075
_cell_angle_alpha 90.000000
_cell_angle_beta 90.000000
_cell_angle_gamma 90.000000
_cell_volume 1848.725733
_symmetry_space_group_name_H-M "P C C N"
_symmetry_group_IT_number 56
_symmetry_cell_setting 'orthorhombic'
loop_
_space_group_symop_operation_xyz
x,y,z
1/2-x,1/2-y,z
1/2+x,-y,1/2-z
-x,1/2+y,1/2-z
-x,-y,-z
1/2+x,1/2+y,-z
1/2-x,y,1/2+z
x,1/2-y,1/2+z
loop_
_atom_site_type_symbol
_atom_site_label
_atom_site_fract_x
_atom_site_fract_y
_atom_site_fract_z
Si Si1 0.945399 0.097652 0.421730
Si Si2 0.173920 0.006388 0.217081
Si Si3 0.657421 0.589166 0.904318
Si Si4 0.977349 0.333339 0.799537
Si Si5 0.074763 0.763963 0.463908
O O1 0.993752 0.169066 0.364360
O O2 0.973878 0.205375 0.474184
O O3 0.769169 0.056184 0.417880
O O4 0.026350 0.926424 0.431811
O O5 0.087237 0.836944 0.219333
O O6 0.346875 0.962887 0.213393
O O7 0.129971 0.086454 0.159876
O O8 0.121339 0.113127 0.267011
O O9 0.750000 0.750000 0.917815
O O10 0.508226 0.611655 0.937746
O O11 0.250000 0.750000 0.461244
#
# Coordination Sequence:
#
# PCOD9431333 Si02
#       5
#     8   8   8   8   8
#     4   9  21  41  58  87 124 160 196 251 304 364
#     4  10  23  39  64  91 120 163 202 249 306 366
#     4   9  20  39  63  85 122 162 198 242 309 363
#     4  10  23  41  63  90 122 160 205 250 307 365
#     4  10  21  36  64  87 119 157 206 249 295 358
#
# _framework density 21.636526
#
# number of rings (size 3 to 8) (size 9 to 14) (size 15 to 20)
#    0.000    2.400    0.000    0.000   14.000    2.400 
#    0.000    0.000    8.800    0.000    0.000    0.000 
#    0.000    0.000    0.000    0.000    0.000    0.000 
#
# Total GULP energy -223637.345937 kJ/mol
# GULP energy per Si atom -5590.933648 kJ/mol
# Density = 2.158728 g / cm^3
# Si number density = 21.636526 Si / 1000 Ang^3
#
#
#
# Elastic Constant Matrix: (Units=GPa)
#
#
# Indices 1 2 3 4 5 6 
#
# 1 62.7843 14.0288 39.4380 0.0000 0.0000 0.0000
# 2 14.0288 40.4337 12.7101 0.0000 0.0000 0.0000
# 3 39.4380 12.7101 85.9902 0.0000 0.0000 0.0000
# 4 0.0000 0.0000 0.0000 34.3910 0.0000 0.0000
# 5 0.0000 0.0000 0.0000 0.0000 27.2139 0.0000
# 6 0.0000 0.0000 0.0000 0.0000 0.0000 21.1970
#
#
#
# Elastic Compliance Matrix: (Units=1/GPa)
#
#
# Indices 1 2 3 4 5 6 
#
# 1 0.023281 -0.004951 -0.009946 0.000000 0.000000 0.000000
# 2 -0.004951 0.026990 -0.001719 0.000000 0.000000 0.000000
# 3 -0.009946 -0.001719 0.016445 0.000000 0.000000 0.000000
# 4 0.000000 0.000000 0.000000 0.029077 0.000000 0.000000
# 5 0.000000 0.000000 0.000000 0.000000 0.036746 0.000000
# 6 0.000000 0.000000 0.000000 0.000000 0.000000 0.047177
#
#
# Mechanical properties :
#
#
# Convention : Reuss Voigt Hill
#
# Bulk Modulus (GPa) = 29.86425 35.72912 32.79668
# Shear Modulus (GPa) = 22.31064 24.76246 23.53655
#
# Velocity S-wave (km/s) = 3.21465 3.38668 3.30178
# Velocity P-wave (km/s) = 5.25464 5.64287 5.45221
#
# Compressibility (1/GPa) = 0.03348485
#
# Stress axis : x y z
#
# Youngs Moduli (GPa) = 42.95296 37.05088 60.80988
#
# Poissons Ratio (x) = 0.18345 0.60480
# Poissons Ratio (y) = 0.21267 0.10451
# Poissons Ratio (z) = 0.42720 0.06367
#
# Static dielectric constant tensor:
#      x y z
#    x 1.785150 0.000000 0.000000 
#    y 0.000000 1.843070 0.000000 
#    z 0.000000 0.000000 1.750250 
# 
# From -- ./inp_files/20290.got.cif
#   From: 2010.05.17/outbox.cif.g08.bks.cpg/sg56_11_cif.got.tgz:20290.got - 2010.06.03 13:42:01.
