data_PCOD9431791
_publ_section_title
;
Structure prediction by ZEFSAII (Michael W. Deem and Ramdas Pophale) SiO2 
 PCOD9431791
Probable space group: P C C N
;
_chemical_formula_sum "Si O2"
_cell_formula_units_Z 64
_cell_length_a 12.677499
_cell_length_b 16.098497
_cell_length_c 12.599044
_cell_angle_alpha 90.000000
_cell_angle_beta 90.000000
_cell_angle_gamma 90.000000
_cell_volume 2571.322254
_symmetry_space_group_name_H-M "P C C N"
_symmetry_group_IT_number 56
_symmetry_cell_setting 'orthorhombic'
loop_
_space_group_symop_operation_xyz
x,y,z
1/2-x,1/2-y,z
1/2+x,-y,1/2-z
-x,1/2+y,1/2-z
-x,-y,-z
1/2+x,1/2+y,-z
1/2-x,y,1/2+z
x,1/2-y,1/2+z
loop_
_atom_site_type_symbol
_atom_site_label
_atom_site_fract_x
_atom_site_fract_y
_atom_site_fract_z
Si Si1 0.090583 0.783151 0.182777
Si Si2 0.020694 0.031417 0.320527
Si Si3 0.899495 0.134550 0.479229
Si Si4 0.733027 0.935201 0.056271
Si Si5 0.899430 0.882164 0.221603
Si Si6 0.821113 0.407858 0.472601
Si Si7 0.617474 0.694398 0.432043
Si Si8 0.983240 0.164627 0.140011
O O1 0.112211 0.713527 0.096660
O O2 0.160034 0.861506 0.140521
O O3 0.087904 0.735486 0.296975
O O4 0.969552 0.811139 0.168578
O O5 0.127927 0.027030 0.387827
O O6 0.928207 0.057761 0.402334
O O7 0.023497 0.103539 0.232047
O O8 0.984642 0.948538 0.263014
O O9 0.785015 0.126672 0.528696
O O10 0.004301 0.149466 0.546083
O O11 0.819643 0.926098 0.145758
O O12 0.695531 0.844484 0.017216
O O13 0.790269 0.994772 0.969662
O O14 0.842258 0.840080 0.320348
O O15 0.916680 0.384386 0.551045
O O16 0.580721 0.788232 0.415627
#
# Coordination Sequence:
#
# PCOD9431791 Si02
#       8
#     8   8   8   8   8   8   8   8
#     4  10  24  42  65 104 148 176 238 305 355 430
#     4  10  22  45  67 101 151 181 239 307 365 429
#     4  10  21  42  67 100 140 183 235 296 363 438
#     4  11  25  44  73 106 141 194 244 298 369 449
#     4  11  23  44  66 104 142 187 241 301 364 434
#     4  12  22  43  72 107 141 187 241 297 372 431
#     4  10  22  45  70  97 144 195 234 293 377 430
#     4  10  22  45  72 101 144 194 236 300 364 425
#
# _framework density 24.889918000000002
#
# number of rings (size 3 to 8) (size 9 to 14) (size 15 to 20)
#    0.000    1.500    2.500    1.875    0.000    4.500 
#   20.250   11.250    0.000    0.000    0.000    0.000 
#    0.000    0.000    0.000    0.000    0.000    0.000 
#
# Total GULP energy -357626.571633 kJ/mol
# GULP energy per Si atom -5587.915182 kJ/mol
# Density = 2.483327 g / cm^3
# Si number density = 24.889918 Si / 1000 Ang^3
#
#
#
# Elastic Constant Matrix: (Units=GPa)
#
#
# Indices 1 2 3 4 5 6 
#
# 1 80.8200 32.9065 16.8718 0.0000 0.0000 0.0000
# 2 32.9065 83.3306 29.6672 0.0000 0.0000 0.0000
# 3 16.8718 29.6672 54.4482 0.0000 0.0000 0.0000
# 4 0.0000 0.0000 0.0000 28.4268 0.0000 0.0000
# 5 0.0000 0.0000 0.0000 0.0000 12.4920 0.0000
# 6 0.0000 0.0000 0.0000 0.0000 0.0000 31.1047
#
#
#
# Elastic Compliance Matrix: (Units=1/GPa)
#
#
# Indices 1 2 3 4 5 6 
#
# 1 0.014877 -0.005252 -0.001748 0.000000 0.000000 0.000000
# 2 -0.005252 0.016743 -0.007495 0.000000 0.000000 0.000000
# 3 -0.001748 -0.007495 0.022992 0.000000 0.000000 0.000000
# 4 0.000000 0.000000 0.000000 0.035178 0.000000 0.000000
# 5 0.000000 0.000000 0.000000 0.000000 0.080051 0.000000
# 6 0.000000 0.000000 0.000000 0.000000 0.000000 0.032149
#
#
# Mechanical properties :
#
#
# Convention : Reuss Voigt Hill
#
# Bulk Modulus (GPa) = 39.03171 41.94331 40.48751
# Shear Modulus (GPa) = 20.87502 23.68159 22.27831
#
# Velocity S-wave (km/s) = 2.89916 3.08791 2.99502
# Velocity P-wave (km/s) = 5.18870 5.44074 5.31622
#
# Compressibility (1/GPa) = 0.02562019
#
# Stress axis : x y z
#
# Youngs Moduli (GPa) = 67.21970 59.72673 43.49414
#
# Poissons Ratio (x) = 0.31370 0.07603
# Poissons Ratio (y) = 0.35306 0.32600
# Poissons Ratio (z) = 0.11750 0.44766
#
# Static dielectric constant tensor:
#      x y z
#    x 1.942970 0.000000 0.000000 
#    y 0.000000 2.049580 0.000000 
#    z 0.000000 0.000000 1.971360 
# 
# From -- ./inp_files/11846.got.cif
#   From: 2010.05.17/outbox.cif.g08.bks.cpg/sg56_6_cif.got.tgz:11846.got - 2010.06.03 13:42:01.
