data_PCOD9431147
_publ_section_title
;
Structure prediction by ZEFSAII (Michael W. Deem and Ramdas Pophale) SiO2 
 PCOD9431147
Probable space group: P C C N
;
_chemical_formula_sum "Si O2"
_cell_formula_units_Z 56
_cell_length_a 6.746161
_cell_length_b 17.221620
_cell_length_c 18.252917
_cell_angle_alpha 90.000000
_cell_angle_beta 90.000000
_cell_angle_gamma 90.000000
_cell_volume 2120.620633
_symmetry_space_group_name_H-M "P C C N"
_symmetry_group_IT_number 56
_symmetry_cell_setting 'orthorhombic'
loop_
_space_group_symop_operation_xyz
x,y,z
1/2-x,1/2-y,z
1/2+x,-y,1/2-z
-x,1/2+y,1/2-z
-x,-y,-z
1/2+x,1/2+y,-z
1/2-x,y,1/2+z
x,1/2-y,1/2+z
loop_
_atom_site_type_symbol
_atom_site_label
_atom_site_fract_x
_atom_site_fract_y
_atom_site_fract_z
Si Si1 0.478437 0.095391 0.401223
Si Si2 0.891242 0.564672 0.355975
Si Si3 0.558348 0.381042 0.622035
Si Si4 0.653466 0.965463 0.188731
Si Si5 0.017949 0.226139 0.201076
Si Si6 0.387505 0.836268 0.142028
Si Si7 0.856032 0.676226 0.010316
O O1 0.663835 0.151213 0.384953
O O2 0.325697 0.120960 0.464907
O O3 0.551081 0.006157 0.408905
O O4 0.337806 0.090683 0.328810
O O5 0.663622 0.587657 0.365897
O O6 0.897616 0.530339 0.273264
O O7 0.990577 0.650381 0.351934
O O8 0.689474 0.451488 0.651876
O O9 0.581277 0.302250 0.666975
O O10 0.535469 0.360229 0.536687
O O11 0.471619 0.923703 0.149082
O O12 0.250000 0.250000 0.211498
O O13 0.927811 0.200675 0.278940
O O14 0.533492 0.796847 0.083728
O O15 0.750000 0.750000 0.972742
#
# Coordination Sequence:
#
# PCOD9431147 Si02
#       7
#     8   8   8   8   8   8   8
#     4  11  24  42  72 102 140 196 241 304 369 455
#     4  10  20  41  70 104 145 182 248 314 371 437
#     4  11  22  46  75 103 147 196 243 311 386 451
#     4  10  22  41  70 104 140 186 242 315 367 431
#     4   9  20  40  77 105 142 195 248 318 394 448
#     4  10  22  44  71 104 139 189 249 306 368 454
#     4  11  26  47  71 101 152 199 243 304 379 457
#
# _framework density 26.407363
#
# number of rings (size 3 to 8) (size 9 to 14) (size 15 to 20)
#    0.000    1.714    1.429    2.571    2.000    6.857 
#    2.571    0.714   22.000    0.000    0.000    0.000 
#    0.000    0.000    0.000    0.000    0.000    0.000 
#
# Total GULP energy -313478.071470 kJ/mol
# GULP energy per Si atom -5597.822705 kJ/mol
# Density = 2.634726 g / cm^3
# Si number density = 26.407363 Si / 1000 Ang^3
#
#
#
# Elastic Constant Matrix: (Units=GPa)
#
#
# Indices 1 2 3 4 5 6 
#
# 1 109.9467 46.2071 17.0018 0.0000 0.0000 0.0000
# 2 46.2071 146.1539 25.6325 0.0000 0.0000 0.0000
# 3 17.0018 25.6325 82.4542 0.0000 0.0000 0.0000
# 4 0.0000 0.0000 0.0000 35.4744 0.0000 0.0000
# 5 0.0000 0.0000 0.0000 0.0000 23.3969 0.0000
# 6 0.0000 0.0000 0.0000 0.0000 0.0000 56.6227
#
#
#
# Elastic Compliance Matrix: (Units=1/GPa)
#
#
# Indices 1 2 3 4 5 6 
#
# 1 0.010602 -0.003140 -0.001210 0.000000 0.000000 0.000000
# 2 -0.003140 0.008166 -0.001891 0.000000 0.000000 0.000000
# 3 -0.001210 -0.001891 0.012965 0.000000 0.000000 0.000000
# 4 0.000000 0.000000 0.000000 0.028189 0.000000 0.000000
# 5 0.000000 0.000000 0.000000 0.000000 0.042741 0.000000
# 6 0.000000 0.000000 0.000000 0.000000 0.000000 0.017661
#
#
# Mechanical properties :
#
#
# Convention : Reuss Voigt Hill
#
# Bulk Modulus (GPa) = 51.94333 57.35972 54.65153
# Shear Modulus (GPa) = 35.91340 39.74637 37.82988
#
# Velocity S-wave (km/s) = 3.69179 3.88380 3.78901
# Velocity P-wave (km/s) = 6.15509 6.47149 6.31527
#
# Compressibility (1/GPa) = 0.01925175
#
# Stress axis : x y z
#
# Youngs Moduli (GPa) = 94.32255 122.45298 77.12831
#
# Poissons Ratio (x) = 0.38446 0.09333
# Poissons Ratio (y) = 0.29614 0.14587
# Poissons Ratio (z) = 0.11414 0.23160
#
# Static dielectric constant tensor:
#      x y z
#    x 2.185990 0.000000 0.000000 
#    y 0.000000 2.154560 0.000000 
#    z 0.000000 0.000000 2.131610 
# 
# From -- ./inp_files/18254.got.cif
#   From: 2010.05.17/outbox.cif.g08.bks.cpg/sg56_10_cif.got.tgz:18254.got - 2010.06.03 13:42:01.
