data_PCOD9431522
_publ_section_title
;
Structure prediction by ZEFSAII (Michael W. Deem and Ramdas Pophale) SiO2 
 PCOD9431522
Probable space group: P C C N
;
_chemical_formula_sum "Si O2"
_cell_formula_units_Z 64
_cell_length_a 21.023910
_cell_length_b 5.230183
_cell_length_c 27.466557
_cell_angle_alpha 90.000000
_cell_angle_beta 90.000000
_cell_angle_gamma 90.000000
_cell_volume 3020.192303
_symmetry_space_group_name_H-M "P C C N"
_symmetry_group_IT_number 56
_symmetry_cell_setting 'orthorhombic'
loop_
_space_group_symop_operation_xyz
x,y,z
1/2-x,1/2-y,z
1/2+x,-y,1/2-z
-x,1/2+y,1/2-z
-x,-y,-z
1/2+x,1/2+y,-z
1/2-x,y,1/2+z
x,1/2-y,1/2+z
loop_
_atom_site_type_symbol
_atom_site_label
_atom_site_fract_x
_atom_site_fract_y
_atom_site_fract_z
Si Si1 0.583447 0.189426 0.222314
Si Si2 0.792742 0.497098 0.983306
Si Si3 0.072285 0.460891 0.366474
Si Si4 0.290968 0.510744 0.310554
Si Si5 0.908548 0.411347 0.919495
Si Si6 0.520421 0.602933 0.947529
Si Si7 0.034416 0.905236 0.680786
Si Si8 0.181215 0.380395 0.913389
O O1 0.599206 0.395469 0.180572
O O2 0.576778 0.283085 0.277084
O O3 0.641099 0.989610 0.216532
O O4 0.512166 0.105641 0.207029
O O5 0.750000 0.750000 0.976636
O O6 0.834153 0.519559 0.033036
O O7 0.750000 0.250000 0.991486
O O8 0.837321 0.446912 0.937473
O O9 0.127016 0.307051 0.393955
O O10 0.036768 0.624566 0.408101
O O11 0.017296 0.281006 0.344276
O O12 0.250000 0.250000 0.308363
O O13 0.307841 0.564706 0.367530
O O14 0.250000 0.750000 0.291766
O O15 0.948618 0.618644 0.950264
O O16 0.922077 0.491837 0.863833
O O17 0.931843 0.120402 0.928201
O O18 0.500000 0.500000 0.000000
O O19 0.250000 0.250000 0.919819
#
# Coordination Sequence:
#
# PCOD9431522 Si02
#       8
#     8   8   8   8   8   8   8   8
#     4  12  22  41  70  92 141 178 233 283 347 415
#     4  11  24  44  70  98 130 183 232 275 338 413
#     4  11  22  39  62  97 136 174 224 276 342 412
#     4  11  24  41  63  97 134 175 216 274 339 400
#     4  11  24  44  65  95 137 170 228 288 331 403
#     4  11  23  39  62  98 136 178 214 273 346 409
#     4  11  24  41  66 100 129 183 231 287 348 407
#     4  10  21  39  62  96 133 173 218 269 334 412
#
# _framework density 21.190704
#
# number of rings (size 3 to 8) (size 9 to 14) (size 15 to 20)
#    0.000    1.000    3.750    3.750    0.000    4.000 
#    0.000    0.625    0.000    3.750    0.000    0.000 
#    0.000    0.000    0.000    0.000    0.000    0.000 
#
# Total GULP energy -357503.481349 kJ/mol
# GULP energy per Si atom -5585.991896 kJ/mol
# Density = 2.114247 g / cm^3
# Si number density = 21.190704 Si / 1000 Ang^3
#
#
#
# Elastic Constant Matrix: (Units=GPa)
#
#
# Indices 1 2 3 4 5 6 
#
# 1 88.2283 24.2960 48.0399 0.0000 0.0000 0.0000
# 2 24.2960 66.2183 8.4980 0.0000 0.0000 0.0000
# 3 48.0399 8.4980 120.9071 0.0000 0.0000 0.0000
# 4 0.0000 0.0000 0.0000 23.2967 0.0000 0.0000
# 5 0.0000 0.0000 0.0000 0.0000 -146.7066 0.0000
# 6 0.0000 0.0000 0.0000 0.0000 0.0000 34.0725
#
#
#
# Elastic Compliance Matrix: (Units=1/GPa)
#
#
# Indices 1 2 3 4 5 6 
#
# 1 0.016007 -0.005103 -0.006001 0.000000 0.000000 0.000000
# 2 -0.005103 0.016866 0.000842 0.000000 0.000000 0.000000
# 3 -0.006001 0.000842 0.010596 0.000000 0.000000 0.000000
# 4 0.000000 0.000000 0.000000 0.042924 0.000000 0.000000
# 5 0.000000 0.000000 0.000000 0.000000 -0.006816 0.000000
# 6 0.000000 0.000000 0.000000 0.000000 0.000000 0.029349
#
#
# Mechanical properties :
#
#
# Convention : Reuss Voigt Hill
#
# Bulk Modulus (GPa) = 43.58323 48.55793 46.07058
# Shear Modulus (GPa) = 36.46990 -4.89947 15.78521
#
# Velocity S-wave (km/s) = 4.15303 -1.52220 2.73227
# Velocity P-wave (km/s) = 6.60369 4.45814 5.63399
#
# Compressibility (1/GPa) = 0.02294460
#
# Stress axis : x y z
#
# Youngs Moduli (GPa) = 62.47167 59.29159 94.37362
#
# Poissons Ratio (x) = 0.30256 0.56638
# Poissons Ratio (y) = 0.31879 -0.07948
# Poissons Ratio (z) = 0.37492 -0.04993
#
# Static dielectric constant tensor:
#      x y z
#    x -0.439570 0.000000 0.000000 
#    y 0.000000 1.814890 0.000000 
#    z 0.000000 0.000000 1.758350 
# 
# From -- ./inp_files/22588.got.cif
#   From: 2010.05.17/outbox.cif.g08.bks.cpg/sg56_12_cif.got.tgz:22588.got - 2010.06.03 13:42:01.
