data_PCOD9431523
_publ_section_title
;
Structure prediction by ZEFSAII (Michael W. Deem and Ramdas Pophale) SiO2 
 PCOD9431523
Probable space group: P C C N
;
_chemical_formula_sum "Si O2"
_cell_formula_units_Z 48
_cell_length_a 25.685139
_cell_length_b 10.832153
_cell_length_c 7.370175
_cell_angle_alpha 90.000000
_cell_angle_beta 90.000000
_cell_angle_gamma 90.000000
_cell_volume 2050.569559
_symmetry_space_group_name_H-M "P C C N"
_symmetry_group_IT_number 56
_symmetry_cell_setting 'orthorhombic'
loop_
_space_group_symop_operation_xyz
x,y,z
1/2-x,1/2-y,z
1/2+x,-y,1/2-z
-x,1/2+y,1/2-z
-x,-y,-z
1/2+x,1/2+y,-z
1/2-x,y,1/2+z
x,1/2-y,1/2+z
loop_
_atom_site_type_symbol
_atom_site_label
_atom_site_fract_x
_atom_site_fract_y
_atom_site_fract_z
Si Si1 0.814248 0.993788 0.495799
Si Si2 0.542979 0.348216 0.298435
Si Si3 0.657763 0.304710 0.225437
Si Si4 0.800539 0.059709 0.874598
Si Si5 0.410933 0.403653 0.667917
Si Si6 0.467300 0.331794 0.004331
O O1 0.822233 0.974437 0.711243
O O2 0.754062 0.002190 0.438121
O O3 0.850527 0.901837 0.382658
O O4 0.835294 0.123440 0.415732
O O5 0.562615 0.469744 0.405832
O O6 0.513621 0.236600 0.395701
O O7 0.595478 0.288475 0.212043
O O8 0.498334 0.399981 0.162521
O O9 0.672921 0.396031 0.061255
O O10 0.695807 0.188443 0.258616
O O11 0.426597 0.403945 0.879496
O O12 0.436262 0.282185 0.589267
#
# Coordination Sequence:
#
# PCOD9431523 Si02
#       6
#     8   8   8   8   8   8
#     4  11  24  38  59  92 128 170 217 258 323 396
#     4  10  21  39  63 102 132 167 217 263 337 412
#     4  11  22  35  59  96 137 168 208 255 336 406
#     4  12  22  37  60  90 136 176 207 265 328 395
#     4  10  23  43  63  96 126 170 227 270 328 392
#     4  10  21  42  68  87 135 175 213 276 327 386
#
# _framework density 23.408131000000001
#
# number of rings (size 3 to 8) (size 9 to 14) (size 15 to 20)
#    0.000    1.333    3.333    2.500    2.333    0.000 
#   15.000    0.000    0.000    3.000    0.000    0.000 
#    0.000    0.000    0.000    0.000    0.000    0.000 
#
# Total GULP energy -267312.831985 kJ/mol
# GULP energy per Si atom -5569.017333 kJ/mol
# Density = 2.335485 g / cm^3
# Si number density = 23.408131 Si / 1000 Ang^3
#
#
#
# Elastic Constant Matrix: (Units=GPa)
#
#
# Indices 1 2 3 4 5 6 
#
# 1 94.8093 8.9382 24.7877 0.0000 0.0000 0.0000
# 2 8.9382 32.6555 -2.1108 0.0000 0.0000 0.0000
# 3 24.7877 -2.1108 80.9972 0.0000 0.0000 0.0000
# 4 0.0000 0.0000 0.0000 24.2912 0.0000 0.0000
# 5 0.0000 0.0000 0.0000 0.0000 3.6155 0.0000
# 6 0.0000 0.0000 0.0000 0.0000 0.0000 -65.5174
#
#
#
# Elastic Compliance Matrix: (Units=1/GPa)
#
#
# Indices 1 2 3 4 5 6 
#
# 1 0.011848 -0.003483 -0.003716 0.000000 0.000000 0.000000
# 2 -0.003483 0.031698 0.001892 0.000000 0.000000 0.000000
# 3 -0.003716 0.001892 0.013533 0.000000 0.000000 0.000000
# 4 0.000000 0.000000 0.000000 0.041167 0.000000 0.000000
# 5 0.000000 0.000000 0.000000 0.000000 0.276585 0.000000
# 6 0.000000 0.000000 0.000000 0.000000 0.000000 -0.015263
#
#
# Mechanical properties :
#
#
# Convention : Reuss Voigt Hill
#
# Bulk Modulus (GPa) = 21.52225 30.18803 25.85514
# Shear Modulus (GPa) = 12.96444 4.26766 8.61605
#
# Velocity S-wave (km/s) = 2.35594 1.35171 1.92062
# Velocity P-wave (km/s) = 4.07614 3.91925 3.99847
#
# Compressibility (1/GPa) = 0.04646354
#
# Stress axis : x y z
#
# Youngs Moduli (GPa) = 84.40584 31.54742 73.89463
#
# Poissons Ratio (x) = 0.10988 0.27463
# Poissons Ratio (y) = 0.29399 -0.13981
# Poissons Ratio (z) = 0.31369 -0.05969
#
# Static dielectric constant tensor:
#      x y z
#    x 1.886530 0.000000 0.000000 
#    y 0.000000 1.958720 0.000000 
#    z 0.000000 0.000000 1.994920 
# 
# From -- ./inp_files/4745.got.cif
#   From: 2010.05.17/outbox.cif.g08.bks.cpg/sg56_3_cif.got.tgz:4745.got - 2010.06.03 13:42:01.
