data_PCOD9431275
_publ_section_title
;
Structure prediction by ZEFSAII (Michael W. Deem and Ramdas Pophale) SiO2 
 PCOD9431275
Probable space group: P C C N
;
_chemical_formula_sum "Si O2"
_cell_formula_units_Z 56
_cell_length_a 5.297123
_cell_length_b 19.658529
_cell_length_c 20.893217
_cell_angle_alpha 90.000000
_cell_angle_beta 90.000000
_cell_angle_gamma 90.000000
_cell_volume 2175.686865
_symmetry_space_group_name_H-M "P C C N"
_symmetry_group_IT_number 56
_symmetry_cell_setting 'orthorhombic'
loop_
_space_group_symop_operation_xyz
x,y,z
1/2-x,1/2-y,z
1/2+x,-y,1/2-z
-x,1/2+y,1/2-z
-x,-y,-z
1/2+x,1/2+y,-z
1/2-x,y,1/2+z
x,1/2-y,1/2+z
loop_
_atom_site_type_symbol
_atom_site_label
_atom_site_fract_x
_atom_site_fract_y
_atom_site_fract_z
Si Si1 0.537239 0.285080 0.262728
Si Si2 0.408449 0.146680 0.226342
Si Si3 0.017732 0.050133 0.062069
Si Si4 0.485079 0.581963 0.484732
Si Si5 0.966569 0.490744 0.207128
Si Si6 0.282119 0.673069 0.593439
Si Si7 0.118941 0.425842 0.362375
O O1 0.250000 0.250000 0.283261
O O2 0.876160 0.294175 0.235627
O O3 0.614430 0.314866 0.333337
O O4 0.384732 0.334297 0.213994
O O5 0.517347 0.131132 0.405584
O O6 0.416113 0.109333 0.294323
O O7 0.494085 0.085383 0.182174
O O8 0.258603 0.095847 0.052031
O O9 0.763808 0.092364 0.056748
O O10 0.023483 0.996059 0.119431
O O11 0.000000 0.000000 0.000000
O O12 0.500000 0.500000 0.500000
O O13 0.459635 0.628566 0.547519
O O14 0.214560 0.511734 0.247465
O O15 0.898736 0.542432 0.149834
O O16 0.250000 0.750000 0.568979
#
# Coordination Sequence:
#
# PCOD9431275 Si02
#       7
#     8   8   8   8   8   8   8
#     4  10  21  35  60  88 134 183 211 284 357 444
#     4  10  22  37  56  95 136 174 227 282 362 428
#     4  10  21  36  60  90 130 184 221 282 330 422
#     4  10  21  38  57  87 140 179 227 274 343 427
#     4  10  25  42  63  93 139 188 230 298 348 434
#     4  11  21  38  64 103 144 189 227 292 378 441
#     4  11  21  38  65  94 140 180 233 281 360 420
#
# _framework density 25.738996
#
# number of rings (size 3 to 8) (size 9 to 14) (size 15 to 20)
#    0.000    1.714    5.714    0.000    8.000    2.286 
#    0.000    0.000    0.000    0.000    0.000    1.000 
#    8.571    0.000    0.000    0.000    0.000    0.000 
#
# Total GULP energy -311761.685697 kJ/mol
# GULP energy per Si atom -5567.172959 kJ/mol
# Density = 2.568041 g / cm^3
# Si number density = 25.738996 Si / 1000 Ang^3
#
#
#
# Elastic Constant Matrix: (Units=GPa)
#
#
# Indices 1 2 3 4 5 6 
#
# 1 237.0013 70.5341 42.8563 0.0000 0.0000 0.0000
# 2 70.5341 151.2857 19.4122 0.0000 0.0000 0.0000
# 3 42.8563 19.4122 70.3031 0.0000 0.0000 0.0000
# 4 0.0000 0.0000 0.0000 31.7613 0.0000 0.0000
# 5 0.0000 0.0000 0.0000 0.0000 31.5478 0.0000
# 6 0.0000 0.0000 0.0000 0.0000 0.0000 56.6144
#
#
#
# Elastic Compliance Matrix: (Units=1/GPa)
#
#
# Indices 1 2 3 4 5 6 
#
# 1 0.005340 -0.002148 -0.002662 0.000000 0.000000 0.000000
# 2 -0.002148 0.007717 -0.000821 0.000000 0.000000 0.000000
# 3 -0.002662 -0.000821 0.016074 0.000000 0.000000 0.000000
# 4 0.000000 0.000000 0.000000 0.031485 0.000000 0.000000
# 5 0.000000 0.000000 0.000000 0.000000 0.031698 0.000000
# 6 0.000000 0.000000 0.000000 0.000000 0.000000 0.017663
#
#
# Mechanical properties :
#
#
# Convention : Reuss Voigt Hill
#
# Bulk Modulus (GPa) = 55.96732 80.46614 68.21673
# Shear Modulus (GPa) = 39.30945 45.70386 42.50665
#
# Velocity S-wave (km/s) = 3.91222 4.21844 4.06821
# Velocity P-wave (km/s) = 6.49605 7.42005 6.97337
#
# Compressibility (1/GPa) = 0.01786757
#
# Stress axis : x y z
#
# Youngs Moduli (GPa) = 187.26326 129.58537 62.21329
#
# Poissons Ratio (x) = 0.27836 0.16562
# Poissons Ratio (y) = 0.40226 0.05110
# Poissons Ratio (z) = 0.49852 0.10643
#
# Static dielectric constant tensor:
#      x y z
#    x 2.451080 0.000000 0.000000 
#    y 0.000000 2.477270 0.000000 
#    z 0.000000 0.000000 2.073670 
# 
# From -- ./inp_files/21824.got.cif
#   From: 2010.05.17/outbox.cif.g08.bks.cpg/sg56_11_cif.got.tgz:21824.got - 2010.06.03 13:42:01.
