data_PCOD9431761
_publ_section_title
;
Structure prediction by ZEFSAII (Michael W. Deem and Ramdas Pophale) SiO2 
 PCOD9431761
Probable space group: P C C N
;
_chemical_formula_sum "Si O2"
_cell_formula_units_Z 64
_cell_length_a 8.889421
_cell_length_b 18.484389
_cell_length_c 19.535179
_cell_angle_alpha 90.000000
_cell_angle_beta 90.000000
_cell_angle_gamma 90.000000
_cell_volume 3209.933013
_symmetry_space_group_name_H-M "P C C N"
_symmetry_group_IT_number 56
_symmetry_cell_setting 'orthorhombic'
loop_
_space_group_symop_operation_xyz
x,y,z
1/2-x,1/2-y,z
1/2+x,-y,1/2-z
-x,1/2+y,1/2-z
-x,-y,-z
1/2+x,1/2+y,-z
1/2-x,y,1/2+z
x,1/2-y,1/2+z
loop_
_atom_site_type_symbol
_atom_site_label
_atom_site_fract_x
_atom_site_fract_y
_atom_site_fract_z
Si Si1 0.148800 0.588766 0.277360
Si Si2 0.326081 0.175329 0.269894
Si Si3 0.540851 0.082613 0.576255
Si Si4 0.861672 0.440506 0.426785
Si Si5 0.052060 0.474186 0.074629
Si Si6 0.767858 0.835818 0.392693
Si Si7 0.662092 0.183031 0.317043
Si Si8 0.144569 0.040533 0.303092
O O1 0.135587 0.603271 0.357614
O O2 0.217720 0.655438 0.238000
O O3 0.259860 0.521489 0.266396
O O4 0.988609 0.568046 0.245790
O O5 0.250000 0.250000 0.291362
O O6 0.285956 0.160585 0.190048
O O7 0.502694 0.189238 0.279304
O O8 0.256957 0.108370 0.312692
O O9 0.624825 0.088029 0.504340
O O10 0.386026 0.127432 0.580623
O O11 0.495151 0.998228 0.583601
O O12 0.708014 0.483412 0.413087
O O13 0.868321 0.375911 0.374482
O O14 0.097179 0.388717 0.080026
O O15 0.932657 0.503619 0.130584
O O16 0.000000 0.500000 0.000000
O O17 0.750000 0.750000 0.409783
O O18 0.750000 0.250000 0.349782
#
# Coordination Sequence:
#
# PCOD9431761 Si02
#       8
#     8   8   8   8   8   8   8   8
#     4  12  22  38  66  99 125 175 228 280 340 406
#     4  11  24  42  67  97 134 175 227 290 356 417
#     4  10  21  41  70  95 128 182 226 276 344 410
#     4  10  22  43  64  94 138 177 224 280 345 417
#     4  11  23  41  65  96 135 182 234 287 339 420
#     4  10  22  42  66  97 136 175 229 295 353 414
#     4  12  26  43  64  99 140 178 223 289 358 414
#     4  12  22  38  66  98 131 174 231 289 345 413
#
# _framework density 19.938110999999999
#
# number of rings (size 3 to 8) (size 9 to 14) (size 15 to 20)
#    0.000    1.000    2.500    5.250    1.750    2.000 
#    2.250    1.875    0.000    0.000    0.000    0.000 
#    0.000    0.000    0.000    0.000    0.000    0.000 
#
# Total GULP energy -357451.205576 kJ/mol
# GULP energy per Si atom -5585.175087 kJ/mol
# Density = 1.989273 g / cm^3
# Si number density = 19.938111 Si / 1000 Ang^3
#
#
#
# Elastic Constant Matrix: (Units=GPa)
#
#
# Indices 1 2 3 4 5 6 
#
# 1 74.4721 18.9640 5.7560 0.0000 0.0000 0.0000
# 2 18.9640 102.9934 27.9315 0.0000 0.0000 0.0000
# 3 5.7560 27.9315 79.7624 0.0000 0.0000 0.0000
# 4 0.0000 0.0000 0.0000 -30.1679 0.0000 0.0000
# 5 0.0000 0.0000 0.0000 0.0000 19.5777 0.0000
# 6 0.0000 0.0000 0.0000 0.0000 0.0000 27.5876
#
#
#
# Elastic Compliance Matrix: (Units=1/GPa)
#
#
# Indices 1 2 3 4 5 6 
#
# 1 0.014089 -0.002562 -0.000120 0.000000 0.000000 0.000000
# 2 -0.002562 0.011194 -0.003735 0.000000 0.000000 0.000000
# 3 -0.000120 -0.003735 0.013854 0.000000 0.000000 0.000000
# 4 0.000000 0.000000 0.000000 -0.033148 0.000000 0.000000
# 5 0.000000 0.000000 0.000000 0.000000 0.051079 0.000000
# 6 0.000000 0.000000 0.000000 0.000000 0.000000 0.036248
#
#
# Mechanical properties :
#
#
# Convention : Reuss Voigt Hill
#
# Bulk Modulus (GPa) = 38.01676 40.28121 39.14898
# Shear Modulus (GPa) = 43.50950 17.03791 30.27370
#
# Velocity S-wave (km/s) = 4.67650 2.92642 3.90087
# Velocity P-wave (km/s) = 6.94754 5.62722 6.32194
#
# Compressibility (1/GPa) = 0.02630419
#
# Stress axis : x y z
#
# Youngs Moduli (GPa) = 70.97506 89.33351 72.18221
#
# Poissons Ratio (x) = 0.22886 0.00864
# Poissons Ratio (y) = 0.18183 0.26961
# Poissons Ratio (z) = 0.00849 0.33367
#
# Static dielectric constant tensor:
#      x y z
#    x 1.709030 0.000000 0.000000 
#    y 0.000000 1.713910 0.000000 
#    z 0.000000 0.000000 1.687590 
# 
# From -- ./inp_files/18381.got.cif
#   From: 2010.05.17/outbox.cif.g08.bks.cpg/sg56_10_cif.got.tgz:18381.got - 2010.06.03 13:42:01.
