data_PCOD9431066
_publ_section_title
;
Structure prediction by ZEFSAII (Michael W. Deem and Ramdas Pophale) SiO2 
 PCOD9431066
Probable space group: P C C N
;
_chemical_formula_sum "Si O2"
_cell_formula_units_Z 48
_cell_length_a 17.673765
_cell_length_b 7.632480
_cell_length_c 13.963380
_cell_angle_alpha 90.000000
_cell_angle_beta 90.000000
_cell_angle_gamma 90.000000
_cell_volume 1883.585368
_symmetry_space_group_name_H-M "P C C N"
_symmetry_group_IT_number 56
_symmetry_cell_setting 'orthorhombic'
loop_
_space_group_symop_operation_xyz
x,y,z
1/2-x,1/2-y,z
1/2+x,-y,1/2-z
-x,1/2+y,1/2-z
-x,-y,-z
1/2+x,1/2+y,-z
1/2-x,y,1/2+z
x,1/2-y,1/2+z
loop_
_atom_site_type_symbol
_atom_site_label
_atom_site_fract_x
_atom_site_fract_y
_atom_site_fract_z
Si Si1 0.486552 0.140233 0.401036
Si Si2 0.136546 0.201693 0.492209
Si Si3 0.326676 0.047328 0.170024
Si Si4 0.250000 0.750000 0.535007
Si Si5 0.750000 0.750000 0.165142
Si Si6 0.091987 0.673815 0.948493
Si Si7 0.004272 0.488292 0.786219
O O1 0.406834 0.129211 0.454925
O O2 0.540649 0.205247 0.484417
O O3 0.517275 0.999314 0.327660
O O4 0.471626 0.301647 0.327916
O O5 0.167462 0.214121 0.598289
O O6 0.195065 0.155924 0.409402
O O7 0.088556 0.021784 0.495856
O O8 0.287783 0.107557 0.266934
O O9 0.413483 0.997678 0.196521
O O10 0.277985 0.904448 0.109118
O O11 0.323531 0.750162 0.464527
O O12 0.054240 0.632478 0.845065
#
# Coordination Sequence:
#
# PCOD9431066 Si02
#       7
#     8   8   8   4   4   8   8
#     4  11  20  40  70  92 129 180 228 282 345 407
#     4  10  20  40  65  90 128 183 222 271 348 412
#     4  11  22  44  63  98 139 175 231 288 349 409
#     4  10  22  40  68  94 132 184 216 290 360 402
#     4  12  24  38  68 100 134 178 230 284 354 420
#     4  10  21  43  67  94 135 184 228 284 346 413
#     4  11  21  41  68  97 131 180 232 285 342 419
#
# _framework density 25.483315999999999
#
# number of rings (size 3 to 8) (size 9 to 14) (size 15 to 20)
#    0.000    1.333    6.667    1.500    0.000    2.667 
#    6.000    2.500    0.000    0.000    0.000    0.000 
#    0.000    0.000    0.000    0.000    0.000    0.000 
#
# Total GULP energy -267982.014427 kJ/mol
# GULP energy per Si atom -5582.958634 kJ/mol
# Density = 2.542532 g / cm^3
# Si number density = 25.483316 Si / 1000 Ang^3
#
#
#
# Elastic Constant Matrix: (Units=GPa)
#
#
# Indices 1 2 3 4 5 6 
#
# 1 101.5002 16.3163 13.7391 0.0000 0.0000 0.0000
# 2 16.3163 71.2460 33.8991 0.0000 0.0000 0.0000
# 3 13.7391 33.8991 115.6209 0.0000 0.0000 0.0000
# 4 0.0000 0.0000 0.0000 44.4610 0.0000 0.0000
# 5 0.0000 0.0000 0.0000 0.0000 47.2206 0.0000
# 6 0.0000 0.0000 0.0000 0.0000 0.0000 24.3371
#
#
#
# Elastic Compliance Matrix: (Units=1/GPa)
#
#
# Indices 1 2 3 4 5 6 
#
# 1 0.010266 -0.002058 -0.000617 0.000000 0.000000 0.000000
# 2 -0.002058 0.016724 -0.004659 0.000000 0.000000 0.000000
# 3 -0.000617 -0.004659 0.010088 0.000000 0.000000 0.000000
# 4 0.000000 0.000000 0.000000 0.022492 0.000000 0.000000
# 5 0.000000 0.000000 0.000000 0.000000 0.021177 0.000000
# 6 0.000000 0.000000 0.000000 0.000000 0.000000 0.041090
#
#
# Mechanical properties :
#
#
# Convention : Reuss Voigt Hill
#
# Bulk Modulus (GPa) = 44.61878 46.25289 45.43584
# Shear Modulus (GPa) = 34.72856 38.16457 36.44657
#
# Velocity S-wave (km/s) = 3.69561 3.87412 3.78592
# Velocity P-wave (km/s) = 5.97972 6.18073 6.08106
#
# Compressibility (1/GPa) = 0.02241209
#
# Stress axis : x y z
#
# Youngs Moduli (GPa) = 97.40461 59.79506 99.12633
#
# Poissons Ratio (x) = 0.12304 0.06112
# Poissons Ratio (y) = 0.20044 0.46180
# Poissons Ratio (z) = 0.06006 0.27857
#
# Static dielectric constant tensor:
#      x y z
#    x 2.266930 0.000000 0.000000 
#    y 0.000000 2.122650 0.000000 
#    z 0.000000 0.000000 2.022860 
# 
# From -- ./inp_files/12716.got.cif
#   From: 2010.05.17/outbox.cif.g08.bks.cpg/sg56_7_cif.got.tgz:12716.got - 2010.06.03 13:42:01.
