data_PCOD9431901
_publ_section_title
;
Structure prediction by ZEFSAII (Michael W. Deem and Ramdas Pophale) SiO2 
 PCOD9431901
Probable space group: P C C N
;
_chemical_formula_sum "Si O2"
_cell_formula_units_Z 48
_cell_length_a 15.165319
_cell_length_b 18.389392
_cell_length_c 8.427656
_cell_angle_alpha 90.000000
_cell_angle_beta 90.000000
_cell_angle_gamma 90.000000
_cell_volume 2350.313098
_symmetry_space_group_name_H-M "P C C N"
_symmetry_group_IT_number 56
_symmetry_cell_setting 'orthorhombic'
loop_
_space_group_symop_operation_xyz
x,y,z
1/2-x,1/2-y,z
1/2+x,-y,1/2-z
-x,1/2+y,1/2-z
-x,-y,-z
1/2+x,1/2+y,-z
1/2-x,y,1/2+z
x,1/2-y,1/2+z
loop_
_atom_site_type_symbol
_atom_site_label
_atom_site_fract_x
_atom_site_fract_y
_atom_site_fract_z
Si Si1 0.482239 0.122990 0.981686
Si Si2 0.296916 0.657113 0.086149
Si Si3 0.131230 0.781448 0.420121
Si Si4 0.367134 0.057291 0.751547
Si Si5 0.289874 0.003178 0.464193
Si Si6 0.053434 0.001967 0.716371
O O1 0.410234 0.126049 0.841912
O O2 0.552830 0.063843 0.911486
O O3 0.533932 0.193177 0.036392
O O4 0.441635 0.078915 0.128290
O O5 0.336838 0.683913 0.253697
O O6 0.354393 0.695473 0.945571
O O7 0.198859 0.686612 0.051519
O O8 0.290734 0.571354 0.064081
O O9 0.314791 0.066044 0.589272
O O10 0.301056 0.019167 0.875437
O O11 0.454156 0.008032 0.715095
O O12 0.367810 0.995590 0.337423
#
# Coordination Sequence:
#
# PCOD9431901 Si02
#       6
#     8   8   8   8   8   8
#     4   9  20  37  52  76 112 154 192 240 286 342
#     4  11  24  33  56  80 109 166 193 238 277 347
#     4  11  23  38  51  77 119 153 206 227 278 349
#     4  10  22  32  54  83 113 158 181 243 291 345
#     4  12  21  35  57  84 120 148 201 236 301 353
#     4   9  20  34  54  77 112 152 188 236 297 335
#
# _framework density 20.422810999999999
#
# number of rings (size 3 to 8) (size 9 to 14) (size 15 to 20)
#    1.000    0.667    0.000    6.500    7.000    0.000 
#    0.000    0.000    0.000    0.000    0.000    0.000 
#    0.000   76.000    0.000    0.000    0.000    0.000 
#
# Total GULP energy -267548.445996 kJ/mol
# GULP energy per Si atom -5573.925958 kJ/mol
# Density = 2.037633 g / cm^3
# Si number density = 20.422811 Si / 1000 Ang^3
#
#
#
# Elastic Constant Matrix: (Units=GPa)
#
#
# Indices 1 2 3 4 5 6 
#
# 1 95.1027 13.3312 30.3398 0.0000 0.0000 0.0000
# 2 13.3312 22.3193 6.6448 0.0000 0.0000 0.0000
# 3 30.3398 6.6448 78.0902 0.0000 0.0000 0.0000
# 4 0.0000 0.0000 0.0000 13.6530 0.0000 0.0000
# 5 0.0000 0.0000 0.0000 0.0000 46.0534 0.0000
# 6 0.0000 0.0000 0.0000 0.0000 0.0000 30.3497
#
#
#
# Elastic Compliance Matrix: (Units=1/GPa)
#
#
# Indices 1 2 3 4 5 6 
#
# 1 0.012820 -0.006335 -0.004442 0.000000 0.000000 0.000000
# 2 -0.006335 0.049099 -0.001717 0.000000 0.000000 0.000000
# 3 -0.004442 -0.001717 0.014678 0.000000 0.000000 0.000000
# 4 0.000000 0.000000 0.000000 0.073244 0.000000 0.000000
# 5 0.000000 0.000000 0.000000 0.000000 0.021714 0.000000
# 6 0.000000 0.000000 0.000000 0.000000 0.000000 0.032949
#
#
# Mechanical properties :
#
#
# Convention : Reuss Voigt Hill
#
# Bulk Modulus (GPa) = 19.37612 32.90485 26.14049
# Shear Modulus (GPa) = 20.26805 27.69100 23.97953
#
# Velocity S-wave (km/s) = 3.15369 3.68623 3.43031
# Velocity P-wave (km/s) = 4.77170 5.85359 5.34011
#
# Compressibility (1/GPa) = 0.05160991
#
# Stress axis : x y z
#
# Youngs Moduli (GPa) = 78.00320 20.36697 68.13142
#
# Poissons Ratio (x) = 0.12902 0.30263
# Poissons Ratio (y) = 0.49414 0.11696
# Poissons Ratio (z) = 0.34648 0.03496
#
# Static dielectric constant tensor:
#      x y z
#    x 1.748860 0.000000 0.000000 
#    y 0.000000 1.781350 0.000000 
#    z 0.000000 0.000000 1.781680 
# 
# From -- ./inp_files/3633.got.cif
#   From: 2010.05.17/outbox.cif.g08.bks.cpg/sg56_2_cif.got.tgz:3633.got - 2010.06.03 13:42:01.
