data_PCOD9431881
_publ_section_title
;
Structure prediction by ZEFSAII (Michael W. Deem and Ramdas Pophale) SiO2 
 PCOD9431881
Probable space group: P C C N
;
_chemical_formula_sum "Si O2"
_cell_formula_units_Z 40
_cell_length_a 9.068021
_cell_length_b 9.909152
_cell_length_c 17.819910
_cell_angle_alpha 90.000000
_cell_angle_beta 90.000000
_cell_angle_gamma 90.000000
_cell_volume 1601.232933
_symmetry_space_group_name_H-M "P C C N"
_symmetry_group_IT_number 56
_symmetry_cell_setting 'orthorhombic'
loop_
_space_group_symop_operation_xyz
x,y,z
1/2-x,1/2-y,z
1/2+x,-y,1/2-z
-x,1/2+y,1/2-z
-x,-y,-z
1/2+x,1/2+y,-z
1/2-x,y,1/2+z
x,1/2-y,1/2+z
loop_
_atom_site_type_symbol
_atom_site_label
_atom_site_fract_x
_atom_site_fract_y
_atom_site_fract_z
Si Si1 0.393169 0.841143 0.054589
Si Si2 0.084908 0.116368 0.188422
Si Si3 0.270437 0.520521 0.801603
Si Si4 0.032489 0.077774 0.922914
Si Si5 0.506933 0.118747 0.113074
O O1 0.250000 0.750000 0.070218
O O2 0.975738 0.762803 0.072900
O O3 0.415314 0.982614 0.096497
O O4 0.406281 0.859287 0.964914
O O5 0.417974 0.252228 0.136202
O O6 0.918553 0.098683 0.224117
O O7 0.216195 0.096378 0.246505
O O8 0.085644 0.984734 0.135107
O O9 0.317203 0.465077 0.883219
O O10 0.124023 0.603583 0.819519
O O11 0.000000 0.000000 0.000000
#
# Coordination Sequence:
#
# PCOD9431881 Si02
#       5
#     8   8   8   8   8
#     4  11  23  44  76 121 152 202 278 351 403 483
#     4  10  23  46  79 108 157 208 267 335 416 498
#     4  10  24  45  78 111 158 204 269 324 414 499
#     4  10  21  44  82 110 151 205 268 341 400 487
#     4  11  23  45  81 110 157 214 271 334 421 501
#
# _framework density 24.980751000000001
#
# number of rings (size 3 to 8) (size 9 to 14) (size 15 to 20)
#    1.200    0.400    2.000    3.000    0.000    4.000 
#    3.600    3.000    4.400    0.000    0.000    0.000 
#    0.000    0.000    0.000    0.000    0.000    0.000 
#
# Total GULP energy -223422.426393 kJ/mol
# GULP energy per Si atom -5585.560660 kJ/mol
# Density = 2.492389 g / cm^3
# Si number density = 24.980751 Si / 1000 Ang^3
#
#
#
# Elastic Constant Matrix: (Units=GPa)
#
#
# Indices 1 2 3 4 5 6 
#
# 1 101.1296 46.0904 25.0617 0.0000 0.0000 0.0000
# 2 46.0904 174.9777 46.2643 0.0000 0.0000 0.0000
# 3 25.0617 46.2643 102.6785 0.0000 0.0000 0.0000
# 4 0.0000 0.0000 0.0000 49.9442 0.0000 0.0000
# 5 0.0000 0.0000 0.0000 0.0000 39.6537 0.0000
# 6 0.0000 0.0000 0.0000 0.0000 0.0000 26.0619
#
#
#
# Elastic Compliance Matrix: (Units=1/GPa)
#
#
# Indices 1 2 3 4 5 6 
#
# 1 0.011474 -0.002590 -0.001633 0.000000 0.000000 0.000000
# 2 -0.002590 0.007073 -0.002555 0.000000 0.000000 0.000000
# 3 -0.001633 -0.002555 0.011289 0.000000 0.000000 0.000000
# 4 0.000000 0.000000 0.000000 0.020022 0.000000 0.000000
# 5 0.000000 0.000000 0.000000 0.000000 0.025218 0.000000
# 6 0.000000 0.000000 0.000000 0.000000 0.000000 0.038370
#
#
# Mechanical properties :
#
#
# Convention : Reuss Voigt Hill
#
# Bulk Modulus (GPa) = 61.42989 68.17984 64.80486
# Shear Modulus (GPa) = 37.75613 40.55659 39.15636
#
# Velocity S-wave (km/s) = 3.89190 4.03366 3.96341
# Velocity P-wave (km/s) = 6.69628 7.00329 6.85150
#
# Compressibility (1/GPa) = 0.01627872
#
# Stress axis : x y z
#
# Youngs Moduli (GPa) = 87.15622 141.38743 88.58331
#
# Poissons Ratio (x) = 0.36625 0.14468
# Poissons Ratio (y) = 0.22577 0.22629
# Poissons Ratio (z) = 0.14235 0.36118
#
# Static dielectric constant tensor:
#      x y z
#    x 2.047860 0.000000 0.000000 
#    y 0.000000 1.973150 0.000000 
#    z 0.000000 0.000000 2.025170 
# 
# From -- ./inp_files/17990.got.cif
#   From: 2010.05.17/outbox.cif.g08.bks.cpg/sg56_9_cif.got.tgz:17990.got - 2010.06.03 13:42:01.
