data_PCOD9431807
_publ_section_title
;
Structure prediction by ZEFSAII (Michael W. Deem and Ramdas Pophale) SiO2 
 PCOD9431807
Probable space group: P C C N
;
_chemical_formula_sum "Si O2"
_cell_formula_units_Z 64
_cell_length_a 27.592461
_cell_length_b 8.602989
_cell_length_c 11.877540
_cell_angle_alpha 90.000000
_cell_angle_beta 90.000000
_cell_angle_gamma 90.000000
_cell_volume 2819.462396
_symmetry_space_group_name_H-M "P C C N"
_symmetry_group_IT_number 56
_symmetry_cell_setting 'orthorhombic'
loop_
_space_group_symop_operation_xyz
x,y,z
1/2-x,1/2-y,z
1/2+x,-y,1/2-z
-x,1/2+y,1/2-z
-x,-y,-z
1/2+x,1/2+y,-z
1/2-x,y,1/2+z
x,1/2-y,1/2+z
loop_
_atom_site_type_symbol
_atom_site_label
_atom_site_fract_x
_atom_site_fract_y
_atom_site_fract_z
Si Si1 0.537798 0.140685 0.520537
Si Si2 0.191569 0.895949 0.172380
Si Si3 0.964126 0.742710 0.809242
Si Si4 0.384528 0.088998 0.537345
Si Si5 0.285820 0.030605 0.883255
Si Si6 0.182622 0.360500 0.338556
Si Si7 0.194616 0.952169 0.625273
Si Si8 0.010627 0.919071 0.621578
O O1 0.516360 0.221256 0.631572
O O2 0.538319 0.264265 0.418616
O O3 0.500000 0.000000 0.500000
O O4 0.588427 0.056574 0.520154
O O5 0.247130 0.942291 0.145314
O O6 0.178886 0.726348 0.126597
O O7 0.154723 0.019819 0.122704
O O8 0.193717 0.891846 0.308076
O O9 0.922466 0.805753 0.892870
O O10 0.963776 0.555049 0.805300
O O11 0.966548 0.843916 0.694724
O O12 0.358324 0.163271 0.430914
O O13 0.309904 0.028563 0.004241
O O14 0.298355 0.187658 0.816676
O O15 0.227346 0.038975 0.891511
O O16 0.170426 0.447584 0.223470
O O17 0.000000 0.000000 0.500000
#
# Coordination Sequence:
#
# PCOD9431807 Si02
#       8
#     8   8   8   8   8   8   8   8
#     4   9  20  41  68  94 131 172 214 266 338 399
#     4  10  23  40  65  94 130 174 228 282 336 401
#     4  10  21  42  69  95 137 177 217 276 344 407
#     4  11  22  43  64 102 134 171 230 288 330 405
#     4  10  22  42  65  89 130 177 228 270 345 401
#     4  10  23  40  66  93 127 176 226 279 333 401
#     4  10  22  42  67  89 129 181 223 276 349 396
#     4  10  21  44  73 100 128 189 218 262 345 410
#
# _framework density 22.699363999999999
#
# number of rings (size 3 to 8) (size 9 to 14) (size 15 to 20)
#    0.000    2.000    1.250    1.500    3.500    2.000 
#   18.000    0.000    0.000    0.000    0.000    0.000 
#    0.000    0.000    0.000    0.000    0.000    0.000 
#
# Total GULP energy -357076.070294 kJ/mol
# GULP energy per Si atom -5579.313598 kJ/mol
# Density = 2.264770 g / cm^3
# Si number density = 22.699364 Si / 1000 Ang^3
#
#
#
# Elastic Constant Matrix: (Units=GPa)
#
#
# Indices 1 2 3 4 5 6 
#
# 1 52.9996 17.5113 15.1240 0.0000 0.0000 0.0000
# 2 17.5113 105.2264 21.8113 0.0000 0.0000 0.0000
# 3 15.1240 21.8113 97.1093 0.0000 0.0000 0.0000
# 4 0.0000 0.0000 0.0000 31.9314 0.0000 0.0000
# 5 0.0000 0.0000 0.0000 0.0000 32.0624 0.0000
# 6 0.0000 0.0000 0.0000 0.0000 0.0000 19.6741
#
#
#
# Elastic Compliance Matrix: (Units=1/GPa)
#
#
# Indices 1 2 3 4 5 6 
#
# 1 0.020551 -0.002891 -0.002551 0.000000 0.000000 0.000000
# 2 -0.002891 0.010374 -0.001880 0.000000 0.000000 0.000000
# 3 -0.002551 -0.001880 0.011117 0.000000 0.000000 0.000000
# 4 0.000000 0.000000 0.000000 0.031317 0.000000 0.000000
# 5 0.000000 0.000000 0.000000 0.000000 0.031189 0.000000
# 6 0.000000 0.000000 0.000000 0.000000 0.000000 0.050828
#
#
# Mechanical properties :
#
#
# Convention : Reuss Voigt Hill
#
# Bulk Modulus (GPa) = 36.49897 40.46983 38.48440
# Shear Modulus (GPa) = 27.90882 30.12614 29.01748
#
# Velocity S-wave (km/s) = 3.51022 3.64700 3.57927
# Velocity P-wave (km/s) = 5.70466 5.96670 5.83715
#
# Compressibility (1/GPa) = 0.02739803
#
# Stress axis : x y z
#
# Youngs Moduli (GPa) = 48.65846 96.39379 89.95038
#
# Poissons Ratio (x) = 0.27870 0.22949
# Poissons Ratio (y) = 0.14068 0.16909
# Poissons Ratio (z) = 0.12414 0.18120
#
# Static dielectric constant tensor:
#      x y z
#    x 1.862560 0.000000 0.000000 
#    y 0.000000 1.860440 0.000000 
#    z 0.000000 0.000000 1.900580 
# 
# From -- ./inp_files/9187.got.cif
#   From: 2010.05.17/outbox.cif.g08.bks.cpg/sg56_5_cif.got.tgz:9187.got - 2010.06.03 13:42:01.
