data_PCOD9431869
_publ_section_title
;
Structure prediction by ZEFSAII (Michael W. Deem and Ramdas Pophale) SiO2 
 PCOD9431869
Probable space group: P C C N
;
_chemical_formula_sum "Si O2"
_cell_formula_units_Z 60
_cell_length_a 11.546324
_cell_length_b 17.627804
_cell_length_c 11.880380
_cell_angle_alpha 90.000000
_cell_angle_beta 90.000000
_cell_angle_gamma 90.000000
_cell_volume 2418.089020
_symmetry_space_group_name_H-M "P C C N"
_symmetry_group_IT_number 56
_symmetry_cell_setting 'orthorhombic'
loop_
_space_group_symop_operation_xyz
x,y,z
1/2-x,1/2-y,z
1/2+x,-y,1/2-z
-x,1/2+y,1/2-z
-x,-y,-z
1/2+x,1/2+y,-z
1/2-x,y,1/2+z
x,1/2-y,1/2+z
loop_
_atom_site_type_symbol
_atom_site_label
_atom_site_fract_x
_atom_site_fract_y
_atom_site_fract_z
Si Si1 0.512484 0.412886 0.078603
Si Si2 0.469658 0.541794 0.248181
Si Si3 0.289268 0.582229 0.085806
Si Si4 0.952275 0.244119 0.165304
Si Si5 0.363380 0.146741 0.398977
Si Si6 0.608395 0.685246 0.650019
Si Si7 0.250000 0.750000 0.155177
Si Si8 0.054364 0.899152 0.481493
O O1 0.503240 0.462731 0.189638
O O2 0.603412 0.446651 0.989437
O O3 0.572073 0.332014 0.098325
O O4 0.391906 0.394270 0.016270
O O5 0.488733 0.547020 0.380522
O O6 0.335782 0.558471 0.209960
O O7 0.548276 0.607660 0.189272
O O8 0.169348 0.560473 0.029234
O O9 0.268357 0.672670 0.089468
O O10 0.862225 0.245598 0.267035
O O11 0.936148 0.319409 0.091468
O O12 0.072113 0.219040 0.228126
O O13 0.388826 0.235688 0.419138
O O14 0.233615 0.146177 0.352890
O O15 0.522312 0.628652 0.586412
#
# Coordination Sequence:
#
# PCOD9431869 Si02
#       8
#     8   8   8   8   8   8   4   8
#     4  11  24  45  68  97 135 186 231 274 352 422
#     4  11  25  48  67  98 142 188 231 282 351 427
#     4  11  22  40  69 100 133 176 221 288 348 403
#     4  12  22  41  66 106 134 172 227 283 343 405
#     4  10  21  44  68  96 134 181 230 279 339 408
#     4  11  23  41  68 102 135 174 228 291 335 401
#     4  12  20  38  70 102 136 162 222 300 344 394
#     4  12  23  43  71 103 139 173 233 287 347 410
#
# _framework density 24.812982999999999
#
# number of rings (size 3 to 8) (size 9 to 14) (size 15 to 20)
#    0.000    0.800    5.333    4.000    0.000    1.067 
#    7.200    2.000    0.000    0.000    0.000    0.000 
#    0.000    0.000    0.000    0.000    0.000    0.000 
#
# Total GULP energy -335205.077381 kJ/mol
# GULP energy per Si atom -5586.751290 kJ/mol
# Density = 2.475651 g / cm^3
# Si number density = 24.812983 Si / 1000 Ang^3
#
#
#
# Elastic Constant Matrix: (Units=GPa)
#
#
# Indices 1 2 3 4 5 6 
#
# 1 133.2997 12.7505 46.2794 0.0000 0.0000 0.0000
# 2 12.7505 86.9532 19.7721 0.0000 0.0000 0.0000
# 3 46.2794 19.7721 89.0782 0.0000 0.0000 0.0000
# 4 0.0000 0.0000 0.0000 44.4147 0.0000 0.0000
# 5 0.0000 0.0000 0.0000 0.0000 9.5751 0.0000
# 6 0.0000 0.0000 0.0000 0.0000 0.0000 4.0984
#
#
#
# Elastic Compliance Matrix: (Units=1/GPa)
#
#
# Indices 1 2 3 4 5 6 
#
# 1 0.009159 -0.000275 -0.004697 0.000000 0.000000 0.000000
# 2 -0.000275 0.012120 -0.002547 0.000000 0.000000 0.000000
# 3 -0.004697 -0.002547 0.014232 0.000000 0.000000 0.000000
# 4 0.000000 0.000000 0.000000 0.022515 0.000000 0.000000
# 5 0.000000 0.000000 0.000000 0.000000 0.104437 0.000000
# 6 0.000000 0.000000 0.000000 0.000000 0.000000 0.243999
#
#
# Mechanical properties :
#
#
# Convention : Reuss Voigt Hill
#
# Bulk Modulus (GPa) = 48.84813 51.88167 50.36490
# Shear Modulus (GPa) = 11.67334 26.98623 19.32979
#
# Velocity S-wave (km/s) = 2.17135 3.30143 2.79412
# Velocity P-wave (km/s) = 5.10055 5.95710 5.54539
#
# Compressibility (1/GPa) = 0.02047161
#
# Stress axis : x y z
#
# Youngs Moduli (GPa) = 109.18152 82.50826 70.26412
#
# Poissons Ratio (x) = 0.02268 0.33006
# Poissons Ratio (y) = 0.03001 0.17899
# Poissons Ratio (z) = 0.51287 0.21018
#
# Static dielectric constant tensor:
#      x y z
#    x 2.007730 0.000000 0.000000 
#    y 0.000000 1.997940 0.000000 
#    z 0.000000 0.000000 2.035490 
# 
# From -- ./inp_files/11815.got.cif
#   From: 2010.05.17/outbox.cif.g08.bks.cpg/sg56_6_cif.got.tgz:11815.got - 2010.06.03 13:42:01.
