data_PCOD9431970
_publ_section_title
;
Structure prediction by ZEFSAII (Michael W. Deem and Ramdas Pophale) SiO2 
 PCOD9431970
Probable space group: P C C N
;
_chemical_formula_sum "Si O2"
_cell_formula_units_Z 44
_cell_length_a 26.096995
_cell_length_b 5.551686
_cell_length_c 13.025856
_cell_angle_alpha 90.000000
_cell_angle_beta 90.000000
_cell_angle_gamma 90.000000
_cell_volume 1887.216260
_symmetry_space_group_name_H-M "P C C N"
_symmetry_group_IT_number 56
_symmetry_cell_setting 'orthorhombic'
loop_
_space_group_symop_operation_xyz
x,y,z
1/2-x,1/2-y,z
1/2+x,-y,1/2-z
-x,1/2+y,1/2-z
-x,-y,-z
1/2+x,1/2+y,-z
1/2-x,y,1/2+z
x,1/2-y,1/2+z
loop_
_atom_site_type_symbol
_atom_site_label
_atom_site_fract_x
_atom_site_fract_y
_atom_site_fract_z
Si Si1 0.750000 0.750000 0.643190
Si Si2 0.049578 0.161775 0.967813
Si Si3 0.702089 0.135529 0.295159
Si Si4 0.612956 0.863938 0.341873
Si Si5 0.524776 0.499727 0.716866
Si Si6 0.147199 0.476931 0.344339
O O1 0.730866 0.544693 0.719593
O O2 0.804010 0.649761 0.597388
O O3 0.034063 0.387077 0.895548
O O4 0.094191 0.007986 0.908345
O O5 0.081349 0.251122 0.066299
O O6 0.000000 0.000000 0.000000
O O7 0.750000 0.250000 0.354088
O O8 0.669941 0.292721 0.213443
O O9 0.662936 0.011660 0.372243
O O10 0.575458 0.045458 0.282845
O O11 0.631034 0.685900 0.253215
O O12 0.497438 0.241777 0.725943
#
# Coordination Sequence:
#
# PCOD9431970 Si02
#       6
#     4   8   8   8   8   8
#     4   8  16  38  64  92 122 172 224 274 346 410
#     4  11  23  41  63 101 137 182 232 280 344 417
#     4   9  18  38  66  93 129 174 220 279 348 408
#     4  10  22  38  61  94 133 175 228 273 342 408
#     4  11  25  45  68  95 137 185 228 282 338 406
#     4   9  20  38  64  90 132 178 221 285 340 414
#
# _framework density 23.314762999999999
#
# number of rings (size 3 to 8) (size 9 to 14) (size 15 to 20)
#    0.000    2.182    1.818    0.000    5.091    0.727 
#    3.273    8.182    0.000    0.000    0.000    0.000 
#    0.000    0.000    0.000    0.000    0.000    0.000 
#
# Total GULP energy -244991.164861 kJ/mol
# GULP energy per Si atom -5567.981020 kJ/mol
# Density = 2.326170 g / cm^3
# Si number density = 23.314763 Si / 1000 Ang^3
#
#
#
# Elastic Constant Matrix: (Units=GPa)
#
#
# Indices 1 2 3 4 5 6 
#
# 1 185.0264 47.8333 54.2592 0.0000 0.0000 0.0000
# 2 47.8333 39.9442 -0.1357 0.0000 0.0000 0.0000
# 3 54.2592 -0.1357 79.1981 0.0000 0.0000 0.0000
# 4 0.0000 0.0000 0.0000 -143.2210 0.0000 0.0000
# 5 0.0000 0.0000 0.0000 0.0000 102.3332 0.0000
# 6 0.0000 0.0000 0.0000 0.0000 0.0000 50.4924
#
#
#
# Elastic Compliance Matrix: (Units=1/GPa)
#
#
# Indices 1 2 3 4 5 6 
#
# 1 0.011068 -0.013280 -0.007606 0.000000 0.000000 0.000000
# 2 -0.013280 0.040969 0.009168 0.000000 0.000000 0.000000
# 3 -0.007606 0.009168 0.017853 0.000000 0.000000 0.000000
# 4 0.000000 0.000000 0.000000 -0.006982 0.000000 0.000000
# 5 0.000000 0.000000 0.000000 0.000000 0.009772 0.000000
# 6 0.000000 0.000000 0.000000 0.000000 0.000000 0.019805
#
#
# Mechanical properties :
#
#
# Convention : Reuss Voigt Hill
#
# Bulk Modulus (GPa) = 21.52600 56.45358 38.98979
# Shear Modulus (GPa) = 38.05057 15.40171 26.72614
#
# Velocity S-wave (km/s) = 4.04423 2.57300 3.38941
# Velocity P-wave (km/s) = 5.57320 5.75268 5.66365
#
# Compressibility (1/GPa) = 0.04645546
#
# Stress axis : x y z
#
# Youngs Moduli (GPa) = 90.34953 24.40884 56.01324
#
# Poissons Ratio (x) = 0.32415 0.42601
# Poissons Ratio (y) = 1.19983 -0.51355
# Poissons Ratio (z) = 0.68716 -0.22379
#
# Static dielectric constant tensor:
#      x y z
#    x 1.518630 0.000000 0.000000 
#    y 0.000000 1.733450 0.000000 
#    z 0.000000 0.000000 1.890400 
# 
# From -- ./inp_files/13329.got.cif
#   From: 2010.05.17/outbox.cif.g08.bks.cpg/sg56_7_cif.got.tgz:13329.got - 2010.06.03 13:42:01.
