data_PCOD9431340
_publ_section_title
;
Structure prediction by ZEFSAII (Michael W. Deem and Ramdas Pophale) SiO2 
 PCOD9431340
Probable space group: P C C N
;
_chemical_formula_sum "Si O2"
_cell_formula_units_Z 32
_cell_length_a 40.204634
_cell_length_b 7.163215
_cell_length_c 5.217346
_cell_angle_alpha 90.000000
_cell_angle_beta 90.000000
_cell_angle_gamma 90.000000
_cell_volume 1502.566626
_symmetry_space_group_name_H-M "P C C N"
_symmetry_group_IT_number 56
_symmetry_cell_setting 'orthorhombic'
loop_
_space_group_symop_operation_xyz
x,y,z
1/2-x,1/2-y,z
1/2+x,-y,1/2-z
-x,1/2+y,1/2-z
-x,-y,-z
1/2+x,1/2+y,-z
1/2-x,y,1/2+z
x,1/2-y,1/2+z
loop_
_atom_site_type_symbol
_atom_site_label
_atom_site_fract_x
_atom_site_fract_y
_atom_site_fract_z
Si Si1 0.469119 0.632989 0.937431
Si Si2 0.594563 0.877291 0.547526
Si Si3 0.830902 0.876840 0.991122
Si Si4 0.763812 0.459955 0.637027
O O1 0.470890 0.701706 0.645232
O O2 0.434532 0.525868 0.979264
O O3 0.500000 0.500000 0.000000
O O4 0.591444 0.725057 0.320963
O O5 0.631921 0.957385 0.521163
O O6 0.827998 0.718942 0.213137
O O7 0.801397 0.022228 0.042041
O O8 0.750000 0.250000 0.674519
O O9 0.740989 0.547638 0.415879
#
# Coordination Sequence:
#
# PCOD9431340 Si02
#       4
#     8   8   8   8
#     4  12  24  41  64  97 127 167 207 248 300 359
#     4  10  21  41  63  89 125 162 201 255 309 361
#     4  10  21  37  60  85 113 154 199 245 300 359
#     4  10  21  37  53  81 113 151 191 242 309 343
#
# _framework density 21.296890000000001
#
# number of rings (size 3 to 8) (size 9 to 14) (size 15 to 20)
#    0.000    1.500    0.000    5.250    0.000    3.000 
#    9.000    0.000    0.000    0.000    0.000    0.000 
#    0.000    0.000    0.000    0.000    0.000    0.000 
#
# Total GULP energy -178837.739978 kJ/mol
# GULP energy per Si atom -5588.679374 kJ/mol
# Density = 2.124842 g / cm^3
# Si number density = 21.296890 Si / 1000 Ang^3
#
#
#
# Elastic Constant Matrix: (Units=GPa)
#
#
# Indices 1 2 3 4 5 6 
#
# 1 155.1688 39.9015 -1.7993 0.0000 0.0000 0.0000
# 2 39.9015 39.7653 -24.1662 0.0000 0.0000 0.0000
# 3 -1.7993 -24.1662 94.3907 0.0000 0.0000 0.0000
# 4 0.0000 0.0000 0.0000 28.0235 0.0000 0.0000
# 5 0.0000 0.0000 0.0000 0.0000 30.1693 0.0000
# 6 0.0000 0.0000 0.0000 0.0000 0.0000 50.3686
#
#
#
# Elastic Compliance Matrix: (Units=1/GPa)
#
#
# Indices 1 2 3 4 5 6 
#
# 1 0.009191 -0.010795 -0.002589 0.000000 0.000000 0.000000
# 2 -0.010795 0.042461 0.010665 0.000000 0.000000 0.000000
# 3 -0.002589 0.010665 0.013275 0.000000 0.000000 0.000000
# 4 0.000000 0.000000 0.000000 0.035684 0.000000 0.000000
# 5 0.000000 0.000000 0.000000 0.000000 0.033146 0.000000
# 6 0.000000 0.000000 0.000000 0.000000 0.000000 0.019854
#
#
# Mechanical properties :
#
#
# Convention : Reuss Voigt Hill
#
# Bulk Modulus (GPa) = 16.80947 35.24410 26.02679
# Shear Modulus (GPa) = 27.95189 40.07153 34.01171
#
# Velocity S-wave (km/s) = 3.62676 4.34241 4.00062
# Velocity P-wave (km/s) = 5.04459 6.45964 5.79546
#
# Compressibility (1/GPa) = 0.05949027
#
# Stress axis : x y z
#
# Youngs Moduli (GPa) = 108.80727 23.55086 75.32675
#
# Poissons Ratio (x) = 0.25424 0.19499
# Poissons Ratio (y) = 1.17460 -0.80338
# Poissons Ratio (z) = 0.28166 -0.25118
#
# Static dielectric constant tensor:
#      x y z
#    x 1.760250 0.000000 0.000000 
#    y 0.000000 1.608200 0.000000 
#    z 0.000000 0.000000 1.812300 
# 
# From -- ./inp_files/1305.got.cif
#   From: 2010.05.17/outbox.cif.g08.bks.cpg/sg56_1_cif.got.tgz:1305.got - 2010.06.03 13:42:01.
