data_PCOD9431676
_publ_section_title
;
Structure prediction by ZEFSAII (Michael W. Deem and Ramdas Pophale) SiO2 
 PCOD9431676
Probable space group: P C C N
;
_chemical_formula_sum "Si O2"
_cell_formula_units_Z 40
_cell_length_a 7.942037
_cell_length_b 8.013911
_cell_length_c 27.019758
_cell_angle_alpha 90.000000
_cell_angle_beta 90.000000
_cell_angle_gamma 90.000000
_cell_volume 1719.720530
_symmetry_space_group_name_H-M "P C C N"
_symmetry_group_IT_number 56
_symmetry_cell_setting 'orthorhombic'
loop_
_space_group_symop_operation_xyz
x,y,z
1/2-x,1/2-y,z
1/2+x,-y,1/2-z
-x,1/2+y,1/2-z
-x,-y,-z
1/2+x,1/2+y,-z
1/2-x,y,1/2+z
x,1/2-y,1/2+z
loop_
_atom_site_type_symbol
_atom_site_label
_atom_site_fract_x
_atom_site_fract_y
_atom_site_fract_z
Si Si1 0.456886 0.566633 0.053560
Si Si2 0.921822 0.158707 0.727173
Si Si3 0.068464 0.911810 0.585076
Si Si4 0.575280 0.700267 0.681531
Si Si5 0.046376 0.262780 0.620790
O O1 0.518267 0.758232 0.056925
O O2 0.254725 0.570314 0.062817
O O3 0.515614 0.432562 0.094979
O O4 0.500000 0.500000 0.000000
O O5 0.750000 0.250000 0.740212
O O6 0.031168 0.167255 0.776600
O O7 0.993999 0.247736 0.677911
O O8 0.898133 0.969801 0.711295
O O9 0.066482 0.838782 0.641133
O O10 0.988089 0.095354 0.591147
O O11 0.750000 0.750000 0.656095
O O12 0.250000 0.250000 0.619354
#
# Coordination Sequence:
#
# PCOD9431676 Si02
#       5
#     8   8   8   8   8
#     4  10  21  40  69  96 126 174 225 284 348 400
#     4  11  24  38  64  99 132 181 219 273 331 412
#     4   9  22  42  64  96 129 171 219 279 337 407
#     4  11  24  42  64  99 136 179 223 272 343 411
#     4   9  20  41  65  92 135 171 217 274 334 403
#
# _framework density 23.259592999999999
#
# number of rings (size 3 to 8) (size 9 to 14) (size 15 to 20)
#    0.000    2.000    0.000    1.800    8.400    2.400 
#    3.600    3.000    0.000    0.000    0.000    0.000 
#    0.000    0.000    0.000    0.000    0.000    0.000 
#
# Total GULP energy -223428.033209 kJ/mol
# GULP energy per Si atom -5585.700830 kJ/mol
# Density = 2.320665 g / cm^3
# Si number density = 23.259593 Si / 1000 Ang^3
#
#
#
# Elastic Constant Matrix: (Units=GPa)
#
#
# Indices 1 2 3 4 5 6 
#
# 1 69.2138 16.5589 39.1901 0.0000 0.0000 0.0000
# 2 16.5589 107.4734 21.7125 0.0000 0.0000 0.0000
# 3 39.1901 21.7125 82.9620 0.0000 0.0000 0.0000
# 4 0.0000 0.0000 0.0000 56.2896 0.0000 0.0000
# 5 0.0000 0.0000 0.0000 0.0000 62.1422 0.0000
# 6 0.0000 0.0000 0.0000 0.0000 0.0000 13.8701
#
#
#
# Elastic Compliance Matrix: (Units=1/GPa)
#
#
# Indices 1 2 3 4 5 6 
#
# 1 0.019876 -0.001231 -0.009067 0.000000 0.000000 0.000000
# 2 -0.001231 0.009900 -0.002010 0.000000 0.000000 0.000000
# 3 -0.009067 -0.002010 0.016863 0.000000 0.000000 0.000000
# 4 0.000000 0.000000 0.000000 0.017765 0.000000 0.000000
# 5 0.000000 0.000000 0.000000 0.000000 0.016092 0.000000
# 6 0.000000 0.000000 0.000000 0.000000 0.000000 0.072098
#
#
# Mechanical properties :
#
#
# Convention : Reuss Voigt Hill
#
# Bulk Modulus (GPa) = 45.40420 46.06357 45.73389
# Shear Modulus (GPa) = 27.09272 38.60623 32.84947
#
# Velocity S-wave (km/s) = 3.41662 4.07848 3.76213
# Velocity P-wave (km/s) = 5.92683 6.48273 6.21100
#
# Compressibility (1/GPa) = 0.02202439
#
# Stress axis : x y z
#
# Youngs Moduli (GPa) = 50.31081 101.00753 59.30166
#
# Poissons Ratio (x) = 0.12430 0.53770
# Poissons Ratio (y) = 0.06191 0.11918
# Poissons Ratio (z) = 0.45618 0.20300
#
# Static dielectric constant tensor:
#      x y z
#    x 1.885940 0.000000 0.000000 
#    y 0.000000 2.301550 0.000000 
#    z 0.000000 0.000000 1.853130 
# 
# From -- ./inp_files/20325.got.cif
#   From: 2010.05.17/outbox.cif.g08.bks.cpg/sg56_11_cif.got.tgz:20325.got - 2010.06.03 13:42:01.
