data_PCOD9431838
_publ_section_title
;
Structure prediction by ZEFSAII (Michael W. Deem and Ramdas Pophale) SiO2 
 PCOD9431838
Probable space group: P C C N
;
_chemical_formula_sum "Si O2"
_cell_formula_units_Z 32
_cell_length_a 8.130871
_cell_length_b 10.515241
_cell_length_c 14.427789
_cell_angle_alpha 90.000000
_cell_angle_beta 90.000000
_cell_angle_gamma 90.000000
_cell_volume 1233.548087
_symmetry_space_group_name_H-M "P C C N"
_symmetry_group_IT_number 56
_symmetry_cell_setting 'orthorhombic'
loop_
_space_group_symop_operation_xyz
x,y,z
1/2-x,1/2-y,z
1/2+x,-y,1/2-z
-x,1/2+y,1/2-z
-x,-y,-z
1/2+x,1/2+y,-z
1/2-x,y,1/2+z
x,1/2-y,1/2+z
loop_
_atom_site_type_symbol
_atom_site_label
_atom_site_fract_x
_atom_site_fract_y
_atom_site_fract_z
Si Si1 0.276122 0.502507 0.626216
Si Si2 0.116430 0.388324 0.801563
Si Si3 0.297212 0.559751 0.923018
Si Si4 0.515332 0.772895 0.858573
O O1 0.171224 0.485501 0.719206
O O2 0.440361 0.578118 0.655024
O O3 0.206302 0.561614 0.533528
O O4 0.343309 0.361855 0.600612
O O5 0.254245 0.421291 0.879629
O O6 0.076467 0.257042 0.746383
O O7 0.461519 0.634902 0.895508
O O8 0.146617 0.643416 0.880757
#
# Coordination Sequence:
#
# PCOD9431838 Si02
#       4
#     8   8   8   8
#     4  11  24  45  71 103 154 181 242 298 354 440
#     4  11  21  44  68 103 140 185 235 299 346 428
#     4  10  23  46  68 104 149 185 238 298 361 430
#     4  10  21  43  68 102 139 181 236 290 352 424
#
# _framework density 25.941427999999998
#
# number of rings (size 3 to 8) (size 9 to 14) (size 15 to 20)
#    0.000    1.500    2.500    3.750    0.000    1.000 
#   27.000    5.000    0.000    0.000    0.000    0.000 
#    0.000    0.000    0.000    0.000    0.000    0.000 
#
# Total GULP energy -178527.919116 kJ/mol
# GULP energy per Si atom -5578.997472 kJ/mol
# Density = 2.588238 g / cm^3
# Si number density = 25.941428 Si / 1000 Ang^3
#
#
#
# Elastic Constant Matrix: (Units=GPa)
#
#
# Indices 1 2 3 4 5 6 
#
# 1 44.4640 2.1886 27.8689 0.0000 0.0000 0.0000
# 2 2.1886 44.2060 5.1536 0.0000 0.0000 0.0000
# 3 27.8689 5.1536 142.5502 0.0000 0.0000 0.0000
# 4 0.0000 0.0000 0.0000 -3.4743 0.0000 0.0000
# 5 0.0000 0.0000 0.0000 0.0000 22.0936 0.0000
# 6 0.0000 0.0000 0.0000 0.0000 0.0000 37.4600
#
#
#
# Elastic Compliance Matrix: (Units=1/GPa)
#
#
# Indices 1 2 3 4 5 6 
#
# 1 0.025652 -0.000688 -0.004990 0.000000 0.000000 0.000000
# 2 -0.000688 0.022736 -0.000687 0.000000 0.000000 0.000000
# 3 -0.004990 -0.000687 0.008015 0.000000 0.000000 0.000000
# 4 0.000000 0.000000 0.000000 -0.287828 0.000000 0.000000
# 5 0.000000 0.000000 0.000000 0.000000 0.045262 0.000000
# 6 0.000000 0.000000 0.000000 0.000000 0.000000 0.026695
#
#
# Mechanical properties :
#
#
# Convention : Reuss Voigt Hill
#
# Bulk Modulus (GPa) = 22.89837 33.51584 28.20710
# Shear Modulus (GPa) = -37.82724 24.28313 -6.77206
#
# Velocity S-wave (km/s) = -3.82275 3.06285 -1.61746
# Velocity P-wave (km/s) = 3.26167 5.04539 2.72190
#
# Compressibility (1/GPa) = 0.04367123
#
# Stress axis : x y z
#
# Youngs Moduli (GPa) = 38.98394 43.98389 124.75848
#
# Poissons Ratio (x) = 0.03027 0.62255
# Poissons Ratio (y) = 0.02683 0.08576
# Poissons Ratio (z) = 0.19453 0.03023
#
# Static dielectric constant tensor:
#      x y z
#    x 2.060990 0.000000 0.000000 
#    y 0.000000 2.292020 0.000000 
#    z 0.000000 0.000000 1.957050 
# 
# From -- ./inp_files/10140.got.cif
#   From: 2010.05.17/outbox.cif.g08.bks.cpg/sg56_6_cif.got.tgz:10140.got - 2010.06.03 13:42:01.
