data_PCOD9431215
_publ_section_title
;
Structure prediction by ZEFSAII (Michael W. Deem and Ramdas Pophale) SiO2 
 PCOD9431215
Probable space group: P C C N
;
_chemical_formula_sum "Si O2"
_cell_formula_units_Z 32
_cell_length_a 5.802877
_cell_length_b 8.173112
_cell_length_c 29.923489
_cell_angle_alpha 90.000000
_cell_angle_beta 90.000000
_cell_angle_gamma 90.000000
_cell_volume 1419.198179
_symmetry_space_group_name_H-M "P C C N"
_symmetry_group_IT_number 56
_symmetry_cell_setting 'orthorhombic'
loop_
_space_group_symop_operation_xyz
x,y,z
1/2-x,1/2-y,z
1/2+x,-y,1/2-z
-x,1/2+y,1/2-z
-x,-y,-z
1/2+x,1/2+y,-z
1/2-x,y,1/2+z
x,1/2-y,1/2+z
loop_
_atom_site_type_symbol
_atom_site_label
_atom_site_fract_x
_atom_site_fract_y
_atom_site_fract_z
Si Si1 0.750000 0.750000 0.639655
Si Si2 0.749548 0.935739 0.483606
Si Si3 0.143279 0.931632 0.609704
Si Si4 0.750000 0.250000 0.228861
Si Si5 0.417296 0.987705 0.694284
O O1 0.625583 0.611907 0.610227
O O2 0.581726 0.852173 0.671365
O O3 0.750000 0.750000 0.497181
O O4 0.500000 0.000000 0.500000
O O5 0.764154 0.960361 0.430176
O O6 0.000000 0.000000 0.500000
O O7 0.250000 0.750000 0.603703
O O8 0.212035 0.999520 0.658289
O O9 0.660722 0.101079 0.260220
O O10 0.548062 0.341514 0.201817
#
# Coordination Sequence:
#
# PCOD9431215 Si02
#       5
#     4   8   8   4   8
#     4  10  20  44  70 100 142 194 236 310 376 432
#     4  12  28  50  78 116 155 199 251 315 383 467
#     4  10  23  44  72 104 147 191 244 305 388 442
#     4  12  24  44  68  98 142 190 248 300 366 436
#     4  11  24  43  66 102 143 191 242 306 367 442
#
# _framework density 22.547943
#
# number of rings (size 3 to 8) (size 9 to 14) (size 15 to 20)
#    0.000    1.000    3.750    3.750    8.750    2.000 
#    0.000    0.000    0.000    0.000    0.000    0.000 
#    0.000    0.000    0.000    0.000    0.000    0.000 
#
# Total GULP energy -178701.281973 kJ/mol
# GULP energy per Si atom -5584.415062 kJ/mol
# Density = 2.249662 g / cm^3
# Si number density = 22.547943 Si / 1000 Ang^3
#
#
#
# Elastic Constant Matrix: (Units=GPa)
#
#
# Indices 1 2 3 4 5 6 
#
# 1 135.6731 61.7717 41.8492 0.0000 0.0000 0.0000
# 2 61.7717 109.1916 27.0736 0.0000 0.0000 0.0000
# 3 41.8492 27.0736 69.4556 0.0000 0.0000 0.0000
# 4 0.0000 0.0000 0.0000 28.5788 0.0000 0.0000
# 5 0.0000 0.0000 0.0000 0.0000 20.2897 0.0000
# 6 0.0000 0.0000 0.0000 0.0000 0.0000 52.0130
#
#
#
# Elastic Compliance Matrix: (Units=1/GPa)
#
#
# Indices 1 2 3 4 5 6 
#
# 1 0.011172 -0.005149 -0.004725 0.000000 0.000000 0.000000
# 2 -0.005149 0.012511 -0.001774 0.000000 0.000000 0.000000
# 3 -0.004725 -0.001774 0.017936 0.000000 0.000000 0.000000
# 4 0.000000 0.000000 0.000000 0.034991 0.000000 0.000000
# 5 0.000000 0.000000 0.000000 0.000000 0.049286 0.000000
# 6 0.000000 0.000000 0.000000 0.000000 0.000000 0.019226
#
#
# Mechanical properties :
#
#
# Convention : Reuss Voigt Hill
#
# Bulk Modulus (GPa) = 54.57459 63.96768 59.27114
# Shear Modulus (GPa) = 28.64899 32.41800 30.53350
#
# Velocity S-wave (km/s) = 3.56839 3.79586 3.68388
# Velocity P-wave (km/s) = 6.42139 6.90237 6.66622
#
# Compressibility (1/GPa) = 0.01832355
#
# Stress axis : x y z
#
# Youngs Moduli (GPa) = 89.50709 79.92968 55.75354
#
# Poissons Ratio (x) = 0.41155 0.26342
# Poissons Ratio (y) = 0.46087 0.09893
# Poissons Ratio (z) = 0.42289 0.14182
#
# Static dielectric constant tensor:
#      x y z
#    x 1.896400 0.000000 0.000000 
#    y 0.000000 1.789610 0.000000 
#    z 0.000000 0.000000 1.846510 
# 
# From -- ./inp_files/22689.got.cif
#   From: 2010.05.17/outbox.cif.g08.bks.cpg/sg56_12_cif.got.tgz:22689.got - 2010.06.03 13:42:01.
