data_PCOD9431431
_publ_section_title
;
Structure prediction by ZEFSAII (Michael W. Deem and Ramdas Pophale) SiO2 
 PCOD9431431
Probable space group: P C C N
;
_chemical_formula_sum "Si O2"
_cell_formula_units_Z 64
_cell_length_a 21.590686
_cell_length_b 15.935662
_cell_length_c 9.243957
_cell_angle_alpha 90.000000
_cell_angle_beta 90.000000
_cell_angle_gamma 90.000000
_cell_volume 3180.493173
_symmetry_space_group_name_H-M "P C C N"
_symmetry_group_IT_number 56
_symmetry_cell_setting 'orthorhombic'
loop_
_space_group_symop_operation_xyz
x,y,z
1/2-x,1/2-y,z
1/2+x,-y,1/2-z
-x,1/2+y,1/2-z
-x,-y,-z
1/2+x,1/2+y,-z
1/2-x,y,1/2+z
x,1/2-y,1/2+z
loop_
_atom_site_type_symbol
_atom_site_label
_atom_site_fract_x
_atom_site_fract_y
_atom_site_fract_z
Si Si1 0.264072 0.052870 0.558417
Si Si2 0.497099 0.678081 0.774941
Si Si3 0.997007 0.645531 0.934439
Si Si4 0.252062 0.557333 0.813211
Si Si5 0.632115 0.357117 0.573670
Si Si6 0.368927 0.331570 0.193807
Si Si7 0.137549 0.151318 0.539482
Si Si8 0.638108 0.180499 0.733555
O O1 0.318191 0.109281 0.622596
O O2 0.198262 0.098417 0.572432
O O3 0.260897 0.966901 0.648664
O O4 0.275140 0.026438 0.393595
O O5 0.500610 0.773370 0.831437
O O6 0.500358 0.675915 0.601170
O O7 0.560326 0.637652 0.833265
O O8 0.429146 0.644770 0.816134
O O9 0.928359 0.606943 0.920955
O O10 0.063464 0.602215 0.908863
O O11 0.187142 0.581591 0.884847
O O12 0.303450 0.629050 0.823931
O O13 0.639185 0.275662 0.676463
O O14 0.638896 0.326336 0.407885
O O15 0.361128 0.330046 0.367308
O O16 0.361536 0.239097 0.125753
#
# Coordination Sequence:
#
# PCOD9431431 Si02
#       8
#     8   8   8   8   8   8   8   8
#     4  12  25  40  55  81 119 154 191 232 280 332
#     4   8  16  34  58  84 110 139 183 235 279 327
#     4   8  16  34  58  85 110 137 185 236 277 329
#     4  12  25  40  55  81 119 154 191 232 280 332
#     4  10  21  38  62  87 111 148 190 233 282 334
#     4  10  21  38  62  86 112 147 190 234 280 337
#     4  10  21  38  62  87 111 148 190 233 282 334
#     4  10  21  38  62  86 112 147 190 234 280 337
#
# _framework density 20.122665000000001
#
# number of rings (size 3 to 8) (size 9 to 14) (size 15 to 20)
#    0.000    2.000    2.500    0.750    3.500    2.000 
#    0.000    2.500    0.000    0.000    0.000    0.000 
#    0.000    0.000    0.000    0.000    0.000    0.000 
#
# Total GULP energy -356816.934454 kJ/mol
# GULP energy per Si atom -5575.264601 kJ/mol
# Density = 2.007686 g / cm^3
# Si number density = 20.122665 Si / 1000 Ang^3
#
#
#
# Elastic Constant Matrix: (Units=GPa)
#
#
# Indices 1 2 3 4 5 6 
#
# 1 99.8350 10.8983 16.0632 0.0000 0.0000 0.0000
# 2 10.8983 19.5186 -4.6708 0.0000 0.0000 0.0000
# 3 16.0632 -4.6708 32.2828 0.0000 0.0000 0.0000
# 4 0.0000 0.0000 0.0000 30.4103 0.0000 0.0000
# 5 0.0000 0.0000 0.0000 0.0000 28.5570 0.0000
# 6 0.0000 0.0000 0.0000 0.0000 0.0000 -41.9305
#
#
#
# Elastic Compliance Matrix: (Units=1/GPa)
#
#
# Indices 1 2 3 4 5 6 
#
# 1 0.012112 -0.008499 -0.007256 0.000000 0.000000 0.000000
# 2 -0.008499 0.059035 0.012770 0.000000 0.000000 0.000000
# 3 -0.007256 0.012770 0.036434 0.000000 0.000000 0.000000
# 4 0.000000 0.000000 0.000000 0.032884 0.000000 0.000000
# 5 0.000000 0.000000 0.000000 0.000000 0.035018 0.000000
# 6 0.000000 0.000000 0.000000 0.000000 0.000000 -0.023849
#
#
# Mechanical properties :
#
#
# Convention : Reuss Voigt Hill
#
# Bulk Modulus (GPa) = 9.84145 21.80195 15.82170
# Shear Modulus (GPa) = 26.11327 12.03042 19.07185
#
# Velocity S-wave (km/s) = 3.60627 2.44776 3.08194
# Velocity P-wave (km/s) = 4.71610 4.34128 4.53257
#
# Compressibility (1/GPa) = 0.10161101
#
# Stress axis : x y z
#
# Youngs Moduli (GPa) = 82.56396 16.93919 27.44653
#
# Poissons Ratio (x) = 0.14397 0.19916
# Poissons Ratio (y) = 0.70172 -0.35050
# Poissons Ratio (z) = 0.59910 -0.21632
#
# Static dielectric constant tensor:
#      x y z
#    x 1.770850 0.000000 0.000000 
#    y 0.000000 1.675180 0.000000 
#    z 0.000000 0.000000 1.691880 
# 
# From -- ./inp_files/4564.got.cif
#   From: 2010.05.17/outbox.cif.g08.bks.cpg/sg56_3_cif.got.tgz:4564.got - 2010.06.03 13:42:01.
