data_PCOD9431631
_publ_section_title
;
Structure prediction by ZEFSAII (Michael W. Deem and Ramdas Pophale) SiO2 
 PCOD9431631
Probable space group: P C C N
;
_chemical_formula_sum "Si O2"
_cell_formula_units_Z 48
_cell_length_a 29.438943
_cell_length_b 8.736997
_cell_length_c 9.591880
_cell_angle_alpha 90.000000
_cell_angle_beta 90.000000
_cell_angle_gamma 90.000000
_cell_volume 2467.107855
_symmetry_space_group_name_H-M "P C C N"
_symmetry_group_IT_number 56
_symmetry_cell_setting 'orthorhombic'
loop_
_space_group_symop_operation_xyz
x,y,z
1/2-x,1/2-y,z
1/2+x,-y,1/2-z
-x,1/2+y,1/2-z
-x,-y,-z
1/2+x,1/2+y,-z
1/2-x,y,1/2+z
x,1/2-y,1/2+z
loop_
_atom_site_type_symbol
_atom_site_label
_atom_site_fract_x
_atom_site_fract_y
_atom_site_fract_z
Si Si1 0.378550 0.608140 0.527383
Si Si2 0.889803 0.089888 0.794166
Si Si3 0.788633 0.923558 0.474000
Si Si4 0.798838 0.894209 0.809716
Si Si5 0.965048 0.562576 0.886212
Si Si6 0.516278 0.921786 0.358837
O O1 0.388637 0.760748 0.611343
O O2 0.386334 0.639735 0.365496
O O3 0.327617 0.548218 0.547183
O O4 0.413870 0.474943 0.569975
O O5 0.846308 0.982322 0.823086
O O6 0.936399 0.998814 0.814532
O O7 0.786794 0.889611 0.642376
O O8 0.741086 0.971633 0.402461
O O9 0.801866 0.772251 0.383780
O O10 0.975271 0.741141 0.867178
O O11 0.977494 0.465532 0.750489
O O12 0.000000 0.500000 0.000000
O O13 0.500000 0.000000 0.500000
#
# Coordination Sequence:
#
# PCOD9431631 Si02
#       6
#     8   8   8   8   8   8
#     4  11  25  42  64  92 129 167 213 267 316 388
#     4  11  25  43  63  93 128 168 214 262 324 380
#     4  10  21  40  64  94 126 164 212 264 321 384
#     4  10  21  40  65  93 127 164 212 264 321 385
#     4  12  24  45  66  94 132 165 219 262 319 386
#     4  12  26  43  68  96 128 173 212 268 323 379
#
# _framework density 19.455981000000001
#
# number of rings (size 3 to 8) (size 9 to 14) (size 15 to 20)
#    0.000    1.000    1.667    6.000    2.333    3.333 
#    0.000    3.333    0.000    0.000    0.000    0.000 
#    0.000    0.000    0.000    0.000    0.000    0.000 
#
# Total GULP energy -268219.457714 kJ/mol
# GULP energy per Si atom -5587.905369 kJ/mol
# Density = 1.941170 g / cm^3
# Si number density = 19.455981 Si / 1000 Ang^3
#
#
#
# Elastic Constant Matrix: (Units=GPa)
#
#
# Indices 1 2 3 4 5 6 
#
# 1 80.8630 7.0258 15.8456 0.0000 0.0000 0.0000
# 2 7.0258 82.4584 14.5237 0.0000 0.0000 0.0000
# 3 15.8456 14.5237 99.8108 0.0000 0.0000 0.0000
# 4 0.0000 0.0000 0.0000 25.1385 0.0000 0.0000
# 5 0.0000 0.0000 0.0000 0.0000 33.4687 0.0000
# 6 0.0000 0.0000 0.0000 0.0000 0.0000 33.0487
#
#
#
# Elastic Compliance Matrix: (Units=1/GPa)
#
#
# Indices 1 2 3 4 5 6 
#
# 1 0.012809 -0.000753 -0.001924 0.000000 0.000000 0.000000
# 2 -0.000753 0.012491 -0.001698 0.000000 0.000000 0.000000
# 3 -0.001924 -0.001698 0.010571 0.000000 0.000000 0.000000
# 4 0.000000 0.000000 0.000000 0.039780 0.000000 0.000000
# 5 0.000000 0.000000 0.000000 0.000000 0.029879 0.000000
# 6 0.000000 0.000000 0.000000 0.000000 0.000000 0.030258
#
#
# Mechanical properties :
#
#
# Convention : Reuss Voigt Hill
#
# Bulk Modulus (GPa) = 36.87061 37.54694 37.20878
# Shear Modulus (GPa) = 32.55686 33.38032 32.96859
#
# Velocity S-wave (km/s) = 4.09511 4.14658 4.12092
# Velocity P-wave (km/s) = 6.43054 6.50121 6.46597
#
# Compressibility (1/GPa) = 0.02712187
#
# Stress axis : x y z
#
# Youngs Moduli (GPa) = 78.07010 80.06062 94.59402
#
# Poissons Ratio (x) = 0.06025 0.18200
# Poissons Ratio (y) = 0.05875 0.16063
# Poissons Ratio (z) = 0.15021 0.13595
#
# Static dielectric constant tensor:
#      x y z
#    x 1.672190 0.000000 0.000000 
#    y 0.000000 1.660770 0.000000 
#    z 0.000000 0.000000 1.653920 
# 
# From -- ./inp_files/5128.got.cif
#   From: 2010.05.17/outbox.cif.g08.bks.cpg/sg56_3_cif.got.tgz:5128.got - 2010.06.03 13:42:01.
