data_PCOD9431630
_publ_section_title
;
Structure prediction by ZEFSAII (Michael W. Deem and Ramdas Pophale) SiO2 
 PCOD9431630
Probable space group: P C C N
;
_chemical_formula_sum "Si O2"
_cell_formula_units_Z 36
_cell_length_a 14.377954
_cell_length_b 10.889015
_cell_length_c 9.448671
_cell_angle_alpha 90.000000
_cell_angle_beta 90.000000
_cell_angle_gamma 90.000000
_cell_volume 1479.300531
_symmetry_space_group_name_H-M "P C C N"
_symmetry_group_IT_number 56
_symmetry_cell_setting 'orthorhombic'
loop_
_space_group_symop_operation_xyz
x,y,z
1/2-x,1/2-y,z
1/2+x,-y,1/2-z
-x,1/2+y,1/2-z
-x,-y,-z
1/2+x,1/2+y,-z
1/2-x,y,1/2+z
x,1/2-y,1/2+z
loop_
_atom_site_type_symbol
_atom_site_label
_atom_site_fract_x
_atom_site_fract_y
_atom_site_fract_z
Si Si1 0.613944 0.104858 0.161645
Si Si2 0.250000 0.750000 0.689350
Si Si3 0.451483 0.316586 0.484122
Si Si4 0.281736 0.481418 0.551109
Si Si5 0.910377 0.892269 0.831093
O O1 0.658556 0.228029 0.216900
O O2 0.548095 0.119809 0.027451
O O3 0.562155 0.029921 0.284109
O O4 0.700217 0.017405 0.113701
O O5 0.266872 0.620985 0.610034
O O6 0.370048 0.389837 0.570251
O O7 0.462841 0.182224 0.549279
O O8 0.426289 0.321397 0.318756
O O9 0.192215 0.407056 0.601424
#
# Coordination Sequence:
#
# PCOD9431630 Si02
#       5
#     8   4   8   8   8
#     4  10  23  41  67  97 138 183 229 280 342 410
#     4  10  22  38  68  92 134 180 232 282 340 406
#     4  11  24  41  71  99 141 173 235 282 343 403
#     4  10  21  40  64  92 134 177 224 270 348 407
#     4  10  23  42  64 100 130 183 219 284 345 407
#
# _framework density 24.335825
#
# number of rings (size 3 to 8) (size 9 to 14) (size 15 to 20)
#    0.000    1.778    0.000    4.000    6.222    8.889 
#    0.000    1.111    0.000    0.000    0.000    0.000 
#    0.000    0.000    0.000    0.000    0.000    0.000 
#
# Total GULP energy -200469.185062 kJ/mol
# GULP energy per Si atom -5568.588474 kJ/mol
# Density = 2.428044 g / cm^3
# Si number density = 24.335825 Si / 1000 Ang^3
#
#
#
# Elastic Constant Matrix: (Units=GPa)
#
#
# Indices 1 2 3 4 5 6 
#
# 1 48.6805 9.5044 24.6782 0.0000 0.0000 0.0000
# 2 9.5044 82.0490 44.4619 0.0000 0.0000 0.0000
# 3 24.6782 44.4619 80.6215 0.0000 0.0000 0.0000
# 4 0.0000 0.0000 0.0000 33.8374 0.0000 0.0000
# 5 0.0000 0.0000 0.0000 0.0000 37.7621 0.0000
# 6 0.0000 0.0000 0.0000 0.0000 0.0000 23.3799
#
#
#
# Elastic Compliance Matrix: (Units=1/GPa)
#
#
# Indices 1 2 3 4 5 6 
#
# 1 0.024490 0.001748 -0.008460 0.000000 0.000000 0.000000
# 2 0.001748 0.017507 -0.010190 0.000000 0.000000 0.000000
# 3 -0.008460 -0.010190 0.020613 0.000000 0.000000 0.000000
# 4 0.000000 0.000000 0.000000 0.029553 0.000000 0.000000
# 5 0.000000 0.000000 0.000000 0.000000 0.026482 0.000000
# 6 0.000000 0.000000 0.000000 0.000000 0.000000 0.042772
#
#
# Mechanical properties :
#
#
# Convention : Reuss Voigt Hill
#
# Bulk Modulus (GPa) = 34.71622 40.96000 37.83811
# Shear Modulus (GPa) = 24.41130 27.84297 26.12714
#
# Velocity S-wave (km/s) = 3.17061 3.38615 3.28015
# Velocity P-wave (km/s) = 5.26309 5.67060 5.47064
#
# Compressibility (1/GPa) = 0.02880498
#
# Stress axis : x y z
#
# Youngs Moduli (GPa) = 40.83353 57.11885 48.51306
#
# Poissons Ratio (x) = -0.09982 0.41042
# Poissons Ratio (y) = -0.07136 0.49435
# Poissons Ratio (z) = 0.34546 0.58205
#
# Static dielectric constant tensor:
#      x y z
#    x 2.000150 0.000000 0.000000 
#    y 0.000000 2.008470 0.000000 
#    z 0.000000 0.000000 1.942620 
# 
# From -- ./inp_files/7611.got.cif
#   From: 2010.05.17/outbox.cif.g08.bks.cpg/sg56_4_cif.got.tgz:7611.got - 2010.06.03 13:42:01.
