data_PCOD9431598
_publ_section_title
;
Structure prediction by ZEFSAII (Michael W. Deem and Ramdas Pophale) SiO2 
 PCOD9431598
Probable space group: P C C N
;
_chemical_formula_sum "Si O2"
_cell_formula_units_Z 56
_cell_length_a 5.726843
_cell_length_b 30.586378
_cell_length_c 14.116068
_cell_angle_alpha 90.000000
_cell_angle_beta 90.000000
_cell_angle_gamma 90.000000
_cell_volume 2472.618250
_symmetry_space_group_name_H-M "P C C N"
_symmetry_group_IT_number 56
_symmetry_cell_setting 'orthorhombic'
loop_
_space_group_symop_operation_xyz
x,y,z
1/2-x,1/2-y,z
1/2+x,-y,1/2-z
-x,1/2+y,1/2-z
-x,-y,-z
1/2+x,1/2+y,-z
1/2-x,y,1/2+z
x,1/2-y,1/2+z
loop_
_atom_site_type_symbol
_atom_site_label
_atom_site_fract_x
_atom_site_fract_y
_atom_site_fract_z
Si Si1 0.787597 0.607438 0.235160
Si Si2 0.584051 0.668971 0.075559
Si Si3 0.121304 0.951950 0.316902
Si Si4 0.156115 0.341452 0.099132
Si Si5 0.994211 0.274484 0.249812
Si Si6 0.385457 0.966014 0.142307
Si Si7 0.244797 0.598342 0.980144
O O1 0.737643 0.640478 0.149054
O O2 0.553109 0.582903 0.269828
O O3 0.842192 0.636698 0.328122
O O4 0.953643 0.570625 0.192716
O O5 0.478284 0.705148 0.144490
O O6 0.730479 0.685761 0.986010
O O7 0.403627 0.635520 0.026399
O O8 0.212341 0.978494 0.227058
O O9 0.305096 0.926180 0.381858
O O10 0.005199 0.988493 0.383394
O O11 0.004919 0.312126 0.169812
O O12 0.001958 0.378624 0.046697
O O13 0.250000 0.250000 0.244015
O O14 0.750000 0.250000 0.233471
O O15 0.271205 0.940033 0.056997
#
# Coordination Sequence:
#
# PCOD9431598 Si02
#       7
#     8   8   8   8   8   8   8
#     4  10  21  40  61  93 131 178 235 276 344 411
#     4  11  23  45  73 101 133 185 231 288 355 433
#     4  11  23  38  58  93 131 185 225 297 345 400
#     4  10  24  44  71 100 139 182 230 286 352 430
#     4  11  29  52  77 112 152 183 231 296 370 452
#     4  12  21  39  62  89 139 179 233 293 352 406
#     4  11  24  40  67  98 130 178 245 284 342 433
#
# _framework density 22.648057000000001
#
# number of rings (size 3 to 8) (size 9 to 14) (size 15 to 20)
#    0.000    1.143    4.286    1.286    4.000    0.571 
#    0.000    1.429    0.000    0.000    0.000    0.000 
#    0.000    0.000    0.000    0.000    0.000    0.000 
#
# Total GULP energy -312365.241978 kJ/mol
# GULP energy per Si atom -5577.950750 kJ/mol
# Density = 2.259651 g / cm^3
# Si number density = 22.648057 Si / 1000 Ang^3
#
#
#
# Elastic Constant Matrix: (Units=GPa)
#
#
# Indices 1 2 3 4 5 6 
#
# 1 23.5607 9.5745 18.8109 0.0000 0.0000 0.0000
# 2 9.5745 56.5066 7.7246 0.0000 0.0000 0.0000
# 3 18.8109 7.7246 119.3517 0.0000 0.0000 0.0000
# 4 0.0000 0.0000 0.0000 31.1204 0.0000 0.0000
# 5 0.0000 0.0000 0.0000 0.0000 21.8542 0.0000
# 6 0.0000 0.0000 0.0000 0.0000 0.0000 48.0552
#
#
#
# Elastic Compliance Matrix: (Units=1/GPa)
#
#
# Indices 1 2 3 4 5 6 
#
# 1 0.051682 -0.007712 -0.007647 0.000000 0.000000 0.000000
# 2 -0.007712 0.019006 -0.000015 0.000000 0.000000 0.000000
# 3 -0.007647 -0.000015 0.009585 0.000000 0.000000 0.000000
# 4 0.000000 0.000000 0.000000 0.032133 0.000000 0.000000
# 5 0.000000 0.000000 0.000000 0.000000 0.045758 0.000000
# 6 0.000000 0.000000 0.000000 0.000000 0.000000 0.020809
#
#
# Mechanical properties :
#
#
# Convention : Reuss Voigt Hill
#
# Bulk Modulus (GPa) = 20.19101 30.18213 25.18657
# Shear Modulus (GPa) = 22.10157 31.09322 26.59740
#
# Velocity S-wave (km/s) = 3.12728 3.70927 3.43064
# Velocity P-wave (km/s) = 4.68768 5.63031 5.18048
#
# Compressibility (1/GPa) = 0.04952699
#
# Stress axis : x y z
#
# Youngs Moduli (GPa) = 19.34895 52.61566 104.33287
#
# Poissons Ratio (x) = 0.40576 0.79778
# Poissons Ratio (y) = 0.14922 0.00153
# Poissons Ratio (z) = 0.14795 0.00077
#
# Static dielectric constant tensor:
#      x y z
#    x 1.943440 0.000000 0.000000 
#    y 0.000000 1.852120 0.000000 
#    z 0.000000 0.000000 1.813610 
# 
# From -- ./inp_files/9834.got.cif
#   From: 2010.05.17/outbox.cif.g08.bks.cpg/sg56_5_cif.got.tgz:9834.got - 2010.06.03 13:42:01.
