data_PCOD9431125
_publ_section_title
;
Structure prediction by ZEFSAII (Michael W. Deem and Ramdas Pophale) SiO2 
 PCOD9431125
Probable space group: P C C N
;
_chemical_formula_sum "Si O2"
_cell_formula_units_Z 48
_cell_length_a 22.255024
_cell_length_b 5.368437
_cell_length_c 17.285858
_cell_angle_alpha 90.000000
_cell_angle_beta 90.000000
_cell_angle_gamma 90.000000
_cell_volume 2065.222600
_symmetry_space_group_name_H-M "P C C N"
_symmetry_group_IT_number 56
_symmetry_cell_setting 'orthorhombic'
loop_
_space_group_symop_operation_xyz
x,y,z
1/2-x,1/2-y,z
1/2+x,-y,1/2-z
-x,1/2+y,1/2-z
-x,-y,-z
1/2+x,1/2+y,-z
1/2-x,y,1/2+z
x,1/2-y,1/2+z
loop_
_atom_site_type_symbol
_atom_site_label
_atom_site_fract_x
_atom_site_fract_y
_atom_site_fract_z
Si Si1 0.311175 0.175585 0.155180
Si Si2 0.692234 0.407870 0.185169
Si Si3 0.914077 0.501594 0.950015
Si Si4 0.396127 0.281237 0.895027
Si Si5 0.521601 0.492597 0.895669
Si Si6 0.899032 0.027814 0.756739
O O1 0.250000 0.250000 0.113048
O O2 0.354970 0.007171 0.103930
O O3 0.351126 0.409577 0.182936
O O4 0.291252 0.045846 0.235092
O O5 0.750000 0.250000 0.161342
O O6 0.667710 0.586563 0.118131
O O7 0.634301 0.251644 0.213736
O O8 0.947137 0.239173 0.940362
O O9 0.954813 0.733530 0.918848
O O10 0.896822 0.579595 0.036833
O O11 0.451056 0.468129 0.909178
O O12 0.410413 0.162801 0.812050
O O13 0.541763 0.435968 0.807287
#
# Coordination Sequence:
#
# PCOD9431125 Si02
#       6
#     8   8   8   8   8   8
#     4  10  20  41  64  94 127 184 237 281 342 429
#     4  11  22  42  69  95 135 180 237 291 352 411
#     4  11  25  46  67 102 140 190 229 292 356 432
#     4  11  27  40  68 106 142 180 234 300 366 418
#     4  11  25  45  71  99 143 187 237 283 359 438
#     4  10  23  39  68  95 133 176 235 290 342 418
#
# _framework density 23.242049000000002
#
# number of rings (size 3 to 8) (size 9 to 14) (size 15 to 20)
#    0.000    1.333    3.333    1.000    7.000    0.000 
#    3.000    0.000    0.000    0.000    0.000    0.000 
#    0.000    0.000    0.000    0.000    0.000    0.000 
#
# Total GULP energy -268469.391518 kJ/mol
# GULP energy per Si atom -5593.112323 kJ/mol
# Density = 2.318915 g / cm^3
# Si number density = 23.242049 Si / 1000 Ang^3
#
#
#
# Elastic Constant Matrix: (Units=GPa)
#
#
# Indices 1 2 3 4 5 6 
#
# 1 81.6997 22.0313 48.9593 0.0000 0.0000 0.0000
# 2 22.0313 84.4555 28.4398 0.0000 0.0000 0.0000
# 3 48.9593 28.4398 84.1845 0.0000 0.0000 0.0000
# 4 0.0000 0.0000 0.0000 3.3360 0.0000 0.0000
# 5 0.0000 0.0000 0.0000 0.0000 5.8905 0.0000
# 6 0.0000 0.0000 0.0000 0.0000 0.0000 19.2684
#
#
#
# Elastic Compliance Matrix: (Units=1/GPa)
#
#
# Indices 1 2 3 4 5 6 
#
# 1 0.018931 -0.001389 -0.010540 0.000000 0.000000 0.000000
# 2 -0.001389 0.013462 -0.003740 0.000000 0.000000 0.000000
# 3 -0.010540 -0.003740 0.019272 0.000000 0.000000 0.000000
# 4 0.000000 0.000000 0.000000 0.299758 0.000000 0.000000
# 5 0.000000 0.000000 0.000000 0.000000 0.169766 0.000000
# 6 0.000000 0.000000 0.000000 0.000000 0.000000 0.051898
#
#
# Mechanical properties :
#
#
# Convention : Reuss Voigt Hill
#
# Bulk Modulus (GPa) = 49.19720 49.91116 49.55418
# Shear Modulus (GPa) = 8.18059 15.75961 11.97010
#
# Velocity S-wave (km/s) = 1.87813 2.60679 2.27187
# Velocity P-wave (km/s) = 5.09082 5.53006 5.31498
#
# Compressibility (1/GPa) = 0.02032636
#
# Stress axis : x y z
#
# Youngs Moduli (GPa) = 52.82351 74.28122 51.88814
#
# Poissons Ratio (x) = 0.10317 0.54693
# Poissons Ratio (y) = 0.07337 0.19407
# Poissons Ratio (z) = 0.55678 0.27782
#
# Static dielectric constant tensor:
#      x y z
#    x 1.891240 0.000000 0.000000 
#    y 0.000000 2.023200 0.000000 
#    z 0.000000 0.000000 1.863890 
# 
# From -- ./inp_files/16933.got.cif
#   From: 2010.05.17/outbox.cif.g08.bks.cpg/sg56_9_cif.got.tgz:16933.got - 2010.06.03 13:42:01.
