data_PCOD9431756
_publ_section_title
;
Structure prediction by ZEFSAII (Michael W. Deem and Ramdas Pophale) SiO2 
 PCOD9431756
Probable space group: P C C N
;
_chemical_formula_sum "Si O2"
_cell_formula_units_Z 64
_cell_length_a 12.726146
_cell_length_b 13.234112
_cell_length_c 17.501081
_cell_angle_alpha 90.000000
_cell_angle_beta 90.000000
_cell_angle_gamma 90.000000
_cell_volume 2947.518787
_symmetry_space_group_name_H-M "P C C N"
_symmetry_group_IT_number 56
_symmetry_cell_setting 'orthorhombic'
loop_
_space_group_symop_operation_xyz
x,y,z
1/2-x,1/2-y,z
1/2+x,-y,1/2-z
-x,1/2+y,1/2-z
-x,-y,-z
1/2+x,1/2+y,-z
1/2-x,y,1/2+z
x,1/2-y,1/2+z
loop_
_atom_site_type_symbol
_atom_site_label
_atom_site_fract_x
_atom_site_fract_y
_atom_site_fract_z
Si Si1 0.859383 0.810201 0.289791
Si Si2 0.510907 0.757676 0.435193
Si Si3 0.599736 0.068086 0.659889
Si Si4 0.487391 0.095465 0.445113
Si Si5 0.282683 0.633752 0.112002
Si Si6 0.930959 0.409801 0.963081
Si Si7 0.032894 0.358872 0.801310
Si Si8 0.271247 0.001546 0.759317
O O1 0.750000 0.750000 0.294401
O O2 0.930637 0.752770 0.226185
O O3 0.916776 0.794635 0.371072
O O4 0.820903 0.922274 0.269973
O O5 0.444346 0.844720 0.394038
O O6 0.569183 0.816931 0.505308
O O7 0.436597 0.675982 0.473124
O O8 0.553242 0.100585 0.741828
O O9 0.723822 0.061420 0.670734
O O10 0.563569 0.958808 0.627991
O O11 0.604019 0.133574 0.427067
O O12 0.500000 0.000000 0.500000
O O13 0.250000 0.750000 0.125256
O O14 0.190292 0.578259 0.063402
O O15 0.297900 0.571966 0.190090
O O16 0.990005 0.370699 0.886328
O O17 0.000000 0.500000 0.000000
O O18 0.132434 0.431055 0.786591
#
# Coordination Sequence:
#
# PCOD9431756 Si02
#       8
#     8   8   8   8   8   8   8   8
#     4   9  21  41  69  94 133 177 226 286 333 400
#     4  10  22  42  62  97 134 174 220 279 338 402
#     4  10  21  41  69  95 124 173 232 273 330 407
#     4  10  22  41  70  92 132 181 225 279 334 417
#     4  12  24  43  68  99 138 183 223 282 355 412
#     4  12  26  44  66  99 143 179 219 284 350 407
#     4  10  22  43  66  98 132 174 233 276 336 406
#     4  11  22  42  70 100 130 176 230 285 337 407
#
# _framework density 21.713177000000002
#
# number of rings (size 3 to 8) (size 9 to 14) (size 15 to 20)
#    0.000    1.500    3.750    0.750    3.500    2.000 
#    4.500    0.000    0.000    0.000    0.000    0.000 
#    0.000    0.000    0.000    0.000    0.000    0.000 
#
# Total GULP energy -357299.775331 kJ/mol
# GULP energy per Si atom -5582.808990 kJ/mol
# Density = 2.166376 g / cm^3
# Si number density = 21.713177 Si / 1000 Ang^3
#
#
#
# Elastic Constant Matrix: (Units=GPa)
#
#
# Indices 1 2 3 4 5 6 
#
# 1 39.4448 15.5946 29.5859 0.0000 0.0000 0.0000
# 2 15.5946 62.1029 26.6104 0.0000 0.0000 0.0000
# 3 29.5859 26.6104 100.6348 0.0000 0.0000 0.0000
# 4 0.0000 0.0000 0.0000 23.6216 0.0000 0.0000
# 5 0.0000 0.0000 0.0000 0.0000 22.8976 0.0000
# 6 0.0000 0.0000 0.0000 0.0000 0.0000 23.9542
#
#
#
# Elastic Compliance Matrix: (Units=1/GPa)
#
#
# Indices 1 2 3 4 5 6 
#
# 1 0.033727 -0.004760 -0.008657 0.000000 0.000000 0.000000
# 2 -0.004760 0.018832 -0.003580 0.000000 0.000000 0.000000
# 3 -0.008657 -0.003580 0.013429 0.000000 0.000000 0.000000
# 4 0.000000 0.000000 0.000000 0.042334 0.000000 0.000000
# 5 0.000000 0.000000 0.000000 0.000000 0.043673 0.000000
# 6 0.000000 0.000000 0.000000 0.000000 0.000000 0.041746
#
#
# Mechanical properties :
#
#
# Convention : Reuss Voigt Hill
#
# Bulk Modulus (GPa) = 31.25637 38.41823 34.83730
# Shear Modulus (GPa) = 20.97329 22.78744 21.88037
#
# Velocity S-wave (km/s) = 3.11130 3.24308 3.17787
# Velocity P-wave (km/s) = 5.22813 5.63518 5.43547
#
# Compressibility (1/GPa) = 0.03199347
#
# Stress axis : x y z
#
# Youngs Moduli (GPa) = 29.65003 53.10222 74.46758
#
# Poissons Ratio (x) = 0.25275 0.64465
# Poissons Ratio (y) = 0.14113 0.26661
# Poissons Ratio (z) = 0.25668 0.19012
#
# Static dielectric constant tensor:
#      x y z
#    x 1.793100 0.000000 0.000000 
#    y 0.000000 1.839050 0.000000 
#    z 0.000000 0.000000 1.840850 
# 
# From -- ./inp_files/16353.got.cif
#   From: 2010.05.17/outbox.cif.g08.bks.cpg/sg56_9_cif.got.tgz:16353.got - 2010.06.03 13:42:01.
