data_PCOD9431033
_publ_section_title
;
Structure prediction by ZEFSAII (Michael W. Deem and Ramdas Pophale) SiO2 
 PCOD9431033
Probable space group: P C C N
;
_chemical_formula_sum "Si O2"
_cell_formula_units_Z 48
_cell_length_a 15.171849
_cell_length_b 5.484661
_cell_length_c 21.994833
_cell_angle_alpha 90.000000
_cell_angle_beta 90.000000
_cell_angle_gamma 90.000000
_cell_volume 1830.243908
_symmetry_space_group_name_H-M "P C C N"
_symmetry_group_IT_number 56
_symmetry_cell_setting 'orthorhombic'
loop_
_space_group_symop_operation_xyz
x,y,z
1/2-x,1/2-y,z
1/2+x,-y,1/2-z
-x,1/2+y,1/2-z
-x,-y,-z
1/2+x,1/2+y,-z
1/2-x,y,1/2+z
x,1/2-y,1/2+z
loop_
_atom_site_type_symbol
_atom_site_label
_atom_site_fract_x
_atom_site_fract_y
_atom_site_fract_z
Si Si1 0.848555 0.250437 0.918453
Si Si2 0.549326 0.761577 0.541419
Si Si3 0.535661 0.684956 0.777760
Si Si4 0.084337 0.761987 0.388936
Si Si5 0.705428 0.010701 0.214127
Si Si6 0.348766 0.251471 0.084630
O O1 0.750000 0.250000 0.949633
O O2 0.853533 0.497641 0.881386
O O3 0.942016 0.237503 0.954193
O O4 0.850173 0.004498 0.881395
O O5 0.576545 0.505995 0.571115
O O6 0.586038 0.755770 0.472868
O O7 0.588613 0.001331 0.576011
O O8 0.480162 0.445665 0.755662
O O9 0.501209 0.731951 0.845920
O O10 0.631426 0.600013 0.757839
O O11 0.160447 0.842432 0.342305
O O12 0.750000 0.750000 0.193621
O O13 0.750000 0.250000 0.245453
O O14 0.250000 0.250000 0.056290
#
# Coordination Sequence:
#
# PCOD9431033 Si02
#       6
#     8   8   8   8   8   8
#     4  10  21  39  60  81 112 156 206 247 282 341
#     4  12  22  37  60  88 120 157 189 239 306 356
#     4  10  20  40  61  80 113 157 196 229 277 350
#     4  11  24  38  58  87 122 151 184 239 300 351
#     4  11  22  39  63  88 114 154 198 241 289 351
#     4  10  21  37  58  84 114 153 199 243 285 347
#
# _framework density 26.226013999999999
#
# number of rings (size 3 to 8) (size 9 to 14) (size 15 to 20)
#    0.000    1.333    0.000    8.000    0.000    2.000 
#    0.000    2.500    0.000    0.000    0.000    0.000 
#    0.000    0.000    0.000    0.000    0.000    0.000 
#
# Total GULP energy -267453.825437 kJ/mol
# GULP energy per Si atom -5571.954697 kJ/mol
# Density = 2.616632 g / cm^3
# Si number density = 26.226014 Si / 1000 Ang^3
#
#
#
# Elastic Constant Matrix: (Units=GPa)
#
#
# Indices 1 2 3 4 5 6 
#
# 1 121.2440 15.4378 5.4516 0.0000 0.0000 0.0000
# 2 15.4378 328.9775 61.8948 0.0000 0.0000 0.0000
# 3 5.4516 61.8948 105.3062 0.0000 0.0000 0.0000
# 4 0.0000 0.0000 0.0000 44.1461 0.0000 0.0000
# 5 0.0000 0.0000 0.0000 0.0000 16.3015 0.0000
# 6 0.0000 0.0000 0.0000 0.0000 0.0000 54.7559
#
#
#
# Elastic Compliance Matrix: (Units=1/GPa)
#
#
# Indices 1 2 3 4 5 6 
#
# 1 0.008302 -0.000347 -0.000226 0.000000 0.000000 0.000000
# 2 -0.000347 0.003432 -0.001999 0.000000 0.000000 0.000000
# 3 -0.000226 -0.001999 0.010683 0.000000 0.000000 0.000000
# 4 0.000000 0.000000 0.000000 0.022652 0.000000 0.000000
# 5 0.000000 0.000000 0.000000 0.000000 0.061344 0.000000
# 6 0.000000 0.000000 0.000000 0.000000 0.000000 0.018263
#
#
# Mechanical properties :
#
#
# Convention : Reuss Voigt Hill
#
# Bulk Modulus (GPa) = 57.89432 80.12178 69.00805
# Shear Modulus (GPa) = 36.87911 54.55695 45.71803
#
# Velocity S-wave (km/s) = 3.75401 4.56594 4.17973
# Velocity P-wave (km/s) = 6.39634 7.64290 7.04723
#
# Compressibility (1/GPa) = 0.01727285
#
# Stress axis : x y z
#
# Youngs Moduli (GPa) = 120.45025 291.36095 93.60725
#
# Poissons Ratio (x) = 0.10114 0.02113
# Poissons Ratio (y) = 0.04181 0.18715
# Poissons Ratio (z) = 0.02720 0.58252
#
# Static dielectric constant tensor:
#      x y z
#    x 3.447890 0.000000 0.000000 
#    y 0.000000 2.100340 0.000000 
#    z 0.000000 0.000000 2.027670 
# 
# From -- ./inp_files/22424.got.cif
#   From: 2010.05.17/outbox.cif.g08.bks.cpg/sg56_12_cif.got.tgz:22424.got - 2010.06.03 13:42:01.
