data_PCOD9431510
_publ_section_title
;
Structure prediction by ZEFSAII (Michael W. Deem and Ramdas Pophale) SiO2 
 PCOD9431510
Probable space group: P C C N
;
_chemical_formula_sum "Si O2"
_cell_formula_units_Z 56
_cell_length_a 5.287888
_cell_length_b 15.403368
_cell_length_c 29.254831
_cell_angle_alpha 90.000000
_cell_angle_beta 90.000000
_cell_angle_gamma 90.000000
_cell_volume 2382.843572
_symmetry_space_group_name_H-M "P C C N"
_symmetry_group_IT_number 56
_symmetry_cell_setting 'orthorhombic'
loop_
_space_group_symop_operation_xyz
x,y,z
1/2-x,1/2-y,z
1/2+x,-y,1/2-z
-x,1/2+y,1/2-z
-x,-y,-z
1/2+x,1/2+y,-z
1/2-x,y,1/2+z
x,1/2-y,1/2+z
loop_
_atom_site_type_symbol
_atom_site_label
_atom_site_fract_x
_atom_site_fract_y
_atom_site_fract_z
Si Si1 0.761243 0.045569 0.944762
Si Si2 0.280940 0.351671 0.179991
Si Si3 0.993359 0.276985 0.431014
Si Si4 0.722051 0.351050 0.638138
Si Si5 0.266266 0.556426 0.448086
Si Si6 0.952948 0.552738 0.236141
Si Si7 0.499396 0.700135 0.670413
O O1 0.922208 0.123533 0.921079
O O2 0.479958 0.013825 0.931000
O O3 0.710927 0.069419 0.997915
O O4 0.972397 0.970597 0.943261
O O5 0.250000 0.250000 0.170341
O O6 0.507817 0.391582 0.150514
O O7 0.372821 0.367572 0.230923
O O8 0.009021 0.390163 0.167120
O O9 0.250000 0.250000 0.454995
O O10 0.750000 0.250000 0.459424
O O11 0.998592 0.218223 0.384605
O O12 0.750000 0.250000 0.649956
O O13 0.676039 0.363495 0.584786
O O14 0.713897 0.489069 0.245185
O O15 0.992548 0.600935 0.187525
O O16 0.250000 0.750000 0.687978
O O17 0.750000 0.750000 0.685996
#
# Coordination Sequence:
#
# PCOD9431510 Si02
#       7
#     8   8   8   8   8   8   8
#     4  10  21  39  62  90 132 170 211 257 335 392
#     4  10  22  42  64  86 124 166 208 259 325 388
#     4  10  21  40  60  91 124 170 220 260 317 395
#     4  10  21  40  62  92 119 162 215 263 317 376
#     4  10  21  39  61  93 129 169 207 270 323 383
#     4  12  25  43  64  98 129 165 220 274 334 395
#     4  10  22  43  64  88 128 175 214 270 330 396
#
# _framework density 23.501331
#
# number of rings (size 3 to 8) (size 9 to 14) (size 15 to 20)
#    0.000    1.714    0.000    3.857    0.000    2.286 
#   30.857    2.143    0.000    0.000    0.000    0.000 
#    0.000    0.000    0.000    0.000    0.000    0.000 
#
# Total GULP energy -311869.734219 kJ/mol
# GULP energy per Si atom -5569.102397 kJ/mol
# Density = 2.344784 g / cm^3
# Si number density = 23.501331 Si / 1000 Ang^3
#
#
#
# Elastic Constant Matrix: (Units=GPa)
#
#
# Indices 1 2 3 4 5 6 
#
# 1 211.5999 34.0978 9.8986 0.0000 0.0000 0.0000
# 2 34.0978 41.4061 -0.5379 0.0000 0.0000 0.0000
# 3 9.8986 -0.5379 49.0568 0.0000 0.0000 0.0000
# 4 0.0000 0.0000 0.0000 46.4393 0.0000 0.0000
# 5 0.0000 0.0000 0.0000 0.0000 -2.8345 0.0000
# 6 0.0000 0.0000 0.0000 0.0000 0.0000 25.3336
#
#
#
# Elastic Compliance Matrix: (Units=1/GPa)
#
#
# Indices 1 2 3 4 5 6 
#
# 1 0.005515 -0.004556 -0.001163 0.000000 0.000000 0.000000
# 2 -0.004556 0.027919 0.001226 0.000000 0.000000 0.000000
# 3 -0.001163 0.001226 0.020633 0.000000 0.000000 0.000000
# 4 0.000000 0.000000 0.000000 0.021533 0.000000 0.000000
# 5 0.000000 0.000000 0.000000 0.000000 -0.352797 0.000000
# 6 0.000000 0.000000 0.000000 0.000000 0.000000 0.039473
#
#
# Mechanical properties :
#
#
# Convention : Reuss Voigt Hill
#
# Bulk Modulus (GPa) = 22.18316 43.21996 32.70156
# Shear Modulus (GPa) = -23.39607 31.02798 3.81596
#
# Velocity S-wave (km/s) = -3.15861 3.63749 1.27563
# Velocity P-wave (km/s) = 1.96031 6.00601 4.01430
#
# Compressibility (1/GPa) = 0.04507923
#
# Stress axis : x y z
#
# Youngs Moduli (GPa) = 181.34005 35.81785 48.46706
#
# Poissons Ratio (x) = 0.16320 0.05635
# Poissons Ratio (y) = 0.82624 -0.05940
# Poissons Ratio (z) = 0.21084 -0.04390
#
# Static dielectric constant tensor:
#      x y z
#    x 1.995590 0.000000 0.000000 
#    y 0.000000 1.947250 0.000000 
#    z 0.000000 0.000000 1.908240 
# 
# From -- ./inp_files/22866.got.cif
#   From: 2010.05.17/outbox.cif.g08.bks.cpg/sg56_12_cif.got.tgz:22866.got - 2010.06.03 13:42:01.
