data_PCOD9431611
_publ_section_title
;
Structure prediction by ZEFSAII (Michael W. Deem and Ramdas Pophale) SiO2 
 PCOD9431611
Probable space group: P C C N
;
_chemical_formula_sum "Si O2"
_cell_formula_units_Z 60
_cell_length_a 8.613586
_cell_length_b 27.585172
_cell_length_c 9.512605
_cell_angle_alpha 90.000000
_cell_angle_beta 90.000000
_cell_angle_gamma 90.000000
_cell_volume 2260.263927
_symmetry_space_group_name_H-M "P C C N"
_symmetry_group_IT_number 56
_symmetry_cell_setting 'orthorhombic'
loop_
_space_group_symop_operation_xyz
x,y,z
1/2-x,1/2-y,z
1/2+x,-y,1/2-z
-x,1/2+y,1/2-z
-x,-y,-z
1/2+x,1/2+y,-z
1/2-x,y,1/2+z
x,1/2-y,1/2+z
loop_
_atom_site_type_symbol
_atom_site_label
_atom_site_fract_x
_atom_site_fract_y
_atom_site_fract_z
Si Si1 0.044329 0.987369 0.807867
Si Si2 0.406257 0.346663 0.000960
Si Si3 0.272390 0.835890 0.354638
Si Si4 0.465339 0.598784 0.241491
Si Si5 0.750000 0.750000 0.532836
Si Si6 0.956927 0.187541 0.387693
Si Si7 0.610196 0.594901 0.532011
Si Si8 0.245833 0.001601 0.546308
O O1 0.129834 0.978541 0.659892
O O2 0.011767 0.046133 0.817419
O O3 0.160714 0.970883 0.931645
O O4 0.874300 0.970940 0.856905
O O5 0.577398 0.354408 0.060813
O O6 0.261363 0.379985 0.036003
O O7 0.430823 0.360492 0.835584
O O8 0.344577 0.293478 0.039363
O O9 0.202973 0.877087 0.250429
O O10 0.144172 0.815676 0.466289
O O11 0.344983 0.799245 0.240456
O O12 0.492571 0.590646 0.404904
O O13 0.606486 0.722246 0.606750
O O14 0.034317 0.133772 0.364455
O O15 0.662318 0.540249 0.555009
#
# Coordination Sequence:
#
# PCOD9431611 Si02
#       8
#     8   8   8   8   4   8   8   8
#     4  10  22  40  65  93 133 168 219 269 328 390
#     4  11  22  41  65  93 126 174 212 279 322 402
#     4  11  23  43  69  96 129 170 219 274 339 380
#     4  10  21  43  62  96 129 170 219 272 325 404
#     4  10  26  46  64 100 130 178 224 268 332 410
#     4  10  23  46  68 100 128 174 221 276 333 403
#     4   9  21  39  69  90 129 168 224 262 331 400
#     4  10  21  40  62  95 128 172 211 272 320 388
#
# _framework density 26.545572
#
# number of rings (size 3 to 8) (size 9 to 14) (size 15 to 20)
#    0.000    1.867    2.667    0.000    3.733    2.667 
#    7.200    0.000    0.000    0.000    0.000    0.000 
#    0.000    0.000    0.000    0.000    0.000    0.000 
#
# Total GULP energy -334638.546107 kJ/mol
# GULP energy per Si atom -5577.309102 kJ/mol
# Density = 2.648515 g / cm^3
# Si number density = 26.545572 Si / 1000 Ang^3
#
#
#
# Elastic Constant Matrix: (Units=GPa)
#
#
# Indices 1 2 3 4 5 6 
#
# 1 175.1374 32.2240 49.2260 0.0000 0.0000 0.0000
# 2 32.2240 35.4750 22.8846 0.0000 0.0000 0.0000
# 3 49.2260 22.8846 119.2078 0.0000 0.0000 0.0000
# 4 0.0000 0.0000 0.0000 -2.1923 0.0000 0.0000
# 5 0.0000 0.0000 0.0000 0.0000 31.8963 0.0000
# 6 0.0000 0.0000 0.0000 0.0000 0.0000 25.1397
#
#
#
# Elastic Compliance Matrix: (Units=1/GPa)
#
#
# Indices 1 2 3 4 5 6 
#
# 1 0.007240 -0.005305 -0.001971 0.000000 0.000000 0.000000
# 2 -0.005305 0.036060 -0.004732 0.000000 0.000000 0.000000
# 3 -0.001971 -0.004732 0.010111 0.000000 0.000000 0.000000
# 4 0.000000 0.000000 0.000000 -0.456152 0.000000 0.000000
# 5 0.000000 0.000000 0.000000 0.000000 0.031352 0.000000
# 6 0.000000 0.000000 0.000000 0.000000 0.000000 0.039778
#
#
# Mechanical properties :
#
#
# Convention : Reuss Voigt Hill
#
# Bulk Modulus (GPa) = 34.01934 59.83218 46.92576
# Shear Modulus (GPa) = -16.78999 26.00111 4.60556
#
# Velocity S-wave (km/s) = -2.51768 3.13308 1.31861
# Velocity P-wave (km/s) = 2.09563 5.97299 4.47595
#
# Compressibility (1/GPa) = 0.02939505
#
# Stress axis : x y z
#
# Youngs Moduli (GPa) = 138.12316 27.73150 98.90062
#
# Poissons Ratio (x) = 0.14711 0.19496
# Poissons Ratio (y) = 0.73271 0.46800
# Poissons Ratio (z) = 0.27228 0.13122
#
# Static dielectric constant tensor:
#      x y z
#    x 2.128840 0.000000 0.000000 
#    y 0.000000 2.195020 0.000000 
#    z 0.000000 0.000000 2.108860 
# 
# From -- ./inp_files/6605.got.cif
#   From: 2010.05.17/outbox.cif.g08.bks.cpg/sg56_4_cif.got.tgz:6605.got - 2010.06.03 13:42:01.
