data_PCOD9431089
_publ_section_title
;
Structure prediction by ZEFSAII (Michael W. Deem and Ramdas Pophale) SiO2 
 PCOD9431089
Probable space group: P C C N
;
_chemical_formula_sum "Si O2"
_cell_formula_units_Z 32
_cell_length_a 9.949920
_cell_length_b 13.594973
_cell_length_c 9.964227
_cell_angle_alpha 90.000000
_cell_angle_beta 90.000000
_cell_angle_gamma 90.000000
_cell_volume 1347.849963
_symmetry_space_group_name_H-M "P C C N"
_symmetry_group_IT_number 56
_symmetry_cell_setting 'orthorhombic'
loop_
_space_group_symop_operation_xyz
x,y,z
1/2-x,1/2-y,z
1/2+x,-y,1/2-z
-x,1/2+y,1/2-z
-x,-y,-z
1/2+x,1/2+y,-z
1/2-x,y,1/2+z
x,1/2-y,1/2+z
loop_
_atom_site_type_symbol
_atom_site_label
_atom_site_fract_x
_atom_site_fract_y
_atom_site_fract_z
Si Si1 0.663492 0.848827 0.116189
Si Si2 0.812658 0.344869 0.727534
Si Si3 0.045394 0.685462 0.908347
Si Si4 0.698104 0.943746 0.847252
O O1 0.750000 0.750000 0.113118
O O2 0.683460 0.900566 0.256988
O O3 0.517091 0.821962 0.056700
O O4 0.722021 0.923209 0.003528
O O5 0.750000 0.250000 0.808160
O O6 0.691089 0.359948 0.619246
O O7 0.935212 0.295918 0.645888
O O8 0.829266 0.445294 0.805351
O O9 0.934956 0.624098 0.823489
#
# Coordination Sequence:
#
# PCOD9431089 Si02
#       4
#     8   8   8   8
#     4  10  21  39  63 103 130 169 227 276 336 395
#     4   8  18  43  65  97 133 179 225 274 332 397
#     4   7  20  38  63  97 129 171 220 276 324 403
#     4  10  20  40  68  96 131 181 215 281 338 395
#
# _framework density 23.741515
#
# number of rings (size 3 to 8) (size 9 to 14) (size 15 to 20)
#    3.000    0.000    0.000    0.750    0.000    3.000 
#    0.000    6.250    0.000    0.000    0.000    3.500 
#    0.000    0.000    0.000    0.000    0.000    0.000 
#
# Total GULP energy -178322.859030 kJ/mol
# GULP energy per Si atom -5572.589345 kJ/mol
# Density = 2.368748 g / cm^3
# Si number density = 23.741515 Si / 1000 Ang^3
#
#
#
# Elastic Constant Matrix: (Units=GPa)
#
#
# Indices 1 2 3 4 5 6 
#
# 1 81.3336 73.7897 32.5533 0.0000 0.0000 0.0000
# 2 73.7897 128.8391 20.5721 0.0000 0.0000 0.0000
# 3 32.5533 20.5721 65.3490 0.0000 0.0000 0.0000
# 4 0.0000 0.0000 0.0000 36.3326 0.0000 0.0000
# 5 0.0000 0.0000 0.0000 0.0000 20.9369 0.0000
# 6 0.0000 0.0000 0.0000 0.0000 0.0000 20.0607
#
#
#
# Elastic Compliance Matrix: (Units=1/GPa)
#
#
# Indices 1 2 3 4 5 6 
#
# 1 0.031133 -0.016167 -0.010419 0.000000 0.000000 0.000000
# 2 -0.016167 0.016568 0.002838 0.000000 0.000000 0.000000
# 3 -0.010419 0.002838 0.019599 0.000000 0.000000 0.000000
# 4 0.000000 0.000000 0.000000 0.027523 0.000000 0.000000
# 5 0.000000 0.000000 0.000000 0.000000 0.047762 0.000000
# 6 0.000000 0.000000 0.000000 0.000000 0.000000 0.049849
#
#
# Mechanical properties :
#
#
# Convention : Reuss Voigt Hill
#
# Bulk Modulus (GPa) = 50.49658 58.81690 54.65674
# Shear Modulus (GPa) = 20.28138 25.37315 22.82726
#
# Velocity S-wave (km/s) = 2.92594 3.27268 3.10416
# Velocity P-wave (km/s) = 5.72104 6.25366 5.99327
#
# Compressibility (1/GPa) = 0.01980332
#
# Stress axis : x y z
#
# Youngs Moduli (GPa) = 32.12073 60.35847 51.02218
#
# Poissons Ratio (x) = 0.97580 0.53161
# Poissons Ratio (y) = 0.51929 -0.14479
# Poissons Ratio (z) = 0.33467 -0.17129
#
# Static dielectric constant tensor:
#      x y z
#    x 1.986070 0.000000 0.000000 
#    y 0.000000 1.872370 0.000000 
#    z 0.000000 0.000000 1.946860 
# 
# From -- ./inp_files/6912.got.cif
#   From: 2010.05.17/outbox.cif.g08.bks.cpg/sg56_4_cif.got.tgz:6912.got - 2010.06.03 13:42:01.
