data_PCOD9431609
_publ_section_title
;
Structure prediction by ZEFSAII (Michael W. Deem and Ramdas Pophale) SiO2 
 PCOD9431609
Probable space group: P C C N
;
_chemical_formula_sum "Si O2"
_cell_formula_units_Z 60
_cell_length_a 12.561649
_cell_length_b 8.971604
_cell_length_c 26.445575
_cell_angle_alpha 90.000000
_cell_angle_beta 90.000000
_cell_angle_gamma 90.000000
_cell_volume 2980.367125
_symmetry_space_group_name_H-M "P C C N"
_symmetry_group_IT_number 56
_symmetry_cell_setting 'orthorhombic'
loop_
_space_group_symop_operation_xyz
x,y,z
1/2-x,1/2-y,z
1/2+x,-y,1/2-z
-x,1/2+y,1/2-z
-x,-y,-z
1/2+x,1/2+y,-z
1/2-x,y,1/2+z
x,1/2-y,1/2+z
loop_
_atom_site_type_symbol
_atom_site_label
_atom_site_fract_x
_atom_site_fract_y
_atom_site_fract_z
Si Si1 0.599422 0.866048 0.792436
Si Si2 0.126402 0.746870 0.624157
Si Si3 0.351283 0.826932 0.934138
Si Si4 0.152165 0.353596 0.985021
Si Si5 0.915212 0.591770 0.901424
Si Si6 0.476321 0.324010 0.292546
Si Si7 0.048866 0.648989 0.523661
Si Si8 0.750000 0.750000 0.716978
O O1 0.630935 0.838507 0.850123
O O2 0.701038 0.874463 0.755057
O O3 0.033105 0.262918 0.735556
O O4 0.528604 0.014416 0.792654
O O5 0.250000 0.750000 0.638513
O O6 0.049684 0.721629 0.671800
O O7 0.106575 0.635013 0.577527
O O8 0.096101 0.913500 0.604980
O O9 0.250000 0.750000 0.907270
O O10 0.462485 0.850329 0.904639
O O11 0.374614 0.718706 0.981617
O O12 0.332101 0.989340 0.957942
O O13 0.250000 0.250000 0.972902
O O14 0.139257 0.371528 0.045450
O O15 0.045391 0.268688 0.968614
O O16 0.353251 0.313187 0.311571
O O17 0.000000 0.500000 0.500000
#
# Coordination Sequence:
#
# PCOD9431609 Si02
#       8
#     8   8   8   8   8   8   8   4
#     4   9  20  41  67  90 131 166 211 265 334 384
#     4  11  22  40  66  95 132 171 218 268 323 398
#     4  11  21  41  60  83 131 170 209 269 323 378
#     4  11  22  36  60  91 123 168 215 269 323 387
#     4  10  21  40  62  93 125 166 213 270 322 381
#     4   9  21  42  65  98 126 171 210 270 336 388
#     4  11  22  39  57  90 127 165 220 265 322 390
#     4   8  20  42  64  92 134 160 206 286 318 386
#
# _framework density 20.131747000000001
#
# number of rings (size 3 to 8) (size 9 to 14) (size 15 to 20)
#    0.800    1.067    2.667    2.000    2.800    2.133 
#    6.000    4.667    0.000    0.000    0.000    0.000 
#    0.000    0.000    0.000    0.000    0.000    0.000 
#
# Total GULP energy -334350.374042 kJ/mol
# GULP energy per Si atom -5572.506234 kJ/mol
# Density = 2.008593 g / cm^3
# Si number density = 20.131747 Si / 1000 Ang^3
#
#
#
# Elastic Constant Matrix: (Units=GPa)
#
#
# Indices 1 2 3 4 5 6 
#
# 1 106.7602 25.4380 19.4395 0.0000 0.0000 0.0000
# 2 25.4380 66.0153 -3.0681 0.0000 0.0000 0.0000
# 3 19.4395 -3.0681 35.9190 0.0000 0.0000 0.0000
# 4 0.0000 0.0000 0.0000 24.9089 0.0000 0.0000
# 5 0.0000 0.0000 0.0000 0.0000 37.9598 0.0000
# 6 0.0000 0.0000 0.0000 0.0000 0.0000 36.7237
#
#
#
# Elastic Compliance Matrix: (Units=1/GPa)
#
#
# Indices 1 2 3 4 5 6 
#
# 1 0.011755 -0.004844 -0.006776 0.000000 0.000000 0.000000
# 2 -0.004844 0.017205 0.004091 0.000000 0.000000 0.000000
# 3 -0.006776 0.004091 0.031857 0.000000 0.000000 0.000000
# 4 0.000000 0.000000 0.000000 0.040146 0.000000 0.000000
# 5 0.000000 0.000000 0.000000 0.000000 0.026344 0.000000
# 6 0.000000 0.000000 0.000000 0.000000 0.000000 0.027230
#
#
# Mechanical properties :
#
#
# Convention : Reuss Voigt Hill
#
# Bulk Modulus (GPa) = 21.85343 32.47925 27.16634
# Shear Modulus (GPa) = 27.04937 31.04414 29.04675
#
# Velocity S-wave (km/s) = 3.66952 3.93115 3.80259
# Velocity P-wave (km/s) = 5.36960 6.06413 5.72740
#
# Compressibility (1/GPa) = 0.04575940
#
# Stress axis : x y z
#
# Youngs Moduli (GPa) = 85.07159 58.12300 31.39046
#
# Poissons Ratio (x) = 0.28157 0.21269
# Poissons Ratio (y) = 0.41212 -0.12843
# Poissons Ratio (z) = 0.57641 -0.23781
#
# Static dielectric constant tensor:
#      x y z
#    x 1.845310 0.000000 0.000000 
#    y 0.000000 1.696360 0.000000 
#    z 0.000000 0.000000 1.742010 
# 
# From -- ./inp_files/22343.got.cif
#   From: 2010.05.17/outbox.cif.g08.bks.cpg/sg56_12_cif.got.tgz:22343.got - 2010.06.03 13:42:01.
