data_PCOD9431902
_publ_section_title
;
Structure prediction by ZEFSAII (Michael W. Deem and Ramdas Pophale) SiO2 
 PCOD9431902
Probable space group: P C C N
;
_chemical_formula_sum "Si O2"
_cell_formula_units_Z 52
_cell_length_a 11.585997
_cell_length_b 25.597084
_cell_length_c 9.187711
_cell_angle_alpha 90.000000
_cell_angle_beta 90.000000
_cell_angle_gamma 90.000000
_cell_volume 2724.778673
_symmetry_space_group_name_H-M "P C C N"
_symmetry_group_IT_number 56
_symmetry_cell_setting 'orthorhombic'
loop_
_space_group_symop_operation_xyz
x,y,z
1/2-x,1/2-y,z
1/2+x,-y,1/2-z
-x,1/2+y,1/2-z
-x,-y,-z
1/2+x,1/2+y,-z
1/2-x,y,1/2+z
x,1/2-y,1/2+z
loop_
_atom_site_type_symbol
_atom_site_label
_atom_site_fract_x
_atom_site_fract_y
_atom_site_fract_z
Si Si1 0.899143 0.463999 0.201886
Si Si2 0.180621 0.321075 0.893274
Si Si3 0.520525 0.913063 0.214035
Si Si4 0.250000 0.250000 0.634646
Si Si5 0.845817 0.605864 0.482420
Si Si6 0.848855 0.939837 0.285854
Si Si7 0.785390 0.446915 0.904878
O O1 0.930155 0.526618 0.200621
O O2 0.844755 0.440883 0.349525
O O3 0.018685 0.434818 0.168376
O O4 0.808652 0.451049 0.075310
O O5 0.096394 0.370712 0.875329
O O6 0.184357 0.289256 0.743487
O O7 0.163904 0.282008 0.028585
O O8 0.309769 0.342802 0.929015
O O9 0.542453 0.897937 0.382445
O O10 0.388294 0.912239 0.163100
O O11 0.741207 0.597384 0.367213
O O12 0.844820 0.563642 0.611392
O O13 0.811505 0.996287 0.338396
#
# Coordination Sequence:
#
# PCOD9431902 Si02
#       7
#     8   8   8   4   8   8   8
#     4  11  24  35  53  77 116 157 200 234 262 312
#     4  11  19  36  51  83 106 144 169 229 288 352
#     4  11  22  33  57  74 114 152 190 226 281 334
#     4  10  22  32  56  76 116 132 172 226 300 358
#     4  12  20  34  57  79 112 151 188 225 282 344
#     4  11  22  34  52  78 112 154 195 228 273 321
#     4  11  22  36  50  74 111 155 201 234 265 315
#
# _framework density 19.084116999999999
#
# number of rings (size 3 to 8) (size 9 to 14) (size 15 to 20)
#    0.000    0.923    4.615    4.615    2.154    1.231 
#    0.000    0.000    0.000    0.000    0.000    0.000 
#    0.000   41.846    0.000    0.000    0.000    0.000 
#
# Total GULP energy -289932.770624 kJ/mol
# GULP energy per Si atom -5575.630204 kJ/mol
# Density = 1.904068 g / cm^3
# Si number density = 19.084117 Si / 1000 Ang^3
#
#
#
# Elastic Constant Matrix: (Units=GPa)
#
#
# Indices 1 2 3 4 5 6 
#
# 1 46.0112 22.1202 6.5791 0.0000 0.0000 0.0000
# 2 22.1202 53.0988 19.9242 0.0000 0.0000 0.0000
# 3 6.5791 19.9242 101.8864 0.0000 0.0000 0.0000
# 4 0.0000 0.0000 0.0000 33.3605 0.0000 0.0000
# 5 0.0000 0.0000 0.0000 0.0000 17.3704 0.0000
# 6 0.0000 0.0000 0.0000 0.0000 0.0000 2.1657
#
#
#
# Elastic Compliance Matrix: (Units=1/GPa)
#
#
# Indices 1 2 3 4 5 6 
#
# 1 0.027200 -0.011517 0.000496 0.000000 0.000000 0.000000
# 2 -0.011517 0.025201 -0.004184 0.000000 0.000000 0.000000
# 3 0.000496 -0.004184 0.010601 0.000000 0.000000 0.000000
# 4 0.000000 0.000000 0.000000 0.029976 0.000000 0.000000
# 5 0.000000 0.000000 0.000000 0.000000 0.057569 0.000000
# 6 0.000000 0.000000 0.000000 0.000000 0.000000 0.461748
#
#
# Mechanical properties :
#
#
# Convention : Reuss Voigt Hill
#
# Bulk Modulus (GPa) = 30.68387 33.13814 31.91100
# Shear Modulus (GPa) = 7.65030 20.73752 14.19391
#
# Velocity S-wave (km/s) = 2.00435 3.29999 2.73015
# Velocity P-wave (km/s) = 4.63354 5.64995 5.16680
#
# Compressibility (1/GPa) = 0.03259041
#
# Stress axis : x y z
#
# Youngs Moduli (GPa) = 36.76487 39.68128 94.32974
#
# Poissons Ratio (x) = 0.45701 -0.04677
# Poissons Ratio (y) = 0.42343 0.39471
# Poissons Ratio (z) = -0.01823 0.16604
#
# Static dielectric constant tensor:
#      x y z
#    x 1.733360 0.000000 0.000000 
#    y 0.000000 1.733030 0.000000 
#    z 0.000000 0.000000 1.752510 
# 
# From -- ./inp_files/2859.got.cif
#   From: 2010.05.17/outbox.cif.g08.bks.cpg/sg56_2_cif.got.tgz:2859.got - 2010.06.03 13:42:01.
