data_PCOD9431583
_publ_section_title
;
Structure prediction by ZEFSAII (Michael W. Deem and Ramdas Pophale) SiO2 
 PCOD9431583
Probable space group: P C C N
;
_chemical_formula_sum "Si O2"
_cell_formula_units_Z 40
_cell_length_a 7.403683
_cell_length_b 20.665363
_cell_length_c 9.261336
_cell_angle_alpha 90.000000
_cell_angle_beta 90.000000
_cell_angle_gamma 90.000000
_cell_volume 1416.982525
_symmetry_space_group_name_H-M "P C C N"
_symmetry_group_IT_number 56
_symmetry_cell_setting 'orthorhombic'
loop_
_space_group_symop_operation_xyz
x,y,z
1/2-x,1/2-y,z
1/2+x,-y,1/2-z
-x,1/2+y,1/2-z
-x,-y,-z
1/2+x,1/2+y,-z
1/2-x,y,1/2+z
x,1/2-y,1/2+z
loop_
_atom_site_type_symbol
_atom_site_label
_atom_site_fract_x
_atom_site_fract_y
_atom_site_fract_z
Si Si1 0.155673 0.888021 0.702430
Si Si2 0.570601 0.792202 0.771565
Si Si3 0.456755 0.814590 0.477625
Si Si4 0.666514 0.893175 0.985249
Si Si5 0.307825 0.529179 0.967395
O O1 0.150475 0.837864 0.834764
O O2 0.076066 0.703660 0.644745
O O3 0.963300 0.878298 0.621275
O O4 0.192687 0.952051 0.800009
O O5 0.750000 0.750000 0.725441
O O6 0.513888 0.755662 0.915914
O O7 0.597925 0.865083 0.832441
O O8 0.637529 0.859260 0.493808
O O9 0.277120 0.905849 0.562553
O O10 0.679076 0.970458 0.989480
O O11 0.500000 0.500000 0.000000
#
# Coordination Sequence:
#
# PCOD9431583 Si02
#       5
#     8   8   8   8   8
#     4  12  27  46  72 111 154 213 262 328 402 483
#     4  10  21  39  75 121 150 195 258 347 403 483
#     4  11  22  42  74 115 149 191 263 333 408 473
#     4  11  23  45  76 112 156 201 271 336 400 474
#     4  12  27  47  71 108 162 214 269 320 402 484
#
# _framework density 28.229001
#
# number of rings (size 3 to 8) (size 9 to 14) (size 15 to 20)
#    0.000    0.800    2.000    7.200    2.800    1.600 
#    0.000    0.000    0.000   14.400    0.000    0.000 
#    0.000    0.000    0.000    0.000    0.000    0.000 
#
# Total GULP energy -223508.611953 kJ/mol
# GULP energy per Si atom -5587.715299 kJ/mol
# Density = 2.816475 g / cm^3
# Si number density = 28.229001 Si / 1000 Ang^3
#
#
#
# Elastic Constant Matrix: (Units=GPa)
#
#
# Indices 1 2 3 4 5 6 
#
# 1 105.0371 28.1717 76.7126 0.0000 0.0000 0.0000
# 2 28.1717 89.6193 43.4694 0.0000 0.0000 0.0000
# 3 76.7126 43.4694 270.2538 0.0000 0.0000 0.0000
# 4 0.0000 0.0000 0.0000 44.2419 0.0000 0.0000
# 5 0.0000 0.0000 0.0000 0.0000 48.2364 0.0000
# 6 0.0000 0.0000 0.0000 0.0000 0.0000 24.9661
#
#
#
# Elastic Compliance Matrix: (Units=1/GPa)
#
#
# Indices 1 2 3 4 5 6 
#
# 1 0.012464 -0.002388 -0.003154 0.000000 0.000000 0.000000
# 2 -0.002388 0.012560 -0.001342 0.000000 0.000000 0.000000
# 3 -0.003154 -0.001342 0.004811 0.000000 0.000000 0.000000
# 4 0.000000 0.000000 0.000000 0.022603 0.000000 0.000000
# 5 0.000000 0.000000 0.000000 0.000000 0.020731 0.000000
# 6 0.000000 0.000000 0.000000 0.000000 0.000000 0.040054
#
#
# Mechanical properties :
#
#
# Convention : Reuss Voigt Hill
#
# Bulk Modulus (GPa) = 62.24021 84.62419 73.43220
# Shear Modulus (GPa) = 37.77878 44.59264 41.18571
#
# Velocity S-wave (km/s) = 3.66224 3.97882 3.82381
# Velocity P-wave (km/s) = 6.32289 7.15198 6.75018
#
# Compressibility (1/GPa) = 0.01606678
#
# Stress axis : x y z
#
# Youngs Moduli (GPa) = 80.22808 79.61669 207.84037
#
# Poissons Ratio (x) = 0.19016 0.65551
# Poissons Ratio (y) = 0.19162 0.27899
# Poissons Ratio (z) = 0.25303 0.10687
#
# Static dielectric constant tensor:
#      x y z
#    x 2.381760 0.000000 0.000000 
#    y 0.000000 2.329210 0.000000 
#    z 0.000000 0.000000 1.945770 
# 
# From -- ./inp_files/7007.got.cif
#   From: 2010.05.17/outbox.cif.g08.bks.cpg/sg56_4_cif.got.tgz:7007.got - 2010.06.03 13:42:01.
