data_PCOD9431600
_publ_section_title
;
Structure prediction by ZEFSAII (Michael W. Deem and Ramdas Pophale) SiO2 
 PCOD9431600
Probable space group: P C C N
;
_chemical_formula_sum "Si O2"
_cell_formula_units_Z 40
_cell_length_a 23.263582
_cell_length_b 5.551072
_cell_length_c 13.293571
_cell_angle_alpha 90.000000
_cell_angle_beta 90.000000
_cell_angle_gamma 90.000000
_cell_volume 1716.702761
_symmetry_space_group_name_H-M "P C C N"
_symmetry_group_IT_number 56
_symmetry_cell_setting 'orthorhombic'
loop_
_space_group_symop_operation_xyz
x,y,z
1/2-x,1/2-y,z
1/2+x,-y,1/2-z
-x,1/2+y,1/2-z
-x,-y,-z
1/2+x,1/2+y,-z
1/2-x,y,1/2+z
x,1/2-y,1/2+z
loop_
_atom_site_type_symbol
_atom_site_label
_atom_site_fract_x
_atom_site_fract_y
_atom_site_fract_z
Si Si1 0.967145 0.581826 0.228907
Si Si2 0.879088 0.297520 0.356864
Si Si3 0.308415 0.370408 0.017824
Si Si4 0.813433 0.338858 0.676105
Si Si5 0.603201 0.011923 0.038040
O O1 0.914200 0.504339 0.300106
O O2 0.944700 0.579483 0.114292
O O3 0.991782 0.844980 0.256878
O O4 0.823690 0.405517 0.412630
O O5 0.854474 0.119273 0.271486
O O6 0.916105 0.185918 0.447533
O O7 0.250000 0.250000 0.051706
O O8 0.303592 0.445301 0.901164
O O9 0.362786 0.196725 0.018427
O O10 0.750000 0.250000 0.705069
O O11 0.849334 0.147794 0.607871
#
# Coordination Sequence:
#
# PCOD9431600 Si02
#       5
#     8   8   8   8   8
#     4  11  28  50  74 102 140 190 245 307 369 412
#     4  10  26  42  69 103 138 183 241 289 353 439
#     4  11  23  42  69 100 144 184 227 289 357 428
#     4  10  21  40  61  97 143 185 222 278 351 423
#     4  10  24  44  68 101 141 174 238 298 341 434
#
# _framework density 23.300481000000001
#
# number of rings (size 3 to 8) (size 9 to 14) (size 15 to 20)
#    0.000    1.600    2.000    0.000   14.000    3.200 
#    0.000    0.000    0.000    0.000    0.000    0.000 
#    0.000    0.000    0.000    0.000    0.000    0.000 
#
# Total GULP energy -223487.191860 kJ/mol
# GULP energy per Si atom -5587.179796 kJ/mol
# Density = 2.324745 g / cm^3
# Si number density = 23.300481 Si / 1000 Ang^3
#
#
#
# Elastic Constant Matrix: (Units=GPa)
#
#
# Indices 1 2 3 4 5 6 
#
# 1 75.3445 8.5541 27.6180 0.0000 0.0000 0.0000
# 2 8.5541 32.8382 1.0176 0.0000 0.0000 0.0000
# 3 27.6180 1.0176 111.7168 0.0000 0.0000 0.0000
# 4 0.0000 0.0000 0.0000 943.1184 0.0000 0.0000
# 5 0.0000 0.0000 0.0000 0.0000 -42.6923 0.0000
# 6 0.0000 0.0000 0.0000 0.0000 0.0000 38.6245
#
#
#
# Elastic Compliance Matrix: (Units=1/GPa)
#
#
# Indices 1 2 3 4 5 6 
#
# 1 0.015056 -0.003808 -0.003687 0.000000 0.000000 0.000000
# 2 -0.003808 0.031424 0.000655 0.000000 0.000000 0.000000
# 3 -0.003687 0.000655 0.009857 0.000000 0.000000 0.000000
# 4 0.000000 0.000000 0.000000 0.001060 0.000000 0.000000
# 5 0.000000 0.000000 0.000000 0.000000 -0.023423 0.000000
# 6 0.000000 0.000000 0.000000 0.000000 0.000000 0.025890
#
#
# Mechanical properties :
#
#
# Convention : Reuss Voigt Hill
#
# Bulk Modulus (GPa) = 23.44291 32.69766 28.07029
# Shear Modulus (GPa) = 56.97128 199.99076 128.48102
#
# Velocity S-wave (km/s) = 4.95013 9.27456 7.43375
# Velocity P-wave (km/s) = 6.53870 11.34696 9.26035
#
# Compressibility (1/GPa) = 0.04265681
#
# Stress axis : x y z
#
# Youngs Moduli (GPa) = 66.41719 31.82289 101.45247
#
# Poissons Ratio (x) = 0.12117 0.37410
# Poissons Ratio (y) = 0.25290 -0.06646
# Poissons Ratio (z) = 0.24491 -0.02085
#
# Static dielectric constant tensor:
#      x y z
#    x 1.927600 0.000000 0.000000 
#    y 0.000000 1.988740 0.000000 
#    z 0.000000 0.000000 1.855870 
# 
# From -- ./inp_files/5631.got.cif
#   From: 2010.05.17/outbox.cif.g08.bks.cpg/sg56_3_cif.got.tgz:5631.got - 2010.06.03 13:42:01.
