data_PCOD9431767
_publ_section_title
;
Structure prediction by ZEFSAII (Michael W. Deem and Ramdas Pophale) SiO2 
 PCOD9431767
Probable space group: P C C N
;
_chemical_formula_sum "Si O2"
_cell_formula_units_Z 44
_cell_length_a 12.996177
_cell_length_b 9.222526
_cell_length_c 17.970404
_cell_angle_alpha 90.000000
_cell_angle_beta 90.000000
_cell_angle_gamma 90.000000
_cell_volume 2153.889140
_symmetry_space_group_name_H-M "P C C N"
_symmetry_group_IT_number 56
_symmetry_cell_setting 'orthorhombic'
loop_
_space_group_symop_operation_xyz
x,y,z
1/2-x,1/2-y,z
1/2+x,-y,1/2-z
-x,1/2+y,1/2-z
-x,-y,-z
1/2+x,1/2+y,-z
1/2-x,y,1/2+z
x,1/2-y,1/2+z
loop_
_atom_site_type_symbol
_atom_site_label
_atom_site_fract_x
_atom_site_fract_y
_atom_site_fract_z
Si Si1 0.062237 0.022456 0.702947
Si Si2 0.941845 0.747049 0.172505
Si Si3 0.228493 0.919549 0.164803
Si Si4 0.069693 0.889804 0.046333
Si Si5 0.750000 0.250000 0.550626
Si Si6 0.342113 0.535965 0.334042
O O1 0.080147 0.114119 0.777248
O O2 0.962378 0.084216 0.660677
O O3 0.166667 0.009210 0.657379
O O4 0.023229 0.857282 0.716957
O O5 0.848079 0.637743 0.159041
O O6 0.995249 0.789291 0.095715
O O7 0.250000 0.750000 0.149671
O O8 0.140258 0.969190 0.108726
O O9 0.193873 0.930548 0.250435
O O10 0.150782 0.798228 0.997216
O O11 0.000000 0.000000 0.000000
O O12 0.722658 0.383664 0.604424
#
# Coordination Sequence:
#
# PCOD9431767 Si02
#       6
#     8   8   8   8   4   8
#     4  10  21  41  76  99 142 176 242 303 357 412
#     4  10  22  45  68 105 143 180 236 311 350 431
#     4  12  20  44  75 103 138 194 234 299 366 434
#     4  12  26  46  72 102 153 193 238 295 383 444
#     4  12  26  44  72 102 142 208 232 294 384 444
#     4  10  24  39  75 106 135 184 255 294 355 431
#
# _framework density 20.428163000000001
#
# number of rings (size 3 to 8) (size 9 to 14) (size 15 to 20)
#    1.091    0.000    5.455    0.000    2.545    2.909 
#    0.000    0.000    4.000    0.000    0.000    0.000 
#    0.000    0.000    0.000    0.000    0.000    0.000 
#
# Total GULP energy -245411.817131 kJ/mol
# GULP energy per Si atom -5577.541298 kJ/mol
# Density = 2.038167 g / cm^3
# Si number density = 20.428163 Si / 1000 Ang^3
#
#
#
# Elastic Constant Matrix: (Units=GPa)
#
#
# Indices 1 2 3 4 5 6 
#
# 1 71.6707 37.9452 37.6998 0.0000 0.0000 0.0000
# 2 37.9452 102.7429 63.1948 0.0000 0.0000 0.0000
# 3 37.6998 63.1948 111.7410 0.0000 0.0000 0.0000
# 4 0.0000 0.0000 0.0000 8.2661 0.0000 0.0000
# 5 0.0000 0.0000 0.0000 0.0000 36.3547 0.0000
# 6 0.0000 0.0000 0.0000 0.0000 0.0000 37.5651
#
#
#
# Elastic Compliance Matrix: (Units=1/GPa)
#
#
# Indices 1 2 3 4 5 6 
#
# 1 0.018239 -0.004525 -0.003594 0.000000 0.000000 0.000000
# 2 -0.004525 0.016047 -0.007549 0.000000 0.000000 0.000000
# 3 -0.003594 -0.007549 0.014431 0.000000 0.000000 0.000000
# 4 0.000000 0.000000 0.000000 0.120975 0.000000 0.000000
# 5 0.000000 0.000000 0.000000 0.000000 0.027507 0.000000
# 6 0.000000 0.000000 0.000000 0.000000 0.000000 0.026620
#
#
# Mechanical properties :
#
#
# Convention : Reuss Voigt Hill
#
# Bulk Modulus (GPa) = 57.53463 62.64825 60.09144
# Shear Modulus (GPa) = 19.16068 26.25817 22.70942
#
# Velocity S-wave (km/s) = 3.06593 3.58912 3.33779
# Velocity P-wave (km/s) = 6.38425 6.92170 6.65840
#
# Compressibility (1/GPa) = 0.01738084
#
# Stress axis : x y z
#
# Youngs Moduli (GPa) = 54.82675 62.31527 69.29452
#
# Poissons Ratio (x) = 0.28200 0.24907
# Poissons Ratio (y) = 0.24811 0.52309
# Poissons Ratio (z) = 0.19707 0.47041
#
# Static dielectric constant tensor:
#      x y z
#    x 1.782860 0.000000 0.000000 
#    y 0.000000 1.730580 0.000000 
#    z 0.000000 0.000000 1.705340 
# 
# From -- ./inp_files/16099.got.cif
#   From: 2010.05.17/outbox.cif.g08.bks.cpg/sg56_9_cif.got.tgz:16099.got - 2010.06.03 13:42:01.
