data_PCOD9431616
_publ_section_title
;
Structure prediction by ZEFSAII (Michael W. Deem and Ramdas Pophale) SiO2 
 PCOD9431616
Probable space group: P C C N
;
_chemical_formula_sum "Si O2"
_cell_formula_units_Z 40
_cell_length_a 20.088663
_cell_length_b 8.117418
_cell_length_c 11.077880
_cell_angle_alpha 90.000000
_cell_angle_beta 90.000000
_cell_angle_gamma 90.000000
_cell_volume 1806.448563
_symmetry_space_group_name_H-M "P C C N"
_symmetry_group_IT_number 56
_symmetry_cell_setting 'orthorhombic'
loop_
_space_group_symop_operation_xyz
x,y,z
1/2-x,1/2-y,z
1/2+x,-y,1/2-z
-x,1/2+y,1/2-z
-x,-y,-z
1/2+x,1/2+y,-z
1/2-x,y,1/2+z
x,1/2-y,1/2+z
loop_
_atom_site_type_symbol
_atom_site_label
_atom_site_fract_x
_atom_site_fract_y
_atom_site_fract_z
Si Si1 0.374633 0.594705 0.446919
Si Si2 0.549975 0.236595 0.365897
Si Si3 0.316790 0.351857 0.643257
Si Si4 0.317031 0.836864 0.277812
Si Si5 0.570237 0.894332 0.279879
O O1 0.441884 0.665626 0.508938
O O2 0.333067 0.476817 0.534709
O O3 0.333107 0.755839 0.406773
O O4 0.392572 0.488276 0.329717
O O5 0.619305 0.285918 0.301475
O O6 0.491004 0.301298 0.282188
O O7 0.547166 0.039403 0.369871
O O8 0.250000 0.250000 0.624149
O O9 0.309750 0.468149 0.762000
O O10 0.379251 0.231598 0.659204
O O11 0.250000 0.750000 0.232637
#
# Coordination Sequence:
#
# PCOD9431616 Si02
#       5
#     8   8   8   8   8
#     4  10  23  40  65  92 125 166 211 257 311 370
#     4  10  21  40  63  91 127 166 208 257 309 368
#     4  11  24  43  65  94 127 164 208 258 311 373
#     4  10  22  41  63  90 124 163 205 256 308 366
#     4  11  23  42  64  93 128 165 209 260 311 371
#
# _framework density 22.142893999999998
#
# number of rings (size 3 to 8) (size 9 to 14) (size 15 to 20)
#    0.000    1.600    0.000    5.400    0.000   10.400 
#    0.000    6.000    0.000    0.000    0.000    0.000 
#    0.000    0.000    0.000    0.000    0.000    0.000 
#
# Total GULP energy -223525.968780 kJ/mol
# GULP energy per Si atom -5588.149220 kJ/mol
# Density = 2.209250 g / cm^3
# Si number density = 22.142894 Si / 1000 Ang^3
#
#
#
# Elastic Constant Matrix: (Units=GPa)
#
#
# Indices 1 2 3 4 5 6 
#
# 1 75.5160 19.3784 0.8357 0.0000 0.0000 0.0000
# 2 19.3784 140.3224 32.8174 0.0000 0.0000 0.0000
# 3 0.8357 32.8174 65.3292 0.0000 0.0000 0.0000
# 4 0.0000 0.0000 0.0000 37.3492 0.0000 0.0000
# 5 0.0000 0.0000 0.0000 0.0000 18.3772 0.0000
# 6 0.0000 0.0000 0.0000 0.0000 0.0000 33.9905
#
#
#
# Elastic Compliance Matrix: (Units=1/GPa)
#
#
# Indices 1 2 3 4 5 6 
#
# 1 0.013774 -0.002109 0.000883 0.000000 0.000000 0.000000
# 2 -0.002109 0.008398 -0.004192 0.000000 0.000000 0.000000
# 3 0.000883 -0.004192 0.017401 0.000000 0.000000 0.000000
# 4 0.000000 0.000000 0.000000 0.026774 0.000000 0.000000
# 5 0.000000 0.000000 0.000000 0.000000 0.054415 0.000000
# 6 0.000000 0.000000 0.000000 0.000000 0.000000 0.029420
#
#
# Mechanical properties :
#
#
# Convention : Reuss Voigt Hill
#
# Bulk Modulus (GPa) = 34.79654 43.02561 38.91108
# Shear Modulus (GPa) = 29.30895 33.15246 31.23071
#
# Velocity S-wave (km/s) = 3.64212 3.87357 3.75963
# Velocity P-wave (km/s) = 5.78233 6.28324 6.03798
#
# Compressibility (1/GPa) = 0.02873849
#
# Stress axis : x y z
#
# Youngs Moduli (GPa) = 72.60291 119.07656 57.46651
#
# Poissons Ratio (x) = 0.25109 -0.05075
# Poissons Ratio (y) = 0.15309 0.24088
# Poissons Ratio (z) = -0.06411 0.49913
#
# Static dielectric constant tensor:
#      x y z
#    x 1.783080 0.000000 0.000000 
#    y 0.000000 1.823340 0.000000 
#    z 0.000000 0.000000 1.924220 
# 
# From -- ./inp_files/6299.got.cif
#   From: 2010.05.17/outbox.cif.g08.bks.cpg/sg56_4_cif.got.tgz:6299.got - 2010.06.03 13:42:01.
