data_PCOD9431140
_publ_section_title
;
Structure prediction by ZEFSAII (Michael W. Deem and Ramdas Pophale) SiO2 
 PCOD9431140
Probable space group: P C C N
;
_chemical_formula_sum "Si O2"
_cell_formula_units_Z 56
_cell_length_a 14.422030
_cell_length_b 11.882422
_cell_length_c 13.403169
_cell_angle_alpha 90.000000
_cell_angle_beta 90.000000
_cell_angle_gamma 90.000000
_cell_volume 2296.882931
_symmetry_space_group_name_H-M "P C C N"
_symmetry_group_IT_number 56
_symmetry_cell_setting 'orthorhombic'
loop_
_space_group_symop_operation_xyz
x,y,z
1/2-x,1/2-y,z
1/2+x,-y,1/2-z
-x,1/2+y,1/2-z
-x,-y,-z
1/2+x,1/2+y,-z
1/2-x,y,1/2+z
x,1/2-y,1/2+z
loop_
_atom_site_type_symbol
_atom_site_label
_atom_site_fract_x
_atom_site_fract_y
_atom_site_fract_z
Si Si1 0.317248 0.539680 0.982719
Si Si2 0.998176 0.260309 0.101313
Si Si3 0.834110 0.602245 0.331913
Si Si4 0.650609 0.385843 0.219184
Si Si5 0.435929 0.339980 0.911044
Si Si6 0.511877 0.050743 0.230278
Si Si7 0.250000 0.250000 0.326405
Si Si8 0.750000 0.250000 0.892573
O O1 0.285916 0.452368 0.070613
O O2 0.304628 0.659257 0.038572
O O3 0.282816 0.563647 0.868992
O O4 0.410874 0.466295 0.952571
O O5 0.096127 0.204544 0.137975
O O6 0.983428 0.390608 0.124186
O O7 0.913994 0.197965 0.155355
O O8 0.002221 0.228353 0.986705
O O9 0.765038 0.647393 0.249316
O O10 0.901128 0.512789 0.277372
O O11 0.578848 0.475410 0.262411
O O12 0.694069 0.325750 0.313460
O O13 0.489325 0.349390 0.807775
O O14 0.339506 0.276505 0.891894
#
# Coordination Sequence:
#
# PCOD9431140 Si02
#       8
#     8   8   8   8   8   8   4   4
#     4  10  23  41  62  96 131 180 218 280 350 410
#     4  10  20  41  67  95 127 182 231 274 342 426
#     4  10  22  39  70  93 134 178 228 285 347 412
#     4  10  23  40  66  96 132 178 228 279 346 420
#     4  10  23  41  70  95 143 178 232 279 353 420
#     4  10  20  42  66  96 130 180 227 281 341 421
#     4  12  24  42  68 106 136 184 234 300 348 406
#     4  12  24  40  68  96 138 174 228 292 348 416
#
# _framework density 24.380866999999999
#
# number of rings (size 3 to 8) (size 9 to 14) (size 15 to 20)
#    0.000    1.714    1.429    2.143    4.000    6.857 
#    2.571    0.714    0.000    0.000    0.000    0.000 
#    0.000    0.000    0.000    0.000    0.000    0.000 
#
# Total GULP energy -312625.881271 kJ/mol
# GULP energy per Si atom -5582.605023 kJ/mol
# Density = 2.432538 g / cm^3
# Si number density = 24.380867 Si / 1000 Ang^3
#
#
#
# Elastic Constant Matrix: (Units=GPa)
#
#
# Indices 1 2 3 4 5 6 
#
# 1 47.1883 11.1135 26.3387 0.0000 0.0000 0.0000
# 2 11.1135 81.6947 56.0184 0.0000 0.0000 0.0000
# 3 26.3387 56.0184 90.5559 0.0000 0.0000 0.0000
# 4 0.0000 0.0000 0.0000 43.0043 0.0000 0.0000
# 5 0.0000 0.0000 0.0000 0.0000 30.2760 0.0000
# 6 0.0000 0.0000 0.0000 0.0000 0.0000 29.6812
#
#
#
# Elastic Compliance Matrix: (Units=1/GPa)
#
#
# Indices 1 2 3 4 5 6 
#
# 1 0.025669 0.002826 -0.009214 0.000000 0.000000 0.000000
# 2 0.002826 0.021569 -0.014165 0.000000 0.000000 0.000000
# 3 -0.009214 -0.014165 0.022485 0.000000 0.000000 0.000000
# 4 0.000000 0.000000 0.000000 0.023253 0.000000 0.000000
# 5 0.000000 0.000000 0.000000 0.000000 0.033029 0.000000
# 6 0.000000 0.000000 0.000000 0.000000 0.000000 0.033691
#
#
# Mechanical properties :
#
#
# Convention : Reuss Voigt Hill
#
# Bulk Modulus (GPa) = 34.94308 45.15331 40.04820
# Shear Modulus (GPa) = 23.77069 28.99019 26.38044
#
# Velocity S-wave (km/s) = 3.12584 3.45201 3.29297
# Velocity P-wave (km/s) = 5.23366 5.86930 5.56057
#
# Compressibility (1/GPa) = 0.02861797
#
# Stress axis : x y z
#
# Youngs Moduli (GPa) = 38.95722 46.36265 44.47325
#
# Poissons Ratio (x) = -0.13104 0.40980
# Poissons Ratio (y) = -0.11011 0.62996
# Poissons Ratio (z) = 0.35897 0.65672
#
# Static dielectric constant tensor:
#      x y z
#    x 1.932750 0.000000 0.000000 
#    y 0.000000 2.048910 0.000000 
#    z 0.000000 0.000000 1.952900 
# 
# From -- ./inp_files/12302.got.cif
#   From: 2010.05.17/outbox.cif.g08.bks.cpg/sg56_7_cif.got.tgz:12302.got - 2010.06.03 13:42:01.
