data_PCOD9431482
_publ_section_title
;
Structure prediction by ZEFSAII (Michael W. Deem and Ramdas Pophale) SiO2 
 PCOD9431482
Probable space group: P C C N
;
_chemical_formula_sum "Si O2"
_cell_formula_units_Z 48
_cell_length_a 9.978459
_cell_length_b 15.230931
_cell_length_c 13.532299
_cell_angle_alpha 90.000000
_cell_angle_beta 90.000000
_cell_angle_gamma 90.000000
_cell_volume 2056.655318
_symmetry_space_group_name_H-M "P C C N"
_symmetry_group_IT_number 56
_symmetry_cell_setting 'orthorhombic'
loop_
_space_group_symop_operation_xyz
x,y,z
1/2-x,1/2-y,z
1/2+x,-y,1/2-z
-x,1/2+y,1/2-z
-x,-y,-z
1/2+x,1/2+y,-z
1/2-x,y,1/2+z
x,1/2-y,1/2+z
loop_
_atom_site_type_symbol
_atom_site_label
_atom_site_fract_x
_atom_site_fract_y
_atom_site_fract_z
Si Si1 0.295100 0.122173 0.486678
Si Si2 0.895471 0.968090 0.658982
Si Si3 0.533580 0.652267 0.388560
Si Si4 0.354569 0.519232 0.127607
Si Si5 0.014158 0.185807 0.834127
Si Si6 0.619445 0.158608 0.915154
O O1 0.220337 0.051024 0.418428
O O2 0.177540 0.155920 0.559164
O O3 0.368076 0.191822 0.415493
O O4 0.387293 0.062045 0.556851
O O5 0.995394 0.887069 0.643340
O O6 0.826562 0.978288 0.764821
O O7 0.984783 0.052760 0.632872
O O8 0.540701 0.698840 0.282075
O O9 0.423786 0.678809 0.471373
O O10 0.475886 0.584433 0.149031
O O11 0.236009 0.585482 0.092372
O O12 0.888704 0.246000 0.864656
#
# Coordination Sequence:
#
# PCOD9431482 Si02
#       6
#     8   8   8   8   8   8
#     4  11  20  41  66  94 129 175 231 272 318 401
#     4  10  21  38  70  89 120 183 231 265 325 406
#     4  10  21  44  66  87 132 182 218 272 341 399
#     4  11  22  41  67  97 135 176 227 273 328 415
#     4  11  26  39  63 108 135 170 227 276 340 405
#     4  11  22  45  65  94 139 178 214 281 353 388
#
# _framework density 23.338864000000001
#
# number of rings (size 3 to 8) (size 9 to 14) (size 15 to 20)
#    0.000    1.333    3.333    3.000    2.333    4.000 
#    3.000    5.000    0.000    0.000    0.000    0.000 
#    0.000    0.000    0.000    0.000    0.000    0.000 
#
# Total GULP energy -267718.118406 kJ/mol
# GULP energy per Si atom -5577.460800 kJ/mol
# Density = 2.328574 g / cm^3
# Si number density = 23.338864 Si / 1000 Ang^3
#
#
#
# Elastic Constant Matrix: (Units=GPa)
#
#
# Indices 1 2 3 4 5 6 
#
# 1 72.7521 3.5374 41.4899 0.0000 0.0000 0.0000
# 2 3.5374 53.1211 34.3543 0.0000 0.0000 0.0000
# 3 41.4899 34.3543 182.0405 0.0000 0.0000 0.0000
# 4 0.0000 0.0000 0.0000 22.6640 0.0000 0.0000
# 5 0.0000 0.0000 0.0000 0.0000 22.9848 0.0000
# 6 0.0000 0.0000 0.0000 0.0000 0.0000 27.1212
#
#
#
# Elastic Compliance Matrix: (Units=1/GPa)
#
#
# Indices 1 2 3 4 5 6 
#
# 1 0.015898 0.001463 -0.003900 0.000000 0.000000 0.000000
# 2 0.001463 0.021577 -0.004405 0.000000 0.000000 0.000000
# 3 -0.003900 -0.004405 0.007213 0.000000 0.000000 0.000000
# 4 0.000000 0.000000 0.000000 0.044123 0.000000 0.000000
# 5 0.000000 0.000000 0.000000 0.000000 0.043507 0.000000
# 6 0.000000 0.000000 0.000000 0.000000 0.000000 0.036872
#
#
# Mechanical properties :
#
#
# Convention : Reuss Voigt Hill
#
# Bulk Modulus (GPa) = 32.25327 51.85299 42.05313
# Shear Modulus (GPa) = 25.87890 29.78947 27.83418
#
# Velocity S-wave (km/s) = 3.33353 3.57653 3.45717
# Velocity P-wave (km/s) = 5.35407 6.27066 5.83040
#
# Compressibility (1/GPa) = 0.03100461
#
# Stress axis : x y z
#
# Youngs Moduli (GPa) = 62.90083 46.34672 138.63042
#
# Poissons Ratio (x) = -0.06782 0.54060
# Poissons Ratio (y) = -0.09204 0.61072
# Poissons Ratio (z) = 0.24529 0.20417
#
# Static dielectric constant tensor:
#      x y z
#    x 1.929530 0.000000 0.000000 
#    y 0.000000 1.912270 0.000000 
#    z 0.000000 0.000000 1.893770 
# 
# From -- ./inp_files/7127.got.cif
#   From: 2010.05.17/outbox.cif.g08.bks.cpg/sg56_4_cif.got.tgz:7127.got - 2010.06.03 13:42:01.
