data_PCOD9431156
_publ_section_title
;
Structure prediction by ZEFSAII (Michael W. Deem and Ramdas Pophale) SiO2 
 PCOD9431156
Probable space group: P C C N
;
_chemical_formula_sum "Si O2"
_cell_formula_units_Z 36
_cell_length_a 14.410736
_cell_length_b 5.000421
_cell_length_c 20.458013
_cell_angle_alpha 90.000000
_cell_angle_beta 90.000000
_cell_angle_gamma 90.000000
_cell_volume 1474.199239
_symmetry_space_group_name_H-M "P C C N"
_symmetry_group_IT_number 56
_symmetry_cell_setting 'orthorhombic'
loop_
_space_group_symop_operation_xyz
x,y,z
1/2-x,1/2-y,z
1/2+x,-y,1/2-z
-x,1/2+y,1/2-z
-x,-y,-z
1/2+x,1/2+y,-z
1/2-x,y,1/2+z
x,1/2-y,1/2+z
loop_
_atom_site_type_symbol
_atom_site_label
_atom_site_fract_x
_atom_site_fract_y
_atom_site_fract_z
Si Si1 0.383137 0.724687 0.524774
Si Si2 0.896819 0.727213 0.551747
Si Si3 0.378743 0.439550 0.230440
Si Si4 0.250000 0.750000 0.135786
Si Si5 0.407827 0.554879 0.811530
O O1 0.491893 0.740227 0.542423
O O2 0.363298 0.524199 0.464704
O O3 0.327134 0.629867 0.587441
O O4 0.359475 0.024660 0.503175
O O5 0.880456 0.578696 0.620077
O O6 0.303728 0.540207 0.179996
O O7 0.480379 0.459989 0.196783
O O8 0.367777 0.141102 0.256172
O O9 0.379734 0.644514 0.292435
#
# Coordination Sequence:
#
# PCOD9431156 Si02
#       5
#     8   8   8   4   8
#     4  10  23  36  66  88 128 158 209 249 319 349
#     4  10  20  42  61  92 117 173 203 252 293 396
#     4  10  23  36  66  88 128 158 209 249 319 349
#     4  12  24  46  58 106 120 168 196 284 292 390
#     4  10  20  42  61  92 117 173 203 252 293 396
#
# _framework density 24.420038000000002
#
# number of rings (size 3 to 8) (size 9 to 14) (size 15 to 20)
#    0.000    1.778    2.222    1.333    0.000    5.333 
#    0.000    6.667    0.000    0.000    0.000    0.000 
#    0.000    0.000    0.000    0.000    0.000    0.000 
#
# Total GULP energy -201500.421260 kJ/mol
# GULP energy per Si atom -5597.233924 kJ/mol
# Density = 2.436446 g / cm^3
# Si number density = 24.420038 Si / 1000 Ang^3
#
#
#
# Elastic Constant Matrix: (Units=GPa)
#
#
# Indices 1 2 3 4 5 6 
#
# 1 75.6213 17.3672 31.2540 0.0000 0.0000 0.0000
# 2 17.3672 97.1756 -4.4357 0.0000 0.0000 0.0000
# 3 31.2540 -4.4357 80.0524 0.0000 0.0000 0.0000
# 4 0.0000 0.0000 0.0000 12.3273 0.0000 0.0000
# 5 0.0000 0.0000 0.0000 0.0000 36.5110 0.0000
# 6 0.0000 0.0000 0.0000 0.0000 0.0000 13.0882
#
#
#
# Elastic Compliance Matrix: (Units=1/GPa)
#
#
# Indices 1 2 3 4 5 6 
#
# 1 0.016763 -0.003303 -0.006728 0.000000 0.000000 0.000000
# 2 -0.003303 0.010968 0.001897 0.000000 0.000000 0.000000
# 3 -0.006728 0.001897 0.015223 0.000000 0.000000 0.000000
# 4 0.000000 0.000000 0.000000 0.081121 0.000000 0.000000
# 5 0.000000 0.000000 0.000000 0.000000 0.027389 0.000000
# 6 0.000000 0.000000 0.000000 0.000000 0.000000 0.076405
#
#
# Mechanical properties :
#
#
# Convention : Reuss Voigt Hill
#
# Bulk Modulus (GPa) = 37.47088 37.91338 37.69213
# Shear Modulus (GPa) = 19.76046 26.29623 23.02834
#
# Velocity S-wave (km/s) = 2.84771 3.28507 3.07418
# Velocity P-wave (km/s) = 5.11764 5.47249 5.29804
#
# Compressibility (1/GPa) = 0.02668739
#
# Stress axis : x y z
#
# Youngs Moduli (GPa) = 59.65596 91.17811 65.68797
#
# Poissons Ratio (x) = 0.30115 0.44192
# Poissons Ratio (y) = 0.19704 -0.12463
# Poissons Ratio (z) = 0.40134 -0.17299
#
# Static dielectric constant tensor:
#      x y z
#    x 1.971690 0.000000 0.000000 
#    y 0.000000 1.864090 0.000000 
#    z 0.000000 0.000000 1.929770 
# 
# From -- ./inp_files/17351.got.cif
#   From: 2010.05.17/outbox.cif.g08.bks.cpg/sg56_9_cif.got.tgz:17351.got - 2010.06.03 13:42:01.
