data_PCOD9431688
_publ_section_title
;
Structure prediction by ZEFSAII (Michael W. Deem and Ramdas Pophale) SiO2 
 PCOD9431688
Probable space group: P C C N
;
_chemical_formula_sum "Si O2"
_cell_formula_units_Z 52
_cell_length_a 17.133662
_cell_length_b 7.765137
_cell_length_c 17.390085
_cell_angle_alpha 90.000000
_cell_angle_beta 90.000000
_cell_angle_gamma 90.000000
_cell_volume 2313.667906
_symmetry_space_group_name_H-M "P C C N"
_symmetry_group_IT_number 56
_symmetry_cell_setting 'orthorhombic'
loop_
_space_group_symop_operation_xyz
x,y,z
1/2-x,1/2-y,z
1/2+x,-y,1/2-z
-x,1/2+y,1/2-z
-x,-y,-z
1/2+x,1/2+y,-z
1/2-x,y,1/2+z
x,1/2-y,1/2+z
loop_
_atom_site_type_symbol
_atom_site_label
_atom_site_fract_x
_atom_site_fract_y
_atom_site_fract_z
Si Si1 0.636097 0.965149 0.911809
Si Si2 0.250000 0.750000 0.379349
Si Si3 0.660079 0.448787 0.754936
Si Si4 0.451596 0.252307 0.453901
Si Si5 0.750000 0.750000 0.308519
Si Si6 0.022854 0.547311 0.836366
Si Si7 0.750000 0.250000 0.889049
Si Si8 0.912604 0.150813 0.058451
O O1 0.698242 0.858999 0.864977
O O2 0.567809 0.990595 0.848493
O O3 0.690423 0.126820 0.934369
O O4 0.597251 0.852310 0.979471
O O5 0.297337 0.628438 0.320029
O O6 0.320017 0.832336 0.428346
O O7 0.690789 0.640872 0.759022
O O8 0.567057 0.444154 0.744491
O O9 0.692711 0.353977 0.830486
O O10 0.442797 0.383836 0.383495
O O11 0.541457 0.231544 0.484377
O O12 0.428001 0.054449 0.439957
O O13 0.045510 0.730309 0.876219
#
# Coordination Sequence:
#
# PCOD9431688 Si02
#       8
#     8   4   8   8   4   8   4   8
#     4  10  21  42  59  86 126 163 206 248 323 371
#     4   9  18  36  63  90 117 164 201 258 316 359
#     4   9  20  38  62  87 118 155 216 258 309 357
#     4  10  21  41  61  91 127 166 201 254 311 389
#     4  10  22  40  56  90 124 158 202 270 296 376
#     4  10  21  41  64  92 119 166 204 258 311 377
#     4   9  20  42  61  84 125 162 203 270 300 363
#     4   9  19  38  59  92 129 153 203 250 307 373
#
# _framework density 22.475137
#
# number of rings (size 3 to 8) (size 9 to 14) (size 15 to 20)
#    0.000    2.462    0.000    1.846    2.154    1.231 
#   30.462    3.077    0.000    0.000    0.000    0.000 
#    0.000    0.000    0.000    0.000    0.000    0.000 
#
# Total GULP energy -289779.644175 kJ/mol
# GULP energy per Si atom -5572.685465 kJ/mol
# Density = 2.242398 g / cm^3
# Si number density = 22.475137 Si / 1000 Ang^3
#
#
#
# Elastic Constant Matrix: (Units=GPa)
#
#
# Indices 1 2 3 4 5 6 
#
# 1 133.2869 43.3240 16.5421 0.0000 0.0000 0.0000
# 2 43.3240 125.2656 29.0036 0.0000 0.0000 0.0000
# 3 16.5421 29.0036 28.2413 0.0000 0.0000 0.0000
# 4 0.0000 0.0000 0.0000 -3.7547 0.0000 0.0000
# 5 0.0000 0.0000 0.0000 0.0000 19.0384 0.0000
# 6 0.0000 0.0000 0.0000 0.0000 0.0000 31.3275
#
#
#
# Elastic Compliance Matrix: (Units=1/GPa)
#
#
# Indices 1 2 3 4 5 6 
#
# 1 0.008596 -0.002371 -0.002600 0.000000 0.000000 0.000000
# 2 -0.002371 0.011127 -0.010039 0.000000 0.000000 0.000000
# 3 -0.002600 -0.010039 0.047242 0.000000 0.000000 0.000000
# 4 0.000000 0.000000 0.000000 -0.266331 0.000000 0.000000
# 5 0.000000 0.000000 0.000000 0.000000 0.052526 0.000000
# 6 0.000000 0.000000 0.000000 0.000000 0.000000 0.031921
#
#
# Mechanical properties :
#
#
# Convention : Reuss Voigt Hill
#
# Bulk Modulus (GPa) = 27.06698 51.61481 39.34090
# Shear Modulus (GPa) = -68.88571 22.51718 -23.18427
#
# Velocity S-wave (km/s) = -5.54223 3.16867 -3.21526
# Velocity P-wave (km/s) = 5.37455 6.03344 1.93863
#
# Compressibility (1/GPa) = 0.03694538
#
# Stress axis : x y z
#
# Youngs Moduli (GPa) = 116.33363 89.86772 21.16757
#
# Poissons Ratio (x) = 0.21307 0.05504
# Poissons Ratio (y) = 0.27582 0.21250
# Poissons Ratio (z) = 0.30247 0.90219
#
# Static dielectric constant tensor:
#      x y z
#    x 1.781690 0.000000 0.000000 
#    y 0.000000 1.886320 0.000000 
#    z 0.000000 0.000000 1.859260 
# 
# From -- ./inp_files/16622.got.cif
#   From: 2010.05.17/outbox.cif.g08.bks.cpg/sg56_9_cif.got.tgz:16622.got - 2010.06.03 13:42:01.
