data_PCOD9431335
_publ_section_title
;
Structure prediction by ZEFSAII (Michael W. Deem and Ramdas Pophale) SiO2 
 PCOD9431335
Probable space group: P C C N
;
_chemical_formula_sum "Si O2"
_cell_formula_units_Z 40
_cell_length_a 8.632558
_cell_length_b 11.489921
_cell_length_c 19.426921
_cell_angle_alpha 90.000000
_cell_angle_beta 90.000000
_cell_angle_gamma 90.000000
_cell_volume 1926.905968
_symmetry_space_group_name_H-M "P C C N"
_symmetry_group_IT_number 56
_symmetry_cell_setting 'orthorhombic'
loop_
_space_group_symop_operation_xyz
x,y,z
1/2-x,1/2-y,z
1/2+x,-y,1/2-z
-x,1/2+y,1/2-z
-x,-y,-z
1/2+x,1/2+y,-z
1/2-x,y,1/2+z
x,1/2-y,1/2+z
loop_
_atom_site_type_symbol
_atom_site_label
_atom_site_fract_x
_atom_site_fract_y
_atom_site_fract_z
Si Si1 0.983562 0.870176 0.272317
Si Si2 0.750000 0.750000 0.377827
Si Si3 0.283514 0.992220 0.326246
Si Si4 0.750000 0.750000 0.110353
Si Si5 0.959309 0.549690 0.425637
Si Si6 0.082892 0.801481 0.127183
O O1 0.876007 0.806454 0.326953
O O2 0.888848 0.978506 0.239771
O O3 0.032713 0.788901 0.207397
O O4 0.135588 0.919787 0.306897
O O5 0.837662 0.653421 0.422843
O O6 0.242783 0.123252 0.352578
O O7 0.383231 0.925308 0.383826
O O8 0.569636 0.739523 0.083660
O O9 0.895435 0.439070 0.383775
O O10 0.000000 0.500000 0.500000
O O11 0.250000 0.750000 0.111479
#
# Coordination Sequence:
#
# PCOD9431335 Si02
#       6
#     8   4   8   4   8   8
#     4  10  21  37  64 101 134 165 214 277 346 396
#     4  12  25  43  68  96 134 173 217 280 340 402
#     4  10  21  36  65  94 137 163 215 270 334 396
#     4   8  19  35  54  90 128 169 205 258 332 384
#     4  10  25  47  62  93 132 176 227 274 326 403
#     4  10  22  37  67  98 134 175 219 276 339 403
#
# _framework density 20.758668
#
# number of rings (size 3 to 8) (size 9 to 14) (size 15 to 20)
#    0.000    2.400    0.000    4.800    8.400    3.200 
#    3.600    1.000    0.000    0.000    0.000    0.000 
#    0.000    0.000    0.000    0.000    0.000    0.000 
#
# Total GULP energy -222917.572973 kJ/mol
# GULP energy per Si atom -5572.939324 kJ/mol
# Density = 2.071142 g / cm^3
# Si number density = 20.758668 Si / 1000 Ang^3
#
#
#
# Elastic Constant Matrix: (Units=GPa)
#
#
# Indices 1 2 3 4 5 6 
#
# 1 185.2975 59.0115 35.6008 0.0000 0.0000 0.0000
# 2 59.0115 68.2278 22.1337 0.0000 0.0000 0.0000
# 3 35.6008 22.1337 65.0430 0.0000 0.0000 0.0000
# 4 0.0000 0.0000 0.0000 6.1402 0.0000 0.0000
# 5 0.0000 0.0000 0.0000 0.0000 -16.6074 0.0000
# 6 0.0000 0.0000 0.0000 0.0000 0.0000 57.3156
#
#
#
# Elastic Compliance Matrix: (Units=1/GPa)
#
#
# Indices 1 2 3 4 5 6 
#
# 1 0.007717 -0.005963 -0.002195 0.000000 0.000000 0.000000
# 2 -0.005963 0.021083 -0.003911 0.000000 0.000000 0.000000
# 3 -0.002195 -0.003911 0.017907 0.000000 0.000000 0.000000
# 4 0.000000 0.000000 0.000000 0.162862 0.000000 0.000000
# 5 0.000000 0.000000 0.000000 0.000000 -0.060214 0.000000
# 6 0.000000 0.000000 0.000000 0.000000 0.000000 0.017447
#
#
# Mechanical properties :
#
#
# Convention : Reuss Voigt Hill
#
# Bulk Modulus (GPa) = 44.30669 61.34005 52.82337
# Shear Modulus (GPa) = 25.19372 22.82450 24.00911
#
# Velocity S-wave (km/s) = 3.48752 3.31949 3.40455
# Velocity P-wave (km/s) = 6.13247 6.65622 6.39971
#
# Compressibility (1/GPa) = 0.02256996
#
# Stress axis : x y z
#
# Youngs Moduli (GPa) = 129.57679 47.43193 55.84539
#
# Poissons Ratio (x) = 0.28283 0.12258
# Poissons Ratio (y) = 0.77265 0.21839
# Poissons Ratio (z) = 0.28441 0.18549
#
# Static dielectric constant tensor:
#      x y z
#    x 1.784550 0.000000 0.000000 
#    y 0.000000 1.741640 0.000000 
#    z 0.000000 0.000000 1.798870 
# 
# From -- ./inp_files/14499.got.cif
#   From: 2010.05.17/outbox.cif.g08.bks.cpg/sg56_8_cif.got.tgz:14499.got - 2010.06.03 13:42:01.
