data_PCOD9431674
_publ_section_title
;
Structure prediction by ZEFSAII (Michael W. Deem and Ramdas Pophale) SiO2 
 PCOD9431674
Probable space group: P C C N
;
_chemical_formula_sum "Si O2"
_cell_formula_units_Z 60
_cell_length_a 17.701245
_cell_length_b 17.169781
_cell_length_c 8.919760
_cell_angle_alpha 90.000000
_cell_angle_beta 90.000000
_cell_angle_gamma 90.000000
_cell_volume 2710.951438
_symmetry_space_group_name_H-M "P C C N"
_symmetry_group_IT_number 56
_symmetry_cell_setting 'orthorhombic'
loop_
_space_group_symop_operation_xyz
x,y,z
1/2-x,1/2-y,z
1/2+x,-y,1/2-z
-x,1/2+y,1/2-z
-x,-y,-z
1/2+x,1/2+y,-z
1/2-x,y,1/2+z
x,1/2-y,1/2+z
loop_
_atom_site_type_symbol
_atom_site_label
_atom_site_fract_x
_atom_site_fract_y
_atom_site_fract_z
Si Si1 0.564864 0.455021 0.213946
Si Si2 0.915536 0.736421 0.981494
Si Si3 0.250000 0.750000 0.985663
Si Si4 0.848526 0.168261 0.763885
Si Si5 0.482285 0.711716 0.752142
Si Si6 0.650617 0.595986 0.333056
Si Si7 0.601055 0.008272 0.369305
Si Si8 0.697006 0.870272 0.492908
O O1 0.564127 0.367063 0.272097
O O2 0.614647 0.511035 0.318155
O O3 0.479410 0.487212 0.202773
O O4 0.591493 0.459863 0.040296
O O5 0.911379 0.659701 0.879829
O O6 0.837859 0.784259 0.970378
O O7 0.982216 0.790599 0.917402
O O8 0.944755 0.714529 0.144871
O O9 0.301579 0.803642 0.879813
O O10 0.197590 0.802313 0.091540
O O11 0.927756 0.214635 0.763094
O O12 0.860259 0.076250 0.774776
O O13 0.717352 0.611553 0.450242
O O14 0.681852 0.613652 0.167453
O O15 0.648860 0.929953 0.391250
#
# Coordination Sequence:
#
# PCOD9431674 Si02
#       8
#     8   8   4   8   8   8   8   8
#     4  10  22  42  65 101 132 174 223 284 333 407
#     4  12  24  43  68 100 134 180 225 285 342 404
#     4  10  24  42  62  96 138 170 228 268 334 400
#     4  11  23  41  67  96 129 181 216 278 330 407
#     4  12  24  42  72 100 133 171 231 282 341 401
#     4  11  26  43  68  97 138 182 227 277 343 409
#     4  10  21  40  69  93 136 176 225 272 341 394
#     4  11  25  43  65  99 135 183 226 278 341 407
#
# _framework density 22.132449999999999
#
# number of rings (size 3 to 8) (size 9 to 14) (size 15 to 20)
#    0.000    1.067    2.667    3.600    3.733    5.867 
#    0.000    1.333    0.000    0.000    0.000    0.000 
#    0.000    0.000    0.000    0.000    0.000    0.000 
#
# Total GULP energy -335660.271622 kJ/mol
# GULP energy per Si atom -5594.337860 kJ/mol
# Density = 2.208208 g / cm^3
# Si number density = 22.132450 Si / 1000 Ang^3
#
#
#
# Elastic Constant Matrix: (Units=GPa)
#
#
# Indices 1 2 3 4 5 6 
#
# 1 62.1735 -5.4159 0.9310 0.0000 0.0000 0.0000
# 2 -5.4159 59.3290 -5.4186 0.0000 0.0000 0.0000
# 3 0.9310 -5.4186 39.7594 0.0000 0.0000 0.0000
# 4 0.0000 0.0000 0.0000 1.6552 0.0000 0.0000
# 5 0.0000 0.0000 0.0000 0.0000 13.0466 0.0000
# 6 0.0000 0.0000 0.0000 0.0000 0.0000 32.7600
#
#
#
# Elastic Compliance Matrix: (Units=1/GPa)
#
#
# Indices 1 2 3 4 5 6 
#
# 1 0.016214 0.001464 -0.000180 0.000000 0.000000 0.000000
# 2 0.001464 0.017200 0.002310 0.000000 0.000000 0.000000
# 3 -0.000180 0.002310 0.025470 0.000000 0.000000 0.000000
# 4 0.000000 0.000000 0.000000 0.604160 0.000000 0.000000
# 5 0.000000 0.000000 0.000000 0.000000 0.076648 0.000000
# 6 0.000000 0.000000 0.000000 0.000000 0.000000 0.030525
#
#
# Mechanical properties :
#
#
# Convention : Reuss Voigt Hill
#
# Bulk Modulus (GPa) = 15.13529 15.71722 15.42626
# Shear Modulus (GPa) = 6.36898 20.90339 13.63619
#
# Velocity S-wave (km/s) = 1.69821 3.07655 2.48486
# Velocity P-wave (km/s) = 3.27087 4.44265 3.90100
#
# Compressibility (1/GPa) = 0.06607073
#
# Stress axis : x y z
#
# Youngs Moduli (GPa) = 61.67426 58.14041 39.26145
#
# Poissons Ratio (x) = -0.08510 0.00708
# Poissons Ratio (y) = -0.09027 -0.09069
# Poissons Ratio (z) = 0.01111 -0.13429
#
# Static dielectric constant tensor:
#      x y z
#    x 1.818170 0.000000 0.000000 
#    y 0.000000 1.801950 0.000000 
#    z 0.000000 0.000000 1.783220 
# 
# From -- ./inp_files/4127.got.cif
#   From: 2010.05.17/outbox.cif.g08.bks.cpg/sg56_3_cif.got.tgz:4127.got - 2010.06.03 13:42:01.
