data_PCOD9431753
_publ_section_title
;
Structure prediction by ZEFSAII (Michael W. Deem and Ramdas Pophale) SiO2 
 PCOD9431753
Probable space group: P C C N
;
_chemical_formula_sum "Si O2"
_cell_formula_units_Z 44
_cell_length_a 10.676203
_cell_length_b 11.504468
_cell_length_c 17.974257
_cell_angle_alpha 90.000000
_cell_angle_beta 90.000000
_cell_angle_gamma 90.000000
_cell_volume 2207.670785
_symmetry_space_group_name_H-M "P C C N"
_symmetry_group_IT_number 56
_symmetry_cell_setting 'orthorhombic'
loop_
_space_group_symop_operation_xyz
x,y,z
1/2-x,1/2-y,z
1/2+x,-y,1/2-z
-x,1/2+y,1/2-z
-x,-y,-z
1/2+x,1/2+y,-z
1/2-x,y,1/2+z
x,1/2-y,1/2+z
loop_
_atom_site_type_symbol
_atom_site_label
_atom_site_fract_x
_atom_site_fract_y
_atom_site_fract_z
Si Si1 0.435140 0.374951 0.011019
Si Si2 0.250000 0.250000 0.108620
Si Si3 0.609051 0.794767 0.655566
Si Si4 0.107090 0.741041 0.873482
Si Si5 0.427625 0.086088 0.196714
Si Si6 0.630003 0.332822 0.291007
O O1 0.402223 0.333541 0.928810
O O2 0.500000 0.500000 0.000000
O O3 0.308434 0.353407 0.058758
O O4 0.528123 0.291951 0.058181
O O5 0.351144 0.192374 0.161846
O O6 0.750000 0.750000 0.670254
O O7 0.570120 0.893738 0.714972
O O8 0.499055 0.702627 0.669507
O O9 0.250000 0.750000 0.897284
O O10 0.102756 0.817343 0.797299
O O11 0.060610 0.613292 0.843902
O O12 0.355662 0.966115 0.185643
O O13 0.750000 0.250000 0.307421
#
# Coordination Sequence:
#
# PCOD9431753 Si02
#       6
#     8   4   8   8   8   8
#     4  11  23  39  62  88 129 169 211 259 320 391
#     4  10  22  42  60  94 122 170 214 252 328 380
#     4  11  23  40  63  98 125 166 219 264 320 385
#     4   9  21  43  60  92 126 171 213 261 332 385
#     4  10  21  41  69  89 129 165 212 276 318 378
#     4  10  23  40  65  99 125 164 224 267 320 388
#
# _framework density 19.930506000000001
#
# number of rings (size 3 to 8) (size 9 to 14) (size 15 to 20)
#    0.000    1.818    1.818    1.091    2.545    6.545 
#    0.000    1.818    0.000    0.000    0.000    0.000 
#    0.000    0.000    0.000    0.000    0.000    0.000 
#
# Total GULP energy -244966.341229 kJ/mol
# GULP energy per Si atom -5567.416846 kJ/mol
# Density = 1.988514 g / cm^3
# Si number density = 19.930506 Si / 1000 Ang^3
#
#
#
# Elastic Constant Matrix: (Units=GPa)
#
#
# Indices 1 2 3 4 5 6 
#
# 1 92.8857 15.0909 24.6599 0.0000 0.0000 0.0000
# 2 15.0909 88.8332 10.5899 0.0000 0.0000 0.0000
# 3 24.6599 10.5899 81.7211 0.0000 0.0000 0.0000
# 4 0.0000 0.0000 0.0000 2.9527 0.0000 0.0000
# 5 0.0000 0.0000 0.0000 0.0000 -218.8736 0.0000
# 6 0.0000 0.0000 0.0000 0.0000 0.0000 26.5170
#
#
#
# Elastic Compliance Matrix: (Units=1/GPa)
#
#
# Indices 1 2 3 4 5 6 
#
# 1 0.011929 -0.001622 -0.003390 0.000000 0.000000 0.000000
# 2 -0.001622 0.011654 -0.001021 0.000000 0.000000 0.000000
# 3 -0.003390 -0.001021 0.013392 0.000000 0.000000 0.000000
# 4 0.000000 0.000000 0.000000 0.338675 0.000000 0.000000
# 5 0.000000 0.000000 0.000000 0.000000 -0.004569 0.000000
# 6 0.000000 0.000000 0.000000 0.000000 0.000000 0.037712
#
#
# Mechanical properties :
#
#
# Convention : Reuss Voigt Hill
#
# Bulk Modulus (GPa) = 40.14410 40.45792 40.30101
# Shear Modulus (GPa) = 11.65061 -23.67416 -6.01178
#
# Velocity S-wave (km/s) = 2.42039 -3.45024 -1.73865
# Velocity P-wave (km/s) = 5.29120 2.11456 4.02916
#
# Compressibility (1/GPa) = 0.02491026
#
# Stress axis : x y z
#
# Youngs Moduli (GPa) = 83.82663 85.80483 74.67255
#
# Poissons Ratio (x) = 0.13922 0.25310
# Poissons Ratio (y) = 0.13601 0.07621
# Poissons Ratio (z) = 0.28413 0.08758
#
# Static dielectric constant tensor:
#      x y z
#    x 1.840070 0.000000 0.000000 
#    y 0.000000 1.817550 0.000000 
#    z 0.000000 0.000000 1.665860 
# 
# From -- ./inp_files/15515.got.cif
#   From: 2010.05.17/outbox.cif.g08.bks.cpg/sg56_8_cif.got.tgz:15515.got - 2010.06.03 13:42:01.
