data_PCOD9431490
_publ_section_title
;
Structure prediction by ZEFSAII (Michael W. Deem and Ramdas Pophale) SiO2 
 PCOD9431490
Probable space group: P C C N
;
_chemical_formula_sum "Si O2"
_cell_formula_units_Z 60
_cell_length_a 12.905448
_cell_length_b 18.809221
_cell_length_c 12.944754
_cell_angle_alpha 90.000000
_cell_angle_beta 90.000000
_cell_angle_gamma 90.000000
_cell_volume 3142.228013
_symmetry_space_group_name_H-M "P C C N"
_symmetry_group_IT_number 56
_symmetry_cell_setting 'orthorhombic'
loop_
_space_group_symop_operation_xyz
x,y,z
1/2-x,1/2-y,z
1/2+x,-y,1/2-z
-x,1/2+y,1/2-z
-x,-y,-z
1/2+x,1/2+y,-z
1/2-x,y,1/2+z
x,1/2-y,1/2+z
loop_
_atom_site_type_symbol
_atom_site_label
_atom_site_fract_x
_atom_site_fract_y
_atom_site_fract_z
Si Si1 0.405179 0.804706 0.250770
Si Si2 0.734191 0.138332 0.088442
Si Si3 0.868314 0.569105 0.953989
Si Si4 0.503823 0.052161 0.843702
Si Si5 0.980552 0.449406 0.343751
Si Si6 0.250000 0.750000 0.589941
Si Si7 0.992818 0.168290 0.678899
Si Si8 0.329166 0.002346 0.483335
O O1 0.315334 0.829183 0.329745
O O2 0.452394 0.874698 0.200402
O O3 0.348735 0.758388 0.163146
O O4 0.487938 0.752775 0.304790
O O5 0.616318 0.149459 0.123416
O O6 0.758338 0.055799 0.073635
O O7 0.752283 0.181599 0.983352
O O8 0.907945 0.497968 0.894740
O O9 0.914863 0.634855 0.889112
O O10 0.745796 0.561808 0.968807
O O11 0.922180 0.567650 0.066102
O O12 0.462004 0.005967 0.748194
O O13 0.990419 0.374138 0.287100
O O14 0.890644 0.460243 0.427237
O O15 0.086601 0.467663 0.403746
#
# Coordination Sequence:
#
# PCOD9431490 Si02
#       8
#     8   8   8   8   8   4   8   8
#     4  12  22  36  59  91 129 166 195 256 319 380
#     4  12  22  36  59  93 128 156 203 254 323 381
#     4  10  22  39  62  86 126 162 210 255 307 371
#     4  10  21  39  59  90 118 164 203 252 307 371
#     4  10  23  38  61  87 119 156 214 253 312 369
#     4  12  20  34  54  88 128 162 188 246 324 384
#     4  11  22  39  56  93 125 164 199 246 316 387
#     4  11  22  39  60  90 115 162 207 266 303 362
#
# _framework density 19.094730999999999
#
# number of rings (size 3 to 8) (size 9 to 14) (size 15 to 20)
#    0.000    1.067    4.000    4.800    1.867    2.133 
#    0.000    0.000    0.000    4.800    0.000    0.000 
#    0.000    0.000    0.000    0.000    0.000    0.000 
#
# Total GULP energy -335284.711795 kJ/mol
# GULP energy per Si atom -5588.078530 kJ/mol
# Density = 1.905127 g / cm^3
# Si number density = 19.094731 Si / 1000 Ang^3
#
#
#
# Elastic Constant Matrix: (Units=GPa)
#
#
# Indices 1 2 3 4 5 6 
#
# 1 35.9086 26.8574 16.6733 0.0000 0.0000 0.0000
# 2 26.8574 79.8906 21.2539 0.0000 0.0000 0.0000
# 3 16.6733 21.2539 82.6972 0.0000 0.0000 0.0000
# 4 0.0000 0.0000 0.0000 26.4781 0.0000 0.0000
# 5 0.0000 0.0000 0.0000 0.0000 9.6376 0.0000
# 6 0.0000 0.0000 0.0000 0.0000 0.0000 27.5103
#
#
#
# Elastic Compliance Matrix: (Units=1/GPa)
#
#
# Indices 1 2 3 4 5 6 
#
# 1 0.038909 -0.011800 -0.004812 0.000000 0.000000 0.000000
# 2 -0.011800 0.017014 -0.001994 0.000000 0.000000 0.000000
# 3 -0.004812 -0.001994 0.013575 0.000000 0.000000 0.000000
# 4 0.000000 0.000000 0.000000 0.037767 0.000000 0.000000
# 5 0.000000 0.000000 0.000000 0.000000 0.103760 0.000000
# 6 0.000000 0.000000 0.000000 0.000000 0.000000 0.036350
#
#
# Mechanical properties :
#
#
# Convention : Reuss Voigt Hill
#
# Bulk Modulus (GPa) = 30.97280 36.45171 33.71225
# Shear Modulus (GPa) = 16.92914 21.63932 19.28423
#
# Velocity S-wave (km/s) = 2.98079 3.37005 3.18138
# Velocity P-wave (km/s) = 5.30119 5.85443 5.58466
#
# Compressibility (1/GPa) = 0.03228640
#
# Stress axis : x y z
#
# Youngs Moduli (GPa) = 25.70129 58.77360 73.66534
#
# Poissons Ratio (x) = 0.69353 0.35448
# Poissons Ratio (y) = 0.30328 0.14687
# Poissons Ratio (z) = 0.12367 0.11718
#
# Static dielectric constant tensor:
#      x y z
#    x 1.656850 0.000000 0.000000 
#    y 0.000000 1.678140 0.000000 
#    z 0.000000 0.000000 1.679150 
# 
# From -- ./inp_files/7317.got.cif
#   From: 2010.05.17/outbox.cif.g08.bks.cpg/sg56_4_cif.got.tgz:7317.got - 2010.06.03 13:42:01.
