data_PCOD9431775
_publ_section_title
;
Structure prediction by ZEFSAII (Michael W. Deem and Ramdas Pophale) SiO2 
 PCOD9431775
Probable space group: P C C N
;
_chemical_formula_sum "Si O2"
_cell_formula_units_Z 40
_cell_length_a 4.843705
_cell_length_b 25.301735
_cell_length_c 13.422632
_cell_angle_alpha 90.000000
_cell_angle_beta 90.000000
_cell_angle_gamma 90.000000
_cell_volume 1644.999126
_symmetry_space_group_name_H-M "P C C N"
_symmetry_group_IT_number 56
_symmetry_cell_setting 'orthorhombic'
loop_
_space_group_symop_operation_xyz
x,y,z
1/2-x,1/2-y,z
1/2+x,-y,1/2-z
-x,1/2+y,1/2-z
-x,-y,-z
1/2+x,1/2+y,-z
1/2-x,y,1/2+z
x,1/2-y,1/2+z
loop_
_atom_site_type_symbol
_atom_site_label
_atom_site_fract_x
_atom_site_fract_y
_atom_site_fract_z
Si Si1 0.562489 0.401068 0.351645
Si Si2 0.800285 0.581341 0.949068
Si Si3 0.153035 0.632741 0.356890
Si Si4 0.562118 0.010668 0.317844
Si Si5 0.519170 0.286384 0.301767
O O1 0.412381 0.429426 0.441459
O O2 0.502585 0.400522 0.232864
O O3 0.862976 0.429002 0.347533
O O4 0.506482 0.338906 0.369525
O O5 0.553960 0.624275 0.947292
O O6 0.671612 0.527712 0.904329
O O7 0.054198 0.607597 0.886194
O O8 0.141522 0.689561 0.303090
O O9 0.254998 0.001725 0.279006
O O10 0.250000 0.250000 0.288375
O O11 0.750000 0.250000 0.348262
#
# Coordination Sequence:
#
# PCOD9431775 Si02
#       5
#     8   8   8   8   8
#     4  10  25  40  68  90 130 163 208 260 307 367
#     4  12  22  43  64  97 125 165 205 249 317 373
#     4  10  24  41  65  89 127 159 207 257 300 372
#     4  12  21  40  63  91 129 165 201 250 311 371
#     4  10  21  42  64  87 123 164 203 261 313 351
#
# _framework density 24.316123999999999
#
# number of rings (size 3 to 8) (size 9 to 14) (size 15 to 20)
#    1.200    0.000    4.000    1.800    0.000    6.400 
#    0.000   10.000    0.000    0.000    0.000    0.000 
#    0.000    0.000    0.000    0.000    0.000    0.000 
#
# Total GULP energy -222844.169979 kJ/mol
# GULP energy per Si atom -5571.104249 kJ/mol
# Density = 2.426078 g / cm^3
# Si number density = 24.316124 Si / 1000 Ang^3
#
#
#
# Elastic Constant Matrix: (Units=GPa)
#
#
# Indices 1 2 3 4 5 6 
#
# 1 97.2308 21.6768 4.1009 0.0000 0.0000 0.0000
# 2 21.6768 120.0963 19.8976 0.0000 0.0000 0.0000
# 3 4.1009 19.8976 76.6260 0.0000 0.0000 0.0000
# 4 0.0000 0.0000 0.0000 14.0925 0.0000 0.0000
# 5 0.0000 0.0000 0.0000 0.0000 24.3109 0.0000
# 6 0.0000 0.0000 0.0000 0.0000 0.0000 32.4764
#
#
#
# Elastic Compliance Matrix: (Units=1/GPa)
#
#
# Indices 1 2 3 4 5 6 
#
# 1 0.010716 -0.001922 -0.000074 0.000000 0.000000 0.000000
# 2 -0.001922 0.009046 -0.002246 0.000000 0.000000 0.000000
# 3 -0.000074 -0.002246 0.013638 0.000000 0.000000 0.000000
# 4 0.000000 0.000000 0.000000 0.070960 0.000000 0.000000
# 5 0.000000 0.000000 0.000000 0.000000 0.041134 0.000000
# 6 0.000000 0.000000 0.000000 0.000000 0.000000 0.030792
#
#
# Mechanical properties :
#
#
# Convention : Reuss Voigt Hill
#
# Bulk Modulus (GPa) = 40.13670 42.81152 41.47411
# Shear Modulus (GPa) = 25.89674 30.72782 28.31228
#
# Velocity S-wave (km/s) = 3.26698 3.55869 3.41595
# Velocity P-wave (km/s) = 5.54733 5.87623 5.71415
#
# Compressibility (1/GPa) = 0.02491486
#
# Stress axis : x y z
#
# Youngs Moduli (GPa) = 93.31468 110.55013 73.32663
#
# Poissons Ratio (x) = 0.21247 0.00546
# Poissons Ratio (y) = 0.17934 0.16469
# Poissons Ratio (z) = 0.00695 0.24830
#
# Static dielectric constant tensor:
#      x y z
#    x 1.971130 0.000000 0.000000 
#    y 0.000000 2.803940 0.000000 
#    z 0.000000 0.000000 1.985470 
# 
# From -- ./inp_files/9743.got.cif
#   From: 2010.05.17/outbox.cif.g08.bks.cpg/sg56_5_cif.got.tgz:9743.got - 2010.06.03 13:42:01.
