data_PCOD9431020
_publ_section_title
;
Structure prediction by ZEFSAII (Michael W. Deem and Ramdas Pophale) SiO2 
 PCOD9431020
Probable space group: P C C N
;
_chemical_formula_sum "Si O2"
_cell_formula_units_Z 48
_cell_length_a 26.303473
_cell_length_b 8.598741
_cell_length_c 9.207778
_cell_angle_alpha 90.000000
_cell_angle_beta 90.000000
_cell_angle_gamma 90.000000
_cell_volume 2082.585319
_symmetry_space_group_name_H-M "P C C N"
_symmetry_group_IT_number 56
_symmetry_cell_setting 'orthorhombic'
loop_
_space_group_symop_operation_xyz
x,y,z
1/2-x,1/2-y,z
1/2+x,-y,1/2-z
-x,1/2+y,1/2-z
-x,-y,-z
1/2+x,1/2+y,-z
1/2-x,y,1/2+z
x,1/2-y,1/2+z
loop_
_atom_site_type_symbol
_atom_site_label
_atom_site_fract_x
_atom_site_fract_y
_atom_site_fract_z
Si Si1 0.436475 0.502409 0.219415
Si Si2 0.279186 0.450548 0.919323
Si Si3 0.628509 0.147019 0.507903
Si Si4 0.966191 0.350985 0.722096
Si Si5 0.193032 0.143846 0.596649
Si Si6 0.907093 0.004632 0.459361
O O1 0.386566 0.538270 0.127263
O O2 0.462464 0.672462 0.231868
O O3 0.479322 0.390079 0.155182
O O4 0.421530 0.450701 0.380356
O O5 0.283364 0.390436 0.754543
O O6 0.316721 0.596512 0.934801
O O7 0.299163 0.313382 0.026530
O O8 0.221947 0.468033 0.979497
O O9 0.582412 0.118376 0.620662
O O10 0.621798 0.327826 0.468962
O O11 0.955967 0.458295 0.862294
O O12 0.133436 0.110795 0.608895
#
# Coordination Sequence:
#
# PCOD9431020 Si02
#       6
#     8   8   8   8   8   8
#     4  10  22  34  63  84 125 157 202 243 299 354
#     4  11  24  42  64  91 123 155 200 249 302 362
#     4  10  22  40  61  89 123 160 201 250 298 353
#     4  10  20  40  55  90 119 161 200 251 295 352
#     4  11  24  42  64  91 123 155 200 249 302 362
#     4  10  22  40  61  89 123 160 201 250 298 353
#
# _framework density 23.048276000000001
#
# number of rings (size 3 to 8) (size 9 to 14) (size 15 to 20)
#    0.000    1.667    1.667    3.000    4.667    3.333 
#    0.000    1.667    0.000    0.000    0.000    0.000 
#    0.000    0.000    0.000    0.000    0.000    0.000 
#
# Total GULP energy -268180.790065 kJ/mol
# GULP energy per Si atom -5587.099793 kJ/mol
# Density = 2.299582 g / cm^3
# Si number density = 23.048276 Si / 1000 Ang^3
#
#
#
# Elastic Constant Matrix: (Units=GPa)
#
#
# Indices 1 2 3 4 5 6 
#
# 1 57.6885 12.7779 -13.1886 0.0000 0.0000 0.0000
# 2 12.7779 16.7147 -2.7562 0.0000 0.0000 0.0000
# 3 -13.1886 -2.7562 82.2197 0.0000 0.0000 0.0000
# 4 0.0000 0.0000 0.0000 13.9824 0.0000 0.0000
# 5 0.0000 0.0000 0.0000 0.0000 27.5902 0.0000
# 6 0.0000 0.0000 0.0000 0.0000 0.0000 44.7851
#
#
#
# Elastic Compliance Matrix: (Units=1/GPa)
#
#
# Indices 1 2 3 4 5 6 
#
# 1 0.021543 -0.015988 0.002920 0.000000 0.000000 0.000000
# 2 -0.015988 0.072025 -0.000150 0.000000 0.000000 0.000000
# 3 0.002920 -0.000150 0.012626 0.000000 0.000000 0.000000
# 4 0.000000 0.000000 0.000000 0.071518 0.000000 0.000000
# 5 0.000000 0.000000 0.000000 0.000000 0.036245 0.000000
# 6 0.000000 0.000000 0.000000 0.000000 0.000000 0.022329
#
#
# Mechanical properties :
#
#
# Convention : Reuss Voigt Hill
#
# Bulk Modulus (GPa) = 12.53793 16.69877 14.61835
# Shear Modulus (GPa) = 17.28262 27.92421 22.60342
#
# Velocity S-wave (km/s) = 2.74130 3.48451 3.13501
# Velocity P-wave (km/s) = 3.93336 4.84252 4.41142
#
# Compressibility (1/GPa) = 0.07975801
#
# Stress axis : x y z
#
# Youngs Moduli (GPa) = 46.41829 13.88408 79.20257
#
# Poissons Ratio (x) = 0.22197 -0.23125
# Poissons Ratio (y) = 0.74212 0.01188
# Poissons Ratio (z) = -0.13553 0.00208
#
# Static dielectric constant tensor:
#      x y z
#    x 1.855220 0.000000 0.000000 
#    y 0.000000 1.881400 0.000000 
#    z 0.000000 0.000000 1.904090 
# 
# From -- ./inp_files/5135.got.cif
#   From: 2010.05.17/outbox.cif.g08.bks.cpg/sg56_3_cif.got.tgz:5135.got - 2010.06.03 13:42:01.
