data_PCOD9431248
_publ_section_title
;
Structure prediction by ZEFSAII (Michael W. Deem and Ramdas Pophale) SiO2 
 PCOD9431248
Probable space group: P C C N
;
_chemical_formula_sum "Si O2"
_cell_formula_units_Z 56
_cell_length_a 12.408258
_cell_length_b 24.256629
_cell_length_c 8.102390
_cell_angle_alpha 90.000000
_cell_angle_beta 90.000000
_cell_angle_gamma 90.000000
_cell_volume 2438.677686
_symmetry_space_group_name_H-M "P C C N"
_symmetry_group_IT_number 56
_symmetry_cell_setting 'orthorhombic'
loop_
_space_group_symop_operation_xyz
x,y,z
1/2-x,1/2-y,z
1/2+x,-y,1/2-z
-x,1/2+y,1/2-z
-x,-y,-z
1/2+x,1/2+y,-z
1/2-x,y,1/2+z
x,1/2-y,1/2+z
loop_
_atom_site_type_symbol
_atom_site_label
_atom_site_fract_x
_atom_site_fract_y
_atom_site_fract_z
Si Si1 0.294402 0.691366 0.611060
Si Si2 0.981117 0.974736 0.318743
Si Si3 0.704931 0.909776 0.971001
Si Si4 0.011452 0.306209 0.722090
Si Si5 0.902570 0.803083 0.406000
Si Si6 0.898255 0.363601 0.204997
Si Si7 0.418085 0.076058 0.675931
O O1 0.250000 0.750000 0.549876
O O2 0.384183 0.705642 0.751712
O O3 0.352939 0.654499 0.473941
O O4 0.193446 0.656631 0.673833
O O5 0.069165 0.927155 0.286412
O O6 0.867176 0.944752 0.342410
O O7 0.001039 0.025284 0.196094
O O8 0.000000 0.000000 0.500000
O O9 0.697445 0.845508 0.910357
O O10 0.826292 0.930404 0.960475
O O11 0.647878 0.916942 0.149290
O O12 0.087054 0.261236 0.633809
O O13 0.021492 0.366665 0.646301
O O14 0.055573 0.307634 0.907877
O O15 0.990246 0.829761 0.281965
#
# Coordination Sequence:
#
# PCOD9431248 Si02
#       7
#     8   8   8   8   8   8   8
#     4  11  20  33  54  83 118 145 185 229 282 340
#     4   9  19  39  60  78 112 149 188 227 282 338
#     4   9  20  38  59  77 109 143 184 226 281 326
#     4  10  21  34  55  79 113 146 184 224 287 327
#     4   9  19  36  52  77 108 146 181 227 276 340
#     4  10  21  33  54  84 111 152 182 228 285 334
#     4  10  21  38  59  83 106 148 185 234 272 334
#
# _framework density 22.963263999999999
#
# number of rings (size 3 to 8) (size 9 to 14) (size 15 to 20)
#    0.000    2.286    1.429    3.000    2.000    5.143 
#    0.000    5.000    0.000    0.000    0.000    0.000 
#    0.000    0.000    0.000    0.000    0.000    0.000 
#
# Total GULP energy -312609.490052 kJ/mol
# GULP energy per Si atom -5582.312322 kJ/mol
# Density = 2.291100 g / cm^3
# Si number density = 22.963264 Si / 1000 Ang^3
#
#
#
# Elastic Constant Matrix: (Units=GPa)
#
#
# Indices 1 2 3 4 5 6 
#
# 1 20.7836 -0.0301 -2.3261 0.0000 0.0000 0.0000
# 2 -0.0301 140.2866 4.9910 0.0000 0.0000 0.0000
# 3 -2.3261 4.9910 37.5621 0.0000 0.0000 0.0000
# 4 0.0000 0.0000 0.0000 22.3365 0.0000 0.0000
# 5 0.0000 0.0000 0.0000 0.0000 24.6322 0.0000
# 6 0.0000 0.0000 0.0000 0.0000 0.0000 28.7384
#
#
#
# Elastic Compliance Matrix: (Units=1/GPa)
#
#
# Indices 1 2 3 4 5 6 
#
# 1 0.048452 -0.000097 0.003013 0.000000 0.000000 0.000000
# 2 -0.000097 0.007162 -0.000958 0.000000 0.000000 0.000000
# 3 0.003013 -0.000958 0.026936 0.000000 0.000000 0.000000
# 4 0.000000 0.000000 0.000000 0.044770 0.000000 0.000000
# 5 0.000000 0.000000 0.000000 0.000000 0.040597 0.000000
# 6 0.000000 0.000000 0.000000 0.000000 0.000000 0.034797
#
#
# Mechanical properties :
#
#
# Convention : Reuss Voigt Hill
#
# Bulk Modulus (GPa) = 11.56490 22.65576 17.11033
# Shear Modulus (GPa) = 21.96651 28.20794 25.08723
#
# Velocity S-wave (km/s) = 3.09624 3.50865 3.30888
# Velocity P-wave (km/s) = 4.22250 5.12851 4.69740
#
# Compressibility (1/GPa) = 0.08646850
#
# Stress axis : x y z
#
# Youngs Moduli (GPa) = 20.63901 139.61961 37.12445
#
# Poissons Ratio (x) = 0.01352 -0.11187
# Poissons Ratio (y) = 0.00200 0.03555
# Poissons Ratio (z) = -0.06219 0.13371
#
# Static dielectric constant tensor:
#      x y z
#    x 1.827070 0.000000 0.000000 
#    y 0.000000 1.866310 0.000000 
#    z 0.000000 0.000000 1.912760 
# 
# From -- ./inp_files/3578.got.cif
#   From: 2010.05.17/outbox.cif.g08.bks.cpg/sg56_2_cif.got.tgz:3578.got - 2010.06.03 13:42:01.
