data_PCOD9431024
_publ_section_title
;
Structure prediction by ZEFSAII (Michael W. Deem and Ramdas Pophale) SiO2 
 PCOD9431024
Probable space group: P C C N
;
_chemical_formula_sum "Si O2"
_cell_formula_units_Z 60
_cell_length_a 14.294851
_cell_length_b 24.140223
_cell_length_c 9.490055
_cell_angle_alpha 90.000000
_cell_angle_beta 90.000000
_cell_angle_gamma 90.000000
_cell_volume 3274.836634
_symmetry_space_group_name_H-M "P C C N"
_symmetry_group_IT_number 56
_symmetry_cell_setting 'orthorhombic'
loop_
_space_group_symop_operation_xyz
x,y,z
1/2-x,1/2-y,z
1/2+x,-y,1/2-z
-x,1/2+y,1/2-z
-x,-y,-z
1/2+x,1/2+y,-z
1/2-x,y,1/2+z
x,1/2-y,1/2+z
loop_
_atom_site_type_symbol
_atom_site_label
_atom_site_fract_x
_atom_site_fract_y
_atom_site_fract_z
Si Si1 0.240427 0.421154 0.657804
Si Si2 0.533973 0.456802 0.119512
Si Si3 0.736005 0.996921 0.591399
Si Si4 0.750000 0.750000 0.683273
Si Si5 0.116022 0.225555 0.565804
Si Si6 0.943464 0.479799 0.135340
Si Si7 0.061372 0.374388 0.196028
Si Si8 0.927890 0.647109 0.470752
O O1 0.247303 0.440729 0.818732
O O2 0.221640 0.476555 0.567660
O O3 0.343919 0.399033 0.628183
O O4 0.162958 0.377562 0.609524
O O5 0.643152 0.471576 0.143116
O O6 0.469382 0.473407 0.250749
O O7 0.511705 0.393529 0.078338
O O8 0.500000 0.500000 0.000000
O O9 0.834227 0.027318 0.605593
O O10 0.682779 0.779946 0.795785
O O11 0.819262 0.781471 0.573774
O O12 0.040192 0.178778 0.598962
O O13 0.073557 0.287323 0.559521
O O14 0.985378 0.422284 0.188902
O O15 0.000000 0.500000 0.000000
O O16 0.077344 0.360790 0.360687
#
# Coordination Sequence:
#
# PCOD9431024 Si02
#       8
#     8   8   8   4   8   8   8   8
#     4  12  20  35  60  86 124 162 192 245 301 365
#     4  12  21  41  62  88 121 167 207 241 310 377
#     4  12  22  37  60  94 124 158 203 247 306 369
#     4  10  20  40  56  84 128 156 210 248 304 368
#     4  11  24  38  57  87 123 168 209 252 303 370
#     4  12  23  39  60  94 125 160 204 260 311 360
#     4  12  24  40  59  88 128 164 208 249 307 368
#     4  12  24  39  62  86 123 172 205 247 301 378
#
# _framework density 18.321524
#
# number of rings (size 3 to 8) (size 9 to 14) (size 15 to 20)
#    0.000    0.267    9.333    1.600    0.000    2.133 
#    0.000    0.000    0.000    0.800    0.000    1.867 
#    0.000    0.000    0.000    0.000    0.000    0.000 
#
# Total GULP energy -334809.882846 kJ/mol
# GULP energy per Si atom -5580.164714 kJ/mol
# Density = 1.827982 g / cm^3
# Si number density = 18.321524 Si / 1000 Ang^3
#
#
#
# Elastic Constant Matrix: (Units=GPa)
#
#
# Indices 1 2 3 4 5 6 
#
# 1 99.5864 29.2067 6.3564 0.0000 0.0000 0.0000
# 2 29.2067 94.7293 4.3722 0.0000 0.0000 0.0000
# 3 6.3564 4.3722 85.0899 0.0000 0.0000 0.0000
# 4 0.0000 0.0000 0.0000 24.9055 0.0000 0.0000
# 5 0.0000 0.0000 0.0000 0.0000 20.6039 0.0000
# 6 0.0000 0.0000 0.0000 0.0000 0.0000 13.2793
#
#
#
# Elastic Compliance Matrix: (Units=1/GPa)
#
#
# Indices 1 2 3 4 5 6 
#
# 1 0.011076 -0.003385 -0.000653 0.000000 0.000000 0.000000
# 2 -0.003385 0.011616 -0.000344 0.000000 0.000000 0.000000
# 3 -0.000653 -0.000344 0.011819 0.000000 0.000000 0.000000
# 4 0.000000 0.000000 0.000000 0.040152 0.000000 0.000000
# 5 0.000000 0.000000 0.000000 0.000000 0.048535 0.000000
# 6 0.000000 0.000000 0.000000 0.000000 0.000000 0.075305
#
#
# Mechanical properties :
#
#
# Convention : Reuss Voigt Hill
#
# Bulk Modulus (GPa) = 38.84086 39.91957 39.38022
# Shear Modulus (GPa) = 23.16440 27.72242 25.44341
#
# Velocity S-wave (km/s) = 3.55960 3.89409 3.73059
# Velocity P-wave (km/s) = 6.17575 6.48492 6.33222
#
# Compressibility (1/GPa) = 0.02574608
#
# Stress axis : x y z
#
# Youngs Moduli (GPa) = 90.28595 86.08931 84.61121
#
# Poissons Ratio (x) = 0.29139 0.05529
# Poissons Ratio (y) = 0.30559 0.02911
# Poissons Ratio (z) = 0.05900 0.02962
#
# Static dielectric constant tensor:
#      x y z
#    x 1.645120 0.000000 0.000000 
#    y 0.000000 1.699000 0.000000 
#    z 0.000000 0.000000 1.660030 
# 
# From -- ./inp_files/3687.got.cif
#   From: 2010.05.17/outbox.cif.g08.bks.cpg/sg56_2_cif.got.tgz:3687.got - 2010.06.03 13:42:01.
