data_PCOD9431412
_publ_section_title
;
Structure prediction by ZEFSAII (Michael W. Deem and Ramdas Pophale) SiO2 
 PCOD9431412
Probable space group: P C C N
;
_chemical_formula_sum "Si O2"
_cell_formula_units_Z 40
_cell_length_a 5.215291
_cell_length_b 12.593863
_cell_length_c 28.777625
_cell_angle_alpha 90.000000
_cell_angle_beta 90.000000
_cell_angle_gamma 90.000000
_cell_volume 1890.133414
_symmetry_space_group_name_H-M "P C C N"
_symmetry_group_IT_number 56
_symmetry_cell_setting 'orthorhombic'
loop_
_space_group_symop_operation_xyz
x,y,z
1/2-x,1/2-y,z
1/2+x,-y,1/2-z
-x,1/2+y,1/2-z
-x,-y,-z
1/2+x,1/2+y,-z
1/2-x,y,1/2+z
x,1/2-y,1/2+z
loop_
_atom_site_type_symbol
_atom_site_label
_atom_site_fract_x
_atom_site_fract_y
_atom_site_fract_z
Si Si1 0.621309 0.472415 0.776887
Si Si2 0.250000 0.750000 0.250394
Si Si3 0.072392 0.947777 0.548980
Si Si4 0.598693 0.429902 0.074544
Si Si5 0.250000 0.750000 0.000652
Si Si6 0.069827 0.159721 0.164902
O O1 0.326788 0.493587 0.762670
O O2 0.657349 0.347285 0.780491
O O3 0.691643 0.547827 0.819687
O O4 0.461269 0.791759 0.287136
O O5 0.089380 0.824081 0.535930
O O6 0.335033 0.004135 0.566293
O O7 0.000000 0.000000 0.500000
O O8 0.828720 0.985658 0.577806
O O9 0.622971 0.339408 0.033717
O O10 0.615887 0.368892 0.123363
O O11 0.250000 0.250000 0.145086
#
# Coordination Sequence:
#
# PCOD9431412 Si02
#       6
#     8   4   8   8   4   8
#     4  10  21  38  60  91 125 159 202 245 300 374
#     4  10  21  40  65  90 122 168 208 242 311 370
#     4  10  23  40  59  92 122 162 206 253 310 376
#     4  11  25  37  62  95 124 152 211 264 307 362
#     4  10  21  42  67  84 126 170 208 252 315 378
#     4  11  23  38  63  95 126 161 205 269 313 359
#
# _framework density 21.162526
#
# number of rings (size 3 to 8) (size 9 to 14) (size 15 to 20)
#    0.000    1.600    2.000    3.000    8.400    4.000 
#    0.000    1.000    0.000    9.600    0.000    0.000 
#    0.000    0.000    0.000    0.000    0.000    0.000 
#
# Total GULP energy -222750.239948 kJ/mol
# GULP energy per Si atom -5568.755999 kJ/mol
# Density = 2.111436 g / cm^3
# Si number density = 21.162526 Si / 1000 Ang^3
#
#
#
# Elastic Constant Matrix: (Units=GPa)
#
#
# Indices 1 2 3 4 5 6 
#
# 1 97.3357 41.2833 12.1176 0.0000 0.0000 0.0000
# 2 41.2833 168.1465 42.2184 0.0000 0.0000 0.0000
# 3 12.1176 42.2184 40.4018 0.0000 0.0000 0.0000
# 4 0.0000 0.0000 0.0000 -111.8671 0.0000 0.0000
# 5 0.0000 0.0000 0.0000 0.0000 27.8794 0.0000
# 6 0.0000 0.0000 0.0000 0.0000 0.0000 38.2512
#
#
#
# Elastic Compliance Matrix: (Units=1/GPa)
#
#
# Indices 1 2 3 4 5 6 
#
# 1 0.011481 -0.002649 -0.000675 0.000000 0.000000 0.000000
# 2 -0.002649 0.008674 -0.008269 0.000000 0.000000 0.000000
# 3 -0.000675 -0.008269 0.033595 0.000000 0.000000 0.000000
# 4 0.000000 0.000000 0.000000 -0.008939 0.000000 0.000000
# 5 0.000000 0.000000 0.000000 0.000000 0.035869 0.000000
# 6 0.000000 0.000000 0.000000 0.000000 0.000000 0.026143
#
#
# Mechanical properties :
#
#
# Convention : Reuss Voigt Hill
#
# Bulk Modulus (GPa) = 32.71953 55.23587 43.97770
# Shear Modulus (GPa) = 35.66379 4.87035 20.26707
#
# Velocity S-wave (km/s) = 4.10961 1.51868 3.09801
# Velocity P-wave (km/s) = 6.16548 5.40672 5.79853
#
# Compressibility (1/GPa) = 0.03056278
#
# Stress axis : x y z
#
# Youngs Moduli (GPa) = 87.09683 115.28755 29.76634
#
# Poissons Ratio (x) = 0.30545 0.02009
# Poissons Ratio (y) = 0.23076 0.24615
# Poissons Ratio (z) = 0.05879 0.95335
#
# Static dielectric constant tensor:
#      x y z
#    x 1.870980 0.000000 0.000000 
#    y 0.000000 1.833240 0.000000 
#    z 0.000000 0.000000 1.788310 
# 
# From -- ./inp_files/21572.got.cif
#   From: 2010.05.17/outbox.cif.g08.bks.cpg/sg56_11_cif.got.tgz:21572.got - 2010.06.03 13:42:01.
