data_PCOD9431415
_publ_section_title
;
Structure prediction by ZEFSAII (Michael W. Deem and Ramdas Pophale) SiO2 
 PCOD9431415
Probable space group: P C C N
;
_chemical_formula_sum "Si O2"
_cell_formula_units_Z 48
_cell_length_a 22.510302
_cell_length_b 10.072411
_cell_length_c 9.231131
_cell_angle_alpha 90.000000
_cell_angle_beta 90.000000
_cell_angle_gamma 90.000000
_cell_volume 2093.002149
_symmetry_space_group_name_H-M "P C C N"
_symmetry_group_IT_number 56
_symmetry_cell_setting 'orthorhombic'
loop_
_space_group_symop_operation_xyz
x,y,z
1/2-x,1/2-y,z
1/2+x,-y,1/2-z
-x,1/2+y,1/2-z
-x,-y,-z
1/2+x,1/2+y,-z
1/2-x,y,1/2+z
x,1/2-y,1/2+z
loop_
_atom_site_type_symbol
_atom_site_label
_atom_site_fract_x
_atom_site_fract_y
_atom_site_fract_z
Si Si1 0.167145 0.490170 0.750000
Si Si2 0.938703 0.250000 1.000000
Si Si3 0.671618 0.828290 0.750000
Si Si4 0.414691 0.930139 0.250000
Si Si5 0.969424 0.073597 0.750000
Si Si6 0.250000 0.044663 0.500000
O O1 0.161881 0.328688 0.750000
O O2 0.100340 0.540791 0.750000
O O3 0.205194 0.529959 0.608674
O O4 0.205193 0.529959 0.891327
O O5 0.901358 0.155921 0.107570
O O6 0.978145 0.340857 0.105208
O O7 0.901358 0.344079 0.892430
O O8 0.978145 0.159144 0.894792
O O9 0.709357 0.870529 0.609431
O O10 0.615219 0.926190 0.750000
O O11 0.709357 0.870529 0.890569
O O12 0.485628 0.952714 0.250000
#
# Coordination Sequence:
#
# PCOD9431415 Si02
#       6
#     8   8   8   8   8   8
#     4  11  21  37  66  95 128 159 210 261 327 374
#     4  10  24  42  62  85 136 159 214 258 308 366
#     4  11  21  37  66  95 128 159 210 261 327 374
#     4  11  24  43  65  94 126 175 209 263 316 378
#     4  11  24  43  65  94 126 175 209 263 316 378
#     4  10  21  38  60  97 128 161 202 272 321 370
#
# _framework density 22.933565000000002
#
# number of rings (size 3 to 8) (size 9 to 14) (size 15 to 20)
#    0.000    1.333    0.000    7.000    4.667    0.000 
#    0.000    0.000    0.000   70.000    0.000    0.000 
#    0.000    0.000    0.000    0.000    0.000    0.000 
#
# Total GULP energy -268391.055301 kJ/mol
# GULP energy per Si atom -5591.480319 kJ/mol
# Density = 2.288137 g / cm^3
# Si number density = 22.933565 Si / 1000 Ang^3
#
#
#
# Elastic Constant Matrix: (Units=GPa)
#
#
# Indices 1 2 3 4 5 6 
#
# 1 113.2978 34.5195 44.2835 0.0000 0.0000 0.0000
# 2 34.5195 51.4196 31.2275 0.0000 0.0000 0.0000
# 3 44.2835 31.2275 186.5175 0.0000 0.0000 0.0000
# 4 0.0000 0.0000 0.0000 20.2356 0.0000 0.0000
# 5 0.0000 0.0000 0.0000 0.0000 18.0607 0.0000
# 6 0.0000 0.0000 0.0000 0.0000 0.0000 29.4872
#
#
#
# Elastic Compliance Matrix: (Units=1/GPa)
#
#
# Indices 1 2 3 4 5 6 
#
# 1 0.011510 -0.006754 -0.001602 0.000000 0.000000 0.000000
# 2 -0.006754 0.025613 -0.002685 0.000000 0.000000 0.000000
# 3 -0.001602 -0.002685 0.006191 0.000000 0.000000 0.000000
# 4 0.000000 0.000000 0.000000 0.049418 0.000000 0.000000
# 5 0.000000 0.000000 0.000000 0.000000 0.055369 0.000000
# 6 0.000000 0.000000 0.000000 0.000000 0.000000 0.033913
#
#
# Mechanical properties :
#
#
# Convention : Reuss Voigt Hill
#
# Bulk Modulus (GPa) = 47.09774 63.47732 55.28753
# Shear Modulus (GPa) = 23.67728 29.63699 26.65714
#
# Velocity S-wave (km/s) = 3.21663 3.59875 3.41304
# Velocity P-wave (km/s) = 5.86317 6.70872 6.30015
#
# Compressibility (1/GPa) = 0.02123244
#
# Stress axis : x y z
#
# Youngs Moduli (GPa) = 86.87829 39.04337 161.51881
#
# Poissons Ratio (x) = 0.26371 0.25875
# Poissons Ratio (y) = 0.58681 0.43360
# Poissons Ratio (z) = 0.13918 0.10481
#
# Static dielectric constant tensor:
#      x y z
#    x 1.845850 0.000000 0.000000 
#    y 0.000000 1.846960 0.000000 
#    z 0.000000 0.000000 1.877310 
# 
# From -- ./inp_files/4747.got.cif
#   From: 2010.05.17/outbox.cif.g08.bks.cpg/sg56_3_cif.got.tgz:4747.got - 2010.06.03 13:42:01.
