data_PCOD9431211
_publ_section_title
;
Structure prediction by ZEFSAII (Michael W. Deem and Ramdas Pophale) SiO2 
 PCOD9431211
Probable space group: P C C N
;
_chemical_formula_sum "Si O2"
_cell_formula_units_Z 48
_cell_length_a 14.641191
_cell_length_b 11.052502
_cell_length_c 13.391572
_cell_angle_alpha 90.000000
_cell_angle_beta 90.000000
_cell_angle_gamma 90.000000
_cell_volume 2167.048190
_symmetry_space_group_name_H-M "P C C N"
_symmetry_group_IT_number 56
_symmetry_cell_setting 'orthorhombic'
loop_
_space_group_symop_operation_xyz
x,y,z
1/2-x,1/2-y,z
1/2+x,-y,1/2-z
-x,1/2+y,1/2-z
-x,-y,-z
1/2+x,1/2+y,-z
1/2-x,y,1/2+z
x,1/2-y,1/2+z
loop_
_atom_site_type_symbol
_atom_site_label
_atom_site_fract_x
_atom_site_fract_y
_atom_site_fract_z
Si Si1 0.459486 0.492450 0.391617
Si Si2 0.633569 0.559951 0.256471
Si Si3 0.898168 0.269959 0.188907
Si Si4 0.313923 0.555298 0.161836
Si Si5 0.097866 0.316791 0.753821
Si Si6 0.100305 0.962394 0.952289
O O1 0.500000 0.500000 0.500000
O O2 0.542555 0.513845 0.312819
O O3 0.395348 0.607573 0.375789
O O4 0.408902 0.367182 0.366680
O O5 0.714394 0.476792 0.296955
O O6 0.655916 0.700376 0.275910
O O7 0.619561 0.556081 0.137100
O O8 0.845106 0.318392 0.287199
O O9 0.883199 0.160696 0.112125
O O10 0.998118 0.233760 0.227885
O O11 0.375548 0.440445 0.198318
O O12 0.330117 0.550233 0.044015
O O13 0.000000 0.000000 0.000000
#
# Coordination Sequence:
#
# PCOD9431211 Si02
#       6
#     8   8   8   8   8   8
#     4  10  22  38  67  98 135 181 244 287 352 421
#     4  11  25  42  67 105 144 181 239 308 361 426
#     4  10  22  41  67  98 133 182 242 288 333 448
#     4  11  25  43  67 104 143 180 235 304 372 411
#     4  10  20  44  66  97 139 186 239 296 343 443
#     4  12  23  45  75  97 136 201 245 277 373 449
#
# _framework density 22.149944999999999
#
# number of rings (size 3 to 8) (size 9 to 14) (size 15 to 20)
#    0.000    1.333    3.333    2.500    4.667    3.333 
#    0.000    3.333    0.000    0.000    0.000    0.000 
#    0.000    0.000    0.000    0.000    0.000    0.000 
#
# Total GULP energy -267356.934249 kJ/mol
# GULP energy per Si atom -5569.936130 kJ/mol
# Density = 2.209953 g / cm^3
# Si number density = 22.149945 Si / 1000 Ang^3
#
#
#
# Elastic Constant Matrix: (Units=GPa)
#
#
# Indices 1 2 3 4 5 6 
#
# 1 65.0968 22.4192 12.6765 0.0000 0.0000 0.0000
# 2 22.4192 122.4429 12.1106 0.0000 0.0000 0.0000
# 3 12.6765 12.1106 120.4653 0.0000 0.0000 0.0000
# 4 0.0000 0.0000 0.0000 24.2933 0.0000 0.0000
# 5 0.0000 0.0000 0.0000 0.0000 23.7515 0.0000
# 6 0.0000 0.0000 0.0000 0.0000 0.0000 33.9193
#
#
#
# Elastic Compliance Matrix: (Units=1/GPa)
#
#
# Indices 1 2 3 4 5 6 
#
# 1 0.016646 -0.002903 -0.001460 0.000000 0.000000 0.000000
# 2 -0.002903 0.008756 -0.000575 0.000000 0.000000 0.000000
# 3 -0.001460 -0.000575 0.008513 0.000000 0.000000 0.000000
# 4 0.000000 0.000000 0.000000 0.041164 0.000000 0.000000
# 5 0.000000 0.000000 0.000000 0.000000 0.042103 0.000000
# 6 0.000000 0.000000 0.000000 0.000000 0.000000 0.029482
#
#
# Mechanical properties :
#
#
# Convention : Reuss Voigt Hill
#
# Bulk Modulus (GPa) = 41.60046 44.71307 43.15676
# Shear Modulus (GPa) = 30.38580 33.77941 32.08260
#
# Velocity S-wave (km/s) = 3.70783 3.90940 3.80995
# Velocity P-wave (km/s) = 6.09531 6.37246 6.23542
#
# Compressibility (1/GPa) = 0.02403820
#
# Stress axis : x y z
#
# Youngs Moduli (GPa) = 60.07463 114.21344 117.47394
#
# Poissons Ratio (x) = 0.33162 0.17148
# Poissons Ratio (y) = 0.17443 0.06751
# Poissons Ratio (z) = 0.08769 0.06564
#
# Static dielectric constant tensor:
#      x y z
#    x 1.926750 0.000000 0.000000 
#    y 0.000000 1.939120 0.000000 
#    z 0.000000 0.000000 1.458290 
# 
# From -- ./inp_files/7150.got.cif
#   From: 2010.05.17/outbox.cif.g08.bks.cpg/sg56_4_cif.got.tgz:7150.got - 2010.06.03 13:42:01.
