data_PCOD9431659
_publ_section_title
;
Structure prediction by ZEFSAII (Michael W. Deem and Ramdas Pophale) SiO2 
 PCOD9431659
Probable space group: P C C N
;
_chemical_formula_sum "Si O2"
_cell_formula_units_Z 64
_cell_length_a 17.758082
_cell_length_b 14.399752
_cell_length_c 11.168710
_cell_angle_alpha 90.000000
_cell_angle_beta 90.000000
_cell_angle_gamma 90.000000
_cell_volume 2855.972912
_symmetry_space_group_name_H-M "P C C N"
_symmetry_group_IT_number 56
_symmetry_cell_setting 'orthorhombic'
loop_
_space_group_symop_operation_xyz
x,y,z
1/2-x,1/2-y,z
1/2+x,-y,1/2-z
-x,1/2+y,1/2-z
-x,-y,-z
1/2+x,1/2+y,-z
1/2-x,y,1/2+z
x,1/2-y,1/2+z
loop_
_atom_site_type_symbol
_atom_site_label
_atom_site_fract_x
_atom_site_fract_y
_atom_site_fract_z
Si Si1 0.582606 0.109392 0.755035
Si Si2 0.669635 0.793759 0.804625
Si Si3 0.904603 0.442005 0.415474
Si Si4 0.603837 0.590795 0.503650
Si Si5 0.932062 0.122460 0.523940
Si Si6 0.832573 0.211098 0.068077
Si Si7 0.574405 0.924137 0.646905
Si Si8 0.087982 0.118622 0.221528
O O1 0.577046 0.150322 0.885424
O O2 0.653039 0.147088 0.683301
O O3 0.501188 0.125104 0.694106
O O4 0.583886 0.998191 0.754942
O O5 0.750000 0.750000 0.773641
O O6 0.624148 0.703260 0.848002
O O7 0.665969 0.866171 0.915466
O O8 0.627470 0.658796 0.190930
O O9 0.855162 0.355285 0.456925
O O10 0.906990 0.512827 0.530093
O O11 0.883252 0.515968 0.313289
O O12 0.986588 0.402498 0.376256
O O13 0.603953 0.480047 0.527732
O O14 0.520604 0.614575 0.450443
O O15 0.603779 0.632110 0.637850
O O16 0.888724 0.202643 0.591748
O O17 0.750000 0.250000 0.054200
#
# Coordination Sequence:
#
# PCOD9431659 Si02
#       8
#     8   8   8   8   8   8   8   8
#     4   9  19  42  66  91 127 176 233 286 334 394
#     4  12  26  41  65 102 144 185 222 288 366 425
#     4   9  21  41  70  98 134 178 240 285 337 410
#     4  10  23  43  66  98 134 174 239 289 343 412
#     4  10  21  40  67  94 129 179 226 291 342 403
#     4  11  24  39  64 103 135 183 219 281 358 420
#     4   9  19  41  69  93 131 183 233 282 331 410
#     4  10  23  41  69 101 126 184 239 287 342 407
#
# _framework density 22.409175000000001
#
# number of rings (size 3 to 8) (size 9 to 14) (size 15 to 20)
#    0.000    2.000    1.250    1.500    7.000    3.000 
#    4.500    0.000    0.000    0.000    0.000    0.000 
#    0.000    0.000    0.000    0.000    0.000    0.000 
#
# Total GULP energy -357035.830542 kJ/mol
# GULP energy per Si atom -5578.684852 kJ/mol
# Density = 2.235817 g / cm^3
# Si number density = 22.409175 Si / 1000 Ang^3
#
#
#
# Elastic Constant Matrix: (Units=GPa)
#
#
# Indices 1 2 3 4 5 6 
#
# 1 82.4902 65.8555 27.7364 0.0000 0.0000 0.0000
# 2 65.8555 100.2800 16.1977 0.0000 0.0000 0.0000
# 3 27.7364 16.1977 74.3745 0.0000 0.0000 0.0000
# 4 0.0000 0.0000 0.0000 26.0989 0.0000 0.0000
# 5 0.0000 0.0000 0.0000 0.0000 22.3402 0.0000
# 6 0.0000 0.0000 0.0000 0.0000 0.0000 30.8165
#
#
#
# Elastic Compliance Matrix: (Units=1/GPa)
#
#
# Indices 1 2 3 4 5 6 
#
# 1 0.028435 -0.017580 -0.006776 0.000000 0.000000 0.000000
# 2 -0.017580 0.021204 0.001938 0.000000 0.000000 0.000000
# 3 -0.006776 0.001938 0.015550 0.000000 0.000000 0.000000
# 4 0.000000 0.000000 0.000000 0.038316 0.000000 0.000000
# 5 0.000000 0.000000 0.000000 0.000000 0.044762 0.000000
# 6 0.000000 0.000000 0.000000 0.000000 0.000000 0.032450
#
#
# Mechanical properties :
#
#
# Convention : Reuss Voigt Hill
#
# Bulk Modulus (GPa) = 49.12825 52.96928 51.04877
# Shear Modulus (GPa) = 21.52040 25.67478 23.59759
#
# Velocity S-wave (km/s) = 3.10230 3.38853 3.24857
# Velocity P-wave (km/s) = 5.89942 6.24485 6.07459
#
# Compressibility (1/GPa) = 0.02035489
#
# Stress axis : x y z
#
# Youngs Moduli (GPa) = 35.16734 47.16131 64.30745
#
# Poissons Ratio (x) = 0.82908 0.43574
# Poissons Ratio (y) = 0.61823 -0.12463
# Poissons Ratio (z) = 0.23829 -0.09140
#
# Static dielectric constant tensor:
#      x y z
#    x 1.835630 0.000000 0.000000 
#    y 0.000000 1.816350 0.000000 
#    z 0.000000 0.000000 1.897560 
# 
# From -- ./inp_files/8423.got.cif
#   From: 2010.05.17/outbox.cif.g08.bks.cpg/sg56_5_cif.got.tgz:8423.got - 2010.06.03 13:42:01.
