data_PCOD9431486
_publ_section_title
;
Structure prediction by ZEFSAII (Michael W. Deem and Ramdas Pophale) SiO2 
 PCOD9431486
Probable space group: P C C N
;
_chemical_formula_sum "Si O2"
_cell_formula_units_Z 36
_cell_length_a 15.824775
_cell_length_b 4.935948
_cell_length_c 21.796680
_cell_angle_alpha 90.000000
_cell_angle_beta 90.000000
_cell_angle_gamma 90.000000
_cell_volume 1702.544484
_symmetry_space_group_name_H-M "P C C N"
_symmetry_group_IT_number 56
_symmetry_cell_setting 'orthorhombic'
loop_
_space_group_symop_operation_xyz
x,y,z
1/2-x,1/2-y,z
1/2+x,-y,1/2-z
-x,1/2+y,1/2-z
-x,-y,-z
1/2+x,1/2+y,-z
1/2-x,y,1/2+z
x,1/2-y,1/2+z
loop_
_atom_site_type_symbol
_atom_site_label
_atom_site_fract_x
_atom_site_fract_y
_atom_site_fract_z
Si Si1 0.952414 0.387500 0.440612
Si Si2 0.666273 0.613623 0.425178
Si Si3 0.250000 0.750000 0.679237
Si Si4 0.110215 0.996772 0.265020
Si Si5 0.053016 0.010580 0.823853
O O1 0.892567 0.627494 0.415123
O O2 0.000000 0.500000 0.500000
O O3 0.021930 0.359469 0.387224
O O4 0.894295 0.122478 0.453403
O O5 0.750000 0.750000 0.456640
O O6 0.701855 0.463111 0.364870
O O7 0.185255 0.599349 0.722878
O O8 0.120221 0.293845 0.291812
O O9 0.028569 0.992188 0.220553
O O10 0.089959 0.790121 0.320673
#
# Coordination Sequence:
#
# PCOD9431486 Si02
#       5
#     8   8   4   8   8
#     4  12  25  43  70  99 132 183 232 276 331 401
#     4  12  23  41  69 101 130 164 228 291 330 391
#     4  12  24  38  70 100 132 168 224 274 354 392
#     4  10  22  34  64  91 132 160 206 270 329 395
#     4  10  21  39  58  94 128 169 205 265 329 387
#
# _framework density 21.144819999999999
#
# number of rings (size 3 to 8) (size 9 to 14) (size 15 to 20)
#    0.000    0.889    4.444    2.000    9.333    0.000 
#    0.000    0.000    9.778    0.000    0.000    0.000 
#    0.000    0.000    0.000    0.000    0.000    0.000 
#
# Total GULP energy -200976.608282 kJ/mol
# GULP energy per Si atom -5582.683563 kJ/mol
# Density = 2.109669 g / cm^3
# Si number density = 21.144820 Si / 1000 Ang^3
#
#
#
# Elastic Constant Matrix: (Units=GPa)
#
#
# Indices 1 2 3 4 5 6 
#
# 1 64.3833 23.7162 17.1211 0.0000 0.0000 0.0000
# 2 23.7162 107.8029 20.9813 0.0000 0.0000 0.0000
# 3 17.1211 20.9813 60.4049 0.0000 0.0000 0.0000
# 4 0.0000 0.0000 0.0000 17.5601 0.0000 0.0000
# 5 0.0000 0.0000 0.0000 0.0000 13.6059 0.0000
# 6 0.0000 0.0000 0.0000 0.0000 0.0000 43.4654
#
#
#
# Elastic Compliance Matrix: (Units=1/GPa)
#
#
# Indices 1 2 3 4 5 6 
#
# 1 0.017734 -0.003135 -0.003938 0.000000 0.000000 0.000000
# 2 -0.003135 0.010503 -0.002760 0.000000 0.000000 0.000000
# 3 -0.003938 -0.002760 0.018630 0.000000 0.000000 0.000000
# 4 0.000000 0.000000 0.000000 0.056947 0.000000 0.000000
# 5 0.000000 0.000000 0.000000 0.000000 0.073497 0.000000
# 6 0.000000 0.000000 0.000000 0.000000 0.000000 0.023007
#
#
# Mechanical properties :
#
#
# Convention : Reuss Voigt Hill
#
# Bulk Modulus (GPa) = 36.76187 39.58094 38.17141
# Shear Modulus (GPa) = 21.82934 26.31112 24.07023
#
# Velocity S-wave (km/s) = 3.21654 3.53133 3.37761
# Velocity P-wave (km/s) = 5.58734 5.94867 5.77083
#
# Compressibility (1/GPa) = 0.02720210
#
# Stress axis : x y z
#
# Youngs Moduli (GPa) = 56.38922 95.21124 53.67828
#
# Poissons Ratio (x) = 0.29849 0.21136
# Poissons Ratio (y) = 0.17678 0.14813
# Poissons Ratio (z) = 0.22204 0.26274
#
# Static dielectric constant tensor:
#      x y z
#    x 1.786750 0.000000 0.000000 
#    y 0.000000 1.792360 0.000000 
#    z 0.000000 0.000000 1.740140 
# 
# From -- ./inp_files/21049.got.cif
#   From: 2010.05.17/outbox.cif.g08.bks.cpg/sg56_11_cif.got.tgz:21049.got - 2010.06.03 13:42:01.
