data_PCOD9431237
_publ_section_title
;
Structure prediction by ZEFSAII (Michael W. Deem and Ramdas Pophale) SiO2 
 PCOD9431237
Probable space group: P C C N
;
_chemical_formula_sum "Si O2"
_cell_formula_units_Z 44
_cell_length_a 8.021353
_cell_length_b 27.339515
_cell_length_c 8.571079
_cell_angle_alpha 90.000000
_cell_angle_beta 90.000000
_cell_angle_gamma 90.000000
_cell_volume 1879.636773
_symmetry_space_group_name_H-M "P C C N"
_symmetry_group_IT_number 56
_symmetry_cell_setting 'orthorhombic'
loop_
_space_group_symop_operation_xyz
x,y,z
1/2-x,1/2-y,z
1/2+x,-y,1/2-z
-x,1/2+y,1/2-z
-x,-y,-z
1/2+x,1/2+y,-z
1/2-x,y,1/2+z
x,1/2-y,1/2+z
loop_
_atom_site_type_symbol
_atom_site_label
_atom_site_fract_x
_atom_site_fract_y
_atom_site_fract_z
Si Si1 0.567251 0.192305 0.452440
Si Si2 0.532888 0.898988 0.400637
Si Si3 0.985868 0.064333 0.642956
Si Si4 0.659693 0.466563 0.313975
Si Si5 0.807950 0.865256 0.185614
Si Si6 0.250000 0.750000 0.301585
O O1 0.601099 0.138891 0.527138
O O2 0.378597 0.184534 0.389076
O O3 0.684623 0.207265 0.310428
O O4 0.602404 0.231333 0.586721
O O5 0.453965 0.946519 0.327649
O O6 0.630364 0.869803 0.263869
O O7 0.662243 0.903868 0.544196
O O8 0.908024 0.057667 0.472567
O O9 0.843941 0.049390 0.767172
O O10 0.059226 0.116986 0.684506
O O11 0.132135 0.024160 0.664131
#
# Coordination Sequence:
#
# PCOD9431237 Si02
#       6
#     8   8   8   8   8   4
#     4   9  24  40  70  96 121 175 197 277 319 388
#     4  10  22  41  62  96 127 167 213 258 322 377
#     4  11  24  39  61  92 129 175 218 266 315 371
#     4  11  24  39  61  92 129 175 218 266 315 371
#     4  10  22  41  62  96 127 167 213 258 322 377
#     4  10  20  50  66  94 132 150 226 258 328 398
#
# _framework density 23.408778999999999
#
# number of rings (size 3 to 8) (size 9 to 14) (size 15 to 20)
#    1.091    0.727    0.000    3.273    2.545    5.818 
#    9.818    2.727    0.000    0.000    0.000    0.000 
#    0.000    0.000    0.000    0.000    0.000    0.000 
#
# Total GULP energy -245549.405931 kJ/mol
# GULP energy per Si atom -5580.668317 kJ/mol
# Density = 2.335550 g / cm^3
# Si number density = 23.408779 Si / 1000 Ang^3
#
#
#
# Elastic Constant Matrix: (Units=GPa)
#
#
# Indices 1 2 3 4 5 6 
#
# 1 63.8843 18.2143 9.8042 0.0000 0.0000 0.0000
# 2 18.2143 53.1002 34.3730 0.0000 0.0000 0.0000
# 3 9.8042 34.3730 107.9016 0.0000 0.0000 0.0000
# 4 0.0000 0.0000 0.0000 21.0940 0.0000 0.0000
# 5 0.0000 0.0000 0.0000 0.0000 30.1689 0.0000
# 6 0.0000 0.0000 0.0000 0.0000 0.0000 30.6266
#
#
#
# Elastic Compliance Matrix: (Units=1/GPa)
#
#
# Indices 1 2 3 4 5 6 
#
# 1 0.017364 -0.006217 0.000403 0.000000 0.000000 0.000000
# 2 -0.006217 0.025950 -0.007702 0.000000 0.000000 0.000000
# 3 0.000403 -0.007702 0.011685 0.000000 0.000000 0.000000
# 4 0.000000 0.000000 0.000000 0.047407 0.000000 0.000000
# 5 0.000000 0.000000 0.000000 0.000000 0.033147 0.000000
# 6 0.000000 0.000000 0.000000 0.000000 0.000000 0.032651
#
#
# Mechanical properties :
#
#
# Convention : Reuss Voigt Hill
#
# Bulk Modulus (GPa) = 35.75639 38.85212 37.30426
# Shear Modulus (GPa) = 24.44293 27.21088 25.82690
#
# Velocity S-wave (km/s) = 3.23488 3.41313 3.32520
# Velocity P-wave (km/s) = 5.40930 5.67150 5.54195
#
# Compressibility (1/GPa) = 0.02796703
#
# Stress axis : x y z
#
# Youngs Moduli (GPa) = 57.59045 38.53510 85.58268
#
# Poissons Ratio (x) = 0.23957 -0.03446
# Poissons Ratio (y) = 0.35803 0.65914
# Poissons Ratio (z) = -0.02319 0.29679
#
# Static dielectric constant tensor:
#      x y z
#    x 1.915640 0.000000 0.000000 
#    y 0.000000 1.874900 0.000000 
#    z 0.000000 0.000000 1.935140 
# 
# From -- ./inp_files/2182.got.cif
#   From: 2010.05.17/outbox.cif.g08.bks.cpg/sg56_2_cif.got.tgz:2182.got - 2010.06.03 13:42:01.
