data_PCOD9431932
_publ_section_title
;
Structure prediction by ZEFSAII (Michael W. Deem and Ramdas Pophale) SiO2 
 PCOD9431932
Probable space group: P C C N
;
_chemical_formula_sum "Si O2"
_cell_formula_units_Z 56
_cell_length_a 17.748587
_cell_length_b 13.191830
_cell_length_c 8.917505
_cell_angle_alpha 90.000000
_cell_angle_beta 90.000000
_cell_angle_gamma 90.000000
_cell_volume 2087.912004
_symmetry_space_group_name_H-M "P C C N"
_symmetry_group_IT_number 56
_symmetry_cell_setting 'orthorhombic'
loop_
_space_group_symop_operation_xyz
x,y,z
1/2-x,1/2-y,z
1/2+x,-y,1/2-z
-x,1/2+y,1/2-z
-x,-y,-z
1/2+x,1/2+y,-z
1/2-x,y,1/2+z
x,1/2-y,1/2+z
loop_
_atom_site_type_symbol
_atom_site_label
_atom_site_fract_x
_atom_site_fract_y
_atom_site_fract_z
Si Si1 0.859303 0.493001 0.471640
Si Si2 0.250000 0.750000 0.390175
Si Si3 0.750000 0.750000 0.406776
Si Si4 0.500941 0.176066 0.184590
Si Si5 0.407479 0.304003 0.970258
Si Si6 0.393221 0.638851 0.786227
Si Si7 0.265791 0.451602 0.289783
Si Si8 0.368550 0.930529 0.973102
O O1 0.753188 0.651198 0.300925
O O2 0.907803 0.404455 0.545257
O O3 0.801328 0.472907 0.337253
O O4 0.808626 0.522480 0.616975
O O5 0.190302 0.685085 0.298783
O O6 0.193011 0.836079 0.463208
O O7 0.823122 0.738203 0.511205
O O8 0.437824 0.160889 0.309916
O O9 0.551785 0.268686 0.243196
O O10 0.561143 0.092011 0.136300
O O11 0.459964 0.218523 0.038401
O O12 0.406297 0.407420 0.069502
O O13 0.396571 0.565972 0.643396
O O14 0.328478 0.467275 0.418585
#
# Coordination Sequence:
#
# PCOD9431932 Si02
#       8
#     8   4   4   8   8   8   8   8
#     4  11  25  42  73 107 153 190 257 316 383 452
#     4  10  22  36  78 108 154 196 248 300 388 468
#     4  10  26  50  82 104 140 208 268 340 382 444
#     4  11  25  46  76 109 157 209 254 314 407 476
#     4  11  25  50  77 108 147 204 272 323 389 470
#     4  11  23  43  69 114 157 205 245 315 395 480
#     4  11  24  44  73 115 147 192 257 322 381 457
#     4  11  23  43  73 114 163 195 251 315 396 480
#
# _framework density 26.821055000000001
#
# number of rings (size 3 to 8) (size 9 to 14) (size 15 to 20)
#    0.000    1.143    2.857    2.143    2.000    9.143 
#    2.571    5.000    0.000    0.857    0.000    0.000 
#    0.000    0.000    0.000    0.000    0.000    0.000 
#
# Total GULP energy -313312.283972 kJ/mol
# GULP energy per Si atom -5594.862214 kJ/mol
# Density = 2.676001 g / cm^3
# Si number density = 26.821055 Si / 1000 Ang^3
#
#
#
# Elastic Constant Matrix: (Units=GPa)
#
#
# Indices 1 2 3 4 5 6 
#
# 1 124.9881 22.8678 4.6738 0.0000 0.0000 0.0000
# 2 22.8678 76.8260 4.5126 0.0000 0.0000 0.0000
# 3 4.6738 4.5126 77.6711 0.0000 0.0000 0.0000
# 4 0.0000 0.0000 0.0000 35.1562 0.0000 0.0000
# 5 0.0000 0.0000 0.0000 0.0000 38.5694 0.0000
# 6 0.0000 0.0000 0.0000 0.0000 0.0000 36.7571
#
#
#
# Elastic Compliance Matrix: (Units=1/GPa)
#
#
# Indices 1 2 3 4 5 6 
#
# 1 0.008472 -0.002500 -0.000365 0.000000 0.000000 0.000000
# 2 -0.002500 0.013799 -0.000651 0.000000 0.000000 0.000000
# 3 -0.000365 -0.000651 0.012935 0.000000 0.000000 0.000000
# 4 0.000000 0.000000 0.000000 0.028445 0.000000 0.000000
# 5 0.000000 0.000000 0.000000 0.000000 0.025927 0.000000
# 6 0.000000 0.000000 0.000000 0.000000 0.000000 0.027206
#
#
# Mechanical properties :
#
#
# Convention : Reuss Voigt Hill
#
# Bulk Modulus (GPa) = 35.49472 38.17706 36.83589
# Shear Modulus (GPa) = 37.53587 38.59194 38.06390
#
# Velocity S-wave (km/s) = 3.74504 3.79736 3.77129
# Velocity P-wave (km/s) = 5.65359 5.78718 5.72077
#
# Compressibility (1/GPa) = 0.02817320
#
# Stress axis : x y z
#
# Youngs Moduli (GPa) = 118.03808 72.46952 77.31214
#
# Poissons Ratio (x) = 0.18119 0.02818
# Poissons Ratio (y) = 0.29513 0.05035
# Poissons Ratio (z) = 0.04303 0.04720
#
# Static dielectric constant tensor:
#      x y z
#    x 2.090930 0.000000 0.000000 
#    y 0.000000 2.211950 0.000000 
#    z 0.000000 0.000000 2.095840 
# 
# From -- ./inp_files/4510.got.cif
#   From: 2010.05.17/outbox.cif.g08.bks.cpg/sg56_3_cif.got.tgz:4510.got - 2010.06.03 13:42:01.
