data_PCOD9431966
_publ_section_title
;
Structure prediction by ZEFSAII (Michael W. Deem and Ramdas Pophale) SiO2 
 PCOD9431966
Probable space group: P C C N
;
_chemical_formula_sum "Si O2"
_cell_formula_units_Z 32
_cell_length_a 8.115172
_cell_length_b 14.985320
_cell_length_c 11.688907
_cell_angle_alpha 90.000000
_cell_angle_beta 90.000000
_cell_angle_gamma 90.000000
_cell_volume 1421.469854
_symmetry_space_group_name_H-M "P C C N"
_symmetry_group_IT_number 56
_symmetry_cell_setting 'orthorhombic'
loop_
_space_group_symop_operation_xyz
x,y,z
1/2-x,1/2-y,z
1/2+x,-y,1/2-z
-x,1/2+y,1/2-z
-x,-y,-z
1/2+x,1/2+y,-z
1/2-x,y,1/2+z
x,1/2-y,1/2+z
loop_
_atom_site_type_symbol
_atom_site_label
_atom_site_fract_x
_atom_site_fract_y
_atom_site_fract_z
Si Si1 0.152904 0.385488 0.468813
Si Si2 0.976593 0.514806 0.313198
Si Si3 0.671774 0.336256 0.862066
Si Si4 0.009322 0.906853 0.565898
O O1 0.129760 0.470341 0.381840
O O2 0.003446 0.323124 0.425633
O O3 0.659498 0.644357 0.537780
O O4 0.114456 0.423539 0.594073
O O5 0.868916 0.425157 0.289809
O O6 0.009271 0.569353 0.200327
O O7 0.750000 0.250000 0.801642
O O8 0.814683 0.360985 0.953039
O O9 0.000000 0.000000 0.500000
#
# Coordination Sequence:
#
# PCOD9431966 Si02
#       4
#     8   8   8   8
#     4   9  20  37  59  84 115 152 203 239 284 359
#     4   9  19  39  58  88 117 150 207 239 282 368
#     4  10  22  38  60  92 123 147 195 260 303 341
#     4  12  20  36  65  85 114 167 200 232 301 363
#
# _framework density 22.511908999999999
#
# number of rings (size 3 to 8) (size 9 to 14) (size 15 to 20)
#    1.500    0.500    2.500    1.500    0.000    1.000 
#    0.000    5.000    0.000    3.000    0.000    0.000 
#    0.000    0.000    0.000    0.000    0.000    0.000 
#
# Total GULP energy -178192.947374 kJ/mol
# GULP energy per Si atom -5568.529605 kJ/mol
# Density = 2.246067 g / cm^3
# Si number density = 22.511909 Si / 1000 Ang^3
#
#
#
# Elastic Constant Matrix: (Units=GPa)
#
#
# Indices 1 2 3 4 5 6 
#
# 1 169.0752 26.8539 -4.0822 0.0000 0.0000 0.0000
# 2 26.8539 50.1014 5.6627 0.0000 0.0000 0.0000
# 3 -4.0822 5.6627 71.7841 0.0000 0.0000 0.0000
# 4 0.0000 0.0000 0.0000 4.9887 0.0000 0.0000
# 5 0.0000 0.0000 0.0000 0.0000 11.5755 0.0000
# 6 0.0000 0.0000 0.0000 0.0000 0.0000 44.4476
#
#
#
# Elastic Compliance Matrix: (Units=1/GPa)
#
#
# Indices 1 2 3 4 5 6 
#
# 1 0.006495 -0.003555 0.000650 0.000000 0.000000 0.000000
# 2 -0.003555 0.022084 -0.001944 0.000000 0.000000 0.000000
# 3 0.000650 -0.001944 0.014121 0.000000 0.000000 0.000000
# 4 0.000000 0.000000 0.000000 0.200452 0.000000 0.000000
# 5 0.000000 0.000000 0.000000 0.000000 0.086389 0.000000
# 6 0.000000 0.000000 0.000000 0.000000 0.000000 0.022498
#
#
# Mechanical properties :
#
#
# Convention : Reuss Voigt Hill
#
# Bulk Modulus (GPa) = 30.30115 38.64772 34.47443
# Shear Modulus (GPa) = 13.41423 29.70412 21.55918
#
# Velocity S-wave (km/s) = 2.44370 3.63641 3.09800
# Velocity P-wave (km/s) = 4.63158 5.90223 5.30508
#
# Compressibility (1/GPa) = 0.03300205
#
# Stress axis : x y z
#
# Youngs Moduli (GPa) = 153.96973 45.28064 70.81656
#
# Poissons Ratio (x) = 0.16095 -0.04601
# Poissons Ratio (y) = 0.54730 0.13769
# Poissons Ratio (z) = -0.10004 0.08804
#
# Static dielectric constant tensor:
#      x y z
#    x 1.933450 0.000000 0.000000 
#    y 0.000000 1.919350 0.000000 
#    z 0.000000 0.000000 1.769460 
# 
# From -- ./inp_files/3070.got.cif
#   From: 2010.05.17/outbox.cif.g08.bks.cpg/sg56_2_cif.got.tgz:3070.got - 2010.06.03 13:42:01.
