data_PCOD9431128
_publ_section_title
;
Structure prediction by ZEFSAII (Michael W. Deem and Ramdas Pophale) SiO2 
 PCOD9431128
Probable space group: P C C N
;
_chemical_formula_sum "Si O2"
_cell_formula_units_Z 48
_cell_length_a 7.508518
_cell_length_b 10.722408
_cell_length_c 25.125132
_cell_angle_alpha 90.000000
_cell_angle_beta 90.000000
_cell_angle_gamma 90.000000
_cell_volume 2022.809138
_symmetry_space_group_name_H-M "P C C N"
_symmetry_group_IT_number 56
_symmetry_cell_setting 'orthorhombic'
loop_
_space_group_symop_operation_xyz
x,y,z
1/2-x,1/2-y,z
1/2+x,-y,1/2-z
-x,1/2+y,1/2-z
-x,-y,-z
1/2+x,1/2+y,-z
1/2-x,y,1/2+z
x,1/2-y,1/2+z
loop_
_atom_site_type_symbol
_atom_site_label
_atom_site_fract_x
_atom_site_fract_y
_atom_site_fract_z
Si Si1 0.102821 0.080478 0.128920
Si Si2 0.963998 0.229984 0.419482
Si Si3 0.939528 0.174265 0.810298
Si Si4 0.458394 0.285700 0.032349
Si Si5 0.943611 0.308667 0.191117
Si Si6 0.509683 0.453062 0.593074
O O1 0.995848 0.104679 0.073919
O O2 0.300705 0.055757 0.107957
O O3 0.064910 0.207990 0.160554
O O4 0.071126 0.966817 0.168433
O O5 0.750000 0.250000 0.416258
O O6 0.034289 0.261348 0.360679
O O7 0.013480 0.310789 0.470659
O O8 0.030870 0.089789 0.430447
O O9 0.750000 0.250000 0.806415
O O10 0.014565 0.169448 0.750547
O O11 0.250000 0.250000 0.037998
O O12 0.557355 0.160141 0.053440
O O13 0.750000 0.250000 0.195984
O O14 0.912691 0.425926 0.151822
#
# Coordination Sequence:
#
# PCOD9431128 Si02
#       6
#     8   8   8   8   8   8
#     4  10  20  41  65  85 123 165 198 247 306 371
#     4  11  21  39  62  89 118 161 206 248 298 361
#     4  10  21  38  60  91 122 156 207 244 302 359
#     4   9  21  38  57  87 120 157 204 248 306 355
#     4  10  23  38  61  94 123 157 204 254 302 357
#     4  10  20  42  63  85 119 167 201 244 303 368
#
# _framework density 23.729378000000001
#
# number of rings (size 3 to 8) (size 9 to 14) (size 15 to 20)
#    0.000    2.000    3.333    2.000    2.333    3.333 
#    3.000    1.667    0.000    0.000    0.000    0.000 
#    0.000    0.000    0.000    0.000    0.000    0.000 
#
# Total GULP energy -267591.717862 kJ/mol
# GULP energy per Si atom -5574.827455 kJ/mol
# Density = 2.367537 g / cm^3
# Si number density = 23.729378 Si / 1000 Ang^3
#
#
#
# Elastic Constant Matrix: (Units=GPa)
#
#
# Indices 1 2 3 4 5 6 
#
# 1 28.5362 -5.8568 1.4579 0.0000 0.0000 0.0000
# 2 -5.8568 94.9145 37.2839 0.0000 0.0000 0.0000
# 3 1.4579 37.2839 190.1994 0.0000 0.0000 0.0000
# 4 0.0000 0.0000 0.0000 21.4380 0.0000 0.0000
# 5 0.0000 0.0000 0.0000 0.0000 18.9523 0.0000
# 6 0.0000 0.0000 0.0000 0.0000 0.0000 10.8385
#
#
#
# Elastic Compliance Matrix: (Units=1/GPa)
#
#
# Indices 1 2 3 4 5 6 
#
# 1 0.035594 0.002496 -0.000762 0.000000 0.000000 0.000000
# 2 0.002496 0.011590 -0.002291 0.000000 0.000000 0.000000
# 3 -0.000762 -0.002291 0.005713 0.000000 0.000000 0.000000
# 4 0.000000 0.000000 0.000000 0.046646 0.000000 0.000000
# 5 0.000000 0.000000 0.000000 0.000000 0.052764 0.000000
# 6 0.000000 0.000000 0.000000 0.000000 0.000000 0.092263
#
#
# Mechanical properties :
#
#
# Convention : Reuss Voigt Hill
#
# Bulk Modulus (GPa) = 19.31170 42.15778 30.73474
# Shear Modulus (GPa) = 19.01535 28.96345 23.98940
#
# Velocity S-wave (km/s) = 2.83387 3.49746 3.18301
# Velocity P-wave (km/s) = 4.34324 5.84074 5.14675
#
# Compressibility (1/GPa) = 0.05178208
#
# Stress axis : x y z
#
# Youngs Moduli (GPa) = 28.09430 86.28312 175.05229
#
# Poissons Ratio (x) = -0.21534 0.13340
# Poissons Ratio (y) = -0.07012 0.40105
# Poissons Ratio (z) = 0.02141 0.19768
#
# Static dielectric constant tensor:
#      x y z
#    x 1.980230 0.000000 0.000000 
#    y 0.000000 1.977570 0.000000 
#    z 0.000000 0.000000 1.937000 
# 
# From -- ./inp_files/20468.got.cif
#   From: 2010.05.17/outbox.cif.g08.bks.cpg/sg56_11_cif.got.tgz:20468.got - 2010.06.03 13:42:01.
