data_PCOD9431787
_publ_section_title
;
Structure prediction by ZEFSAII (Michael W. Deem and Ramdas Pophale) SiO2 
 PCOD9431787
Probable space group: P C C N
;
_chemical_formula_sum "Si O2"
_cell_formula_units_Z 32
_cell_length_a 12.172317
_cell_length_b 7.820487
_cell_length_c 13.797059
_cell_angle_alpha 90.000000
_cell_angle_beta 90.000000
_cell_angle_gamma 90.000000
_cell_volume 1313.389603
_symmetry_space_group_name_H-M "P C C N"
_symmetry_group_IT_number 56
_symmetry_cell_setting 'orthorhombic'
loop_
_space_group_symop_operation_xyz
x,y,z
1/2-x,1/2-y,z
1/2+x,-y,1/2-z
-x,1/2+y,1/2-z
-x,-y,-z
1/2+x,1/2+y,-z
1/2-x,y,1/2+z
x,1/2-y,1/2+z
loop_
_atom_site_type_symbol
_atom_site_label
_atom_site_fract_x
_atom_site_fract_y
_atom_site_fract_z
Si Si1 0.913318 0.337967 0.275738
Si Si2 0.145705 0.445888 0.905502
Si Si3 0.441528 0.770716 0.514905
Si Si4 0.882907 0.498443 0.659742
O O1 0.884871 0.489992 0.202995
O O2 0.883627 0.342971 0.388718
O O3 0.046052 0.362759 0.282138
O O4 0.867268 0.161450 0.232515
O O5 0.275469 0.424450 0.889950
O O6 0.058733 0.312667 0.952264
O O7 0.128389 0.613928 0.972038
O O8 0.448658 0.905275 0.427474
#
# Coordination Sequence:
#
# PCOD9431787 Si02
#       4
#     8   8   8   8
#     4  11  21  43  65 100 138 173 227 286 337 414
#     4  10  23  42  69  99 137 183 223 285 348 407
#     4  10  21  42  66  96 139 175 232 283 334 416
#     4  11  24  41  71 100 138 181 226 285 345 405
#
# _framework density 24.364439000000001
#
# number of rings (size 3 to 8) (size 9 to 14) (size 15 to 20)
#    0.000    1.500    2.500    3.750    0.000    5.000 
#    0.000    0.000    0.000    0.000    0.000    0.000 
#    0.000    0.000    0.000    0.000    0.000    0.000 
#
# Total GULP energy -178495.628021 kJ/mol
# GULP energy per Si atom -5577.988376 kJ/mol
# Density = 2.430898 g / cm^3
# Si number density = 24.364439 Si / 1000 Ang^3
#
#
#
# Elastic Constant Matrix: (Units=GPa)
#
#
# Indices 1 2 3 4 5 6 
#
# 1 123.1877 36.8734 3.4884 0.0000 0.0000 0.0000
# 2 36.8734 110.7803 34.0024 0.0000 0.0000 0.0000
# 3 3.4884 34.0024 137.9926 0.0000 0.0000 0.0000
# 4 0.0000 0.0000 0.0000 32.2782 0.0000 0.0000
# 5 0.0000 0.0000 0.0000 0.0000 49.9382 0.0000
# 6 0.0000 0.0000 0.0000 0.0000 0.0000 38.6573
#
#
#
# Elastic Compliance Matrix: (Units=1/GPa)
#
#
# Indices 1 2 3 4 5 6 
#
# 1 0.009055 -0.003185 0.000556 0.000000 0.000000 0.000000
# 2 -0.003185 0.010885 -0.002602 0.000000 0.000000 0.000000
# 3 0.000556 -0.002602 0.007874 0.000000 0.000000 0.000000
# 4 0.000000 0.000000 0.000000 0.030981 0.000000 0.000000
# 5 0.000000 0.000000 0.000000 0.000000 0.020025 0.000000
# 6 0.000000 0.000000 0.000000 0.000000 0.000000 0.025868
#
#
# Mechanical properties :
#
#
# Convention : Reuss Voigt Hill
#
# Bulk Modulus (GPa) = 57.62592 57.85434 57.74013
# Shear Modulus (GPa) = 41.34494 44.01450 42.67972
#
# Velocity S-wave (km/s) = 4.12386 4.25491 4.18990
# Velocity P-wave (km/s) = 6.81014 6.92358 6.86709
#
# Compressibility (1/GPa) = 0.01735330
#
# Stress axis : x y z
#
# Youngs Moduli (GPa) = 110.43379 91.86569 127.00337
#
# Poissons Ratio (x) = 0.29256 -0.07059
# Poissons Ratio (y) = 0.35169 0.33043
# Poissons Ratio (z) = -0.06138 0.23901
#
# Static dielectric constant tensor:
#      x y z
#    x 2.053080 0.000000 0.000000 
#    y 0.000000 2.068930 0.000000 
#    z 0.000000 0.000000 1.901320 
# 
# From -- ./inp_files/6799.got.cif
#   From: 2010.05.17/outbox.cif.g08.bks.cpg/sg56_4_cif.got.tgz:6799.got - 2010.06.03 13:42:01.
