data_PCOD9431043
_publ_section_title
;
Structure prediction by ZEFSAII (Michael W. Deem and Ramdas Pophale) SiO2 
 PCOD9431043
Probable space group: P C C N
;
_chemical_formula_sum "Si O2"
_cell_formula_units_Z 56
_cell_length_a 11.804672
_cell_length_b 12.007699
_cell_length_c 18.323489
_cell_angle_alpha 90.000000
_cell_angle_beta 90.000000
_cell_angle_gamma 90.000000
_cell_volume 2597.298646
_symmetry_space_group_name_H-M "P C C N"
_symmetry_group_IT_number 56
_symmetry_cell_setting 'orthorhombic'
loop_
_space_group_symop_operation_xyz
x,y,z
1/2-x,1/2-y,z
1/2+x,-y,1/2-z
-x,1/2+y,1/2-z
-x,-y,-z
1/2+x,1/2+y,-z
1/2-x,y,1/2+z
x,1/2-y,1/2+z
loop_
_atom_site_type_symbol
_atom_site_label
_atom_site_fract_x
_atom_site_fract_y
_atom_site_fract_z
Si Si1 0.626223 0.744873 0.193713
Si Si2 0.995578 0.265170 0.670656
Si Si3 0.783071 0.139085 0.097217
Si Si4 0.597273 0.953597 0.094598
Si Si5 0.876214 0.555816 0.405136
Si Si6 0.076828 0.080323 0.934790
Si Si7 0.119839 0.084800 0.570617
O O1 0.750000 0.750000 0.230312
O O2 0.528431 0.716644 0.251085
O O3 0.606232 0.863929 0.157318
O O4 0.629360 0.657080 0.127251
O O5 0.065693 0.379427 0.660864
O O6 0.054527 0.185020 0.610715
O O7 0.865280 0.299934 0.656671
O O8 0.750000 0.250000 0.050938
O O9 0.671485 0.064337 0.112457
O O10 0.864194 0.041862 0.066929
O O11 0.466867 0.983901 0.081944
O O12 0.637180 0.903892 0.016576
O O13 0.903931 0.618244 0.482492
O O14 0.742317 0.557434 0.396950
O O15 0.945404 0.441148 0.415138
#
# Coordination Sequence:
#
# PCOD9431043 Si02
#       7
#     8   8   8   8   8   8   8
#     4  12  23  43  65  99 134 177 226 270 331 406
#     4  11  25  38  67  97 130 176 222 273 327 393
#     4  11  21  45  64  94 127 176 216 264 333 398
#     4  11  24  41  69  98 129 180 221 271 337 398
#     4  10  20  40  62  99 128 171 219 277 332 380
#     4  10  22  40  69  95 131 175 219 271 336 398
#     4  11  21  41  64 100 131 168 228 276 328 389
#
# _framework density 21.560863000000001
#
# number of rings (size 3 to 8) (size 9 to 14) (size 15 to 20)
#    0.000    1.143    4.286    2.143    0.000    2.286 
#    2.571    0.714    0.000    0.000    0.000    0.000 
#    0.000    0.000    0.000    0.000    0.000    0.000 
#
# Total GULP energy -312099.785801 kJ/mol
# GULP energy per Si atom -5573.210461 kJ/mol
# Density = 2.151179 g / cm^3
# Si number density = 21.560863 Si / 1000 Ang^3
#
#
#
# Elastic Constant Matrix: (Units=GPa)
#
#
# Indices 1 2 3 4 5 6 
#
# 1 143.4124 7.2743 8.0448 0.0000 0.0000 0.0000
# 2 7.2743 88.9868 24.7912 0.0000 0.0000 0.0000
# 3 8.0448 24.7912 67.1827 0.0000 0.0000 0.0000
# 4 0.0000 0.0000 0.0000 13.8905 0.0000 0.0000
# 5 0.0000 0.0000 0.0000 0.0000 21.6142 0.0000
# 6 0.0000 0.0000 0.0000 0.0000 0.0000 25.4283
#
#
#
# Elastic Compliance Matrix: (Units=1/GPa)
#
#
# Indices 1 2 3 4 5 6 
#
# 1 0.007032 -0.000379 -0.000702 0.000000 0.000000 0.000000
# 2 -0.000379 0.012546 -0.004584 0.000000 0.000000 0.000000
# 3 -0.000702 -0.004584 0.016660 0.000000 0.000000 0.000000
# 4 0.000000 0.000000 0.000000 0.071992 0.000000 0.000000
# 5 0.000000 0.000000 0.000000 0.000000 0.046266 0.000000
# 6 0.000000 0.000000 0.000000 0.000000 0.000000 0.039326
#
#
# Mechanical properties :
#
#
# Convention : Reuss Voigt Hill
#
# Bulk Modulus (GPa) = 40.14945 42.20026 41.17485
# Shear Modulus (GPa) = 23.42422 29.48473 26.45447
#
# Velocity S-wave (km/s) = 3.29967 3.70200 3.50661
# Velocity P-wave (km/s) = 5.76012 6.15534 5.96100
#
# Compressibility (1/GPa) = 0.02490694
#
# Stress axis : x y z
#
# Youngs Moduli (GPa) = 142.21690 79.70844 60.02243
#
# Poissons Ratio (x) = 0.03023 0.04214
# Poissons Ratio (y) = 0.05393 0.27515
# Poissons Ratio (z) = 0.09984 0.36539
#
# Static dielectric constant tensor:
#      x y z
#    x 1.847030 0.000000 0.000000 
#    y 0.000000 1.822410 0.000000 
#    z 0.000000 0.000000 1.774570 
# 
# From -- ./inp_files/18753.got.cif
#   From: 2010.05.17/outbox.cif.g08.bks.cpg/sg56_10_cif.got.tgz:18753.got - 2010.06.03 13:42:01.
