data_PCOD9431860
_publ_section_title
;
Structure prediction by ZEFSAII (Michael W. Deem and Ramdas Pophale) SiO2 
 PCOD9431860
Probable space group: P C C N
;
_chemical_formula_sum "Si O2"
_cell_formula_units_Z 48
_cell_length_a 15.180812
_cell_length_b 12.601732
_cell_length_c 12.311184
_cell_angle_alpha 90.000000
_cell_angle_beta 90.000000
_cell_angle_gamma 90.000000
_cell_volume 2355.185200
_symmetry_space_group_name_H-M "P C C N"
_symmetry_group_IT_number 56
_symmetry_cell_setting 'orthorhombic'
loop_
_space_group_symop_operation_xyz
x,y,z
1/2-x,1/2-y,z
1/2+x,-y,1/2-z
-x,1/2+y,1/2-z
-x,-y,-z
1/2+x,1/2+y,-z
1/2-x,y,1/2+z
x,1/2-y,1/2+z
loop_
_atom_site_type_symbol
_atom_site_label
_atom_site_fract_x
_atom_site_fract_y
_atom_site_fract_z
Si Si1 0.343666 0.583754 0.433862
Si Si2 0.750000 0.750000 0.558500
Si Si3 0.410174 0.173940 0.298507
Si Si4 0.900701 0.225640 0.753509
Si Si5 0.250000 0.750000 0.089478
Si Si6 0.669444 0.041017 0.701442
Si Si7 0.663178 0.587306 0.409677
O O1 0.402671 0.641788 0.344698
O O2 0.307545 0.673117 0.515281
O O3 0.254802 0.544444 0.373668
O O4 0.301598 0.494664 0.681053
O O5 0.665541 0.765374 0.635706
O O6 0.733903 0.651550 0.478603
O O7 0.506018 0.222323 0.313032
O O8 0.399879 0.050235 0.334019
O O9 0.389033 0.168529 0.168636
O O10 0.820707 0.193978 0.832431
O O11 0.874048 0.343401 0.712463
O O12 0.885020 0.987601 0.497535
#
# Coordination Sequence:
#
# PCOD9431860 Si02
#       7
#     8   4   8   8   4   8   8
#     4  12  20  39  74  92 133 178 222 272 344 397
#     4  12  22  46  70  94 132 186 220 280 340 410
#     4  10  26  42  64  99 138 171 227 279 332 406
#     4  12  23  41  66 103 134 174 225 286 331 405
#     4  12  20  38  68  98 128 174 212 282 338 392
#     4  10  21  44  63 101 132 169 229 278 335 403
#     4  10  22  41  70  91 131 177 224 267 343 400
#
# _framework density 20.380562000000001
#
# number of rings (size 3 to 8) (size 9 to 14) (size 15 to 20)
#    1.000    0.000    6.667    0.500    0.000    3.333 
#    0.000    2.500    0.000    0.000    0.000    0.000 
#    0.000    0.000    0.000    0.000    0.000    0.000 
#
# Total GULP energy -267445.835958 kJ/mol
# GULP energy per Si atom -5571.788249 kJ/mol
# Density = 2.033417 g / cm^3
# Si number density = 20.380562 Si / 1000 Ang^3
#
#
#
# Elastic Constant Matrix: (Units=GPa)
#
#
# Indices 1 2 3 4 5 6 
#
# 1 91.7593 1.5794 23.2614 0.0000 0.0000 0.0000
# 2 1.5794 54.1382 18.2242 0.0000 0.0000 0.0000
# 3 23.2614 18.2242 84.5243 0.0000 0.0000 0.0000
# 4 0.0000 0.0000 0.0000 19.4194 0.0000 0.0000
# 5 0.0000 0.0000 0.0000 0.0000 6.7215 0.0000
# 6 0.0000 0.0000 0.0000 0.0000 0.0000 15.5215
#
#
#
# Elastic Compliance Matrix: (Units=1/GPa)
#
#
# Indices 1 2 3 4 5 6 
#
# 1 0.011748 0.000804 -0.003406 0.000000 0.000000 0.000000
# 2 0.000804 0.019972 -0.004527 0.000000 0.000000 0.000000
# 3 -0.003406 -0.004527 0.013745 0.000000 0.000000 0.000000
# 4 0.000000 0.000000 0.000000 0.051495 0.000000 0.000000
# 5 0.000000 0.000000 0.000000 0.000000 0.148775 0.000000
# 6 0.000000 0.000000 0.000000 0.000000 0.000000 0.064427
#
#
# Mechanical properties :
#
#
# Convention : Reuss Voigt Hill
#
# Bulk Modulus (GPa) = 32.04661 35.17240 33.60951
# Shear Modulus (GPa) = 14.93329 20.82293 17.87811
#
# Velocity S-wave (km/s) = 2.70982 3.19988 2.96499
# Velocity P-wave (km/s) = 5.05461 5.56306 5.31492
#
# Compressibility (1/GPa) = 0.03120455
#
# Stress axis : x y z
#
# Youngs Moduli (GPa) = 85.12259 50.07055 72.75635
#
# Poissons Ratio (x) = -0.04025 0.24783
# Poissons Ratio (y) = -0.06843 0.32939
# Poissons Ratio (z) = 0.28996 0.22669
#
# Static dielectric constant tensor:
#      x y z
#    x 1.675260 0.000000 0.000000 
#    y 0.000000 1.765750 0.000000 
#    z 0.000000 0.000000 1.768930 
# 
# From -- ./inp_files/7841.got.cif
#   From: 2010.05.17/outbox.cif.g08.bks.cpg/sg56_4_cif.got.tgz:7841.got - 2010.06.03 13:42:01.
