data_PCOD9431002
_publ_section_title
;
Structure prediction by ZEFSAII (Michael W. Deem and Ramdas Pophale) SiO2 
 PCOD9431002
Probable space group: P C C N
;
_chemical_formula_sum "Si O2"
_cell_formula_units_Z 48
_cell_length_a 7.587209
_cell_length_b 27.193619
_cell_length_c 9.283442
_cell_angle_alpha 90.000000
_cell_angle_beta 90.000000
_cell_angle_gamma 90.000000
_cell_volume 1915.393831
_symmetry_space_group_name_H-M "P C C N"
_symmetry_group_IT_number 56
_symmetry_cell_setting 'orthorhombic'
loop_
_space_group_symop_operation_xyz
x,y,z
1/2-x,1/2-y,z
1/2+x,-y,1/2-z
-x,1/2+y,1/2-z
-x,-y,-z
1/2+x,1/2+y,-z
1/2-x,y,1/2+z
x,1/2-y,1/2+z
loop_
_atom_site_type_symbol
_atom_site_label
_atom_site_fract_x
_atom_site_fract_y
_atom_site_fract_z
Si Si1 0.332509 0.349661 0.307927
Si Si2 0.688563 0.138701 0.454815
Si Si3 0.350775 0.800609 0.282496
Si Si4 0.052827 0.976882 0.340675
Si Si5 0.428574 0.375784 0.602025
Si Si6 0.950361 0.063269 0.143658
O O1 0.462763 0.303176 0.298859
O O2 0.298634 0.367473 0.468124
O O3 0.151708 0.341583 0.224449
O O4 0.451143 0.393178 0.232505
O O5 0.727873 0.158346 0.296923
O O6 0.616584 0.182665 0.553977
O O7 0.577448 0.089419 0.487101
O O8 0.884213 0.130580 0.523524
O O9 0.250000 0.750000 0.275702
O O10 0.247946 0.953723 0.330596
O O11 0.923801 0.930309 0.333666
O O12 0.000000 0.000000 0.500000
O O13 0.042046 0.014739 0.207738
#
# Coordination Sequence:
#
# PCOD9431002 Si02
#       6
#     8   8   8   8   8   8
#     4  10  21  40  60  89 125 161 204 254 322 369
#     4   9  21  37  62  87 126 156 202 250 316 371
#     4  10  20  39  66  92 116 155 202 255 311 389
#     4  11  21  37  59  84 127 168 225 266 298 371
#     4  10  21  38  58  86 127 166 203 259 303 367
#     4  10  21  38  58  85 122 168 210 260 309 359
#
# _framework density 25.060117999999999
#
# number of rings (size 3 to 8) (size 9 to 14) (size 15 to 20)
#    0.000    2.000    1.667    1.500    2.333    2.667 
#    3.000    2.500    0.000    4.000    0.000    0.000 
#    0.000    0.000    0.000    0.000    0.000    0.000 
#
# Total GULP energy -267571.795028 kJ/mol
# GULP energy per Si atom -5574.412396 kJ/mol
# Density = 2.500308 g / cm^3
# Si number density = 25.060118 Si / 1000 Ang^3
#
#
#
# Elastic Constant Matrix: (Units=GPa)
#
#
# Indices 1 2 3 4 5 6 
#
# 1 110.6629 17.4038 7.2563 0.0000 0.0000 0.0000
# 2 17.4038 76.0978 3.0102 0.0000 0.0000 0.0000
# 3 7.2563 3.0102 84.9350 0.0000 0.0000 0.0000
# 4 0.0000 0.0000 0.0000 19.4382 0.0000 0.0000
# 5 0.0000 0.0000 0.0000 0.0000 35.7434 0.0000
# 6 0.0000 0.0000 0.0000 0.0000 0.0000 35.3225
#
#
#
# Elastic Compliance Matrix: (Units=1/GPa)
#
#
# Indices 1 2 3 4 5 6 
#
# 1 0.009418 -0.002125 -0.000729 0.000000 0.000000 0.000000
# 2 -0.002125 0.013639 -0.000302 0.000000 0.000000 0.000000
# 3 -0.000729 -0.000302 0.011847 0.000000 0.000000 0.000000
# 4 0.000000 0.000000 0.000000 0.051445 0.000000 0.000000
# 5 0.000000 0.000000 0.000000 0.000000 0.027977 0.000000
# 6 0.000000 0.000000 0.000000 0.000000 0.000000 0.028311
#
#
# Mechanical properties :
#
#
# Convention : Reuss Voigt Hill
#
# Bulk Modulus (GPa) = 34.97547 36.33739 35.65643
# Shear Modulus (GPa) = 31.54967 34.36917 32.95942
#
# Velocity S-wave (km/s) = 3.55203 3.70735 3.63052
# Velocity P-wave (km/s) = 5.55063 5.73215 5.64212
#
# Compressibility (1/GPa) = 0.02859147
#
# Stress axis : x y z
#
# Youngs Moduli (GPa) = 106.17404 73.31941 84.41160
#
# Poissons Ratio (x) = 0.15582 0.06156
# Poissons Ratio (y) = 0.22564 0.02548
# Poissons Ratio (z) = 0.07744 0.02213
#
# Static dielectric constant tensor:
#      x y z
#    x 2.084400 0.000000 0.000000 
#    y 0.000000 1.998200 0.000000 
#    z 0.000000 0.000000 2.009440 
# 
# From -- ./inp_files/2208.got.cif
#   From: 2010.05.17/outbox.cif.g08.bks.cpg/sg56_2_cif.got.tgz:2208.got - 2010.06.03 13:42:01.
