data_PCOD9431687
_publ_section_title
;
Structure prediction by ZEFSAII (Michael W. Deem and Ramdas Pophale) SiO2 
 PCOD9431687
Probable space group: P C C N
;
_chemical_formula_sum "Si O2"
_cell_formula_units_Z 56
_cell_length_a 21.004795
_cell_length_b 8.789631
_cell_length_c 13.366613
_cell_angle_alpha 90.000000
_cell_angle_beta 90.000000
_cell_angle_gamma 90.000000
_cell_volume 2467.802869
_symmetry_space_group_name_H-M "P C C N"
_symmetry_group_IT_number 56
_symmetry_cell_setting 'orthorhombic'
loop_
_space_group_symop_operation_xyz
x,y,z
1/2-x,1/2-y,z
1/2+x,-y,1/2-z
-x,1/2+y,1/2-z
-x,-y,-z
1/2+x,1/2+y,-z
1/2-x,y,1/2+z
x,1/2-y,1/2+z
loop_
_atom_site_type_symbol
_atom_site_label
_atom_site_fract_x
_atom_site_fract_y
_atom_site_fract_z
Si Si1 0.305386 0.342758 0.706003
Si Si2 0.995355 0.095439 0.150536
Si Si3 0.919115 0.655234 0.538726
Si Si4 0.791275 0.494701 0.596698
Si Si5 0.302503 0.878437 0.067712
Si Si6 0.600112 0.893771 0.193227
Si Si7 0.129157 0.789108 0.383217
O O1 0.250000 0.250000 0.650026
O O2 0.274890 0.402756 0.809379
O O3 0.323926 0.494808 0.646471
O O4 0.360932 0.228705 0.740292
O O5 0.032223 0.084001 0.254036
O O6 0.938083 0.215081 0.144779
O O7 0.046680 0.142008 0.066534
O O8 0.963774 0.936412 0.116981
O O9 0.851476 0.570354 0.540745
O O10 0.908627 0.821193 0.583603
O O11 0.736164 0.466452 0.518986
O O12 0.816692 0.334311 0.639489
O O13 0.250000 0.750000 0.102066
O O14 0.361134 0.809356 0.003722
O O15 0.633910 0.055380 0.178276
#
# Coordination Sequence:
#
# PCOD9431687 Si02
#       7
#     8   8   8   8   8   8   8
#     4  11  25  40  63  97 123 167 207 261 323 387
#     4  10  21  41  61  91 126 173 216 257 323 381
#     4   9  21  40  60  88 128 165 210 268 318 379
#     4   9  21  45  64  88 132 164 211 266 325 386
#     4  10  23  42  65  92 125 167 210 262 322 384
#     4  11  23  38  63  94 126 167 214 263 322 376
#     4  10  22  42  65  94 129 170 214 271 316 386
#
# _framework density 22.692250999999999
#
# number of rings (size 3 to 8) (size 9 to 14) (size 15 to 20)
#    0.000    2.000    0.000    1.714    4.000    5.143 
#   15.429    0.000    0.000    0.000    0.000    0.000 
#    0.000    0.000    0.000    0.000    0.000    0.000 
#
# Total GULP energy -312990.999882 kJ/mol
# GULP energy per Si atom -5589.124998 kJ/mol
# Density = 2.264060 g / cm^3
# Si number density = 22.692251 Si / 1000 Ang^3
#
#
#
# Elastic Constant Matrix: (Units=GPa)
#
#
# Indices 1 2 3 4 5 6 
#
# 1 56.7696 5.6653 12.0348 0.0000 0.0000 0.0000
# 2 5.6653 114.2406 33.7839 0.0000 0.0000 0.0000
# 3 12.0348 33.7839 28.9073 0.0000 0.0000 0.0000
# 4 0.0000 0.0000 0.0000 36.8737 0.0000 0.0000
# 5 0.0000 0.0000 0.0000 0.0000 22.2027 0.0000
# 6 0.0000 0.0000 0.0000 0.0000 0.0000 20.6248
#
#
#
# Elastic Compliance Matrix: (Units=1/GPa)
#
#
# Indices 1 2 3 4 5 6 
#
# 1 0.019679 0.002211 -0.010777 0.000000 0.000000 0.000000
# 2 0.002211 0.013625 -0.016844 0.000000 0.000000 0.000000
# 3 -0.010777 -0.016844 0.058766 0.000000 0.000000 0.000000
# 4 0.000000 0.000000 0.000000 0.027120 0.000000 0.000000
# 5 0.000000 0.000000 0.000000 0.000000 0.045040 0.000000
# 6 0.000000 0.000000 0.000000 0.000000 0.000000 0.048485
#
#
# Mechanical properties :
#
#
# Convention : Reuss Voigt Hill
#
# Bulk Modulus (GPa) = 24.24254 33.65395 28.94824
# Shear Modulus (GPa) = 18.03203 25.83580 21.93392
#
# Velocity S-wave (km/s) = 2.82198 3.37787 3.11236
# Velocity P-wave (km/s) = 4.61784 5.48417 5.06955
#
# Compressibility (1/GPa) = 0.04124981
#
# Stress axis : x y z
#
# Youngs Moduli (GPa) = 50.81541 73.39425 17.01673
#
# Poissons Ratio (x) = -0.16229 0.18339
# Poissons Ratio (y) = -0.11236 0.28663
# Poissons Ratio (z) = 0.54764 1.23626
#
# Static dielectric constant tensor:
#      x y z
#    x 1.931200 0.000000 0.000000 
#    y 0.000000 1.863080 0.000000 
#    z 0.000000 0.000000 1.842110 
# 
# From -- ./inp_files/13089.got.cif
#   From: 2010.05.17/outbox.cif.g08.bks.cpg/sg56_7_cif.got.tgz:13089.got - 2010.06.03 13:42:01.
