data_PCOD9431513
_publ_section_title
;
Structure prediction by ZEFSAII (Michael W. Deem and Ramdas Pophale) SiO2 
 PCOD9431513
Probable space group: P C C N
;
_chemical_formula_sum "Si O2"
_cell_formula_units_Z 32
_cell_length_a 7.832953
_cell_length_b 13.733403
_cell_length_c 14.297954
_cell_angle_alpha 90.000000
_cell_angle_beta 90.000000
_cell_angle_gamma 90.000000
_cell_volume 1538.075239
_symmetry_space_group_name_H-M "P C C N"
_symmetry_group_IT_number 56
_symmetry_cell_setting 'orthorhombic'
loop_
_space_group_symop_operation_xyz
x,y,z
1/2-x,1/2-y,z
1/2+x,-y,1/2-z
-x,1/2+y,1/2-z
-x,-y,-z
1/2+x,1/2+y,-z
1/2-x,y,1/2+z
x,1/2-y,1/2+z
loop_
_atom_site_type_symbol
_atom_site_label
_atom_site_fract_x
_atom_site_fract_y
_atom_site_fract_z
Si Si1 0.597556 0.981054 0.596454
Si Si2 0.569508 0.303078 0.811001
Si Si3 0.125020 0.172694 0.460084
Si Si4 0.657131 0.344416 0.605639
O O1 0.467109 0.914475 0.656306
O O2 0.758802 0.912851 0.577155
O O3 0.500000 0.000000 0.500000
O O4 0.691351 0.079576 0.630711
O O5 0.750000 0.250000 0.827978
O O6 0.558719 0.310794 0.699030
O O7 0.446656 0.234723 0.872544
O O8 0.250000 0.250000 0.512556
O O9 0.979554 0.129081 0.526741
O O10 0.750000 0.250000 0.564653
#
# Coordination Sequence:
#
# PCOD9431513 Si02
#       4
#     8   8   8   8
#     4  11  23  39  63  91 123 165 208 257 316 376
#     4  10  23  41  61  89 125 160 205 259 311 376
#     4  10  21  39  62  87 123 165 203 254 313 370
#     4  11  23  39  63  91 122 162 205 254 311 372
#
# _framework density 20.805223000000002
#
# number of rings (size 3 to 8) (size 9 to 14) (size 15 to 20)
#    0.000    1.500    0.000    6.000    0.000    9.000 
#    0.000    0.000    0.000    0.000    0.000    0.000 
#    0.000    0.000    0.000    0.000    0.000    0.000 
#
# Total GULP energy -178262.314604 kJ/mol
# GULP energy per Si atom -5570.697331 kJ/mol
# Density = 2.075787 g / cm^3
# Si number density = 20.805223 Si / 1000 Ang^3
#
#
#
# Elastic Constant Matrix: (Units=GPa)
#
#
# Indices 1 2 3 4 5 6 
#
# 1 69.2592 30.6750 26.3655 0.0000 0.0000 0.0000
# 2 30.6750 98.5765 4.0366 0.0000 0.0000 0.0000
# 3 26.3655 4.0366 86.3035 0.0000 0.0000 0.0000
# 4 0.0000 0.0000 0.0000 13.9605 0.0000 0.0000
# 5 0.0000 0.0000 0.0000 0.0000 7.8132 0.0000
# 6 0.0000 0.0000 0.0000 0.0000 0.0000 39.4622
#
#
#
# Elastic Compliance Matrix: (Units=1/GPa)
#
#
# Indices 1 2 3 4 5 6 
#
# 1 0.019086 -0.005711 -0.005564 0.000000 0.000000 0.000000
# 2 -0.005711 0.011873 0.001189 0.000000 0.000000 0.000000
# 3 -0.005564 0.001189 0.013231 0.000000 0.000000 0.000000
# 4 0.000000 0.000000 0.000000 0.071631 0.000000 0.000000
# 5 0.000000 0.000000 0.000000 0.000000 0.127988 0.000000
# 6 0.000000 0.000000 0.000000 0.000000 0.000000 0.025341
#
#
# Mechanical properties :
#
#
# Convention : Reuss Voigt Hill
#
# Bulk Modulus (GPa) = 41.63359 41.81039 41.72199
# Shear Modulus (GPa) = 16.81651 25.11798 20.96724
#
# Velocity S-wave (km/s) = 2.84612 3.47838 3.17801
# Velocity P-wave (km/s) = 5.55473 6.02262 5.79340
#
# Compressibility (1/GPa) = 0.02401907
#
# Stress axis : x y z
#
# Youngs Moduli (GPa) = 52.39432 84.22494 75.57976
#
# Poissons Ratio (x) = 0.48104 0.42050
# Poissons Ratio (y) = 0.29924 -0.08990
# Poissons Ratio (z) = 0.29150 -0.10018
#
# Static dielectric constant tensor:
#      x y z
#    x 1.843580 0.000000 0.000000 
#    y 0.000000 1.794890 0.000000 
#    z 0.000000 0.000000 1.739090 
# 
# From -- ./inp_files/10049.got.cif
#   From: 2010.05.17/outbox.cif.g08.bks.cpg/sg56_6_cif.got.tgz:10049.got - 2010.06.03 13:42:01.
