data_PCOD9431699
_publ_section_title
;
Structure prediction by ZEFSAII (Michael W. Deem and Ramdas Pophale) SiO2 
 PCOD9431699
Probable space group: P C C N
;
_chemical_formula_sum "Si O2"
_cell_formula_units_Z 64
_cell_length_a 9.027070
_cell_length_b 26.712021
_cell_length_c 13.952908
_cell_angle_alpha 90.000000
_cell_angle_beta 90.000000
_cell_angle_gamma 90.000000
_cell_volume 3364.482613
_symmetry_space_group_name_H-M "P C C N"
_symmetry_group_IT_number 56
_symmetry_cell_setting 'orthorhombic'
loop_
_space_group_symop_operation_xyz
x,y,z
1/2-x,1/2-y,z
1/2+x,-y,1/2-z
-x,1/2+y,1/2-z
-x,-y,-z
1/2+x,1/2+y,-z
1/2-x,y,1/2+z
x,1/2-y,1/2+z
loop_
_atom_site_type_symbol
_atom_site_label
_atom_site_fract_x
_atom_site_fract_y
_atom_site_fract_z
Si Si1 0.002639 0.538853 0.214234
Si Si2 0.673702 0.419652 0.461719
Si Si3 0.064756 0.616213 0.652094
Si Si4 0.263811 0.375017 0.305319
Si Si5 0.914976 0.231666 0.828138
Si Si6 0.862427 0.706054 0.839332
Si Si7 0.973135 0.822727 0.545993
Si Si8 0.693188 0.442916 0.683885
O O1 0.080283 0.545026 0.109749
O O2 0.137512 0.544666 0.288528
O O3 0.882786 0.583321 0.224311
O O4 0.913662 0.487412 0.219231
O O5 0.840842 0.415379 0.423230
O O6 0.600064 0.364926 0.448307
O O7 0.670711 0.435227 0.571567
O O8 0.079415 0.675228 0.631399
O O9 0.142726 0.605302 0.754594
O O10 0.892633 0.602588 0.660048
O O11 0.221848 0.337508 0.219380
O O12 0.336127 0.343879 0.392130
O O13 0.750000 0.250000 0.804701
O O14 0.016434 0.228678 0.733640
O O15 0.978120 0.271340 0.903976
O O16 0.750000 0.750000 0.865119
O O17 0.932644 0.685128 0.935892
#
# Coordination Sequence:
#
# PCOD9431699 Si02
#       8
#     8   8   8   8   8   8   8   8
#     4  10  23  41  68  91 127 162 201 261 315 379
#     4  10  21  41  62  94 122 161 205 257 306 374
#     4  10  22  38  63  89 123 165 204 255 307 365
#     4  10  22  43  60  89 129 166 204 262 313 368
#     4  11  22  42  60  86 129 165 209 261 307 367
#     4  11  24  37  62  91 122 169 216 252 309 373
#     4  11  23  40  58  90 128 165 208 257 314 365
#     4  11  22  42  66  93 125 158 211 252 320 372
#
# _framework density 19.022238999999999
#
# number of rings (size 3 to 8) (size 9 to 14) (size 15 to 20)
#    0.000    1.500    2.500    2.625    3.500    1.500 
#    2.250    8.125    0.000    0.000    0.000    0.000 
#    0.000    0.000    0.000    0.000    0.000    0.000 
#
# Total GULP energy -357510.903648 kJ/mol
# GULP energy per Si atom -5586.107869 kJ/mol
# Density = 1.897894 g / cm^3
# Si number density = 19.022239 Si / 1000 Ang^3
#
#
#
# Elastic Constant Matrix: (Units=GPa)
#
#
# Indices 1 2 3 4 5 6 
#
# 1 122.7950 38.6582 19.9546 0.0000 0.0000 0.0000
# 2 38.6582 65.2271 20.6787 0.0000 0.0000 0.0000
# 3 19.9546 20.6787 91.8698 0.0000 0.0000 0.0000
# 4 0.0000 0.0000 0.0000 -8.5636 0.0000 0.0000
# 5 0.0000 0.0000 0.0000 0.0000 11.5861 0.0000
# 6 0.0000 0.0000 0.0000 0.0000 0.0000 30.1943
#
#
#
# Elastic Compliance Matrix: (Units=1/GPa)
#
#
# Indices 1 2 3 4 5 6 
#
# 1 0.010082 -0.005687 -0.000910 0.000000 0.000000 0.000000
# 2 -0.005687 0.019717 -0.003203 0.000000 0.000000 0.000000
# 3 -0.000910 -0.003203 0.011803 0.000000 0.000000 0.000000
# 4 0.000000 0.000000 0.000000 -0.116773 0.000000 0.000000
# 5 0.000000 0.000000 0.000000 0.000000 0.086310 0.000000
# 6 0.000000 0.000000 0.000000 0.000000 0.000000 0.033119
#
#
# Mechanical properties :
#
#
# Convention : Reuss Voigt Hill
#
# Bulk Modulus (GPa) = 45.44759 48.71942 47.08350
# Shear Modulus (GPa) = 70.23332 20.01673 45.12503
#
# Velocity S-wave (km/s) = 6.08291 3.24741 4.87583
# Velocity P-wave (km/s) = 8.56034 6.30304 7.51691
#
# Compressibility (1/GPa) = 0.02200337
#
# Stress axis : x y z
#
# Youngs Moduli (GPa) = 99.18867 50.71820 84.72069
#
# Poissons Ratio (x) = 0.28842 0.07708
# Poissons Ratio (y) = 0.56406 0.27134
# Poissons Ratio (z) = 0.09024 0.16244
#
# Static dielectric constant tensor:
#      x y z
#    x 1.660720 0.000000 0.000000 
#    y 0.000000 1.661500 0.000000 
#    z 0.000000 0.000000 1.627710 
# 
# From -- ./inp_files/6610.got.cif
#   From: 2010.05.17/outbox.cif.g08.bks.cpg/sg56_4_cif.got.tgz:6610.got - 2010.06.03 13:42:01.
