data_PCOD9431978
_publ_section_title
;
Structure prediction by ZEFSAII (Michael W. Deem and Ramdas Pophale) SiO2 
 PCOD9431978
Probable space group: P C C N
;
_chemical_formula_sum "Si O2"
_cell_formula_units_Z 60
_cell_length_a 11.096081
_cell_length_b 24.977264
_cell_length_c 9.702738
_cell_angle_alpha 90.000000
_cell_angle_beta 90.000000
_cell_angle_gamma 90.000000
_cell_volume 2689.111358
_symmetry_space_group_name_H-M "P C C N"
_symmetry_group_IT_number 56
_symmetry_cell_setting 'orthorhombic'
loop_
_space_group_symop_operation_xyz
x,y,z
1/2-x,1/2-y,z
1/2+x,-y,1/2-z
-x,1/2+y,1/2-z
-x,-y,-z
1/2+x,1/2+y,-z
1/2-x,y,1/2+z
x,1/2-y,1/2+z
loop_
_atom_site_type_symbol
_atom_site_label
_atom_site_fract_x
_atom_site_fract_y
_atom_site_fract_z
Si Si1 0.415841 0.665328 0.549279
Si Si2 0.609078 0.978127 0.411966
Si Si3 0.069193 0.839458 0.848636
Si Si4 0.612745 0.633149 0.335760
Si Si5 0.527525 0.474222 0.646314
Si Si6 0.250000 0.750000 0.937806
Si Si7 0.156725 0.358594 0.484368
Si Si8 0.755922 0.424769 0.529674
O O1 0.482486 0.659724 0.694093
O O2 0.494572 0.656342 0.412243
O O3 0.348604 0.720848 0.530716
O O4 0.311915 0.620174 0.558917
O O5 0.642524 0.920930 0.471057
O O6 0.500000 0.000000 0.500000
O O7 0.557838 0.980382 0.257470
O O8 0.709725 0.023196 0.441489
O O9 0.176021 0.795431 0.855751
O O10 0.131995 0.894719 0.899327
O O11 0.958060 0.828698 0.950012
O O12 0.577821 0.569271 0.324542
O O13 0.648075 0.648356 0.179968
O O14 0.718082 0.652534 0.438713
O O15 0.500000 0.500000 0.500000
O O16 0.654000 0.442596 0.637159
#
# Coordination Sequence:
#
# PCOD9431978 Si02
#       8
#     8   8   8   8   8   4   8   8
#     4  10  23  43  71 100 136 166 225 273 348 400
#     4  12  23  38  58  90 132 179 232 272 322 382
#     4  11  22  42  70 100 129 173 212 277 338 401
#     4  11  25  44  61  94 129 182 218 278 329 398
#     4  11  24  38  58  88 126 173 229 275 323 380
#     4  10  24  44  76 110 132 160 212 278 346 414
#     4  12  26  42  66  91 140 180 232 274 334 394
#     4  10  22  38  62  92 133 172 224 275 326 387
#
# _framework density 22.312204999999999
#
# number of rings (size 3 to 8) (size 9 to 14) (size 15 to 20)
#    0.000    1.067    2.667    2.800    7.467    7.467 
#    0.000    0.667    0.000    3.200    0.000    0.000 
#    0.000    0.000    0.000    0.000    0.000    0.000 
#
# Total GULP energy -334958.261806 kJ/mol
# GULP energy per Si atom -5582.637697 kJ/mol
# Density = 2.226142 g / cm^3
# Si number density = 22.312205 Si / 1000 Ang^3
#
#
#
# Elastic Constant Matrix: (Units=GPa)
#
#
# Indices 1 2 3 4 5 6 
#
# 1 97.6284 10.6532 38.5591 0.0000 0.0000 0.0000
# 2 10.6532 54.1273 12.1053 0.0000 0.0000 0.0000
# 3 38.5591 12.1053 171.0200 0.0000 0.0000 0.0000
# 4 0.0000 0.0000 0.0000 10.0249 0.0000 0.0000
# 5 0.0000 0.0000 0.0000 0.0000 29.1371 0.0000
# 6 0.0000 0.0000 0.0000 0.0000 0.0000 23.3042
#
#
#
# Elastic Compliance Matrix: (Units=1/GPa)
#
#
# Indices 1 2 3 4 5 6 
#
# 1 0.011395 -0.001695 -0.002449 0.000000 0.000000 0.000000
# 2 -0.001695 0.019024 -0.000964 0.000000 0.000000 0.000000
# 3 -0.002449 -0.000964 0.006468 0.000000 0.000000 0.000000
# 4 0.000000 0.000000 0.000000 0.099752 0.000000 0.000000
# 5 0.000000 0.000000 0.000000 0.000000 0.034320 0.000000
# 6 0.000000 0.000000 0.000000 0.000000 0.000000 0.042911
#
#
# Mechanical properties :
#
#
# Convention : Reuss Voigt Hill
#
# Bulk Modulus (GPa) = 37.49553 49.49012 43.49282
# Shear Modulus (GPa) = 21.46130 29.92379 25.69255
#
# Velocity S-wave (km/s) = 3.10476 3.66613 3.39706
# Velocity P-wave (km/s) = 5.44923 6.33637 5.90947
#
# Compressibility (1/GPa) = 0.02666985
#
# Stress axis : x y z
#
# Youngs Moduli (GPa) = 87.75600 52.56448 154.61315
#
# Poissons Ratio (x) = 0.08910 0.37869
# Poissons Ratio (y) = 0.14875 0.14911
# Poissons Ratio (z) = 0.21494 0.05069
#
# Static dielectric constant tensor:
#      x y z
#    x 1.885060 0.000000 0.000000 
#    y 0.000000 1.858230 0.000000 
#    z 0.000000 0.000000 1.798470 
# 
# From -- ./inp_files/2905.got.cif
#   From: 2010.05.17/outbox.cif.g08.bks.cpg/sg56_2_cif.got.tgz:2905.got - 2010.06.03 13:42:01.
