data_PCOD9431700
_publ_section_title
;
Structure prediction by ZEFSAII (Michael W. Deem and Ramdas Pophale) SiO2 
 PCOD9431700
Probable space group: P C C N
;
_chemical_formula_sum "Si O2"
_cell_formula_units_Z 40
_cell_length_a 20.732900
_cell_length_b 16.442449
_cell_length_c 5.088705
_cell_angle_alpha 90.000000
_cell_angle_beta 90.000000
_cell_angle_gamma 90.000000
_cell_volume 1734.737758
_symmetry_space_group_name_H-M "P C C N"
_symmetry_group_IT_number 56
_symmetry_cell_setting 'orthorhombic'
loop_
_space_group_symop_operation_xyz
x,y,z
1/2-x,1/2-y,z
1/2+x,-y,1/2-z
-x,1/2+y,1/2-z
-x,-y,-z
1/2+x,1/2+y,-z
1/2-x,y,1/2+z
x,1/2-y,1/2+z
loop_
_atom_site_type_symbol
_atom_site_label
_atom_site_fract_x
_atom_site_fract_y
_atom_site_fract_z
Si Si1 0.776530 0.160251 0.916007
Si Si2 0.599869 0.804434 0.724951
Si Si3 0.295707 0.058494 0.272016
Si Si4 0.522055 0.417288 0.644297
Si Si5 0.105256 0.589832 0.339350
O O1 0.750000 0.250000 0.860074
O O2 0.729389 0.120223 0.131576
O O3 0.846456 0.156592 0.039241
O O4 0.598129 0.769495 0.431061
O O5 0.663588 0.858718 0.758001
O O6 0.538286 0.860582 0.789498
O O7 0.257604 0.054552 0.545570
O O8 0.349380 0.986927 0.269998
O O9 0.500000 0.500000 0.500000
O O10 0.568736 0.379944 0.419953
O O11 0.441335 0.566709 0.081549
#
# Coordination Sequence:
#
# PCOD9431700 Si02
#       5
#     8   8   8   8   8
#     4  10  21  41  62  95 144 185 223 287 345 410
#     4  12  28  50  72 107 153 189 247 317 374 447
#     4  12  26  44  77 109 141 190 246 304 381 447
#     4  12  26  48  77 106 141 198 246 305 367 435
#     4  12  24  44  76 106 145 188 250 297 359 441
#
# _framework density 23.058239
#
# number of rings (size 3 to 8) (size 9 to 14) (size 15 to 20)
#    0.000    0.400    2.000    6.600    2.800    2.400 
#   21.600    0.000    0.000    0.000    0.000    0.000 
#    0.000    0.000    0.000    0.000    0.000    0.000 
#
# Total GULP energy -223956.984146 kJ/mol
# GULP energy per Si atom -5598.924604 kJ/mol
# Density = 2.300576 g / cm^3
# Si number density = 23.058239 Si / 1000 Ang^3
#
#
#
# Elastic Constant Matrix: (Units=GPa)
#
#
# Indices 1 2 3 4 5 6 
#
# 1 101.6044 31.2563 25.9168 0.0000 0.0000 0.0000
# 2 31.2563 66.1610 -7.0177 0.0000 0.0000 0.0000
# 3 25.9168 -7.0177 133.4652 0.0000 0.0000 0.0000
# 4 0.0000 0.0000 0.0000 33.5142 0.0000 0.0000
# 5 0.0000 0.0000 0.0000 0.0000 59.8716 0.0000
# 6 0.0000 0.0000 0.0000 0.0000 0.0000 47.4427
#
#
#
# Elastic Compliance Matrix: (Units=1/GPa)
#
#
# Indices 1 2 3 4 5 6 
#
# 1 0.012438 -0.006167 -0.002739 0.000000 0.000000 0.000000
# 2 -0.006167 0.018257 0.002157 0.000000 0.000000 0.000000
# 3 -0.002739 0.002157 0.008138 0.000000 0.000000 0.000000
# 4 0.000000 0.000000 0.000000 0.029838 0.000000 0.000000
# 5 0.000000 0.000000 0.000000 0.000000 0.016702 0.000000
# 6 0.000000 0.000000 0.000000 0.000000 0.000000 0.021078
#
#
# Mechanical properties :
#
#
# Convention : Reuss Voigt Hill
#
# Bulk Modulus (GPa) = 39.47060 44.61570 42.04315
# Shear Modulus (GPa) = 38.94275 44.90404 41.92340
#
# Velocity S-wave (km/s) = 4.11407 4.41774 4.26861
# Velocity P-wave (km/s) = 6.30256 6.73892 6.52439
#
# Compressibility (1/GPa) = 0.02533531
#
# Stress axis : x y z
#
# Youngs Moduli (GPa) = 80.39963 54.77429 122.88046
#
# Poissons Ratio (x) = 0.33777 0.33663
# Poissons Ratio (y) = 0.49579 -0.26510
# Poissons Ratio (z) = 0.22025 -0.11817
#
# Static dielectric constant tensor:
#      x y z
#    x 1.880720 0.000000 0.000000 
#    y 0.000000 1.984560 0.000000 
#    z 0.000000 0.000000 1.910420 
# 
# From -- ./inp_files/639.got.cif
#   From: 2010.05.17/outbox.cif.g08.bks.cpg/sg56_1_cif.got.tgz:639.got - 2010.06.03 13:42:01.
