data_PCOD9431386
_publ_section_title
;
Structure prediction by ZEFSAII (Michael W. Deem and Ramdas Pophale) SiO2 
 PCOD9431386
Probable space group: P C C N
;
_chemical_formula_sum "Si O2"
_cell_formula_units_Z 64
_cell_length_a 14.036311
_cell_length_b 7.622987
_cell_length_c 24.211030
_cell_angle_alpha 90.000000
_cell_angle_beta 90.000000
_cell_angle_gamma 90.000000
_cell_volume 2590.546709
_symmetry_space_group_name_H-M "P C C N"
_symmetry_group_IT_number 56
_symmetry_cell_setting 'orthorhombic'
loop_
_space_group_symop_operation_xyz
x,y,z
1/2-x,1/2-y,z
1/2+x,-y,1/2-z
-x,1/2+y,1/2-z
-x,-y,-z
1/2+x,1/2+y,-z
1/2-x,y,1/2+z
x,1/2-y,1/2+z
loop_
_atom_site_type_symbol
_atom_site_label
_atom_site_fract_x
_atom_site_fract_y
_atom_site_fract_z
Si Si1 0.985255 0.756979 0.747814
Si Si2 0.863912 0.449202 0.803245
Si Si3 0.356722 0.729953 0.896836
Si Si4 0.103664 0.181553 0.490737
Si Si5 0.790739 0.953538 0.878998
Si Si6 0.509845 0.017872 0.907186
Si Si7 0.788110 0.033772 0.999189
Si Si8 0.998979 0.472391 0.340384
O O1 0.916773 0.625232 0.781556
O O2 0.100268 0.793832 0.736990
O O3 0.960823 0.711099 0.684107
O O4 0.968423 0.936166 0.781499
O O5 0.756286 0.477117 0.822020
O O6 0.912629 0.431011 0.863203
O O7 0.250000 0.750000 0.874131
O O8 0.423507 0.897405 0.885172
O O9 0.414858 0.572679 0.869127
O O10 0.337709 0.678286 0.961827
O O11 0.192418 0.054185 0.475381
O O12 0.139445 0.372781 0.502569
O O13 0.055583 0.102721 0.544961
O O14 0.031484 0.181849 0.440114
O O15 0.750000 0.750000 0.885034
O O16 0.763312 0.057880 0.934921
O O17 0.903663 0.989403 0.874607
#
# Coordination Sequence:
#
# PCOD9431386 Si02
#       8
#     8   8   8   8   8   8   8   8
#     4  10  24  46  68  98 133 170 236 289 346 410
#     4  11  22  44  72  99 135 175 230 292 338 415
#     4  12  25  43  62  99 143 181 215 285 351 412
#     4  10  21  37  65  91 126 177 229 269 320 417
#     4  12  21  43  73 101 130 183 225 285 345 407
#     4  11  21  41  63  91 132 183 213 277 351 396
#     4  11  22  40  64  99 132 173 234 267 331 421
#     4  11  25  47  68  98 137 177 231 287 347 414
#
# _framework density 24.705210999999998
#
# number of rings (size 3 to 8) (size 9 to 14) (size 15 to 20)
#    0.000    1.000    6.250    0.750    1.750    2.500 
#    9.000    1.250    0.000    0.000    0.000    0.000 
#    0.000    0.000    0.000    0.000    0.000    0.000 
#
# Total GULP energy -356535.631700 kJ/mol
# GULP energy per Si atom -5570.869245 kJ/mol
# Density = 2.464898 g / cm^3
# Si number density = 24.705211 Si / 1000 Ang^3
#
#
#
# Elastic Constant Matrix: (Units=GPa)
#
#
# Indices 1 2 3 4 5 6 
#
# 1 122.9103 7.3640 17.8637 0.0000 0.0000 0.0000
# 2 7.3640 69.8155 1.7138 0.0000 0.0000 0.0000
# 3 17.8637 1.7138 56.7862 0.0000 0.0000 0.0000
# 4 0.0000 0.0000 0.0000 24.6486 0.0000 0.0000
# 5 0.0000 0.0000 0.0000 0.0000 46.0137 0.0000
# 6 0.0000 0.0000 0.0000 0.0000 0.0000 27.7018
#
#
#
# Elastic Compliance Matrix: (Units=1/GPa)
#
#
# Indices 1 2 3 4 5 6 
#
# 1 0.008575 -0.000839 -0.002672 0.000000 0.000000 0.000000
# 2 -0.000839 0.014416 -0.000171 0.000000 0.000000 0.000000
# 3 -0.002672 -0.000171 0.018456 0.000000 0.000000 0.000000
# 4 0.000000 0.000000 0.000000 0.040570 0.000000 0.000000
# 5 0.000000 0.000000 0.000000 0.000000 0.021733 0.000000
# 6 0.000000 0.000000 0.000000 0.000000 0.000000 0.036099
#
#
# Mechanical properties :
#
#
# Convention : Reuss Voigt Hill
#
# Bulk Modulus (GPa) = 29.34085 33.71058 31.52571
# Shear Modulus (GPa) = 31.53122 34.51086 33.02104
#
# Velocity S-wave (km/s) = 3.57641 3.74158 3.65992
# Velocity P-wave (km/s) = 5.38112 5.68688 5.53611
#
# Compressibility (1/GPa) = 0.03408218
#
# Stress axis : x y z
#
# Youngs Moduli (GPa) = 116.62311 69.36663 54.18393
#
# Poissons Ratio (x) = 0.05819 0.14478
# Poissons Ratio (y) = 0.09783 0.00928
# Poissons Ratio (z) = 0.31163 0.01188
#
# Static dielectric constant tensor:
#      x y z
#    x 1.987550 0.000000 0.000000 
#    y 0.000000 2.174090 0.000000 
#    z 0.000000 0.000000 1.986430 
# 
# From -- ./inp_files/21152.got.cif
#   From: 2010.05.17/outbox.cif.g08.bks.cpg/sg56_11_cif.got.tgz:21152.got - 2010.06.03 13:42:01.
