data_PCOD9431366
_publ_section_title
;
Structure prediction by ZEFSAII (Michael W. Deem and Ramdas Pophale) SiO2 
 PCOD9431366
Probable space group: P C C N
;
_chemical_formula_sum "Si O2"
_cell_formula_units_Z 64
_cell_length_a 19.594941
_cell_length_b 16.353812
_cell_length_c 8.945566
_cell_angle_alpha 90.000000
_cell_angle_beta 90.000000
_cell_angle_gamma 90.000000
_cell_volume 2866.624348
_symmetry_space_group_name_H-M "P C C N"
_symmetry_group_IT_number 56
_symmetry_cell_setting 'orthorhombic'
loop_
_space_group_symop_operation_xyz
x,y,z
1/2-x,1/2-y,z
1/2+x,-y,1/2-z
-x,1/2+y,1/2-z
-x,-y,-z
1/2+x,1/2+y,-z
1/2-x,y,1/2+z
x,1/2-y,1/2+z
loop_
_atom_site_type_symbol
_atom_site_label
_atom_site_fract_x
_atom_site_fract_y
_atom_site_fract_z
Si Si1 0.163933 0.976388 0.464034
Si Si2 0.733743 0.402560 0.820729
Si Si3 0.384071 0.354752 0.430919
Si Si4 0.410693 0.203036 0.232653
Si Si5 0.508265 0.928396 0.623903
Si Si6 0.186813 0.804368 0.911559
Si Si7 0.541950 0.200587 0.603983
Si Si8 0.473399 0.565751 0.643672
O O1 0.220131 0.969644 0.595277
O O2 0.188361 0.923245 0.323313
O O3 0.091608 0.952459 0.539879
O O4 0.159659 0.066586 0.395601
O O5 0.790294 0.341930 0.747121
O O6 0.685919 0.369635 0.954015
O O7 0.381192 0.278776 0.321885
O O8 0.366036 0.324869 0.594926
O O9 0.462288 0.388881 0.430341
O O10 0.423596 0.123030 0.334584
O O11 0.480764 0.240507 0.156177
O O12 0.469657 0.849861 0.550267
O O13 0.500000 0.000000 0.500000
O O14 0.499021 0.982901 0.774108
O O15 0.250000 0.750000 0.957269
O O16 0.115477 0.757848 0.903723
O O17 0.548777 0.129199 0.727505
#
# Coordination Sequence:
#
# PCOD9431366 Si02
#       8
#     8   8   8   8   8   8   8   8
#     4  11  22  45  68  93 128 166 230 283 324 401
#     4  10  25  42  64  91 123 178 234 274 322 380
#     4  11  24  40  67  98 134 174 215 278 348 401
#     4  11  22  40  60 101 133 172 208 271 358 400
#     4  10  21  37  61 100 135 170 217 264 341 400
#     4  11  23  41  60  89 130 185 225 265 318 389
#     4  10  22  38  60  95 144 172 213 274 322 411
#     4  10  21  39  67  98 132 174 220 272 339 399
#
# _framework density 22.325911000000001
#
# number of rings (size 3 to 8) (size 9 to 14) (size 15 to 20)
#    0.000    1.500    3.750    0.750    1.750    4.000 
#    0.000    2.500    0.000    2.250    0.000    0.000 
#    0.000    0.000    0.000    0.000    0.000    0.000 
#
# Total GULP energy -356679.074588 kJ/mol
# GULP energy per Si atom -5573.110540 kJ/mol
# Density = 2.227510 g / cm^3
# Si number density = 22.325911 Si / 1000 Ang^3
#
#
#
# Elastic Constant Matrix: (Units=GPa)
#
#
# Indices 1 2 3 4 5 6 
#
# 1 16.5720 -10.7749 12.7243 0.0000 0.0000 0.0000
# 2 -10.7749 68.8143 14.1518 0.0000 0.0000 0.0000
# 3 12.7243 14.1518 77.6861 0.0000 0.0000 0.0000
# 4 0.0000 0.0000 0.0000 37.1646 0.0000 0.0000
# 5 0.0000 0.0000 0.0000 0.0000 13.8203 0.0000
# 6 0.0000 0.0000 0.0000 0.0000 0.0000 18.2126
#
#
#
# Elastic Compliance Matrix: (Units=1/GPa)
#
#
# Indices 1 2 3 4 5 6 
#
# 1 0.084035 0.016611 -0.016790 0.000000 0.000000 0.000000
# 2 0.016611 0.018381 -0.006069 0.000000 0.000000 0.000000
# 3 -0.016790 -0.006069 0.016728 0.000000 0.000000 0.000000
# 4 0.000000 0.000000 0.000000 0.026907 0.000000 0.000000
# 5 0.000000 0.000000 0.000000 0.000000 0.072357 0.000000
# 6 0.000000 0.000000 0.000000 0.000000 0.000000 0.054907
#
#
# Mechanical properties :
#
#
# Convention : Reuss Voigt Hill
#
# Bulk Modulus (GPa) = 9.37670 21.69720 15.53695
# Shear Modulus (GPa) = 15.55884 23.63760 19.59822
#
# Velocity S-wave (km/s) = 2.64274 3.25738 2.96602
# Velocity P-wave (km/s) = 3.67711 4.88742 4.32481
#
# Compressibility (1/GPa) = 0.10664731
#
# Stress axis : x y z
#
# Youngs Moduli (GPa) = 11.89982 54.40416 59.78003
#
# Poissons Ratio (x) = -0.90371 1.00372
# Poissons Ratio (y) = -0.19767 0.36281
# Poissons Ratio (z) = 0.19980 0.33019
#
# Static dielectric constant tensor:
#      x y z
#    x 1.837400 0.000000 0.000000 
#    y 0.000000 1.897090 0.000000 
#    z 0.000000 0.000000 1.873280 
# 
# From -- ./inp_files/4559.got.cif
#   From: 2010.05.17/outbox.cif.g08.bks.cpg/sg56_3_cif.got.tgz:4559.got - 2010.06.03 13:42:01.
