data_PCOD9431134
_publ_section_title
;
Structure prediction by ZEFSAII (Michael W. Deem and Ramdas Pophale) SiO2 
 PCOD9431134
Probable space group: P C C N
;
_chemical_formula_sum "Si O2"
_cell_formula_units_Z 52
_cell_length_a 13.827115
_cell_length_b 13.039599
_cell_length_c 13.405601
_cell_angle_alpha 90.000000
_cell_angle_beta 90.000000
_cell_angle_gamma 90.000000
_cell_volume 2417.030329
_symmetry_space_group_name_H-M "P C C N"
_symmetry_group_IT_number 56
_symmetry_cell_setting 'orthorhombic'
loop_
_space_group_symop_operation_xyz
x,y,z
1/2-x,1/2-y,z
1/2+x,-y,1/2-z
-x,1/2+y,1/2-z
-x,-y,-z
1/2+x,1/2+y,-z
1/2-x,y,1/2+z
x,1/2-y,1/2+z
loop_
_atom_site_type_symbol
_atom_site_label
_atom_site_fract_x
_atom_site_fract_y
_atom_site_fract_z
Si Si1 0.732535 0.130425 0.954735
Si Si2 0.579361 0.833196 0.718372
Si Si3 0.536088 0.612996 0.765043
Si Si4 0.672185 0.031874 0.752408
Si Si5 0.832857 0.537206 0.090692
Si Si6 0.069099 0.541382 0.584160
Si Si7 0.250000 0.250000 0.423431
O O1 0.750000 0.250000 0.974850
O O2 0.709113 0.105130 0.839575
O O3 0.838260 0.084320 0.969660
O O4 0.657901 0.061258 0.018644
O O5 0.546966 0.733356 0.776150
O O6 0.490087 0.879860 0.654815
O O7 0.661583 0.792191 0.643306
O O8 0.628720 0.921204 0.784460
O O9 0.425546 0.584578 0.787323
O O10 0.574653 0.573061 0.657002
O O11 0.599683 0.552119 0.844841
O O12 0.753068 0.003719 0.671158
O O13 0.792351 0.640845 0.035316
O O14 0.000000 0.500000 0.500000
#
# Coordination Sequence:
#
# PCOD9431134 Si02
#       7
#     8   8   8   8   8   8   4
#     4  12  25  41  62  94 132 170 218 257 321 400
#     4   9  19  37  63  91 123 163 211 264 324 374
#     4  10  20  41  66  87 129 166 210 270 329 376
#     4  10  21  41  62  91 126 163 212 263 320 380
#     4  10  21  42  61  91 124 164 207 264 320 378
#     4  11  22  42  64  95 127 168 224 263 319 398
#     4   8  16  36  64  82 120 156 200 264 314 362
#
# _framework density 21.514005000000001
#
# number of rings (size 3 to 8) (size 9 to 14) (size 15 to 20)
#    0.000    1.846    1.538    3.692    0.000    1.231 
#   19.385    0.000    0.000    0.000    0.000    0.000 
#    0.000    0.000    0.000    0.000    0.000    0.000 
#
# Total GULP energy -289756.076492 kJ/mol
# GULP energy per Si atom -5572.232240 kJ/mol
# Density = 2.146504 g / cm^3
# Si number density = 21.514005 Si / 1000 Ang^3
#
#
#
# Elastic Constant Matrix: (Units=GPa)
#
#
# Indices 1 2 3 4 5 6 
#
# 1 36.3275 -23.8408 -8.0731 0.0000 0.0000 0.0000
# 2 -23.8408 125.2419 23.4566 0.0000 0.0000 0.0000
# 3 -8.0731 23.4566 43.9785 0.0000 0.0000 0.0000
# 4 0.0000 0.0000 0.0000 20.5233 0.0000 0.0000
# 5 0.0000 0.0000 0.0000 0.0000 39.3325 0.0000
# 6 0.0000 0.0000 0.0000 0.0000 0.0000 19.5701
#
#
#
# Elastic Compliance Matrix: (Units=1/GPa)
#
#
# Indices 1 2 3 4 5 6 
#
# 1 0.031786 0.005508 0.002897 0.000000 0.000000 0.000000
# 2 0.005508 0.009825 -0.004229 0.000000 0.000000 0.000000
# 3 0.002897 -0.004229 0.025526 0.000000 0.000000 0.000000
# 4 0.000000 0.000000 0.000000 0.048725 0.000000 0.000000
# 5 0.000000 0.000000 0.000000 0.000000 0.025424 0.000000
# 6 0.000000 0.000000 0.000000 0.000000 0.000000 0.051098
#
#
# Mechanical properties :
#
#
# Convention : Reuss Voigt Hill
#
# Bulk Modulus (GPa) = 13.24696 20.95925 17.10311
# Shear Modulus (GPa) = 23.90104 30.15220 27.02662
#
# Velocity S-wave (km/s) = 3.33671 3.74774 3.54818
# Velocity P-wave (km/s) = 4.58428 5.33767 4.97525
#
# Compressibility (1/GPa) = 0.07548904
#
# Stress axis : x y z
#
# Youngs Moduli (GPa) = 31.46037 101.77944 39.17584
#
# Poissons Ratio (x) = -0.56061 -0.11350
# Poissons Ratio (y) = -0.17329 0.16569
# Poissons Ratio (z) = -0.09114 0.43045
#
# Static dielectric constant tensor:
#      x y z
#    x 1.802260 0.000000 0.000000 
#    y 0.000000 1.795210 0.000000 
#    z 0.000000 0.000000 1.790880 
# 
# From -- ./inp_files/12265.got.cif
#   From: 2010.05.17/outbox.cif.g08.bks.cpg/sg56_7_cif.got.tgz:12265.got - 2010.06.03 13:42:01.
