data_PCOD9431307
_publ_section_title
;
Structure prediction by ZEFSAII (Michael W. Deem and Ramdas Pophale) SiO2 
 PCOD9431307
Probable space group: P C C N
;
_chemical_formula_sum "Si O2"
_cell_formula_units_Z 32
_cell_length_a 7.500830
_cell_length_b 6.497600
_cell_length_c 22.943709
_cell_angle_alpha 90.000000
_cell_angle_beta 90.000000
_cell_angle_gamma 90.000000
_cell_volume 1118.216563
_symmetry_space_group_name_H-M "P C C N"
_symmetry_group_IT_number 56
_symmetry_cell_setting 'orthorhombic'
loop_
_space_group_symop_operation_xyz
x,y,z
1/2-x,1/2-y,z
1/2+x,-y,1/2-z
-x,1/2+y,1/2-z
-x,-y,-z
1/2+x,1/2+y,-z
1/2-x,y,1/2+z
x,1/2-y,1/2+z
loop_
_atom_site_type_symbol
_atom_site_label
_atom_site_fract_x
_atom_site_fract_y
_atom_site_fract_z
Si Si1 0.070680 0.879426 0.701934
Si Si2 0.460647 0.243509 0.546907
Si Si3 0.539093 0.289628 0.417716
Si Si4 0.459342 0.810648 0.330182
O O1 0.250000 0.750000 0.708498
O O2 0.961644 0.772679 0.648762
O O3 0.002090 0.915833 0.767696
O O4 0.085117 0.108550 0.676181
O O5 0.250000 0.250000 0.545112
O O6 0.518539 0.191066 0.481724
O O7 0.522615 0.475887 0.563787
O O8 0.510971 0.109403 0.603944
O O9 0.750000 0.250000 0.407272
O O10 0.250000 0.750000 0.329416
#
# Coordination Sequence:
#
# PCOD9431307 Si02
#       4
#     8   8   8   8
#     4   9  20  39  61  87 120 158 200 250 304 361
#     4  10  21  36  57  85 116 153 197 246 298 354
#     4   9  19  38  57  79 114 152 196 245 295 353
#     4  10  21  39  63  90 121 158 200 248 304 365
#
# _framework density 28.616997000000001
#
# number of rings (size 3 to 8) (size 9 to 14) (size 15 to 20)
#    0.000    2.500    0.000    0.750    0.000   11.000 
#    0.000   16.250    0.000    0.000    0.000    0.000 
#    0.000    0.000    0.000    0.000    0.000    0.000 
#
# Total GULP energy -178472.407672 kJ/mol
# GULP energy per Si atom -5577.262740 kJ/mol
# Density = 2.855186 g / cm^3
# Si number density = 28.616997 Si / 1000 Ang^3
#
#
#
# Elastic Constant Matrix: (Units=GPa)
#
#
# Indices 1 2 3 4 5 6 
#
# 1 105.7062 -6.1539 39.9713 0.0000 0.0000 0.0000
# 2 -6.1539 46.8848 42.3750 0.0000 0.0000 0.0000
# 3 39.9713 42.3750 457.4866 0.0000 0.0000 0.0000
# 4 0.0000 0.0000 0.0000 64.1658 0.0000 0.0000
# 5 0.0000 0.0000 0.0000 0.0000 38.2491 0.0000
# 6 0.0000 0.0000 0.0000 0.0000 0.0000 27.6455
#
#
#
# Elastic Compliance Matrix: (Units=1/GPa)
#
#
# Indices 1 2 3 4 5 6 
#
# 1 0.010005 0.002295 -0.001087 0.000000 0.000000 0.000000
# 2 0.002295 0.023804 -0.002405 0.000000 0.000000 0.000000
# 3 -0.001087 -0.002405 0.002504 0.000000 0.000000 0.000000
# 4 0.000000 0.000000 0.000000 0.015585 0.000000 0.000000
# 5 0.000000 0.000000 0.000000 0.000000 0.026144 0.000000
# 6 0.000000 0.000000 0.000000 0.000000 0.000000 0.036172
#
#
# Mechanical properties :
#
#
# Convention : Reuss Voigt Hill
#
# Bulk Modulus (GPa) = 29.48203 84.71806 57.10004
# Shear Modulus (GPa) = 39.08884 61.60442 50.34663
#
# Velocity S-wave (km/s) = 3.69986 4.64478 4.19898
# Velocity P-wave (km/s) = 5.34571 7.64419 6.59584
#
# Compressibility (1/GPa) = 0.03391897
#
# Stress axis : x y z
#
# Youngs Moduli (GPa) = 99.95258 42.00940 399.42300
#
# Poissons Ratio (x) = -0.09643 0.43407
# Poissons Ratio (y) = -0.22943 0.96078
# Poissons Ratio (z) = 0.10862 0.10105
#
# Static dielectric constant tensor:
#      x y z
#    x 2.110380 0.000000 0.000000 
#    y 0.000000 2.610410 0.000000 
#    z 0.000000 0.000000 2.290950 
# 
# From -- ./inp_files/17769.got.cif
#   From: 2010.05.17/outbox.cif.g08.bks.cpg/sg56_9_cif.got.tgz:17769.got - 2010.06.03 13:42:01.
