data_PCOD9431391
_publ_section_title
;
Structure prediction by ZEFSAII (Michael W. Deem and Ramdas Pophale) SiO2 
 PCOD9431391
Probable space group: P C C N
;
_chemical_formula_sum "Si O2"
_cell_formula_units_Z 40
_cell_length_a 15.950186
_cell_length_b 5.638291
_cell_length_c 18.534430
_cell_angle_alpha 90.000000
_cell_angle_beta 90.000000
_cell_angle_gamma 90.000000
_cell_volume 1666.834470
_symmetry_space_group_name_H-M "P C C N"
_symmetry_group_IT_number 56
_symmetry_cell_setting 'orthorhombic'
loop_
_space_group_symop_operation_xyz
x,y,z
1/2-x,1/2-y,z
1/2+x,-y,1/2-z
-x,1/2+y,1/2-z
-x,-y,-z
1/2+x,1/2+y,-z
1/2-x,y,1/2+z
x,1/2-y,1/2+z
loop_
_atom_site_type_symbol
_atom_site_label
_atom_site_fract_x
_atom_site_fract_y
_atom_site_fract_z
Si Si1 0.588667 0.029489 0.089856
Si Si2 0.472363 0.421059 0.158310
Si Si3 0.205208 0.496868 0.162929
Si Si4 0.874932 0.766962 0.212211
Si Si5 0.422486 0.714291 0.556116
O O1 0.532096 0.201913 0.139177
O O2 0.650158 0.887207 0.142838
O O3 0.521350 0.850177 0.053847
O O4 0.619970 0.179129 0.021439
O O5 0.538168 0.612485 0.188317
O O6 0.403050 0.390425 0.219691
O O7 0.425314 0.522959 0.088349
O O8 0.250000 0.250000 0.139873
O O9 0.184291 0.455229 0.247959
O O10 0.122799 0.543113 0.114134
O O11 0.250000 0.750000 0.154362
#
# Coordination Sequence:
#
# PCOD9431391 Si02
#       5
#     8   8   8   8   8
#     4  10  21  37  69  99 131 165 212 310 356 401
#     4  11  18  35  68 101 136 167 209 304 351 412
#     4  12  27  45  69  90 137 196 238 274 324 426
#     4  11  21  37  64 100 134 167 231 275 357 401
#     4  10  22  40  62 101 130 170 233 272 362 407
#
# _framework density 23.997581
#
# number of rings (size 3 to 8) (size 9 to 14) (size 15 to 20)
#    0.000    1.200    4.000    3.000    2.800    0.000 
#    0.000    1.000    0.000    0.000    0.000    0.000 
#    0.000    0.000    0.000    0.000    0.000    0.000 
#
# Total GULP energy -223186.774829 kJ/mol
# GULP energy per Si atom -5579.669371 kJ/mol
# Density = 2.394296 g / cm^3
# Si number density = 23.997581 Si / 1000 Ang^3
#
#
#
# Elastic Constant Matrix: (Units=GPa)
#
#
# Indices 1 2 3 4 5 6 
#
# 1 39.9761 18.3043 -0.1052 0.0000 0.0000 0.0000
# 2 18.3043 83.1375 14.2641 0.0000 0.0000 0.0000
# 3 -0.1052 14.2641 108.9440 0.0000 0.0000 0.0000
# 4 0.0000 0.0000 0.0000 44.2156 0.0000 0.0000
# 5 0.0000 0.0000 0.0000 0.0000 12.6929 0.0000
# 6 0.0000 0.0000 0.0000 0.0000 0.0000 26.1557
#
#
#
# Elastic Compliance Matrix: (Units=1/GPa)
#
#
# Indices 1 2 3 4 5 6 
#
# 1 0.027896 -0.006288 0.000850 0.000000 0.000000 0.000000
# 2 -0.006288 0.013722 -0.001803 0.000000 0.000000 0.000000
# 3 0.000850 -0.001803 0.009416 0.000000 0.000000 0.000000
# 4 0.000000 0.000000 0.000000 0.022616 0.000000 0.000000
# 5 0.000000 0.000000 0.000000 0.000000 0.078784 0.000000
# 6 0.000000 0.000000 0.000000 0.000000 0.000000 0.038233
#
#
# Mechanical properties :
#
#
# Convention : Reuss Voigt Hill
#
# Bulk Modulus (GPa) = 27.35715 32.99822 30.17768
# Shear Modulus (GPa) = 23.00623 29.91914 26.46268
#
# Velocity S-wave (km/s) = 3.09963 3.53477 3.32433
# Velocity P-wave (km/s) = 4.92290 5.51725 5.22853
#
# Compressibility (1/GPa) = 0.03655352
#
# Stress axis : x y z
#
# Youngs Moduli (GPa) = 35.84718 72.87608 106.20365
#
# Poissons Ratio (x) = 0.45823 -0.09029
# Poissons Ratio (y) = 0.22540 0.19145
# Poissons Ratio (z) = -0.03048 0.13137
#
# Static dielectric constant tensor:
#      x y z
#    x 1.984310 0.000000 0.000000 
#    y 0.000000 2.004350 0.000000 
#    z 0.000000 0.000000 1.966920 
# 
# From -- ./inp_files/13838.got.cif
#   From: 2010.05.17/outbox.cif.g08.bks.cpg/sg56_7_cif.got.tgz:13838.got - 2010.06.03 13:42:01.
