data_PCOD9431617
_publ_section_title
;
Structure prediction by ZEFSAII (Michael W. Deem and Ramdas Pophale) SiO2 
 PCOD9431617
Probable space group: P C C N
;
_chemical_formula_sum "Si O2"
_cell_formula_units_Z 60
_cell_length_a 8.162482
_cell_length_b 13.417758
_cell_length_c 23.819639
_cell_angle_alpha 90.000000
_cell_angle_beta 90.000000
_cell_angle_gamma 90.000000
_cell_volume 2608.779461
_symmetry_space_group_name_H-M "P C C N"
_symmetry_group_IT_number 56
_symmetry_cell_setting 'orthorhombic'
loop_
_space_group_symop_operation_xyz
x,y,z
1/2-x,1/2-y,z
1/2+x,-y,1/2-z
-x,1/2+y,1/2-z
-x,-y,-z
1/2+x,1/2+y,-z
1/2-x,y,1/2+z
x,1/2-y,1/2+z
loop_
_atom_site_type_symbol
_atom_site_label
_atom_site_fract_x
_atom_site_fract_y
_atom_site_fract_z
Si Si1 0.435797 0.271820 0.429172
Si Si2 0.429121 0.108934 0.292863
Si Si3 0.750000 0.250000 0.136164
Si Si4 0.242239 0.008486 0.512553
Si Si5 0.525306 0.557966 0.083237
Si Si6 0.962460 0.350119 0.041962
Si Si7 0.422203 0.809858 0.176392
Si Si8 0.754636 0.075465 0.227184
O O1 0.250000 0.250000 0.411906
O O2 0.536994 0.170440 0.422148
O O3 0.443614 0.288204 0.495006
O O4 0.516384 0.346941 0.384426
O O5 0.468214 0.048086 0.350456
O O6 0.442702 0.226589 0.305518
O O7 0.570859 0.095867 0.247391
O O8 0.271647 0.044381 0.277019
O O9 0.895707 0.289174 0.094783
O O10 0.786476 0.153257 0.175553
O O11 0.305595 0.053474 0.452627
O O12 0.091688 0.058439 0.546053
O O13 0.398191 0.012842 0.552729
O O14 0.189433 0.899181 0.491684
O O15 0.250000 0.750000 0.171255
O O16 0.378944 0.889473 0.223626
#
# Coordination Sequence:
#
# PCOD9431617 Si02
#       8
#     8   8   4   8   8   8   8   8
#     4  11  22  38  63  94 124 162 214 270 324 391
#     4  10  22  40  68  94 125 174 223 273 340 393
#     4  12  24  44  68  94 146 180 222 276 352 408
#     4  10  22  41  62  96 131 167 226 263 342 408
#     4  10  21  40  63  91 131 164 210 284 321 393
#     4  11  24  39  64  95 127 180 214 267 339 418
#     4   9  21  42  66  91 125 165 223 276 328 392
#     4  11  23  45  67  96 133 178 227 282 339 415
#
# _framework density 22.999262000000002
#
# number of rings (size 3 to 8) (size 9 to 14) (size 15 to 20)
#    0.000    1.600    3.333    1.600    6.533    4.267 
#    2.400    0.000    0.000    0.000    0.000    0.000 
#    0.000    0.000    0.000    0.000    0.000    0.000 
#
# Total GULP energy -334093.118180 kJ/mol
# GULP energy per Si atom -5568.218636 kJ/mol
# Density = 2.294691 g / cm^3
# Si number density = 22.999262 Si / 1000 Ang^3
#
#
#
# Elastic Constant Matrix: (Units=GPa)
#
#
# Indices 1 2 3 4 5 6 
#
# 1 66.2106 1.6729 25.1101 0.0000 0.0000 0.0000
# 2 1.6729 42.3658 -1.7736 0.0000 0.0000 0.0000
# 3 25.1101 -1.7736 88.7981 0.0000 0.0000 0.0000
# 4 0.0000 0.0000 0.0000 0.1567 0.0000 0.0000
# 5 0.0000 0.0000 0.0000 0.0000 34.8790 0.0000
# 6 0.0000 0.0000 0.0000 0.0000 0.0000 32.1605
#
#
#
# Elastic Compliance Matrix: (Units=1/GPa)
#
#
# Indices 1 2 3 4 5 6 
#
# 1 0.016950 -0.000871 -0.004810 0.000000 0.000000 0.000000
# 2 -0.000871 0.023668 0.000719 0.000000 0.000000 0.000000
# 3 -0.004810 0.000719 0.012636 0.000000 0.000000 0.000000
# 4 0.000000 0.000000 0.000000 6.380707 0.000000 0.000000
# 5 0.000000 0.000000 0.000000 0.000000 0.028671 0.000000
# 6 0.000000 0.000000 0.000000 0.000000 0.000000 0.031094
#
#
# Mechanical properties :
#
#
# Convention : Reuss Voigt Hill
#
# Bulk Modulus (GPa) = 23.07870 27.48814 25.28342
# Shear Modulus (GPa) = 0.76710 24.93026 12.84868
#
# Velocity S-wave (km/s) = 0.57815 3.29593 2.36616
# Velocity P-wave (km/s) = 3.24068 5.14411 4.29906
#
# Compressibility (1/GPa) = 0.04333000
#
# Stress axis : x y z
#
# Youngs Moduli (GPa) = 58.99833 42.25037 79.13822
#
# Poissons Ratio (x) = 0.03679 0.38068
# Poissons Ratio (y) = 0.05137 -0.05690
# Poissons Ratio (z) = 0.28380 -0.03038
#
# Static dielectric constant tensor:
#      x y z
#    x 1.892160 0.000000 0.000000 
#    y 0.000000 2.020230 0.000000 
#    z 0.000000 0.000000 1.959710 
# 
# From -- ./inp_files/20607.got.cif
#   From: 2010.05.17/outbox.cif.g08.bks.cpg/sg56_11_cif.got.tgz:20607.got - 2010.06.03 13:42:01.
