data_PCOD9431003
_publ_section_title
;
Structure prediction by ZEFSAII (Michael W. Deem and Ramdas Pophale) SiO2 
 PCOD9431003
Probable space group: P C C N
;
_chemical_formula_sum "Si O2"
_cell_formula_units_Z 40
_cell_length_a 16.878988
_cell_length_b 9.008838
_cell_length_c 10.757348
_cell_angle_alpha 90.000000
_cell_angle_beta 90.000000
_cell_angle_gamma 90.000000
_cell_volume 1635.763074
_symmetry_space_group_name_H-M "P C C N"
_symmetry_group_IT_number 56
_symmetry_cell_setting 'orthorhombic'
loop_
_space_group_symop_operation_xyz
x,y,z
1/2-x,1/2-y,z
1/2+x,-y,1/2-z
-x,1/2+y,1/2-z
-x,-y,-z
1/2+x,1/2+y,-z
1/2-x,y,1/2+z
x,1/2-y,1/2+z
loop_
_atom_site_type_symbol
_atom_site_label
_atom_site_fract_x
_atom_site_fract_y
_atom_site_fract_z
Si Si1 0.169445 0.549212 0.775181
Si Si2 0.927973 0.813837 0.830722
Si Si3 0.311659 0.365467 0.847971
Si Si4 0.889028 0.367172 0.711790
Si Si5 0.409526 0.037959 0.029429
O O1 0.103193 0.479962 0.684451
O O2 0.248527 0.451896 0.755225
O O3 0.165823 0.725106 0.767751
O O4 0.144244 0.517770 0.917979
O O5 0.879465 0.730464 0.720416
O O6 0.903833 0.715242 0.948503
O O7 0.022296 0.812100 0.818841
O O8 0.250000 0.250000 0.912408
O O9 0.356590 0.515459 0.891282
O O10 0.894340 0.454301 0.841792
O O11 0.500000 0.000000 0.000000
#
# Coordination Sequence:
#
# PCOD9431003 Si02
#       5
#     8   8   8   8   8
#     4  11  21  41  63  92 139 176 223 286 343 407
#     4  10  20  39  66  93 129 173 228 281 338 413
#     4   9  21  39  61  92 133 174 213 278 356 392
#     4  11  20  38  67  95 129 176 230 280 335 417
#     4  11  21  39  66  95 130 176 227 283 344 406
#
# _framework density 24.453417999999999
#
# number of rings (size 3 to 8) (size 9 to 14) (size 15 to 20)
#    0.000    1.600    4.000    1.800    0.000    0.000 
#    0.000   39.000    0.000    0.000    0.000    0.000 
#    0.000    0.000    0.000    0.000    0.000    0.000 
#
# Total GULP energy -223091.629478 kJ/mol
# GULP energy per Si atom -5577.290737 kJ/mol
# Density = 2.439776 g / cm^3
# Si number density = 24.453418 Si / 1000 Ang^3
#
#
#
# Elastic Constant Matrix: (Units=GPa)
#
#
# Indices 1 2 3 4 5 6 
#
# 1 158.0764 34.3537 8.4230 0.0000 0.0000 0.0000
# 2 34.3537 161.9033 28.6514 0.0000 0.0000 0.0000
# 3 8.4230 28.6514 87.2177 0.0000 0.0000 0.0000
# 4 0.0000 0.0000 0.0000 26.4671 0.0000 0.0000
# 5 0.0000 0.0000 0.0000 0.0000 20.6737 0.0000
# 6 0.0000 0.0000 0.0000 0.0000 0.0000 47.4423
#
#
#
# Elastic Compliance Matrix: (Units=1/GPa)
#
#
# Indices 1 2 3 4 5 6 
#
# 1 0.006635 -0.001374 -0.000189 0.000000 0.000000 0.000000
# 2 -0.001374 0.006842 -0.002115 0.000000 0.000000 0.000000
# 3 -0.000189 -0.002115 0.012179 0.000000 0.000000 0.000000
# 4 0.000000 0.000000 0.000000 0.037783 0.000000 0.000000
# 5 0.000000 0.000000 0.000000 0.000000 0.048371 0.000000
# 6 0.000000 0.000000 0.000000 0.000000 0.000000 0.021078
#
#
# Mechanical properties :
#
#
# Convention : Reuss Voigt Hill
#
# Bulk Modulus (GPa) = 54.64902 61.11707 57.88304
# Shear Modulus (GPa) = 34.16598 41.30123 37.73361
#
# Velocity S-wave (km/s) = 3.74195 4.11417 3.93247
# Velocity P-wave (km/s) = 6.40830 6.90044 6.65892
#
# Compressibility (1/GPa) = 0.01829859
#
# Stress axis : x y z
#
# Youngs Moduli (GPa) = 150.72011 146.14691 82.11099
#
# Poissons Ratio (x) = 0.20085 0.01554
# Poissons Ratio (y) = 0.20714 0.17367
# Poissons Ratio (z) = 0.02853 0.30911
#
# Static dielectric constant tensor:
#      x y z
#    x 2.023860 0.000000 0.000000 
#    y 0.000000 2.059110 0.000000 
#    z 0.000000 0.000000 1.979140 
# 
# From -- ./inp_files/6183.got.cif
#   From: 2010.05.17/outbox.cif.g08.bks.cpg/sg56_4_cif.got.tgz:6183.got - 2010.06.03 13:42:01.
