data_PCOD9431589
_publ_section_title
;
Structure prediction by ZEFSAII (Michael W. Deem and Ramdas Pophale) SiO2 
 PCOD9431589
Probable space group: P C C N
;
_chemical_formula_sum "Si O2"
_cell_formula_units_Z 56
_cell_length_a 14.975409
_cell_length_b 15.060297
_cell_length_c 12.919725
_cell_angle_alpha 90.000000
_cell_angle_beta 90.000000
_cell_angle_gamma 90.000000
_cell_volume 2913.838644
_symmetry_space_group_name_H-M "P C C N"
_symmetry_group_IT_number 56
_symmetry_cell_setting 'orthorhombic'
loop_
_space_group_symop_operation_xyz
x,y,z
1/2-x,1/2-y,z
1/2+x,-y,1/2-z
-x,1/2+y,1/2-z
-x,-y,-z
1/2+x,1/2+y,-z
1/2-x,y,1/2+z
x,1/2-y,1/2+z
loop_
_atom_site_type_symbol
_atom_site_label
_atom_site_fract_x
_atom_site_fract_y
_atom_site_fract_z
Si Si1 0.837007 0.191492 0.238235
Si Si2 0.686536 0.499538 0.135377
Si Si3 0.913579 0.467428 0.434210
Si Si4 0.877609 0.979437 0.706182
Si Si5 0.944475 0.333258 0.127571
Si Si6 0.500010 0.333371 0.393439
Si Si7 0.044042 0.154782 0.828894
O O1 0.750000 0.250000 0.266403
O O2 0.818793 0.090855 0.202450
O O3 0.884189 0.246346 0.145149
O O4 0.909718 0.186363 0.329296
O O5 0.780696 0.543947 0.162348
O O6 0.611720 0.573286 0.161372
O O7 0.666599 0.469944 0.016652
O O8 0.888171 0.522465 0.330989
O O9 0.000000 0.500000 0.500000
O O10 0.951677 0.376557 0.385255
O O11 0.952891 0.917826 0.656968
O O12 0.892638 0.079797 0.666614
O O13 0.025418 0.326473 0.208858
O O14 0.976082 0.345894 0.012055
O O15 0.434781 0.248320 0.381019
#
# Coordination Sequence:
#
# PCOD9431589 Si02
#       7
#     8   8   8   8   8   8   8
#     4  11  22  40  60  91 119 157 211 260 310 376
#     4  11  22  39  63  89 127 159 207 265 310 372
#     4   9  19  39  63  83 119 170 211 248 318 374
#     4  11  23  38  59  97 124 164 213 254 317 387
#     4  10  21  40  59  87 124 156 211 258 315 361
#     4  11  23  38  63  86 128 166 203 258 319 371
#     4   9  21  39  61  89 119 169 212 252 307 389
#
# _framework density 19.218634999999999
#
# number of rings (size 3 to 8) (size 9 to 14) (size 15 to 20)
#    0.000    1.714    1.429    3.857    0.000    6.857 
#    0.000    0.000    0.000    6.857    0.000    0.000 
#    0.000    0.000    0.000    0.000    0.000    0.000 
#
# Total GULP energy -312180.555094 kJ/mol
# GULP energy per Si atom -5574.652770 kJ/mol
# Density = 1.917489 g / cm^3
# Si number density = 19.218635 Si / 1000 Ang^3
#
#
#
# Elastic Constant Matrix: (Units=GPa)
#
#
# Indices 1 2 3 4 5 6 
#
# 1 88.4497 16.8751 47.4827 0.0000 0.0000 0.0000
# 2 16.8751 49.4151 15.7714 0.0000 0.0000 0.0000
# 3 47.4827 15.7714 141.9854 0.0000 0.0000 0.0000
# 4 0.0000 0.0000 0.0000 22.9660 0.0000 0.0000
# 5 0.0000 0.0000 0.0000 0.0000 21.2266 0.0000
# 6 0.0000 0.0000 0.0000 0.0000 0.0000 29.2843
#
#
#
# Elastic Compliance Matrix: (Units=1/GPa)
#
#
# Indices 1 2 3 4 5 6 
#
# 1 0.014338 -0.003490 -0.004407 0.000000 0.000000 0.000000
# 2 -0.003490 0.021830 -0.001258 0.000000 0.000000 0.000000
# 3 -0.004407 -0.001258 0.008657 0.000000 0.000000 0.000000
# 4 0.000000 0.000000 0.000000 0.043543 0.000000 0.000000
# 5 0.000000 0.000000 0.000000 0.000000 0.047111 0.000000
# 6 0.000000 0.000000 0.000000 0.000000 0.000000 0.034148
#
#
# Mechanical properties :
#
#
# Convention : Reuss Voigt Hill
#
# Bulk Modulus (GPa) = 37.71483 48.90097 43.30790
# Shear Modulus (GPa) = 25.41005 28.01013 26.71009
#
# Velocity S-wave (km/s) = 3.64009 3.82179 3.73205
# Velocity P-wave (km/s) = 6.11013 6.70631 6.41515
#
# Compressibility (1/GPa) = 0.02651477
#
# Stress axis : x y z
#
# Youngs Moduli (GPa) = 69.74706 45.80877 115.51986
#
# Poissons Ratio (x) = 0.15986 0.50911
# Poissons Ratio (y) = 0.24339 0.14530
# Poissons Ratio (z) = 0.30738 0.05762
#
# Static dielectric constant tensor:
#      x y z
#    x 1.721100 0.000000 0.000000 
#    y 0.000000 1.695500 0.000000 
#    z 0.000000 0.000000 1.661550 
# 
# From -- ./inp_files/7895.got.cif
#   From: 2010.05.17/outbox.cif.g08.bks.cpg/sg56_4_cif.got.tgz:7895.got - 2010.06.03 13:42:01.
