data_PCOD9431934
_publ_section_title
;
Structure prediction by ZEFSAII (Michael W. Deem and Ramdas Pophale) SiO2 
 PCOD9431934
Probable space group: P C C N
;
_chemical_formula_sum "Si O2"
_cell_formula_units_Z 60
_cell_length_a 8.944738
_cell_length_b 23.847214
_cell_length_c 14.400498
_cell_angle_alpha 90.000000
_cell_angle_beta 90.000000
_cell_angle_gamma 90.000000
_cell_volume 3071.728197
_symmetry_space_group_name_H-M "P C C N"
_symmetry_group_IT_number 56
_symmetry_cell_setting 'orthorhombic'
loop_
_space_group_symop_operation_xyz
x,y,z
1/2-x,1/2-y,z
1/2+x,-y,1/2-z
-x,1/2+y,1/2-z
-x,-y,-z
1/2+x,1/2+y,-z
1/2-x,y,1/2+z
x,1/2-y,1/2+z
loop_
_atom_site_type_symbol
_atom_site_label
_atom_site_fract_x
_atom_site_fract_y
_atom_site_fract_z
Si Si1 0.936234 0.800777 0.183238
Si Si2 0.518184 0.061487 0.459205
Si Si3 0.886414 0.360021 0.631904
Si Si4 0.950886 0.307636 0.897802
Si Si5 0.248162 0.360743 0.458940
Si Si6 0.215070 0.186898 0.148865
Si Si7 0.750000 0.250000 0.047905
Si Si8 0.204587 0.884643 0.193343
O O1 0.864140 0.813461 0.082629
O O2 0.806486 0.812033 0.256442
O O3 0.002645 0.738909 0.177775
O O4 0.065669 0.843394 0.210144
O O5 0.582585 0.102568 0.540209
O O6 0.350927 0.084689 0.435984
O O7 0.629479 0.067113 0.370624
O O8 0.500000 0.000000 0.500000
O O9 0.793735 0.304435 0.606213
O O10 0.797116 0.394136 0.711706
O O11 0.046828 0.335040 0.662676
O O12 0.816692 0.347432 0.867947
O O13 0.091881 0.347308 0.916449
O O14 0.887391 0.270508 0.983198
O O15 0.271519 0.354327 0.568446
O O16 0.250000 0.250000 0.111977
#
# Coordination Sequence:
#
# PCOD9431934 Si02
#       8
#     8   8   8   8   8   8   4   8
#     4  11  21  35  54  89 133 172 195 245 321 392
#     4  10  23  50  69  84 126 177 227 291 343 378
#     4  11  24  39  62  99 127 169 222 267 332 410
#     4  12  20  36  58  91 137 175 209 251 320 409
#     4  10  22  37  58  87 118 163 218 259 311 389
#     4  11  21  33  54  86 129 167 202 245 310 392
#     4  12  22  36  64  94 142 174 200 262 338 416
#     4  11  23  38  61  94 126 165 221 269 330 390
#
# _framework density 19.532978
#
# number of rings (size 3 to 8) (size 9 to 14) (size 15 to 20)
#    0.000    1.067    2.667    6.000    5.600    0.000 
#    0.000    7.333    0.000    0.000    0.000    0.000 
#    0.000    0.000    0.000    0.000    0.000    0.000 
#
# Total GULP energy -334681.069370 kJ/mol
# GULP energy per Si atom -5578.017823 kJ/mol
# Density = 1.948852 g / cm^3
# Si number density = 19.532978 Si / 1000 Ang^3
#
#
#
# Elastic Constant Matrix: (Units=GPa)
#
#
# Indices 1 2 3 4 5 6 
#
# 1 92.3677 7.0032 14.5451 0.0000 0.0000 0.0000
# 2 7.0032 42.2796 -2.8629 0.0000 0.0000 0.0000
# 3 14.5451 -2.8629 60.9784 0.0000 0.0000 0.0000
# 4 0.0000 0.0000 0.0000 6.5164 0.0000 0.0000
# 5 0.0000 0.0000 0.0000 0.0000 36.0950 0.0000
# 6 0.0000 0.0000 0.0000 0.0000 0.0000 14.5625
#
#
#
# Elastic Compliance Matrix: (Units=1/GPa)
#
#
# Indices 1 2 3 4 5 6 
#
# 1 0.011429 -0.002084 -0.002824 0.000000 0.000000 0.000000
# 2 -0.002084 0.024108 0.001629 0.000000 0.000000 0.000000
# 3 -0.002824 0.001629 0.017149 0.000000 0.000000 0.000000
# 4 0.000000 0.000000 0.000000 0.153460 0.000000 0.000000
# 5 0.000000 0.000000 0.000000 0.000000 0.027705 0.000000
# 6 0.000000 0.000000 0.000000 0.000000 0.000000 0.068670
#
#
# Mechanical properties :
#
#
# Convention : Reuss Voigt Hill
#
# Bulk Modulus (GPa) = 21.67910 25.88848 23.78379
# Shear Modulus (GPa) = 15.41048 23.23079 19.32064
#
# Velocity S-wave (km/s) = 2.81187 3.45238 3.14845
# Velocity P-wave (km/s) = 4.65456 5.40133 5.04179
#
# Compressibility (1/GPa) = 0.04612739
#
# Stress axis : x y z
#
# Youngs Moduli (GPa) = 87.49651 41.48063 58.31126
#
# Poissons Ratio (x) = 0.08646 0.16467
# Poissons Ratio (y) = 0.18237 -0.09499
# Poissons Ratio (z) = 0.24709 -0.06757
#
# Static dielectric constant tensor:
#      x y z
#    x 1.718550 0.000000 0.000000 
#    y 0.000000 1.668430 0.000000 
#    z 0.000000 0.000000 1.763670 
# 
# From -- ./inp_files/11009.got.cif
#   From: 2010.05.17/outbox.cif.g08.bks.cpg/sg56_6_cif.got.tgz:11009.got - 2010.06.03 13:42:01.
