data_PCOD9431710
_publ_section_title
;
Structure prediction by ZEFSAII (Michael W. Deem and Ramdas Pophale) SiO2 
 PCOD9431710
Probable space group: P C C N
;
_chemical_formula_sum "Si O2"
_cell_formula_units_Z 36
_cell_length_a 12.689640
_cell_length_b 5.443781
_cell_length_c 24.416077
_cell_angle_alpha 90.000000
_cell_angle_beta 90.000000
_cell_angle_gamma 90.000000
_cell_volume 1686.653349
_symmetry_space_group_name_H-M "P C C N"
_symmetry_group_IT_number 56
_symmetry_cell_setting 'orthorhombic'
loop_
_space_group_symop_operation_xyz
x,y,z
1/2-x,1/2-y,z
1/2+x,-y,1/2-z
-x,1/2+y,1/2-z
-x,-y,-z
1/2+x,1/2+y,-z
1/2-x,y,1/2+z
x,1/2-y,1/2+z
loop_
_atom_site_type_symbol
_atom_site_label
_atom_site_fract_x
_atom_site_fract_y
_atom_site_fract_z
Si Si1 0.250000 0.250000 0.089480
Si Si2 0.476133 0.759324 0.717175
Si Si3 0.250000 0.750000 0.660884
Si Si4 0.250000 0.750000 0.929970
Si Si5 0.634383 0.875122 0.620017
Si Si6 0.391349 0.135287 0.992170
O O1 0.248630 0.499880 0.124714
O O2 0.350036 0.249257 0.048428
O O3 0.504643 0.499811 0.745299
O O4 0.355544 0.752943 0.697175
O O5 0.552667 0.799253 0.665317
O O6 0.340300 0.660814 0.888236
O O7 0.199394 0.548711 0.969759
O O8 0.750000 0.750000 0.629170
O O9 0.594166 0.811475 0.559363
O O10 0.500000 0.000000 0.000000
#
# Coordination Sequence:
#
# PCOD9431710 Si02
#       6
#     4   8   4   4   8   8
#     4  12  24  46  70 110 158 190 230 294 368 436
#     4  12  30  50  79 104 139 195 245 313 374 420
#     4  12  29  49  72 112 150 184 247 309 366 444
#     4  10  21  41  64 100 142 184 241 283 346 420
#     4  10  24  43  70 104 139 183 247 295 350 438
#     4  11  23  39  68 103 146 196 231 281 355 436
#
# _framework density 21.344038999999999
#
# number of rings (size 3 to 8) (size 9 to 14) (size 15 to 20)
#    0.000    0.889    3.333    3.333   12.444    0.889 
#    0.000    0.000    0.000    0.000    0.000    0.000 
#    0.000    0.000    0.000    0.000    0.000    0.000 
#
# Total GULP energy -201146.070276 kJ/mol
# GULP energy per Si atom -5587.390841 kJ/mol
# Density = 2.129546 g / cm^3
# Si number density = 21.344039 Si / 1000 Ang^3
#
#
#
# Elastic Constant Matrix: (Units=GPa)
#
#
# Indices 1 2 3 4 5 6 
#
# 1 163.4127 39.7672 85.3183 0.0000 0.0000 0.0000
# 2 39.7672 122.8593 65.8087 0.0000 0.0000 0.0000
# 3 85.3183 65.8087 118.3540 0.0000 0.0000 0.0000
# 4 0.0000 0.0000 0.0000 1515.9387 0.0000 0.0000
# 5 0.0000 0.0000 0.0000 0.0000 46.5662 0.0000
# 6 0.0000 0.0000 0.0000 0.0000 0.0000 31.6686
#
#
#
# Elastic Compliance Matrix: (Units=1/GPa)
#
#
# Indices 1 2 3 4 5 6 
#
# 1 0.009879 0.000879 -0.007610 0.000000 0.000000 0.000000
# 2 0.000879 0.011670 -0.007122 0.000000 0.000000 0.000000
# 3 -0.007610 -0.007122 0.017895 0.000000 0.000000 0.000000
# 4 0.000000 0.000000 0.000000 0.000660 0.000000 0.000000
# 5 0.000000 0.000000 0.000000 0.000000 0.021475 0.000000
# 6 0.000000 0.000000 0.000000 0.000000 0.000000 0.031577
#
#
# Mechanical properties :
#
#
# Convention : Reuss Voigt Hill
#
# Bulk Modulus (GPa) = 85.20136 87.37936 86.29036
# Shear Modulus (GPa) = 40.07215 333.08349 186.57782
#
# Velocity S-wave (km/s) = 4.33764 12.50573 9.35971
# Velocity P-wave (km/s) = 8.06794 15.79721 12.54280
#
# Compressibility (1/GPa) = 0.01173690
#
# Stress axis : x y z
#
# Youngs Moduli (GPa) = 101.22663 85.68990 55.88087
#
# Poissons Ratio (x) = -0.07529 0.42525
# Poissons Ratio (y) = -0.08894 0.39800
# Poissons Ratio (z) = 0.77033 0.61031
#
# Static dielectric constant tensor:
#      x y z
#    x 1.762790 0.000000 0.000000 
#    y 0.000000 1.870320 0.000000 
#    z 0.000000 0.000000 1.758360 
# 
# From -- ./inp_files/17387.got.cif
#   From: 2010.05.17/outbox.cif.g08.bks.cpg/sg56_9_cif.got.tgz:17387.got - 2010.06.03 13:42:01.
