data_PCOD9431926
_publ_section_title
;
Structure prediction by ZEFSAII (Michael W. Deem and Ramdas Pophale) SiO2 
 PCOD9431926
Probable space group: P C C N
;
_chemical_formula_sum "Si O2"
_cell_formula_units_Z 60
_cell_length_a 24.456262
_cell_length_b 9.830594
_cell_length_c 9.740048
_cell_angle_alpha 90.000000
_cell_angle_beta 90.000000
_cell_angle_gamma 90.000000
_cell_volume 2341.698273
_symmetry_space_group_name_H-M "P C C N"
_symmetry_group_IT_number 56
_symmetry_cell_setting 'orthorhombic'
loop_
_space_group_symop_operation_xyz
x,y,z
1/2-x,1/2-y,z
1/2+x,-y,1/2-z
-x,1/2+y,1/2-z
-x,-y,-z
1/2+x,1/2+y,-z
1/2-x,y,1/2+z
x,1/2-y,1/2+z
loop_
_atom_site_type_symbol
_atom_site_label
_atom_site_fract_x
_atom_site_fract_y
_atom_site_fract_z
Si Si1 0.535530 0.492567 0.746005
Si Si2 0.032729 0.786733 0.606270
Si Si3 0.835010 0.567747 0.954526
Si Si4 0.154864 0.540827 0.765815
Si Si5 0.848096 0.168514 0.279156
Si Si6 0.154038 0.441751 0.450093
Si Si7 0.750000 0.750000 0.008777
Si Si8 0.433101 0.242996 0.562759
O O1 0.488328 0.571388 0.668759
O O2 0.516378 0.362756 0.832654
O O3 0.591686 0.441591 0.677063
O O4 0.559819 0.624310 0.827064
O O5 0.096990 0.789714 0.635545
O O6 0.995583 0.783601 0.469836
O O7 0.824553 0.559876 0.117938
O O8 0.792557 0.677933 0.907501
O O9 0.894520 0.626300 0.913566
O O10 0.818793 0.425970 0.888844
O O11 0.178905 0.692125 0.768388
O O12 0.158256 0.492449 0.608766
O O13 0.857573 0.068648 0.149636
O O14 0.209866 0.360336 0.419282
O O15 0.102935 0.335804 0.446110
#
# Coordination Sequence:
#
# PCOD9431926 Si02
#       8
#     8   8   8   8   8   8   4   8
#     4  10  22  36  59  90 132 182 232 276 332 404
#     4  11  22  38  61  94 135 184 229 274 346 413
#     4  11  24  43  70 100 133 174 233 292 348 407
#     4  10  22  45  65  94 138 181 221 282 346 413
#     4  11  25  40  67 100 141 178 222 283 347 422
#     4  10  23  44  69  97 134 176 229 289 346 405
#     4  10  26  46  76 102 130 176 236 292 358 408
#     4  10  22  37  63  89 134 177 231 283 332 404
#
# _framework density 25.622430999999999
#
# number of rings (size 3 to 8) (size 9 to 14) (size 15 to 20)
#    0.000    1.600    1.333    2.000    3.733   10.133 
#    0.000    4.000    0.000    0.000    0.000    0.000 
#    0.000    0.000    0.000    0.000    0.000    0.000 
#
# Total GULP energy -334524.768799 kJ/mol
# GULP energy per Si atom -5575.412813 kJ/mol
# Density = 2.556411 g / cm^3
# Si number density = 25.622431 Si / 1000 Ang^3
#
#
#
# Elastic Constant Matrix: (Units=GPa)
#
#
# Indices 1 2 3 4 5 6 
#
# 1 58.7111 8.0204 6.8202 0.0000 0.0000 0.0000
# 2 8.0204 144.2935 31.9708 0.0000 0.0000 0.0000
# 3 6.8202 31.9708 93.1187 0.0000 0.0000 0.0000
# 4 0.0000 0.0000 0.0000 12.6011 0.0000 0.0000
# 5 0.0000 0.0000 0.0000 0.0000 -13.7707 0.0000
# 6 0.0000 0.0000 0.0000 0.0000 0.0000 34.9825
#
#
#
# Elastic Compliance Matrix: (Units=1/GPa)
#
#
# Indices 1 2 3 4 5 6 
#
# 1 0.017250 -0.000735 -0.001011 0.000000 0.000000 0.000000
# 2 -0.000735 0.007532 -0.002532 0.000000 0.000000 0.000000
# 3 -0.001011 -0.002532 0.011682 0.000000 0.000000 0.000000
# 4 0.000000 0.000000 0.000000 0.079358 0.000000 0.000000
# 5 0.000000 0.000000 0.000000 0.000000 -0.072618 0.000000
# 6 0.000000 0.000000 0.000000 0.000000 0.000000 0.028586
#
#
# Mechanical properties :
#
#
# Convention : Reuss Voigt Hill
#
# Bulk Modulus (GPa) = 35.83120 43.30511 39.56815
# Shear Modulus (GPa) = 55.77229 23.38338 39.57783
#
# Velocity S-wave (km/s) = 4.67057 3.02423 3.93447
# Velocity P-wave (km/s) = 6.56508 5.39746 6.00969
#
# Compressibility (1/GPa) = 0.02790864
#
# Stress axis : x y z
#
# Youngs Moduli (GPa) = 57.96963 132.76283 85.59852
#
# Poissons Ratio (x) = 0.09755 0.08655
# Poissons Ratio (y) = 0.04260 0.21676
# Poissons Ratio (z) = 0.05862 0.33619
#
# Static dielectric constant tensor:
#      x y z
#    x 1.763770 0.000000 0.000000 
#    y 0.000000 2.129240 0.000000 
#    z 0.000000 0.000000 2.109900 
# 
# From -- ./inp_files/9083.got.cif
#   From: 2010.05.17/outbox.cif.g08.bks.cpg/sg56_5_cif.got.tgz:9083.got - 2010.06.03 13:42:01.
