data_PCOD9431155
_publ_section_title
;
Structure prediction by ZEFSAII (Michael W. Deem and Ramdas Pophale) SiO2 
 PCOD9431155
Probable space group: P C C N
;
_chemical_formula_sum "Si O2"
_cell_formula_units_Z 36
_cell_length_a 12.587291
_cell_length_b 7.707209
_cell_length_c 17.353668
_cell_angle_alpha 90.000000
_cell_angle_beta 90.000000
_cell_angle_gamma 90.000000
_cell_volume 1683.529354
_symmetry_space_group_name_H-M "P C C N"
_symmetry_group_IT_number 56
_symmetry_cell_setting 'orthorhombic'
loop_
_space_group_symop_operation_xyz
x,y,z
1/2-x,1/2-y,z
1/2+x,-y,1/2-z
-x,1/2+y,1/2-z
-x,-y,-z
1/2+x,1/2+y,-z
1/2-x,y,1/2+z
x,1/2-y,1/2+z
loop_
_atom_site_type_symbol
_atom_site_label
_atom_site_fract_x
_atom_site_fract_y
_atom_site_fract_z
Si Si1 0.586728 0.058875 0.801900
Si Si2 0.994417 0.399652 0.346059
Si Si3 0.767302 0.040463 0.910124
Si Si4 0.218585 0.057390 0.914203
Si Si5 0.250000 0.750000 0.309028
O O1 0.516556 0.191215 0.851620
O O2 0.673130 0.967587 0.856387
O O3 0.657625 0.183725 0.746789
O O4 0.522358 0.942498 0.742636
O O5 0.883601 0.482461 0.373087
O O6 0.093183 0.464392 0.396548
O O7 0.750000 0.250000 0.914053
O O8 0.761156 0.968092 0.995824
O O9 0.250000 0.250000 0.888992
O O10 0.277447 0.911265 0.863976
#
# Coordination Sequence:
#
# PCOD9431155 Si02
#       5
#     8   8   8   8   4
#     4  10  21  38  65  88 125 171 206 265 319 366
#     4  10  22  37  64  93 121 164 218 254 312 384
#     4  10  20  43  61  84 132 170 204 253 332 372
#     4  11  24  38  65  95 126 164 210 259 311 378
#     4  10  20  42  60  86 128 168 192 264 316 360
#
# _framework density 21.383647
#
# number of rings (size 3 to 8) (size 9 to 14) (size 15 to 20)
#    0.000    1.778    4.444    0.667    3.111    1.778 
#    0.000    5.556    0.000    0.000    0.000    0.000 
#    0.000    0.000    0.000    0.000    0.000    0.000 
#
# Total GULP energy -201102.518767 kJ/mol
# GULP energy per Si atom -5586.181077 kJ/mol
# Density = 2.133498 g / cm^3
# Si number density = 21.383647 Si / 1000 Ang^3
#
#
#
# Elastic Constant Matrix: (Units=GPa)
#
#
# Indices 1 2 3 4 5 6 
#
# 1 47.5929 -2.4344 17.0618 0.0000 0.0000 0.0000
# 2 -2.4344 50.3364 12.9964 0.0000 0.0000 0.0000
# 3 17.0618 12.9964 114.8648 0.0000 0.0000 0.0000
# 4 0.0000 0.0000 0.0000 22.9626 0.0000 0.0000
# 5 0.0000 0.0000 0.0000 0.0000 11.8398 0.0000
# 6 0.0000 0.0000 0.0000 0.0000 0.0000 24.0076
#
#
#
# Elastic Compliance Matrix: (Units=1/GPa)
#
#
# Indices 1 2 3 4 5 6 
#
# 1 0.022387 0.002000 -0.003552 0.000000 0.000000 0.000000
# 2 0.002000 0.020643 -0.002633 0.000000 0.000000 0.000000
# 3 -0.003552 -0.002633 0.009531 0.000000 0.000000 0.000000
# 4 0.000000 0.000000 0.000000 0.043549 0.000000 0.000000
# 5 0.000000 0.000000 0.000000 0.000000 0.084461 0.000000
# 6 0.000000 0.000000 0.000000 0.000000 0.000000 0.041654
#
#
# Mechanical properties :
#
#
# Convention : Reuss Voigt Hill
#
# Bulk Modulus (GPa) = 22.62850 29.78238 26.20544
# Shear Modulus (GPa) = 20.38116 24.10668 22.24392
#
# Velocity S-wave (km/s) = 3.09061 3.36123 3.22876
# Velocity P-wave (km/s) = 4.83125 5.38718 5.11677
#
# Compressibility (1/GPa) = 0.04419207
#
# Stress axis : x y z
#
# Youngs Moduli (GPa) = 44.66870 48.44305 104.91743
#
# Poissons Ratio (x) = -0.09687 0.37262
# Poissons Ratio (y) = -0.08932 0.27621
# Poissons Ratio (z) = 0.15864 0.12753
#
# Static dielectric constant tensor:
#      x y z
#    x 1.781070 0.000000 0.000000 
#    y 0.000000 1.810130 0.000000 
#    z 0.000000 0.000000 1.756380 
# 
# From -- ./inp_files/14566.got.cif
#   From: 2010.05.17/outbox.cif.g08.bks.cpg/sg56_8_cif.got.tgz:14566.got - 2010.06.03 13:42:01.
