data_PCOD9431782
_publ_section_title
;
Structure prediction by ZEFSAII (Michael W. Deem and Ramdas Pophale) SiO2 
 PCOD9431782
Probable space group: P C C N
;
_chemical_formula_sum "Si O2"
_cell_formula_units_Z 48
_cell_length_a 13.189417
_cell_length_b 14.584588
_cell_length_c 11.659470
_cell_angle_alpha 90.000000
_cell_angle_beta 90.000000
_cell_angle_gamma 90.000000
_cell_volume 2242.841451
_symmetry_space_group_name_H-M "P C C N"
_symmetry_group_IT_number 56
_symmetry_cell_setting 'orthorhombic'
loop_
_space_group_symop_operation_xyz
x,y,z
1/2-x,1/2-y,z
1/2+x,-y,1/2-z
-x,1/2+y,1/2-z
-x,-y,-z
1/2+x,1/2+y,-z
1/2-x,y,1/2+z
x,1/2-y,1/2+z
loop_
_atom_site_type_symbol
_atom_site_label
_atom_site_fract_x
_atom_site_fract_y
_atom_site_fract_z
Si Si1 0.130207 0.909262 0.419788
Si Si2 0.963405 0.118206 0.351294
Si Si3 0.340988 0.967599 0.531401
Si Si4 0.893025 0.555198 0.702742
Si Si5 0.917323 0.184211 0.793818
Si Si6 0.337930 0.079041 0.755683
O O1 0.040925 0.898701 0.512159
O O2 0.231204 0.935197 0.487883
O O3 0.135521 0.826374 0.330416
O O4 0.122021 0.992826 0.330682
O O5 0.903022 0.211817 0.331496
O O6 0.071967 0.145102 0.293897
O O7 0.912918 0.029891 0.289689
O O8 0.379017 0.881113 0.603820
O O9 0.401334 0.005480 0.421315
O O10 0.338378 0.050164 0.623449
O O11 0.778433 0.593238 0.711589
O O12 0.970815 0.638092 0.722882
#
# Coordination Sequence:
#
# PCOD9431782 Si02
#       6
#     8   8   8   8   8   8
#     4  10  22  43  64  91 130 166 215 269 321 385
#     4  12  24  40  66  94 130 168 214 265 325 381
#     4  10  21  42  65  93 126 170 217 266 322 376
#     4  11  23  42  66  90 132 170 213 267 320 383
#     4  11  26  40  64  99 129 172 216 265 328 388
#     4  10  22  41  68  94 121 177 214 261 325 386
#
# _framework density 21.401425
#
# number of rings (size 3 to 8) (size 9 to 14) (size 15 to 20)
#    0.000    1.333    5.000    1.000    2.333    1.333 
#    3.000    0.000    0.000    4.000    0.000    0.000 
#    0.000    0.000    0.000    0.000    0.000    0.000 
#
# Total GULP energy -267529.178699 kJ/mol
# GULP energy per Si atom -5573.524556 kJ/mol
# Density = 2.135271 g / cm^3
# Si number density = 21.401425 Si / 1000 Ang^3
#
#
#
# Elastic Constant Matrix: (Units=GPa)
#
#
# Indices 1 2 3 4 5 6 
#
# 1 50.3619 -12.6443 9.5851 0.0000 0.0000 0.0000
# 2 -12.6443 49.1503 13.7538 0.0000 0.0000 0.0000
# 3 9.5851 13.7538 130.4487 0.0000 0.0000 0.0000
# 4 0.0000 0.0000 0.0000 14.1130 0.0000 0.0000
# 5 0.0000 0.0000 0.0000 0.0000 33.6614 0.0000
# 6 0.0000 0.0000 0.0000 0.0000 0.0000 11.2348
#
#
#
# Elastic Compliance Matrix: (Units=1/GPa)
#
#
# Indices 1 2 3 4 5 6 
#
# 1 0.021859 0.006257 -0.002266 0.000000 0.000000 0.000000
# 2 0.006257 0.022756 -0.002859 0.000000 0.000000 0.000000
# 3 -0.002266 -0.002859 0.008134 0.000000 0.000000 0.000000
# 4 0.000000 0.000000 0.000000 0.070856 0.000000 0.000000
# 5 0.000000 0.000000 0.000000 0.000000 0.029708 0.000000
# 6 0.000000 0.000000 0.000000 0.000000 0.000000 0.089009
#
#
# Mechanical properties :
#
#
# Convention : Reuss Voigt Hill
#
# Bulk Modulus (GPa) = 18.17758 27.92781 23.05270
# Shear Modulus (GPa) = 19.35029 26.41959 22.88494
#
# Velocity S-wave (km/s) = 3.01019 3.51733 3.27359
# Velocity P-wave (km/s) = 4.53803 5.43813 5.00834
#
# Compressibility (1/GPa) = 0.05501282
#
# Stress axis : x y z
#
# Youngs Moduli (GPa) = 45.74866 43.94534 122.94408
#
# Poissons Ratio (x) = -0.27498 0.27858
# Poissons Ratio (y) = -0.28627 0.35150
# Poissons Ratio (z) = 0.10366 0.12564
#
# Static dielectric constant tensor:
#      x y z
#    x 1.920740 0.000000 0.000000 
#    y 0.000000 1.825780 0.000000 
#    z 0.000000 0.000000 1.782820 
# 
# From -- ./inp_files/7790.got.cif
#   From: 2010.05.17/outbox.cif.g08.bks.cpg/sg56_4_cif.got.tgz:7790.got - 2010.06.03 13:42:01.
