data_PCOD9431334
_publ_section_title
;
Structure prediction by ZEFSAII (Michael W. Deem and Ramdas Pophale) SiO2 
 PCOD9431334
Probable space group: P C C N
;
_chemical_formula_sum "Si O2"
_cell_formula_units_Z 56
_cell_length_a 10.015660
_cell_length_b 13.379586
_cell_length_c 19.350017
_cell_angle_alpha 90.000000
_cell_angle_beta 90.000000
_cell_angle_gamma 90.000000
_cell_volume 2593.006465
_symmetry_space_group_name_H-M "P C C N"
_symmetry_group_IT_number 56
_symmetry_cell_setting 'orthorhombic'
loop_
_space_group_symop_operation_xyz
x,y,z
1/2-x,1/2-y,z
1/2+x,-y,1/2-z
-x,1/2+y,1/2-z
-x,-y,-z
1/2+x,1/2+y,-z
1/2-x,y,1/2+z
x,1/2-y,1/2+z
loop_
_atom_site_type_symbol
_atom_site_label
_atom_site_fract_x
_atom_site_fract_y
_atom_site_fract_z
Si Si1 0.204768 0.074965 0.365738
Si Si2 0.107802 0.725389 0.025717
Si Si3 0.582689 0.020220 0.899646
Si Si4 0.802745 0.081027 0.249322
Si Si5 0.430744 0.203340 0.366620
Si Si6 0.045570 0.779093 0.274687
Si Si7 0.890063 0.697033 0.916447
O O1 0.341483 0.116065 0.400097
O O2 0.132293 0.184742 0.364354
O O3 0.079300 0.011634 0.393450
O O4 0.260896 0.011015 0.300580
O O5 0.250000 0.750000 0.993672
O O6 0.112563 0.611936 0.050661
O O7 0.072250 0.787579 0.094878
O O8 0.982181 0.741085 0.976518
O O9 0.650572 0.041970 0.824762
O O10 0.636536 0.918736 0.931290
O O11 0.675019 0.154180 0.242473
O O12 0.919683 0.160421 0.228559
O O13 0.446981 0.186273 0.285685
O O14 0.977740 0.799756 0.347281
O O15 0.750000 0.750000 0.907979
#
# Coordination Sequence:
#
# PCOD9431334 Si02
#       7
#     8   8   8   8   8   8   8
#     4  10  21  36  64  98 135 172 230 284 354 411
#     4  11  25  49  74 100 138 194 239 288 354 429
#     4  11  23  45  72 101 134 189 236 292 347 429
#     4  11  22  38  67  99 136 177 225 287 356 421
#     4  10  22  40  69  97 131 180 241 291 345 417
#     4  11  23  41  65  99 139 177 229 295 357 408
#     4  12  29  46  70 103 150 183 232 297 364 416
#
# _framework density 21.596551999999999
#
# number of rings (size 3 to 8) (size 9 to 14) (size 15 to 20)
#    0.000    1.143    4.286    2.143   10.000    0.000 
#    2.571    0.714    0.000    0.000    0.000    0.000 
#    0.000    0.000    0.000    0.000    0.000    0.000 
#
# Total GULP energy -312023.991277 kJ/mol
# GULP energy per Si atom -5571.856987 kJ/mol
# Density = 2.154740 g / cm^3
# Si number density = 21.596552 Si / 1000 Ang^3
#
#
#
# Elastic Constant Matrix: (Units=GPa)
#
#
# Indices 1 2 3 4 5 6 
#
# 1 88.2817 42.8239 10.5837 0.0000 0.0000 0.0000
# 2 42.8239 57.3521 7.4210 0.0000 0.0000 0.0000
# 3 10.5837 7.4210 55.9931 0.0000 0.0000 0.0000
# 4 0.0000 0.0000 0.0000 12.4933 0.0000 0.0000
# 5 0.0000 0.0000 0.0000 0.0000 -6.2446 0.0000
# 6 0.0000 0.0000 0.0000 0.0000 0.0000 32.9192
#
#
#
# Elastic Compliance Matrix: (Units=1/GPa)
#
#
# Indices 1 2 3 4 5 6 
#
# 1 0.017907 -0.013159 -0.001641 0.000000 0.000000 0.000000
# 2 -0.013159 0.027410 -0.001146 0.000000 0.000000 0.000000
# 3 -0.001641 -0.001146 0.018321 0.000000 0.000000 0.000000
# 4 0.000000 0.000000 0.000000 0.080043 0.000000 0.000000
# 5 0.000000 0.000000 0.000000 0.000000 -0.160139 0.000000
# 6 0.000000 0.000000 0.000000 0.000000 0.000000 0.030377
#
#
# Mechanical properties :
#
#
# Convention : Reuss Voigt Hill
#
# Bulk Modulus (GPa) = 31.49781 35.92047 33.70914
# Shear Modulus (GPa) = 88.66467 17.22012 52.94240
#
# Velocity S-wave (km/s) = 6.41437 2.82681 4.95656
# Velocity P-wave (km/s) = 8.33518 5.22715 6.95695
#
# Compressibility (1/GPa) = 0.03174824
#
# Stress axis : x y z
#
# Youngs Moduli (GPa) = 55.84375 36.48335 54.58126
#
# Poissons Ratio (x) = 0.48007 0.08956
# Poissons Ratio (y) = 0.73483 0.06252
# Poissons Ratio (z) = 0.09163 0.04179
#
# Static dielectric constant tensor:
#      x y z
#    x 1.860960 0.000000 0.000000 
#    y 0.000000 1.818510 0.000000 
#    z 0.000000 0.000000 1.781880 
# 
# From -- ./inp_files/18221.got.cif
#   From: 2010.05.17/outbox.cif.g08.bks.cpg/sg56_10_cif.got.tgz:18221.got - 2010.06.03 13:42:01.
