data_PCOD9431557
_publ_section_title
;
Structure prediction by ZEFSAII (Michael W. Deem and Ramdas Pophale) SiO2 
 PCOD9431557
Probable space group: P C C N
;
_chemical_formula_sum "Si O2"
_cell_formula_units_Z 52
_cell_length_a 5.043521
_cell_length_b 29.480302
_cell_length_c 16.109707
_cell_angle_alpha 90.000000
_cell_angle_beta 90.000000
_cell_angle_gamma 90.000000
_cell_volume 2395.264088
_symmetry_space_group_name_H-M "P C C N"
_symmetry_group_IT_number 56
_symmetry_cell_setting 'orthorhombic'
loop_
_space_group_symop_operation_xyz
x,y,z
1/2-x,1/2-y,z
1/2+x,-y,1/2-z
-x,1/2+y,1/2-z
-x,-y,-z
1/2+x,1/2+y,-z
1/2-x,y,1/2+z
x,1/2-y,1/2+z
loop_
_atom_site_type_symbol
_atom_site_label
_atom_site_fract_x
_atom_site_fract_y
_atom_site_fract_z
Si Si1 0.858894 0.501703 0.307835
Si Si2 0.500000 0.500000 0.500000
Si Si3 0.332979 0.653679 0.283044
Si Si4 0.806535 0.074104 0.095118
Si Si5 0.750000 0.250000 0.719297
Si Si6 0.068071 0.430154 0.428271
Si Si7 0.829531 0.848092 0.668700
Si Si8 0.750000 0.750000 0.159034
O O1 0.084107 0.490996 0.239089
O O2 0.973630 0.545239 0.354950
O O3 0.855466 0.459295 0.372687
O O4 0.423454 0.540531 0.434278
O O5 0.260447 0.469157 0.460975
O O6 0.292466 0.613210 0.345694
O O7 0.262618 0.701912 0.325492
O O8 0.629163 0.654035 0.247122
O O9 0.126834 0.648769 0.205303
O O10 0.924915 0.091026 0.007675
O O11 0.501572 0.250869 0.780731
O O12 0.233872 0.392457 0.379940
O O13 0.779527 0.800327 0.619468
#
# Coordination Sequence:
#
# PCOD9431557 Si02
#       8
#     8   4   8   8   4   8   8   4
#     4  11  24  39  60  84 112 153 210 253 287 353
#     4  10  24  40  56  74 120 166 204 240 306 358
#     4  10  21  39  66  94 122 160 211 254 302 366
#     4  11  25  39  61  85 126 166 200 251 319 361
#     4   8  16  34  62  92 120 152 196 256 304 348
#     4  11  25  39  61  85 126 166 200 251 319 361
#     4  10  21  39  66  94 122 160 211 254 302 366
#     4   8  16  34  62  92 120 152 196 256 304 348
#
# _framework density 21.709503999999999
#
# number of rings (size 3 to 8) (size 9 to 14) (size 15 to 20)
#    0.000    1.846    0.000    3.692   12.923    0.000 
#    0.000    0.000    3.385    0.000    0.000    0.000 
#    0.000    0.000    0.000    0.000    0.000    0.000 
#
# Total GULP energy -289656.407360 kJ/mol
# GULP energy per Si atom -5570.315526 kJ/mol
# Density = 2.166009 g / cm^3
# Si number density = 21.709504 Si / 1000 Ang^3
#
#
#
# Elastic Constant Matrix: (Units=GPa)
#
#
# Indices 1 2 3 4 5 6 
#
# 1 72.6075 -19.3409 -4.0484 0.0000 0.0000 0.0000
# 2 -19.3409 101.8942 9.3006 0.0000 0.0000 0.0000
# 3 -4.0484 9.3006 53.0340 0.0000 0.0000 0.0000
# 4 0.0000 0.0000 0.0000 1.3003 0.0000 0.0000
# 5 0.0000 0.0000 0.0000 0.0000 14.9648 0.0000
# 6 0.0000 0.0000 0.0000 0.0000 0.0000 19.6297
#
#
#
# Elastic Compliance Matrix: (Units=1/GPa)
#
#
# Indices 1 2 3 4 5 6 
#
# 1 0.014527 0.002699 0.000636 0.000000 0.000000 0.000000
# 2 0.002699 0.010475 -0.001631 0.000000 0.000000 0.000000
# 3 0.000636 -0.001631 0.019190 0.000000 0.000000 0.000000
# 4 0.000000 0.000000 0.000000 0.769047 0.000000 0.000000
# 5 0.000000 0.000000 0.000000 0.000000 0.066823 0.000000
# 6 0.000000 0.000000 0.000000 0.000000 0.000000 0.050943
#
#
# Mechanical properties :
#
#
# Convention : Reuss Voigt Hill
#
# Bulk Modulus (GPa) = 21.00800 22.15091 21.57945
# Shear Modulus (GPa) = 5.29961 23.28726 14.29343
#
# Velocity S-wave (km/s) = 1.56411 3.27873 2.56870
# Velocity P-wave (km/s) = 3.59997 4.95569 4.33120
#
# Compressibility (1/GPa) = 0.04760092
#
# Stress axis : x y z
#
# Youngs Moduli (GPa) = 68.83643 95.46203 52.10951
#
# Poissons Ratio (x) = -0.25769 -0.03312
# Poissons Ratio (y) = -0.18582 0.08499
# Poissons Ratio (z) = -0.04375 0.15570
#
# Static dielectric constant tensor:
#      x y z
#    x 1.861760 0.000000 0.000000 
#    y 0.000000 1.875460 0.000000 
#    z 0.000000 0.000000 1.832830 
# 
# From -- ./inp_files/14144.got.cif
#   From: 2010.05.17/outbox.cif.g08.bks.cpg/sg56_8_cif.got.tgz:14144.got - 2010.06.03 13:42:01.
