data_PCOD9431462
_publ_section_title
;
Structure prediction by ZEFSAII (Michael W. Deem and Ramdas Pophale) SiO2 
 PCOD9431462
Probable space group: P C C N
;
_chemical_formula_sum "Si O2"
_cell_formula_units_Z 36
_cell_length_a 9.342256
_cell_length_b 19.617614
_cell_length_c 9.081996
_cell_angle_alpha 90.000000
_cell_angle_beta 90.000000
_cell_angle_gamma 90.000000
_cell_volume 1664.482583
_symmetry_space_group_name_H-M "P C C N"
_symmetry_group_IT_number 56
_symmetry_cell_setting 'orthorhombic'
loop_
_space_group_symop_operation_xyz
x,y,z
1/2-x,1/2-y,z
1/2+x,-y,1/2-z
-x,1/2+y,1/2-z
-x,-y,-z
1/2+x,1/2+y,-z
1/2-x,y,1/2+z
x,1/2-y,1/2+z
loop_
_atom_site_type_symbol
_atom_site_label
_atom_site_fract_x
_atom_site_fract_y
_atom_site_fract_z
Si Si1 0.900336 0.425693 0.144107
Si Si2 0.880704 0.460582 0.804812
Si Si3 0.750000 0.750000 0.766721
Si Si4 0.984043 0.169615 0.150962
Si Si5 0.454635 0.705085 0.171942
O O1 0.044134 0.466632 0.182556
O O2 0.773011 0.463245 0.229885
O O3 0.907624 0.349834 0.207705
O O4 0.875644 0.430677 0.970079
O O5 0.969028 0.407094 0.704748
O O6 0.852002 0.803100 0.851967
O O7 0.628959 0.790863 0.678323
O O8 0.912325 0.219515 0.273306
O O9 0.915325 0.183422 0.992142
#
# Coordination Sequence:
#
# PCOD9431462 Si02
#       5
#     8   8   4   8   8
#     4  11  26  45  66  95 130 171 217 267 324 385
#     4  11  26  45  66  95 130 171 217 267 324 385
#     4   8  22  36  64  96 130 168 210 264 314 384
#     4  10  21  38  64  94 128 167 212 262 315 378
#     4  10  21  38  64  94 128 167 212 262 315 378
#
# _framework density 21.628343000000001
#
# number of rings (size 3 to 8) (size 9 to 14) (size 15 to 20)
#    1.333    0.444    0.000    3.333    3.111    4.444 
#    0.000    4.444    0.000    0.000    0.000    0.000 
#    0.000    0.000    0.000    0.000    0.000    0.000 
#
# Total GULP energy -200858.325392 kJ/mol
# GULP energy per Si atom -5579.397928 kJ/mol
# Density = 2.157912 g / cm^3
# Si number density = 21.628343 Si / 1000 Ang^3
#
#
#
# Elastic Constant Matrix: (Units=GPa)
#
#
# Indices 1 2 3 4 5 6 
#
# 1 62.7775 -10.3810 -3.9765 0.0000 0.0000 0.0000
# 2 -10.3810 46.9533 4.8702 0.0000 0.0000 0.0000
# 3 -3.9765 4.8702 76.9663 0.0000 0.0000 0.0000
# 4 0.0000 0.0000 0.0000 24.0359 0.0000 0.0000
# 5 0.0000 0.0000 0.0000 0.0000 21.5389 0.0000
# 6 0.0000 0.0000 0.0000 0.0000 0.0000 38.9658
#
#
#
# Elastic Compliance Matrix: (Units=1/GPa)
#
#
# Indices 1 2 3 4 5 6 
#
# 1 0.016564 0.003597 0.000628 0.000000 0.000000 0.000000
# 2 0.003597 0.022220 -0.001220 0.000000 0.000000 0.000000
# 3 0.000628 -0.001220 0.013102 0.000000 0.000000 0.000000
# 4 0.000000 0.000000 0.000000 0.041604 0.000000 0.000000
# 5 0.000000 0.000000 0.000000 0.000000 0.046428 0.000000
# 6 0.000000 0.000000 0.000000 0.000000 0.000000 0.025664
#
#
# Mechanical properties :
#
#
# Convention : Reuss Voigt Hill
#
# Bulk Modulus (GPa) = 17.27243 18.63586 17.95414
# Shear Modulus (GPa) = 27.95329 29.98709 28.97019
#
# Velocity S-wave (km/s) = 3.59895 3.72758 3.66383
# Velocity P-wave (km/s) = 5.02725 5.21167 5.12029
#
# Compressibility (1/GPa) = 0.05789573
#
# Stress axis : x y z
#
# Youngs Moduli (GPa) = 60.37242 45.00539 76.32209
#
# Poissons Ratio (x) = -0.16188 -0.04794
# Poissons Ratio (y) = -0.21716 0.09313
# Poissons Ratio (z) = -0.03792 0.05491
#
# Static dielectric constant tensor:
#      x y z
#    x 1.837230 0.000000 0.000000 
#    y 0.000000 1.749220 0.000000 
#    z 0.000000 0.000000 1.754160 
# 
# From -- ./inp_files/1976.got.cif
#   From: 2010.05.17/outbox.cif.g08.bks.cpg/sg56_1_cif.got.tgz:1976.got - 2010.06.03 13:42:01.
