data_PCOD9431893
_publ_section_title
;
Structure prediction by ZEFSAII (Michael W. Deem and Ramdas Pophale) SiO2 
 PCOD9431893
Probable space group: P C C N
;
_chemical_formula_sum "Si O2"
_cell_formula_units_Z 48
_cell_length_a 12.994043
_cell_length_b 11.212075
_cell_length_c 13.162066
_cell_angle_alpha 90.000000
_cell_angle_beta 90.000000
_cell_angle_gamma 90.000000
_cell_volume 1917.583826
_symmetry_space_group_name_H-M "P C C N"
_symmetry_group_IT_number 56
_symmetry_cell_setting 'orthorhombic'
loop_
_space_group_symop_operation_xyz
x,y,z
1/2-x,1/2-y,z
1/2+x,-y,1/2-z
-x,1/2+y,1/2-z
-x,-y,-z
1/2+x,1/2+y,-z
1/2-x,y,1/2+z
x,1/2-y,1/2+z
loop_
_atom_site_type_symbol
_atom_site_label
_atom_site_fract_x
_atom_site_fract_y
_atom_site_fract_z
Si Si1 0.889628 0.873604 0.714550
Si Si2 0.585462 0.220015 0.535340
Si Si3 0.116794 0.832649 0.750535
Si Si4 0.858794 0.796023 0.386743
Si Si5 0.621780 0.008758 0.012360
Si Si6 0.662732 0.100677 0.330489
O O1 0.865810 0.746286 0.768239
O O2 0.844965 0.928526 0.610480
O O3 0.012597 0.878492 0.701957
O O4 0.384253 0.854240 0.564000
O O5 0.622648 0.141650 0.630803
O O6 0.606507 0.311592 0.750403
O O7 0.463074 0.246292 0.557569
O O8 0.640896 0.350041 0.525609
O O9 0.218784 0.867853 0.691811
O O10 0.750000 0.750000 0.427408
O O11 0.638811 0.966516 0.302836
O O12 0.500000 0.000000 0.000000
O O13 0.653490 0.934815 0.912943
#
# Coordination Sequence:
#
# PCOD9431893 Si02
#       6
#     8   8   8   8   8   8
#     4  11  24  47  71 106 146 190 245 307 367 447
#     4  10  22  46  72 103 147 189 249 307 358 452
#     4  10  23  43  69 107 137 195 238 303 372 431
#     4  10  24  43  71 109 144 194 240 300 381 445
#     4  10  21  45  74  97 147 193 232 297 368 431
#     4  11  24  44  72 106 143 190 247 304 370 435
#
# _framework density 25.031500999999999
#
# number of rings (size 3 to 8) (size 9 to 14) (size 15 to 20)
#    0.000    1.667    1.667    2.000    0.000   11.333 
#    9.000    0.000    0.000    0.000    0.000    0.000 
#    0.000    0.000    0.000    0.000    0.000    0.000 
#
# Total GULP energy -267959.790049 kJ/mol
# GULP energy per Si atom -5582.495626 kJ/mol
# Density = 2.497453 g / cm^3
# Si number density = 25.031501 Si / 1000 Ang^3
#
#
#
# Elastic Constant Matrix: (Units=GPa)
#
#
# Indices 1 2 3 4 5 6 
#
# 1 132.7002 14.4737 12.3406 0.0000 0.0000 0.0000
# 2 14.4737 88.8583 41.8151 0.0000 0.0000 0.0000
# 3 12.3406 41.8151 132.6976 0.0000 0.0000 0.0000
# 4 0.0000 0.0000 0.0000 55.1628 0.0000 0.0000
# 5 0.0000 0.0000 0.0000 0.0000 26.8914 0.0000
# 6 0.0000 0.0000 0.0000 0.0000 0.0000 19.0777
#
#
#
# Elastic Compliance Matrix: (Units=1/GPa)
#
#
# Indices 1 2 3 4 5 6 
#
# 1 0.007688 -0.001075 -0.000376 0.000000 0.000000 0.000000
# 2 -0.001075 0.013364 -0.004111 0.000000 0.000000 0.000000
# 3 -0.000376 -0.004111 0.008866 0.000000 0.000000 0.000000
# 4 0.000000 0.000000 0.000000 0.018128 0.000000 0.000000
# 5 0.000000 0.000000 0.000000 0.000000 0.037187 0.000000
# 6 0.000000 0.000000 0.000000 0.000000 0.000000 0.052417
#
#
# Mechanical properties :
#
#
# Convention : Reuss Voigt Hill
#
# Bulk Modulus (GPa) = 53.21113 54.61276 53.91194
# Shear Modulus (GPa) = 32.24985 39.26815 35.75900
#
# Velocity S-wave (km/s) = 3.59328 3.96504 3.78373
# Velocity P-wave (km/s) = 6.20640 6.54424 6.37756
#
# Compressibility (1/GPa) = 0.01879306
#
# Stress axis : x y z
#
# Youngs Moduli (GPa) = 130.07211 74.83001 112.78560
#
# Poissons Ratio (x) = 0.08046 0.04242
# Poissons Ratio (y) = 0.13986 0.46367
# Poissons Ratio (z) = 0.04893 0.30763
#
# Static dielectric constant tensor:
#      x y z
#    x 2.008180 0.000000 0.000000 
#    y 0.000000 2.074580 0.000000 
#    z 0.000000 0.000000 2.096750 
# 
# From -- ./inp_files/11615.got.cif
#   From: 2010.05.17/outbox.cif.g08.bks.cpg/sg56_6_cif.got.tgz:11615.got - 2010.06.03 13:42:01.
