data_PCOD9431029
_publ_section_title
;
Structure prediction by ZEFSAII (Michael W. Deem and Ramdas Pophale) SiO2 
 PCOD9431029
Probable space group: P C C N
;
_chemical_formula_sum "Si O2"
_cell_formula_units_Z 40
_cell_length_a 9.755195
_cell_length_b 14.027142
_cell_length_c 14.218158
_cell_angle_alpha 90.000000
_cell_angle_beta 90.000000
_cell_angle_gamma 90.000000
_cell_volume 1945.577274
_symmetry_space_group_name_H-M "P C C N"
_symmetry_group_IT_number 56
_symmetry_cell_setting 'orthorhombic'
loop_
_space_group_symop_operation_xyz
x,y,z
1/2-x,1/2-y,z
1/2+x,-y,1/2-z
-x,1/2+y,1/2-z
-x,-y,-z
1/2+x,1/2+y,-z
1/2-x,y,1/2+z
x,1/2-y,1/2+z
loop_
_atom_site_type_symbol
_atom_site_label
_atom_site_fract_x
_atom_site_fract_y
_atom_site_fract_z
Si Si1 0.338239 0.518500 0.007634
Si Si2 0.689663 0.896105 0.835772
Si Si3 0.450612 0.218489 0.718500
Si Si4 0.367045 0.827587 0.660864
Si Si5 0.189773 0.564737 0.299022
O O1 0.281638 0.527416 0.902926
O O2 0.500000 0.500000 0.000000
O O3 0.254037 0.442934 0.070574
O O4 0.343054 0.616191 0.065800
O O5 0.818135 0.848475 0.780352
O O6 0.586905 0.807210 0.850254
O O7 0.634387 0.980913 0.769269
O O8 0.492458 0.273860 0.814397
O O9 0.578218 0.150264 0.692691
O O10 0.250000 0.750000 0.662988
O O11 0.324984 0.897550 0.746370
#
# Coordination Sequence:
#
# PCOD9431029 Si02
#       5
#     8   8   8   8   8
#     4  11  20  38  61  90 122 162 208 258 308 370
#     4  10  22  38  63  90 124 165 210 251 320 367
#     4  10  20  40  59  89 124 164 206 257 304 376
#     4   9  21  38  63  88 123 165 204 252 316 374
#     4  10  21  39  64  87 127 164 204 259 318 362
#
# _framework density 20.559450999999999
#
# number of rings (size 3 to 8) (size 9 to 14) (size 15 to 20)
#    0.000    2.000    2.000    1.200    2.800    2.400 
#    3.600    3.000    0.000    0.000    0.000    0.000 
#    0.000    0.000    0.000    0.000    0.000    0.000 
#
# Total GULP energy -222888.861234 kJ/mol
# GULP energy per Si atom -5572.221531 kJ/mol
# Density = 2.051266 g / cm^3
# Si number density = 20.559451 Si / 1000 Ang^3
#
#
#
# Elastic Constant Matrix: (Units=GPa)
#
#
# Indices 1 2 3 4 5 6 
#
# 1 41.6022 26.5448 15.1287 0.0000 0.0000 0.0000
# 2 26.5448 117.3241 41.5897 0.0000 0.0000 0.0000
# 3 15.1287 41.5897 108.0627 0.0000 0.0000 0.0000
# 4 0.0000 0.0000 0.0000 12.7728 0.0000 0.0000
# 5 0.0000 0.0000 0.0000 0.0000 10.2646 0.0000
# 6 0.0000 0.0000 0.0000 0.0000 0.0000 34.4062
#
#
#
# Elastic Compliance Matrix: (Units=1/GPa)
#
#
# Indices 1 2 3 4 5 6 
#
# 1 0.028372 -0.005803 -0.001739 0.000000 0.000000 0.000000
# 2 -0.005803 0.011057 -0.003443 0.000000 0.000000 0.000000
# 3 -0.001739 -0.003443 0.010822 0.000000 0.000000 0.000000
# 4 0.000000 0.000000 0.000000 0.078292 0.000000 0.000000
# 5 0.000000 0.000000 0.000000 0.000000 0.097422 0.000000
# 6 0.000000 0.000000 0.000000 0.000000 0.000000 0.029065
#
#
# Mechanical properties :
#
#
# Convention : Reuss Voigt Hill
#
# Bulk Modulus (GPa) = 35.35813 48.16840 41.76326
# Shear Modulus (GPa) = 17.45650 23.73708 20.59679
#
# Velocity S-wave (km/s) = 2.91705 3.40157 3.16858
# Velocity P-wave (km/s) = 5.34611 6.23757 5.80896
#
# Compressibility (1/GPa) = 0.02828204
#
# Stress axis : x y z
#
# Youngs Moduli (GPa) = 35.24594 90.44198 92.40087
#
# Poissons Ratio (x) = 0.52482 0.16066
# Poissons Ratio (y) = 0.20453 0.31814
# Poissons Ratio (z) = 0.06128 0.31139
#
# Static dielectric constant tensor:
#      x y z
#    x 1.760590 0.000000 0.000000 
#    y 0.000000 1.754080 0.000000 
#    z 0.000000 0.000000 1.606620 
# 
# From -- ./inp_files/10352.got.cif
#   From: 2010.05.17/outbox.cif.g08.bks.cpg/sg56_6_cif.got.tgz:10352.got - 2010.06.03 13:42:01.
