data_PCOD9431112
_publ_section_title
;
Structure prediction by ZEFSAII (Michael W. Deem and Ramdas Pophale) SiO2 
 PCOD9431112
Probable space group: P C C N
;
_chemical_formula_sum "Si O2"
_cell_formula_units_Z 64
_cell_length_a 11.831933
_cell_length_b 23.732942
_cell_length_c 12.193108
_cell_angle_alpha 90.000000
_cell_angle_beta 90.000000
_cell_angle_gamma 90.000000
_cell_volume 3423.904953
_symmetry_space_group_name_H-M "P C C N"
_symmetry_group_IT_number 56
_symmetry_cell_setting 'orthorhombic'
loop_
_space_group_symop_operation_xyz
x,y,z
1/2-x,1/2-y,z
1/2+x,-y,1/2-z
-x,1/2+y,1/2-z
-x,-y,-z
1/2+x,1/2+y,-z
1/2-x,y,1/2+z
x,1/2-y,1/2+z
loop_
_atom_site_type_symbol
_atom_site_label
_atom_site_fract_x
_atom_site_fract_y
_atom_site_fract_z
Si Si1 0.559173 0.057980 0.242130
Si Si2 0.833459 0.564314 0.901278
Si Si3 0.312817 0.554045 0.476216
Si Si4 0.404140 0.631490 0.936176
Si Si5 0.088554 0.440609 0.676950
Si Si6 0.890086 0.301421 0.790566
Si Si7 0.027022 0.387280 0.909732
Si Si8 0.633765 0.322713 0.840915
O O1 0.435916 0.059078 0.185561
O O2 0.648407 0.042092 0.147527
O O3 0.594818 0.119541 0.283885
O O4 0.569033 0.007861 0.329796
O O5 0.716648 0.578483 0.842831
O O6 0.808692 0.504160 0.958408
O O7 0.876192 0.605331 0.998953
O O8 0.200762 0.591301 0.468625
O O9 0.415090 0.587950 0.532549
O O10 0.509664 0.591848 0.908784
O O11 0.383946 0.667057 0.825826
O O12 0.417140 0.673638 0.037578
O O13 0.052765 0.423231 0.800450
O O14 0.769880 0.316890 0.846319
O O15 0.901750 0.234461 0.780062
O O16 0.991258 0.326663 0.863413
#
# Coordination Sequence:
#
# PCOD9431112 Si02
#       8
#     8   8   8   8   8   8   8   8
#     4  11  22  38  61  91 129 166 203 264 316 377
#     4  11  23  37  62  88 125 174 215 242 319 388
#     4  11  19  37  61  91 121 168 202 248 324 379
#     4  11  24  39  64  94 130 158 206 267 315 374
#     4  11  24  37  61  94 127 166 210 257 309 381
#     4  10  23  40  64  91 123 165 204 260 324 379
#     4  10  20  41  59  86 127 162 200 262 316 368
#     4  11  23  39  63  95 126 156 208 266 318 373
#
# _framework density 18.692108999999999
#
# number of rings (size 3 to 8) (size 9 to 14) (size 15 to 20)
#    0.000    1.250    5.000    1.500    1.750    7.000 
#    0.000    0.000    0.000    9.750    0.000    0.000 
#    0.000    0.000    0.000    0.000    0.000    0.000 
#
# Total GULP energy -357206.342740 kJ/mol
# GULP energy per Si atom -5581.349105 kJ/mol
# Density = 1.864956 g / cm^3
# Si number density = 18.692109 Si / 1000 Ang^3
#
#
#
# Elastic Constant Matrix: (Units=GPa)
#
#
# Indices 1 2 3 4 5 6 
#
# 1 87.9587 35.9094 22.6940 0.0000 0.0000 0.0000
# 2 35.9094 111.9456 23.7496 0.0000 0.0000 0.0000
# 3 22.6940 23.7496 59.9923 0.0000 0.0000 0.0000
# 4 0.0000 0.0000 0.0000 20.8119 0.0000 0.0000
# 5 0.0000 0.0000 0.0000 0.0000 15.7010 0.0000
# 6 0.0000 0.0000 0.0000 0.0000 0.0000 20.7542
#
#
#
# Elastic Compliance Matrix: (Units=1/GPa)
#
#
# Indices 1 2 3 4 5 6 
#
# 1 0.013830 -0.003632 -0.003794 0.000000 0.000000 0.000000
# 2 -0.003632 0.010705 -0.002864 0.000000 0.000000 0.000000
# 3 -0.003794 -0.002864 0.019238 0.000000 0.000000 0.000000
# 4 0.000000 0.000000 0.000000 0.048049 0.000000 0.000000
# 5 0.000000 0.000000 0.000000 0.000000 0.063690 0.000000
# 6 0.000000 0.000000 0.000000 0.000000 0.000000 0.048183
#
#
# Mechanical properties :
#
#
# Convention : Reuss Voigt Hill
#
# Bulk Modulus (GPa) = 43.11476 47.17806 45.14641
# Shear Modulus (GPa) = 21.55096 23.28965 22.42031
#
# Velocity S-wave (km/s) = 3.39919 3.53365 3.46707
# Velocity P-wave (km/s) = 6.20659 6.47636 6.34291
#
# Compressibility (1/GPa) = 0.02319392
#
# Stress axis : x y z
#
# Youngs Moduli (GPa) = 72.30408 93.41001 51.98044
#
# Poissons Ratio (x) = 0.33922 0.19722
# Poissons Ratio (y) = 0.26257 0.14889
# Poissons Ratio (z) = 0.27433 0.26756
#
# Static dielectric constant tensor:
#      x y z
#    x 1.643140 0.000000 0.000000 
#    y 0.000000 1.664600 0.000000 
#    z 0.000000 0.000000 1.663810 
# 
# From -- ./inp_files/7399.got.cif
#   From: 2010.05.17/outbox.cif.g08.bks.cpg/sg56_4_cif.got.tgz:7399.got - 2010.06.03 13:42:01.
