data_PCOD9431776
_publ_section_title
;
Structure prediction by ZEFSAII (Michael W. Deem and Ramdas Pophale) SiO2 
 PCOD9431776
Probable space group: P C C N
;
_chemical_formula_sum "Si O2"
_cell_formula_units_Z 32
_cell_length_a 7.199477
_cell_length_b 5.366541
_cell_length_c 36.635238
_cell_angle_alpha 90.000000
_cell_angle_beta 90.000000
_cell_angle_gamma 90.000000
_cell_volume 1415.449625
_symmetry_space_group_name_H-M "P C C N"
_symmetry_group_IT_number 56
_symmetry_cell_setting 'orthorhombic'
loop_
_space_group_symop_operation_xyz
x,y,z
1/2-x,1/2-y,z
1/2+x,-y,1/2-z
-x,1/2+y,1/2-z
-x,-y,-z
1/2+x,1/2+y,-z
1/2-x,y,1/2+z
x,1/2-y,1/2+z
loop_
_atom_site_type_symbol
_atom_site_label
_atom_site_fract_x
_atom_site_fract_y
_atom_site_fract_z
Si Si1 0.468370 0.498280 0.456957
Si Si2 0.950593 0.376603 0.268941
Si Si3 0.621551 0.498335 0.848520
Si Si4 0.455153 0.503154 0.925379
O O1 0.500000 0.500000 0.500000
O O2 0.253233 0.500631 0.442536
O O3 0.547489 0.750420 0.440873
O O4 0.545635 0.246690 0.440253
O O5 0.750000 0.250000 0.269458
O O6 0.986999 0.462982 0.310356
O O7 0.939560 0.633383 0.245794
O O8 0.750000 0.250000 0.853288
O O9 0.477679 0.511559 0.882025
O O10 0.750000 0.750000 0.847263
#
# Coordination Sequence:
#
# PCOD9431776 Si02
#       4
#     8   8   8   8
#     4  10  21  42  64  89 131 164 213 293 336 401
#     4  11  23  44  70 104 141 187 235 288 352 420
#     4  11  23  44  68  94 142 182 223 285 343 411
#     4  10  22  42  63  93 124 174 226 264 345 408
#
# _framework density 22.607659999999999
#
# number of rings (size 3 to 8) (size 9 to 14) (size 15 to 20)
#    0.000    1.500    0.000    6.000    0.000    0.000 
#   40.500    0.000    0.000    0.000    0.000    0.000 
#    0.000    0.000    0.000    0.000    0.000    0.000 
#
# Total GULP energy -178502.050030 kJ/mol
# GULP energy per Si atom -5578.189063 kJ/mol
# Density = 2.255620 g / cm^3
# Si number density = 22.607660 Si / 1000 Ang^3
#
#
#
# Elastic Constant Matrix: (Units=GPa)
#
#
# Indices 1 2 3 4 5 6 
#
# 1 86.8832 21.5618 48.0254 0.0000 0.0000 0.0000
# 2 21.5618 252.3708 95.1256 0.0000 0.0000 0.0000
# 3 48.0254 95.1256 248.4736 0.0000 0.0000 0.0000
# 4 0.0000 0.0000 0.0000 43.8223 0.0000 0.0000
# 5 0.0000 0.0000 0.0000 0.0000 29.9585 0.0000
# 6 0.0000 0.0000 0.0000 0.0000 0.0000 -14.0446
#
#
#
# Elastic Compliance Matrix: (Units=1/GPa)
#
#
# Indices 1 2 3 4 5 6 
#
# 1 0.012894 -0.000190 -0.002420 0.000000 0.000000 0.000000
# 2 -0.000190 0.004633 -0.001737 0.000000 0.000000 0.000000
# 3 -0.002420 -0.001737 0.005157 0.000000 0.000000 0.000000
# 4 0.000000 0.000000 0.000000 0.022819 0.000000 0.000000
# 5 0.000000 0.000000 0.000000 0.000000 0.033379 0.000000
# 6 0.000000 0.000000 0.000000 0.000000 0.000000 -0.071202
#
#
# Mechanical properties :
#
#
# Convention : Reuss Voigt Hill
#
# Bulk Modulus (GPa) = 71.46908 101.90589 86.68748
# Shear Modulus (GPa) = 237.65028 40.14823 138.89925
#
# Velocity S-wave (km/s) = 10.26390 4.21868 7.84681
# Velocity P-wave (km/s) = 13.12040 8.30080 10.97835
#
# Compressibility (1/GPa) = 0.01399207
#
# Stress axis : x y z
#
# Youngs Moduli (GPa) = 77.55408 215.82303 193.89941
#
# Poissons Ratio (x) = 0.04092 0.46916
# Poissons Ratio (y) = 0.01471 0.33684
# Poissons Ratio (z) = 0.18765 0.37493
#
# Static dielectric constant tensor:
#      x y z
#    x 1.846020 0.000000 0.000000 
#    y 0.000000 2.020670 0.000000 
#    z 0.000000 0.000000 1.841810 
# 
# From -- ./inp_files/23048.got.cif
#   From: 2010.05.17/outbox.cif.g08.bks.cpg/sg56_12_cif.got.tgz:23048.got - 2010.06.03 13:42:01.
