data_PCOD9431601
_publ_section_title
;
Structure prediction by ZEFSAII (Michael W. Deem and Ramdas Pophale) SiO2 
 PCOD9431601
Probable space group: P C C N
;
_chemical_formula_sum "Si O2"
_cell_formula_units_Z 52
_cell_length_a 19.669042
_cell_length_b 5.010799
_cell_length_c 20.559169
_cell_angle_alpha 90.000000
_cell_angle_beta 90.000000
_cell_angle_gamma 90.000000
_cell_volume 2026.262683
_symmetry_space_group_name_H-M "P C C N"
_symmetry_group_IT_number 56
_symmetry_cell_setting 'orthorhombic'
loop_
_space_group_symop_operation_xyz
x,y,z
1/2-x,1/2-y,z
1/2+x,-y,1/2-z
-x,1/2+y,1/2-z
-x,-y,-z
1/2+x,1/2+y,-z
1/2-x,y,1/2+z
x,1/2-y,1/2+z
loop_
_atom_site_type_symbol
_atom_site_label
_atom_site_fract_x
_atom_site_fract_y
_atom_site_fract_z
Si Si1 0.142247 0.854519 0.444873
Si Si2 0.250000 0.750000 0.057074
Si Si3 0.571394 0.649388 0.008877
Si Si4 0.652083 0.043615 0.778056
Si Si5 0.001327 0.439247 0.213317
Si Si6 0.677934 0.819375 0.397301
Si Si7 0.649633 0.536665 0.689745
O O1 0.194396 0.856823 0.504720
O O2 0.114755 0.552105 0.445266
O O3 0.179148 0.957796 0.379846
O O4 0.079939 0.056407 0.461576
O O5 0.304792 0.628362 0.108936
O O6 0.500000 0.500000 0.000000
O O7 0.610478 0.684401 0.939850
O O8 0.573765 0.062761 0.803996
O O9 0.681856 0.863124 0.835164
O O10 0.656352 0.834886 0.716715
O O11 0.670881 0.326600 0.746115
O O12 0.931211 0.483647 0.177180
O O13 0.987922 0.624033 0.277585
O O14 0.750000 0.750000 0.434113
#
# Coordination Sequence:
#
# PCOD9431601 Si02
#       7
#     8   4   8   8   8   8   8
#     4  11  23  44  71  94 143 180 235 297 358 429
#     4  10  24  46  68  96 132 198 238 286 372 434
#     4  11  25  44  70 108 134 182 244 301 357 428
#     4  10  22  38  63  96 129 175 222 278 347 426
#     4   8  16  33  54  82 125 162 203 254 329 407
#     4  11  24  45  71  93 144 184 238 295 367 434
#     4  10  21  40  62 100 133 173 223 282 356 415
#
# _framework density 25.663008000000001
#
# number of rings (size 3 to 8) (size 9 to 14) (size 15 to 20)
#    0.000    1.846    1.538    1.385    4.308    0.000 
#   11.077    0.000    0.000    0.000    0.000    0.000 
#    0.000    0.000    0.000    0.000    0.000    0.000 
#
# Total GULP energy -289503.017563 kJ/mol
# GULP energy per Si atom -5567.365722 kJ/mol
# Density = 2.560460 g / cm^3
# Si number density = 25.663008 Si / 1000 Ang^3
#
#
#
# Elastic Constant Matrix: (Units=GPa)
#
#
# Indices 1 2 3 4 5 6 
#
# 1 67.9282 -7.0984 -6.4627 0.0000 0.0000 0.0000
# 2 -7.0984 102.5509 12.8606 0.0000 0.0000 0.0000
# 3 -6.4627 12.8606 63.5849 0.0000 0.0000 0.0000
# 4 0.0000 0.0000 0.0000 -9.7761 0.0000 0.0000
# 5 0.0000 0.0000 0.0000 0.0000 12.1325 0.0000
# 6 0.0000 0.0000 0.0000 0.0000 0.0000 31.7758
#
#
#
# Elastic Compliance Matrix: (Units=1/GPa)
#
#
# Indices 1 2 3 4 5 6 
#
# 1 0.014940 0.000866 0.001343 0.000000 0.000000 0.000000
# 2 0.000866 0.010055 -0.001946 0.000000 0.000000 0.000000
# 3 0.001343 -0.001946 0.016257 0.000000 0.000000 0.000000
# 4 0.000000 0.000000 0.000000 -0.102291 0.000000 0.000000
# 5 0.000000 0.000000 0.000000 0.000000 0.082423 0.000000
# 6 0.000000 0.000000 0.000000 0.000000 0.000000 0.031470
#
#
# Mechanical properties :
#
#
# Convention : Reuss Voigt Hill
#
# Bulk Modulus (GPa) = 23.93578 25.85144 24.89361
# Shear Modulus (GPa) = 75.46670 22.47743 48.97206
#
# Velocity S-wave (km/s) = 5.42869 2.96272 4.37312
# Velocity P-wave (km/s) = 6.97434 4.66893 5.93466
#
# Compressibility (1/GPa) = 0.04177846
#
# Stress axis : x y z
#
# Youngs Moduli (GPa) = 66.93576 99.45120 61.51158
#
# Poissons Ratio (x) = -0.08609 -0.08263
# Poissons Ratio (y) = -0.05794 0.11969
# Poissons Ratio (z) = -0.08992 0.19351
#
# Static dielectric constant tensor:
#      x y z
#    x 2.086820 0.000000 0.000000 
#    y 0.000000 1.683400 0.000000 
#    z 0.000000 0.000000 2.068740 
# 
# From -- ./inp_files/19473.got.cif
#   From: 2010.05.17/outbox.cif.g08.bks.cpg/sg56_10_cif.got.tgz:19473.got - 2010.06.03 13:42:01.
