data_PCOD9431205
_publ_section_title
;
Structure prediction by ZEFSAII (Michael W. Deem and Ramdas Pophale) SiO2 
 PCOD9431205
Probable space group: P C C N
;
_chemical_formula_sum "Si O2"
_cell_formula_units_Z 40
_cell_length_a 8.422260
_cell_length_b 10.840939
_cell_length_c 22.771433
_cell_angle_alpha 90.000000
_cell_angle_beta 90.000000
_cell_angle_gamma 90.000000
_cell_volume 2079.150402
_symmetry_space_group_name_H-M "P C C N"
_symmetry_group_IT_number 56
_symmetry_cell_setting 'orthorhombic'
loop_
_space_group_symop_operation_xyz
x,y,z
1/2-x,1/2-y,z
1/2+x,-y,1/2-z
-x,1/2+y,1/2-z
-x,-y,-z
1/2+x,1/2+y,-z
1/2-x,y,1/2+z
x,1/2-y,1/2+z
loop_
_atom_site_type_symbol
_atom_site_label
_atom_site_fract_x
_atom_site_fract_y
_atom_site_fract_z
Si Si1 0.533452 0.502704 0.666239
Si Si2 0.941098 0.772705 0.127401
Si Si3 0.180906 0.112893 0.762780
Si Si4 0.926682 0.109963 0.539118
Si Si5 0.068720 0.636017 0.506592
O O1 0.490920 0.639923 0.644445
O O2 0.398716 0.442074 0.705638
O O3 0.684615 0.526177 0.708706
O O4 0.571357 0.426437 0.607445
O O5 0.750000 0.750000 0.113550
O O6 0.941004 0.861599 0.183685
O O7 0.036602 0.826881 0.073600
O O8 0.250000 0.250000 0.750728
O O9 0.002552 0.245553 0.528500
O O10 0.748742 0.123020 0.514753
O O11 0.000000 0.000000 0.500000
O O12 0.000000 0.500000 0.500000
#
# Coordination Sequence:
#
# PCOD9431205 Si02
#       5
#     8   8   8   8   8
#     4  10  20  44  65  88 131 164 210 272 310 379
#     4   9  19  40  67  88 125 164 213 263 315 382
#     4   9  21  41  63  92 119 165 213 258 320 373
#     4  11  24  42  62  97 131 162 218 267 315 386
#     4  11  23  41  65  95 126 175 207 254 334 379
#
# _framework density 19.238629
#
# number of rings (size 3 to 8) (size 9 to 14) (size 15 to 20)
#    0.000    2.400    2.000    2.400    0.000    1.600 
#   25.200    0.000    0.000    0.000    0.000    0.000 
#    0.000    0.000    0.000    0.000    0.000    0.000 
#
# Total GULP energy -222998.484990 kJ/mol
# GULP energy per Si atom -5574.962125 kJ/mol
# Density = 1.919484 g / cm^3
# Si number density = 19.238629 Si / 1000 Ang^3
#
#
#
# Elastic Constant Matrix: (Units=GPa)
#
#
# Indices 1 2 3 4 5 6 
#
# 1 45.2543 53.1950 73.5105 0.0000 0.0000 0.0000
# 2 53.1950 145.6906 85.2498 0.0000 0.0000 0.0000
# 3 73.5105 85.2498 173.9607 0.0000 0.0000 0.0000
# 4 0.0000 0.0000 0.0000 24.5169 0.0000 0.0000
# 5 0.0000 0.0000 0.0000 0.0000 31.2729 0.0000
# 6 0.0000 0.0000 0.0000 0.0000 0.0000 24.5585
#
#
#
# Elastic Compliance Matrix: (Units=1/GPa)
#
#
# Indices 1 2 3 4 5 6 
#
# 1 0.088078 -0.014554 -0.030087 0.000000 0.000000 0.000000
# 2 -0.014554 0.012028 0.000256 0.000000 0.000000 0.000000
# 3 -0.030087 0.000256 0.018337 0.000000 0.000000 0.000000
# 4 0.000000 0.000000 0.000000 0.040788 0.000000 0.000000
# 5 0.000000 0.000000 0.000000 0.000000 0.031977 0.000000
# 6 0.000000 0.000000 0.000000 0.000000 0.000000 0.040719
#
#
# Mechanical properties :
#
#
# Convention : Reuss Voigt Hill
#
# Bulk Modulus (GPa) = 33.70120 87.64622 60.67371
# Shear Modulus (GPa) = 15.12456 26.26634 20.69545
#
# Velocity S-wave (km/s) = 2.80689 3.69899 3.28338
# Velocity P-wave (km/s) = 5.29720 7.99373 6.78086
#
# Compressibility (1/GPa) = 0.02967254
#
# Stress axis : x y z
#
# Youngs Moduli (GPa) = 11.35360 83.13693 54.53499
#
# Poissons Ratio (x) = 1.20999 1.64078
# Poissons Ratio (y) = 0.16524 -0.01394
# Poissons Ratio (z) = 0.34159 -0.02125
#
# Static dielectric constant tensor:
#      x y z
#    x 1.700870 0.000000 0.000000 
#    y 0.000000 1.700890 0.000000 
#    z 0.000000 0.000000 1.653360 
# 
# From -- ./inp_files/17986.got.cif
#   From: 2010.05.17/outbox.cif.g08.bks.cpg/sg56_9_cif.got.tgz:17986.got - 2010.06.03 13:42:01.
