data_PCOD9431399
_publ_section_title
;
Structure prediction by ZEFSAII (Michael W. Deem and Ramdas Pophale) SiO2 
 PCOD9431399
Probable space group: P C C N
;
_chemical_formula_sum "Si O2"
_cell_formula_units_Z 64
_cell_length_a 22.504021
_cell_length_b 21.235694
_cell_length_c 5.399179
_cell_angle_alpha 90.000000
_cell_angle_beta 90.000000
_cell_angle_gamma 90.000000
_cell_volume 2580.205574
_symmetry_space_group_name_H-M "P C C N"
_symmetry_group_IT_number 56
_symmetry_cell_setting 'orthorhombic'
loop_
_space_group_symop_operation_xyz
x,y,z
1/2-x,1/2-y,z
1/2+x,-y,1/2-z
-x,1/2+y,1/2-z
-x,-y,-z
1/2+x,1/2+y,-z
1/2-x,y,1/2+z
x,1/2-y,1/2+z
loop_
_atom_site_type_symbol
_atom_site_label
_atom_site_fract_x
_atom_site_fract_y
_atom_site_fract_z
Si Si1 0.471202 0.210271 0.901028
Si Si2 0.894835 0.290428 0.882960
Si Si3 0.276312 0.177656 0.479581
Si Si4 0.598561 0.875815 0.396654
Si Si5 0.010250 0.443576 0.304157
Si Si6 0.770035 0.485521 0.112046
Si Si7 0.275499 0.844578 0.287431
Si Si8 0.903370 0.001631 0.610996
O O1 0.464192 0.255295 0.661167
O O2 0.537960 0.183738 0.875294
O O3 0.421407 0.158474 0.854319
O O4 0.889667 0.239865 0.656475
O O5 0.841670 0.337147 0.816348
O O6 0.250000 0.250000 0.477596
O O7 0.251280 0.150000 0.228125
O O8 0.346594 0.163447 0.493517
O O9 0.540480 0.883263 0.571520
O O10 0.608680 0.948334 0.320846
O O11 0.000000 0.500000 0.500000
O O12 0.943479 0.439483 0.198854
O O13 0.056133 0.469277 0.099184
O O14 0.763934 0.516058 0.382939
O O15 0.742657 0.416729 0.165741
O O16 0.838137 0.479983 0.031506
O O17 0.265808 0.817514 0.564955
#
# Coordination Sequence:
#
# PCOD9431399 Si02
#       8
#     8   8   8   8   8   8   8   8
#     4  10  25  43  67  99 135 177 221 281 335 397
#     4  10  21  40  61  89 129 167 216 272 319 391
#     4  10  25  44  66 100 138 187 230 289 355 427
#     4  11  25  41  75  99 138 184 238 288 356 433
#     4   9  22  45  69 103 133 187 231 303 361 422
#     4  10  24  42  66  97 135 182 222 287 343 416
#     4  10  21  38  58  93 120 173 218 258 332 386
#     4  10  23  45  69 102 143 178 242 296 364 429
#
# _framework density 24.804226
#
# number of rings (size 3 to 8) (size 9 to 14) (size 15 to 20)
#    0.000    2.000    0.000    0.750   10.500    4.500 
#   11.250    0.000    0.000    0.000    0.000    0.000 
#    0.000    0.000    0.000    0.000    0.000    0.000 
#
# Total GULP energy -357435.547664 kJ/mol
# GULP energy per Si atom -5584.930432 kJ/mol
# Density = 2.474777 g / cm^3
# Si number density = 24.804226 Si / 1000 Ang^3
#
#
#
# Elastic Constant Matrix: (Units=GPa)
#
#
# Indices 1 2 3 4 5 6 
#
# 1 141.5641 33.0268 18.0293 0.0000 0.0000 0.0000
# 2 33.0268 99.1407 10.0741 0.0000 0.0000 0.0000
# 3 18.0293 10.0741 154.9188 0.0000 0.0000 0.0000
# 4 0.0000 0.0000 0.0000 24.4050 0.0000 0.0000
# 5 0.0000 0.0000 0.0000 0.0000 35.9867 0.0000
# 6 0.0000 0.0000 0.0000 0.0000 0.0000 26.7238
#
#
#
# Elastic Compliance Matrix: (Units=1/GPa)
#
#
# Indices 1 2 3 4 5 6 
#
# 1 0.007742 -0.002504 -0.000738 0.000000 0.000000 0.000000
# 2 -0.002504 0.010964 -0.000422 0.000000 0.000000 0.000000
# 3 -0.000738 -0.000422 0.006568 0.000000 0.000000 0.000000
# 4 0.000000 0.000000 0.000000 0.040975 0.000000 0.000000
# 5 0.000000 0.000000 0.000000 0.000000 0.027788 0.000000
# 6 0.000000 0.000000 0.000000 0.000000 0.000000 0.037420
#
#
# Mechanical properties :
#
#
# Convention : Reuss Voigt Hill
#
# Bulk Modulus (GPa) = 55.72117 57.54265 56.63191
# Shear Modulus (GPa) = 34.53822 39.72266 37.13044
#
# Velocity S-wave (km/s) = 3.73558 4.00615 3.87323
# Velocity P-wave (km/s) = 6.41243 6.68192 6.54856
#
# Compressibility (1/GPa) = 0.01794650
#
# Stress axis : x y z
#
# Youngs Moduli (GPa) = 129.16281 91.20998 152.24605
#
# Poissons Ratio (x) = 0.22840 0.11239
# Poissons Ratio (y) = 0.32344 0.06417
# Poissons Ratio (z) = 0.09535 0.03845
#
# Static dielectric constant tensor:
#      x y z
#    x 1.953010 0.000000 0.000000 
#    y 0.000000 1.917850 0.000000 
#    z 0.000000 0.000000 2.051660 
# 
# From -- ./inp_files/970.got.cif
#   From: 2010.05.17/outbox.cif.g08.bks.cpg/sg56_1_cif.got.tgz:970.got - 2010.06.03 13:42:01.
