data_PCOD9431722
_publ_section_title
;
Structure prediction by ZEFSAII (Michael W. Deem and Ramdas Pophale) SiO2 
 PCOD9431722
Probable space group: P C C N
;
_chemical_formula_sum "Si O2"
_cell_formula_units_Z 48
_cell_length_a 15.443458
_cell_length_b 23.643801
_cell_length_c 5.473472
_cell_angle_alpha 90.000000
_cell_angle_beta 90.000000
_cell_angle_gamma 90.000000
_cell_volume 1998.594774
_symmetry_space_group_name_H-M "P C C N"
_symmetry_group_IT_number 56
_symmetry_cell_setting 'orthorhombic'
loop_
_space_group_symop_operation_xyz
x,y,z
1/2-x,1/2-y,z
1/2+x,-y,1/2-z
-x,1/2+y,1/2-z
-x,-y,-z
1/2+x,1/2+y,-z
1/2-x,y,1/2+z
x,1/2-y,1/2+z
loop_
_atom_site_type_symbol
_atom_site_label
_atom_site_fract_x
_atom_site_fract_y
_atom_site_fract_z
Si Si1 0.296712 0.965713 0.444224
Si Si2 0.944900 0.615490 0.042406
Si Si3 0.551197 0.118272 0.457462
Si Si4 0.727791 0.588111 0.544998
Si Si5 0.214638 0.685604 0.631468
Si Si6 0.649731 0.729373 0.406101
O O1 0.235844 0.949852 0.674168
O O2 0.386737 0.935687 0.499870
O O3 0.291891 0.034007 0.447179
O O4 0.871354 0.567050 0.047979
O O5 0.881038 0.669017 0.006883
O O6 0.993751 0.621640 0.298055
O O7 0.002335 0.611638 0.800172
O O8 0.615202 0.172801 0.432864
O O9 0.753014 0.619191 0.297080
O O10 0.250000 0.750000 0.650819
O O11 0.233374 0.661327 0.899770
O O12 0.750000 0.750000 0.384241
O O13 0.613812 0.732301 0.129624
#
# Coordination Sequence:
#
# PCOD9431722 Si02
#       6
#     8   8   8   8   8   8
#     4  10  21  43  70  98 132 182 230 262 332 415
#     4  12  26  43  68 105 138 170 224 292 342 380
#     4  12  24  43  68 104 135 172 222 293 340 380
#     4  10  23  43  70  98 130 185 225 266 328 425
#     4  10  21  41  65  91 126 177 222 263 324 414
#     4  10  23  43  67  96 130 181 225 269 329 414
#
# _framework density 24.016873
#
# number of rings (size 3 to 8) (size 9 to 14) (size 15 to 20)
#    0.000    1.333    0.000    5.000    4.667    0.000 
#   18.000   20.000    0.000    0.000    0.000    0.000 
#    0.000    0.000    0.000    0.000    0.000    0.000 
#
# Total GULP energy -267799.734839 kJ/mol
# GULP energy per Si atom -5579.161142 kJ/mol
# Density = 2.396221 g / cm^3
# Si number density = 24.016873 Si / 1000 Ang^3
#
#
#
# Elastic Constant Matrix: (Units=GPa)
#
#
# Indices 1 2 3 4 5 6 
#
# 1 138.6423 27.1893 82.7335 0.0000 0.0000 0.0000
# 2 27.1893 54.3284 13.9938 0.0000 0.0000 0.0000
# 3 82.7335 13.9938 263.6630 0.0000 0.0000 0.0000
# 4 0.0000 0.0000 0.0000 20.0282 0.0000 0.0000
# 5 0.0000 0.0000 0.0000 0.0000 29.5938 0.0000
# 6 0.0000 0.0000 0.0000 0.0000 0.0000 3.9714
#
#
#
# Elastic Compliance Matrix: (Units=1/GPa)
#
#
# Indices 1 2 3 4 5 6 
#
# 1 0.009710 -0.004131 -0.002828 0.000000 0.000000 0.000000
# 2 -0.004131 0.020419 0.000213 0.000000 0.000000 0.000000
# 3 -0.002828 0.000213 0.004669 0.000000 0.000000 0.000000
# 4 0.000000 0.000000 0.000000 0.049930 0.000000 0.000000
# 5 0.000000 0.000000 0.000000 0.000000 0.033791 0.000000
# 6 0.000000 0.000000 0.000000 0.000000 0.000000 0.251797
#
#
# Mechanical properties :
#
#
# Convention : Reuss Voigt Hill
#
# Bulk Modulus (GPa) = 46.93595 78.27411 62.60503
# Shear Modulus (GPa) = 12.79063 32.89982 22.84522
#
# Velocity S-wave (km/s) = 2.31025 3.70518 3.08752
# Velocity P-wave (km/s) = 5.16737 7.13909 6.23170
#
# Compressibility (1/GPa) = 0.02130563
#
# Stress axis : x y z
#
# Youngs Moduli (GPa) = 102.98213 48.97309 214.19088
#
# Poissons Ratio (x) = 0.20232 0.60567
# Poissons Ratio (y) = 0.42545 -0.04554
# Poissons Ratio (z) = 0.29120 -0.01041
#
# Static dielectric constant tensor:
#      x y z
#    x 1.959280 0.000000 0.000000 
#    y 0.000000 2.578830 0.000000 
#    z 0.000000 0.000000 1.960320 
# 
# From -- ./inp_files/521.got.cif
#   From: 2010.05.17/outbox.cif.g08.bks.cpg/sg56_1_cif.got.tgz:521.got - 2010.06.03 13:42:01.
