data_PCOD9431555
_publ_section_title
;
Structure prediction by ZEFSAII (Michael W. Deem and Ramdas Pophale) SiO2 
 PCOD9431555
Probable space group: P C C N
;
_chemical_formula_sum "Si O2"
_cell_formula_units_Z 48
_cell_length_a 9.604527
_cell_length_b 10.098783
_cell_length_c 22.759908
_cell_angle_alpha 90.000000
_cell_angle_beta 90.000000
_cell_angle_gamma 90.000000
_cell_volume 2207.575290
_symmetry_space_group_name_H-M "P C C N"
_symmetry_group_IT_number 56
_symmetry_cell_setting 'orthorhombic'
loop_
_space_group_symop_operation_xyz
x,y,z
1/2-x,1/2-y,z
1/2+x,-y,1/2-z
-x,1/2+y,1/2-z
-x,-y,-z
1/2+x,1/2+y,-z
1/2-x,y,1/2+z
x,1/2-y,1/2+z
loop_
_atom_site_type_symbol
_atom_site_label
_atom_site_fract_x
_atom_site_fract_y
_atom_site_fract_z
Si Si1 0.716460 0.003295 0.688792
Si Si2 0.750000 0.250000 0.871230
Si Si3 0.976820 0.224560 0.152209
Si Si4 0.328273 0.968496 0.039610
Si Si5 0.378135 0.989350 0.913596
Si Si6 0.442853 0.649496 0.228748
Si Si7 0.750000 0.750000 0.414154
O O1 0.646461 0.119693 0.649086
O O2 0.803725 0.928623 0.638082
O O3 0.819468 0.061618 0.739384
O O4 0.582181 0.930421 0.714125
O O5 0.750077 0.123139 0.913870
O O6 0.621904 0.275058 0.826707
O O7 0.936478 0.361899 0.121211
O O8 0.987605 0.247773 0.221458
O O9 0.125450 0.191050 0.125331
O O10 0.489032 0.939411 0.057029
O O11 0.301914 0.124359 0.049329
O O12 0.295565 0.942325 0.971511
#
# Coordination Sequence:
#
# PCOD9431555 Si02
#       7
#     8   4   8   8   8   8   4
#     4  11  23  40  67  95 134 176 226 265 333 405
#     4  12  24  42  64 104 134 170 220 284 332 380
#     4  10  21  39  66  89 128 177 222 264 331 405
#     4  10  23  43  69  94 137 171 222 276 330 391
#     4   9  21  44  64  92 126 186 210 267 330 401
#     4  11  24  40  61  97 136 172 218 278 331 393
#     4  10  22  42  68  98 126 180 222 270 332 396
#
# _framework density 21.743312
#
# number of rings (size 3 to 8) (size 9 to 14) (size 15 to 20)
#    0.000    1.667    1.667    2.500   11.667    0.000 
#    9.000    1.667    0.000    0.000    0.000    0.000 
#    0.000    0.000    0.000    0.000    0.000    0.000 
#
# Total GULP energy -267648.004067 kJ/mol
# GULP energy per Si atom -5576.000085 kJ/mol
# Density = 2.169382 g / cm^3
# Si number density = 21.743312 Si / 1000 Ang^3
#
#
#
# Elastic Constant Matrix: (Units=GPa)
#
#
# Indices 1 2 3 4 5 6 
#
# 1 89.4597 -0.8725 19.6062 0.0000 0.0000 0.0000
# 2 -0.8725 43.0887 18.1414 0.0000 0.0000 0.0000
# 3 19.6062 18.1414 132.9519 0.0000 0.0000 0.0000
# 4 0.0000 0.0000 0.0000 12.9178 0.0000 0.0000
# 5 0.0000 0.0000 0.0000 0.0000 16.0261 0.0000
# 6 0.0000 0.0000 0.0000 0.0000 0.0000 19.7878
#
#
#
# Elastic Compliance Matrix: (Units=1/GPa)
#
#
# Indices 1 2 3 4 5 6 
#
# 1 0.011593 0.001013 -0.001848 0.000000 0.000000 0.000000
# 2 0.001013 0.024711 -0.003521 0.000000 0.000000 0.000000
# 3 -0.001848 -0.003521 0.008274 0.000000 0.000000 0.000000
# 4 0.000000 0.000000 0.000000 0.077413 0.000000 0.000000
# 5 0.000000 0.000000 0.000000 0.000000 0.062398 0.000000
# 6 0.000000 0.000000 0.000000 0.000000 0.000000 0.050536
#
#
# Mechanical properties :
#
#
# Convention : Reuss Voigt Hill
#
# Bulk Modulus (GPa) = 27.88158 37.69452 32.78805
# Shear Modulus (GPa) = 19.56229 24.98799 22.27514
#
# Velocity S-wave (km/s) = 3.00274 3.39370 3.20419
# Velocity P-wave (km/s) = 4.98727 5.72102 5.36670
#
# Compressibility (1/GPa) = 0.03586597
#
# Stress axis : x y z
#
# Youngs Moduli (GPa) = 86.25846 40.46787 120.85357
#
# Poissons Ratio (x) = -0.04098 0.22331
# Poissons Ratio (y) = -0.08736 0.42555
# Poissons Ratio (z) = 0.15939 0.14249
#
# Static dielectric constant tensor:
#      x y z
#    x 1.920690 0.000000 0.000000 
#    y 0.000000 1.826750 0.000000 
#    z 0.000000 0.000000 1.856360 
# 
# From -- ./inp_files/20543.got.cif
#   From: 2010.05.17/outbox.cif.g08.bks.cpg/sg56_11_cif.got.tgz:20543.got - 2010.06.03 13:42:01.
