data_PCOD9431698
_publ_section_title
;
Structure prediction by ZEFSAII (Michael W. Deem and Ramdas Pophale) SiO2 
 PCOD9431698
Probable space group: P C C N
;
_chemical_formula_sum "Si O2"
_cell_formula_units_Z 60
_cell_length_a 23.810794
_cell_length_b 4.947641
_cell_length_c 22.344936
_cell_angle_alpha 90.000000
_cell_angle_beta 90.000000
_cell_angle_gamma 90.000000
_cell_volume 2632.395699
_symmetry_space_group_name_H-M "P C C N"
_symmetry_group_IT_number 56
_symmetry_cell_setting 'orthorhombic'
loop_
_space_group_symop_operation_xyz
x,y,z
1/2-x,1/2-y,z
1/2+x,-y,1/2-z
-x,1/2+y,1/2-z
-x,-y,-z
1/2+x,1/2+y,-z
1/2-x,y,1/2+z
x,1/2-y,1/2+z
loop_
_atom_site_type_symbol
_atom_site_label
_atom_site_fract_x
_atom_site_fract_y
_atom_site_fract_z
Si Si1 0.328814 0.446499 0.709504
Si Si2 0.986947 0.310650 0.286374
Si Si3 0.058852 0.265825 0.049970
Si Si4 0.871354 0.045236 0.847543
Si Si5 0.929470 0.262117 0.527189
Si Si6 0.750000 0.250000 0.697539
Si Si7 0.645972 0.026537 0.127762
Si Si8 0.902261 0.523653 0.678991
O O1 0.340499 0.663655 0.656899
O O2 0.283513 0.553322 0.757257
O O3 0.382076 0.407292 0.754372
O O4 0.324777 0.154144 0.680505
O O5 0.926059 0.385577 0.308157
O O6 0.003137 0.502325 0.230747
O O7 0.034450 0.392739 0.333581
O O8 0.990884 0.272684 0.058446
O O9 0.098702 0.127609 0.099486
O O10 0.071689 0.574458 0.032284
O O11 0.070616 0.073340 0.992572
O O12 0.877460 0.152193 0.566256
O O13 0.792943 0.096355 0.653476
O O14 0.607314 0.206363 0.172292
O O15 0.634994 0.710057 0.135598
#
# Coordination Sequence:
#
# PCOD9431698 Si02
#       8
#     8   8   8   8   8   4   8   8
#     4  11  23  39  59  85 126 162 211 258 308 377
#     4  12  21  33  53  85 129 167 200 239 289 375
#     4  10  22  38  64  92 127 166 208 245 331 389
#     4  12  22  38  60  91 127 173 200 249 308 389
#     4  10  21  41  62  93 126 162 209 274 307 388
#     4  10  26  44  66  92 120 172 218 274 326 382
#     4  11  23  39  65  88 122 163 215 266 328 363
#     4  11  21  36  56  89 125 164 203 246 315 386
#
# _framework density 22.792923999999999
#
# number of rings (size 3 to 8) (size 9 to 14) (size 15 to 20)
#    0.000    1.067    2.667    4.800    0.000    8.000 
#    0.000    0.000    0.000    4.800    0.000    0.000 
#    0.000    0.000    0.000    0.000    0.000    0.000 
#
# Total GULP energy -334590.231773 kJ/mol
# GULP energy per Si atom -5576.503863 kJ/mol
# Density = 2.274105 g / cm^3
# Si number density = 22.792924 Si / 1000 Ang^3
#
#
#
# Elastic Constant Matrix: (Units=GPa)
#
#
# Indices 1 2 3 4 5 6 
#
# 1 108.7007 22.0658 25.0482 0.0000 0.0000 0.0000
# 2 22.0658 97.1329 4.6652 0.0000 0.0000 0.0000
# 3 25.0482 4.6652 54.6774 0.0000 0.0000 0.0000
# 4 0.0000 0.0000 0.0000 25.4572 0.0000 0.0000
# 5 0.0000 0.0000 0.0000 0.0000 26.2940 0.0000
# 6 0.0000 0.0000 0.0000 0.0000 0.0000 24.7483
#
#
#
# Elastic Compliance Matrix: (Units=1/GPa)
#
#
# Indices 1 2 3 4 5 6 
#
# 1 0.010739 -0.002212 -0.004731 0.000000 0.000000 0.000000
# 2 -0.002212 0.010793 0.000093 0.000000 0.000000 0.000000
# 3 -0.004731 0.000093 0.020448 0.000000 0.000000 0.000000
# 4 0.000000 0.000000 0.000000 0.039282 0.000000 0.000000
# 5 0.000000 0.000000 0.000000 0.000000 0.038031 0.000000
# 6 0.000000 0.000000 0.000000 0.000000 0.000000 0.040407
#
#
# Mechanical properties :
#
#
# Convention : Reuss Voigt Hill
#
# Bulk Modulus (GPa) = 35.36140 40.45218 37.90679
# Shear Modulus (GPa) = 27.34811 29.21535 28.28173
#
# Velocity S-wave (km/s) = 3.46764 3.58407 3.52634
# Velocity P-wave (km/s) = 5.61966 5.90878 5.76603
#
# Compressibility (1/GPa) = 0.02827943
#
# Stress axis : x y z
#
# Youngs Moduli (GPa) = 93.12038 92.65001 48.90361
#
# Poissons Ratio (x) = 0.20497 0.23135
# Poissons Ratio (y) = 0.20601 -0.00453
# Poissons Ratio (z) = 0.44053 -0.00858
#
# Static dielectric constant tensor:
#      x y z
#    x 1.877810 0.000000 0.000000 
#    y 0.000000 1.828010 0.000000 
#    z 0.000000 0.000000 1.933180 
# 
# From -- ./inp_files/19608.got.cif
#   From: 2010.05.17/outbox.cif.g08.bks.cpg/sg56_10_cif.got.tgz:19608.got - 2010.06.03 13:42:01.
