data_PCOD9431198
_publ_section_title
;
Structure prediction by ZEFSAII (Michael W. Deem and Ramdas Pophale) SiO2 
 PCOD9431198
Probable space group: P C C N
;
_chemical_formula_sum "Si O2"
_cell_formula_units_Z 64
_cell_length_a 12.254251
_cell_length_b 17.099253
_cell_length_c 13.904878
_cell_angle_alpha 90.000000
_cell_angle_beta 90.000000
_cell_angle_gamma 90.000000
_cell_volume 2913.607810
_symmetry_space_group_name_H-M "P C C N"
_symmetry_group_IT_number 56
_symmetry_cell_setting 'orthorhombic'
loop_
_space_group_symop_operation_xyz
x,y,z
1/2-x,1/2-y,z
1/2+x,-y,1/2-z
-x,1/2+y,1/2-z
-x,-y,-z
1/2+x,1/2+y,-z
1/2-x,y,1/2+z
x,1/2-y,1/2+z
loop_
_atom_site_type_symbol
_atom_site_label
_atom_site_fract_x
_atom_site_fract_y
_atom_site_fract_z
Si Si1 0.878508 0.580652 0.696926
Si Si2 0.680323 0.417563 0.249299
Si Si3 0.504461 0.201351 0.814862
Si Si4 0.581509 0.149310 0.222380
Si Si5 0.498617 0.629300 0.473949
Si Si6 0.102377 0.060696 0.008910
Si Si7 0.330802 0.996122 0.041931
Si Si8 0.194382 0.328855 0.678915
O O1 0.844200 0.491280 0.684074
O O2 0.893102 0.612248 0.588800
O O3 0.788527 0.623393 0.762932
O O4 0.995634 0.581741 0.749701
O O5 0.583041 0.356529 0.255444
O O6 0.794949 0.378308 0.224306
O O7 0.679620 0.456873 0.354458
O O8 0.560539 0.284756 0.801269
O O9 0.389036 0.199388 0.761604
O O10 0.497346 0.173899 0.925110
O O11 0.537947 0.178701 0.118610
O O12 0.609511 0.580409 0.458529
O O13 0.405695 0.561887 0.480313
O O14 0.209434 0.007340 0.008671
O O15 0.127865 0.117068 0.101885
O O16 0.000000 0.000000 0.000000
O O17 0.250000 0.250000 0.635781
#
# Coordination Sequence:
#
# PCOD9431198 Si02
#       8
#     8   8   8   8   8   8   8   8
#     4  12  25  43  72 100 139 187 240 298 363 434
#     4  11  23  42  74 101 145 184 239 307 356 442
#     4  11  26  45  69 104 145 193 242 293 376 438
#     4  12  24  45  67 107 145 189 238 301 378 432
#     4  10  22  42  76 100 138 192 244 293 361 459
#     4  12  25  43  71 109 143 183 245 314 369 440
#     4  10  20  43  70 106 131 180 243 298 364 428
#     4  12  26  48  69 103 149 194 241 304 378 450
#
# _framework density 21.965893999999999
#
# number of rings (size 3 to 8) (size 9 to 14) (size 15 to 20)
#    0.000    0.750    3.750    3.375    1.750    1.500 
#    0.000    6.250    0.000    0.000    0.000    0.000 
#    0.000    0.000    0.000    0.000    0.000    0.000 
#
# Total GULP energy -357450.024448 kJ/mol
# GULP energy per Si atom -5585.156632 kJ/mol
# Density = 2.191590 g / cm^3
# Si number density = 21.965894 Si / 1000 Ang^3
#
#
#
# Elastic Constant Matrix: (Units=GPa)
#
#
# Indices 1 2 3 4 5 6 
#
# 1 128.7805 35.2125 36.0120 0.0000 0.0000 0.0000
# 2 35.2125 90.7168 29.1461 0.0000 0.0000 0.0000
# 3 36.0120 29.1461 97.9671 0.0000 0.0000 0.0000
# 4 0.0000 0.0000 0.0000 25.1346 0.0000 0.0000
# 5 0.0000 0.0000 0.0000 0.0000 28.4444 0.0000
# 6 0.0000 0.0000 0.0000 0.0000 0.0000 35.7342
#
#
#
# Elastic Compliance Matrix: (Units=1/GPa)
#
#
# Indices 1 2 3 4 5 6 
#
# 1 0.009240 -0.002759 -0.002576 0.000000 0.000000 0.000000
# 2 -0.002759 0.013012 -0.002857 0.000000 0.000000 0.000000
# 3 -0.002576 -0.002857 0.012004 0.000000 0.000000 0.000000
# 4 0.000000 0.000000 0.000000 0.039786 0.000000 0.000000
# 5 0.000000 0.000000 0.000000 0.000000 0.035156 0.000000
# 6 0.000000 0.000000 0.000000 0.000000 0.000000 0.027984
#
#
# Mechanical properties :
#
#
# Convention : Reuss Voigt Hill
#
# Bulk Modulus (GPa) = 55.95074 57.57842 56.76458
# Shear Modulus (GPa) = 31.34331 32.33558 31.83945
#
# Velocity S-wave (km/s) = 3.78154 3.84093 3.81135
# Velocity P-wave (km/s) = 6.67785 6.77790 6.72806
#
# Compressibility (1/GPa) = 0.01787287
#
# Stress axis : x y z
#
# Youngs Moduli (GPa) = 108.22752 76.85116 83.30344
#
# Poissons Ratio (x) = 0.21203 0.21456
# Poissons Ratio (y) = 0.29860 0.23800
# Poissons Ratio (z) = 0.27876 0.21957
#
# Static dielectric constant tensor:
#      x y z
#    x 2.080970 0.000000 0.000000 
#    y 0.000000 1.851400 0.000000 
#    z 0.000000 0.000000 1.837810 
# 
# From -- ./inp_files/11859.got.cif
#   From: 2010.05.17/outbox.cif.g08.bks.cpg/sg56_6_cif.got.tgz:11859.got - 2010.06.03 13:42:01.
