data_PCOD9431798
_publ_section_title
;
Structure prediction by ZEFSAII (Michael W. Deem and Ramdas Pophale) SiO2 
 PCOD9431798
Probable space group: P C C N
;
_chemical_formula_sum "Si O2"
_cell_formula_units_Z 40
_cell_length_a 9.149919
_cell_length_b 14.631062
_cell_length_c 14.814804
_cell_angle_alpha 90.000000
_cell_angle_beta 90.000000
_cell_angle_gamma 90.000000
_cell_volume 1983.302733
_symmetry_space_group_name_H-M "P C C N"
_symmetry_group_IT_number 56
_symmetry_cell_setting 'orthorhombic'
loop_
_space_group_symop_operation_xyz
x,y,z
1/2-x,1/2-y,z
1/2+x,-y,1/2-z
-x,1/2+y,1/2-z
-x,-y,-z
1/2+x,1/2+y,-z
1/2-x,y,1/2+z
x,1/2-y,1/2+z
loop_
_atom_site_type_symbol
_atom_site_label
_atom_site_fract_x
_atom_site_fract_y
_atom_site_fract_z
Si Si1 0.952048 0.434148 0.583024
Si Si2 0.094792 0.724546 0.545128
Si Si3 0.739069 0.645886 0.827052
Si Si4 0.326103 0.387627 0.871719
Si Si5 0.073207 0.402814 0.019209
O O1 0.876003 0.347887 0.535902
O O2 0.861644 0.505073 0.642188
O O3 0.000000 0.500000 0.500000
O O4 0.090265 0.398296 0.637897
O O5 0.250000 0.750000 0.590064
O O6 0.969826 0.673640 0.605154
O O7 0.029053 0.817450 0.504652
O O8 0.750000 0.750000 0.859764
O O9 0.752486 0.644805 0.719980
O O10 0.872448 0.596892 0.877762
O O11 0.215967 0.385871 0.956301
O O12 0.000000 0.500000 0.000000
#
# Coordination Sequence:
#
# PCOD9431798 Si02
#       5
#     8   8   8   8   8
#     4  10  21  42  68  94 133 178 225 283 336 401
#     4  11  22  43  70  97 137 180 225 284 346 407
#     4  12  23  44  70  96 139 182 224 281 347 409
#     4  11  25  44  69 103 136 179 231 287 342 414
#     4  12  24  42  67 100 135 181 230 275 346 413
#
# _framework density 20.168378000000001
#
# number of rings (size 3 to 8) (size 9 to 14) (size 15 to 20)
#    0.000    0.800    6.000    3.000    5.600    0.000 
#    0.000    1.000    0.000    0.000    0.000    0.000 
#    0.000    0.000    0.000    0.000    0.000    0.000 
#
# Total GULP energy -223304.264041 kJ/mol
# GULP energy per Si atom -5582.606601 kJ/mol
# Density = 2.012247 g / cm^3
# Si number density = 20.168378 Si / 1000 Ang^3
#
#
#
# Elastic Constant Matrix: (Units=GPa)
#
#
# Indices 1 2 3 4 5 6 
#
# 1 98.2635 32.6285 20.7306 0.0000 0.0000 0.0000
# 2 32.6285 142.3281 9.5453 0.0000 0.0000 0.0000
# 3 20.7306 9.5453 72.8254 0.0000 0.0000 0.0000
# 4 0.0000 0.0000 0.0000 27.5259 0.0000 0.0000
# 5 0.0000 0.0000 0.0000 0.0000 28.0669 0.0000
# 6 0.0000 0.0000 0.0000 0.0000 0.0000 47.9656
#
#
#
# Elastic Compliance Matrix: (Units=1/GPa)
#
#
# Indices 1 2 3 4 5 6 
#
# 1 0.011625 -0.002465 -0.002986 0.000000 0.000000 0.000000
# 2 -0.002465 0.007611 -0.000296 0.000000 0.000000 0.000000
# 3 -0.002986 -0.000296 0.014620 0.000000 0.000000 0.000000
# 4 0.000000 0.000000 0.000000 0.036329 0.000000 0.000000
# 5 0.000000 0.000000 0.000000 0.000000 0.035629 0.000000
# 6 0.000000 0.000000 0.000000 0.000000 0.000000 0.020848
#
#
# Mechanical properties :
#
#
# Convention : Reuss Voigt Hill
#
# Bulk Modulus (GPa) = 44.71757 48.80288 46.76023
# Shear Modulus (GPa) = 34.33804 37.41254 35.87529
#
# Velocity S-wave (km/s) = 4.13070 4.31166 4.22214
# Velocity P-wave (km/s) = 6.70600 7.00267 6.85594
#
# Compressibility (1/GPa) = 0.02236257
#
# Stress axis : x y z
#
# Youngs Moduli (GPa) = 86.02043 131.39030 68.39803
#
# Poissons Ratio (x) = 0.32385 0.20425
# Poissons Ratio (y) = 0.21202 0.02024
# Poissons Ratio (z) = 0.25687 0.03888
#
# Static dielectric constant tensor:
#      x y z
#    x 1.755150 0.000000 0.000000 
#    y 0.000000 1.744320 0.000000 
#    z 0.000000 0.000000 1.700620 
# 
# From -- ./inp_files/10357.got.cif
#   From: 2010.05.17/outbox.cif.g08.bks.cpg/sg56_6_cif.got.tgz:10357.got - 2010.06.03 13:42:01.
