data_PCOD9431772
_publ_section_title
;
Structure prediction by ZEFSAII (Michael W. Deem and Ramdas Pophale) SiO2 
 PCOD9431772
Probable space group: P C C N
;
_chemical_formula_sum "Si O2"
_cell_formula_units_Z 64
_cell_length_a 8.830289
_cell_length_b 24.522665
_cell_length_c 13.979469
_cell_angle_alpha 90.000000
_cell_angle_beta 90.000000
_cell_angle_gamma 90.000000
_cell_volume 3027.145238
_symmetry_space_group_name_H-M "P C C N"
_symmetry_group_IT_number 56
_symmetry_cell_setting 'orthorhombic'
loop_
_space_group_symop_operation_xyz
x,y,z
1/2-x,1/2-y,z
1/2+x,-y,1/2-z
-x,1/2+y,1/2-z
-x,-y,-z
1/2+x,1/2+y,-z
1/2-x,y,1/2+z
x,1/2-y,1/2+z
loop_
_atom_site_type_symbol
_atom_site_label
_atom_site_fract_x
_atom_site_fract_y
_atom_site_fract_z
Si Si1 0.535889 0.286401 0.161815
Si Si2 0.967427 0.341775 0.116968
Si Si3 0.120340 0.524512 0.182370
Si Si4 0.777905 0.546743 0.162128
Si Si5 0.278685 0.686967 0.025355
Si Si6 0.704229 0.627369 0.829779
Si Si7 0.855943 0.533099 0.460643
Si Si8 0.750917 0.140459 0.780996
O O1 0.529453 0.221535 0.152095
O O2 0.607002 0.309759 0.063326
O O3 0.375389 0.314602 0.174731
O O4 0.646274 0.309645 0.244015
O O5 0.133663 0.366542 0.119108
O O6 0.874861 0.339999 0.017750
O O7 0.868137 0.372056 0.196852
O O8 0.164582 0.491910 0.278140
O O9 0.235799 0.503002 0.100521
O O10 0.150357 0.587955 0.199925
O O11 0.943478 0.518950 0.160192
O O12 0.780892 0.601656 0.224891
O O13 0.724070 0.555423 0.055307
O O14 0.250000 0.750000 0.050302
O O15 0.330202 0.656334 0.119855
O O16 0.606866 0.583417 0.890269
O O17 0.000000 0.500000 0.500000
#
# Coordination Sequence:
#
# PCOD9431772 Si02
#       8
#     8   8   8   8   8   8   8   8
#     4  10  21  42  60  93 129 166 210 259 313 374
#     4  10  23  38  65  93 129 165 208 264 310 377
#     4  11  25  41  69  92 126 165 204 266 318 385
#     4  11  24  46  62  94 128 160 215 262 319 381
#     4   9  20  38  61  89 124 161 209 255 304 375
#     4  11  24  40  64  93 127 169 210 258 319 379
#     4  11  27  43  66  92 131 166 215 267 325 383
#     4  11  22  38  68  93 121 166 210 253 320 375
#
# _framework density 21.142030999999999
#
# number of rings (size 3 to 8) (size 9 to 14) (size 15 to 20)
#    0.000    1.500    1.250    4.125    8.750    1.000 
#    0.000    0.000    0.000    4.500    0.000    0.000 
#    0.000    0.000    0.000    0.000    0.000    0.000 
#
# Total GULP energy -357773.028826 kJ/mol
# GULP energy per Si atom -5590.203575 kJ/mol
# Density = 2.109391 g / cm^3
# Si number density = 21.142031 Si / 1000 Ang^3
#
#
#
# Elastic Constant Matrix: (Units=GPa)
#
#
# Indices 1 2 3 4 5 6 
#
# 1 52.0366 -15.9865 -13.4552 0.0000 0.0000 0.0000
# 2 -15.9865 37.0000 1.4750 0.0000 0.0000 0.0000
# 3 -13.4552 1.4750 87.3609 0.0000 0.0000 0.0000
# 4 0.0000 0.0000 0.0000 15.0204 0.0000 0.0000
# 5 0.0000 0.0000 0.0000 0.0000 15.4449 0.0000
# 6 0.0000 0.0000 0.0000 0.0000 0.0000 33.0250
#
#
#
# Elastic Compliance Matrix: (Units=1/GPa)
#
#
# Indices 1 2 3 4 5 6 
#
# 1 0.023123 0.009855 0.003395 0.000000 0.000000 0.000000
# 2 0.009855 0.031246 0.000990 0.000000 0.000000 0.000000
# 3 0.003395 0.000990 0.011953 0.000000 0.000000 0.000000
# 4 0.000000 0.000000 0.000000 0.066576 0.000000 0.000000
# 5 0.000000 0.000000 0.000000 0.000000 0.064746 0.000000
# 6 0.000000 0.000000 0.000000 0.000000 0.000000 0.030280
#
#
# Mechanical properties :
#
#
# Convention : Reuss Voigt Hill
#
# Bulk Modulus (GPa) = 10.54824 13.38490 11.96657
# Shear Modulus (GPa) = 21.64092 26.32233 23.98162
#
# Velocity S-wave (km/s) = 3.20284 3.53232 3.37161
# Velocity P-wave (km/s) = 4.32176 4.79385 4.56392
#
# Compressibility (1/GPa) = 0.09480254
#
# Stress axis : x y z
#
# Youngs Moduli (GPa) = 43.24740 32.00438 83.66150
#
# Poissons Ratio (x) = -0.31541 -0.28403
# Poissons Ratio (y) = -0.42621 -0.08285
# Poissons Ratio (z) = -0.14682 -0.03170
#
# Static dielectric constant tensor:
#      x y z
#    x 1.785390 0.000000 0.000000 
#    y 0.000000 1.753060 0.000000 
#    z 0.000000 0.000000 1.728720 
# 
# From -- ./inp_files/11035.got.cif
#   From: 2010.05.17/outbox.cif.g08.bks.cpg/sg56_6_cif.got.tgz:11035.got - 2010.06.03 13:42:01.
