data_PCOD9431114
_publ_section_title
;
Structure prediction by ZEFSAII (Michael W. Deem and Ramdas Pophale) SiO2 
 PCOD9431114
Probable space group: P C C N
;
_chemical_formula_sum "Si O2"
_cell_formula_units_Z 36
_cell_length_a 16.604085
_cell_length_b 7.775758
_cell_length_c 15.042678
_cell_angle_alpha 90.000000
_cell_angle_beta 90.000000
_cell_angle_gamma 90.000000
_cell_volume 1942.150330
_symmetry_space_group_name_H-M "P C C N"
_symmetry_group_IT_number 56
_symmetry_cell_setting 'orthorhombic'
loop_
_space_group_symop_operation_xyz
x,y,z
1/2-x,1/2-y,z
1/2+x,-y,1/2-z
-x,1/2+y,1/2-z
-x,-y,-z
1/2+x,1/2+y,-z
1/2-x,y,1/2+z
x,1/2-y,1/2+z
loop_
_atom_site_type_symbol
_atom_site_label
_atom_site_fract_x
_atom_site_fract_y
_atom_site_fract_z
Si Si1 0.838257 0.828079 0.619382
Si Si2 0.112326 0.900141 0.249861
Si Si3 0.317614 0.107887 0.081321
Si Si4 0.437725 0.231489 0.221869
Si Si5 0.750000 0.250000 0.871302
O O1 0.750000 0.750000 0.634037
O O2 0.852008 0.839578 0.514703
O O3 0.901921 0.719537 0.677866
O O4 0.844404 0.015983 0.664414
O O5 0.174574 0.797087 0.191030
O O6 0.032014 0.801876 0.277799
O O7 0.082639 0.071154 0.197257
O O8 0.250000 0.250000 0.106891
O O9 0.387129 0.112766 0.155431
O O10 0.275398 0.921791 0.076267
#
# Coordination Sequence:
#
# PCOD9431114 Si02
#       5
#     8   8   8   8   4
#     4   9  21  39  65  90 127 171 205 266 316 373
#     4  10  22  38  64  90 126 170 208 260 319 376
#     4  11  21  41  66  92 132 165 215 264 318 376
#     4  10  20  41  60  93 128 168 203 268 318 369
#     4  12  22  38  66  92 120 180 214 254 322 380
#
# _framework density 18.536154
#
# number of rings (size 3 to 8) (size 9 to 14) (size 15 to 20)
#    1.333    0.444    2.222    3.333    0.000    1.778 
#    0.000    3.333    0.000    0.000    0.000    0.000 
#    0.000    0.000    0.000    0.000    0.000    0.000 
#
# Total GULP energy -200528.743368 kJ/mol
# GULP energy per Si atom -5570.242871 kJ/mol
# Density = 1.849396 g / cm^3
# Si number density = 18.536154 Si / 1000 Ang^3
#
#
#
# Elastic Constant Matrix: (Units=GPa)
#
#
# Indices 1 2 3 4 5 6 
#
# 1 101.4475 40.7925 55.3726 0.0000 0.0000 0.0000
# 2 40.7925 76.3600 13.6818 0.0000 0.0000 0.0000
# 3 55.3726 13.6818 92.5376 0.0000 0.0000 0.0000
# 4 0.0000 0.0000 0.0000 -20.9009 0.0000 0.0000
# 5 0.0000 0.0000 0.0000 0.0000 -10.1332 0.0000
# 6 0.0000 0.0000 0.0000 0.0000 0.0000 38.2420
#
#
#
# Elastic Compliance Matrix: (Units=1/GPa)
#
#
# Indices 1 2 3 4 5 6 
#
# 1 0.018514 -0.008121 -0.009878 0.000000 0.000000 0.000000
# 2 -0.008121 0.017014 0.002344 0.000000 0.000000 0.000000
# 3 -0.009878 0.002344 0.016371 0.000000 0.000000 0.000000
# 4 0.000000 0.000000 0.000000 -0.047845 0.000000 0.000000
# 5 0.000000 0.000000 0.000000 0.000000 -0.098686 0.000000
# 6 0.000000 0.000000 0.000000 0.000000 0.000000 0.026149
#
#
# Mechanical properties :
#
#
# Convention : Reuss Voigt Hill
#
# Bulk Modulus (GPa) = 48.56911 54.44877 51.50894
# Shear Modulus (GPa) = -164.96762 12.14146 -76.41308
#
# Velocity S-wave (km/s) = -9.44410 2.56210 -6.42754
# Velocity P-wave (km/s) = 9.62611 6.17986 5.21878
#
# Compressibility (1/GPa) = 0.02058922
#
# Stress axis : x y z
#
# Youngs Moduli (GPa) = 54.01217 58.77471 61.08487
#
# Poissons Ratio (x) = 0.47729 0.60339
# Poissons Ratio (y) = 0.43862 -0.14317
# Poissons Ratio (z) = 0.53353 -0.13775
#
# Static dielectric constant tensor:
#      x y z
#    x 1.620450 0.000000 0.000000 
#    y 0.000000 1.683960 0.000000 
#    z 0.000000 0.000000 1.623890 
# 
# From -- ./inp_files/12565.got.cif
#   From: 2010.05.17/outbox.cif.g08.bks.cpg/sg56_7_cif.got.tgz:12565.got - 2010.06.03 13:42:01.
