data_PCOD9431563
_publ_section_title
;
Structure prediction by ZEFSAII (Michael W. Deem and Ramdas Pophale) SiO2 
 PCOD9431563
Probable space group: P C C N
;
_chemical_formula_sum "Si O2"
_cell_formula_units_Z 56
_cell_length_a 7.738624
_cell_length_b 15.924952
_cell_length_c 20.979883
_cell_angle_alpha 90.000000
_cell_angle_beta 90.000000
_cell_angle_gamma 90.000000
_cell_volume 2585.502368
_symmetry_space_group_name_H-M "P C C N"
_symmetry_group_IT_number 56
_symmetry_cell_setting 'orthorhombic'
loop_
_space_group_symop_operation_xyz
x,y,z
1/2-x,1/2-y,z
1/2+x,-y,1/2-z
-x,1/2+y,1/2-z
-x,-y,-z
1/2+x,1/2+y,-z
1/2-x,y,1/2+z
x,1/2-y,1/2+z
loop_
_atom_site_type_symbol
_atom_site_label
_atom_site_fract_x
_atom_site_fract_y
_atom_site_fract_z
Si Si1 0.017955 0.186756 0.819686
Si Si2 0.511112 0.012381 0.890728
Si Si3 0.045132 0.390628 0.017617
Si Si4 0.124192 0.998513 0.177839
Si Si5 0.608154 0.867699 0.210581
Si Si6 0.441704 0.780883 0.535911
Si Si7 0.050638 0.073060 0.046165
O O1 0.198440 0.166580 0.785928
O O2 0.984369 0.284853 0.797763
O O3 0.911922 0.100081 0.807476
O O4 0.026897 0.191984 0.897106
O O5 0.541449 0.061137 0.957570
O O6 0.676715 0.000571 0.845743
O O7 0.391198 0.075483 0.852897
O O8 0.450884 0.922677 0.917941
O O9 0.037198 0.295773 0.996855
O O10 0.246539 0.408356 0.032805
O O11 0.081800 0.064331 0.233688
O O12 0.025446 0.037146 0.116750
O O13 0.250000 0.750000 0.553188
O O14 0.440504 0.850214 0.480943
O O15 0.000000 0.000000 0.000000
#
# Coordination Sequence:
#
# PCOD9431563 Si02
#       7
#     8   8   8   8   8   8   8
#     4  11  24  41  69  92 127 174 220 272 329 395
#     4  10  21  39  67  94 126 170 219 272 321 390
#     4  10  22  39  65 100 131 170 220 269 337 388
#     4  11  24  44  63  96 133 177 218 277 329 395
#     4  11  24  42  65  96 131 175 227 265 332 406
#     4  12  24  40  67 100 131 168 221 276 331 399
#     4  11  24  40  68  96 136 168 215 280 339 394
#
# _framework density 21.659233
#
# number of rings (size 3 to 8) (size 9 to 14) (size 15 to 20)
#    0.000    1.143    2.857    3.000    6.000    0.000 
#   12.857    0.000    0.000    0.000    0.000    0.000 
#    0.000    0.000    0.000    0.000    0.000    0.000 
#
# Total GULP energy -311989.396722 kJ/mol
# GULP energy per Si atom -5571.239227 kJ/mol
# Density = 2.160994 g / cm^3
# Si number density = 21.659233 Si / 1000 Ang^3
#
#
#
# Elastic Constant Matrix: (Units=GPa)
#
#
# Indices 1 2 3 4 5 6 
#
# 1 21.1926 25.5264 20.2316 0.0000 0.0000 0.0000
# 2 25.5264 146.0047 70.4819 0.0000 0.0000 0.0000
# 3 20.2316 70.4819 102.3301 0.0000 0.0000 0.0000
# 4 0.0000 0.0000 0.0000 44.3924 0.0000 0.0000
# 5 0.0000 0.0000 0.0000 0.0000 23.5338 0.0000
# 6 0.0000 0.0000 0.0000 0.0000 0.0000 35.5726
#
#
#
# Elastic Compliance Matrix: (Units=1/GPa)
#
#
# Indices 1 2 3 4 5 6 
#
# 1 0.063235 -0.007521 -0.007322 0.000000 0.000000 0.000000
# 2 -0.007521 0.011155 -0.006196 0.000000 0.000000 0.000000
# 3 -0.007322 -0.006196 0.015488 0.000000 0.000000 0.000000
# 4 0.000000 0.000000 0.000000 0.022526 0.000000 0.000000
# 5 0.000000 0.000000 0.000000 0.000000 0.042492 0.000000
# 6 0.000000 0.000000 0.000000 0.000000 0.000000 0.028112
#
#
# Mechanical properties :
#
#
# Convention : Reuss Voigt Hill
#
# Bulk Modulus (GPa) = 20.92073 55.77859 38.34966
# Shear Modulus (GPa) = 20.74516 30.91893 25.83205
#
# Velocity S-wave (km/s) = 3.09819 3.78235 3.45723
# Velocity P-wave (km/s) = 4.74114 6.69952 5.80353
#
# Compressibility (1/GPa) = 0.04779947
#
# Stress axis : x y z
#
# Youngs Moduli (GPa) = 15.81400 89.64375 64.56690
#
# Poissons Ratio (x) = 0.67421 0.47275
# Poissons Ratio (y) = 0.11894 0.40008
# Poissons Ratio (z) = 0.11579 0.55547
#
# Static dielectric constant tensor:
#      x y z
#    x 1.900350 0.000000 0.000000 
#    y 0.000000 1.869600 0.000000 
#    z 0.000000 0.000000 1.908760 
# 
# From -- ./inp_files/18253.got.cif
#   From: 2010.05.17/outbox.cif.g08.bks.cpg/sg56_10_cif.got.tgz:18253.got - 2010.06.03 13:42:01.
