data_PCOD9431151
_publ_section_title
;
Structure prediction by ZEFSAII (Michael W. Deem and Ramdas Pophale) SiO2 
 PCOD9431151
Probable space group: P C C N
;
_chemical_formula_sum "Si O2"
_cell_formula_units_Z 64
_cell_length_a 17.587078
_cell_length_b 11.928983
_cell_length_c 13.646855
_cell_angle_alpha 90.000000
_cell_angle_beta 90.000000
_cell_angle_gamma 90.000000
_cell_volume 2863.054970
_symmetry_space_group_name_H-M "P C C N"
_symmetry_group_IT_number 56
_symmetry_cell_setting 'orthorhombic'
loop_
_space_group_symop_operation_xyz
x,y,z
1/2-x,1/2-y,z
1/2+x,-y,1/2-z
-x,1/2+y,1/2-z
-x,-y,-z
1/2+x,1/2+y,-z
1/2-x,y,1/2+z
x,1/2-y,1/2+z
loop_
_atom_site_type_symbol
_atom_site_label
_atom_site_fract_x
_atom_site_fract_y
_atom_site_fract_z
Si Si1 0.944498 0.117955 0.569139
Si Si2 0.596670 0.342744 0.342246
Si Si3 0.931028 0.733360 0.202238
Si Si4 0.767675 0.616825 0.523928
Si Si5 0.842585 0.940437 0.227987
Si Si6 0.190492 0.080018 0.188049
Si Si7 0.404183 0.382060 0.483539
Si Si8 0.320566 0.672489 0.271491
O O1 0.916205 0.139370 0.457626
O O2 0.887264 0.170732 0.646834
O O3 0.034790 0.144808 0.567924
O O4 0.940244 0.983857 0.579291
O O5 0.516488 0.309274 0.293449
O O6 0.633783 0.446292 0.283346
O O7 0.650820 0.237706 0.324173
O O8 0.916227 0.862072 0.225525
O O9 0.873894 0.654268 0.261901
O O10 0.905361 0.722170 0.088846
O O11 0.750000 0.750000 0.537722
O O12 0.804699 0.558245 0.619079
O O13 0.816922 0.588644 0.428499
O O14 0.681247 0.576836 0.499844
O O15 0.775772 0.878138 0.288104
O O16 0.192208 0.955590 0.236687
O O17 0.250000 0.750000 0.307484
#
# Coordination Sequence:
#
# PCOD9431151 Si02
#       8
#     8   8   8   8   8   8   8   8
#     4  10  23  44  73  95 137 190 244 286 351 444
#     4  11  28  44  71 106 139 197 242 296 368 436
#     4  11  23  45  72 101 146 184 240 301 361 432
#     4  12  23  40  73 111 146 182 233 310 376 433
#     4  12  23  46  69 108 147 181 242 307 354 439
#     4  12  25  43  72 106 140 189 244 295 369 430
#     4  10  20  41  73 101 130 184 237 291 358 428
#     4  12  26  48  67 103 150 191 243 306 357 432
#
# _framework density 22.353745
#
# number of rings (size 3 to 8) (size 9 to 14) (size 15 to 20)
#    0.000    0.750    5.000    1.875    1.750    3.500 
#    0.000    0.625    0.000    0.000    0.000    0.000 
#    0.000    0.000    0.000    0.000    0.000    0.000 
#
# Total GULP energy -357283.443294 kJ/mol
# GULP energy per Si atom -5582.553801 kJ/mol
# Density = 2.230287 g / cm^3
# Si number density = 22.353745 Si / 1000 Ang^3
#
#
#
# Elastic Constant Matrix: (Units=GPa)
#
#
# Indices 1 2 3 4 5 6 
#
# 1 103.5177 9.5602 29.6365 0.0000 0.0000 0.0000
# 2 9.5602 73.3864 7.9607 0.0000 0.0000 0.0000
# 3 29.6365 7.9607 127.1849 0.0000 0.0000 0.0000
# 4 0.0000 0.0000 0.0000 15.6338 0.0000 0.0000
# 5 0.0000 0.0000 0.0000 0.0000 34.8776 0.0000
# 6 0.0000 0.0000 0.0000 0.0000 0.0000 38.0671
#
#
#
# Elastic Compliance Matrix: (Units=1/GPa)
#
#
# Indices 1 2 3 4 5 6 
#
# 1 0.010439 -0.001104 -0.002363 0.000000 0.000000 0.000000
# 2 -0.001104 0.013836 -0.000609 0.000000 0.000000 0.000000
# 3 -0.002363 -0.000609 0.008451 0.000000 0.000000 0.000000
# 4 0.000000 0.000000 0.000000 0.063964 0.000000 0.000000
# 5 0.000000 0.000000 0.000000 0.000000 0.028672 0.000000
# 6 0.000000 0.000000 0.000000 0.000000 0.000000 0.026269
#
#
# Mechanical properties :
#
#
# Convention : Reuss Voigt Hill
#
# Bulk Modulus (GPa) = 40.69194 44.26711 42.47952
# Shear Modulus (GPa) = 29.76641 34.84448 32.30544
#
# Velocity S-wave (km/s) = 3.65308 3.95242 3.80569
# Velocity P-wave (km/s) = 6.00304 6.37768 6.19319
#
# Compressibility (1/GPa) = 0.02457489
#
# Stress axis : x y z
#
# Youngs Moduli (GPa) = 95.79724 72.27363 118.32376
#
# Poissons Ratio (x) = 0.07975 0.27964
# Poissons Ratio (y) = 0.10571 0.07205
# Poissons Ratio (z) = 0.22640 0.04401
#
# Static dielectric constant tensor:
#      x y z
#    x 1.908990 0.000000 0.000000 
#    y 0.000000 1.841300 0.000000 
#    z 0.000000 0.000000 1.853550 
# 
# From -- ./inp_files/12882.got.cif
#   From: 2010.05.17/outbox.cif.g08.bks.cpg/sg56_7_cif.got.tgz:12882.got - 2010.06.03 13:42:01.
