data_PCOD9431148
_publ_section_title
;
Structure prediction by ZEFSAII (Michael W. Deem and Ramdas Pophale) SiO2 
 PCOD9431148
Probable space group: P C C N
;
_chemical_formula_sum "Si O2"
_cell_formula_units_Z 40
_cell_length_a 8.613667
_cell_length_b 16.375770
_cell_length_c 11.082434
_cell_angle_alpha 90.000000
_cell_angle_beta 90.000000
_cell_angle_gamma 90.000000
_cell_volume 1563.237489
_symmetry_space_group_name_H-M "P C C N"
_symmetry_group_IT_number 56
_symmetry_cell_setting 'orthorhombic'
loop_
_space_group_symop_operation_xyz
x,y,z
1/2-x,1/2-y,z
1/2+x,-y,1/2-z
-x,1/2+y,1/2-z
-x,-y,-z
1/2+x,1/2+y,-z
1/2-x,y,1/2+z
x,1/2-y,1/2+z
loop_
_atom_site_type_symbol
_atom_site_label
_atom_site_fract_x
_atom_site_fract_y
_atom_site_fract_z
Si Si1 0.886547 0.437413 0.652992
Si Si2 0.303136 0.159044 0.651559
Si Si3 0.035931 0.119180 0.801327
Si Si4 0.963013 0.905796 0.472792
Si Si5 0.240934 0.616895 0.096260
O O1 0.020282 0.368116 0.657654
O O2 0.293455 0.566038 0.719509
O O3 0.963424 0.526711 0.650916
O O4 0.790456 0.423454 0.531251
O O5 0.250000 0.250000 0.619842
O O6 0.214953 0.144112 0.779854
O O7 0.220405 0.106101 0.546164
O O8 0.985981 0.118989 0.661534
O O9 0.898430 0.165719 0.870323
O O10 0.067418 0.853201 0.563390
O O11 0.000000 0.000000 0.500000
#
# Coordination Sequence:
#
# PCOD9431148 Si02
#       5
#     8   8   8   8   8
#     4  12  23  42  73 102 145 188 246 298 370 439
#     4  10  25  48  72 105 151 195 246 308 381 442
#     4  10  22  41  70 105 140 185 248 291 367 433
#     4  10  20  41  71 101 146 181 252 301 368 428
#     4  12  23  41  68 105 136 188 240 307 349 438
#
# _framework density 25.587921000000001
#
# number of rings (size 3 to 8) (size 9 to 14) (size 15 to 20)
#    1.200    0.000    4.000    3.000    0.000    1.600 
#    0.000   10.000    0.000    0.000    0.000    0.000 
#    0.000    0.000    0.000    0.000    0.000    0.000 
#
# Total GULP energy -222700.972293 kJ/mol
# GULP energy per Si atom -5567.524307 kJ/mol
# Density = 2.552968 g / cm^3
# Si number density = 25.587921 Si / 1000 Ang^3
#
#
#
# Elastic Constant Matrix: (Units=GPa)
#
#
# Indices 1 2 3 4 5 6 
#
# 1 151.2104 24.1151 55.7251 0.0000 0.0000 0.0000
# 2 24.1151 91.6163 6.9254 0.0000 0.0000 0.0000
# 3 55.7251 6.9254 160.1320 0.0000 0.0000 0.0000
# 4 0.0000 0.0000 0.0000 6.3818 0.0000 0.0000
# 5 0.0000 0.0000 0.0000 0.0000 81.8185 0.0000
# 6 0.0000 0.0000 0.0000 0.0000 0.0000 12.9386
#
#
#
# Elastic Compliance Matrix: (Units=1/GPa)
#
#
# Indices 1 2 3 4 5 6 
#
# 1 0.007895 -0.001877 -0.002666 0.000000 0.000000 0.000000
# 2 -0.001877 0.011397 0.000160 0.000000 0.000000 0.000000
# 3 -0.002666 0.000160 0.007166 0.000000 0.000000 0.000000
# 4 0.000000 0.000000 0.000000 0.156695 0.000000 0.000000
# 5 0.000000 0.000000 0.000000 0.000000 0.012222 0.000000
# 6 0.000000 0.000000 0.000000 0.000000 0.000000 0.077288
#
#
# Mechanical properties :
#
#
# Convention : Reuss Voigt Hill
#
# Bulk Modulus (GPa) = 56.52157 64.05444 60.28801
# Shear Modulus (GPa) = 17.40184 41.30732 29.35458
#
# Velocity S-wave (km/s) = 2.61066 4.02223 3.39072
# Velocity P-wave (km/s) = 5.58789 6.83071 6.24032
#
# Compressibility (1/GPa) = 0.01769236
#
# Stress axis : x y z
#
# Youngs Moduli (GPa) = 126.65932 87.74282 139.55199
#
# Poissons Ratio (x) = 0.16466 0.37209
# Poissons Ratio (y) = 0.23769 -0.02235
# Poissons Ratio (z) = 0.33771 -0.01405
#
# Static dielectric constant tensor:
#      x y z
#    x 2.305050 0.000000 0.000000 
#    y 0.000000 2.056340 0.000000 
#    z 0.000000 0.000000 2.017660 
# 
# From -- ./inp_files/10747.got.cif
#   From: 2010.05.17/outbox.cif.g08.bks.cpg/sg56_6_cif.got.tgz:10747.got - 2010.06.03 13:42:01.
