data_PCOD9431434
_publ_section_title
;
Structure prediction by ZEFSAII (Michael W. Deem and Ramdas Pophale) SiO2 
 PCOD9431434
Probable space group: P C C N
;
_chemical_formula_sum "Si O2"
_cell_formula_units_Z 56
_cell_length_a 8.022596
_cell_length_b 22.505412
_cell_length_c 13.890158
_cell_angle_alpha 90.000000
_cell_angle_beta 90.000000
_cell_angle_gamma 90.000000
_cell_volume 2507.893422
_symmetry_space_group_name_H-M "P C C N"
_symmetry_group_IT_number 56
_symmetry_cell_setting 'orthorhombic'
loop_
_space_group_symop_operation_xyz
x,y,z
1/2-x,1/2-y,z
1/2+x,-y,1/2-z
-x,1/2+y,1/2-z
-x,-y,-z
1/2+x,1/2+y,-z
1/2-x,y,1/2+z
x,1/2-y,1/2+z
loop_
_atom_site_type_symbol
_atom_site_label
_atom_site_fract_x
_atom_site_fract_y
_atom_site_fract_z
Si Si1 0.974917 0.941196 0.061990
Si Si2 0.044934 0.431397 0.784350
Si Si3 0.364919 0.179724 0.515980
Si Si4 0.873056 0.804782 0.759456
Si Si5 0.749560 0.028638 0.663409
Si Si6 0.994563 0.288212 0.934514
Si Si7 0.833526 0.404685 0.967056
O O1 0.158165 0.917161 0.085867
O O2 0.843122 0.966563 0.136452
O O3 0.895776 0.889291 0.998588
O O4 0.000000 0.000000 0.000000
O O5 0.883019 0.428695 0.714531
O O6 0.977832 0.426347 0.894125
O O7 0.162290 0.374916 0.759872
O O8 0.112173 0.498312 0.769674
O O9 0.389425 0.198413 0.626381
O O10 0.500195 0.219094 0.458969
O O11 0.179750 0.192362 0.473838
O O12 0.750000 0.750000 0.733729
O O13 0.018263 0.795576 0.680748
O O14 0.823117 0.060689 0.568669
O O15 0.869765 0.334867 0.982210
#
# Coordination Sequence:
#
# PCOD9431434 Si02
#       7
#     8   8   8   8   8   8   8
#     4  10  21  38  62  89 128 170 210 265 335 394
#     4  11  24  40  66  97 131 174 223 271 338 402
#     4  11  21  39  63  90 124 170 217 270 330 385
#     4  11  20  38  61  92 124 161 217 278 313 389
#     4  11  23  42  64  98 134 175 216 277 332 411
#     4  10  22  38  64  94 122 168 227 268 326 397
#     4  10  22  41  61  93 134 170 217 273 333 398
#
# _framework density 22.329498000000001
#
# number of rings (size 3 to 8) (size 9 to 14) (size 15 to 20)
#    0.000    1.429    2.857    4.714    0.000    4.000 
#    0.000    2.857    0.000    3.429    0.000    0.000 
#    0.000    0.000    0.000    0.000    0.000    0.000 
#
# Total GULP energy -311947.572404 kJ/mol
# GULP energy per Si atom -5570.492364 kJ/mol
# Density = 2.227867 g / cm^3
# Si number density = 22.329498 Si / 1000 Ang^3
#
#
#
# Elastic Constant Matrix: (Units=GPa)
#
#
# Indices 1 2 3 4 5 6 
#
# 1 56.3133 34.9331 4.3478 0.0000 0.0000 0.0000
# 2 34.9331 140.2277 33.3522 0.0000 0.0000 0.0000
# 3 4.3478 33.3522 96.2654 0.0000 0.0000 0.0000
# 4 0.0000 0.0000 0.0000 33.4675 0.0000 0.0000
# 5 0.0000 0.0000 0.0000 0.0000 25.8985 0.0000
# 6 0.0000 0.0000 0.0000 0.0000 0.0000 47.6691
#
#
#
# Elastic Compliance Matrix: (Units=1/GPa)
#
#
# Indices 1 2 3 4 5 6 
#
# 1 0.021082 -0.005477 0.000945 0.000000 0.000000 0.000000
# 2 -0.005477 0.009194 -0.002938 0.000000 0.000000 0.000000
# 3 0.000945 -0.002938 0.011363 0.000000 0.000000 0.000000
# 4 0.000000 0.000000 0.000000 0.029880 0.000000 0.000000
# 5 0.000000 0.000000 0.000000 0.000000 0.038612 0.000000
# 6 0.000000 0.000000 0.000000 0.000000 0.000000 0.020978
#
#
# Mechanical properties :
#
#
# Convention : Reuss Voigt Hill
#
# Bulk Modulus (GPa) = 37.45230 48.67475 43.06352
# Shear Modulus (GPa) = 32.26861 36.08523 34.17692
#
# Velocity S-wave (km/s) = 3.80559 4.02435 3.91650
# Velocity P-wave (km/s) = 6.00990 6.59087 6.30708
#
# Compressibility (1/GPa) = 0.02670063
#
# Stress axis : x y z
#
# Youngs Moduli (GPa) = 47.43328 108.76140 88.00331
#
# Poissons Ratio (x) = 0.59566 -0.08319
# Poissons Ratio (y) = 0.25978 0.25857
# Poissons Ratio (z) = -0.04484 0.31956
#
# Static dielectric constant tensor:
#      x y z
#    x 3.445500 0.000000 0.000000 
#    y 0.000000 1.854890 0.000000 
#    z 0.000000 0.000000 1.852760 
# 
# From -- ./inp_files/10862.got.cif
#   From: 2010.05.17/outbox.cif.g08.bks.cpg/sg56_6_cif.got.tgz:10862.got - 2010.06.03 13:42:01.
