data_PCOD9431701
_publ_section_title
;
Structure prediction by ZEFSAII (Michael W. Deem and Ramdas Pophale) SiO2 
 PCOD9431701
Probable space group: P C C N
;
_chemical_formula_sum "Si O2"
_cell_formula_units_Z 40
_cell_length_a 5.063741
_cell_length_b 29.944884
_cell_length_c 13.377353
_cell_angle_alpha 90.000000
_cell_angle_beta 90.000000
_cell_angle_gamma 90.000000
_cell_volume 2028.449998
_symmetry_space_group_name_H-M "P C C N"
_symmetry_group_IT_number 56
_symmetry_cell_setting 'orthorhombic'
loop_
_space_group_symop_operation_xyz
x,y,z
1/2-x,1/2-y,z
1/2+x,-y,1/2-z
-x,1/2+y,1/2-z
-x,-y,-z
1/2+x,1/2+y,-z
1/2-x,y,1/2+z
x,1/2-y,1/2+z
loop_
_atom_site_type_symbol
_atom_site_label
_atom_site_fract_x
_atom_site_fract_y
_atom_site_fract_z
Si Si1 0.563438 0.488133 0.614350
Si Si2 0.998310 0.719711 0.431603
Si Si3 0.569434 0.558207 0.789587
Si Si4 0.319025 0.338863 0.255769
Si Si5 0.301493 0.696880 0.140142
O O1 0.500000 0.500000 0.500000
O O2 0.561922 0.532666 0.682930
O O3 0.324673 0.458734 0.653444
O O4 0.824082 0.459733 0.643919
O O5 0.250000 0.750000 0.402778
O O6 0.092844 0.692159 0.527637
O O7 0.750000 0.750000 0.463413
O O8 0.903012 0.690874 0.338814
O O9 0.613641 0.610339 0.771188
O O10 0.519397 0.325589 0.344032
O O11 0.022079 0.325261 0.287854
O O12 0.250000 0.750000 0.156839
#
# Coordination Sequence:
#
# PCOD9431701 Si02
#       5
#     8   8   8   8   8
#     4  10  21  41  63  83 120 158 187 239 302 356
#     4  11  23  38  57  82 113 153 197 235 283 346
#     4  10  23  38  59  93 115 147 202 238 288 365
#     4  12  23  38  61  87 119 151 194 251 292 336
#     4  11  23  39  58  83 116 157 195 233 289 347
#
# _framework density 19.71949
#
# number of rings (size 3 to 8) (size 9 to 14) (size 15 to 20)
#    0.000    1.200    0.000    7.800    0.000    3.200 
#    0.000    0.000    0.000    0.000    0.000    0.000 
#    0.000    0.000    0.000    0.000    0.000    0.000 
#
# Total GULP energy -223459.037452 kJ/mol
# GULP energy per Si atom -5586.475936 kJ/mol
# Density = 1.967461 g / cm^3
# Si number density = 19.719490 Si / 1000 Ang^3
#
#
#
# Elastic Constant Matrix: (Units=GPa)
#
#
# Indices 1 2 3 4 5 6 
#
# 1 139.9227 -0.3664 25.2829 0.0000 0.0000 0.0000
# 2 -0.3664 48.1583 -20.1923 0.0000 0.0000 0.0000
# 3 25.2829 -20.1923 104.2389 0.0000 0.0000 0.0000
# 4 0.0000 0.0000 0.0000 2.0744 0.0000 0.0000
# 5 0.0000 0.0000 0.0000 0.0000 -33.2647 0.0000
# 6 0.0000 0.0000 0.0000 0.0000 0.0000 32.8560
#
#
#
# Elastic Compliance Matrix: (Units=1/GPa)
#
#
# Indices 1 2 3 4 5 6 
#
# 1 0.007500 -0.000768 -0.001968 0.000000 0.000000 0.000000
# 2 -0.000768 0.022679 0.004580 0.000000 0.000000 0.000000
# 3 -0.001968 0.004580 0.010958 0.000000 0.000000 0.000000
# 4 0.000000 0.000000 0.000000 0.482057 0.000000 0.000000
# 5 0.000000 0.000000 0.000000 0.000000 -0.030062 0.000000
# 6 0.000000 0.000000 0.000000 0.000000 0.000000 0.030436
#
#
# Mechanical properties :
#
#
# Convention : Reuss Voigt Hill
#
# Bulk Modulus (GPa) = 22.30939 33.52983 27.91961
# Shear Modulus (GPa) = 9.34889 19.50620 14.42755
#
# Velocity S-wave (km/s) = 2.17973 3.14854 2.70782
# Velocity P-wave (km/s) = 4.20392 5.50073 4.89546
#
# Compressibility (1/GPa) = 0.04482417
#
# Stress axis : x y z
#
# Youngs Moduli (GPa) = 133.32631 44.09337 91.25933
#
# Poissons Ratio (x) = 0.03387 0.17960
# Poissons Ratio (y) = 0.10241 -0.41792
# Poissons Ratio (z) = 0.26239 -0.20193
#
# Static dielectric constant tensor:
#      x y z
#    x 1.666490 0.000000 0.000000 
#    y 0.000000 1.603400 0.000000 
#    z 0.000000 0.000000 1.626860 
# 
# From -- ./inp_files/5620.got.cif
#   From: 2010.05.17/outbox.cif.g08.bks.cpg/sg56_3_cif.got.tgz:5620.got - 2010.06.03 13:42:01.
