data_PCOD9431987
_publ_section_title
;
Structure prediction by ZEFSAII (Michael W. Deem and Ramdas Pophale) SiO2 
 PCOD9431987
Probable space group: P C C N
;
_chemical_formula_sum "Si O2"
_cell_formula_units_Z 40
_cell_length_a 7.581085
_cell_length_b 12.754092
_cell_length_c 18.399215
_cell_angle_alpha 90.000000
_cell_angle_beta 90.000000
_cell_angle_gamma 90.000000
_cell_volume 1779.017441
_symmetry_space_group_name_H-M "P C C N"
_symmetry_group_IT_number 56
_symmetry_cell_setting 'orthorhombic'
loop_
_space_group_symop_operation_xyz
x,y,z
1/2-x,1/2-y,z
1/2+x,-y,1/2-z
-x,1/2+y,1/2-z
-x,-y,-z
1/2+x,1/2+y,-z
1/2-x,y,1/2+z
x,1/2-y,1/2+z
loop_
_atom_site_type_symbol
_atom_site_label
_atom_site_fract_x
_atom_site_fract_y
_atom_site_fract_z
Si Si1 0.894315 0.172141 0.253220
Si Si2 0.219558 0.869698 0.517038
Si Si3 0.481945 0.156409 0.363349
Si Si4 0.394341 0.998489 0.745764
Si Si5 0.146062 0.444355 0.911858
O O1 0.750000 0.250000 0.216379
O O2 0.962402 0.236901 0.322760
O O3 0.063784 0.116541 0.216981
O O4 0.778082 0.070330 0.272923
O O5 0.250000 0.750000 0.489920
O O6 0.365685 0.877152 0.580585
O O7 0.024147 0.894454 0.548839
O O8 0.233431 0.959865 0.456787
O O9 0.296889 0.142331 0.402312
O O10 0.468014 0.076346 0.295797
O O11 0.402052 0.008703 0.832764
#
# Coordination Sequence:
#
# PCOD9431987 Si02
#       5
#     8   8   8   8   8
#     4  10  22  38  64  99 136 175 230 291 343 425
#     4  11  25  44  68 104 141 187 247 292 357 440
#     4  11  23  44  69  99 145 188 237 290 359 429
#     4  11  20  41  66 102 135 177 241 286 348 423
#     4  11  24  43  72  99 142 193 234 301 360 422
#
# _framework density 22.484321999999999
#
# number of rings (size 3 to 8) (size 9 to 14) (size 15 to 20)
#    0.000    1.200    2.000    6.000    0.000    5.600 
#    3.600    0.000    0.000    0.000    0.000    0.000 
#    0.000    0.000    0.000    0.000    0.000    0.000 
#
# Total GULP energy -222800.571980 kJ/mol
# GULP energy per Si atom -5570.014300 kJ/mol
# Density = 2.243315 g / cm^3
# Si number density = 22.484322 Si / 1000 Ang^3
#
#
#
# Elastic Constant Matrix: (Units=GPa)
#
#
# Indices 1 2 3 4 5 6 
#
# 1 130.8974 75.8004 28.7560 0.0000 0.0000 0.0000
# 2 75.8004 200.0683 71.7682 0.0000 0.0000 0.0000
# 3 28.7560 71.7682 55.3766 0.0000 0.0000 0.0000
# 4 0.0000 0.0000 0.0000 41.1078 0.0000 0.0000
# 5 0.0000 0.0000 0.0000 0.0000 26.4668 0.0000
# 6 0.0000 0.0000 0.0000 0.0000 0.0000 65.9878
#
#
#
# Elastic Compliance Matrix: (Units=1/GPa)
#
#
# Indices 1 2 3 4 5 6 
#
# 1 0.009795 -0.003525 -0.000517 0.000000 0.000000 0.000000
# 2 -0.003525 0.010610 -0.011920 0.000000 0.000000 0.000000
# 3 -0.000517 -0.011920 0.033775 0.000000 0.000000 0.000000
# 4 0.000000 0.000000 0.000000 0.024326 0.000000 0.000000
# 5 0.000000 0.000000 0.000000 0.000000 0.037783 0.000000
# 6 0.000000 0.000000 0.000000 0.000000 0.000000 0.015154
#
#
# Mechanical properties :
#
#
# Convention : Reuss Voigt Hill
#
# Bulk Modulus (GPa) = 44.93470 82.11017 63.52243
# Shear Modulus (GPa) = 29.27650 40.71367 34.99508
#
# Velocity S-wave (km/s) = 3.61236 4.25992 3.94943
# Velocity P-wave (km/s) = 6.11777 7.79705 7.00789
#
# Compressibility (1/GPa) = 0.02225452
#
# Stress axis : x y z
#
# Youngs Moduli (GPa) = 102.09604 94.25304 29.60805
#
# Poissons Ratio (x) = 0.33228 0.01532
# Poissons Ratio (y) = 0.35993 0.35292
# Poissons Ratio (z) = 0.05281 1.12346
#
# Static dielectric constant tensor:
#      x y z
#    x 2.054600 0.000000 0.000000 
#    y 0.000000 1.931960 0.000000 
#    z 0.000000 0.000000 1.807190 
# 
# From -- ./inp_files/17977.got.cif
#   From: 2010.05.17/outbox.cif.g08.bks.cpg/sg56_9_cif.got.tgz:17977.got - 2010.06.03 13:42:01.
