data_PCOD9431039
_publ_section_title
;
Structure prediction by ZEFSAII (Michael W. Deem and Ramdas Pophale) SiO2 
 PCOD9431039
Probable space group: P C C N
;
_chemical_formula_sum "Si O2"
_cell_formula_units_Z 44
_cell_length_a 8.628788
_cell_length_b 25.083465
_cell_length_c 9.351787
_cell_angle_alpha 90.000000
_cell_angle_beta 90.000000
_cell_angle_gamma 90.000000
_cell_volume 2024.099860
_symmetry_space_group_name_H-M "P C C N"
_symmetry_group_IT_number 56
_symmetry_cell_setting 'orthorhombic'
loop_
_space_group_symop_operation_xyz
x,y,z
1/2-x,1/2-y,z
1/2+x,-y,1/2-z
-x,1/2+y,1/2-z
-x,-y,-z
1/2+x,1/2+y,-z
1/2-x,y,1/2+z
x,1/2-y,1/2+z
loop_
_atom_site_type_symbol
_atom_site_label
_atom_site_fract_x
_atom_site_fract_y
_atom_site_fract_z
Si Si1 0.848091 0.508254 0.408137
Si Si2 0.803698 0.329071 0.219819
Si Si3 0.407648 0.453869 0.412370
Si Si4 0.191313 0.894887 0.542460
Si Si5 0.750000 0.750000 0.570054
Si Si6 0.477927 0.229886 0.681213
O O1 0.873203 0.525440 0.245855
O O2 0.745201 0.551453 0.492947
O O3 0.769388 0.450329 0.416641
O O4 0.000000 0.500000 0.500000
O O5 0.783367 0.347328 0.382390
O O6 0.948501 0.290137 0.190825
O O7 0.637251 0.303009 0.183516
O O8 0.816615 0.381927 0.124082
O O9 0.500000 0.500000 0.500000
O O10 0.515527 0.402298 0.404675
O O11 0.633333 0.720590 0.681453
O O12 0.629087 0.777576 0.458992
#
# Coordination Sequence:
#
# PCOD9431039 Si02
#       6
#     8   8   8   8   4   8
#     4  11  21  39  62  85 121 163 201 252 320 372
#     4  11  22  40  63  90 121 163 214 246 301 378
#     4  10  21  38  58  84 116 155 201 252 313 363
#     4  11  22  38  61  88 117 155 207 255 287 365
#     4  10  20  40  62  86 116 158 202 242 316 368
#     4  10  22  40  64  89 124 165 195 252 314 367
#
# _framework density 21.738057999999999
#
# number of rings (size 3 to 8) (size 9 to 14) (size 15 to 20)
#    0.000    1.455    0.000    7.636    0.000    2.909 
#    0.000   18.182    0.000    0.000    0.000    0.000 
#    0.000    0.000    0.000    0.000    0.000    0.000 
#
# Total GULP energy -245393.869086 kJ/mol
# GULP energy per Si atom -5577.133388 kJ/mol
# Density = 2.168858 g / cm^3
# Si number density = 21.738058 Si / 1000 Ang^3
#
#
#
# Elastic Constant Matrix: (Units=GPa)
#
#
# Indices 1 2 3 4 5 6 
#
# 1 120.0184 18.3138 45.7899 0.0000 0.0000 0.0000
# 2 18.3138 40.8418 15.2476 0.0000 0.0000 0.0000
# 3 45.7899 15.2476 155.1226 0.0000 0.0000 0.0000
# 4 0.0000 0.0000 0.0000 16.4305 0.0000 0.0000
# 5 0.0000 0.0000 0.0000 0.0000 40.3177 0.0000
# 6 0.0000 0.0000 0.0000 0.0000 0.0000 23.1265
#
#
#
# Elastic Compliance Matrix: (Units=1/GPa)
#
#
# Indices 1 2 3 4 5 6 
#
# 1 0.009837 -0.003454 -0.002564 0.000000 0.000000 0.000000
# 2 -0.003454 0.026630 -0.001598 0.000000 0.000000 0.000000
# 3 -0.002564 -0.001598 0.007361 0.000000 0.000000 0.000000
# 4 0.000000 0.000000 0.000000 0.060862 0.000000 0.000000
# 5 0.000000 0.000000 0.000000 0.000000 0.024803 0.000000
# 6 0.000000 0.000000 0.000000 0.000000 0.000000 0.043240
#
#
# Mechanical properties :
#
#
# Convention : Reuss Voigt Hill
#
# Bulk Modulus (GPa) = 34.97050 52.74282 43.85666
# Shear Modulus (GPa) = 25.31668 31.75039 28.53353
#
# Velocity S-wave (km/s) = 3.41636 3.82591 3.62692
# Velocity P-wave (km/s) = 5.62887 6.62060 6.14478
#
# Compressibility (1/GPa) = 0.02859553
#
# Stress axis : x y z
#
# Youngs Moduli (GPa) = 101.65238 37.55159 135.85926
#
# Poissons Ratio (x) = 0.12970 0.34839
# Poissons Ratio (y) = 0.35109 0.21711
# Poissons Ratio (z) = 0.26068 0.06001
#
# Static dielectric constant tensor:
#      x y z
#    x 1.803230 0.000000 0.000000 
#    y 0.000000 1.797190 0.000000 
#    z 0.000000 0.000000 1.732960 
# 
# From -- ./inp_files/2190.got.cif
#   From: 2010.05.17/outbox.cif.g08.bks.cpg/sg56_2_cif.got.tgz:2190.got - 2010.06.03 13:42:01.
