data_PCOD9431531
_publ_section_title
;
Structure prediction by ZEFSAII (Michael W. Deem and Ramdas Pophale) SiO2 
 PCOD9431531
Probable space group: P C C N
;
_chemical_formula_sum "Si O2"
_cell_formula_units_Z 48
_cell_length_a 14.781595
_cell_length_b 4.908738
_cell_length_c 29.522611
_cell_angle_alpha 90.000000
_cell_angle_beta 90.000000
_cell_angle_gamma 90.000000
_cell_volume 2142.130455
_symmetry_space_group_name_H-M "P C C N"
_symmetry_group_IT_number 56
_symmetry_cell_setting 'orthorhombic'
loop_
_space_group_symop_operation_xyz
x,y,z
1/2-x,1/2-y,z
1/2+x,-y,1/2-z
-x,1/2+y,1/2-z
-x,-y,-z
1/2+x,1/2+y,-z
1/2-x,y,1/2+z
x,1/2-y,1/2+z
loop_
_atom_site_type_symbol
_atom_site_label
_atom_site_fract_x
_atom_site_fract_y
_atom_site_fract_z
Si Si1 0.960384 0.368031 0.194892
Si Si2 0.065411 0.192565 0.030691
Si Si3 0.917863 0.125827 0.794990
Si Si4 0.585654 0.137949 0.600358
Si Si5 0.250000 0.750000 0.640796
Si Si6 0.750000 0.750000 0.922646
Si Si7 0.346348 0.384454 0.447396
O O1 0.998796 0.674326 0.190853
O O2 0.904272 0.330335 0.241227
O O3 0.912811 0.238121 0.151570
O O4 0.049620 0.183430 0.200670
O O5 0.166222 0.121964 0.048984
O O6 0.008574 0.229563 0.076526
O O7 0.095440 0.414398 0.993367
O O8 0.000000 0.000000 0.000000
O O9 0.833473 0.173007 0.827034
O O10 0.657235 0.322330 0.574186
O O11 0.604047 0.825131 0.587443
O O12 0.280424 0.498358 0.609313
O O13 0.250000 0.250000 0.456566
#
# Coordination Sequence:
#
# PCOD9431531 Si02
#       7
#     8   8   8   8   4   4   8
#     4  10  21  40  65  89 124 169 213 252 319 392
#     4  10  23  43  66  95 130 175 218 270 335 388
#     4  10  21  39  63  91 128 164 202 268 325 378
#     4  11  22  38  66  89 119 169 217 253 311 396
#     4  12  24  40  64 100 134 160 218 280 332 384
#     4  12  26  42  68 100 132 172 220 286 324 398
#     4  11  23  41  58  87 129 163 206 268 313 367
#
# _framework density 22.407596999999999
#
# number of rings (size 3 to 8) (size 9 to 14) (size 15 to 20)
#    0.000    1.333    0.833    5.000    0.000    6.667 
#    3.000    0.000    0.000    0.000    0.000    0.000 
#    0.000    0.000    0.000    0.000    0.000    0.000 
#
# Total GULP energy -267789.840779 kJ/mol
# GULP energy per Si atom -5578.955016 kJ/mol
# Density = 2.235660 g / cm^3
# Si number density = 22.407597 Si / 1000 Ang^3
#
#
#
# Elastic Constant Matrix: (Units=GPa)
#
#
# Indices 1 2 3 4 5 6 
#
# 1 105.1551 1.1449 29.0871 0.0000 0.0000 0.0000
# 2 1.1449 61.3761 -5.6405 0.0000 0.0000 0.0000
# 3 29.0871 -5.6405 88.5920 0.0000 0.0000 0.0000
# 4 0.0000 0.0000 0.0000 29.5360 0.0000 0.0000
# 5 0.0000 0.0000 0.0000 0.0000 -13.2823 0.0000
# 6 0.0000 0.0000 0.0000 0.0000 0.0000 22.2620
#
#
#
# Elastic Compliance Matrix: (Units=1/GPa)
#
#
# Indices 1 2 3 4 5 6 
#
# 1 0.010476 -0.000515 -0.003472 0.000000 0.000000 0.000000
# 2 -0.000515 0.016414 0.001214 0.000000 0.000000 0.000000
# 3 -0.003472 0.001214 0.012505 0.000000 0.000000 0.000000
# 4 0.000000 0.000000 0.000000 0.033857 0.000000 0.000000
# 5 0.000000 0.000000 0.000000 0.000000 -0.075288 0.000000
# 6 0.000000 0.000000 0.000000 0.000000 0.000000 0.044920
#
#
# Mechanical properties :
#
#
# Convention : Reuss Voigt Hill
#
# Bulk Modulus (GPa) = 29.54256 33.81179 31.67718
# Shear Modulus (GPa) = 83.73536 23.07194 53.40365
#
# Velocity S-wave (km/s) = 6.11967 3.21229 4.88718
# Velocity P-wave (km/s) = 7.94648 5.37407 6.78333
#
# Compressibility (1/GPa) = 0.03384947
#
# Stress axis : x y z
#
# Youngs Moduli (GPa) = 95.45789 60.92304 79.96790
#
# Poissons Ratio (x) = 0.03135 0.27767
# Poissons Ratio (y) = 0.04911 -0.09708
# Poissons Ratio (z) = 0.33145 -0.07396
#
# Static dielectric constant tensor:
#      x y z
#    x 1.857640 0.000000 0.000000 
#    y 0.000000 1.830270 0.000000 
#    z 0.000000 0.000000 1.859280 
# 
# From -- ./inp_files/22461.got.cif
#   From: 2010.05.17/outbox.cif.g08.bks.cpg/sg56_12_cif.got.tgz:22461.got - 2010.06.03 13:42:01.
