data_PCOD9431559
_publ_section_title
;
Structure prediction by ZEFSAII (Michael W. Deem and Ramdas Pophale) SiO2 
 PCOD9431559
Probable space group: P C C N
;
_chemical_formula_sum "Si O2"
_cell_formula_units_Z 32
_cell_length_a 9.722901
_cell_length_b 8.592643
_cell_length_c 15.026274
_cell_angle_alpha 90.000000
_cell_angle_beta 90.000000
_cell_angle_gamma 90.000000
_cell_volume 1255.376331
_symmetry_space_group_name_H-M "P C C N"
_symmetry_group_IT_number 56
_symmetry_cell_setting 'orthorhombic'
loop_
_space_group_symop_operation_xyz
x,y,z
1/2-x,1/2-y,z
1/2+x,-y,1/2-z
-x,1/2+y,1/2-z
-x,-y,-z
1/2+x,1/2+y,-z
1/2-x,y,1/2+z
x,1/2-y,1/2+z
loop_
_atom_site_type_symbol
_atom_site_label
_atom_site_fract_x
_atom_site_fract_y
_atom_site_fract_z
Si Si1 0.592979 0.229671 0.261952
Si Si2 0.828550 0.558635 0.545270
Si Si3 0.544974 0.898260 0.084636
Si Si4 0.572493 0.909241 0.366655
O O1 0.750000 0.250000 0.231457
O O2 0.564090 0.360120 0.339103
O O3 0.467726 0.260987 0.192509
O O4 0.578800 0.059092 0.303680
O O5 0.900382 0.724098 0.562999
O O6 0.694744 0.529787 0.605140
O O7 0.805964 0.571411 0.438708
O O8 0.936553 0.428064 0.572006
O O9 0.500000 0.000000 0.000000
#
# Coordination Sequence:
#
# PCOD9431559 Si02
#       4
#     8   8   8   8
#     4  11  25  41  65 104 132 172 228 280 342 405
#     4   9  21  42  62  92 132 175 217 268 334 406
#     4  10  21  39  66  95 126 174 220 269 338 403
#     4  10  23  42  64  94 134 170 221 278 332 402
#
# _framework density 25.490365000000001
#
# number of rings (size 3 to 8) (size 9 to 14) (size 15 to 20)
#    0.000    2.000    0.000    1.500    7.000    0.000 
#    0.000    2.500    0.000    0.000    0.000    0.000 
#    0.000    0.000    0.000    0.000    0.000    0.000 
#
# Total GULP energy -178383.961485 kJ/mol
# GULP energy per Si atom -5574.498796 kJ/mol
# Density = 2.543235 g / cm^3
# Si number density = 25.490365 Si / 1000 Ang^3
#
#
#
# Elastic Constant Matrix: (Units=GPa)
#
#
# Indices 1 2 3 4 5 6 
#
# 1 80.9912 15.7921 9.2644 0.0000 0.0000 0.0000
# 2 15.7921 47.7577 26.0829 0.0000 0.0000 0.0000
# 3 9.2644 26.0829 79.1462 0.0000 0.0000 0.0000
# 4 0.0000 0.0000 0.0000 45.1823 0.0000 0.0000
# 5 0.0000 0.0000 0.0000 0.0000 25.4430 0.0000
# 6 0.0000 0.0000 0.0000 0.0000 0.0000 26.0094
#
#
#
# Elastic Compliance Matrix: (Units=1/GPa)
#
#
# Indices 1 2 3 4 5 6 
#
# 1 0.013199 -0.004294 -0.000130 0.000000 0.000000 0.000000
# 2 -0.004294 0.026932 -0.008373 0.000000 0.000000 0.000000
# 3 -0.000130 -0.008373 0.015409 0.000000 0.000000 0.000000
# 4 0.000000 0.000000 0.000000 0.022133 0.000000 0.000000
# 5 0.000000 0.000000 0.000000 0.000000 0.039304 0.000000
# 6 0.000000 0.000000 0.000000 0.000000 0.000000 0.038448
#
#
# Mechanical properties :
#
#
# Convention : Reuss Voigt Hill
#
# Bulk Modulus (GPa) = 33.39211 34.46378 33.92795
# Shear Modulus (GPa) = 26.17815 29.77733 27.97774
#
# Velocity S-wave (km/s) = 3.20813 3.42157 3.31657
# Velocity P-wave (km/s) = 5.18181 5.39993 5.29199
#
# Compressibility (1/GPa) = 0.02994720
#
# Stress axis : x y z
#
# Youngs Moduli (GPa) = 75.76290 37.13108 64.89558
#
# Poissons Ratio (x) = 0.15942 0.00844
# Poissons Ratio (y) = 0.32529 0.54336
# Poissons Ratio (z) = 0.00985 0.31089
#
# Static dielectric constant tensor:
#      x y z
#    x 2.103150 0.000000 0.000000 
#    y 0.000000 2.008040 0.000000 
#    z 0.000000 0.000000 2.269570 
# 
# From -- ./inp_files/10160.got.cif
#   From: 2010.05.17/outbox.cif.g08.bks.cpg/sg56_6_cif.got.tgz:10160.got - 2010.06.03 13:42:01.
