data_PCOD9431897
_publ_section_title
;
Structure prediction by ZEFSAII (Michael W. Deem and Ramdas Pophale) SiO2 
 PCOD9431897
Probable space group: P C C N
;
_chemical_formula_sum "Si O2"
_cell_formula_units_Z 28
_cell_length_a 5.279183
_cell_length_b 15.165911
_cell_length_c 13.956462
_cell_angle_alpha 90.000000
_cell_angle_beta 90.000000
_cell_angle_gamma 90.000000
_cell_volume 1117.404864
_symmetry_space_group_name_H-M "P C C N"
_symmetry_group_IT_number 56
_symmetry_cell_setting 'orthorhombic'
loop_
_space_group_symop_operation_xyz
x,y,z
1/2-x,1/2-y,z
1/2+x,-y,1/2-z
-x,1/2+y,1/2-z
-x,-y,-z
1/2+x,1/2+y,-z
1/2-x,y,1/2+z
x,1/2-y,1/2+z
loop_
_atom_site_type_symbol
_atom_site_label
_atom_site_fract_x
_atom_site_fract_y
_atom_site_fract_z
Si Si1 0.391993 0.388000 0.070374
Si Si2 0.883484 0.039594 0.650597
Si Si3 0.750000 0.750000 0.087418
Si Si4 0.950479 0.145244 0.266825
O O1 0.361847 0.549411 0.918042
O O2 0.360159 0.327910 0.978456
O O3 0.632550 0.562012 0.407971
O O4 0.441116 0.326354 0.163857
O O5 0.912787 0.945419 0.699869
O O6 0.827629 0.110661 0.735879
O O7 0.523169 0.786576 0.152744
#
# Coordination Sequence:
#
# PCOD9431897 Si02
#       4
#     8   8   4   8
#     4  10  23  46  63 106 132 181 218 305 317 428
#     4  10  21  46  74  88 142 175 243 263 347 392
#     4  12  26  44  70 108 146 176 232 284 374 384
#     4  10  22  47  73 100 130 193 224 287 333 423
#
# _framework density 25.058062
#
# number of rings (size 3 to 8) (size 9 to 14) (size 15 to 20)
#    1.714    0.000    2.857    0.857    0.000    3.429 
#   10.286    0.000    0.000    0.000    0.000    0.000 
#    0.000    0.000    0.000    0.000    0.000    0.000 
#
# Total GULP energy -156523.326095 kJ/mol
# GULP energy per Si atom -5590.118789 kJ/mol
# Density = 2.500103 g / cm^3
# Si number density = 25.058062 Si / 1000 Ang^3
#
#
#
# Elastic Constant Matrix: (Units=GPa)
#
#
# Indices 1 2 3 4 5 6 
#
# 1 169.3421 39.5534 39.9924 0.0000 0.0000 0.0000
# 2 39.5534 78.0927 53.9595 0.0000 0.0000 0.0000
# 3 39.9924 53.9595 143.0057 0.0000 0.0000 0.0000
# 4 0.0000 0.0000 0.0000 56.6670 0.0000 0.0000
# 5 0.0000 0.0000 0.0000 0.0000 20.3867 0.0000
# 6 0.0000 0.0000 0.0000 0.0000 0.0000 29.0384
#
#
#
# Elastic Compliance Matrix: (Units=1/GPa)
#
#
# Indices 1 2 3 4 5 6 
#
# 1 0.006766 -0.002867 -0.000810 0.000000 0.000000 0.000000
# 2 -0.002867 0.018536 -0.006192 0.000000 0.000000 0.000000
# 3 -0.000810 -0.006192 0.009556 0.000000 0.000000 0.000000
# 4 0.000000 0.000000 0.000000 0.017647 0.000000 0.000000
# 5 0.000000 0.000000 0.000000 0.000000 0.049051 0.000000
# 6 0.000000 0.000000 0.000000 0.000000 0.000000 0.034437
#
#
# Mechanical properties :
#
#
# Convention : Reuss Voigt Hill
#
# Bulk Modulus (GPa) = 66.14358 73.05013 69.59685
# Shear Modulus (GPa) = 31.09971 38.34744 34.72357
#
# Velocity S-wave (km/s) = 3.52676 3.91620 3.72657
# Velocity P-wave (km/s) = 6.56029 7.04730 6.80815
#
# Compressibility (1/GPa) = 0.01511863
#
# Stress axis : x y z
#
# Youngs Moduli (GPa) = 147.79202 53.94853 104.64763
#
# Poissons Ratio (x) = 0.15468 0.08481
# Poissons Ratio (y) = 0.42374 0.64801
# Poissons Ratio (z) = 0.11977 0.33407
#
# Static dielectric constant tensor:
#      x y z
#    x 1.998160 0.000000 0.000000 
#    y 0.000000 1.981570 0.000000 
#    z 0.000000 0.000000 1.998070 
# 
# From -- ./inp_files/1868.got.cif
#   From: 2010.05.17/outbox.cif.g08.bks.cpg/sg56_1_cif.got.tgz:1868.got - 2010.06.03 13:42:01.
