data_PCOD9431647
_publ_section_title
;
Structure prediction by ZEFSAII (Michael W. Deem and Ramdas Pophale) SiO2 
 PCOD9431647
Probable space group: P C C N
;
_chemical_formula_sum "Si O2"
_cell_formula_units_Z 64
_cell_length_a 10.763281
_cell_length_b 22.334435
_cell_length_c 9.518190
_cell_angle_alpha 90.000000
_cell_angle_beta 90.000000
_cell_angle_gamma 90.000000
_cell_volume 2288.094826
_symmetry_space_group_name_H-M "P C C N"
_symmetry_group_IT_number 56
_symmetry_cell_setting 'orthorhombic'
loop_
_space_group_symop_operation_xyz
x,y,z
1/2-x,1/2-y,z
1/2+x,-y,1/2-z
-x,1/2+y,1/2-z
-x,-y,-z
1/2+x,1/2+y,-z
1/2-x,y,1/2+z
x,1/2-y,1/2+z
loop_
_atom_site_type_symbol
_atom_site_label
_atom_site_fract_x
_atom_site_fract_y
_atom_site_fract_z
Si Si1 0.905867 0.209869 0.488061
Si Si2 0.042285 0.385096 0.239086
Si Si3 0.298775 0.507235 0.771654
Si Si4 0.561630 0.755660 0.753765
Si Si5 0.423612 0.134637 0.667157
Si Si6 0.511599 0.433204 0.432101
Si Si7 0.634985 0.518562 0.953607
Si Si8 0.846720 0.346891 0.465900
O O1 0.947175 0.222684 0.647194
O O2 0.019160 0.213939 0.376751
O O3 0.859876 0.276121 0.444815
O O4 0.803894 0.156544 0.474191
O O5 0.113617 0.321988 0.274385
O O6 0.007447 0.393164 0.074114
O O7 0.127502 0.443503 0.268209
O O8 0.920234 0.379548 0.339680
O O9 0.577732 0.599652 0.683719
O O10 0.167586 0.503696 0.699116
O O11 0.377278 0.552632 0.679327
O O12 0.281037 0.516780 0.935902
O O13 0.626612 0.702430 0.841044
O O14 0.353294 0.089640 0.560976
O O15 0.566047 0.138637 0.602020
O O16 0.500000 0.500000 0.500000
O O17 0.500000 0.500000 0.000000
#
# Coordination Sequence:
#
# PCOD9431647 Si02
#       8
#     8   8   8   8   8   8   8   8
#     4   9  19  35  57  96 147 208 242 299 378 455
#     4  10  21  42  69 103 148 195 250 316 381 470
#     4  11  26  48  76 103 144 201 252 318 394 456
#     4  10  21  40  66 105 155 201 254 315 394 479
#     4  11  22  43  70 101 148 194 244 320 386 457
#     4  10  23  44  71 107 146 196 261 320 384 462
#     4  12  27  52  77 110 148 194 258 328 390 464
#     4   9  19  36  61  90 144 197 246 295 373 462
#
# _framework density 27.970867999999999
#
# number of rings (size 3 to 8) (size 9 to 14) (size 15 to 20)
#    0.000    1.750    2.500    0.750    3.500    8.000 
#    6.750    3.125    0.000    3.000    0.000    0.000 
#    0.000    0.000    0.000    0.000    0.000    0.000 
#
# Total GULP energy -356468.064912 kJ/mol
# GULP energy per Si atom -5569.813514 kJ/mol
# Density = 2.790721 g / cm^3
# Si number density = 27.970868 Si / 1000 Ang^3
#
#
#
# Elastic Constant Matrix: (Units=GPa)
#
#
# Indices 1 2 3 4 5 6 
#
# 1 70.5549 17.3206 34.3321 0.0000 0.0000 0.0000
# 2 17.3206 153.5193 32.3655 0.0000 0.0000 0.0000
# 3 34.3321 32.3655 191.0074 0.0000 0.0000 0.0000
# 4 0.0000 0.0000 0.0000 43.5240 0.0000 0.0000
# 5 0.0000 0.0000 0.0000 0.0000 26.0409 0.0000
# 6 0.0000 0.0000 0.0000 0.0000 0.0000 20.9779
#
#
#
# Elastic Compliance Matrix: (Units=1/GPa)
#
#
# Indices 1 2 3 4 5 6 
#
# 1 0.015750 -0.001224 -0.002624 0.000000 0.000000 0.000000
# 2 -0.001224 0.006850 -0.000941 0.000000 0.000000 0.000000
# 3 -0.002624 -0.000941 0.005866 0.000000 0.000000 0.000000
# 4 0.000000 0.000000 0.000000 0.022976 0.000000 0.000000
# 5 0.000000 0.000000 0.000000 0.000000 0.038401 0.000000
# 6 0.000000 0.000000 0.000000 0.000000 0.000000 0.047669
#
#
# Mechanical properties :
#
#
# Convention : Reuss Voigt Hill
#
# Bulk Modulus (GPa) = 52.93665 64.79091 58.86378
# Shear Modulus (GPa) = 32.59734 40.17945 36.38839
#
# Velocity S-wave (km/s) = 3.41750 3.79420 3.61077
# Velocity P-wave (km/s) = 5.87700 6.51219 6.20273
#
# Compressibility (1/GPa) = 0.01889050
#
# Stress axis : x y z
#
# Youngs Moduli (GPa) = 63.49012 145.97991 170.46267
#
# Poissons Ratio (x) = 0.17867 0.44723
# Poissons Ratio (y) = 0.07771 0.16036
# Poissons Ratio (z) = 0.16658 0.13733
#
# Static dielectric constant tensor:
#      x y z
#    x 2.277630 0.000000 0.000000 
#    y 0.000000 2.468810 0.000000 
#    z 0.000000 0.000000 2.333390 
# 
# From -- ./inp_files/8759.got.cif
#   From: 2010.05.17/outbox.cif.g08.bks.cpg/sg56_5_cif.got.tgz:8759.got - 2010.06.03 13:42:01.
