data_PCOD9431811
_publ_section_title
;
Structure prediction by ZEFSAII (Michael W. Deem and Ramdas Pophale) SiO2 
 PCOD9431811
Probable space group: P C C N
;
_chemical_formula_sum "Si O2"
_cell_formula_units_Z 56
_cell_length_a 15.019946
_cell_length_b 12.300235
_cell_length_c 11.488084
_cell_angle_alpha 90.000000
_cell_angle_beta 90.000000
_cell_angle_gamma 90.000000
_cell_volume 2122.410486
_symmetry_space_group_name_H-M "P C C N"
_symmetry_group_IT_number 56
_symmetry_cell_setting 'orthorhombic'
loop_
_space_group_symop_operation_xyz
x,y,z
1/2-x,1/2-y,z
1/2+x,-y,1/2-z
-x,1/2+y,1/2-z
-x,-y,-z
1/2+x,1/2+y,-z
1/2-x,y,1/2+z
x,1/2-y,1/2+z
loop_
_atom_site_type_symbol
_atom_site_label
_atom_site_fract_x
_atom_site_fract_y
_atom_site_fract_z
Si Si1 0.186756 0.468908 0.017401
Si Si2 0.700248 0.020995 0.244776
Si Si3 0.250000 0.250000 0.352142
Si Si4 0.572041 0.668823 0.039200
Si Si5 0.992466 0.978506 0.215343
Si Si6 0.250000 0.750000 0.712451
Si Si7 0.603210 0.721736 0.336870
Si Si8 0.423112 0.844464 0.109205
O O1 0.145671 0.357077 0.064816
O O2 0.250165 0.495607 0.130609
O O3 0.111709 0.565236 0.016873
O O4 0.213619 0.459966 0.880118
O O5 0.597071 0.019341 0.272573
O O6 0.734289 0.141887 0.215192
O O7 0.673649 0.772456 0.248287
O O8 0.176645 0.310719 0.434505
O O9 0.547862 0.552623 0.091144
O O10 0.505798 0.766475 0.081102
O O11 0.558323 0.678802 0.901896
O O12 0.961018 0.864455 0.276993
O O13 0.947323 0.077908 0.282299
O O14 0.161774 0.769528 0.636411
#
# Coordination Sequence:
#
# PCOD9431811 Si02
#       8
#     8   8   4   8   8   4   8   8
#     4  10  24  40  69 101 144 187 245 304 373 446
#     4  11  22  43  66 106 143 190 245 306 372 443
#     4  10  24  38  60  96 132 186 236 298 362 454
#     4  11  21  41  69  95 139 186 241 302 373 441
#     4  10  22  41  70 103 138 187 251 310 367 442
#     4  10  22  42  68 102 146 188 236 310 374 444
#     4  10  22  41  62  99 133 189 238 305 374 440
#     4  10  21  42  70 104 138 191 245 311 376 445
#
# _framework density 26.385095
#
# number of rings (size 3 to 8) (size 9 to 14) (size 15 to 20)
#    0.000    1.714    1.429    2.143    4.000    4.571 
#    7.714    0.000    0.000   11.143    0.000    0.000 
#    0.000    0.000    0.000    0.000    0.000    0.000 
#
# Total GULP energy -312525.131031 kJ/mol
# GULP energy per Si atom -5580.805911 kJ/mol
# Density = 2.632504 g / cm^3
# Si number density = 26.385095 Si / 1000 Ang^3
#
#
#
# Elastic Constant Matrix: (Units=GPa)
#
#
# Indices 1 2 3 4 5 6 
#
# 1 188.7900 52.6260 21.4210 0.0000 0.0000 0.0000
# 2 52.6260 60.0749 4.1280 0.0000 0.0000 0.0000
# 3 21.4210 4.1280 53.5104 0.0000 0.0000 0.0000
# 4 0.0000 0.0000 0.0000 52.4482 0.0000 0.0000
# 5 0.0000 0.0000 0.0000 0.0000 -6.8197 0.0000
# 6 0.0000 0.0000 0.0000 0.0000 0.0000 39.2625
#
#
#
# Elastic Compliance Matrix: (Units=1/GPa)
#
#
# Indices 1 2 3 4 5 6 
#
# 1 0.007314 -0.006239 -0.002446 0.000000 0.000000 0.000000
# 2 -0.006239 0.022056 0.000796 0.000000 0.000000 0.000000
# 3 -0.002446 0.000796 0.019606 0.000000 0.000000 0.000000
# 4 0.000000 0.000000 0.000000 0.019066 0.000000 0.000000
# 5 0.000000 0.000000 0.000000 0.000000 -0.146634 0.000000
# 6 0.000000 0.000000 0.000000 0.000000 0.000000 0.025470
#
#
# Mechanical properties :
#
#
# Convention : Reuss Voigt Hill
#
# Bulk Modulus (GPa) = 30.12283 50.96947 40.54615
# Shear Modulus (GPa) = -190.26776 31.92489 -79.17144
#
# Velocity S-wave (km/s) = -8.50108 3.48222 -5.48373
# Velocity P-wave (km/s) = 9.21501 5.96048 4.96937
#
# Compressibility (1/GPa) = 0.03319741
#
# Stress axis : x y z
#
# Youngs Moduli (GPa) = 136.73340 45.33870 51.00500
#
# Poissons Ratio (x) = 0.28285 0.12478
# Poissons Ratio (y) = 0.85302 -0.04059
# Poissons Ratio (z) = 0.33451 -0.03609
#
# Static dielectric constant tensor:
#      x y z
#    x 2.184220 0.000000 0.000000 
#    y 0.000000 2.241000 0.000000 
#    z 0.000000 0.000000 2.498930 
# 
# From -- ./inp_files/12319.got.cif
#   From: 2010.05.17/outbox.cif.g08.bks.cpg/sg56_7_cif.got.tgz:12319.got - 2010.06.03 13:42:01.
