data_PCOD9431191
_publ_section_title
;
Structure prediction by ZEFSAII (Michael W. Deem and Ramdas Pophale) SiO2 
 PCOD9431191
Probable space group: P C C N
;
_chemical_formula_sum "Si O2"
_cell_formula_units_Z 48
_cell_length_a 12.381594
_cell_length_b 9.391046
_cell_length_c 13.957718
_cell_angle_alpha 90.000000
_cell_angle_beta 90.000000
_cell_angle_gamma 90.000000
_cell_volume 1622.949276
_symmetry_space_group_name_H-M "P C C N"
_symmetry_group_IT_number 56
_symmetry_cell_setting 'orthorhombic'
loop_
_space_group_symop_operation_xyz
x,y,z
1/2-x,1/2-y,z
1/2+x,-y,1/2-z
-x,1/2+y,1/2-z
-x,-y,-z
1/2+x,1/2+y,-z
1/2-x,y,1/2+z
x,1/2-y,1/2+z
loop_
_atom_site_type_symbol
_atom_site_label
_atom_site_fract_x
_atom_site_fract_y
_atom_site_fract_z
Si Si1 0.781785 0.957422 0.165452
Si Si2 0.998426 0.555328 0.251488
Si Si3 0.736539 0.491733 0.942139
Si Si4 0.750000 0.750000 0.303778
Si Si5 0.514610 0.288804 0.608445
Si Si6 0.078730 0.758718 0.586322
Si Si7 0.750000 0.250000 0.165099
O O1 0.700647 0.849033 0.216418
O O2 0.907476 0.960243 0.194436
O O3 0.771238 0.957788 0.052250
O O4 0.743395 0.103340 0.217815
O O5 0.952176 0.659345 0.339229
O O6 0.977061 0.438602 0.165133
O O7 0.044077 0.689531 0.190408
O O8 0.629076 0.400047 0.914647
O O9 0.828918 0.373449 0.937835
O O10 0.778647 0.621876 0.875727
O O11 0.488471 0.285731 0.495746
O O12 0.639828 0.235719 0.607336
#
# Coordination Sequence:
#
# PCOD9431191 Si02
#       7
#     8   8   8   4   8   8   4
#     4  11  22  44  66 104 139 186 240 299 369 420
#     4  11  25  43  70 103 142 187 239 301 379 423
#     4  11  22  42  70 104 142 186 250 300 344 439
#     4  12  26  34  66 110 144 180 242 312 360 412
#     4  11  23  46  69 107 140 189 240 308 354 439
#     4  11  21  44  74  98 137 197 252 286 359 451
#     4  10  20  42  80  90 130 204 240 282 354 436
#
# _framework density 29.575783999999999
#
# number of rings (size 3 to 8) (size 9 to 14) (size 15 to 20)
#    0.000    1.000    6.667    1.000    4.667    1.333 
#    3.000    0.833    0.000    0.000    0.000    0.000 
#    0.000    0.000    0.000    0.000    0.000    0.000 
#
# Total GULP energy -267671.593283 kJ/mol
# GULP energy per Si atom -5576.491527 kJ/mol
# Density = 2.950847 g / cm^3
# Si number density = 29.575784 Si / 1000 Ang^3
#
#
#
# Elastic Constant Matrix: (Units=GPa)
#
#
# Indices 1 2 3 4 5 6 
#
# 1 26.8037 17.9315 12.2380 0.0000 0.0000 0.0000
# 2 17.9315 231.8825 67.9803 0.0000 0.0000 0.0000
# 3 12.2380 67.9803 182.9313 0.0000 0.0000 0.0000
# 4 0.0000 0.0000 0.0000 79.0224 0.0000 0.0000
# 5 0.0000 0.0000 0.0000 0.0000 39.2108 0.0000
# 6 0.0000 0.0000 0.0000 0.0000 0.0000 39.9134
#
#
#
# Elastic Compliance Matrix: (Units=1/GPa)
#
#
# Indices 1 2 3 4 5 6 
#
# 1 0.039812 -0.002579 -0.001705 0.000000 0.000000 0.000000
# 2 -0.002579 0.005007 -0.001688 0.000000 0.000000 0.000000
# 3 -0.001705 -0.001688 0.006208 0.000000 0.000000 0.000000
# 4 0.000000 0.000000 0.000000 0.012655 0.000000 0.000000
# 5 0.000000 0.000000 0.000000 0.000000 0.025503 0.000000
# 6 0.000000 0.000000 0.000000 0.000000 0.000000 0.025054
#
#
# Mechanical properties :
#
#
# Convention : Reuss Voigt Hill
#
# Bulk Modulus (GPa) = 25.58674 70.87970 48.23322
# Shear Modulus (GPa) = 35.91688 54.52716 45.22202
#
# Velocity S-wave (km/s) = 3.48861 4.29842 3.91451
# Velocity P-wave (km/s) = 4.98971 6.97515 6.06424
#
# Compressibility (1/GPa) = 0.03908275
#
# Stress axis : x y z
#
# Youngs Moduli (GPa) = 25.11809 199.72655 161.08424
#
# Poissons Ratio (x) = 0.51505 0.27466
# Poissons Ratio (y) = 0.06477 0.27193
# Poissons Ratio (z) = 0.04283 0.33716
#
# Static dielectric constant tensor:
#      x y z
#    x 2.573450 0.000000 0.000000 
#    y 0.000000 2.313090 0.000000 
#    z 0.000000 0.000000 2.279300 
# 
# From -- ./inp_files/12736.got.cif
#   From: 2010.05.17/outbox.cif.g08.bks.cpg/sg56_7_cif.got.tgz:12736.got - 2010.06.03 13:42:01.
