data_PCOD9431608
_publ_section_title
;
Structure prediction by ZEFSAII (Michael W. Deem and Ramdas Pophale) SiO2 
 PCOD9431608
Probable space group: P C C N
;
_chemical_formula_sum "Si O2"
_cell_formula_units_Z 60
_cell_length_a 21.359922
_cell_length_b 12.062703
_cell_length_c 11.565217
_cell_angle_alpha 90.000000
_cell_angle_beta 90.000000
_cell_angle_gamma 90.000000
_cell_volume 2979.875252
_symmetry_space_group_name_H-M "P C C N"
_symmetry_group_IT_number 56
_symmetry_cell_setting 'orthorhombic'
loop_
_space_group_symop_operation_xyz
x,y,z
1/2-x,1/2-y,z
1/2+x,-y,1/2-z
-x,1/2+y,1/2-z
-x,-y,-z
1/2+x,1/2+y,-z
1/2-x,y,1/2+z
x,1/2-y,1/2+z
loop_
_atom_site_type_symbol
_atom_site_label
_atom_site_fract_x
_atom_site_fract_y
_atom_site_fract_z
Si Si1 0.040731 0.966067 0.111249
Si Si2 0.181542 0.540031 0.555924
Si Si3 0.330917 0.569871 0.789315
Si Si4 0.750000 0.250000 0.827662
Si Si5 0.416827 0.300293 0.626502
Si Si6 0.223715 0.131243 0.658059
Si Si7 0.035300 0.964163 0.675473
Si Si8 0.968285 0.747686 0.116172
O O1 0.114892 0.982626 0.115345
O O2 0.022845 0.837971 0.129142
O O3 0.009123 0.030967 0.214332
O O4 0.000000 0.000000 0.000000
O O5 0.161554 0.560803 0.424829
O O6 0.215333 0.652698 0.600317
O O7 0.228311 0.435454 0.574342
O O8 0.297470 0.682206 0.752083
O O9 0.290027 0.462362 0.753775
O O10 0.395727 0.565291 0.720791
O O11 0.344761 0.337164 0.610300
O O12 0.457351 0.413205 0.625751
O O13 0.433813 0.232791 0.508543
O O14 0.428445 0.256528 0.761081
O O15 0.250000 0.250000 0.697780
O O16 0.003435 0.868676 0.603060
#
# Coordination Sequence:
#
# PCOD9431608 Si02
#       8
#     8   8   8   4   8   8   8   8
#     4  11  22  38  63  96 123 166 216 261 326 389
#     4  11  23  41  67  89 128 170 216 271 329 393
#     4  10  21  41  64  92 127 168 211 276 323 391
#     4  10  22  42  62  96 120 160 222 264 338 378
#     4  10  24  41  64  97 129 177 216 272 328 388
#     4  10  25  41  61  91 130 172 222 267 321 392
#     4  10  21  40  62  92 133 162 217 265 324 393
#     4  11  23  41  68  96 132 173 213 274 331 386
#
# _framework density 20.135069999999999
#
# number of rings (size 3 to 8) (size 9 to 14) (size 15 to 20)
#    0.000    1.600    1.333    2.400    3.733    1.600 
#    2.400    0.000    0.000    0.000    0.000    0.000 
#    0.000    0.000    0.000    0.000    0.000    0.000 
#
# Total GULP energy -334225.769702 kJ/mol
# GULP energy per Si atom -5570.429495 kJ/mol
# Density = 2.008924 g / cm^3
# Si number density = 20.135070 Si / 1000 Ang^3
#
#
#
# Elastic Constant Matrix: (Units=GPa)
#
#
# Indices 1 2 3 4 5 6 
#
# 1 92.0856 19.1137 40.4749 0.0000 0.0000 0.0000
# 2 19.1137 82.8836 15.3069 0.0000 0.0000 0.0000
# 3 40.4749 15.3069 75.1000 0.0000 0.0000 0.0000
# 4 0.0000 0.0000 0.0000 32.4062 0.0000 0.0000
# 5 0.0000 0.0000 0.0000 0.0000 20.9610 0.0000
# 6 0.0000 0.0000 0.0000 0.0000 0.0000 8.8532
#
#
#
# Elastic Compliance Matrix: (Units=1/GPa)
#
#
# Indices 1 2 3 4 5 6 
#
# 1 0.014537 -0.001980 -0.007431 0.000000 0.000000 0.000000
# 2 -0.001980 0.012807 -0.001543 0.000000 0.000000 0.000000
# 3 -0.007431 -0.001543 0.017635 0.000000 0.000000 0.000000
# 4 0.000000 0.000000 0.000000 0.030858 0.000000 0.000000
# 5 0.000000 0.000000 0.000000 0.000000 0.047708 0.000000
# 6 0.000000 0.000000 0.000000 0.000000 0.000000 0.112953
#
#
# Mechanical properties :
#
#
# Convention : Reuss Voigt Hill
#
# Bulk Modulus (GPa) = 43.34593 44.42893 43.88743
# Shear Modulus (GPa) = 18.79025 24.12234 21.45629
#
# Velocity S-wave (km/s) = 3.05816 3.46501 3.26792
# Velocity P-wave (km/s) = 5.83473 6.17428 6.00691
#
# Compressibility (1/GPa) = 0.02307022
#
# Stress axis : x y z
#
# Youngs Moduli (GPa) = 68.79209 78.08415 56.70556
#
# Poissons Ratio (x) = 0.15460 0.42137
# Poissons Ratio (y) = 0.13620 0.08751
# Poissons Ratio (z) = 0.51119 0.12050
#
# Static dielectric constant tensor:
#      x y z
#    x 1.701550 0.000000 0.000000 
#    y 0.000000 1.726410 0.000000 
#    z 0.000000 0.000000 1.725150 
# 
# From -- ./inp_files/7338.got.cif
#   From: 2010.05.17/outbox.cif.g08.bks.cpg/sg56_4_cif.got.tgz:7338.got - 2010.06.03 13:42:01.
