data_PCOD9431296
_publ_section_title
;
Structure prediction by ZEFSAII (Michael W. Deem and Ramdas Pophale) SiO2 
 PCOD9431296
Probable space group: P C C N
;
_chemical_formula_sum "Si O2"
_cell_formula_units_Z 48
_cell_length_a 26.123065
_cell_length_b 7.691838
_cell_length_c 10.414043
_cell_angle_alpha 90.000000
_cell_angle_beta 90.000000
_cell_angle_gamma 90.000000
_cell_volume 2092.539316
_symmetry_space_group_name_H-M "P C C N"
_symmetry_group_IT_number 56
_symmetry_cell_setting 'orthorhombic'
loop_
_space_group_symop_operation_xyz
x,y,z
1/2-x,1/2-y,z
1/2+x,-y,1/2-z
-x,1/2+y,1/2-z
-x,-y,-z
1/2+x,1/2+y,-z
1/2-x,y,1/2+z
x,1/2-y,1/2+z
loop_
_atom_site_type_symbol
_atom_site_label
_atom_site_fract_x
_atom_site_fract_y
_atom_site_fract_z
Si Si1 0.189268 0.256938 0.460721
Si Si2 0.800676 0.637803 0.790345
Si Si3 0.939720 0.566583 0.848674
Si Si4 0.045650 0.129579 0.357152
Si Si5 0.659395 0.178587 0.892055
Si Si6 0.142738 0.911742 0.336895
O O1 0.250000 0.250000 0.485010
O O2 0.167431 0.251203 0.604708
O O3 0.177682 0.396632 0.351816
O O4 0.170841 0.084540 0.387059
O O5 0.750000 0.750000 0.765776
O O6 0.794031 0.453654 0.860757
O O7 0.941287 0.706930 0.733692
O O8 0.889799 0.442237 0.853807
O O9 0.988368 0.438318 0.835946
O O10 0.945752 0.658085 0.989474
O O11 0.084047 0.970427 0.325070
O O12 0.662038 0.337358 0.796113
O O13 0.652502 0.215597 0.042067
#
# Coordination Sequence:
#
# PCOD9431296 Si02
#       6
#     8   8   8   8   8   8
#     4   9  18  34  55  77 102 135 177 222 269 322
#     4   9  18  34  55  77 102 135 177 222 269 322
#     4  10  21  36  55  82 114 147 185 226 270 324
#     4  10  21  36  55  82 114 147 185 226 270 324
#     4  10  21  36  55  81 111 144 183 226 274 328
#     4  10  21  36  55  81 111 144 183 226 274 328
#
# _framework density 22.938635999999999
#
# number of rings (size 3 to 8) (size 9 to 14) (size 15 to 20)
#    0.000    2.333    0.000    2.000    0.000    3.333 
#    0.000    3.333    0.000   18.000    0.000    0.000 
#    0.000    0.000    0.000    0.000    0.000    0.000 
#
# Total GULP energy -267545.018497 kJ/mol
# GULP energy per Si atom -5573.854552 kJ/mol
# Density = 2.288643 g / cm^3
# Si number density = 22.938636 Si / 1000 Ang^3
#
#
#
# Elastic Constant Matrix: (Units=GPa)
#
#
# Indices 1 2 3 4 5 6 
#
# 1 75.3072 11.6303 -11.3419 0.0000 0.0000 0.0000
# 2 11.6303 59.4819 18.6877 0.0000 0.0000 0.0000
# 3 -11.3419 18.6877 86.6231 0.0000 0.0000 0.0000
# 4 0.0000 0.0000 0.0000 46.2983 0.0000 0.0000
# 5 0.0000 0.0000 0.0000 0.0000 22.3639 0.0000
# 6 0.0000 0.0000 0.0000 0.0000 0.0000 22.1455
#
#
#
# Elastic Compliance Matrix: (Units=1/GPa)
#
#
# Indices 1 2 3 4 5 6 
#
# 1 0.014235 -0.003614 0.002644 0.000000 0.000000 0.000000
# 2 -0.003614 0.018952 -0.004562 0.000000 0.000000 0.000000
# 3 0.002644 -0.004562 0.012875 0.000000 0.000000 0.000000
# 4 0.000000 0.000000 0.000000 0.021599 0.000000 0.000000
# 5 0.000000 0.000000 0.000000 0.000000 0.044715 0.000000
# 6 0.000000 0.000000 0.000000 0.000000 0.000000 0.045156
#
#
# Mechanical properties :
#
#
# Convention : Reuss Voigt Hill
#
# Bulk Modulus (GPa) = 28.57375 28.81826 28.69601
# Shear Modulus (GPa) = 27.73754 31.65728 29.69741
#
# Velocity S-wave (km/s) = 3.48114 3.71898 3.60202
# Velocity P-wave (km/s) = 5.35177 5.57060 5.46228
#
# Compressibility (1/GPa) = 0.03499716
#
# Stress axis : x y z
#
# Youngs Moduli (GPa) = 70.24836 52.76590 77.67284
#
# Poissons Ratio (x) = 0.19069 -0.20533
# Poissons Ratio (y) = 0.25387 0.35432
# Poissons Ratio (z) = -0.18570 0.24070
#
# Static dielectric constant tensor:
#      x y z
#    x 1.963990 0.000000 0.000000 
#    y 0.000000 1.905350 0.000000 
#    z 0.000000 0.000000 1.993600 
# 
# From -- ./inp_files/9027.got.cif
#   From: 2010.05.17/outbox.cif.g08.bks.cpg/sg56_5_cif.got.tgz:9027.got - 2010.06.03 13:42:01.
