data_PCOD9431715
_publ_section_title
;
Structure prediction by ZEFSAII (Michael W. Deem and Ramdas Pophale) SiO2 
 PCOD9431715
Probable space group: P C C N
;
_chemical_formula_sum "Si O2"
_cell_formula_units_Z 56
_cell_length_a 8.237055
_cell_length_b 20.772259
_cell_length_c 14.326684
_cell_angle_alpha 90.000000
_cell_angle_beta 90.000000
_cell_angle_gamma 90.000000
_cell_volume 2451.327722
_symmetry_space_group_name_H-M "P C C N"
_symmetry_group_IT_number 56
_symmetry_cell_setting 'orthorhombic'
loop_
_space_group_symop_operation_xyz
x,y,z
1/2-x,1/2-y,z
1/2+x,-y,1/2-z
-x,1/2+y,1/2-z
-x,-y,-z
1/2+x,1/2+y,-z
1/2-x,y,1/2+z
x,1/2-y,1/2+z
loop_
_atom_site_type_symbol
_atom_site_label
_atom_site_fract_x
_atom_site_fract_y
_atom_site_fract_z
Si Si1 0.071838 0.997822 0.222314
Si Si2 0.293159 0.638245 0.286255
Si Si3 0.737066 0.572353 0.151499
Si Si4 0.380755 0.205646 0.266510
Si Si5 0.279027 0.039756 0.053818
Si Si6 0.882770 0.096968 0.525723
Si Si7 0.598667 0.295319 0.372113
O O1 0.156994 0.928518 0.236457
O O2 0.892026 0.978444 0.193153
O O3 0.093368 0.041342 0.314575
O O4 0.157721 0.037548 0.139765
O O5 0.453279 0.683853 0.283606
O O6 0.263022 0.622626 0.394120
O O7 0.154017 0.671107 0.225159
O O8 0.703006 0.640959 0.196428
O O9 0.717433 0.573302 0.040791
O O10 0.250000 0.250000 0.213598
O O11 0.446020 0.250250 0.351118
O O12 0.450317 0.073823 0.075527
O O13 0.310991 0.966079 0.023199
O O14 0.923394 0.151115 0.450418
O O15 0.750000 0.250000 0.399599
#
# Coordination Sequence:
#
# PCOD9431715 Si02
#       7
#     8   8   8   8   8   8   8
#     4  11  22  40  63  98 128 166 210 269 329 372
#     4  10  21  41  64  91 122 162 221 262 308 385
#     4  11  24  40  66  97 134 165 217 265 323 390
#     4  10  22  41  61  87 127 171 205 259 324 379
#     4  11  22  38  65  96 133 162 207 274 329 378
#     4  11  22  39  66  97 123 167 216 266 325 376
#     4  10  22  41  67  88 125 173 215 266 309 386
#
# _framework density 22.844763
#
# number of rings (size 3 to 8) (size 9 to 14) (size 15 to 20)
#    0.000    1.429    2.857    3.000    2.000    2.857 
#    0.000    3.571    0.000    0.000    0.000    0.000 
#    0.000    0.000    0.000    0.000    0.000    0.000 
#
# Total GULP energy -313366.413573 kJ/mol
# GULP energy per Si atom -5595.828814 kJ/mol
# Density = 2.279277 g / cm^3
# Si number density = 22.844763 Si / 1000 Ang^3
#
#
#
# Elastic Constant Matrix: (Units=GPa)
#
#
# Indices 1 2 3 4 5 6 
#
# 1 60.5493 34.9542 13.3170 0.0000 0.0000 0.0000
# 2 34.9542 100.7960 31.9201 0.0000 0.0000 0.0000
# 3 13.3170 31.9201 97.7145 0.0000 0.0000 0.0000
# 4 0.0000 0.0000 0.0000 24.6521 0.0000 0.0000
# 5 0.0000 0.0000 0.0000 0.0000 24.7525 0.0000
# 6 0.0000 0.0000 0.0000 0.0000 0.0000 40.2696
#
#
#
# Elastic Compliance Matrix: (Units=1/GPa)
#
#
# Indices 1 2 3 4 5 6 
#
# 1 0.020674 -0.007001 -0.000530 0.000000 0.000000 0.000000
# 2 -0.007001 0.013437 -0.003435 0.000000 0.000000 0.000000
# 3 -0.000530 -0.003435 0.011428 0.000000 0.000000 0.000000
# 4 0.000000 0.000000 0.000000 0.040565 0.000000 0.000000
# 5 0.000000 0.000000 0.000000 0.000000 0.040400 0.000000
# 6 0.000000 0.000000 0.000000 0.000000 0.000000 0.024833
#
#
# Mechanical properties :
#
#
# Convention : Reuss Voigt Hill
#
# Bulk Modulus (GPa) = 42.36366 46.60472 44.48419
# Shear Modulus (GPa) = 27.60320 29.85942 28.73131
#
# Velocity S-wave (km/s) = 3.47982 3.61925 3.55022
# Velocity P-wave (km/s) = 5.89321 6.15712 6.02661
#
# Compressibility (1/GPa) = 0.02360514
#
# Stress axis : x y z
#
# Youngs Moduli (GPa) = 48.37018 74.42235 87.50173
#
# Poissons Ratio (x) = 0.52106 0.04641
# Poissons Ratio (y) = 0.33866 0.30059
# Poissons Ratio (z) = 0.02566 0.25566
#
# Static dielectric constant tensor:
#      x y z
#    x 1.888770 0.000000 0.000000 
#    y 0.000000 1.834600 0.000000 
#    z 0.000000 0.000000 1.826880 
# 
# From -- ./inp_files/10897.got.cif
#   From: 2010.05.17/outbox.cif.g08.bks.cpg/sg56_6_cif.got.tgz:10897.got - 2010.06.03 13:42:01.
