data_PCOD9431797
_publ_section_title
;
Structure prediction by ZEFSAII (Michael W. Deem and Ramdas Pophale) SiO2 
 PCOD9431797
Probable space group: P C C N
;
_chemical_formula_sum "Si O2"
_cell_formula_units_Z 56
_cell_length_a 9.024475
_cell_length_b 19.835207
_cell_length_c 13.737554
_cell_angle_alpha 90.000000
_cell_angle_beta 90.000000
_cell_angle_gamma 90.000000
_cell_volume 2459.054170
_symmetry_space_group_name_H-M "P C C N"
_symmetry_group_IT_number 56
_symmetry_cell_setting 'orthorhombic'
loop_
_space_group_symop_operation_xyz
x,y,z
1/2-x,1/2-y,z
1/2+x,-y,1/2-z
-x,1/2+y,1/2-z
-x,-y,-z
1/2+x,1/2+y,-z
1/2-x,y,1/2+z
x,1/2-y,1/2+z
loop_
_atom_site_type_symbol
_atom_site_label
_atom_site_fract_x
_atom_site_fract_y
_atom_site_fract_z
Si Si1 0.920464 0.234838 0.178096
Si Si2 0.237802 0.890069 0.108985
Si Si3 0.508307 0.869131 0.771523
Si Si4 0.525026 0.218069 0.906694
Si Si5 0.994548 0.859864 0.979156
Si Si6 0.996959 0.008557 0.384348
Si Si7 0.240306 0.383134 0.889683
O O1 0.750000 0.250000 0.152579
O O2 0.007658 0.304440 0.157533
O O3 0.941234 0.228909 0.293169
O O4 0.980335 0.166675 0.129097
O O5 0.139029 0.869990 0.202655
O O6 0.338671 0.830038 0.064875
O O7 0.122737 0.907091 0.022932
O O8 0.351023 0.947941 0.138898
O O9 0.646558 0.866774 0.697645
O O10 0.506991 0.937684 0.831199
O O11 0.513095 0.288026 0.963270
O O12 0.372830 0.177215 0.910956
O O13 0.839983 0.891069 0.013216
O O14 0.141806 0.052875 0.360858
O O15 0.000000 0.000000 0.500000
#
# Coordination Sequence:
#
# PCOD9431797 Si02
#       7
#     8   8   8   8   8   8   8
#     4  12  23  37  70 103 129 168 223 269 329 416
#     4  10  21  42  68  86 133 175 214 270 323 395
#     4  11  23  43  64  94 127 177 219 262 335 396
#     4  11  20  41  62  97 132 167 207 268 339 394
#     4  11  23  39  65  99 132 167 213 271 333 388
#     4  11  26  42  66  93 126 176 231 273 319 383
#     4  10  24  44  64  91 136 173 211 275 333 389
#
# _framework density 22.772984000000001
#
# number of rings (size 3 to 8) (size 9 to 14) (size 15 to 20)
#    0.000    1.143    4.286    2.571    6.000    1.143 
#    2.571    2.857    0.000    0.000    0.000    0.000 
#    0.000    0.000    0.000    0.000    0.000    0.000 
#
# Total GULP energy -313263.079933 kJ/mol
# GULP energy per Si atom -5593.983570 kJ/mol
# Density = 2.272115 g / cm^3
# Si number density = 22.772984 Si / 1000 Ang^3
#
#
#
# Elastic Constant Matrix: (Units=GPa)
#
#
# Indices 1 2 3 4 5 6 
#
# 1 134.6154 21.1424 5.2840 0.0000 0.0000 0.0000
# 2 21.1424 30.3682 -17.2498 0.0000 0.0000 0.0000
# 3 5.2840 -17.2498 46.3836 0.0000 0.0000 0.0000
# 4 0.0000 0.0000 0.0000 33.8725 0.0000 0.0000
# 5 0.0000 0.0000 0.0000 0.0000 21.2317 0.0000
# 6 0.0000 0.0000 0.0000 0.0000 0.0000 13.4613
#
#
#
# Elastic Compliance Matrix: (Units=1/GPa)
#
#
# Indices 1 2 3 4 5 6 
#
# 1 0.008951 -0.008635 -0.004231 0.000000 0.000000 0.000000
# 2 -0.008635 0.050078 0.019607 0.000000 0.000000 0.000000
# 3 -0.004231 0.019607 0.029333 0.000000 0.000000 0.000000
# 4 0.000000 0.000000 0.000000 0.029523 0.000000 0.000000
# 5 0.000000 0.000000 0.000000 0.000000 0.047099 0.000000
# 6 0.000000 0.000000 0.000000 0.000000 0.000000 0.074287
#
#
# Mechanical properties :
#
#
# Convention : Reuss Voigt Hill
#
# Bulk Modulus (GPa) = 9.81879 25.52450 17.67165
# Shear Modulus (GPa) = 19.25029 27.19245 23.22137
#
# Velocity S-wave (km/s) = 2.91058 3.45928 3.19672
# Velocity P-wave (km/s) = 3.95174 5.21421 4.62624
#
# Compressibility (1/GPa) = 0.10184550
#
# Stress axis : x y z
#
# Youngs Moduli (GPa) = 111.72182 19.96883 34.09105
#
# Poissons Ratio (x) = 0.17243 0.14424
# Poissons Ratio (y) = 0.96469 -0.66844
# Poissons Ratio (z) = 0.47268 -0.39154
#
# Static dielectric constant tensor:
#      x y z
#    x 1.860080 0.000000 0.000000 
#    y 0.000000 1.888480 0.000000 
#    z 0.000000 0.000000 1.884460 
# 
# From -- ./inp_files/10864.got.cif
#   From: 2010.05.17/outbox.cif.g08.bks.cpg/sg56_6_cif.got.tgz:10864.got - 2010.06.03 13:42:01.
