data_PCOD9431996
_publ_section_title
;
Structure prediction by ZEFSAII (Michael W. Deem and Ramdas Pophale) SiO2 
 PCOD9431996
Probable space group: P C C N
;
_chemical_formula_sum "Si O2"
_cell_formula_units_Z 60
_cell_length_a 17.560290
_cell_length_b 5.032757
_cell_length_c 33.416627
_cell_angle_alpha 90.000000
_cell_angle_beta 90.000000
_cell_angle_gamma 90.000000
_cell_volume 2953.250298
_symmetry_space_group_name_H-M "P C C N"
_symmetry_group_IT_number 56
_symmetry_cell_setting 'orthorhombic'
loop_
_space_group_symop_operation_xyz
x,y,z
1/2-x,1/2-y,z
1/2+x,-y,1/2-z
-x,1/2+y,1/2-z
-x,-y,-z
1/2+x,1/2+y,-z
1/2-x,y,1/2+z
x,1/2-y,1/2+z
loop_
_atom_site_type_symbol
_atom_site_label
_atom_site_fract_x
_atom_site_fract_y
_atom_site_fract_z
Si Si1 0.800218 0.987026 0.614711
Si Si2 0.851106 0.856024 0.526355
Si Si3 0.423214 0.833870 0.504485
Si Si4 0.337138 0.868432 0.584828
Si Si5 0.447300 0.653280 0.336127
Si Si6 0.944218 0.348620 0.339133
Si Si7 0.049528 0.950908 0.248726
Si Si8 0.750000 0.750000 0.960990
O O1 0.750000 0.750000 0.633991
O O2 0.822284 0.888277 0.570665
O O3 0.750000 0.250000 0.612057
O O4 0.878319 0.066232 0.636195
O O5 0.866763 0.549648 0.516012
O O6 0.789877 0.946900 0.492743
O O7 0.920520 0.058172 0.519409
O O8 0.396007 0.777069 0.549997
O O9 0.500000 0.000000 0.500000
O O10 0.250000 0.750000 0.585748
O O11 0.380243 0.861198 0.626773
O O12 0.317097 0.160650 0.568230
O O13 0.514658 0.435979 0.339037
O O14 0.415389 0.642963 0.290516
O O15 0.488553 0.932555 0.345336
O O16 0.912481 0.405376 0.294290
O O17 0.974943 0.757739 0.247148
#
# Coordination Sequence:
#
# PCOD9431996 Si02
#       8
#     8   8   8   8   8   8   8   4
#     4  12  25  39  63  89 122 158 205 252 309 363
#     4  11  23  40  61  80 116 161 203 237 297 359
#     4  11  25  40  61  87 118 156 207 258 301 349
#     4  11  24  39  61  86 128 159 207 250 316 357
#     4  10  22  40  64  92 124 152 202 256 301 360
#     4  10  22  38  66  91 119 161 202 247 300 373
#     4   8  16  36  61  88 117 156 195 237 300 366
#     4  10  22  42  58  80 118 172 196 246 294 378
#
# _framework density 20.316599
#
# number of rings (size 3 to 8) (size 9 to 14) (size 15 to 20)
#    0.000    1.600    2.000    2.000    7.467    0.000 
#    0.000    0.667    1.467    0.000    0.000    0.000 
#    0.000    0.000    0.000    0.000    0.000    0.000 
#
# Total GULP energy -334296.325073 kJ/mol
# GULP energy per Si atom -5571.605418 kJ/mol
# Density = 2.027036 g / cm^3
# Si number density = 20.316599 Si / 1000 Ang^3
#
#
#
# Elastic Constant Matrix: (Units=GPa)
#
#
# Indices 1 2 3 4 5 6 
#
# 1 72.5241 -6.5260 46.6887 0.0000 0.0000 0.0000
# 2 -6.5260 65.8148 -0.0328 0.0000 0.0000 0.0000
# 3 46.6887 -0.0328 147.2436 0.0000 0.0000 0.0000
# 4 0.0000 0.0000 0.0000 14.6113 0.0000 0.0000
# 5 0.0000 0.0000 0.0000 0.0000 19.6558 0.0000
# 6 0.0000 0.0000 0.0000 0.0000 0.0000 34.2422
#
#
#
# Elastic Compliance Matrix: (Units=1/GPa)
#
#
# Indices 1 2 3 4 5 6 
#
# 1 0.017521 0.001735 -0.005555 0.000000 0.000000 0.000000
# 2 0.001735 0.015366 -0.000547 0.000000 0.000000 0.000000
# 3 -0.005555 -0.000547 0.008553 0.000000 0.000000 0.000000
# 4 0.000000 0.000000 0.000000 0.068440 0.000000 0.000000
# 5 0.000000 0.000000 0.000000 0.000000 0.050876 0.000000
# 6 0.000000 0.000000 0.000000 0.000000 0.000000 0.029204
#
#
# Mechanical properties :
#
#
# Convention : Reuss Voigt Hill
#
# Bulk Modulus (GPa) = 30.57631 40.64916 35.61273
# Shear Modulus (GPa) = 23.85550 30.06537 26.96043
#
# Velocity S-wave (km/s) = 3.43036 3.85105 3.64677
# Velocity P-wave (km/s) = 5.54729 6.31073 5.94129
#
# Compressibility (1/GPa) = 0.03270506
#
# Stress axis : x y z
#
# Youngs Moduli (GPa) = 57.07479 65.07934 116.92055
#
# Poissons Ratio (x) = -0.11288 0.64952
# Poissons Ratio (y) = -0.09900 0.06391
# Poissons Ratio (z) = 0.31706 0.03557
#
# Static dielectric constant tensor:
#      x y z
#    x 1.794960 0.000000 0.000000 
#    y 0.000000 1.790420 0.000000 
#    z 0.000000 0.000000 1.736370 
# 
# From -- ./inp_files/23678.got.cif
#   From: 2010.05.17/outbox.cif.g08.bks.cpg/sg56_12_cif.got.tgz:23678.got - 2010.06.03 13:42:01.
