data_PCOD9431065
_publ_section_title
;
Structure prediction by ZEFSAII (Michael W. Deem and Ramdas Pophale) SiO2 
 PCOD9431065
Probable space group: P C C N
;
_chemical_formula_sum "Si O2"
_cell_formula_units_Z 64
_cell_length_a 8.549343
_cell_length_b 14.849863
_cell_length_c 23.294213
_cell_angle_alpha 90.000000
_cell_angle_beta 90.000000
_cell_angle_gamma 90.000000
_cell_volume 2957.353437
_symmetry_space_group_name_H-M "P C C N"
_symmetry_group_IT_number 56
_symmetry_cell_setting 'orthorhombic'
loop_
_space_group_symop_operation_xyz
x,y,z
1/2-x,1/2-y,z
1/2+x,-y,1/2-z
-x,1/2+y,1/2-z
-x,-y,-z
1/2+x,1/2+y,-z
1/2-x,y,1/2+z
x,1/2-y,1/2+z
loop_
_atom_site_type_symbol
_atom_site_label
_atom_site_fract_x
_atom_site_fract_y
_atom_site_fract_z
Si Si1 0.803065 0.561000 0.048489
Si Si2 0.338708 0.063757 0.274926
Si Si3 0.566622 0.281211 0.756627
Si Si4 0.428333 0.158366 0.844317
Si Si5 0.933880 0.223941 0.129362
Si Si6 0.030724 0.983760 0.888406
Si Si7 0.292622 0.982278 0.157216
Si Si8 0.953711 0.602540 0.929733
O O1 0.851886 0.639192 0.093789
O O2 0.627255 0.531057 0.061346
O O3 0.904997 0.469674 0.060993
O O4 0.844574 0.592104 0.985044
O O5 0.493815 0.117984 0.254303
O O6 0.200079 0.126585 0.298132
O O7 0.271045 0.006513 0.222968
O O8 0.377021 0.001246 0.328937
O O9 0.750000 0.250000 0.760390
O O10 0.489895 0.250041 0.817058
O O11 0.511470 0.236564 0.695991
O O12 0.582284 0.096496 0.845623
O O13 0.750000 0.250000 0.131662
O O14 0.973176 0.124006 0.107710
O O15 0.999728 0.296573 0.084683
O O16 0.865707 0.031480 0.877588
O O17 0.367900 0.068115 0.126749
#
# Coordination Sequence:
#
# PCOD9431065 Si02
#       8
#     8   8   8   8   8   8   8   8
#     4   9  21  41  65  87 120 173 216 266 330 396
#     4  11  21  37  59  91 132 174 212 263 339 404
#     4  11  22  35  60  93 132 167 218 275 331 388
#     4  10  22  38  60  89 122 171 213 258 330 403
#     4  11  21  37  63  97 130 165 218 278 334 395
#     4  11  23  37  63  95 128 167 218 274 334 400
#     4  11  21  36  60  92 130 162 216 267 335 395
#     4  10  20  40  65  88 124 166 220 269 325 403
#
# _framework density 21.640969999999999
#
# number of rings (size 3 to 8) (size 9 to 14) (size 15 to 20)
#    0.000    1.500    2.500    3.375    0.000    2.000 
#    0.000    0.625   13.750    0.000    0.000    0.000 
#    0.000    0.000    0.000    0.000    0.000    0.000 
#
# Total GULP energy -357144.687667 kJ/mol
# GULP energy per Si atom -5580.385745 kJ/mol
# Density = 2.159171 g / cm^3
# Si number density = 21.640970 Si / 1000 Ang^3
#
#
#
# Elastic Constant Matrix: (Units=GPa)
#
#
# Indices 1 2 3 4 5 6 
#
# 1 102.3750 35.4892 10.1439 0.0000 0.0000 0.0000
# 2 35.4892 59.7110 36.9030 0.0000 0.0000 0.0000
# 3 10.1439 36.9030 46.4879 0.0000 0.0000 0.0000
# 4 0.0000 0.0000 0.0000 11.5869 0.0000 0.0000
# 5 0.0000 0.0000 0.0000 0.0000 24.2265 0.0000
# 6 0.0000 0.0000 0.0000 0.0000 0.0000 34.0975
#
#
#
# Elastic Compliance Matrix: (Units=1/GPa)
#
#
# Indices 1 2 3 4 5 6 
#
# 1 0.013260 -0.011961 0.006602 0.000000 0.000000 0.000000
# 2 -0.011961 0.043666 -0.032053 0.000000 0.000000 0.000000
# 3 0.006602 -0.032053 0.045515 0.000000 0.000000 0.000000
# 4 0.000000 0.000000 0.000000 0.086304 0.000000 0.000000
# 5 0.000000 0.000000 0.000000 0.000000 0.041277 0.000000
# 6 0.000000 0.000000 0.000000 0.000000 0.000000 0.029328
#
#
# Mechanical properties :
#
#
# Convention : Reuss Voigt Hill
#
# Bulk Modulus (GPa) = 36.21102 41.51625 38.86364
# Shear Modulus (GPa) = 14.56107 22.38470 18.47288
#
# Velocity S-wave (km/s) = 2.59674 3.21965 2.92482
# Velocity P-wave (km/s) = 5.07540 5.74867 5.42250
#
# Compressibility (1/GPa) = 0.02761590
#
# Stress axis : x y z
#
# Youngs Moduli (GPa) = 75.41267 22.90097 21.97085
#
# Poissons Ratio (x) = 0.27393 -0.14504
# Poissons Ratio (y) = 0.90203 0.70423
# Poissons Ratio (z) = -0.49785 0.73405
#
# Static dielectric constant tensor:
#      x y z
#    x 1.875100 0.000000 0.000000 
#    y 0.000000 1.772530 0.000000 
#    z 0.000000 0.000000 1.741400 
# 
# From -- ./inp_files/20671.got.cif
#   From: 2010.05.17/outbox.cif.g08.bks.cpg/sg56_11_cif.got.tgz:20671.got - 2010.06.03 13:42:01.
