data_PCOD9431233
_publ_section_title
;
Structure prediction by ZEFSAII (Michael W. Deem and Ramdas Pophale) SiO2 
 PCOD9431233
Probable space group: P C C N
;
_chemical_formula_sum "Si O2"
_cell_formula_units_Z 28
_cell_length_a 4.965724
_cell_length_b 14.669517
_cell_length_c 13.669261
_cell_angle_alpha 90.000000
_cell_angle_beta 90.000000
_cell_angle_gamma 90.000000
_cell_volume 995.734210
_symmetry_space_group_name_H-M "P C C N"
_symmetry_group_IT_number 56
_symmetry_cell_setting 'orthorhombic'
loop_
_space_group_symop_operation_xyz
x,y,z
1/2-x,1/2-y,z
1/2+x,-y,1/2-z
-x,1/2+y,1/2-z
-x,-y,-z
1/2+x,1/2+y,-z
1/2-x,y,1/2+z
x,1/2-y,1/2+z
loop_
_atom_site_type_symbol
_atom_site_label
_atom_site_fract_x
_atom_site_fract_y
_atom_site_fract_z
Si Si1 0.997617 0.003587 0.817424
Si Si2 0.821266 0.848164 0.407132
Si Si3 0.750000 0.750000 0.224675
Si Si4 0.347122 0.847554 0.078518
O O1 0.889642 0.089929 0.878795
O O2 0.799845 0.998883 0.722102
O O3 0.923008 0.914419 0.880605
O O4 0.750000 0.750000 0.452759
O O5 0.921584 0.812976 0.300542
O O6 0.008000 0.894164 0.486915
O O7 0.554814 0.814083 0.162548
O O8 0.250000 0.750000 0.040194
#
# Coordination Sequence:
#
# PCOD9431233 Si02
#       4
#     8   8   4   8
#     4  12  26  47  76 109 150 197 246 305 372 444
#     4  10  23  44  72 105 143 188 246 300 368 434
#     4  10  20  48  66  96 152 186 232 306 364 436
#     4  12  25  43  75 105 145 194 249 303 374 438
#
# _framework density 28.119951
#
# number of rings (size 3 to 8) (size 9 to 14) (size 15 to 20)
#    0.857    0.000    4.286    2.571    0.000    5.714 
#    0.000    4.286    0.000    0.000    0.000    0.000 
#    0.000    0.000    0.000    0.000    0.000    0.000 
#
# Total GULP energy -156861.896435 kJ/mol
# GULP energy per Si atom -5602.210587 kJ/mol
# Density = 2.805595 g / cm^3
# Si number density = 28.119951 Si / 1000 Ang^3
#
#
#
# Elastic Constant Matrix: (Units=GPa)
#
#
# Indices 1 2 3 4 5 6 
#
# 1 75.1210 11.6727 40.1164 0.0000 0.0000 0.0000
# 2 11.6727 154.2671 -5.9941 0.0000 0.0000 0.0000
# 3 40.1164 -5.9941 129.0505 0.0000 0.0000 0.0000
# 4 0.0000 0.0000 0.0000 -34.4194 0.0000 0.0000
# 5 0.0000 0.0000 0.0000 0.0000 171.1685 0.0000
# 6 0.0000 0.0000 0.0000 0.0000 0.0000 40.2821
#
#
#
# Elastic Compliance Matrix: (Units=1/GPa)
#
#
# Indices 1 2 3 4 5 6 
#
# 1 0.016271 -0.001430 -0.005124 0.000000 0.000000 0.000000
# 2 -0.001430 0.006620 0.000752 0.000000 0.000000 0.000000
# 3 -0.005124 0.000752 0.009377 0.000000 0.000000 0.000000
# 4 0.000000 0.000000 0.000000 -0.029053 0.000000 0.000000
# 5 0.000000 0.000000 0.000000 0.000000 0.005842 0.000000
# 6 0.000000 0.000000 0.000000 0.000000 0.000000 0.024825
#
#
# Mechanical properties :
#
#
# Convention : Reuss Voigt Hill
#
# Bulk Modulus (GPa) = 48.39760 50.00317 49.20038
# Shear Modulus (GPa) = 95.46898 56.24913 75.85906
#
# Velocity S-wave (km/s) = 5.83304 4.47736 5.19957
# Velocity P-wave (km/s) = 7.91292 6.67455 7.31997
#
# Compressibility (1/GPa) = 0.02066218
#
# Stress axis : x y z
#
# Youngs Moduli (GPa) = 61.46064 151.06416 106.64675
#
# Poissons Ratio (x) = 0.21606 0.54649
# Poissons Ratio (y) = 0.08790 -0.08021
# Poissons Ratio (z) = 0.31494 -0.11361
#
# Static dielectric constant tensor:
#      x y z
#    x 2.226860 0.000000 0.000000 
#    y 0.000000 2.249200 0.000000 
#    z 0.000000 0.000000 2.176480 
# 
# From -- ./inp_files/5356.got.cif
#   From: 2010.05.17/outbox.cif.g08.bks.cpg/sg56_3_cif.got.tgz:5356.got - 2010.06.03 13:42:01.
