data_PCOD9431537
_publ_section_title
;
Structure prediction by ZEFSAII (Michael W. Deem and Ramdas Pophale) SiO2 
 PCOD9431537
Probable space group: P C C N
;
_chemical_formula_sum "Si O2"
_cell_formula_units_Z 48
_cell_length_a 17.097757
_cell_length_b 9.023553
_cell_length_c 14.227858
_cell_angle_alpha 90.000000
_cell_angle_beta 90.000000
_cell_angle_gamma 90.000000
_cell_volume 2195.109736
_symmetry_space_group_name_H-M "P C C N"
_symmetry_group_IT_number 56
_symmetry_cell_setting 'orthorhombic'
loop_
_space_group_symop_operation_xyz
x,y,z
1/2-x,1/2-y,z
1/2+x,-y,1/2-z
-x,1/2+y,1/2-z
-x,-y,-z
1/2+x,1/2+y,-z
1/2-x,y,1/2+z
x,1/2-y,1/2+z
loop_
_atom_site_type_symbol
_atom_site_label
_atom_site_fract_x
_atom_site_fract_y
_atom_site_fract_z
Si Si1 0.250000 0.250000 0.890334
Si Si2 0.250000 0.750000 0.871859
Si Si3 0.440061 0.683970 0.692150
Si Si4 0.715478 0.001321 0.748615
Si Si5 0.986310 0.634653 0.858766
Si Si6 0.822809 0.914650 0.438594
Si Si7 0.615253 0.265337 0.496669
O O1 0.206306 0.134859 0.822371
O O2 0.303394 0.165269 0.965296
O O3 0.225822 0.615410 0.803107
O O4 0.180936 0.810540 0.939058
O O5 0.363720 0.599553 0.736292
O O6 0.487200 0.780299 0.765963
O O7 0.490877 0.544060 0.653986
O O8 0.412125 0.787633 0.605465
O O9 0.737578 0.939534 0.852020
O O10 0.041435 0.696300 0.940076
O O11 0.896971 0.660726 0.888716
O O12 0.845141 0.079151 0.469695
#
# Coordination Sequence:
#
# PCOD9431537 Si02
#       7
#     4   4   8   8   8   8   8
#     4  12  22  44  62  92 128 166 200 258 324 378
#     4  12  20  42  64  94 124 162 210 270 312 368
#     4  10  22  41  61  94 122 165 217 257 310 384
#     4  10  23  40  63  89 129 157 213 260 309 376
#     4  10  21  42  62  87 123 166 209 260 313 368
#     4  10  23  40  62  92 124 166 209 250 316 387
#     4  10  21  39  64  87 124 164 205 259 318 371
#
# _framework density 21.866786000000001
#
# number of rings (size 3 to 8) (size 9 to 14) (size 15 to 20)
#    0.000    2.000    3.333    2.500    0.000    8.000 
#    6.000    1.667    0.000    0.000    0.000    0.000 
#    0.000    0.000    0.000    0.000    0.000    0.000 
#
# Total GULP energy -267624.596600 kJ/mol
# GULP energy per Si atom -5575.512429 kJ/mol
# Density = 2.181702 g / cm^3
# Si number density = 21.866786 Si / 1000 Ang^3
#
#
#
# Elastic Constant Matrix: (Units=GPa)
#
#
# Indices 1 2 3 4 5 6 
#
# 1 36.4425 -0.5567 29.4456 0.0000 0.0000 0.0000
# 2 -0.5567 24.2403 14.6011 0.0000 0.0000 0.0000
# 3 29.4456 14.6011 142.5926 0.0000 0.0000 0.0000
# 4 0.0000 0.0000 0.0000 9.3456 0.0000 0.0000
# 5 0.0000 0.0000 0.0000 0.0000 32.7590 0.0000
# 6 0.0000 0.0000 0.0000 0.0000 0.0000 18.8098
#
#
#
# Elastic Compliance Matrix: (Units=1/GPa)
#
#
# Indices 1 2 3 4 5 6 
#
# 1 0.033556 0.005270 -0.007469 0.000000 0.000000 0.000000
# 2 0.005270 0.044793 -0.005675 0.000000 0.000000 0.000000
# 3 -0.007469 -0.005675 0.009136 0.000000 0.000000 0.000000
# 4 0.000000 0.000000 0.000000 0.107002 0.000000 0.000000
# 5 0.000000 0.000000 0.000000 0.000000 0.030526 0.000000
# 6 0.000000 0.000000 0.000000 0.000000 0.000000 0.053164
#
#
# Mechanical properties :
#
#
# Convention : Reuss Voigt Hill
#
# Bulk Modulus (GPa) = 13.93986 32.25061 23.09523
# Shear Modulus (GPa) = 15.73130 22.83524 19.28327
#
# Velocity S-wave (km/s) = 2.68510 3.23505 2.97282
# Velocity P-wave (km/s) = 4.00022 5.36048 4.72951
#
# Compressibility (1/GPa) = 0.07173676
#
# Stress axis : x y z
#
# Youngs Moduli (GPa) = 29.80098 22.32499 109.45194
#
# Poissons Ratio (x) = -0.11764 0.81749
# Poissons Ratio (y) = -0.15704 0.62112
# Poissons Ratio (z) = 0.22258 0.12669
#
# Static dielectric constant tensor:
#      x y z
#    x 1.882820 0.000000 0.000000 
#    y 0.000000 1.819290 0.000000 
#    z 0.000000 0.000000 1.861460 
# 
# From -- ./inp_files/12726.got.cif
#   From: 2010.05.17/outbox.cif.g08.bks.cpg/sg56_7_cif.got.tgz:12726.got - 2010.06.03 13:42:01.
