data_PCOD9431235
_publ_section_title
;
Structure prediction by ZEFSAII (Michael W. Deem and Ramdas Pophale) SiO2 
 PCOD9431235
Probable space group: P C C N
;
_chemical_formula_sum "Si O2"
_cell_formula_units_Z 24
_cell_length_a 7.451698
_cell_length_b 6.052718
_cell_length_c 21.935261
_cell_angle_alpha 90.000000
_cell_angle_beta 90.000000
_cell_angle_gamma 90.000000
_cell_volume 989.346661
_symmetry_space_group_name_H-M "P C C N"
_symmetry_group_IT_number 56
_symmetry_cell_setting 'orthorhombic'
loop_
_space_group_symop_operation_xyz
x,y,z
1/2-x,1/2-y,z
1/2+x,-y,1/2-z
-x,1/2+y,1/2-z
-x,-y,-z
1/2+x,1/2+y,-z
1/2-x,y,1/2+z
x,1/2-y,1/2+z
loop_
_atom_site_type_symbol
_atom_site_label
_atom_site_fract_x
_atom_site_fract_y
_atom_site_fract_z
Si Si1 0.070232 0.880268 0.060215
Si Si2 0.750000 0.750000 0.860709
Si Si3 0.250000 0.750000 0.764929
Si Si4 0.036380 0.400740 0.826585
O O1 0.250000 0.750000 0.042209
O O2 0.962081 0.715153 0.106348
O O3 0.132156 0.082159 0.101169
O O4 0.000000 0.000000 0.000000
O O5 0.893916 0.600989 0.828076
O O6 0.425807 0.749339 0.721228
O O7 0.218231 0.525404 0.805036
#
# Coordination Sequence:
#
# PCOD9431235 Si02
#       4
#     8   4   4   8
#     4  10  23  47  74 104 146 197 256 308 369 441
#     4  10  20  48  68 104 150 190 248 306 376 430
#     4  12  24  46  74 106 154 190 252 308 384 458
#     4  11  24  45  72 108 149 200 240 315 379 450
#
# _framework density 24.258434999999999
#
# number of rings (size 3 to 8) (size 9 to 14) (size 15 to 20)
#    0.000    1.333    5.000    2.000    0.000    5.333 
#    9.000    0.000    0.000    0.000    0.000    0.000 
#    0.000    0.000    0.000    0.000    0.000    0.000 
#
# Total GULP energy -133929.717658 kJ/mol
# GULP energy per Si atom -5580.404902 kJ/mol
# Density = 2.420322 g / cm^3
# Si number density = 24.258435 Si / 1000 Ang^3
#
#
#
# Elastic Constant Matrix: (Units=GPa)
#
#
# Indices 1 2 3 4 5 6 
#
# 1 102.8337 38.1860 80.3797 0.0000 0.0000 0.0000
# 2 38.1860 103.7489 69.5467 0.0000 0.0000 0.0000
# 3 80.3797 69.5467 161.2151 0.0000 0.0000 0.0000
# 4 0.0000 0.0000 0.0000 61.7762 0.0000 0.0000
# 5 0.0000 0.0000 0.0000 0.0000 52.7344 0.0000
# 6 0.0000 0.0000 0.0000 0.0000 0.0000 47.1482
#
#
#
# Elastic Compliance Matrix: (Units=1/GPa)
#
#
# Indices 1 2 3 4 5 6 
#
# 1 0.015977 -0.000761 -0.007638 0.000000 0.000000 0.000000
# 2 -0.000761 0.013596 -0.005486 0.000000 0.000000 0.000000
# 3 -0.007638 -0.005486 0.012378 0.000000 0.000000 0.000000
# 4 0.000000 0.000000 0.000000 0.016187 0.000000 0.000000
# 5 0.000000 0.000000 0.000000 0.000000 0.018963 0.000000
# 6 0.000000 0.000000 0.000000 0.000000 0.000000 0.021210
#
#
# Mechanical properties :
#
#
# Convention : Reuss Voigt Hill
#
# Bulk Modulus (GPa) = 70.51269 82.66915 76.59092
# Shear Modulus (GPa) = 38.22434 44.31077 41.26756
#
# Velocity S-wave (km/s) = 3.97383 4.27853 4.12899
# Velocity P-wave (km/s) = 7.08417 7.65246 7.37380
#
# Compressibility (1/GPa) = 0.01418185
#
# Stress axis : x y z
#
# Youngs Moduli (GPa) = 62.59034 73.55067 80.79127
#
# Poissons Ratio (x) = 0.05594 0.61706
# Poissons Ratio (y) = 0.04761 0.44322
# Poissons Ratio (z) = 0.47805 0.40350
#
# Static dielectric constant tensor:
#      x y z
#    x 2.858680 0.000000 0.000000 
#    y 0.000000 2.314350 0.000000 
#    z 0.000000 0.000000 1.960340 
# 
# From -- ./inp_files/19749.got.cif
#   From: 2010.05.17/outbox.cif.g08.bks.cpg/sg56_10_cif.got.tgz:19749.got - 2010.06.03 13:42:01.
