data_PCOD9431673
_publ_section_title
;
Structure prediction by ZEFSAII (Michael W. Deem and Ramdas Pophale) SiO2 
 PCOD9431673
Probable space group: P C C N
;
_chemical_formula_sum "Si O2"
_cell_formula_units_Z 64
_cell_length_a 15.119252
_cell_length_b 14.998467
_cell_length_c 11.785099
_cell_angle_alpha 90.000000
_cell_angle_beta 90.000000
_cell_angle_gamma 90.000000
_cell_volume 2672.455072
_symmetry_space_group_name_H-M "P C C N"
_symmetry_group_IT_number 56
_symmetry_cell_setting 'orthorhombic'
loop_
_space_group_symop_operation_xyz
x,y,z
1/2-x,1/2-y,z
1/2+x,-y,1/2-z
-x,1/2+y,1/2-z
-x,-y,-z
1/2+x,1/2+y,-z
1/2-x,y,1/2+z
x,1/2-y,1/2+z
loop_
_atom_site_type_symbol
_atom_site_label
_atom_site_fract_x
_atom_site_fract_y
_atom_site_fract_z
Si Si1 0.696558 0.873608 0.452546
Si Si2 0.059590 0.588134 0.501918
Si Si3 0.884933 0.008926 0.779099
Si Si4 0.777167 0.025910 0.109918
Si Si5 0.495298 0.622897 0.659546
Si Si6 0.617463 0.823435 0.957508
Si Si7 0.040345 0.751082 0.367555
Si Si8 0.319601 0.671622 0.518338
O O1 0.640096 0.926319 0.360887
O O2 0.798943 0.878803 0.416309
O O3 0.659589 0.775084 0.463816
O O4 0.698114 0.926569 0.571194
O O5 0.095651 0.587290 0.630751
O O6 0.128205 0.575369 0.395722
O O7 0.021004 0.684054 0.473987
O O8 0.000000 0.500000 0.500000
O O9 0.970001 0.972270 0.709363
O O10 0.796611 0.027821 0.706436
O O11 0.732770 0.081814 0.007898
O O12 0.577656 0.647081 0.577500
O O13 0.480933 0.694891 0.757792
O O14 0.403401 0.637120 0.591300
O O15 0.534070 0.826303 0.874835
O O16 0.135658 0.790171 0.401313
O O17 0.250000 0.750000 0.556904
#
# Coordination Sequence:
#
# PCOD9431673 Si02
#       8
#     8   8   8   8   8   8   8   8
#     4  10  21  41  68  96 142 171 222 278 341 412
#     4  11  22  43  70  95 138 178 227 288 335 410
#     4  11  23  43  69 105 135 185 229 279 355 419
#     4  11  24  44  67  99 137 178 230 284 341 411
#     4  11  23  43  72  99 137 178 229 279 353 407
#     4  10  21  40  68  98 135 175 217 285 332 410
#     4  11  22  43  66  98 133 178 229 279 338 406
#     4  11  26  47  69  97 138 180 237 293 335 408
#
# _framework density 23.948015999999999
#
# number of rings (size 3 to 8) (size 9 to 14) (size 15 to 20)
#    0.000    1.250    5.000    0.750    0.000    6.000 
#    0.000    0.000    0.000    0.000    0.000    0.000 
#    0.000    0.000    0.000    0.000    0.000    0.000 
#
# Total GULP energy -356847.876670 kJ/mol
# GULP energy per Si atom -5575.748073 kJ/mol
# Density = 2.389351 g / cm^3
# Si number density = 23.948016 Si / 1000 Ang^3
#
#
#
# Elastic Constant Matrix: (Units=GPa)
#
#
# Indices 1 2 3 4 5 6 
#
# 1 131.4257 7.9308 16.8857 0.0000 0.0000 0.0000
# 2 7.9308 52.4678 0.8459 0.0000 0.0000 0.0000
# 3 16.8857 0.8459 56.4702 0.0000 0.0000 0.0000
# 4 0.0000 0.0000 0.0000 17.3451 0.0000 0.0000
# 5 0.0000 0.0000 0.0000 0.0000 29.2064 0.0000
# 6 0.0000 0.0000 0.0000 0.0000 0.0000 33.6488
#
#
#
# Elastic Compliance Matrix: (Units=1/GPa)
#
#
# Indices 1 2 3 4 5 6 
#
# 1 0.007984 -0.001169 -0.002370 0.000000 0.000000 0.000000
# 2 -0.001169 0.019235 0.000061 0.000000 0.000000 0.000000
# 3 -0.002370 0.000061 0.018416 0.000000 0.000000 0.000000
# 4 0.000000 0.000000 0.000000 0.057653 0.000000 0.000000
# 5 0.000000 0.000000 0.000000 0.000000 0.034239 0.000000
# 6 0.000000 0.000000 0.000000 0.000000 0.000000 0.029719
#
#
# Mechanical properties :
#
#
# Convention : Reuss Voigt Hill
#
# Bulk Modulus (GPa) = 25.85266 32.40983 29.13125
# Shear Modulus (GPa) = 26.72458 30.35349 28.53903
#
# Velocity S-wave (km/s) = 3.34419 3.56402 3.45586
# Velocity P-wave (km/s) = 5.07250 5.52260 5.30233
#
# Compressibility (1/GPa) = 0.03868074
#
# Stress axis : x y z
#
# Youngs Moduli (GPa) = 125.25270 51.98868 54.30017
#
# Poissons Ratio (x) = 0.06075 0.12868
# Poissons Ratio (y) = 0.14637 -0.00333
# Poissons Ratio (z) = 0.29683 -0.00319
#
# Static dielectric constant tensor:
#      x y z
#    x 2.022650 0.000000 0.000000 
#    y 0.000000 1.919320 0.000000 
#    z 0.000000 0.000000 1.946900 
# 
# From -- ./inp_files/8043.got.cif
#   From: 2010.05.17/outbox.cif.g08.bks.cpg/sg56_5_cif.got.tgz:8043.got - 2010.06.03 13:42:01.
