data_PCOD9431192
_publ_section_title
;
Structure prediction by ZEFSAII (Michael W. Deem and Ramdas Pophale) SiO2 
 PCOD9431192
Probable space group: P C C N
;
_chemical_formula_sum "Si O2"
_cell_formula_units_Z 60
_cell_length_a 14.694026
_cell_length_b 16.766330
_cell_length_c 11.944934
_cell_angle_alpha 90.000000
_cell_angle_beta 90.000000
_cell_angle_gamma 90.000000
_cell_volume 2942.812338
_symmetry_space_group_name_H-M "P C C N"
_symmetry_group_IT_number 56
_symmetry_cell_setting 'orthorhombic'
loop_
_space_group_symop_operation_xyz
x,y,z
1/2-x,1/2-y,z
1/2+x,-y,1/2-z
-x,1/2+y,1/2-z
-x,-y,-z
1/2+x,1/2+y,-z
1/2-x,y,1/2+z
x,1/2-y,1/2+z
loop_
_atom_site_type_symbol
_atom_site_label
_atom_site_fract_x
_atom_site_fract_y
_atom_site_fract_z
Si Si1 0.461081 0.380859 0.959982
Si Si2 0.825279 0.057458 0.562318
Si Si3 0.871426 0.617254 0.132350
Si Si4 0.061099 0.542314 0.167007
Si Si5 0.626983 0.046646 0.592729
Si Si6 0.967621 0.128555 0.710887
Si Si7 0.906399 0.777143 0.422858
Si Si8 0.750000 0.750000 0.255857
O O1 0.393179 0.454505 0.939255
O O2 0.511047 0.362743 0.841951
O O3 0.539625 0.407948 0.044514
O O4 0.408547 0.306521 0.012993
O O5 0.889151 0.059126 0.451291
O O6 0.720588 0.077092 0.540151
O O7 0.868694 0.109913 0.661646
O O8 0.824904 0.967301 0.610035
O O9 0.804295 0.680744 0.190371
O O10 0.969807 0.595666 0.185983
O O11 0.897284 0.656087 0.015479
O O12 0.126591 0.553609 0.272975
O O13 0.024732 0.450799 0.172665
O O14 0.003607 0.206346 0.647826
O O15 0.825209 0.787476 0.336112
#
# Coordination Sequence:
#
# PCOD9431192 Si02
#       8
#     8   8   8   8   8   8   8   4
#     4  10  24  43  62  94 135 174 208 281 342 395
#     4  11  22  39  69  93 126 171 228 274 313 400
#     4  11  23  41  61  94 130 169 213 264 334 393
#     4  10  20  43  65  89 131 175 217 271 330 385
#     4  10  24  40  65  95 128 170 226 270 332 393
#     4  10  21  41  65  92 125 175 220 266 331 391
#     4  12  23  41  62  92 134 170 213 263 340 404
#     4  12  28  34  62 100 134 170 214 270 330 406
#
# _framework density 20.388660000000002
#
# number of rings (size 3 to 8) (size 9 to 14) (size 15 to 20)
#    0.000    1.333    2.667    2.800    9.333    1.067 
#    0.000    0.667    0.000    1.600    0.000    0.000 
#    0.000    0.000    0.000    0.000    0.000    0.000 
#
# Total GULP energy -335011.845524 kJ/mol
# GULP energy per Si atom -5583.530759 kJ/mol
# Density = 2.034225 g / cm^3
# Si number density = 20.388660 Si / 1000 Ang^3
#
#
#
# Elastic Constant Matrix: (Units=GPa)
#
#
# Indices 1 2 3 4 5 6 
#
# 1 96.0702 13.6542 24.1307 0.0000 0.0000 0.0000
# 2 13.6542 45.5646 18.7174 0.0000 0.0000 0.0000
# 3 24.1307 18.7174 98.7298 0.0000 0.0000 0.0000
# 4 0.0000 0.0000 0.0000 31.1625 0.0000 0.0000
# 5 0.0000 0.0000 0.0000 0.0000 26.3589 0.0000
# 6 0.0000 0.0000 0.0000 0.0000 0.0000 18.0018
#
#
#
# Elastic Compliance Matrix: (Units=1/GPa)
#
#
# Indices 1 2 3 4 5 6 
#
# 1 0.011337 -0.002450 -0.002306 0.000000 0.000000 0.000000
# 2 -0.002450 0.024330 -0.004014 0.000000 0.000000 0.000000
# 3 -0.002306 -0.004014 0.011453 0.000000 0.000000 0.000000
# 4 0.000000 0.000000 0.000000 0.032090 0.000000 0.000000
# 5 0.000000 0.000000 0.000000 0.000000 0.037938 0.000000
# 6 0.000000 0.000000 0.000000 0.000000 0.000000 0.055550
#
#
# Mechanical properties :
#
#
# Convention : Reuss Voigt Hill
#
# Bulk Modulus (GPa) = 33.80674 39.26323 36.53499
# Shear Modulus (GPa) = 24.98787 27.36212 26.17500
#
# Velocity S-wave (km/s) = 3.50462 3.66734 3.58691
# Velocity P-wave (km/s) = 5.74401 6.10178 5.92560
#
# Compressibility (1/GPa) = 0.02957990
#
# Stress axis : x y z
#
# Youngs Moduli (GPa) = 88.21032 41.10186 87.31116
#
# Poissons Ratio (x) = 0.10069 0.20137
# Poissons Ratio (y) = 0.21610 0.35044
# Poissons Ratio (z) = 0.20344 0.16497
#
# Static dielectric constant tensor:
#      x y z
#    x 1.757870 0.000000 0.000000 
#    y 0.000000 1.639120 0.000000 
#    z 0.000000 0.000000 1.729240 
# 
# From -- ./inp_files/8037.got.cif
#   From: 2010.05.17/outbox.cif.g08.bks.cpg/sg56_5_cif.got.tgz:8037.got - 2010.06.03 13:42:01.
