data_PCOD9431732
_publ_section_title
;
Structure prediction by ZEFSAII (Michael W. Deem and Ramdas Pophale) SiO2 
 PCOD9431732
Probable space group: P C C N
;
_chemical_formula_sum "Si O2"
_cell_formula_units_Z 52
_cell_length_a 19.785159
_cell_length_b 8.892623
_cell_length_c 14.211054
_cell_angle_alpha 90.000000
_cell_angle_beta 90.000000
_cell_angle_gamma 90.000000
_cell_volume 2500.320694
_symmetry_space_group_name_H-M "P C C N"
_symmetry_group_IT_number 56
_symmetry_cell_setting 'orthorhombic'
loop_
_space_group_symop_operation_xyz
x,y,z
1/2-x,1/2-y,z
1/2+x,-y,1/2-z
-x,1/2+y,1/2-z
-x,-y,-z
1/2+x,1/2+y,-z
1/2-x,y,1/2+z
x,1/2-y,1/2+z
loop_
_atom_site_type_symbol
_atom_site_label
_atom_site_fract_x
_atom_site_fract_y
_atom_site_fract_z
Si Si1 0.750000 0.750000 0.951897
Si Si2 0.502537 0.797671 0.559192
Si Si3 0.707197 0.535063 0.287134
Si Si4 0.356294 0.506945 0.262054
Si Si5 0.348869 0.266103 0.881624
Si Si6 0.038083 0.109996 0.130531
Si Si7 0.422432 0.824984 0.220648
O O1 0.780400 0.623203 0.883982
O O2 0.690904 0.698898 0.022855
O O3 0.574341 0.818531 0.610019
O O4 0.520614 0.769739 0.450412
O O5 0.459094 0.681572 0.619326
O O6 0.461667 0.952861 0.573619
O O7 0.779375 0.459445 0.265236
O O8 0.689318 0.651182 0.203285
O O9 0.644747 0.422264 0.287947
O O10 0.352843 0.411924 0.358281
O O11 0.392279 0.390823 0.188317
O O12 0.400462 0.657891 0.256139
O O13 0.978034 0.114468 0.206330
#
# Coordination Sequence:
#
# PCOD9431732 Si02
#       7
#     4   8   8   8   8   8   8
#     4  12  24  40  70  96 126 176 226 276 324 398
#     4  10  22  39  65  98 126 175 220 264 333 393
#     4  12  24  45  66  95 135 176 217 272 334 395
#     4  11  22  43  66  95 134 176 215 271 332 396
#     4  12  22  41  67  96 130 173 224 269 331 396
#     4  10  21  41  66  93 136 173 216 270 330 391
#     4  11  24  41  70  98 135 173 218 278 329 392
#
# _framework density 20.797332999999998
#
# number of rings (size 3 to 8) (size 9 to 14) (size 15 to 20)
#    0.000    0.923    6.154    1.385    0.000    1.231 
#    0.000    1.538    3.385    0.000    0.000    0.000 
#    0.000    0.000    0.000    0.000    0.000    0.000 
#
# Total GULP energy -290276.293331 kJ/mol
# GULP energy per Si atom -5582.236410 kJ/mol
# Density = 2.075000 g / cm^3
# Si number density = 20.797333 Si / 1000 Ang^3
#
#
#
# Elastic Constant Matrix: (Units=GPa)
#
#
# Indices 1 2 3 4 5 6 
#
# 1 120.2473 5.8872 28.0045 0.0000 0.0000 0.0000
# 2 5.8872 44.8695 22.5931 0.0000 0.0000 0.0000
# 3 28.0045 22.5931 104.9532 0.0000 0.0000 0.0000
# 4 0.0000 0.0000 0.0000 15.0519 0.0000 0.0000
# 5 0.0000 0.0000 0.0000 0.0000 30.9246 0.0000
# 6 0.0000 0.0000 0.0000 0.0000 0.0000 31.3512
#
#
#
# Elastic Compliance Matrix: (Units=1/GPa)
#
#
# Indices 1 2 3 4 5 6 
#
# 1 0.008867 0.000031 -0.002373 0.000000 0.000000 0.000000
# 2 0.000031 0.024996 -0.005389 0.000000 0.000000 0.000000
# 3 -0.002373 -0.005389 0.011321 0.000000 0.000000 0.000000
# 4 0.000000 0.000000 0.000000 0.066437 0.000000 0.000000
# 5 0.000000 0.000000 0.000000 0.000000 0.032337 0.000000
# 6 0.000000 0.000000 0.000000 0.000000 0.000000 0.031897
#
#
# Mechanical properties :
#
#
# Convention : Reuss Voigt Hill
#
# Bulk Modulus (GPa) = 33.64340 42.55994 38.10167
# Shear Modulus (GPa) = 24.84787 29.70456 27.27622
#
# Velocity S-wave (km/s) = 3.46028 3.78337 3.62543
# Velocity P-wave (km/s) = 5.67245 6.29235 5.99042
#
# Compressibility (1/GPa) = 0.02972352
#
# Stress axis : x y z
#
# Youngs Moduli (GPa) = 112.77440 40.00572 88.32888
#
# Poissons Ratio (x) = -0.00125 0.20959
# Poissons Ratio (y) = -0.00353 0.47603
# Poissons Ratio (z) = 0.26759 0.21560
#
# Static dielectric constant tensor:
#      x y z
#    x 1.738240 0.000000 0.000000 
#    y 0.000000 1.784160 0.000000 
#    z 0.000000 0.000000 1.777420 
# 
# From -- ./inp_files/13028.got.cif
#   From: 2010.05.17/outbox.cif.g08.bks.cpg/sg56_7_cif.got.tgz:13028.got - 2010.06.03 13:42:01.
