data_PCOD9431729
_publ_section_title
;
Structure prediction by ZEFSAII (Michael W. Deem and Ramdas Pophale) SiO2 
 PCOD9431729
Probable space group: P C C N
;
_chemical_formula_sum "Si O2"
_cell_formula_units_Z 56
_cell_length_a 30.050357
_cell_length_b 6.443441
_cell_length_c 13.683857
_cell_angle_alpha 90.000000
_cell_angle_beta 90.000000
_cell_angle_gamma 90.000000
_cell_volume 2649.573790
_symmetry_space_group_name_H-M "P C C N"
_symmetry_group_IT_number 56
_symmetry_cell_setting 'orthorhombic'
loop_
_space_group_symop_operation_xyz
x,y,z
1/2-x,1/2-y,z
1/2+x,-y,1/2-z
-x,1/2+y,1/2-z
-x,-y,-z
1/2+x,1/2+y,-z
1/2-x,y,1/2+z
x,1/2-y,1/2+z
loop_
_atom_site_type_symbol
_atom_site_label
_atom_site_fract_x
_atom_site_fract_y
_atom_site_fract_z
Si Si1 0.069100 0.994705 0.064763
Si Si2 0.156832 0.712881 0.554826
Si Si3 0.829147 0.383255 0.144381
Si Si4 0.641102 0.499110 0.265422
Si Si5 0.206078 0.376235 0.685133
Si Si6 0.513610 0.807858 0.065003
Si Si7 0.585738 0.646039 0.716588
O O1 0.113470 0.905337 0.014802
O O2 0.030419 0.826972 0.081375
O O3 0.082931 0.074763 0.171506
O O4 0.048322 0.171944 0.997638
O O5 0.178789 0.850168 0.470035
O O6 0.189470 0.546324 0.606474
O O7 0.136202 0.858687 0.639001
O O8 0.792713 0.501325 0.210864
O O9 0.875195 0.512047 0.163660
O O10 0.835381 0.154077 0.189453
O O11 0.670245 0.695513 0.298028
O O12 0.598216 0.609742 0.220079
O O13 0.250000 0.250000 0.659072
O O14 0.539307 0.879683 0.161610
O O15 0.500000 0.000000 0.000000
#
# Coordination Sequence:
#
# PCOD9431729 Si02
#       7
#     8   8   8   8   8   8   8
#     4  11  24  42  59  97 126 172 233 278 344 404
#     4  11  22  42  70  97 129 176 229 269 339 411
#     4  10  22  40  67  97 125 175 221 274 330 408
#     4  10  21  41  66  93 129 176 210 275 334 401
#     4  10  23  44  66 101 138 172 216 277 335 406
#     4  11  27  40  61  90 134 176 224 295 332 410
#     4  11  23  40  64  93 127 177 226 281 346 392
#
# _framework density 21.135475
#
# number of rings (size 3 to 8) (size 9 to 14) (size 15 to 20)
#    0.000    1.429    4.286    1.714    6.000    5.714 
#    0.000    4.286    0.000    0.000    0.000    0.000 
#    0.000    0.000    0.000    0.000    0.000    0.000 
#
# Total GULP energy -312815.428190 kJ/mol
# GULP energy per Si atom -5585.989789 kJ/mol
# Density = 2.108737 g / cm^3
# Si number density = 21.135475 Si / 1000 Ang^3
#
#
#
# Elastic Constant Matrix: (Units=GPa)
#
#
# Indices 1 2 3 4 5 6 
#
# 1 66.3894 28.7486 22.1699 0.0000 0.0000 0.0000
# 2 28.7486 101.7648 23.4647 0.0000 0.0000 0.0000
# 3 22.1699 23.4647 73.0237 0.0000 0.0000 0.0000
# 4 0.0000 0.0000 0.0000 -16.4787 0.0000 0.0000
# 5 0.0000 0.0000 0.0000 0.0000 16.8081 0.0000
# 6 0.0000 0.0000 0.0000 0.0000 0.0000 8.2416
#
#
#
# Elastic Compliance Matrix: (Units=1/GPa)
#
#
# Indices 1 2 3 4 5 6 
#
# 1 0.018283 -0.004196 -0.004202 0.000000 0.000000 0.000000
# 2 -0.004196 0.011576 -0.002446 0.000000 0.000000 0.000000
# 3 -0.004202 -0.002446 0.015756 0.000000 0.000000 0.000000
# 4 0.000000 0.000000 0.000000 -0.060684 0.000000 0.000000
# 5 0.000000 0.000000 0.000000 0.000000 0.059495 0.000000
# 6 0.000000 0.000000 0.000000 0.000000 0.000000 0.121336
#
#
# Mechanical properties :
#
#
# Convention : Reuss Voigt Hill
#
# Bulk Modulus (GPa) = 41.79470 43.32715 42.56093
# Shear Modulus (GPa) = 25.58517 12.83382 19.20949
#
# Velocity S-wave (km/s) = 3.48304 2.46685 3.01803
# Velocity P-wave (km/s) = 5.99942 5.35332 5.68556
#
# Compressibility (1/GPa) = 0.02392648
#
# Stress axis : x y z
#
# Youngs Moduli (GPa) = 54.69569 86.38641 63.46811
#
# Poissons Ratio (x) = 0.36247 0.26672
# Poissons Ratio (y) = 0.22950 0.15523
# Poissons Ratio (z) = 0.22985 0.21128
#
# Static dielectric constant tensor:
#      x y z
#    x 1.819370 0.000000 0.000000 
#    y 0.000000 1.775030 0.000000 
#    z 0.000000 0.000000 1.765820 
# 
# From -- ./inp_files/13467.got.cif
#   From: 2010.05.17/outbox.cif.g08.bks.cpg/sg56_7_cif.got.tgz:13467.got - 2010.06.03 13:42:01.
