data_PCOD9431080
_publ_section_title
;
Structure prediction by ZEFSAII (Michael W. Deem and Ramdas Pophale) SiO2 
 PCOD9431080
Probable space group: P C C N
;
_chemical_formula_sum "Si O2"
_cell_formula_units_Z 36
_cell_length_a 13.320650
_cell_length_b 6.658181
_cell_length_c 14.468972
_cell_angle_alpha 90.000000
_cell_angle_beta 90.000000
_cell_angle_gamma 90.000000
_cell_volume 1283.271918
_symmetry_space_group_name_H-M "P C C N"
_symmetry_group_IT_number 56
_symmetry_cell_setting 'orthorhombic'
loop_
_space_group_symop_operation_xyz
x,y,z
1/2-x,1/2-y,z
1/2+x,-y,1/2-z
-x,1/2+y,1/2-z
-x,-y,-z
1/2+x,1/2+y,-z
1/2-x,y,1/2+z
x,1/2-y,1/2+z
loop_
_atom_site_type_symbol
_atom_site_label
_atom_site_fract_x
_atom_site_fract_y
_atom_site_fract_z
Si Si1 0.642314 0.022604 0.391047
Si Si2 0.659366 0.058313 0.966682
Si Si3 0.250000 0.250000 0.759570
Si Si4 0.548667 0.653993 0.170306
Si Si5 0.022671 0.887565 0.376943
O O1 0.726641 0.983179 0.469411
O O2 0.650581 0.266883 0.388558
O O3 0.520692 0.001496 0.388795
O O4 0.687915 0.904876 0.304106
O O5 0.584386 0.885605 0.930626
O O6 0.614727 0.168358 0.056658
O O7 0.333707 0.380341 0.812766
O O8 0.493822 0.666919 0.270524
O O9 0.546934 0.872985 0.127206
#
# Coordination Sequence:
#
# PCOD9431080 Si02
#       5
#     8   8   4   8   8
#     4  10  21  40  68  98 143 193 245 297 379 441
#     4   9  20  40  65  93 140 198 234 301 382 447
#     4  12  22  40  70 108 146 184 252 328 354 442
#     4  11  22  40  69 106 137 192 248 315 365 446
#     4  10  20  40  67  96 141 186 249 306 372 436
#
# _framework density 28.053290000000001
#
# number of rings (size 3 to 8) (size 9 to 14) (size 15 to 20)
#    0.000    1.778    4.444    0.000    0.000    0.000 
#    0.000   17.778    0.000    0.000    0.000    0.000 
#    0.000    0.000    0.000    0.000    0.000    0.000 
#
# Total GULP energy -200949.373421 kJ/mol
# GULP energy per Si atom -5581.927039 kJ/mol
# Density = 2.798944 g / cm^3
# Si number density = 28.053290 Si / 1000 Ang^3
#
#
#
# Elastic Constant Matrix: (Units=GPa)
#
#
# Indices 1 2 3 4 5 6 
#
# 1 248.2710 29.6205 81.8515 0.0000 0.0000 0.0000
# 2 29.6205 61.1884 23.1418 0.0000 0.0000 0.0000
# 3 81.8515 23.1418 134.1520 0.0000 0.0000 0.0000
# 4 0.0000 0.0000 0.0000 44.8598 0.0000 0.0000
# 5 0.0000 0.0000 0.0000 0.0000 49.7163 0.0000
# 6 0.0000 0.0000 0.0000 0.0000 0.0000 45.1647
#
#
#
# Elastic Compliance Matrix: (Units=1/GPa)
#
#
# Indices 1 2 3 4 5 6 
#
# 1 0.005151 -0.001396 -0.002902 0.000000 0.000000 0.000000
# 2 -0.001396 0.017862 -0.002229 0.000000 0.000000 0.000000
# 3 -0.002902 -0.002229 0.009610 0.000000 0.000000 0.000000
# 4 0.000000 0.000000 0.000000 0.022292 0.000000 0.000000
# 5 0.000000 0.000000 0.000000 0.000000 0.020114 0.000000
# 6 0.000000 0.000000 0.000000 0.000000 0.000000 0.022141
#
#
# Mechanical properties :
#
#
# Convention : Reuss Voigt Hill
#
# Bulk Modulus (GPa) = 51.10541 79.20436 65.15489
# Shear Modulus (GPa) = 42.82747 48.54800 45.68773
#
# Velocity S-wave (km/s) = 3.91147 4.16452 4.03998
# Velocity P-wave (km/s) = 6.21742 7.17071 6.71101
#
# Compressibility (1/GPa) = 0.01956740
#
# Stress axis : x y z
#
# Youngs Moduli (GPa) = 194.12925 55.98483 104.06328
#
# Poissons Ratio (x) = 0.07816 0.30201
# Poissons Ratio (y) = 0.27101 0.23201
# Poissons Ratio (z) = 0.56339 0.12482
#
# Static dielectric constant tensor:
#      x y z
#    x 2.413360 0.000000 0.000000 
#    y 0.000000 2.373020 0.000000 
#    z 0.000000 0.000000 2.204570 
# 
# From -- ./inp_files/12028.got.cif
#   From: 2010.05.17/outbox.cif.g08.bks.cpg/sg56_7_cif.got.tgz:12028.got - 2010.06.03 13:42:01.
