data_PCOD9431054
_publ_section_title
;
Structure prediction by ZEFSAII (Michael W. Deem and Ramdas Pophale) SiO2 
 PCOD9431054
Probable space group: P C C N
;
_chemical_formula_sum "Si O2"
_cell_formula_units_Z 60
_cell_length_a 5.331415
_cell_length_b 18.667120
_cell_length_c 26.203700
_cell_angle_alpha 90.000000
_cell_angle_beta 90.000000
_cell_angle_gamma 90.000000
_cell_volume 2607.848918
_symmetry_space_group_name_H-M "P C C N"
_symmetry_group_IT_number 56
_symmetry_cell_setting 'orthorhombic'
loop_
_space_group_symop_operation_xyz
x,y,z
1/2-x,1/2-y,z
1/2+x,-y,1/2-z
-x,1/2+y,1/2-z
-x,-y,-z
1/2+x,1/2+y,-z
1/2-x,y,1/2+z
x,1/2-y,1/2+z
loop_
_atom_site_type_symbol
_atom_site_label
_atom_site_fract_x
_atom_site_fract_y
_atom_site_fract_z
Si Si1 0.094846 0.549620 0.370920
Si Si2 0.129946 0.445087 0.930626
Si Si3 0.250000 0.750000 0.802413
Si Si4 0.007585 0.705003 0.107604
Si Si5 0.707125 0.537980 0.767313
Si Si6 0.427270 0.182809 0.774261
Si Si7 0.772930 0.579004 0.958398
Si Si8 0.083455 0.813055 0.394842
O O1 0.224382 0.472915 0.380477
O O2 0.895281 0.546791 0.325230
O O3 0.278302 0.617819 0.369304
O O4 0.968202 0.564108 0.425287
O O5 0.987947 0.372140 0.918685
O O6 0.958735 0.513048 0.945245
O O7 0.281993 0.424531 0.981754
O O8 0.341886 0.688192 0.764870
O O9 0.472278 0.770379 0.842154
O O10 0.250000 0.750000 0.092593
O O11 0.750000 0.750000 0.098223
O O12 0.017901 0.688223 0.167995
O O13 0.976087 0.500830 0.762060
O O14 0.727792 0.613407 0.739560
O O15 0.250000 0.250000 0.765442
O O16 0.892537 0.651931 0.934785
O O17 0.250000 0.750000 0.421375
#
# Coordination Sequence:
#
# PCOD9431054 Si02
#       8
#     8   8   4   8   8   8   8   8
#     4  11  23  41  68  97 136 180 232 280 356 418
#     4  10  24  46  66  97 131 182 229 298 341 420
#     4  10  20  40  64  86 144 174 228 276 346 422
#     4  11  26  46  70 100 134 183 234 285 347 411
#     4  12  29  43  70 109 143 184 234 296 346 411
#     4  11  25  42  68  96 138 190 230 278 348 429
#     4  10  23  42  71  94 133 180 233 280 364 410
#     4   9  21  38  61 100 133 172 222 285 343 416
#
# _framework density 23.007467999999999
#
# number of rings (size 3 to 8) (size 9 to 14) (size 15 to 20)
#    0.400    1.067    2.000    1.200   11.200    1.067 
#    2.400    0.000    0.000    0.000    0.000    0.000 
#    0.000    0.000    0.000    0.000    0.000    0.000 
#
# Total GULP energy -334868.677416 kJ/mol
# GULP energy per Si atom -5581.144624 kJ/mol
# Density = 2.295510 g / cm^3
# Si number density = 23.007468 Si / 1000 Ang^3
#
#
#
# Elastic Constant Matrix: (Units=GPa)
#
#
# Indices 1 2 3 4 5 6 
#
# 1 49.3075 17.2738 4.6910 0.0000 0.0000 0.0000
# 2 17.2738 113.0640 22.0186 0.0000 0.0000 0.0000
# 3 4.6910 22.0186 42.2325 0.0000 0.0000 0.0000
# 4 0.0000 0.0000 0.0000 181.4508 0.0000 0.0000
# 5 0.0000 0.0000 0.0000 0.0000 200.2450 0.0000
# 6 0.0000 0.0000 0.0000 0.0000 0.0000 33.3621
#
#
#
# Elastic Compliance Matrix: (Units=1/GPa)
#
#
# Indices 1 2 3 4 5 6 
#
# 1 0.021449 -0.003131 -0.000750 0.000000 0.000000 0.000000
# 2 -0.003131 0.010301 -0.005023 0.000000 0.000000 0.000000
# 3 -0.000750 -0.005023 0.026381 0.000000 0.000000 0.000000
# 4 0.000000 0.000000 0.000000 0.005511 0.000000 0.000000
# 5 0.000000 0.000000 0.000000 0.000000 0.004994 0.000000
# 6 0.000000 0.000000 0.000000 0.000000 0.000000 0.029974
#
#
# Mechanical properties :
#
#
# Convention : Reuss Voigt Hill
#
# Bulk Modulus (GPa) = 24.79980 32.50787 28.65383
# Shear Modulus (GPa) = 38.50345 93.71963 66.11154
#
# Velocity S-wave (km/s) = 4.09531 6.38928 5.36630
# Velocity P-wave (km/s) = 5.75886 8.28193 7.13284
#
# Compressibility (1/GPa) = 0.04032291
#
# Stress axis : x y z
#
# Youngs Moduli (GPa) = 46.62204 97.07749 37.90678
#
# Poissons Ratio (x) = 0.30394 0.02844
# Poissons Ratio (y) = 0.14597 0.19040
# Poissons Ratio (z) = 0.03497 0.48761
#
# Static dielectric constant tensor:
#      x y z
#    x 1.470990 0.000000 0.000000 
#    y 0.000000 1.932510 0.000000 
#    z 0.000000 0.000000 1.861290 
# 
# From -- ./inp_files/21812.got.cif
#   From: 2010.05.17/outbox.cif.g08.bks.cpg/sg56_11_cif.got.tgz:21812.got - 2010.06.03 13:42:01.
