data_PCOD9431011
_publ_section_title
;
Structure prediction by ZEFSAII (Michael W. Deem and Ramdas Pophale) SiO2 
 PCOD9431011
Probable space group: P C C N
;
_chemical_formula_sum "Si O2"
_cell_formula_units_Z 32
_cell_length_a 12.170393
_cell_length_b 7.019602
_cell_length_c 16.804913
_cell_angle_alpha 90.000000
_cell_angle_beta 90.000000
_cell_angle_gamma 90.000000
_cell_volume 1435.665817
_symmetry_space_group_name_H-M "P C C N"
_symmetry_group_IT_number 56
_symmetry_cell_setting 'orthorhombic'
loop_
_space_group_symop_operation_xyz
x,y,z
1/2-x,1/2-y,z
1/2+x,-y,1/2-z
-x,1/2+y,1/2-z
-x,-y,-z
1/2+x,1/2+y,-z
1/2-x,y,1/2+z
x,1/2-y,1/2+z
loop_
_atom_site_type_symbol
_atom_site_label
_atom_site_fract_x
_atom_site_fract_y
_atom_site_fract_z
Si Si1 0.120692 0.209304 0.715072
Si Si2 0.847174 0.020245 0.987135
Si Si3 0.981223 0.532811 0.635613
Si Si4 0.606114 0.566775 0.452208
O O1 0.250000 0.250000 0.708935
O O2 0.047003 0.388065 0.690985
O O3 0.095338 0.060189 0.643680
O O4 0.088792 0.157228 0.804290
O O5 0.922941 0.119967 0.920343
O O6 0.871995 0.792511 0.972093
O O7 0.717525 0.039742 0.978499
O O8 0.896905 0.063186 0.073349
O O9 0.500000 0.500000 0.500000
#
# Coordination Sequence:
#
# PCOD9431011 Si02
#       4
#     8   8   8   8
#     4  11  23  43  62  98 131 164 213 267 319 381
#     4   9  20  43  59  92 129 163 211 263 312 385
#     4  10  22  40  67  89 129 169 205 261 324 373
#     4  10  20  39  68  90 122 170 213 260 322 377
#
# _framework density 22.289311000000001
#
# number of rings (size 3 to 8) (size 9 to 14) (size 15 to 20)
#    0.000    2.000    5.000    0.000    7.000    0.000 
#    0.000   20.000    0.000    0.000    0.000    0.000 
#    0.000    0.000    0.000    0.000    0.000    0.000 
#
# Total GULP energy -178795.704945 kJ/mol
# GULP energy per Si atom -5587.365780 kJ/mol
# Density = 2.223858 g / cm^3
# Si number density = 22.289311 Si / 1000 Ang^3
#
#
#
# Elastic Constant Matrix: (Units=GPa)
#
#
# Indices 1 2 3 4 5 6 
#
# 1 179.9484 19.0845 80.3871 0.0000 0.0000 0.0000
# 2 19.0845 37.4992 19.0001 0.0000 0.0000 0.0000
# 3 80.3871 19.0001 170.0301 0.0000 0.0000 0.0000
# 4 0.0000 0.0000 0.0000 32.8852 0.0000 0.0000
# 5 0.0000 0.0000 0.0000 0.0000 40.8421 0.0000
# 6 0.0000 0.0000 0.0000 0.0000 0.0000 32.6967
#
#
#
# Elastic Compliance Matrix: (Units=1/GPa)
#
#
# Indices 1 2 3 4 5 6 
#
# 1 0.007191 -0.002053 -0.003170 0.000000 0.000000 0.000000
# 2 -0.002053 0.028854 -0.002253 0.000000 0.000000 0.000000
# 3 -0.003170 -0.002253 0.007632 0.000000 0.000000 0.000000
# 4 0.000000 0.000000 0.000000 0.030409 0.000000 0.000000
# 5 0.000000 0.000000 0.000000 0.000000 0.024485 0.000000
# 6 0.000000 0.000000 0.000000 0.000000 0.000000 0.030584
#
#
# Mechanical properties :
#
#
# Convention : Reuss Voigt Hill
#
# Bulk Modulus (GPa) = 34.81567 69.38012 52.09789
# Shear Modulus (GPa) = 32.53434 39.21854 35.87644
#
# Velocity S-wave (km/s) = 3.82467 4.19922 4.01631
# Velocity P-wave (km/s) = 5.92941 7.39634 6.70313
#
# Compressibility (1/GPa) = 0.02872270
#
# Stress axis : x y z
#
# Youngs Moduli (GPa) = 139.05841 34.65708 131.02655
#
# Poissons Ratio (x) = 0.07117 0.41541
# Poissons Ratio (y) = 0.28555 0.29527
# Poissons Ratio (z) = 0.44087 0.07810
#
# Static dielectric constant tensor:
#      x y z
#    x 1.785680 0.000000 0.000000 
#    y 0.000000 1.987880 0.000000 
#    z 0.000000 0.000000 1.803250 
# 
# From -- ./inp_files/10045.got.cif
#   From: 2010.05.17/outbox.cif.g08.bks.cpg/sg56_6_cif.got.tgz:10045.got - 2010.06.03 13:42:01.
