data_PCOD9431344
_publ_section_title
;
Structure prediction by ZEFSAII (Michael W. Deem and Ramdas Pophale) SiO2 
 PCOD9431344
Probable space group: P C C N
;
_chemical_formula_sum "Si O2"
_cell_formula_units_Z 40
_cell_length_a 8.833608
_cell_length_b 12.476099
_cell_length_c 18.492003
_cell_angle_alpha 90.000000
_cell_angle_beta 90.000000
_cell_angle_gamma 90.000000
_cell_volume 2037.984566
_symmetry_space_group_name_H-M "P C C N"
_symmetry_group_IT_number 56
_symmetry_cell_setting 'orthorhombic'
loop_
_space_group_symop_operation_xyz
x,y,z
1/2-x,1/2-y,z
1/2+x,-y,1/2-z
-x,1/2+y,1/2-z
-x,-y,-z
1/2+x,1/2+y,-z
1/2-x,y,1/2+z
x,1/2-y,1/2+z
loop_
_atom_site_type_symbol
_atom_site_label
_atom_site_fract_x
_atom_site_fract_y
_atom_site_fract_z
Si Si1 0.779621 0.874087 0.316424
Si Si2 0.189418 0.860871 0.987251
Si Si3 0.954250 0.519338 0.406115
Si Si4 0.957859 0.467523 0.082538
Si Si5 0.727424 0.873913 0.646020
O O1 0.750000 0.750000 0.333483
O O2 0.629008 0.940935 0.335139
O O3 0.808453 0.882269 0.231155
O O4 0.911425 0.917824 0.368387
O O5 0.250000 0.750000 0.020947
O O6 0.319675 0.884900 0.928959
O O7 0.028901 0.877362 0.946088
O O8 0.168854 0.955832 0.045659
O O9 0.089631 0.435117 0.393276
O O10 0.881759 0.567023 0.123670
O O11 0.000000 0.500000 0.000000
O O12 0.750000 0.750000 0.626342
#
# Coordination Sequence:
#
# PCOD9431344 Si02
#       5
#     8   8   8   8   8
#     4  11  22  40  62  88 120 165 204 249 310 364
#     4  10  21  37  56  86 118 150 191 246 305 349
#     4  10  21  38  57  83 119 152 194 249 294 356
#     4  11  22  38  61  92 121 155 207 254 299 361
#     4  10  24  40  60  87 124 165 205 247 306 367
#
# _framework density 19.627233
#
# number of rings (size 3 to 8) (size 9 to 14) (size 15 to 20)
#    0.000    1.600    2.000    2.400    2.800    0.800 
#    0.000    0.000    0.000    9.600    0.000    0.000 
#    0.000    0.000    0.000    0.000    0.000    0.000 
#
# Total GULP energy -222901.012015 kJ/mol
# GULP energy per Si atom -5572.525300 kJ/mol
# Density = 1.958256 g / cm^3
# Si number density = 19.627233 Si / 1000 Ang^3
#
#
#
# Elastic Constant Matrix: (Units=GPa)
#
#
# Indices 1 2 3 4 5 6 
#
# 1 95.5750 58.8692 42.1354 0.0000 0.0000 0.0000
# 2 58.8692 101.6375 41.3468 0.0000 0.0000 0.0000
# 3 42.1354 41.3468 74.7474 0.0000 0.0000 0.0000
# 4 0.0000 0.0000 0.0000 21.7528 0.0000 0.0000
# 5 0.0000 0.0000 0.0000 0.0000 36.7541 0.0000
# 6 0.0000 0.0000 0.0000 0.0000 0.0000 31.7298
#
#
#
# Elastic Compliance Matrix: (Units=1/GPa)
#
#
# Indices 1 2 3 4 5 6 
#
# 1 0.017932 -0.008096 -0.005630 0.000000 0.000000 0.000000
# 2 -0.008096 0.016351 -0.004481 0.000000 0.000000 0.000000
# 3 -0.005630 -0.004481 0.019031 0.000000 0.000000 0.000000
# 4 0.000000 0.000000 0.000000 0.045971 0.000000 0.000000
# 5 0.000000 0.000000 0.000000 0.000000 0.027208 0.000000
# 6 0.000000 0.000000 0.000000 0.000000 0.000000 0.031516
#
#
# Mechanical properties :
#
#
# Convention : Reuss Voigt Hill
#
# Bulk Modulus (GPa) = 59.17202 61.85139 60.51171
# Shear Modulus (GPa) = 24.99317 26.68791 25.84054
#
# Velocity S-wave (km/s) = 3.57233 3.69146 3.63239
# Velocity P-wave (km/s) = 6.87232 7.05342 6.96346
#
# Compressibility (1/GPa) = 0.01689988
#
# Stress axis : x y z
#
# Youngs Moduli (GPa) = 55.76746 61.15853 52.54701
#
# Poissons Ratio (x) = 0.49513 0.29583
# Poissons Ratio (y) = 0.45149 0.23546
# Poissons Ratio (z) = 0.31396 0.27405
#
# Static dielectric constant tensor:
#      x y z
#    x 1.760330 0.000000 0.000000 
#    y 0.000000 1.697440 0.000000 
#    z 0.000000 0.000000 1.692800 
# 
# From -- ./inp_files/14405.got.cif
#   From: 2010.05.17/outbox.cif.g08.bks.cpg/sg56_8_cif.got.tgz:14405.got - 2010.06.03 13:42:01.
