data_PCOD9431658
_publ_section_title
;
Structure prediction by ZEFSAII (Michael W. Deem and Ramdas Pophale) SiO2 
 PCOD9431658
Probable space group: P C C N
;
_chemical_formula_sum "Si O2"
_cell_formula_units_Z 28
_cell_length_a 4.964397
_cell_length_b 14.380708
_cell_length_c 18.608734
_cell_angle_alpha 90.000000
_cell_angle_beta 90.000000
_cell_angle_gamma 90.000000
_cell_volume 1328.506246
_symmetry_space_group_name_H-M "P C C N"
_symmetry_group_IT_number 56
_symmetry_cell_setting 'orthorhombic'
loop_
_space_group_symop_operation_xyz
x,y,z
1/2-x,1/2-y,z
1/2+x,-y,1/2-z
-x,1/2+y,1/2-z
-x,-y,-z
1/2+x,1/2+y,-z
1/2-x,y,1/2+z
x,1/2-y,1/2+z
loop_
_atom_site_type_symbol
_atom_site_label
_atom_site_fract_x
_atom_site_fract_y
_atom_site_fract_z
Si Si1 0.313785 0.951167 0.287279
Si Si2 0.405821 0.667190 0.094386
Si Si3 0.250000 0.750000 0.731455
Si Si4 0.901763 0.545505 0.073328
O O1 0.335022 0.840363 0.275628
O O2 0.583647 0.002468 0.262377
O O3 0.229095 0.976330 0.368611
O O4 0.250000 0.750000 0.052770
O O5 0.465746 0.710742 0.172972
O O6 0.669628 0.622792 0.061131
O O7 0.169325 0.592390 0.105298
O O8 0.000000 0.500000 0.000000
#
# Coordination Sequence:
#
# PCOD9431658 Si02
#       4
#     8   8   4   8
#     4  12  22  41  66  99 128 172 227 279 330 404
#     4  10  21  40  67  90 124 177 222 264 337 410
#     4  10  22  38  72  94 128 172 230 278 332 406
#     4  12  23  41  64  96 137 174 215 281 347 408
#
# _framework density 21.076304
#
# number of rings (size 3 to 8) (size 9 to 14) (size 15 to 20)
#    0.857    0.000    5.714    1.714    0.000    3.429 
#    2.571    0.000    6.286    0.000    0.000    0.000 
#    0.000    0.000    0.000    0.000    0.000    0.000 
#
# Total GULP energy -156208.942808 kJ/mol
# GULP energy per Si atom -5578.890815 kJ/mol
# Density = 2.102833 g / cm^3
# Si number density = 21.076304 Si / 1000 Ang^3
#
#
#
# Elastic Constant Matrix: (Units=GPa)
#
#
# Indices 1 2 3 4 5 6 
#
# 1 145.4054 56.8021 27.0458 0.0000 0.0000 0.0000
# 2 56.8021 160.7044 62.3676 0.0000 0.0000 0.0000
# 3 27.0458 62.3676 91.5955 0.0000 0.0000 0.0000
# 4 0.0000 0.0000 0.0000 9.1758 0.0000 0.0000
# 5 0.0000 0.0000 0.0000 0.0000 13.4111 0.0000
# 6 0.0000 0.0000 0.0000 0.0000 0.0000 36.8434
#
#
#
# Elastic Compliance Matrix: (Units=1/GPa)
#
#
# Indices 1 2 3 4 5 6 
#
# 1 0.008003 -0.002598 -0.000594 0.000000 0.000000 0.000000
# 2 -0.002598 0.009301 -0.005566 0.000000 0.000000 0.000000
# 3 -0.000594 -0.005566 0.014883 0.000000 0.000000 0.000000
# 4 0.000000 0.000000 0.000000 0.108982 0.000000 0.000000
# 5 0.000000 0.000000 0.000000 0.000000 0.074565 0.000000
# 6 0.000000 0.000000 0.000000 0.000000 0.000000 0.027142
#
#
# Mechanical properties :
#
#
# Convention : Reuss Voigt Hill
#
# Bulk Modulus (GPa) = 68.16363 76.68181 72.42272
# Shear Modulus (GPa) = 18.84790 28.65205 23.74998
#
# Velocity S-wave (km/s) = 2.99368 3.69106 3.36051
# Velocity P-wave (km/s) = 6.66041 7.39102 7.03521
#
# Compressibility (1/GPa) = 0.01467058
#
# Stress axis : x y z
#
# Youngs Moduli (GPa) = 124.95712 107.51528 67.19174
#
# Poissons Ratio (x) = 0.27934 0.03991
# Poissons Ratio (y) = 0.32465 0.37398
# Poissons Ratio (z) = 0.07422 0.59842
#
# Static dielectric constant tensor:
#      x y z
#    x 1.780530 0.000000 0.000000 
#    y 0.000000 1.835150 0.000000 
#    z 0.000000 0.000000 1.787310 
# 
# From -- ./inp_files/13631.got.cif
#   From: 2010.05.17/outbox.cif.g08.bks.cpg/sg56_7_cif.got.tgz:13631.got - 2010.06.03 13:42:01.
