data_PCOD9431739
_publ_section_title
;
Structure prediction by ZEFSAII (Michael W. Deem and Ramdas Pophale) SiO2 
 PCOD9431739
Probable space group: P C C N
;
_chemical_formula_sum "Si O2"
_cell_formula_units_Z 48
_cell_length_a 12.026993
_cell_length_b 11.043146
_cell_length_c 18.295283
_cell_angle_alpha 90.000000
_cell_angle_beta 90.000000
_cell_angle_gamma 90.000000
_cell_volume 2429.903373
_symmetry_space_group_name_H-M "P C C N"
_symmetry_group_IT_number 56
_symmetry_cell_setting 'orthorhombic'
loop_
_space_group_symop_operation_xyz
x,y,z
1/2-x,1/2-y,z
1/2+x,-y,1/2-z
-x,1/2+y,1/2-z
-x,-y,-z
1/2+x,1/2+y,-z
1/2-x,y,1/2+z
x,1/2-y,1/2+z
loop_
_atom_site_type_symbol
_atom_site_label
_atom_site_fract_x
_atom_site_fract_y
_atom_site_fract_z
Si Si1 0.612486 0.379202 0.862461
Si Si2 0.580122 0.447109 0.152727
Si Si3 0.117463 0.531425 0.033549
Si Si4 0.867659 0.118187 0.316514
Si Si5 0.689416 0.629773 0.040160
Si Si6 0.556230 0.203375 0.513148
O O1 0.539417 0.489775 0.835425
O O2 0.572309 0.246010 0.836120
O O3 0.737229 0.378514 0.835234
O O4 0.604998 0.384997 0.950438
O O5 0.621135 0.412392 0.232352
O O6 0.650054 0.547020 0.107633
O O7 0.576883 0.336166 0.095846
O O8 0.218825 0.446970 0.006519
O O9 0.120816 0.672542 0.007654
O O10 0.096321 0.524770 0.120763
O O11 0.000000 0.500000 0.000000
O O12 0.750000 0.750000 0.067423
O O13 0.577114 0.681829 0.000120
#
# Coordination Sequence:
#
# PCOD9431739 Si02
#       6
#     8   8   8   8   8   8
#     4   9  20  42  59  82 125 160 202 252 312 374
#     4  11  23  39  65  93 124 162 211 263 322 382
#     4  11  22  38  63  91 125 166 213 261 315 386
#     4  10  22  38  60  89 122 162 203 263 312 372
#     4  11  22  41  63  91 128 168 216 267 322 391
#     4  10  21  41  67  90 120 169 216 260 315 392
#
# _framework density 19.753872000000001
#
# number of rings (size 3 to 8) (size 9 to 14) (size 15 to 20)
#    0.000    1.667    1.667    4.000    0.000    7.333 
#    0.000    0.833    0.000    0.000    0.000    0.000 
#    0.000    0.000    0.000    0.000    0.000    0.000 
#
# Total GULP energy -267262.364577 kJ/mol
# GULP energy per Si atom -5567.965929 kJ/mol
# Density = 1.970891 g / cm^3
# Si number density = 19.753872 Si / 1000 Ang^3
#
#
#
# Elastic Constant Matrix: (Units=GPa)
#
#
# Indices 1 2 3 4 5 6 
#
# 1 67.6685 7.7580 31.1680 0.0000 0.0000 0.0000
# 2 7.7580 34.0587 7.6102 0.0000 0.0000 0.0000
# 3 31.1680 7.6102 156.0185 0.0000 0.0000 0.0000
# 4 0.0000 0.0000 0.0000 -2.2792 0.0000 0.0000
# 5 0.0000 0.0000 0.0000 0.0000 413.1119 0.0000
# 6 0.0000 0.0000 0.0000 0.0000 0.0000 37.7451
#
#
#
# Elastic Compliance Matrix: (Units=1/GPa)
#
#
# Indices 1 2 3 4 5 6 
#
# 1 0.016587 -0.003071 -0.003164 0.000000 0.000000 0.000000
# 2 -0.003071 0.030253 -0.000862 0.000000 0.000000 0.000000
# 3 -0.003164 -0.000862 0.007084 0.000000 0.000000 0.000000
# 4 0.000000 0.000000 0.000000 -0.438750 0.000000 0.000000
# 5 0.000000 0.000000 0.000000 0.000000 0.002421 0.000000
# 6 0.000000 0.000000 0.000000 0.000000 0.000000 0.026494
#
#
# Mechanical properties :
#
#
# Convention : Reuss Voigt Hill
#
# Bulk Modulus (GPa) = 25.17016 38.97978 32.07497
# Shear Modulus (GPa) = -15.22193 103.79618 44.28713
#
# Velocity S-wave (km/s) = -2.77894 7.25664 4.74006
# Velocity P-wave (km/s) = 1.57253 9.48616 6.79927
#
# Compressibility (1/GPa) = 0.03972958
#
# Stress axis : x y z
#
# Youngs Moduli (GPa) = 60.28709 33.05419 141.17127
#
# Poissons Ratio (x) = 0.10152 0.44664
# Poissons Ratio (y) = 0.18516 0.12171
# Poissons Ratio (z) = 0.19074 0.02850
#
# Static dielectric constant tensor:
#      x y z
#    x 1.715730 0.000000 0.000000 
#    y 0.000000 2.005430 0.000000 
#    z 0.000000 0.000000 2.684340 
# 
# From -- ./inp_files/15588.got.cif
#   From: 2010.05.17/outbox.cif.g08.bks.cpg/sg56_8_cif.got.tgz:15588.got - 2010.06.03 13:42:01.
