data_PCOD9431809
_publ_section_title
;
Structure prediction by ZEFSAII (Michael W. Deem and Ramdas Pophale) SiO2 
 PCOD9431809
Probable space group: P C C N
;
_chemical_formula_sum "Si O2"
_cell_formula_units_Z 48
_cell_length_a 8.470120
_cell_length_b 15.505041
_cell_length_c 18.280530
_cell_angle_alpha 90.000000
_cell_angle_beta 90.000000
_cell_angle_gamma 90.000000
_cell_volume 2400.773923
_symmetry_space_group_name_H-M "P C C N"
_symmetry_group_IT_number 56
_symmetry_cell_setting 'orthorhombic'
loop_
_space_group_symop_operation_xyz
x,y,z
1/2-x,1/2-y,z
1/2+x,-y,1/2-z
-x,1/2+y,1/2-z
-x,-y,-z
1/2+x,1/2+y,-z
1/2-x,y,1/2+z
x,1/2-y,1/2+z
loop_
_atom_site_type_symbol
_atom_site_label
_atom_site_fract_x
_atom_site_fract_y
_atom_site_fract_z
Si Si1 0.577144 0.916780 0.537065
Si Si2 0.570496 0.781578 0.241990
Si Si3 0.674646 0.555329 0.660024
Si Si4 0.158801 0.490768 0.192125
Si Si5 0.654044 0.661941 0.886483
Si Si6 0.345955 0.665264 0.155825
O O1 0.734892 0.940998 0.583092
O O2 0.600356 0.855699 0.467949
O O3 0.461482 0.871745 0.594544
O O4 0.500000 0.000000 0.500000
O O5 0.750000 0.750000 0.249366
O O6 0.593289 0.852869 0.179156
O O7 0.528833 0.824619 0.320030
O O8 0.453735 0.705670 0.220278
O O9 0.801849 0.535014 0.724076
O O10 0.525591 0.492379 0.671370
O O11 0.244955 0.419827 0.141780
O O12 0.237076 0.585038 0.179617
O O13 0.750000 0.750000 0.891018
O O14 0.250000 0.750000 0.130035
#
# Coordination Sequence:
#
# PCOD9431809 Si02
#       6
#     8   8   8   8   8   8
#     4  12  26  46  67  99 148 185 224 297 360 409
#     4  10  21  42  69  97 127 182 234 281 344 410
#     4  11  24  41  73  98 137 183 233 287 350 415
#     4  11  24  44  70 105 136 184 242 287 342 423
#     4  10  25  43  67  97 139 179 234 281 352 420
#     4  12  24  42  71 104 140 183 238 288 344 426
#
# _framework density 19.993552999999999
#
# number of rings (size 3 to 8) (size 9 to 14) (size 15 to 20)
#    0.000    1.000    5.000    1.000    9.333    0.667 
#    3.000    0.833    0.000    0.000    0.000    0.000 
#    0.000    0.000    0.000    0.000    0.000    0.000 
#
# Total GULP energy -267832.569934 kJ/mol
# GULP energy per Si atom -5579.845207 kJ/mol
# Density = 1.994805 g / cm^3
# Si number density = 19.993553 Si / 1000 Ang^3
#
#
#
# Elastic Constant Matrix: (Units=GPa)
#
#
# Indices 1 2 3 4 5 6 
#
# 1 103.1271 39.3526 59.2736 0.0000 0.0000 0.0000
# 2 39.3526 122.4322 33.5336 0.0000 0.0000 0.0000
# 3 59.2736 33.5336 126.7683 0.0000 0.0000 0.0000
# 4 0.0000 0.0000 0.0000 41.4350 0.0000 0.0000
# 5 0.0000 0.0000 0.0000 0.0000 -8.5958 0.0000
# 6 0.0000 0.0000 0.0000 0.0000 0.0000 39.9591
#
#
#
# Elastic Compliance Matrix: (Units=1/GPa)
#
#
# Indices 1 2 3 4 5 6 
#
# 1 0.014189 -0.002958 -0.005852 0.000000 0.000000 0.000000
# 2 -0.002958 0.009422 -0.001109 0.000000 0.000000 0.000000
# 3 -0.005852 -0.001109 0.010918 0.000000 0.000000 0.000000
# 4 0.000000 0.000000 0.000000 0.024134 0.000000 0.000000
# 5 0.000000 0.000000 0.000000 0.000000 -0.116336 0.000000
# 6 0.000000 0.000000 0.000000 0.000000 0.000000 0.025026
#
#
# Mechanical properties :
#
#
# Convention : Reuss Voigt Hill
#
# Bulk Modulus (GPa) = 68.06926 68.51638 68.29282
# Shear Modulus (GPa) = -631.99661 29.23751 -301.37955
#
# Velocity S-wave (km/s) = -17.79849 3.82821 -12.29087
# Velocity P-wave (km/s) = 19.70437 7.34057 12.93017
#
# Compressibility (1/GPa) = 0.01469092
#
# Stress axis : x y z
#
# Youngs Moduli (GPa) = 70.47737 106.13030 91.59083
#
# Poissons Ratio (x) = 0.31392 0.53599
# Poissons Ratio (y) = 0.20846 0.10162
# Poissons Ratio (z) = 0.41243 0.11775
#
# Static dielectric constant tensor:
#      x y z
#    x 0.087210 0.000000 0.000000 
#    y 0.000000 1.731890 0.000000 
#    z 0.000000 0.000000 1.742460 
# 
# From -- ./inp_files/14837.got.cif
#   From: 2010.05.17/outbox.cif.g08.bks.cpg/sg56_8_cif.got.tgz:14837.got - 2010.06.03 13:42:01.
