data_PCOD9431252
_publ_section_title
;
Structure prediction by ZEFSAII (Michael W. Deem and Ramdas Pophale) SiO2 
 PCOD9431252
Probable space group: P C C N
;
_chemical_formula_sum "Si O2"
_cell_formula_units_Z 48
_cell_length_a 13.587700
_cell_length_b 12.718990
_cell_length_c 12.473193
_cell_angle_alpha 90.000000
_cell_angle_beta 90.000000
_cell_angle_gamma 90.000000
_cell_volume 2155.639921
_symmetry_space_group_name_H-M "P C C N"
_symmetry_group_IT_number 56
_symmetry_cell_setting 'orthorhombic'
loop_
_space_group_symop_operation_xyz
x,y,z
1/2-x,1/2-y,z
1/2+x,-y,1/2-z
-x,1/2+y,1/2-z
-x,-y,-z
1/2+x,1/2+y,-z
1/2-x,y,1/2+z
x,1/2-y,1/2+z
loop_
_atom_site_type_symbol
_atom_site_label
_atom_site_fract_x
_atom_site_fract_y
_atom_site_fract_z
Si Si1 0.492474 0.628817 0.173951
Si Si2 0.059174 0.641120 0.912271
Si Si3 0.318623 0.415881 0.969808
Si Si4 0.399704 0.108071 0.908658
Si Si5 0.368375 0.662695 0.976694
Si Si6 0.940852 0.616049 0.331497
O O1 0.487946 0.664524 0.296264
O O2 0.596657 0.623753 0.112114
O O3 0.459663 0.507850 0.179678
O O4 0.407599 0.676708 0.098256
O O5 0.088734 0.518782 0.911003
O O6 0.152524 0.716182 0.939916
O O7 0.975368 0.650594 0.003153
O O8 0.213071 0.373711 0.937039
O O9 0.319899 0.545820 0.970020
O O10 0.349082 0.375353 0.087799
O O11 0.425288 0.151272 0.790620
O O12 0.463927 0.649091 0.899496
#
# Coordination Sequence:
#
# PCOD9431252 Si02
#       6
#     8   8   8   8   8   8
#     4   8  17  35  54  74 101 141 179 207 261 326
#     4  10  21  34  53  81 111 139 172 221 277 319
#     4   9  18  35  59  76 100 143 183 216 256 323
#     4  10  21  34  53  81 111 139 172 221 277 319
#     4   9  18  35  59  76 100 143 183 216 256 323
#     4   8  17  35  54  74 101 141 179 207 261 326
#
# _framework density 22.267171000000001
#
# number of rings (size 3 to 8) (size 9 to 14) (size 15 to 20)
#    0.000    3.000    0.000    2.000    4.667    0.667 
#    0.000    3.333    0.000    6.000    0.000    0.000 
#    0.000    0.000    0.000    0.000    0.000    0.000 
#
# Total GULP energy -267454.747806 kJ/mol
# GULP energy per Si atom -5571.973913 kJ/mol
# Density = 2.221649 g / cm^3
# Si number density = 22.267171 Si / 1000 Ang^3
#
#
#
# Elastic Constant Matrix: (Units=GPa)
#
#
# Indices 1 2 3 4 5 6 
#
# 1 55.4790 -16.5985 29.6659 0.0000 0.0000 0.0000
# 2 -16.5985 88.8084 8.6689 0.0000 0.0000 0.0000
# 3 29.6659 8.6689 179.1709 0.0000 0.0000 0.0000
# 4 0.0000 0.0000 0.0000 17.6178 0.0000 0.0000
# 5 0.0000 0.0000 0.0000 0.0000 13.9755 0.0000
# 6 0.0000 0.0000 0.0000 0.0000 0.0000 19.5009
#
#
#
# Elastic Compliance Matrix: (Units=1/GPa)
#
#
# Indices 1 2 3 4 5 6 
#
# 1 0.021328 0.004351 -0.003742 0.000000 0.000000 0.000000
# 2 0.004351 0.012201 -0.001311 0.000000 0.000000 0.000000
# 3 -0.003742 -0.001311 0.006264 0.000000 0.000000 0.000000
# 4 0.000000 0.000000 0.000000 0.056761 0.000000 0.000000
# 5 0.000000 0.000000 0.000000 0.000000 0.071554 0.000000
# 6 0.000000 0.000000 0.000000 0.000000 0.000000 0.051280
#
#
# Mechanical properties :
#
#
# Convention : Reuss Voigt Hill
#
# Bulk Modulus (GPa) = 26.04794 40.77012 33.40903
# Shear Modulus (GPa) = 21.40534 30.33365 25.86950
#
# Velocity S-wave (km/s) = 3.10384 3.69488 3.41218
# Velocity P-wave (km/s) = 4.95665 6.04584 5.52814
#
# Compressibility (1/GPa) = 0.03839075
#
# Stress axis : x y z
#
# Youngs Moduli (GPa) = 46.88774 81.95755 159.63651
#
# Poissons Ratio (x) = -0.35663 0.59733
# Poissons Ratio (y) = -0.20403 0.20926
# Poissons Ratio (z) = 0.17544 0.10743
#
# Static dielectric constant tensor:
#      x y z
#    x 1.799960 0.000000 0.000000 
#    y 0.000000 2.031690 0.000000 
#    z 0.000000 0.000000 1.802110 
# 
# From -- ./inp_files/7805.got.cif
#   From: 2010.05.17/outbox.cif.g08.bks.cpg/sg56_4_cif.got.tgz:7805.got - 2010.06.03 13:42:01.
