data_PCOD9431509
_publ_section_title
;
Structure prediction by ZEFSAII (Michael W. Deem and Ramdas Pophale) SiO2 
 PCOD9431509
Probable space group: P C C N
;
_chemical_formula_sum "Si O2"
_cell_formula_units_Z 36
_cell_length_a 5.232121
_cell_length_b 12.377258
_cell_length_c 23.176643
_cell_angle_alpha 90.000000
_cell_angle_beta 90.000000
_cell_angle_gamma 90.000000
_cell_volume 1500.903444
_symmetry_space_group_name_H-M "P C C N"
_symmetry_group_IT_number 56
_symmetry_cell_setting 'orthorhombic'
loop_
_space_group_symop_operation_xyz
x,y,z
1/2-x,1/2-y,z
1/2+x,-y,1/2-z
-x,1/2+y,1/2-z
-x,-y,-z
1/2+x,1/2+y,-z
1/2-x,y,1/2+z
x,1/2-y,1/2+z
loop_
_atom_site_type_symbol
_atom_site_label
_atom_site_fract_x
_atom_site_fract_y
_atom_site_fract_z
Si Si1 0.257901 0.380502 0.447318
Si Si2 0.746825 0.982973 0.925588
Si Si3 0.250000 0.250000 0.255811
Si Si4 0.563150 0.168824 0.649553
Si Si5 0.227183 0.478263 0.286922
O O1 0.250000 0.250000 0.442555
O O2 0.281771 0.418448 0.514288
O O3 0.504645 0.437863 0.417939
O O4 0.993460 0.437438 0.427730
O O5 0.820404 0.887226 0.880609
O O6 0.474789 0.274448 0.209392
O O7 0.218193 0.351732 0.297088
O O8 0.750000 0.250000 0.615669
O O9 0.738903 0.067078 0.664632
O O10 0.463027 0.498221 0.245273
#
# Coordination Sequence:
#
# PCOD9431509 Si02
#       5
#     8   8   4   8   8
#     4  10  22  44  65  90 139 170 209 277 350 403
#     4  10  24  38  67 101 123 173 226 269 333 409
#     4  10  22  40  66  92 134 176 218 284 336 398
#     4  11  23  39  66 100 133 173 234 287 322 418
#     4  10  21  39  61  92 129 171 212 265 347 386
#
# _framework density 23.985552999999999
#
# number of rings (size 3 to 8) (size 9 to 14) (size 15 to 20)
#    0.000    1.778    2.222    0.667    4.667    3.556 
#    2.000    0.000   19.556    0.000    0.000    0.000 
#    0.000    0.000    0.000    0.000    0.000    0.000 
#
# Total GULP energy -201029.999490 kJ/mol
# GULP energy per Si atom -5584.166652 kJ/mol
# Density = 2.393096 g / cm^3
# Si number density = 23.985553 Si / 1000 Ang^3
#
#
#
# Elastic Constant Matrix: (Units=GPa)
#
#
# Indices 1 2 3 4 5 6 
#
# 1 181.8926 83.6957 28.5570 0.0000 0.0000 0.0000
# 2 83.6957 217.5156 42.7370 0.0000 0.0000 0.0000
# 3 28.5570 42.7370 41.5253 0.0000 0.0000 0.0000
# 4 0.0000 0.0000 0.0000 25.5578 0.0000 0.0000
# 5 0.0000 0.0000 0.0000 0.0000 27.8466 0.0000
# 6 0.0000 0.0000 0.0000 0.0000 0.0000 40.7740
#
#
#
# Elastic Compliance Matrix: (Units=1/GPa)
#
#
# Indices 1 2 3 4 5 6 
#
# 1 0.006884 -0.002154 -0.002517 0.000000 0.000000 0.000000
# 2 -0.002154 0.006437 -0.005143 0.000000 0.000000 0.000000
# 3 -0.002517 -0.005143 0.031106 0.000000 0.000000 0.000000
# 4 0.000000 0.000000 0.000000 0.039127 0.000000 0.000000
# 5 0.000000 0.000000 0.000000 0.000000 0.035911 0.000000
# 6 0.000000 0.000000 0.000000 0.000000 0.000000 0.024525
#
#
# Mechanical properties :
#
#
# Convention : Reuss Voigt Hill
#
# Bulk Modulus (GPa) = 40.32606 83.43477 61.88042
# Shear Modulus (GPa) = 29.08915 37.89861 33.49388
#
# Velocity S-wave (km/s) = 3.48627 3.97931 3.74092
# Velocity P-wave (km/s) = 5.74932 7.48159 6.67191
#
# Compressibility (1/GPa) = 0.02479786
#
# Stress axis : x y z
#
# Youngs Moduli (GPa) = 145.25944 155.35588 32.14830
#
# Poissons Ratio (x) = 0.33469 0.08092
# Poissons Ratio (y) = 0.31294 0.16534
# Poissons Ratio (z) = 0.36563 0.79901
#
# Static dielectric constant tensor:
#      x y z
#    x 1.931000 0.000000 0.000000 
#    y 0.000000 1.931780 0.000000 
#    z 0.000000 0.000000 1.951960 
# 
# From -- ./inp_files/22779.got.cif
#   From: 2010.05.17/outbox.cif.g08.bks.cpg/sg56_12_cif.got.tgz:22779.got - 2010.06.03 13:42:01.
