data_PCOD9431596
_publ_section_title
;
Structure prediction by ZEFSAII (Michael W. Deem and Ramdas Pophale) SiO2 
 PCOD9431596
Probable space group: P C C N
;
_chemical_formula_sum "Si O2"
_cell_formula_units_Z 56
_cell_length_a 15.130889
_cell_length_b 11.303787
_cell_length_c 15.384291
_cell_angle_alpha 90.000000
_cell_angle_beta 90.000000
_cell_angle_gamma 90.000000
_cell_volume 2631.272924
_symmetry_space_group_name_H-M "P C C N"
_symmetry_group_IT_number 56
_symmetry_cell_setting 'orthorhombic'
loop_
_space_group_symop_operation_xyz
x,y,z
1/2-x,1/2-y,z
1/2+x,-y,1/2-z
-x,1/2+y,1/2-z
-x,-y,-z
1/2+x,1/2+y,-z
1/2-x,y,1/2+z
x,1/2-y,1/2+z
loop_
_atom_site_type_symbol
_atom_site_label
_atom_site_fract_x
_atom_site_fract_y
_atom_site_fract_z
Si Si1 0.340907 0.191264 0.851640
Si Si2 0.419302 0.118263 0.215611
Si Si3 0.340670 0.825268 0.411417
Si Si4 0.349383 0.703207 0.575208
Si Si5 0.104370 0.810852 0.248990
Si Si6 0.262401 0.519556 0.786511
Si Si7 0.594151 0.555361 0.477505
O O1 0.250000 0.250000 0.883566
O O2 0.391166 0.280694 0.786067
O O3 0.305207 0.087018 0.790646
O O4 0.382647 0.132115 0.937270
O O5 0.522583 0.099807 0.237699
O O6 0.348280 0.014752 0.232502
O O7 0.410325 0.132925 0.111108
O O8 0.250000 0.750000 0.415041
O O9 0.386680 0.791511 0.500552
O O10 0.397058 0.775515 0.331795
O O11 0.303686 0.951446 0.381679
O O12 0.250000 0.750000 0.590029
O O13 0.401911 0.733151 0.662478
O O14 0.350730 0.566959 0.542405
O O15 0.200037 0.874922 0.253419
O O16 0.500000 0.500000 0.500000
#
# Coordination Sequence:
#
# PCOD9431596 Si02
#       7
#     8   8   8   8   8   8   8
#     4  10  23  41  61  89 128 167 206 254 309 373
#     4  11  24  39  61  91 125 167 213 255 306 376
#     4   9  18  34  57  86 118 151 197 256 309 363
#     4  11  21  36  64  93 116 154 207 259 313 372
#     4  11  21  37  59  89 122 156 203 260 308 362
#     4  10  21  40  61  88 130 168 200 253 317 368
#     4  12  23  41  66  92 122 167 214 257 313 378
#
# _framework density 21.282475000000002
#
# number of rings (size 3 to 8) (size 9 to 14) (size 15 to 20)
#    0.000    1.429    0.000    8.143    0.000    2.857 
#    0.000    2.143    0.000    0.000    0.000    0.000 
#    0.000    0.000    0.000    0.000    0.000    0.000 
#
# Total GULP energy -311804.059922 kJ/mol
# GULP energy per Si atom -5567.929641 kJ/mol
# Density = 2.123403 g / cm^3
# Si number density = 21.282475 Si / 1000 Ang^3
#
#
#
# Elastic Constant Matrix: (Units=GPa)
#
#
# Indices 1 2 3 4 5 6 
#
# 1 96.1013 40.2105 48.4875 0.0000 0.0000 0.0000
# 2 40.2105 69.5851 14.9990 0.0000 0.0000 0.0000
# 3 48.4875 14.9990 119.7498 0.0000 0.0000 0.0000
# 4 0.0000 0.0000 0.0000 29.0734 0.0000 0.0000
# 5 0.0000 0.0000 0.0000 0.0000 19.8167 0.0000
# 6 0.0000 0.0000 0.0000 0.0000 0.0000 26.6947
#
#
#
# Elastic Compliance Matrix: (Units=1/GPa)
#
#
# Indices 1 2 3 4 5 6 
#
# 1 0.016876 -0.008509 -0.005767 0.000000 0.000000 0.000000
# 2 -0.008509 0.019060 0.001058 0.000000 0.000000 0.000000
# 3 -0.005767 0.001058 0.010553 0.000000 0.000000 0.000000
# 4 0.000000 0.000000 0.000000 0.034396 0.000000 0.000000
# 5 0.000000 0.000000 0.000000 0.000000 0.050463 0.000000
# 6 0.000000 0.000000 0.000000 0.000000 0.000000 0.037461
#
#
# Mechanical properties :
#
#
# Convention : Reuss Voigt Hill
#
# Bulk Modulus (GPa) = 49.86860 54.75891 52.31375
# Shear Modulus (GPa) = 24.76125 27.23290 25.99707
#
# Velocity S-wave (km/s) = 3.41465 3.58102 3.49882
# Velocity P-wave (km/s) = 6.24733 6.54857 6.39972
#
# Compressibility (1/GPa) = 0.02005270
#
# Stress axis : x y z
#
# Youngs Moduli (GPa) = 59.25643 52.46674 94.75541
#
# Poissons Ratio (x) = 0.44642 0.54649
# Poissons Ratio (y) = 0.50420 -0.10025
# Poissons Ratio (z) = 0.34175 -0.05551
#
# Static dielectric constant tensor:
#      x y z
#    x 1.835910 0.000000 0.000000 
#    y 0.000000 1.873870 0.000000 
#    z 0.000000 0.000000 1.833700 
# 
# From -- ./inp_files/12263.got.cif
#   From: 2010.05.17/outbox.cif.g08.bks.cpg/sg56_7_cif.got.tgz:12263.got - 2010.06.03 13:42:01.
