data_PCOD9431100
_publ_section_title
;
Structure prediction by ZEFSAII (Michael W. Deem and Ramdas Pophale) SiO2 
 PCOD9431100
Probable space group: P C C N
;
_chemical_formula_sum "Si O2"
_cell_formula_units_Z 40
_cell_length_a 8.661272
_cell_length_b 23.985713
_cell_length_c 7.715171
_cell_angle_alpha 90.000000
_cell_angle_beta 90.000000
_cell_angle_gamma 90.000000
_cell_volume 1602.801966
_symmetry_space_group_name_H-M "P C C N"
_symmetry_group_IT_number 56
_symmetry_cell_setting 'orthorhombic'
loop_
_space_group_symop_operation_xyz
x,y,z
1/2-x,1/2-y,z
1/2+x,-y,1/2-z
-x,1/2+y,1/2-z
-x,-y,-z
1/2+x,1/2+y,-z
1/2-x,y,1/2+z
x,1/2-y,1/2+z
loop_
_atom_site_type_symbol
_atom_site_label
_atom_site_fract_x
_atom_site_fract_y
_atom_site_fract_z
Si Si1 0.427658 0.954245 0.375834
Si Si2 0.893246 0.420800 0.995036
Si Si3 0.401509 0.167628 0.151081
Si Si4 0.548851 0.832084 0.453118
Si Si5 0.629658 0.299341 0.372270
O O1 0.242960 0.950568 0.403208
O O2 0.451730 0.956380 0.168341
O O3 0.505793 0.896885 0.435772
O O4 0.500000 0.000000 0.500000
O O5 0.815464 0.363015 0.916021
O O6 0.032616 0.394525 0.107161
O O7 0.449170 0.182807 0.344934
O O8 0.012338 0.204083 0.506112
O O9 0.220654 0.173719 0.124025
O O10 0.431429 0.802999 0.322092
O O11 0.750000 0.250000 0.388215
#
# Coordination Sequence:
#
# PCOD9431100 Si02
#       5
#     8   8   8   8   8
#     4  11  23  41  68 107 147 199 251 310 386 458
#     4   9  22  42  65 104 149 190 252 312 373 456
#     4  10  20  40  71 107 153 195 250 317 389 443
#     4  11  20  40  71 110 151 196 248 328 373 461
#     4   9  21  41  71 110 151 197 260 310 395 464
#
# _framework density 24.956298
#
# number of rings (size 3 to 8) (size 9 to 14) (size 15 to 20)
#    1.200    0.800    2.000    1.200    0.000    4.000 
#    0.000    7.000    0.000    1.200   10.400    0.000 
#    0.000    0.000    0.000    0.000    0.000    0.000 
#
# Total GULP energy -224052.258281 kJ/mol
# GULP energy per Si atom -5601.306457 kJ/mol
# Density = 2.489950 g / cm^3
# Si number density = 24.956298 Si / 1000 Ang^3
#
#
#
# Elastic Constant Matrix: (Units=GPa)
#
#
# Indices 1 2 3 4 5 6 
#
# 1 106.1788 11.6373 27.8788 0.0000 0.0000 0.0000
# 2 11.6373 40.4894 -3.1882 0.0000 0.0000 0.0000
# 3 27.8788 -3.1882 171.4521 0.0000 0.0000 0.0000
# 4 0.0000 0.0000 0.0000 26.2618 0.0000 0.0000
# 5 0.0000 0.0000 0.0000 0.0000 45.0331 0.0000
# 6 0.0000 0.0000 0.0000 0.0000 0.0000 20.0943
#
#
#
# Elastic Compliance Matrix: (Units=1/GPa)
#
#
# Indices 1 2 3 4 5 6 
#
# 1 0.010205 -0.003068 -0.001716 0.000000 0.000000 0.000000
# 2 -0.003068 0.025657 0.000976 0.000000 0.000000 0.000000
# 3 -0.001716 0.000976 0.006130 0.000000 0.000000 0.000000
# 4 0.000000 0.000000 0.000000 0.038078 0.000000 0.000000
# 5 0.000000 0.000000 0.000000 0.000000 0.022206 0.000000
# 6 0.000000 0.000000 0.000000 0.000000 0.000000 0.049765
#
#
# Mechanical properties :
#
#
# Convention : Reuss Voigt Hill
#
# Bulk Modulus (GPa) = 29.09178 43.41958 36.25568
# Shear Modulus (GPa) = 29.21993 37.06400 33.14197
#
# Velocity S-wave (km/s) = 3.42547 3.85795 3.64813
# Velocity P-wave (km/s) = 5.22757 6.10582 5.68369
#
# Compressibility (1/GPa) = 0.03437398
#
# Stress axis : x y z
#
# Youngs Moduli (GPa) = 97.99086 38.97641 163.13804
#
# Poissons Ratio (x) = 0.11959 0.28002
# Poissons Ratio (y) = 0.30066 -0.15922
# Poissons Ratio (z) = 0.16819 -0.03804
#
# Static dielectric constant tensor:
#      x y z
#    x 1.939540 0.000000 0.000000 
#    y 0.000000 2.047520 0.000000 
#    z 0.000000 0.000000 1.942270 
# 
# From -- ./inp_files/2126.got.cif
#   From: 2010.05.17/outbox.cif.g08.bks.cpg/sg56_2_cif.got.tgz:2126.got - 2010.06.03 13:42:01.
