data_PCOD9431063
_publ_section_title
;
Structure prediction by ZEFSAII (Michael W. Deem and Ramdas Pophale) SiO2 
 PCOD9431063
Probable space group: P C C N
;
_chemical_formula_sum "Si O2"
_cell_formula_units_Z 64
_cell_length_a 19.210674
_cell_length_b 5.411231
_cell_length_c 25.069581
_cell_angle_alpha 90.000000
_cell_angle_beta 90.000000
_cell_angle_gamma 90.000000
_cell_volume 2606.068048
_symmetry_space_group_name_H-M "P C C N"
_symmetry_group_IT_number 56
_symmetry_cell_setting 'orthorhombic'
loop_
_space_group_symop_operation_xyz
x,y,z
1/2-x,1/2-y,z
1/2+x,-y,1/2-z
-x,1/2+y,1/2-z
-x,-y,-z
1/2+x,1/2+y,-z
1/2-x,y,1/2+z
x,1/2-y,1/2+z
loop_
_atom_site_type_symbol
_atom_site_label
_atom_site_fract_x
_atom_site_fract_y
_atom_site_fract_z
Si Si1 0.821216 0.177093 0.618763
Si Si2 0.915658 0.947020 0.069699
Si Si3 0.054940 0.105717 0.339919
Si Si4 0.327926 0.827508 0.207135
Si Si5 0.685595 0.564622 0.405486
Si Si6 0.181380 0.397884 0.983424
Si Si7 0.462368 0.255152 0.109263
Si Si8 0.916327 0.833540 0.775269
O O1 0.750000 0.250000 0.646515
O O2 0.853912 0.357121 0.573996
O O3 0.883500 0.097297 0.656660
O O4 0.800894 0.967144 0.577014
O O5 0.913291 0.836049 0.129465
O O6 0.891613 0.747627 0.026395
O O7 0.989007 0.089081 0.069831
O O8 0.995748 0.016187 0.381216
O O9 0.039124 0.158104 0.279027
O O10 0.250000 0.750000 0.225327
O O11 0.372997 0.586224 0.220008
O O12 0.322073 0.876747 0.143348
O O13 0.365901 0.086905 0.225796
O O14 0.750000 0.750000 0.394046
O O15 0.678254 0.433635 0.463565
O O16 0.617429 0.739099 0.405250
O O17 0.250000 0.250000 0.000202
O O18 0.463036 0.335837 0.171533
#
# Coordination Sequence:
#
# PCOD9431063 Si02
#       8
#     8   8   8   8   8   8   8   8
#     4  10  20  40  64  99 132 178 222 288 348 413
#     4  10  22  41  65  96 141 173 231 291 352 415
#     4  10  25  41  65  99 134 184 232 284 349 423
#     4  11  24  47  68 103 147 182 231 303 353 414
#     4  10  23  45  70 103 133 183 236 288 361 426
#     4  10  20  40  68 100 136 178 235 284 353 433
#     4  10  24  42  68  96 138 184 228 297 352 418
#     4  11  26  43  72 102 138 190 244 285 351 426
#
# _framework density 24.558071000000002
#
# number of rings (size 3 to 8) (size 9 to 14) (size 15 to 20)
#    0.000    1.750    1.250    1.875    8.750    1.500 
#    6.750    5.625    0.000    0.000    0.000    0.000 
#    0.000    0.000    0.000    0.000    0.000    0.000 
#
# Total GULP energy -356584.082268 kJ/mol
# GULP energy per Si atom -5571.626285 kJ/mol
# Density = 2.450218 g / cm^3
# Si number density = 24.558071 Si / 1000 Ang^3
#
#
#
# Elastic Constant Matrix: (Units=GPa)
#
#
# Indices 1 2 3 4 5 6 
#
# 1 139.2638 21.8064 -10.9276 0.0000 0.0000 0.0000
# 2 21.8064 83.7407 -0.1425 0.0000 0.0000 0.0000
# 3 -10.9276 -0.1425 96.8095 0.0000 0.0000 0.0000
# 4 0.0000 0.0000 0.0000 22.3475 0.0000 0.0000
# 5 0.0000 0.0000 0.0000 0.0000 9.5261 0.0000
# 6 0.0000 0.0000 0.0000 0.0000 0.0000 27.2021
#
#
#
# Elastic Compliance Matrix: (Units=1/GPa)
#
#
# Indices 1 2 3 4 5 6 
#
# 1 0.007555 -0.001966 0.000850 0.000000 0.000000 0.000000
# 2 -0.001966 0.012453 -0.000204 0.000000 0.000000 0.000000
# 3 0.000850 -0.000204 0.010425 0.000000 0.000000 0.000000
# 4 0.000000 0.000000 0.000000 0.044748 0.000000 0.000000
# 5 0.000000 0.000000 0.000000 0.000000 0.104974 0.000000
# 6 0.000000 0.000000 0.000000 0.000000 0.000000 0.036762
#
#
# Mechanical properties :
#
#
# Convention : Reuss Voigt Hill
#
# Bulk Modulus (GPa) = 35.97854 37.92072 36.94963
# Shear Modulus (GPa) = 21.85110 32.42033 27.13572
#
# Velocity S-wave (km/s) = 2.98614 3.63733 3.32770
# Velocity P-wave (km/s) = 5.15476 5.75456 5.46290
#
# Compressibility (1/GPa) = 0.02779435
#
# Stress axis : x y z
#
# Youngs Moduli (GPa) = 132.36017 80.30053 95.92141
#
# Poissons Ratio (x) = 0.15787 -0.08152
# Poissons Ratio (y) = 0.26021 0.01953
# Poissons Ratio (z) = -0.11249 0.01635
#
# Static dielectric constant tensor:
#      x y z
#    x 2.131460 0.000000 0.000000 
#    y 0.000000 2.381590 0.000000 
#    z 0.000000 0.000000 1.922630 
# 
# From -- ./inp_files/22590.got.cif
#   From: 2010.05.17/outbox.cif.g08.bks.cpg/sg56_12_cif.got.tgz:22590.got - 2010.06.03 13:42:01.
