data_PCOD9431554
_publ_section_title
;
Structure prediction by ZEFSAII (Michael W. Deem and Ramdas Pophale) SiO2 
 PCOD9431554
Probable space group: P C C N
;
_chemical_formula_sum "Si O2"
_cell_formula_units_Z 52
_cell_length_a 5.159233
_cell_length_b 22.474866
_cell_length_c 18.694358
_cell_angle_alpha 90.000000
_cell_angle_beta 90.000000
_cell_angle_gamma 90.000000
_cell_volume 2167.668208
_symmetry_space_group_name_H-M "P C C N"
_symmetry_group_IT_number 56
_symmetry_cell_setting 'orthorhombic'
loop_
_space_group_symop_operation_xyz
x,y,z
1/2-x,1/2-y,z
1/2+x,-y,1/2-z
-x,1/2+y,1/2-z
-x,-y,-z
1/2+x,1/2+y,-z
1/2-x,y,1/2+z
x,1/2-y,1/2+z
loop_
_atom_site_type_symbol
_atom_site_label
_atom_site_fract_x
_atom_site_fract_y
_atom_site_fract_z
Si Si1 0.443902 0.464142 0.853393
Si Si2 0.750000 0.250000 0.267284
Si Si3 0.830127 0.366053 0.822336
Si Si4 0.704013 0.319876 0.013354
Si Si5 0.693841 0.875224 0.057754
Si Si6 0.896134 0.695527 0.351589
Si Si7 0.840136 0.578293 0.292196
O O1 0.675461 0.417350 0.861307
O O2 0.253980 0.443645 0.917439
O O3 0.319231 0.450748 0.774021
O O4 0.566078 0.529087 0.848057
O O5 0.831030 0.306616 0.312892
O O6 0.520337 0.273310 0.217531
O O7 0.086908 0.349905 0.866494
O O8 0.907879 0.394987 0.747321
O O9 0.750000 0.250000 0.995986
O O10 0.449792 0.344454 0.972679
O O11 0.955744 0.358949 0.994175
O O12 0.626193 0.324109 0.096361
O O13 0.750000 0.750000 0.390013
O O14 0.730039 0.637697 0.329471
#
# Coordination Sequence:
#
# PCOD9431554 Si02
#       7
#     8   4   8   8   8   8   8
#     4  11  20  42  67 104 144 181 238 283 362 435
#     4  10  22  38  64 102 134 164 228 292 360 406
#     4  10  21  39  66 103 140 179 220 294 348 429
#     4  12  25  45  70  94 136 191 240 287 350 419
#     4  11  25  42  67 100 137 181 238 286 345 419
#     4  11  23  44  65  99 137 182 240 296 351 425
#     4  10  22  38  71 101 140 189 227 289 361 424
#
# _framework density 23.988911999999999
#
# number of rings (size 3 to 8) (size 9 to 14) (size 15 to 20)
#    0.000    1.231    3.846    2.308    1.077    1.231 
#    0.000    1.538    0.000    0.000    0.000    0.000 
#    0.000    0.000    0.000    0.000    0.000    0.000 
#
# Total GULP energy -290369.819973 kJ/mol
# GULP energy per Si atom -5584.034999 kJ/mol
# Density = 2.393431 g / cm^3
# Si number density = 23.988912 Si / 1000 Ang^3
#
#
#
# Elastic Constant Matrix: (Units=GPa)
#
#
# Indices 1 2 3 4 5 6 
#
# 1 97.6907 26.1308 6.7843 0.0000 0.0000 0.0000
# 2 26.1308 121.2578 12.9437 0.0000 0.0000 0.0000
# 3 6.7843 12.9437 34.6019 0.0000 0.0000 0.0000
# 4 0.0000 0.0000 0.0000 16.3234 0.0000 0.0000
# 5 0.0000 0.0000 0.0000 0.0000 40.6210 0.0000
# 6 0.0000 0.0000 0.0000 0.0000 0.0000 29.1032
#
#
#
# Elastic Compliance Matrix: (Units=1/GPa)
#
#
# Indices 1 2 3 4 5 6 
#
# 1 0.010920 -0.002213 -0.001313 0.000000 0.000000 0.000000
# 2 -0.002213 0.009038 -0.002947 0.000000 0.000000 0.000000
# 3 -0.001313 -0.002947 0.030260 0.000000 0.000000 0.000000
# 4 0.000000 0.000000 0.000000 0.061262 0.000000 0.000000
# 5 0.000000 0.000000 0.000000 0.000000 0.024618 0.000000
# 6 0.000000 0.000000 0.000000 0.000000 0.000000 0.034361
#
#
# Mechanical properties :
#
#
# Convention : Reuss Voigt Hill
#
# Bulk Modulus (GPa) = 26.83015 38.36310 32.59662
# Shear Modulus (GPa) = 25.53255 31.05562 28.29408
#
# Velocity S-wave (km/s) = 3.26597 3.60193 3.43806
# Velocity P-wave (km/s) = 5.04289 5.77281 5.42015
#
# Compressibility (1/GPa) = 0.03727150
#
# Stress axis : x y z
#
# Youngs Moduli (GPa) = 91.57917 110.63940 33.04682
#
# Poissons Ratio (x) = 0.24484 0.04339
# Poissons Ratio (y) = 0.20266 0.09739
# Poissons Ratio (z) = 0.12026 0.32607
#
# Static dielectric constant tensor:
#      x y z
#    x 1.972240 0.000000 0.000000 
#    y 0.000000 2.014170 0.000000 
#    z 0.000000 0.000000 1.970620 
# 
# From -- ./inp_files/17557.got.cif
#   From: 2010.05.17/outbox.cif.g08.bks.cpg/sg56_9_cif.got.tgz:17557.got - 2010.06.03 13:42:01.
