data_PCOD9431971
_publ_section_title
;
Structure prediction by ZEFSAII (Michael W. Deem and Ramdas Pophale) SiO2 
 PCOD9431971
Probable space group: P C C N
;
_chemical_formula_sum "Si O2"
_cell_formula_units_Z 40
_cell_length_a 13.807259
_cell_length_b 16.437389
_cell_length_c 7.805140
_cell_angle_alpha 90.000000
_cell_angle_beta 90.000000
_cell_angle_gamma 90.000000
_cell_volume 1771.417790
_symmetry_space_group_name_H-M "P C C N"
_symmetry_group_IT_number 56
_symmetry_cell_setting 'orthorhombic'
loop_
_space_group_symop_operation_xyz
x,y,z
1/2-x,1/2-y,z
1/2+x,-y,1/2-z
-x,1/2+y,1/2-z
-x,-y,-z
1/2+x,1/2+y,-z
1/2-x,y,1/2+z
x,1/2-y,1/2+z
loop_
_atom_site_type_symbol
_atom_site_label
_atom_site_fract_x
_atom_site_fract_y
_atom_site_fract_z
Si Si1 0.750000 0.250000 0.299312
Si Si2 0.347386 0.976973 0.972717
Si Si3 0.349330 0.914398 0.589612
Si Si4 0.071234 0.642714 0.266177
Si Si5 0.626417 0.839344 0.095094
Si Si6 0.250000 0.250000 0.661159
O O1 0.708022 0.170822 0.391524
O O2 0.653089 0.287595 0.215959
O O3 0.371913 0.943133 0.782176
O O4 0.231359 0.971992 0.001784
O O5 0.379092 0.069982 0.976476
O O6 0.393443 0.922565 0.123243
O O7 0.434096 0.900101 0.452038
O O8 0.972806 0.678518 0.192232
O O9 0.715027 0.826573 0.227434
O O10 0.658004 0.777045 0.949106
#
# Coordination Sequence:
#
# PCOD9431971 Si02
#       6
#     4   8   8   8   8   4
#     4  10  22  38  62 100 144 160 216 272 328 422
#     4  11  22  42  65 100 139 175 224 273 335 406
#     4  11  22  37  66  99 136 185 212 271 343 395
#     4  11  25  41  68 104 135 181 218 280 350 397
#     4  11  25  48  68  96 130 178 235 286 337 406
#     4  10  26  48  70  90 126 184 234 288 342 388
#
# _framework density 22.580784000000001
#
# number of rings (size 3 to 8) (size 9 to 14) (size 15 to 20)
#    0.000    1.200    4.000    2.400    5.600    0.800 
#    3.600    0.000    0.000    0.000    0.000    0.000 
#    0.000    0.000    0.000    0.000    0.000    0.000 
#
# Total GULP energy -223217.334346 kJ/mol
# GULP energy per Si atom -5580.433359 kJ/mol
# Density = 2.252939 g / cm^3
# Si number density = 22.580784 Si / 1000 Ang^3
#
#
#
# Elastic Constant Matrix: (Units=GPa)
#
#
# Indices 1 2 3 4 5 6 
#
# 1 37.8069 9.4722 -5.2016 0.0000 0.0000 0.0000
# 2 9.4722 79.9173 15.3949 0.0000 0.0000 0.0000
# 3 -5.2016 15.3949 94.8988 0.0000 0.0000 0.0000
# 4 0.0000 0.0000 0.0000 9.5093 0.0000 0.0000
# 5 0.0000 0.0000 0.0000 0.0000 23.8855 0.0000
# 6 0.0000 0.0000 0.0000 0.0000 0.0000 17.6325
#
#
#
# Elastic Compliance Matrix: (Units=1/GPa)
#
#
# Indices 1 2 3 4 5 6 
#
# 1 0.027665 -0.003686 0.002114 0.000000 0.000000 0.000000
# 2 -0.003686 0.013408 -0.002377 0.000000 0.000000 0.000000
# 3 0.002114 -0.002377 0.011039 0.000000 0.000000 0.000000
# 4 0.000000 0.000000 0.000000 0.105161 0.000000 0.000000
# 5 0.000000 0.000000 0.000000 0.000000 0.041866 0.000000
# 6 0.000000 0.000000 0.000000 0.000000 0.000000 0.056713
#
#
# Mechanical properties :
#
#
# Convention : Reuss Voigt Hill
#
# Bulk Modulus (GPa) = 22.61755 27.99488 25.30622
# Shear Modulus (GPa) = 17.95413 23.06931 20.51172
#
# Velocity S-wave (km/s) = 2.82282 3.19977 3.01719
# Velocity P-wave (km/s) = 4.54560 5.10646 4.83417
#
# Compressibility (1/GPa) = 0.04421345
#
# Stress axis : x y z
#
# Youngs Moduli (GPa) = 36.14724 74.58363 90.58741
#
# Poissons Ratio (x) = 0.27493 -0.19154
# Poissons Ratio (y) = 0.13325 0.21534
# Poissons Ratio (z) = -0.07643 0.17729
#
# Static dielectric constant tensor:
#      x y z
#    x 1.851400 0.000000 0.000000 
#    y 0.000000 1.789800 0.000000 
#    z 0.000000 0.000000 1.916360 
# 
# From -- ./inp_files/2603.got.cif
#   From: 2010.05.17/outbox.cif.g08.bks.cpg/sg56_2_cif.got.tgz:2603.got - 2010.06.03 13:42:01.
