data_PCOD9431532
_publ_section_title
;
Structure prediction by ZEFSAII (Michael W. Deem and Ramdas Pophale) SiO2 
 PCOD9431532
Probable space group: P C C N
;
_chemical_formula_sum "Si O2"
_cell_formula_units_Z 64
_cell_length_a 8.333472
_cell_length_b 25.028782
_cell_length_c 13.483274
_cell_angle_alpha 90.000000
_cell_angle_beta 90.000000
_cell_angle_gamma 90.000000
_cell_volume 2812.296176
_symmetry_space_group_name_H-M "P C C N"
_symmetry_group_IT_number 56
_symmetry_cell_setting 'orthorhombic'
loop_
_space_group_symop_operation_xyz
x,y,z
1/2-x,1/2-y,z
1/2+x,-y,1/2-z
-x,1/2+y,1/2-z
-x,-y,-z
1/2+x,1/2+y,-z
1/2-x,y,1/2+z
x,1/2-y,1/2+z
loop_
_atom_site_type_symbol
_atom_site_label
_atom_site_fract_x
_atom_site_fract_y
_atom_site_fract_z
Si Si1 0.641108 0.909029 0.624826
Si Si2 0.488809 0.099490 0.873119
Si Si3 0.195238 0.056582 0.659777
Si Si4 0.309103 0.558666 0.157018
Si Si5 0.020064 0.597478 0.362103
Si Si6 0.632511 0.098395 0.130044
Si Si7 0.537779 0.691601 0.485956
Si Si8 0.913004 0.812670 0.981420
O O1 0.820689 0.925869 0.591722
O O2 0.671986 0.905978 0.743736
O O3 0.486560 0.946875 0.611320
O O4 0.588581 0.852895 0.575584
O O5 0.662087 0.079452 0.909385
O O6 0.504922 0.091304 0.755614
O O7 0.472903 0.160316 0.909581
O O8 0.351435 0.074332 0.598314
O O9 0.020238 0.059889 0.610904
O O10 0.243730 0.997895 0.695755
O O11 0.340747 0.598128 0.250044
O O12 0.011823 0.658773 0.395071
O O13 0.190921 0.577804 0.399982
O O14 0.574464 0.155447 0.085623
O O15 0.513334 0.754494 0.498872
O O16 0.724436 0.688913 0.451682
#
# Coordination Sequence:
#
# PCOD9431532 Si02
#       8
#     8   8   8   8   8   8   8   8
#     4   9  21  37  62  91 124 162 212 263 310 388
#     4   9  21  40  61  90 129 162 215 264 312 388
#     4  10  21  40  63  92 129 165 210 265 318 383
#     4  10  22  38  65  93 122 169 212 255 328 378
#     4  10  21  39  63  92 126 167 217 262 316 390
#     4  10  22  37  64  92 124 164 213 264 316 387
#     4  10  21  43  66  92 130 171 210 273 329 373
#     4  10  21  42  66  92 128 172 213 266 330 378
#
# _framework density 22.757206
#
# number of rings (size 3 to 8) (size 9 to 14) (size 15 to 20)
#    0.000    2.250    1.250    0.000   12.250    0.500 
#    4.500    3.750    0.000    0.000    0.000    0.000 
#    0.000    0.000    0.000    0.000    0.000    0.000 
#
# Total GULP energy -356294.673344 kJ/mol
# GULP energy per Si atom -5567.104271 kJ/mol
# Density = 2.270541 g / cm^3
# Si number density = 22.757206 Si / 1000 Ang^3
#
#
#
# Elastic Constant Matrix: (Units=GPa)
#
#
# Indices 1 2 3 4 5 6 
#
# 1 232.6946 36.3932 43.1942 0.0000 0.0000 0.0000
# 2 36.3932 89.0028 22.1808 0.0000 0.0000 0.0000
# 3 43.1942 22.1808 77.1588 0.0000 0.0000 0.0000
# 4 0.0000 0.0000 0.0000 21.7513 0.0000 0.0000
# 5 0.0000 0.0000 0.0000 0.0000 33.5785 0.0000
# 6 0.0000 0.0000 0.0000 0.0000 0.0000 33.6630
#
#
#
# Elastic Compliance Matrix: (Units=1/GPa)
#
#
# Indices 1 2 3 4 5 6 
#
# 1 0.004961 -0.001440 -0.002364 0.000000 0.000000 0.000000
# 2 -0.001440 0.012520 -0.002793 0.000000 0.000000 0.000000
# 3 -0.002364 -0.002793 0.015086 0.000000 0.000000 0.000000
# 4 0.000000 0.000000 0.000000 0.045974 0.000000 0.000000
# 5 0.000000 0.000000 0.000000 0.000000 0.029781 0.000000
# 6 0.000000 0.000000 0.000000 0.000000 0.000000 0.029706
#
#
# Mechanical properties :
#
#
# Convention : Reuss Voigt Hill
#
# Bulk Modulus (GPa) = 51.61250 66.93250 59.27250
# Shear Modulus (GPa) = 31.70956 37.60441 34.65699
#
# Velocity S-wave (km/s) = 3.73686 4.06940 3.90667
# Velocity P-wave (km/s) = 6.43022 7.18021 6.81554
#
# Compressibility (1/GPa) = 0.01937515
#
# Stress axis : x y z
#
# Youngs Moduli (GPa) = 201.55674 79.86962 66.28481
#
# Poissons Ratio (x) = 0.11499 0.15667
# Poissons Ratio (y) = 0.29018 0.18515
# Poissons Ratio (z) = 0.47639 0.22310
#
# Static dielectric constant tensor:
#      x y z
#    x 1.966120 0.000000 0.000000 
#    y 0.000000 1.840560 0.000000 
#    z 0.000000 0.000000 1.932140 
# 
# From -- ./inp_files/11051.got.cif
#   From: 2010.05.17/outbox.cif.g08.bks.cpg/sg56_6_cif.got.tgz:11051.got - 2010.06.03 13:42:01.
