data_PCOD9431105
_publ_section_title
;
Structure prediction by ZEFSAII (Michael W. Deem and Ramdas Pophale) SiO2 
 PCOD9431105
Probable space group: P C C N
;
_chemical_formula_sum "Si O2"
_cell_formula_units_Z 60
_cell_length_a 14.846991
_cell_length_b 21.335231
_cell_length_c 8.472216
_cell_angle_alpha 90.000000
_cell_angle_beta 90.000000
_cell_angle_gamma 90.000000
_cell_volume 2683.692882
_symmetry_space_group_name_H-M "P C C N"
_symmetry_group_IT_number 56
_symmetry_cell_setting 'orthorhombic'
loop_
_space_group_symop_operation_xyz
x,y,z
1/2-x,1/2-y,z
1/2+x,-y,1/2-z
-x,1/2+y,1/2-z
-x,-y,-z
1/2+x,1/2+y,-z
1/2-x,y,1/2+z
x,1/2-y,1/2+z
loop_
_atom_site_type_symbol
_atom_site_label
_atom_site_fract_x
_atom_site_fract_y
_atom_site_fract_z
Si Si1 0.048606 0.817311 0.423875
Si Si2 0.370668 0.458002 0.800240
Si Si3 0.292194 0.987866 0.977208
Si Si4 0.069909 0.555739 0.757439
Si Si5 0.853672 0.288408 0.763013
Si Si6 0.298235 0.638372 0.043344
Si Si7 0.641404 0.813797 0.787312
Si Si8 0.250000 0.250000 0.968793
O O1 0.044753 0.891745 0.389546
O O2 0.071594 0.803042 0.604893
O O3 0.120082 0.779315 0.313595
O O4 0.951679 0.793921 0.366641
O O5 0.302083 0.479012 0.936346
O O6 0.333465 0.491686 0.642719
O O7 0.477448 0.470820 0.814173
O O8 0.363429 0.383935 0.774972
O O9 0.366476 0.995584 0.839872
O O10 0.270265 0.913971 0.979203
O O11 0.129164 0.597336 0.638136
O O12 0.846970 0.328823 0.603049
O O13 0.763905 0.312503 0.859259
O O14 0.668994 0.769950 0.643269
O O15 0.718627 0.806023 0.918660
#
# Coordination Sequence:
#
# PCOD9431105 Si02
#       8
#     8   8   8   8   8   8   8   4
#     4  11  24  40  65  98 137 176 234 280 347 428
#     4  11  25  42  72  97 138 178 234 289 354 408
#     4  12  22  47  67  95 138 182 233 295 343 416
#     4  11  24  45  65 100 133 181 234 292 346 422
#     4  12  24  42  65  97 138 186 220 285 347 418
#     4  12  24  43  68  95 139 183 239 275 351 423
#     4  10  22  42  65 103 129 176 226 281 346 426
#     4  10  20  40  72  90 142 170 214 288 354 400
#
# _framework density 22.357251999999999
#
# number of rings (size 3 to 8) (size 9 to 14) (size 15 to 20)
#    0.000    0.800    4.000    2.800    0.000    5.867 
#    0.000    1.333    0.000    0.000    0.000    0.000 
#    0.000    0.000    0.000    0.000    0.000    0.000 
#
# Total GULP energy -335118.689859 kJ/mol
# GULP energy per Si atom -5585.311498 kJ/mol
# Density = 2.230637 g / cm^3
# Si number density = 22.357252 Si / 1000 Ang^3
#
#
#
# Elastic Constant Matrix: (Units=GPa)
#
#
# Indices 1 2 3 4 5 6 
#
# 1 110.1964 2.9527 13.0892 0.0000 0.0000 0.0000
# 2 2.9527 39.9566 -9.3915 0.0000 0.0000 0.0000
# 3 13.0892 -9.3915 62.2271 0.0000 0.0000 0.0000
# 4 0.0000 0.0000 0.0000 21.8049 0.0000 0.0000
# 5 0.0000 0.0000 0.0000 0.0000 45.7139 0.0000
# 6 0.0000 0.0000 0.0000 0.0000 0.0000 29.2944
#
#
#
# Elastic Compliance Matrix: (Units=1/GPa)
#
#
# Indices 1 2 3 4 5 6 
#
# 1 0.009362 -0.001197 -0.002150 0.000000 0.000000 0.000000
# 2 -0.001197 0.026101 0.004191 0.000000 0.000000 0.000000
# 3 -0.002150 0.004191 0.017155 0.000000 0.000000 0.000000
# 4 0.000000 0.000000 0.000000 0.045861 0.000000 0.000000
# 5 0.000000 0.000000 0.000000 0.000000 0.021875 0.000000
# 6 0.000000 0.000000 0.000000 0.000000 0.000000 0.034136
#
#
# Mechanical properties :
#
#
# Convention : Reuss Voigt Hill
#
# Bulk Modulus (GPa) = 18.41434 25.07567 21.74500
# Shear Modulus (GPa) = 29.25607 33.07793 31.16700
#
# Velocity S-wave (km/s) = 3.62134 3.85062 3.73774
# Velocity P-wave (km/s) = 5.07344 5.56866 5.32681
#
# Compressibility (1/GPa) = 0.05430551
#
# Stress axis : x y z
#
# Youngs Moduli (GPa) = 106.81289 38.31313 58.29227
#
# Poissons Ratio (x) = 0.04587 0.12533
# Poissons Ratio (y) = 0.12788 -0.24430
# Poissons Ratio (z) = 0.22965 -0.16057
#
# Static dielectric constant tensor:
#      x y z
#    x 1.892920 0.000000 0.000000 
#    y 0.000000 1.824540 0.000000 
#    z 0.000000 0.000000 1.843810 
# 
# From -- ./inp_files/3679.got.cif
#   From: 2010.05.17/outbox.cif.g08.bks.cpg/sg56_2_cif.got.tgz:3679.got - 2010.06.03 13:42:01.
