data_PCOD9431396
_publ_section_title
;
Structure prediction by ZEFSAII (Michael W. Deem and Ramdas Pophale) SiO2 
 PCOD9431396
Probable space group: P C C N
;
_chemical_formula_sum "Si O2"
_cell_formula_units_Z 48
_cell_length_a 34.494679
_cell_length_b 4.941223
_cell_length_c 10.314128
_cell_angle_alpha 90.000000
_cell_angle_beta 90.000000
_cell_angle_gamma 90.000000
_cell_volume 1758.000843
_symmetry_space_group_name_H-M "P C C N"
_symmetry_group_IT_number 56
_symmetry_cell_setting 'orthorhombic'
loop_
_space_group_symop_operation_xyz
x,y,z
1/2-x,1/2-y,z
1/2+x,-y,1/2-z
-x,1/2+y,1/2-z
-x,-y,-z
1/2+x,1/2+y,-z
1/2-x,y,1/2+z
x,1/2-y,1/2+z
loop_
_atom_site_type_symbol
_atom_site_label
_atom_site_fract_x
_atom_site_fract_y
_atom_site_fract_z
Si Si1 0.929033 0.274006 0.580505
Si Si2 0.725084 0.511149 0.354769
Si Si3 0.084957 0.274007 0.737252
Si Si4 0.492609 0.345603 0.657376
Si Si5 0.661661 0.880221 0.686440
Si Si6 0.850732 0.116094 0.513436
O O1 0.925615 0.564689 0.646902
O O2 0.894254 0.221808 0.478908
O O3 0.974001 0.208872 0.550858
O O4 0.919252 0.065354 0.697871
O O5 0.750000 0.250000 0.320309
O O6 0.704692 0.666432 0.235851
O O7 0.686924 0.381564 0.423052
O O8 0.750000 0.750000 0.423288
O O9 0.052015 0.230212 0.629456
O O10 0.129126 0.196527 0.706223
O O11 0.496948 0.634340 0.725976
O O12 0.649876 0.683437 0.571075
O O13 0.658620 0.182631 0.634080
#
# Coordination Sequence:
#
# PCOD9431396 Si02
#       6
#     8   8   8   8   8   8
#     4   8  14  25  44  70  99 133 168 204 250 300
#     4  12  26  40  58  83 106 137 180 224 274 324
#     4   8  14  25  44  70  99 133 168 204 250 300
#     4   8  12  20  38  67  98 127 166 204 238 295
#     4  10  21  38  58  80 109 142 176 218 267 318
#     4  10  21  38  58  80 109 142 176 218 267 318
#
# _framework density 27.303740999999999
#
# number of rings (size 3 to 8) (size 9 to 14) (size 15 to 20)
#    0.000    2.667    0.000    2.000    0.000    4.000 
#    0.000    0.000    0.000    1.000    0.000    0.000 
#    0.000   42.667    0.000    0.000    0.000    5.667 
#
# Total GULP energy -268497.270572 kJ/mol
# GULP energy per Si atom -5593.693137 kJ/mol
# Density = 2.724160 g / cm^3
# Si number density = 27.303741 Si / 1000 Ang^3
#
#
#
# Elastic Constant Matrix: (Units=GPa)
#
#
# Indices 1 2 3 4 5 6 
#
# 1 199.7395 21.6704 33.6269 0.0000 0.0000 0.0000
# 2 21.6704 130.9469 27.5200 0.0000 0.0000 0.0000
# 3 33.6269 27.5200 72.9439 0.0000 0.0000 0.0000
# 4 0.0000 0.0000 0.0000 18.4247 0.0000 0.0000
# 5 0.0000 0.0000 0.0000 0.0000 33.9974 0.0000
# 6 0.0000 0.0000 0.0000 0.0000 0.0000 49.9033
#
#
#
# Elastic Compliance Matrix: (Units=1/GPa)
#
#
# Indices 1 2 3 4 5 6 
#
# 1 0.005448 -0.000406 -0.002358 0.000000 0.000000 0.000000
# 2 -0.000406 0.008325 -0.002954 0.000000 0.000000 0.000000
# 3 -0.002358 -0.002954 0.015911 0.000000 0.000000 0.000000
# 4 0.000000 0.000000 0.000000 0.054275 0.000000 0.000000
# 5 0.000000 0.000000 0.000000 0.000000 0.029414 0.000000
# 6 0.000000 0.000000 0.000000 0.000000 0.000000 0.020039
#
#
# Mechanical properties :
#
#
# Convention : Reuss Voigt Hill
#
# Bulk Modulus (GPa) = 54.80211 63.25163 59.02687
# Shear Modulus (GPa) = 33.12836 41.85262 37.49049
#
# Velocity S-wave (km/s) = 3.48706 3.91941 3.70954
# Velocity P-wave (km/s) = 6.02724 6.61049 6.32559
#
# Compressibility (1/GPa) = 0.01824747
#
# Stress axis : x y z
#
# Youngs Moduli (GPa) = 183.56818 120.12624 62.85132
#
# Poissons Ratio (x) = 0.04876 0.14821
# Poissons Ratio (y) = 0.07451 0.18563
# Poissons Ratio (z) = 0.43288 0.35480
#
# Static dielectric constant tensor:
#      x y z
#    x 2.261860 0.000000 0.000000 
#    y 0.000000 2.027560 0.000000 
#    z 0.000000 0.000000 2.147610 
# 
# From -- ./inp_files/13427.got.cif
#   From: 2010.05.17/outbox.cif.g08.bks.cpg/sg56_7_cif.got.tgz:13427.got - 2010.06.03 13:42:01.
