data_PCOD9431224
_publ_section_title
;
Structure prediction by ZEFSAII (Michael W. Deem and Ramdas Pophale) SiO2 
 PCOD9431224
Probable space group: P C C N
;
_chemical_formula_sum "Si O2"
_cell_formula_units_Z 40
_cell_length_a 13.799675
_cell_length_b 8.686751
_cell_length_c 14.706495
_cell_angle_alpha 90.000000
_cell_angle_beta 90.000000
_cell_angle_gamma 90.000000
_cell_volume 1762.931391
_symmetry_space_group_name_H-M "P C C N"
_symmetry_group_IT_number 56
_symmetry_cell_setting 'orthorhombic'
loop_
_space_group_symop_operation_xyz
x,y,z
1/2-x,1/2-y,z
1/2+x,-y,1/2-z
-x,1/2+y,1/2-z
-x,-y,-z
1/2+x,1/2+y,-z
1/2-x,y,1/2+z
x,1/2-y,1/2+z
loop_
_atom_site_type_symbol
_atom_site_label
_atom_site_fract_x
_atom_site_fract_y
_atom_site_fract_z
Si Si1 0.274848 0.596236 0.522787
Si Si2 0.647301 0.659604 0.924103
Si Si3 0.140896 0.709456 0.215700
Si Si4 0.029514 0.037304 0.235326
Si Si5 0.572629 0.894157 0.057984
O O1 0.250000 0.750000 0.471588
O O2 0.178760 0.513812 0.556761
O O3 0.338351 0.645426 0.611962
O O4 0.325749 0.477538 0.457876
O O5 0.750000 0.750000 0.909855
O O6 0.582951 0.650822 0.834745
O O7 0.586757 0.733177 0.006521
O O8 0.250000 0.750000 0.247151
O O9 0.085745 0.573020 0.270206
O O10 0.074167 0.865077 0.223193
O O11 0.049619 0.096691 0.337245
O O12 0.500000 0.000000 0.000000
#
# Coordination Sequence:
#
# PCOD9431224 Si02
#       5
#     8   8   8   8   8
#     4  10  20  45  65  92 148 187 225 309 367 410
#     4  10  23  42  70 101 147 192 235 305 370 431
#     4  11  24  44  71 104 146 189 238 305 360 437
#     4  12  24  43  75  99 139 199 242 290 380 444
#     4  11  23  41  65 101 138 180 247 303 354 442
#
# _framework density 22.689484
#
# number of rings (size 3 to 8) (size 9 to 14) (size 15 to 20)
#    0.000    1.200    6.000    1.200    2.800    3.200 
#    0.000    6.000    0.000    0.000    0.000    0.000 
#    0.000    0.000    0.000    0.000    0.000    0.000 
#
# Total GULP energy -223136.787227 kJ/mol
# GULP energy per Si atom -5578.419681 kJ/mol
# Density = 2.263784 g / cm^3
# Si number density = 22.689484 Si / 1000 Ang^3
#
#
#
# Elastic Constant Matrix: (Units=GPa)
#
#
# Indices 1 2 3 4 5 6 
#
# 1 93.6131 31.1598 15.9556 0.0000 0.0000 0.0000
# 2 31.1598 115.6333 29.8557 0.0000 0.0000 0.0000
# 3 15.9556 29.8557 111.9306 0.0000 0.0000 0.0000
# 4 0.0000 0.0000 0.0000 23.7526 0.0000 0.0000
# 5 0.0000 0.0000 0.0000 0.0000 18.6962 0.0000
# 6 0.0000 0.0000 0.0000 0.0000 0.0000 50.6197
#
#
#
# Elastic Compliance Matrix: (Units=1/GPa)
#
#
# Indices 1 2 3 4 5 6 
#
# 1 0.011818 -0.002953 -0.000897 0.000000 0.000000 0.000000
# 2 -0.002953 0.010026 -0.002253 0.000000 0.000000 0.000000
# 3 -0.000897 -0.002253 0.009663 0.000000 0.000000 0.000000
# 4 0.000000 0.000000 0.000000 0.042101 0.000000 0.000000
# 5 0.000000 0.000000 0.000000 0.000000 0.053487 0.000000
# 6 0.000000 0.000000 0.000000 0.000000 0.000000 0.019755
#
#
# Mechanical properties :
#
#
# Convention : Reuss Voigt Hill
#
# Bulk Modulus (GPa) = 51.81303 52.79104 52.30203
# Shear Modulus (GPa) = 30.21346 34.89409 32.55378
#
# Velocity S-wave (km/s) = 3.65308 3.92586 3.79192
# Velocity P-wave (km/s) = 6.37798 6.62322 6.50175
#
# Compressibility (1/GPa) = 0.01930017
#
# Stress axis : x y z
#
# Youngs Moduli (GPa) = 84.61606 99.74519 103.48776
#
# Poissons Ratio (x) = 0.29455 0.09283
# Poissons Ratio (y) = 0.24987 0.23318
# Poissons Ratio (z) = 0.07590 0.22475
#
# Static dielectric constant tensor:
#      x y z
#    x 2.010030 0.000000 0.000000 
#    y 0.000000 1.896530 0.000000 
#    z 0.000000 0.000000 1.872140 
# 
# From -- ./inp_files/12064.got.cif
#   From: 2010.05.17/outbox.cif.g08.bks.cpg/sg56_7_cif.got.tgz:12064.got - 2010.06.03 13:42:01.
