data_PCOD9431196
_publ_section_title
;
Structure prediction by ZEFSAII (Michael W. Deem and Ramdas Pophale) SiO2 
 PCOD9431196
Probable space group: P C C N
;
_chemical_formula_sum "Si O2"
_cell_formula_units_Z 48
_cell_length_a 12.029756
_cell_length_b 11.317226
_cell_length_c 17.458529
_cell_angle_alpha 90.000000
_cell_angle_beta 90.000000
_cell_angle_gamma 90.000000
_cell_volume 2376.864673
_symmetry_space_group_name_H-M "P C C N"
_symmetry_group_IT_number 56
_symmetry_cell_setting 'orthorhombic'
loop_
_space_group_symop_operation_xyz
x,y,z
1/2-x,1/2-y,z
1/2+x,-y,1/2-z
-x,1/2+y,1/2-z
-x,-y,-z
1/2+x,1/2+y,-z
1/2-x,y,1/2+z
x,1/2-y,1/2+z
loop_
_atom_site_type_symbol
_atom_site_label
_atom_site_fract_x
_atom_site_fract_y
_atom_site_fract_z
Si Si1 0.565995 0.618590 0.528854
Si Si2 0.745073 0.611868 0.408717
Si Si3 0.068898 0.306941 0.794976
Si Si4 0.298974 0.080448 0.252057
Si Si5 0.643089 0.333872 0.184874
Si Si6 0.015522 0.121431 0.046206
O O1 0.500000 0.500000 0.500000
O O2 0.687526 0.596083 0.491003
O O3 0.558768 0.638234 0.619965
O O4 0.536044 0.751616 0.496652
O O5 0.750000 0.750000 0.391340
O O6 0.675895 0.559973 0.338108
O O7 0.873275 0.581867 0.409219
O O8 0.118416 0.174292 0.791087
O O9 0.171844 0.376497 0.756644
O O10 0.954745 0.307449 0.746943
O O11 0.310087 0.960977 0.295970
O O12 0.750000 0.250000 0.186224
O O13 0.582955 0.345004 0.103456
O O14 0.000000 0.000000 0.000000
#
# Coordination Sequence:
#
# PCOD9431196 Si02
#       6
#     8   8   8   8   8   8
#     4  11  25  41  71  98 140 180 234 286 352 430
#     4  10  20  43  66  94 131 183 228 285 346 419
#     4  11  24  44  71 106 133 190 240 286 358 439
#     4  11  23  43  72  97 138 181 240 295 354 430
#     4  12  28  43  72 104 144 185 238 307 361 422
#     4  11  25  44  65 100 139 181 230 293 357 417
#
# _framework density 20.194669999999999
#
# number of rings (size 3 to 8) (size 9 to 14) (size 15 to 20)
#    0.000    1.000    3.333    3.000   14.000    1.333 
#    0.000    0.833    0.000    0.000    0.000    0.000 
#    0.000    0.000    0.000    0.000    0.000    0.000 
#
# Total GULP energy -267356.664758 kJ/mol
# GULP energy per Si atom -5569.930516 kJ/mol
# Density = 2.014871 g / cm^3
# Si number density = 20.194670 Si / 1000 Ang^3
#
#
#
# Elastic Constant Matrix: (Units=GPa)
#
#
# Indices 1 2 3 4 5 6 
#
# 1 108.7874 59.6666 35.6080 0.0000 0.0000 0.0000
# 2 59.6666 125.2731 43.5590 0.0000 0.0000 0.0000
# 3 35.6080 43.5590 114.3966 0.0000 0.0000 0.0000
# 4 0.0000 0.0000 0.0000 9.5522 0.0000 0.0000
# 5 0.0000 0.0000 0.0000 0.0000 28.6328 0.0000
# 6 0.0000 0.0000 0.0000 0.0000 0.0000 17.9313
#
#
#
# Elastic Compliance Matrix: (Units=1/GPa)
#
#
# Indices 1 2 3 4 5 6 
#
# 1 0.012797 -0.005429 -0.001916 0.000000 0.000000 0.000000
# 2 -0.005429 0.011504 -0.002690 0.000000 0.000000 0.000000
# 3 -0.001916 -0.002690 0.010362 0.000000 0.000000 0.000000
# 4 0.000000 0.000000 0.000000 0.104688 0.000000 0.000000
# 5 0.000000 0.000000 0.000000 0.000000 0.034925 0.000000
# 6 0.000000 0.000000 0.000000 0.000000 0.000000 0.055768
#
#
# Mechanical properties :
#
#
# Convention : Reuss Voigt Hill
#
# Bulk Modulus (GPa) = 68.52960 69.56938 69.04949
# Shear Modulus (GPa) = 19.60944 25.19817 22.40380
#
# Velocity S-wave (km/s) = 3.11950 3.53620 3.33437
# Velocity P-wave (km/s) = 6.85443 7.15522 7.00644
#
# Compressibility (1/GPa) = 0.01459224
#
# Stress axis : x y z
#
# Youngs Moduli (GPa) = 78.14341 86.92787 96.50252
#
# Poissons Ratio (x) = 0.47192 0.18491
# Poissons Ratio (y) = 0.42423 0.25964
# Poissons Ratio (z) = 0.14973 0.23388
#
# Static dielectric constant tensor:
#      x y z
#    x 1.790110 0.000000 0.000000 
#    y 0.000000 1.758470 0.000000 
#    z 0.000000 0.000000 1.696040 
# 
# From -- ./inp_files/15607.got.cif
#   From: 2010.05.17/outbox.cif.g08.bks.cpg/sg56_8_cif.got.tgz:15607.got - 2010.06.03 13:42:01.
