data_PCOD9431538
_publ_section_title
;
Structure prediction by ZEFSAII (Michael W. Deem and Ramdas Pophale) SiO2 
 PCOD9431538
Probable space group: P C C N
;
_chemical_formula_sum "Si O2"
_cell_formula_units_Z 36
_cell_length_a 12.187402
_cell_length_b 4.814972
_cell_length_c 23.553460
_cell_angle_alpha 90.000000
_cell_angle_beta 90.000000
_cell_angle_gamma 90.000000
_cell_volume 1382.164125
_symmetry_space_group_name_H-M "P C C N"
_symmetry_group_IT_number 56
_symmetry_cell_setting 'orthorhombic'
loop_
_space_group_symop_operation_xyz
x,y,z
1/2-x,1/2-y,z
1/2+x,-y,1/2-z
-x,1/2+y,1/2-z
-x,-y,-z
1/2+x,1/2+y,-z
1/2-x,y,1/2+z
x,1/2-y,1/2+z
loop_
_atom_site_type_symbol
_atom_site_label
_atom_site_fract_x
_atom_site_fract_y
_atom_site_fract_z
Si Si1 0.638618 0.182795 0.728739
Si Si2 0.103298 0.309799 0.694373
Si Si3 0.750000 0.750000 0.512492
Si Si4 0.544572 0.480409 0.063040
Si Si5 0.906825 0.009267 0.415605
O O1 0.750000 0.250000 0.696835
O O2 0.528673 0.216484 0.693612
O O3 0.633045 0.383540 0.784279
O O4 0.637918 0.873256 0.751590
O O5 0.143209 0.141538 0.639516
O O6 0.832292 0.583865 0.554250
O O7 0.823900 0.944872 0.468694
O O8 0.519878 0.161353 0.075412
O O9 0.453706 0.679798 0.094308
O O10 0.500000 0.500000 0.000000
#
# Coordination Sequence:
#
# PCOD9431538 Si02
#       5
#     8   8   4   8   8
#     4  10  21  39  64  87 130 161 191 245 315 358
#     4  10  22  40  60  95 122 156 202 254 290 362
#     4  10  22  38  62  86 112 166 192 248 304 350
#     4  10  22  40  57  85 124 155 194 250 305 346
#     4  11  23  39  62  90 120 154 208 250 286 371
#
# _framework density 26.046109000000001
#
# number of rings (size 3 to 8) (size 9 to 14) (size 15 to 20)
#    0.000    1.778    0.000    4.667    3.111    8.000 
#    4.000    0.000    0.000    0.000    0.000    0.000 
#    0.000    0.000    0.000    0.000    0.000    0.000 
#
# Total GULP energy -200867.936699 kJ/mol
# GULP energy per Si atom -5579.664908 kJ/mol
# Density = 2.598683 g / cm^3
# Si number density = 26.046109 Si / 1000 Ang^3
#
#
#
# Elastic Constant Matrix: (Units=GPa)
#
#
# Indices 1 2 3 4 5 6 
#
# 1 173.6639 6.9933 -19.8630 0.0000 0.0000 0.0000
# 2 6.9933 97.2374 -11.7899 0.0000 0.0000 0.0000
# 3 -19.8630 -11.7899 48.6259 0.0000 0.0000 0.0000
# 4 0.0000 0.0000 0.0000 12.9514 0.0000 0.0000
# 5 0.0000 0.0000 0.0000 0.0000 -8.1374 0.0000
# 6 0.0000 0.0000 0.0000 0.0000 0.0000 29.9471
#
#
#
# Elastic Compliance Matrix: (Units=1/GPa)
#
#
# Indices 1 2 3 4 5 6 
#
# 1 0.006042 -0.000139 0.002434 0.000000 0.000000 0.000000
# 2 -0.000139 0.010599 0.002513 0.000000 0.000000 0.000000
# 3 0.002434 0.002513 0.022169 0.000000 0.000000 0.000000
# 4 0.000000 0.000000 0.000000 0.077211 0.000000 0.000000
# 5 0.000000 0.000000 0.000000 0.000000 -0.122889 0.000000
# 6 0.000000 0.000000 0.000000 0.000000 0.000000 0.033392
#
#
# Mechanical properties :
#
#
# Convention : Reuss Voigt Hill
#
# Bulk Modulus (GPa) = 20.65021 30.02313 25.33667
# Shear Modulus (GPa) = 151.28343 29.89801 90.59072
#
# Velocity S-wave (km/s) = 7.62948 3.39172 5.90393
# Velocity P-wave (km/s) = 9.24973 5.18559 7.49826
#
# Compressibility (1/GPa) = 0.04842566
#
# Stress axis : x y z
#
# Youngs Moduli (GPa) = 165.49995 94.35018 45.10836
#
# Poissons Ratio (x) = 0.01315 -0.10981
# Poissons Ratio (y) = 0.02307 -0.11335
# Poissons Ratio (z) = -0.40289 -0.23709
#
# Static dielectric constant tensor:
#      x y z
#    x 2.393120 0.000000 0.000000 
#    y 0.000000 2.305520 0.000000 
#    z 0.000000 0.000000 2.090790 
# 
# From -- ./inp_files/22778.got.cif
#   From: 2010.05.17/outbox.cif.g08.bks.cpg/sg56_12_cif.got.tgz:22778.got - 2010.06.03 13:42:01.
