data_PCOD9431839
_publ_section_title
;
Structure prediction by ZEFSAII (Michael W. Deem and Ramdas Pophale) SiO2 
 PCOD9431839
Probable space group: P C C N
;
_chemical_formula_sum "Si O2"
_cell_formula_units_Z 36
_cell_length_a 12.535191
_cell_length_b 5.035687
_cell_length_c 22.243238
_cell_angle_alpha 90.000000
_cell_angle_beta 90.000000
_cell_angle_gamma 90.000000
_cell_volume 1404.066549
_symmetry_space_group_name_H-M "P C C N"
_symmetry_group_IT_number 56
_symmetry_cell_setting 'orthorhombic'
loop_
_space_group_symop_operation_xyz
x,y,z
1/2-x,1/2-y,z
1/2+x,-y,1/2-z
-x,1/2+y,1/2-z
-x,-y,-z
1/2+x,1/2+y,-z
1/2-x,y,1/2+z
x,1/2-y,1/2+z
loop_
_atom_site_type_symbol
_atom_site_label
_atom_site_fract_x
_atom_site_fract_y
_atom_site_fract_z
Si Si1 0.844545 0.106495 0.854645
Si Si2 0.529697 0.725294 0.948618
Si Si3 0.750000 0.750000 0.248424
Si Si4 0.025204 0.132359 0.286104
Si Si5 0.675720 0.500200 0.542272
O O1 0.750000 0.250000 0.888855
O O2 0.938212 0.303660 0.835614
O O3 0.902902 0.897558 0.895467
O O4 0.785994 0.977791 0.796114
O O5 0.425553 0.875276 0.922031
O O6 0.500000 0.500000 0.000000
O O7 0.611042 0.915321 0.983218
O O8 0.644732 0.753044 0.206820
O O9 0.982333 0.324504 0.231650
O O10 0.750000 0.250000 0.533132
O O11 0.750000 0.750000 0.561565
#
# Coordination Sequence:
#
# PCOD9431839 Si02
#       5
#     8   8   4   8   8
#     4  11  24  42  73 115 144 195 254 304 384 461
#     4  11  26  42  72 111 149 196 256 316 367 457
#     4  10  22  42  74 104 146 188 236 314 368 460
#     4  10  21  43  68 105 144 178 233 304 376 441
#     4  11  24  47  70  97 146 206 243 314 378 434
#
# _framework density 25.639813
#
# number of rings (size 3 to 8) (size 9 to 14) (size 15 to 20)
#    0.000    1.333    4.444    0.000    4.667    1.778 
#    0.000    2.222    9.778    0.000    0.000    0.000 
#    0.000    0.000    0.000    0.000    0.000    0.000 
#
# Total GULP energy -201218.030537 kJ/mol
# GULP energy per Si atom -5589.389737 kJ/mol
# Density = 2.558146 g / cm^3
# Si number density = 25.639813 Si / 1000 Ang^3
#
#
#
# Elastic Constant Matrix: (Units=GPa)
#
#
# Indices 1 2 3 4 5 6 
#
# 1 255.5588 70.7132 48.6465 0.0000 0.0000 0.0000
# 2 70.7132 144.7854 25.7146 0.0000 0.0000 0.0000
# 3 48.6465 25.7146 33.5892 0.0000 0.0000 0.0000
# 4 0.0000 0.0000 0.0000 23.7309 0.0000 0.0000
# 5 0.0000 0.0000 0.0000 0.0000 22.1703 0.0000
# 6 0.0000 0.0000 0.0000 0.0000 0.0000 70.7098
#
#
#
# Elastic Compliance Matrix: (Units=1/GPa)
#
#
# Indices 1 2 3 4 5 6 
#
# 1 0.005677 -0.001519 -0.007059 0.000000 0.000000 0.000000
# 2 -0.001519 0.008400 -0.004231 0.000000 0.000000 0.000000
# 3 -0.007059 -0.004231 0.043234 0.000000 0.000000 0.000000
# 4 0.000000 0.000000 0.000000 0.042139 0.000000 0.000000
# 5 0.000000 0.000000 0.000000 0.000000 0.045105 0.000000
# 6 0.000000 0.000000 0.000000 0.000000 0.000000 0.014142
#
#
# Mechanical properties :
#
#
# Convention : Reuss Voigt Hill
#
# Bulk Modulus (GPa) = 31.55249 80.45356 56.00303
# Shear Modulus (GPa) = 25.65683 42.57948 34.11815
#
# Velocity S-wave (km/s) = 3.16676 4.07956 3.65179
# Velocity P-wave (km/s) = 5.06990 7.32372 6.29845
#
# Compressibility (1/GPa) = 0.03169322
#
# Stress axis : x y z
#
# Youngs Moduli (GPa) = 176.14951 119.04695 23.12998
#
# Poissons Ratio (x) = 0.18082 0.16328
# Poissons Ratio (y) = 0.26756 0.09786
# Poissons Ratio (z) = 1.24345 0.50368
#
# Static dielectric constant tensor:
#      x y z
#    x 2.178490 0.000000 0.000000 
#    y 0.000000 2.132040 0.000000 
#    z 0.000000 0.000000 2.083970 
# 
# From -- ./inp_files/20797.got.cif
#   From: 2010.05.17/outbox.cif.g08.bks.cpg/sg56_11_cif.got.tgz:20797.got - 2010.06.03 13:42:01.
