data_PCOD9431018
_publ_section_title
;
Structure prediction by ZEFSAII (Michael W. Deem and Ramdas Pophale) SiO2 
 PCOD9431018
Probable space group: P C C N
;
_chemical_formula_sum "Si O2"
_cell_formula_units_Z 40
_cell_length_a 8.693531
_cell_length_b 13.795155
_cell_length_c 16.099289
_cell_angle_alpha 90.000000
_cell_angle_beta 90.000000
_cell_angle_gamma 90.000000
_cell_volume 1930.765314
_symmetry_space_group_name_H-M "P C C N"
_symmetry_group_IT_number 56
_symmetry_cell_setting 'orthorhombic'
loop_
_space_group_symop_operation_xyz
x,y,z
1/2-x,1/2-y,z
1/2+x,-y,1/2-z
-x,1/2+y,1/2-z
-x,-y,-z
1/2+x,1/2+y,-z
1/2-x,y,1/2+z
x,1/2-y,1/2+z
loop_
_atom_site_type_symbol
_atom_site_label
_atom_site_fract_x
_atom_site_fract_y
_atom_site_fract_z
Si Si1 0.334599 0.351039 0.637017
Si Si2 0.681949 0.429993 0.630579
Si Si3 0.344594 0.846582 0.207294
Si Si4 0.691613 0.649515 0.687101
Si Si5 0.331569 0.971714 0.039084
O O1 0.250000 0.250000 0.619385
O O2 0.518899 0.371469 0.632341
O O3 0.295735 0.372017 0.732919
O O4 0.263537 0.427949 0.572352
O O5 0.777528 0.395647 0.709950
O O6 0.676033 0.547875 0.639509
O O7 0.748523 0.417437 0.537676
O O8 0.250000 0.750000 0.192965
O O9 0.523089 0.825614 0.221304
O O10 0.337656 0.908939 0.122753
O O11 0.750000 0.750000 0.645197
O O12 0.500000 0.000000 0.000000
#
# Coordination Sequence:
#
# PCOD9431018 Si02
#       5
#     8   8   8   8   8
#     4  10  20  39  69  99 132 176 226 273 341 407
#     4  11  22  44  69  95 134 176 222 283 337 401
#     4  12  24  41  68  96 135 176 223 278 340 406
#     4  11  21  39  68  96 128 177 225 269 341 407
#     4  10  21  42  67  96 132 177 214 280 341 396
#
# _framework density 20.717172000000001
#
# number of rings (size 3 to 8) (size 9 to 14) (size 15 to 20)
#    0.000    1.200    6.000    2.400    0.000    1.600 
#    0.000    1.000    0.000    0.000    0.000    0.000 
#    0.000    0.000    0.000    0.000    0.000    0.000 
#
# Total GULP energy -222678.249613 kJ/mol
# GULP energy per Si atom -5566.956240 kJ/mol
# Density = 2.067002 g / cm^3
# Si number density = 20.717172 Si / 1000 Ang^3
#
#
#
# Elastic Constant Matrix: (Units=GPa)
#
#
# Indices 1 2 3 4 5 6 
#
# 1 52.7041 29.5947 14.6531 0.0000 0.0000 0.0000
# 2 29.5947 120.2441 42.0949 0.0000 0.0000 0.0000
# 3 14.6531 42.0949 144.9171 0.0000 0.0000 0.0000
# 4 0.0000 0.0000 0.0000 -11.6971 0.0000 0.0000
# 5 0.0000 0.0000 0.0000 0.0000 19.5115 0.0000
# 6 0.0000 0.0000 0.0000 0.0000 0.0000 16.7760
#
#
#
# Elastic Compliance Matrix: (Units=1/GPa)
#
#
# Indices 1 2 3 4 5 6 
#
# 1 0.022085 -0.005181 -0.000728 0.000000 0.000000 0.000000
# 2 -0.005181 0.010473 -0.002518 0.000000 0.000000 0.000000
# 3 -0.000728 -0.002518 0.007706 0.000000 0.000000 0.000000
# 4 0.000000 0.000000 0.000000 -0.085492 0.000000 0.000000
# 5 0.000000 0.000000 0.000000 0.000000 0.051252 0.000000
# 6 0.000000 0.000000 0.000000 0.000000 0.000000 0.059609
#
#
# Mechanical properties :
#
#
# Convention : Reuss Voigt Hill
#
# Bulk Modulus (GPa) = 42.71764 54.50561 48.61163
# Shear Modulus (GPa) = 55.37630 20.35293 37.86462
#
# Velocity S-wave (km/s) = 5.17568 3.13776 4.27979
# Velocity P-wave (km/s) = 7.50874 6.28441 6.92369
#
# Compressibility (1/GPa) = 0.02340953
#
# Stress axis : x y z
#
# Youngs Moduli (GPa) = 45.27862 95.48237 129.77494
#
# Poissons Ratio (x) = 0.49467 0.09451
# Poissons Ratio (y) = 0.23458 0.32682
# Poissons Ratio (z) = 0.03297 0.24046
#
# Static dielectric constant tensor:
#      x y z
#    x 1.832100 0.000000 0.000000 
#    y 0.000000 1.809460 0.000000 
#    z 0.000000 0.000000 1.801470 
# 
# From -- ./inp_files/10383.got.cif
#   From: 2010.05.17/outbox.cif.g08.bks.cpg/sg56_6_cif.got.tgz:10383.got - 2010.06.03 13:42:01.
