data_PCOD9431253
_publ_section_title
;
Structure prediction by ZEFSAII (Michael W. Deem and Ramdas Pophale) SiO2 
 PCOD9431253
Probable space group: P C C N
;
_chemical_formula_sum "Si O2"
_cell_formula_units_Z 44
_cell_length_a 28.129351
_cell_length_b 7.174023
_cell_length_c 9.496730
_cell_angle_alpha 90.000000
_cell_angle_beta 90.000000
_cell_angle_gamma 90.000000
_cell_volume 1916.445917
_symmetry_space_group_name_H-M "P C C N"
_symmetry_group_IT_number 56
_symmetry_cell_setting 'orthorhombic'
loop_
_space_group_symop_operation_xyz
x,y,z
1/2-x,1/2-y,z
1/2+x,-y,1/2-z
-x,1/2+y,1/2-z
-x,-y,-z
1/2+x,1/2+y,-z
1/2-x,y,1/2+z
x,1/2-y,1/2+z
loop_
_atom_site_type_symbol
_atom_site_label
_atom_site_fract_x
_atom_site_fract_y
_atom_site_fract_z
Si Si1 0.750000 0.250000 0.217718
Si Si2 0.814406 0.348941 0.978853
Si Si3 0.392427 0.949434 0.427125
Si Si4 0.045039 0.075320 0.687004
Si Si5 0.939535 0.486328 0.289789
Si Si6 0.390407 0.392262 0.445320
O O1 0.710691 0.319089 0.329146
O O2 0.776405 0.383780 0.104636
O O3 0.848700 0.523940 0.962078
O O4 0.846485 0.172296 0.031508
O O5 0.423001 0.935724 0.282404
O O6 0.429697 0.914630 0.554610
O O7 0.381823 0.172333 0.431886
O O8 0.059299 0.288512 0.714321
O O9 0.060024 0.060640 0.524985
O O10 0.990725 0.068587 0.732991
O O11 0.893645 0.470151 0.189580
#
# Coordination Sequence:
#
# PCOD9431253 Si02
#       6
#     4   8   8   8   8   8
#     4  10  24  42  62  98 104 140 196 250 286 378
#     4  11  22  42  66  80 122 144 188 242 308 335
#     4  10  22  38  57  85 113 157 191 230 284 345
#     4  10  21  34  53  82 120 152 202 234 266 328
#     4  10  21  34  53  82 120 152 202 234 266 328
#     4  10  22  38  57  85 113 157 191 230 284 345
#
# _framework density 22.959167000000001
#
# number of rings (size 3 to 8) (size 9 to 14) (size 15 to 20)
#    0.000    1.818    0.000    3.273    5.091    0.000 
#    0.000    5.455    0.000    0.000    0.000    0.000 
#    0.000    0.000    0.000    0.000    0.000    0.000 
#
# Total GULP energy -245267.634752 kJ/mol
# GULP energy per Si atom -5574.264426 kJ/mol
# Density = 2.290691 g / cm^3
# Si number density = 22.959167 Si / 1000 Ang^3
#
#
#
# Elastic Constant Matrix: (Units=GPa)
#
#
# Indices 1 2 3 4 5 6 
#
# 1 67.6507 10.5037 9.2805 0.0000 0.0000 0.0000
# 2 10.5037 54.3450 3.2404 0.0000 0.0000 0.0000
# 3 9.2805 3.2404 87.7641 0.0000 0.0000 0.0000
# 4 0.0000 0.0000 0.0000 12.3516 0.0000 0.0000
# 5 0.0000 0.0000 0.0000 0.0000 38.2464 0.0000
# 6 0.0000 0.0000 0.0000 0.0000 0.0000 7.4631
#
#
#
# Elastic Compliance Matrix: (Units=1/GPa)
#
#
# Indices 1 2 3 4 5 6 
#
# 1 0.015440 -0.002893 -0.001526 0.000000 0.000000 0.000000
# 2 -0.002893 0.018984 -0.000395 0.000000 0.000000 0.000000
# 3 -0.001526 -0.000395 0.011570 0.000000 0.000000 0.000000
# 4 0.000000 0.000000 0.000000 0.080961 0.000000 0.000000
# 5 0.000000 0.000000 0.000000 0.000000 0.026146 0.000000
# 6 0.000000 0.000000 0.000000 0.000000 0.000000 0.133993
#
#
# Mechanical properties :
#
#
# Convention : Reuss Voigt Hill
#
# Bulk Modulus (GPa) = 27.49830 28.42321 27.96075
# Shear Modulus (GPa) = 16.18939 24.06125 20.12532
#
# Velocity S-wave (km/s) = 2.65833 3.24080 2.96390
# Velocity P-wave (km/s) = 4.62875 5.13911 4.89059
#
# Compressibility (1/GPa) = 0.03636589
#
# Stress axis : x y z
#
# Youngs Moduli (GPa) = 64.76528 52.67671 86.42955
#
# Poissons Ratio (x) = 0.15241 0.13188
# Poissons Ratio (y) = 0.18739 0.03414
# Poissons Ratio (z) = 0.09882 0.02081
#
# Static dielectric constant tensor:
#      x y z
#    x 1.887810 0.000000 0.000000 
#    y 0.000000 1.864930 0.000000 
#    z 0.000000 0.000000 2.069050 
# 
# From -- ./inp_files/2188.got.cif
#   From: 2010.05.17/outbox.cif.g08.bks.cpg/sg56_2_cif.got.tgz:2188.got - 2010.06.03 13:42:01.
