data_PCOD9431222
_publ_section_title
;
Structure prediction by ZEFSAII (Michael W. Deem and Ramdas Pophale) SiO2 
 PCOD9431222
Probable space group: P C C N
;
_chemical_formula_sum "Si O2"
_cell_formula_units_Z 40
_cell_length_a 13.751688
_cell_length_b 9.289901
_cell_length_c 15.094408
_cell_angle_alpha 90.000000
_cell_angle_beta 90.000000
_cell_angle_gamma 90.000000
_cell_volume 1928.338095
_symmetry_space_group_name_H-M "P C C N"
_symmetry_group_IT_number 56
_symmetry_cell_setting 'orthorhombic'
loop_
_space_group_symop_operation_xyz
x,y,z
1/2-x,1/2-y,z
1/2+x,-y,1/2-z
-x,1/2+y,1/2-z
-x,-y,-z
1/2+x,1/2+y,-z
1/2-x,y,1/2+z
x,1/2-y,1/2+z
loop_
_atom_site_type_symbol
_atom_site_label
_atom_site_fract_x
_atom_site_fract_y
_atom_site_fract_z
Si Si1 0.085315 0.735742 0.752586
Si Si2 0.750000 0.250000 0.031858
Si Si3 0.066692 0.350971 0.099630
Si Si4 0.760535 0.049681 0.197429
Si Si5 0.052583 0.691562 0.065472
Si Si6 0.750000 0.750000 0.287653
O O1 0.133519 0.890655 0.774645
O O2 0.178421 0.632441 0.745812
O O3 0.029553 0.742159 0.660645
O O4 0.020950 0.680102 0.832601
O O5 0.745373 0.111914 0.098226
O O6 0.847188 0.245925 0.974075
O O7 0.073279 0.521824 0.081853
O O8 0.159764 0.281913 0.146685
O O9 0.032879 0.287777 0.005277
O O10 0.744933 0.886359 0.222451
#
# Coordination Sequence:
#
# PCOD9431222 Si02
#       6
#     8   4   8   8   8   4
#     4  10  21  44  72  97 130 190 237 274 360 424
#     4  10  20  44  76 106 126 190 252 268 358 424
#     4  11  25  41  69 106 136 182 239 291 354 412
#     4  10  21  42  70 101 138 182 231 286 347 433
#     4  11  22  43  77  96 138 186 236 296 334 429
#     4  12  26  40  66 104 154 174 226 310 364 392
#
# _framework density 20.74325
#
# number of rings (size 3 to 8) (size 9 to 14) (size 15 to 20)
#    0.000    1.600    6.000    1.200    2.800    0.000 
#    0.000    5.000    0.000    0.000    0.000    0.000 
#    0.000    0.000    0.000    0.000    0.000    0.000 
#
# Total GULP energy -223324.875422 kJ/mol
# GULP energy per Si atom -5583.121886 kJ/mol
# Density = 2.069604 g / cm^3
# Si number density = 20.743250 Si / 1000 Ang^3
#
#
#
# Elastic Constant Matrix: (Units=GPa)
#
#
# Indices 1 2 3 4 5 6 
#
# 1 66.1744 26.3261 12.0426 0.0000 0.0000 0.0000
# 2 26.3261 118.2256 29.8010 0.0000 0.0000 0.0000
# 3 12.0426 29.8010 113.4587 0.0000 0.0000 0.0000
# 4 0.0000 0.0000 0.0000 6.9183 0.0000 0.0000
# 5 0.0000 0.0000 0.0000 0.0000 -98.5542 0.0000
# 6 0.0000 0.0000 0.0000 0.0000 0.0000 15.6810
#
#
#
# Elastic Compliance Matrix: (Units=1/GPa)
#
#
# Indices 1 2 3 4 5 6 
#
# 1 0.016657 -0.003495 -0.000850 0.000000 0.000000 0.000000
# 2 -0.003495 0.009791 -0.002201 0.000000 0.000000 0.000000
# 3 -0.000850 -0.002201 0.009482 0.000000 0.000000 0.000000
# 4 0.000000 0.000000 0.000000 0.144544 0.000000 0.000000
# 5 0.000000 0.000000 0.000000 0.000000 -0.010147 0.000000
# 6 0.000000 0.000000 0.000000 0.000000 0.000000 0.063772
#
#
# Mechanical properties :
#
#
# Convention : Reuss Voigt Hill
#
# Bulk Modulus (GPa) = 43.78521 48.24423 46.01472
# Shear Modulus (GPa) = 19.62298 0.12162 9.87230
#
# Velocity S-wave (km/s) = 3.07904 0.24240 2.18394
# Velocity P-wave (km/s) = 5.81331 4.83597 5.34702
#
# Compressibility (1/GPa) = 0.02283876
#
# Stress axis : x y z
#
# Youngs Moduli (GPa) = 60.03626 102.13066 105.46212
#
# Poissons Ratio (x) = 0.35692 0.08964
# Poissons Ratio (y) = 0.20981 0.23211
# Poissons Ratio (z) = 0.05103 0.22477
#
# Static dielectric constant tensor:
#      x y z
#    x 1.746310 0.000000 0.000000 
#    y 0.000000 1.787900 0.000000 
#    z 0.000000 0.000000 1.740300 
# 
# From -- ./inp_files/12099.got.cif
#   From: 2010.05.17/outbox.cif.g08.bks.cpg/sg56_7_cif.got.tgz:12099.got - 2010.06.03 13:42:01.
