data_PCOD9431599
_publ_section_title
;
Structure prediction by ZEFSAII (Michael W. Deem and Ramdas Pophale) SiO2 
 PCOD9431599
Probable space group: P C C N
;
_chemical_formula_sum "Si O2"
_cell_formula_units_Z 40
_cell_length_a 7.185587
_cell_length_b 12.206355
_cell_length_c 19.933254
_cell_angle_alpha 90.000000
_cell_angle_beta 90.000000
_cell_angle_gamma 90.000000
_cell_volume 1748.342236
_symmetry_space_group_name_H-M "P C C N"
_symmetry_group_IT_number 56
_symmetry_cell_setting 'orthorhombic'
loop_
_space_group_symop_operation_xyz
x,y,z
1/2-x,1/2-y,z
1/2+x,-y,1/2-z
-x,1/2+y,1/2-z
-x,-y,-z
1/2+x,1/2+y,-z
1/2-x,y,1/2+z
x,1/2-y,1/2+z
loop_
_atom_site_type_symbol
_atom_site_label
_atom_site_fract_x
_atom_site_fract_y
_atom_site_fract_z
Si Si1 0.276612 0.428952 0.263136
Si Si2 0.458901 0.723107 0.214405
Si Si3 0.320884 0.557126 0.125921
Si Si4 0.087613 0.018333 0.401339
Si Si5 0.789475 0.622182 0.964742
O O1 0.316932 0.499677 0.198512
O O2 0.423346 0.332145 0.275250
O O3 0.083403 0.367543 0.248126
O O4 0.290869 0.492160 0.334118
O O5 0.250000 0.750000 0.236531
O O6 0.439198 0.665965 0.140301
O O7 0.355703 0.459481 0.073258
O O8 0.105249 0.586058 0.110809
O O9 0.198032 0.080635 0.459187
O O10 0.990883 0.908395 0.430916
O O11 0.750000 0.750000 0.958243
#
# Coordination Sequence:
#
# PCOD9431599 Si02
#       5
#     8   8   8   8   8
#     4  11  23  38  67  95 130 180 221 290 348 402
#     4  11  23  38  60  95 133 172 226 277 344 414
#     4  10  21  40  61  97 131 173 225 285 330 404
#     4   9  20  40  64  99 131 182 226 278 343 414
#     4   9  20  37  69  93 138 185 222 280 344 402
#
# _framework density 22.878814999999999
#
# number of rings (size 3 to 8) (size 9 to 14) (size 15 to 20)
#    1.200    0.800    2.000    1.200    5.600    0.000 
#    0.000    1.000    0.000    0.000    5.200    0.000 
#    0.000    0.000    0.000    0.000    0.000    0.000 
#
# Total GULP energy -222746.484416 kJ/mol
# GULP energy per Si atom -5568.662110 kJ/mol
# Density = 2.282674 g / cm^3
# Si number density = 22.878815 Si / 1000 Ang^3
#
#
#
# Elastic Constant Matrix: (Units=GPa)
#
#
# Indices 1 2 3 4 5 6 
#
# 1 91.8733 45.5226 18.6830 0.0000 0.0000 0.0000
# 2 45.5226 140.9487 57.8373 0.0000 0.0000 0.0000
# 3 18.6830 57.8373 142.8514 0.0000 0.0000 0.0000
# 4 0.0000 0.0000 0.0000 6.9467 0.0000 0.0000
# 5 0.0000 0.0000 0.0000 0.0000 38.5468 0.0000
# 6 0.0000 0.0000 0.0000 0.0000 0.0000 41.3069
#
#
#
# Elastic Compliance Matrix: (Units=1/GPa)
#
#
# Indices 1 2 3 4 5 6 
#
# 1 0.012958 -0.004185 0.000000 0.000000 0.000000 0.000000
# 2 -0.004185 0.009860 -0.003445 0.000000 0.000000 0.000000
# 3 0.000000 -0.003445 0.008395 0.000000 0.000000 0.000000
# 4 0.000000 0.000000 0.000000 0.143953 0.000000 0.000000
# 5 0.000000 0.000000 0.000000 0.000000 0.025942 0.000000
# 6 0.000000 0.000000 0.000000 0.000000 0.000000 0.024209
#
#
# Mechanical properties :
#
#
# Convention : Reuss Voigt Hill
#
# Bulk Modulus (GPa) = 62.68395 68.86214 65.77304
# Shear Modulus (GPa) = 20.33381 34.26879 27.30130
#
# Velocity S-wave (km/s) = 2.98444 3.87439 3.45817
# Velocity P-wave (km/s) = 6.27165 7.08368 6.69000
#
# Compressibility (1/GPa) = 0.01595305
#
# Stress axis : x y z
#
# Youngs Moduli (GPa) = 77.17073 101.42037 119.11833
#
# Poissons Ratio (x) = 0.42445 0.00004
# Poissons Ratio (y) = 0.32296 0.41033
# Poissons Ratio (z) = 0.00003 0.34937
#
# Static dielectric constant tensor:
#      x y z
#    x 1.950690 0.000000 0.000000 
#    y 0.000000 1.978460 0.000000 
#    z 0.000000 0.000000 1.877290 
# 
# From -- ./inp_files/17991.got.cif
#   From: 2010.05.17/outbox.cif.g08.bks.cpg/sg56_9_cif.got.tgz:17991.got - 2010.06.03 13:42:01.
