data_PCOD9431774
_publ_section_title
;
Structure prediction by ZEFSAII (Michael W. Deem and Ramdas Pophale) SiO2 
 PCOD9431774
Probable space group: P C C N
;
_chemical_formula_sum "Si O2"
_cell_formula_units_Z 64
_cell_length_a 26.799206
_cell_length_b 9.717107
_cell_length_c 10.587935
_cell_angle_alpha 90.000000
_cell_angle_beta 90.000000
_cell_angle_gamma 90.000000
_cell_volume 2757.212118
_symmetry_space_group_name_H-M "P C C N"
_symmetry_group_IT_number 56
_symmetry_cell_setting 'orthorhombic'
loop_
_space_group_symop_operation_xyz
x,y,z
1/2-x,1/2-y,z
1/2+x,-y,1/2-z
-x,1/2+y,1/2-z
-x,-y,-z
1/2+x,1/2+y,-z
1/2-x,y,1/2+z
x,1/2-y,1/2+z
loop_
_atom_site_type_symbol
_atom_site_label
_atom_site_fract_x
_atom_site_fract_y
_atom_site_fract_z
Si Si1 0.708477 0.538515 0.350617
Si Si2 0.951681 0.340499 0.773662
Si Si3 0.792354 0.512472 0.143446
Si Si4 0.639489 0.702534 0.779033
Si Si5 0.982223 0.286553 0.513914
Si Si6 0.838451 0.258057 0.293791
Si Si7 0.120491 0.542172 0.526733
Si Si8 0.069837 0.114551 0.847511
O O1 0.752317 0.557290 0.249052
O O2 0.724611 0.520176 0.497845
O O3 0.671392 0.670028 0.336372
O O4 0.686754 0.388581 0.313300
O O5 0.980964 0.261531 0.662347
O O6 0.970008 0.332794 0.915983
O O7 0.896032 0.277054 0.761841
O O8 0.955364 0.497713 0.734048
O O9 0.834436 0.629166 0.160021
O O10 0.813590 0.363247 0.192506
O O11 0.629680 0.577195 0.873074
O O12 0.586910 0.758805 0.733234
O O13 0.934684 0.388001 0.482918
O O14 0.034028 0.345060 0.462204
O O15 0.842032 0.339380 0.428297
O O16 0.121077 0.458692 0.396696
#
# Coordination Sequence:
#
# PCOD9431774 Si02
#       8
#     8   8   8   8   8   8   8   8
#     4  12  26  47  71 102 134 176 227 281 350 416
#     4  10  21  42  62  98 132 179 219 281 323 399
#     4  11  28  46  70 101 136 172 225 283 347 418
#     4  11  24  43  69  96 135 178 226 279 338 410
#     4  10  23  38  67  94 140 177 232 272 340 381
#     4  10  23  42  70  99 135 174 223 279 337 406
#     4   9  21  41  62  95 133 179 217 273 332 388
#     4  11  22  37  68  94 133 186 229 270 334 397
#
# _framework density 23.211850999999999
#
# number of rings (size 3 to 8) (size 9 to 14) (size 15 to 20)
#    0.000    1.500    1.250    3.000    8.750    6.000 
#    0.000    0.625    0.000    0.000    0.000    0.000 
#    0.000    0.000    0.000    0.000    0.000    0.000 
#
# Total GULP energy -357059.068114 kJ/mol
# GULP energy per Si atom -5579.047939 kJ/mol
# Density = 2.315902 g / cm^3
# Si number density = 23.211851 Si / 1000 Ang^3
#
#
#
# Elastic Constant Matrix: (Units=GPa)
#
#
# Indices 1 2 3 4 5 6 
#
# 1 49.4001 -11.6126 32.8588 0.0000 0.0000 0.0000
# 2 -11.6126 46.2893 19.0210 0.0000 0.0000 0.0000
# 3 32.8588 19.0210 83.7407 0.0000 0.0000 0.0000
# 4 0.0000 0.0000 0.0000 13.0641 0.0000 0.0000
# 5 0.0000 0.0000 0.0000 0.0000 30.2210 0.0000
# 6 0.0000 0.0000 0.0000 0.0000 0.0000 19.2590
#
#
#
# Elastic Compliance Matrix: (Units=1/GPa)
#
#
# Indices 1 2 3 4 5 6 
#
# 1 0.035925 0.016329 -0.017805 0.000000 0.000000 0.000000
# 2 0.016329 0.031249 -0.013505 0.000000 0.000000 0.000000
# 3 -0.017805 -0.013505 0.021996 0.000000 0.000000 0.000000
# 4 0.000000 0.000000 0.000000 0.076546 0.000000 0.000000
# 5 0.000000 0.000000 0.000000 0.000000 0.033090 0.000000
# 6 0.000000 0.000000 0.000000 0.000000 0.000000 0.051924
#
#
# Mechanical properties :
#
#
# Convention : Reuss Voigt Hill
#
# Bulk Modulus (GPa) = 16.89008 28.88495 22.88752
# Shear Modulus (GPa) = 16.64293 21.78636 19.21465
#
# Velocity S-wave (km/s) = 2.68059 3.06696 2.88026
# Velocity P-wave (km/s) = 4.10768 5.00127 4.57634
#
# Compressibility (1/GPa) = 0.05920635
#
# Stress axis : x y z
#
# Youngs Moduli (GPa) = 27.83597 32.00080 45.46311
#
# Poissons Ratio (x) = -0.52254 0.80949
# Poissons Ratio (y) = -0.45453 0.61399
# Poissons Ratio (z) = 0.49563 0.43218
#
# Static dielectric constant tensor:
#      x y z
#    x 1.921090 0.000000 0.000000 
#    y 0.000000 1.913360 0.000000 
#    z 0.000000 0.000000 1.934750 
# 
# From -- ./inp_files/9200.got.cif
#   From: 2010.05.17/outbox.cif.g08.bks.cpg/sg56_5_cif.got.tgz:9200.got - 2010.06.03 13:42:01.
