data_PCOD9431339
_publ_section_title
;
Structure prediction by ZEFSAII (Michael W. Deem and Ramdas Pophale) SiO2 
 PCOD9431339
Probable space group: P C C N
;
_chemical_formula_sum "Si O2"
_cell_formula_units_Z 44
_cell_length_a 10.609369
_cell_length_b 10.002989
_cell_length_c 19.824373
_cell_angle_alpha 90.000000
_cell_angle_beta 90.000000
_cell_angle_gamma 90.000000
_cell_volume 2103.869542
_symmetry_space_group_name_H-M "P C C N"
_symmetry_group_IT_number 56
_symmetry_cell_setting 'orthorhombic'
loop_
_space_group_symop_operation_xyz
x,y,z
1/2-x,1/2-y,z
1/2+x,-y,1/2-z
-x,1/2+y,1/2-z
-x,-y,-z
1/2+x,1/2+y,-z
1/2-x,y,1/2+z
x,1/2-y,1/2+z
loop_
_atom_site_type_symbol
_atom_site_label
_atom_site_fract_x
_atom_site_fract_y
_atom_site_fract_z
Si Si1 0.871263 0.518879 0.080537
Si Si2 0.750000 0.250000 0.131085
Si Si3 0.750000 0.750000 0.331565
Si Si4 0.750000 0.250000 0.369461
Si Si5 0.863463 0.576140 0.229283
Si Si6 0.369639 0.886262 0.247330
Si Si7 0.171821 0.017192 0.567255
O O1 0.815601 0.369155 0.090771
O O2 0.839859 0.595848 0.149818
O O3 0.022915 0.515664 0.074709
O O4 0.813859 0.565940 0.009757
O O5 0.854690 0.188921 0.181842
O O6 0.855839 0.702241 0.278643
O O7 0.791469 0.869464 0.379927
O O8 0.861546 0.215932 0.315764
O O9 0.750823 0.382849 0.415101
O O10 0.755737 0.476304 0.254431
O O11 0.005805 0.526720 0.238855
#
# Coordination Sequence:
#
# PCOD9431339 Si02
#       7
#     8   4   4   4   8   8   8
#     4  10  21  40  64  92 128 174 223 269 326 408
#     4   9  19  36  64  92 130 168 222 276 328 394
#     4  12  24  40  64  96 134 170 214 282 330 392
#     4  11  19  40  60  96 122 176 212 268 324 410
#     4  11  21  41  64 100 127 175 218 281 328 394
#     4  10  21  36  68  96 132 165 226 273 334 391
#     4  11  23  40  65  92 129 175 218 267 337 398
#
# _framework density 20.913843
#
# number of rings (size 3 to 8) (size 9 to 14) (size 15 to 20)
#    0.000    1.455    3.636    1.636    0.000    3.636 
#    0.000    0.000    4.000    9.818    0.000    0.000 
#    0.000    0.000    0.000    0.000    0.000    0.000 
#
# Total GULP energy -245299.951689 kJ/mol
# GULP energy per Si atom -5574.998902 kJ/mol
# Density = 2.086624 g / cm^3
# Si number density = 20.913843 Si / 1000 Ang^3
#
#
#
# Elastic Constant Matrix: (Units=GPa)
#
#
# Indices 1 2 3 4 5 6 
#
# 1 91.3789 29.7343 25.2888 0.0000 0.0000 0.0000
# 2 29.7343 88.5809 54.6173 0.0000 0.0000 0.0000
# 3 25.2888 54.6173 180.6818 0.0000 0.0000 0.0000
# 4 0.0000 0.0000 0.0000 26.8687 0.0000 0.0000
# 5 0.0000 0.0000 0.0000 0.0000 7.0044 0.0000
# 6 0.0000 0.0000 0.0000 0.0000 0.0000 26.8188
#
#
#
# Elastic Compliance Matrix: (Units=1/GPa)
#
#
# Indices 1 2 3 4 5 6 
#
# 1 0.012335 -0.003781 -0.000584 0.000000 0.000000 0.000000
# 2 -0.003781 0.015034 -0.004015 0.000000 0.000000 0.000000
# 3 -0.000584 -0.004015 0.006830 0.000000 0.000000 0.000000
# 4 0.000000 0.000000 0.000000 0.037218 0.000000 0.000000
# 5 0.000000 0.000000 0.000000 0.000000 0.142767 0.000000
# 6 0.000000 0.000000 0.000000 0.000000 0.000000 0.037287
#
#
# Mechanical properties :
#
#
# Convention : Reuss Voigt Hill
#
# Bulk Modulus (GPa) = 57.34016 64.43580 60.88798
# Shear Modulus (GPa) = 18.24519 28.87178 23.55849
#
# Velocity S-wave (km/s) = 2.95684 3.71955 3.35991
# Velocity P-wave (km/s) = 6.25572 7.02309 6.65048
#
# Compressibility (1/GPa) = 0.01743978
#
# Stress axis : x y z
#
# Youngs Moduli (GPa) = 81.06885 66.51580 146.41152
#
# Poissons Ratio (x) = 0.25148 0.08545
# Poissons Ratio (y) = 0.30650 0.58790
# Poissons Ratio (z) = 0.04731 0.26709
#
# Static dielectric constant tensor:
#      x y z
#    x 1.793810 0.000000 0.000000 
#    y 0.000000 1.816530 0.000000 
#    z 0.000000 0.000000 1.777060 
# 
# From -- ./inp_files/15561.got.cif
#   From: 2010.05.17/outbox.cif.g08.bks.cpg/sg56_8_cif.got.tgz:15561.got - 2010.06.03 13:42:01.
