data_PCOD9431084
_publ_section_title
;
Structure prediction by ZEFSAII (Michael W. Deem and Ramdas Pophale) SiO2 
 PCOD9431084
Probable space group: P C C N
;
_chemical_formula_sum "Si O2"
_cell_formula_units_Z 48
_cell_length_a 8.613005
_cell_length_b 16.256469
_cell_length_c 15.780712
_cell_angle_alpha 90.000000
_cell_angle_beta 90.000000
_cell_angle_gamma 90.000000
_cell_volume 2209.568722
_symmetry_space_group_name_H-M "P C C N"
_symmetry_group_IT_number 56
_symmetry_cell_setting 'orthorhombic'
loop_
_space_group_symop_operation_xyz
x,y,z
1/2-x,1/2-y,z
1/2+x,-y,1/2-z
-x,1/2+y,1/2-z
-x,-y,-z
1/2+x,1/2+y,-z
1/2-x,y,1/2+z
x,1/2-y,1/2+z
loop_
_atom_site_type_symbol
_atom_site_label
_atom_site_fract_x
_atom_site_fract_y
_atom_site_fract_z
Si Si1 0.192369 0.831763 0.662926
Si Si2 0.803623 0.158472 0.648500
Si Si3 0.284668 0.995366 0.636627
Si Si4 0.143491 0.006915 0.821435
Si Si5 0.652323 0.667190 0.636303
Si Si6 0.432112 0.088869 0.033211
O O1 0.250000 0.750000 0.618738
O O2 0.297546 0.836983 0.748318
O O3 0.230969 0.907195 0.602393
O O4 0.010483 0.831514 0.688020
O O5 0.750000 0.250000 0.620719
O O6 0.963023 0.130355 0.605630
O O7 0.697881 0.077518 0.633782
O O8 0.462174 0.988708 0.661260
O O9 0.179861 0.002007 0.721323
O O10 0.234515 0.065877 0.573348
O O11 0.242061 0.086802 0.848157
O O12 0.750000 0.750000 0.648826
O O13 0.590661 0.653635 0.541417
O O14 0.500000 0.000000 0.000000
#
# Coordination Sequence:
#
# PCOD9431084 Si02
#       6
#     8   8   8   8   8   8
#     4  10  20  40  68 102 131 177 232 286 344 410
#     4  10  22  42  69  96 134 178 229 278 346 413
#     4  11  22  40  71  95 133 183 229 287 351 414
#     4  11  22  42  69 101 130 178 240 289 342 412
#     4  12  26  44  68 102 143 180 232 292 352 418
#     4  12  24  46  64  96 144 183 220 288 351 419
#
# _framework density 21.723697000000001
#
# number of rings (size 3 to 8) (size 9 to 14) (size 15 to 20)
#    0.000    1.000    3.333    5.000    0.000    4.000 
#    3.000    0.833    0.000    0.000    0.000    0.000 
#    0.000    0.000    0.000    0.000    0.000    0.000 
#
# Total GULP energy -267845.314314 kJ/mol
# GULP energy per Si atom -5580.110715 kJ/mol
# Density = 2.167425 g / cm^3
# Si number density = 21.723697 Si / 1000 Ang^3
#
#
#
# Elastic Constant Matrix: (Units=GPa)
#
#
# Indices 1 2 3 4 5 6 
#
# 1 86.8869 39.4285 9.5416 0.0000 0.0000 0.0000
# 2 39.4285 152.0395 9.5028 0.0000 0.0000 0.0000
# 3 9.5416 9.5028 48.0854 0.0000 0.0000 0.0000
# 4 0.0000 0.0000 0.0000 23.8251 0.0000 0.0000
# 5 0.0000 0.0000 0.0000 0.0000 16.0687 0.0000
# 6 0.0000 0.0000 0.0000 0.0000 0.0000 36.3496
#
#
#
# Elastic Compliance Matrix: (Units=1/GPa)
#
#
# Indices 1 2 3 4 5 6 
#
# 1 0.013226 -0.003307 -0.001971 0.000000 0.000000 0.000000
# 2 -0.003307 0.007486 -0.000823 0.000000 0.000000 0.000000
# 3 -0.001971 -0.000823 0.021350 0.000000 0.000000 0.000000
# 4 0.000000 0.000000 0.000000 0.041973 0.000000 0.000000
# 5 0.000000 0.000000 0.000000 0.000000 0.062233 0.000000
# 6 0.000000 0.000000 0.000000 0.000000 0.000000 0.027511
#
#
# Mechanical properties :
#
#
# Convention : Reuss Voigt Hill
#
# Bulk Modulus (GPa) = 33.48908 44.88419 39.18664
# Shear Modulus (GPa) = 25.51880 30.48461 28.00171
#
# Velocity S-wave (km/s) = 3.43111 3.75011 3.59415
# Velocity P-wave (km/s) = 5.58086 6.28151 5.94152
#
# Compressibility (1/GPa) = 0.02986048
#
# Stress axis : x y z
#
# Youngs Moduli (GPa) = 75.60727 133.57831 46.83815
#
# Poissons Ratio (x) = 0.44171 0.09232
# Poissons Ratio (y) = 0.25002 0.03856
# Poissons Ratio (z) = 0.14902 0.10997
#
# Static dielectric constant tensor:
#      x y z
#    x 1.807190 0.000000 0.000000 
#    y 0.000000 1.905250 0.000000 
#    z 0.000000 0.000000 1.839550 
# 
# From -- ./inp_files/14775.got.cif
#   From: 2010.05.17/outbox.cif.g08.bks.cpg/sg56_8_cif.got.tgz:14775.got - 2010.06.03 13:42:01.
