data_PCOD9431587
_publ_section_title
;
Structure prediction by ZEFSAII (Michael W. Deem and Ramdas Pophale) SiO2 
 PCOD9431587
Probable space group: P C C N
;
_chemical_formula_sum "Si O2"
_cell_formula_units_Z 52
_cell_length_a 5.440255
_cell_length_b 18.289455
_cell_length_c 26.888835
_cell_angle_alpha 90.000000
_cell_angle_beta 90.000000
_cell_angle_gamma 90.000000
_cell_volume 2675.420234
_symmetry_space_group_name_H-M "P C C N"
_symmetry_group_IT_number 56
_symmetry_cell_setting 'orthorhombic'
loop_
_space_group_symop_operation_xyz
x,y,z
1/2-x,1/2-y,z
1/2+x,-y,1/2-z
-x,1/2+y,1/2-z
-x,-y,-z
1/2+x,1/2+y,-z
1/2-x,y,1/2+z
x,1/2-y,1/2+z
loop_
_atom_site_type_symbol
_atom_site_label
_atom_site_fract_x
_atom_site_fract_y
_atom_site_fract_z
Si Si1 0.250000 0.750000 0.477158
Si Si2 0.826180 0.492013 0.172861
Si Si3 0.865725 0.649154 0.828880
Si Si4 0.750000 0.250000 0.725368
Si Si5 0.260981 0.026831 0.436387
Si Si6 0.263047 0.591622 0.519625
Si Si7 0.475840 0.896557 0.248206
Si Si8 0.750000 0.750000 0.913208
O O1 0.248986 0.677135 0.509707
O O2 0.499789 0.746387 0.444551
O O3 0.699921 0.515704 0.122167
O O4 0.957857 0.560768 0.198506
O O5 0.663462 0.454457 0.216115
O O6 0.002285 0.425722 0.157198
O O7 0.706991 0.628724 0.780887
O O8 0.729443 0.679907 0.876894
O O9 0.047023 0.713800 0.810753
O O10 0.668190 0.179825 0.757326
O O11 0.507624 0.064872 0.456435
O O12 0.008010 0.070111 0.449339
O O13 0.225783 0.951171 0.466755
#
# Coordination Sequence:
#
# PCOD9431587 Si02
#       8
#     4   8   8   4   8   8   8   4
#     4  12  25  42  69  98 130 162 216 281 349 392
#     4  11  24  38  64  95 130 178 226 268 324 394
#     4  11  22  37  59  93 135 162 215 272 323 394
#     4  10  21  40  59  82 136 184 206 273 333 378
#     4  10  23  42  68  92 130 172 216 265 335 392
#     4  10  23  44  66  95 127 165 213 282 328 393
#     4  11  22  39  61  94 135 173 219 278 320 391
#     4  12  24  36  66 100 130 170 210 274 356 400
#
# _framework density 19.436198999999998
#
# number of rings (size 3 to 8) (size 9 to 14) (size 15 to 20)
#    0.000    1.231    3.077    2.308    6.462    1.231 
#    0.000    0.769    3.385    0.000    0.000    0.000 
#    0.000    0.000    0.000    0.000    0.000    0.000 
#
# Total GULP energy -290301.346601 kJ/mol
# GULP energy per Si atom -5582.718204 kJ/mol
# Density = 1.939196 g / cm^3
# Si number density = 19.436199 Si / 1000 Ang^3
#
#
#
# Elastic Constant Matrix: (Units=GPa)
#
#
# Indices 1 2 3 4 5 6 
#
# 1 82.9769 34.2136 14.2861 0.0000 0.0000 0.0000
# 2 34.2136 141.9849 46.4653 0.0000 0.0000 0.0000
# 3 14.2861 46.4653 73.6613 0.0000 0.0000 0.0000
# 4 0.0000 0.0000 0.0000 -20.4691 0.0000 0.0000
# 5 0.0000 0.0000 0.0000 0.0000 29.2902 0.0000
# 6 0.0000 0.0000 0.0000 0.0000 0.0000 24.3607
#
#
#
# Elastic Compliance Matrix: (Units=1/GPa)
#
#
# Indices 1 2 3 4 5 6 
#
# 1 0.013410 -0.002999 -0.000709 0.000000 0.000000 0.000000
# 2 -0.002999 0.009546 -0.005440 0.000000 0.000000 0.000000
# 3 -0.000709 -0.005440 0.017145 0.000000 0.000000 0.000000
# 4 0.000000 0.000000 0.000000 -0.048854 0.000000 0.000000
# 5 0.000000 0.000000 0.000000 0.000000 0.034141 0.000000
# 6 0.000000 0.000000 0.000000 0.000000 0.000000 0.041050
#
#
# Mechanical properties :
#
#
# Convention : Reuss Voigt Hill
#
# Bulk Modulus (GPa) = 45.86178 54.28368 50.07273
# Shear Modulus (GPa) = 54.34664 20.21357 37.28010
#
# Velocity S-wave (km/s) = 5.29361 3.22840 4.38434
# Velocity P-wave (km/s) = 7.81091 6.47198 7.17275
#
# Compressibility (1/GPa) = 0.02180465
#
# Stress axis : x y z
#
# Youngs Moduli (GPa) = 74.56929 104.75595 58.32757
#
# Poissons Ratio (x) = 0.31421 0.04134
# Poissons Ratio (y) = 0.22367 0.31729
# Poissons Ratio (z) = 0.05285 0.56986
#
# Static dielectric constant tensor:
#      x y z
#    x 1.761930 0.000000 0.000000 
#    y 0.000000 1.642580 0.000000 
#    z 0.000000 0.000000 1.655050 
# 
# From -- ./inp_files/21782.got.cif
#   From: 2010.05.17/outbox.cif.g08.bks.cpg/sg56_11_cif.got.tgz:21782.got - 2010.06.03 13:42:01.
