data_PCOD9431042
_publ_section_title
;
Structure prediction by ZEFSAII (Michael W. Deem and Ramdas Pophale) SiO2 
 PCOD9431042
Probable space group: P C C N
;
_chemical_formula_sum "Si O2"
_cell_formula_units_Z 52
_cell_length_a 25.382940
_cell_length_b 11.919008
_cell_length_c 8.941815
_cell_angle_alpha 90.000000
_cell_angle_beta 90.000000
_cell_angle_gamma 90.000000
_cell_volume 2705.251926
_symmetry_space_group_name_H-M "P C C N"
_symmetry_group_IT_number 56
_symmetry_cell_setting 'orthorhombic'
loop_
_space_group_symop_operation_xyz
x,y,z
1/2-x,1/2-y,z
1/2+x,-y,1/2-z
-x,1/2+y,1/2-z
-x,-y,-z
1/2+x,1/2+y,-z
1/2-x,y,1/2+z
x,1/2-y,1/2+z
loop_
_atom_site_type_symbol
_atom_site_label
_atom_site_fract_x
_atom_site_fract_y
_atom_site_fract_z
Si Si1 0.095752 0.360588 0.972298
Si Si2 0.511191 0.305073 0.579363
Si Si3 0.113384 0.922934 0.302492
Si Si4 0.076152 0.354041 0.301998
Si Si5 0.250000 0.750000 0.082734
Si Si6 0.425033 0.586101 0.960233
Si Si7 0.175604 0.699962 0.331769
O O1 0.108668 0.375048 0.148025
O O2 0.031108 0.366006 0.972103
O O3 0.121791 0.453976 0.869094
O O4 0.104208 0.235578 0.909078
O O5 0.564132 0.374190 0.602757
O O6 0.477261 0.197525 0.231546
O O7 0.529188 0.179265 0.541490
O O8 0.159617 0.831991 0.323193
O O9 0.096459 0.925399 0.128956
O O10 0.061941 0.466524 0.389762
O O11 0.211040 0.678619 0.187227
O O12 0.287745 0.680115 0.974524
O O13 0.378445 0.634911 0.854396
#
# Coordination Sequence:
#
# PCOD9431042 Si02
#       7
#     8   8   8   8   4   8   8
#     4  10  22  37  51  79 110 156 204 236 283 323
#     4   9  23  33  52  76 111 156 201 244 274 325
#     4  11  21  36  58  81 114 152 194 237 288 345
#     4  10  23  36  55  76 112 160 200 248 274 332
#     4  10  20  40  62  92 122 136 180 232 310 370
#     4  11  22  38  57  82 117 155 200 242 290 336
#     4  10  22  38  63  92 118 147 178 237 300 363
#
# _framework density 19.221869999999999
#
# number of rings (size 3 to 8) (size 9 to 14) (size 15 to 20)
#    0.923    0.923    1.538    2.308    4.308    2.462 
#    0.000    0.000    0.000    0.000    0.000    6.462 
#    0.000    0.000    0.000    0.000    0.000    0.000 
#
# Total GULP energy -289760.388159 kJ/mol
# GULP energy per Si atom -5572.315157 kJ/mol
# Density = 1.917812 g / cm^3
# Si number density = 19.221870 Si / 1000 Ang^3
#
#
#
# Elastic Constant Matrix: (Units=GPa)
#
#
# Indices 1 2 3 4 5 6 
#
# 1 44.8165 6.4422 19.7834 0.0000 0.0000 0.0000
# 2 6.4422 104.2613 40.3198 0.0000 0.0000 0.0000
# 3 19.7834 40.3198 71.8768 0.0000 0.0000 0.0000
# 4 0.0000 0.0000 0.0000 25.7022 0.0000 0.0000
# 5 0.0000 0.0000 0.0000 0.0000 25.5568 0.0000
# 6 0.0000 0.0000 0.0000 0.0000 0.0000 5.3216
#
#
#
# Elastic Compliance Matrix: (Units=1/GPa)
#
#
# Indices 1 2 3 4 5 6 
#
# 1 0.025572 0.001458 -0.007856 0.000000 0.000000 0.000000
# 2 0.001458 0.012331 -0.007319 0.000000 0.000000 0.000000
# 3 -0.007856 -0.007319 0.020181 0.000000 0.000000 0.000000
# 4 0.000000 0.000000 0.000000 0.038907 0.000000 0.000000
# 5 0.000000 0.000000 0.000000 0.000000 0.039129 0.000000
# 6 0.000000 0.000000 0.000000 0.000000 0.000000 0.187914
#
#
# Mechanical properties :
#
#
# Convention : Reuss Voigt Hill
#
# Bulk Modulus (GPa) = 32.62660 39.33837 35.98249
# Shear Modulus (GPa) = 13.82422 21.61007 17.71714
#
# Velocity S-wave (km/s) = 2.68469 3.35661 3.03927
# Velocity P-wave (km/s) = 5.15951 5.96090 5.57463
#
# Compressibility (1/GPa) = 0.03064983
#
# Stress axis : x y z
#
# Youngs Moduli (GPa) = 39.10586 81.09323 49.55267
#
# Poissons Ratio (x) = -0.11824 0.38930
# Poissons Ratio (y) = -0.05702 0.36266
# Poissons Ratio (z) = 0.30723 0.59350
#
# Static dielectric constant tensor:
#      x y z
#    x 1.687990 0.000000 0.000000 
#    y 0.000000 1.675610 0.000000 
#    z 0.000000 0.000000 1.714860 
# 
# From -- ./inp_files/4956.got.cif
#   From: 2010.05.17/outbox.cif.g08.bks.cpg/sg56_3_cif.got.tgz:4956.got - 2010.06.03 13:42:01.
