data_PCOD9431057
_publ_section_title
;
Structure prediction by ZEFSAII (Michael W. Deem and Ramdas Pophale) SiO2 
 PCOD9431057
Probable space group: P C C N
;
_chemical_formula_sum "Si O2"
_cell_formula_units_Z 52
_cell_length_a 9.302977
_cell_length_b 11.200418
_cell_length_c 26.087013
_cell_angle_alpha 90.000000
_cell_angle_beta 90.000000
_cell_angle_gamma 90.000000
_cell_volume 2718.194521
_symmetry_space_group_name_H-M "P C C N"
_symmetry_group_IT_number 56
_symmetry_cell_setting 'orthorhombic'
loop_
_space_group_symop_operation_xyz
x,y,z
1/2-x,1/2-y,z
1/2+x,-y,1/2-z
-x,1/2+y,1/2-z
-x,-y,-z
1/2+x,1/2+y,-z
1/2-x,y,1/2+z
x,1/2-y,1/2+z
loop_
_atom_site_type_symbol
_atom_site_label
_atom_site_fract_x
_atom_site_fract_y
_atom_site_fract_z
Si Si1 0.109279 0.915388 0.602018
Si Si2 0.750000 0.250000 0.973981
Si Si3 0.068552 0.517772 0.632591
Si Si4 0.935646 0.360286 0.107476
Si Si5 0.627982 0.116512 0.565875
Si Si6 0.579699 0.726384 0.803183
Si Si7 0.923411 0.254995 0.804662
O O1 0.129453 0.807193 0.562356
O O2 0.269023 0.963689 0.613569
O O3 0.050580 0.861027 0.654956
O O4 0.012430 0.024631 0.584620
O O5 0.806090 0.142176 0.010121
O O6 0.057598 0.399863 0.667923
O O7 0.032206 0.632726 0.666782
O O8 0.968296 0.493450 0.583169
O O9 0.960090 0.239060 0.075444
O O10 0.764926 0.381452 0.104412
O O11 0.001582 0.328211 0.162612
O O12 0.750000 0.750000 0.800502
O O13 0.507449 0.726158 0.747686
O O14 0.750000 0.250000 0.796055
#
# Coordination Sequence:
#
# PCOD9431057 Si02
#       7
#     8   4   8   8   8   8   8
#     4  11  20  40  61  84 126 157 198 253 299 359
#     4  10  20  40  64  90 118 160 200 242 316 366
#     4  10  21  40  58  88 124 155 198 250 296 350
#     4   9  20  38  58  86 122 153 192 250 297 345
#     4   9  22  38  61  92 114 155 200 248 302 357
#     4  11  22  35  59  88 116 157 207 236 288 364
#     4  10  24  37  55  88 121 163 194 240 304 351
#
# _framework density 19.130345999999999
#
# number of rings (size 3 to 8) (size 9 to 14) (size 15 to 20)
#    0.000    2.154    3.846    0.000    6.462    4.308 
#    0.000    0.000    0.000    3.692    0.000    0.000 
#    0.000    0.000    0.000    0.000    0.000    0.000 
#
# Total GULP energy -289892.570974 kJ/mol
# GULP energy per Si atom -5574.857134 kJ/mol
# Density = 1.908680 g / cm^3
# Si number density = 19.130346 Si / 1000 Ang^3
#
#
#
# Elastic Constant Matrix: (Units=GPa)
#
#
# Indices 1 2 3 4 5 6 
#
# 1 48.9280 30.5956 27.9369 0.0000 0.0000 0.0000
# 2 30.5956 73.6151 11.8566 0.0000 0.0000 0.0000
# 3 27.9369 11.8566 82.7683 0.0000 0.0000 0.0000
# 4 0.0000 0.0000 0.0000 21.6317 0.0000 0.0000
# 5 0.0000 0.0000 0.0000 0.0000 16.8509 0.0000
# 6 0.0000 0.0000 0.0000 0.0000 0.0000 34.3279
#
#
#
# Elastic Compliance Matrix: (Units=1/GPa)
#
#
# Indices 1 2 3 4 5 6 
#
# 1 0.033710 -0.012466 -0.009593 0.000000 0.000000 0.000000
# 2 -0.012466 0.018515 0.001555 0.000000 0.000000 0.000000
# 3 -0.009593 0.001555 0.015097 0.000000 0.000000 0.000000
# 4 0.000000 0.000000 0.000000 0.046228 0.000000 0.000000
# 5 0.000000 0.000000 0.000000 0.000000 0.059344 0.000000
# 6 0.000000 0.000000 0.000000 0.000000 0.000000 0.029131
#
#
# Mechanical properties :
#
#
# Convention : Reuss Voigt Hill
#
# Bulk Modulus (GPa) = 37.99953 38.45439 38.22696
# Shear Modulus (GPa) = 19.85682 23.55692 21.70687
#
# Velocity S-wave (km/s) = 3.22526 3.51292 3.37216
# Velocity P-wave (km/s) = 5.81174 6.04972 5.93192
#
# Compressibility (1/GPa) = 0.02631611
#
# Stress axis : x y z
#
# Youngs Moduli (GPa) = 29.66450 54.01162 66.23861
#
# Poissons Ratio (x) = 0.67328 0.63540
# Poissons Ratio (y) = 0.36978 -0.10302
# Poissons Ratio (z) = 0.28456 -0.08400
#
# Static dielectric constant tensor:
#      x y z
#    x 1.661670 0.000000 0.000000 
#    y 0.000000 1.694840 0.000000 
#    z 0.000000 0.000000 1.689070 
# 
# From -- ./inp_files/22056.got.cif
#   From: 2010.05.17/outbox.cif.g08.bks.cpg/sg56_12_cif.got.tgz:22056.got - 2010.06.03 13:42:01.
