data_PCOD9431709
_publ_section_title
;
Structure prediction by ZEFSAII (Michael W. Deem and Ramdas Pophale) SiO2 
 PCOD9431709
Probable space group: P C C N
;
_chemical_formula_sum "Si O2"
_cell_formula_units_Z 48
_cell_length_a 8.032118
_cell_length_b 9.526101
_cell_length_c 29.808412
_cell_angle_alpha 90.000000
_cell_angle_beta 90.000000
_cell_angle_gamma 90.000000
_cell_volume 2280.783708
_symmetry_space_group_name_H-M "P C C N"
_symmetry_group_IT_number 56
_symmetry_cell_setting 'orthorhombic'
loop_
_space_group_symop_operation_xyz
x,y,z
1/2-x,1/2-y,z
1/2+x,-y,1/2-z
-x,1/2+y,1/2-z
-x,-y,-z
1/2+x,1/2+y,-z
1/2-x,y,1/2+z
x,1/2-y,1/2+z
loop_
_atom_site_type_symbol
_atom_site_label
_atom_site_fract_x
_atom_site_fract_y
_atom_site_fract_z
Si Si1 0.373001 0.958325 0.282359
Si Si2 0.908543 0.351408 0.113872
Si Si3 0.676682 0.894190 0.627094
Si Si4 0.914424 0.819210 0.964507
Si Si5 0.999682 0.838085 0.289436
Si Si6 0.892427 0.364675 0.445118
O O1 0.185696 0.900463 0.283501
O O2 0.491923 0.824455 0.276139
O O3 0.406104 0.025736 0.331063
O O4 0.388747 0.069892 0.242956
O O5 0.750000 0.250000 0.123958
O O6 0.821320 0.502997 0.107813
O O7 0.027318 0.352789 0.157319
O O8 0.003522 0.281907 0.072477
O O9 0.750000 0.750000 0.645510
O O10 0.546210 0.853043 0.588938
O O11 0.750000 0.750000 0.984512
O O12 0.855650 0.968251 0.943842
O O13 0.047042 0.840524 0.003901
O O14 0.750000 0.250000 0.434808
#
# Coordination Sequence:
#
# PCOD9431709 Si02
#       6
#     8   8   8   8   8   8
#     4  10  22  41  63  92 129 169 218 265 323 390
#     4  11  20  46  69  88 132 180 221 268 330 404
#     4  11  24  43  68  96 130 176 224 277 336 391
#     4  11  25  43  69  96 129 175 220 266 329 402
#     4  10  21  41  63  93 127 173 215 267 323 384
#     4  11  25  44  65  99 134 167 217 278 329 389
#
# _framework density 21.045400000000001
#
# number of rings (size 3 to 8) (size 9 to 14) (size 15 to 20)
#    0.000    1.333    5.000    1.000    9.333    0.667 
#    9.000    0.000    0.000    0.000    0.000    0.000 
#    0.000    0.000    0.000    0.000    0.000    0.000 
#
# Total GULP energy -268137.444048 kJ/mol
# GULP energy per Si atom -5586.196751 kJ/mol
# Density = 2.099750 g / cm^3
# Si number density = 21.045400 Si / 1000 Ang^3
#
#
#
# Elastic Constant Matrix: (Units=GPa)
#
#
# Indices 1 2 3 4 5 6 
#
# 1 38.2559 37.8306 23.0229 0.0000 0.0000 0.0000
# 2 37.8306 139.5908 47.4527 0.0000 0.0000 0.0000
# 3 23.0229 47.4527 106.6143 0.0000 0.0000 0.0000
# 4 0.0000 0.0000 0.0000 27.7897 0.0000 0.0000
# 5 0.0000 0.0000 0.0000 0.0000 -13.7871 0.0000
# 6 0.0000 0.0000 0.0000 0.0000 0.0000 39.4505
#
#
#
# Elastic Compliance Matrix: (Units=1/GPa)
#
#
# Indices 1 2 3 4 5 6 
#
# 1 0.037227 -0.008668 -0.004181 0.000000 0.000000 0.000000
# 2 -0.008668 0.010459 -0.002783 0.000000 0.000000 0.000000
# 3 -0.004181 -0.002783 0.011521 0.000000 0.000000 0.000000
# 4 0.000000 0.000000 0.000000 0.035985 0.000000 0.000000
# 5 0.000000 0.000000 0.000000 0.000000 -0.072532 0.000000
# 6 0.000000 0.000000 0.000000 0.000000 0.000000 0.025348
#
#
# Mechanical properties :
#
#
# Convention : Reuss Voigt Hill
#
# Bulk Modulus (GPa) = 35.78694 55.67484 45.73089
# Shear Modulus (GPa) = 56.44109 22.43427 39.43768
#
# Velocity S-wave (km/s) = 5.18430 3.26850 4.33359
# Velocity P-wave (km/s) = 7.27169 6.38406 6.84228
#
# Compressibility (1/GPa) = 0.02794315
#
# Stress axis : x y z
#
# Youngs Moduli (GPa) = 26.86194 95.61107 86.79493
#
# Poissons Ratio (x) = 0.82872 0.36291
# Poissons Ratio (y) = 0.23283 0.24159
# Poissons Ratio (z) = 0.11232 0.26613
#
# Static dielectric constant tensor:
#      x y z
#    x 1.757710 0.000000 0.000000 
#    y 0.000000 1.784820 0.000000 
#    z 0.000000 0.000000 1.750580 
# 
# From -- ./inp_files/23194.got.cif
#   From: 2010.05.17/outbox.cif.g08.bks.cpg/sg56_12_cif.got.tgz:23194.got - 2010.06.03 13:42:01.
