data_PCOD9431007
_publ_section_title
;
Structure prediction by ZEFSAII (Michael W. Deem and Ramdas Pophale) SiO2 
 PCOD9431007
Probable space group: P C C N
;
_chemical_formula_sum "Si O2"
_cell_formula_units_Z 64
_cell_length_a 27.287784
_cell_length_b 9.032749
_cell_length_c 12.957500
_cell_angle_alpha 90.000000
_cell_angle_beta 90.000000
_cell_angle_gamma 90.000000
_cell_volume 3193.812590
_symmetry_space_group_name_H-M "P C C N"
_symmetry_group_IT_number 56
_symmetry_cell_setting 'orthorhombic'
loop_
_space_group_symop_operation_xyz
x,y,z
1/2-x,1/2-y,z
1/2+x,-y,1/2-z
-x,1/2+y,1/2-z
-x,-y,-z
1/2+x,1/2+y,-z
1/2-x,y,1/2+z
x,1/2-y,1/2+z
loop_
_atom_site_type_symbol
_atom_site_label
_atom_site_fract_x
_atom_site_fract_y
_atom_site_fract_z
Si Si1 0.163315 0.011003 0.520710
Si Si2 0.090667 0.640149 0.340562
Si Si3 0.986939 0.571236 0.609282
Si Si4 0.740457 0.419871 0.095764
Si Si5 0.149200 0.840232 0.042052
Si Si6 0.831017 0.931484 0.247830
Si Si7 0.414129 0.927569 0.725837
Si Si8 0.099944 0.301370 0.864803
O O1 0.175019 0.088603 0.630193
O O2 0.122459 0.103534 0.458762
O O3 0.211056 0.994897 0.448492
O O4 0.149989 0.838551 0.542972
O O5 0.039553 0.558442 0.325583
O O6 0.109561 0.611901 0.456059
O O7 0.130463 0.566147 0.266569
O O8 0.089934 0.812241 0.318850
O O9 0.946031 0.699594 0.602354
O O10 0.000000 0.500000 0.500000
O O11 0.037200 0.616057 0.663407
O O12 0.750000 0.250000 0.131261
O O13 0.717058 0.515036 0.187482
O O14 0.700583 0.399438 0.003433
O O15 0.132096 0.906267 0.150276
O O16 0.857332 0.799816 0.185319
O O17 0.416819 0.088787 0.774086
#
# Coordination Sequence:
#
# PCOD9431007 Si02
#       8
#     8   8   8   8   8   8   8   8
#     4  11  22  43  66  95 133 170 227 273 330 403
#     4  10  20  41  61  90 130 166 224 261 329 405
#     4  11  24  42  64  93 130 176 219 272 345 406
#     4   9  22  40  67 100 134 172 231 270 320 413
#     4  10  20  39  66  98 122 177 218 270 325 396
#     4  10  23  41  65  93 132 178 210 277 340 385
#     4  12  22  41  68  94 132 171 220 284 335 391
#     4  11  27  42  65 101 134 170 228 283 340 407
#
# _framework density 20.038747000000001
#
# number of rings (size 3 to 8) (size 9 to 14) (size 15 to 20)
#    0.000    1.500    3.750    0.750    1.750    3.000 
#    0.000    2.500    0.000    0.000    0.000    0.000 
#    0.000    0.000    0.000    0.000    0.000    0.000 
#
# Total GULP energy -357333.635574 kJ/mol
# GULP energy per Si atom -5583.338056 kJ/mol
# Density = 1.999314 g / cm^3
# Si number density = 20.038747 Si / 1000 Ang^3
#
#
#
# Elastic Constant Matrix: (Units=GPa)
#
#
# Indices 1 2 3 4 5 6 
#
# 1 71.4560 28.8874 33.2637 0.0000 0.0000 0.0000
# 2 28.8874 79.9879 31.7072 0.0000 0.0000 0.0000
# 3 33.2637 31.7072 95.4220 0.0000 0.0000 0.0000
# 4 0.0000 0.0000 0.0000 29.1879 0.0000 0.0000
# 5 0.0000 0.0000 0.0000 0.0000 18.5501 0.0000
# 6 0.0000 0.0000 0.0000 0.0000 0.0000 23.5469
#
#
#
# Elastic Compliance Matrix: (Units=1/GPa)
#
#
# Indices 1 2 3 4 5 6 
#
# 1 0.018089 -0.004645 -0.004762 0.000000 0.000000 0.000000
# 2 -0.004645 0.015591 -0.003561 0.000000 0.000000 0.000000
# 3 -0.004762 -0.003561 0.013323 0.000000 0.000000 0.000000
# 4 0.000000 0.000000 0.000000 0.034261 0.000000 0.000000
# 5 0.000000 0.000000 0.000000 0.000000 0.053908 0.000000
# 6 0.000000 0.000000 0.000000 0.000000 0.000000 0.042468
#
#
# Mechanical properties :
#
#
# Convention : Reuss Voigt Hill
#
# Bulk Modulus (GPa) = 47.46976 48.28696 47.87836
# Shear Modulus (GPa) = 23.74153 24.45748 24.09950
#
# Velocity S-wave (km/s) = 3.44580 3.49737 3.47168
# Velocity P-wave (km/s) = 6.29061 6.36065 6.32573
#
# Compressibility (1/GPa) = 0.02106604
#
# Stress axis : x y z
#
# Youngs Moduli (GPa) = 55.28073 64.13866 75.05629
#
# Poissons Ratio (x) = 0.29793 0.35745
# Poissons Ratio (y) = 0.25679 0.26731
# Poissons Ratio (z) = 0.26327 0.22843
#
# Static dielectric constant tensor:
#      x y z
#    x 1.716110 0.000000 0.000000 
#    y 0.000000 1.718180 0.000000 
#    z 0.000000 0.000000 1.706450 
# 
# From -- ./inp_files/9183.got.cif
#   From: 2010.05.17/outbox.cif.g08.bks.cpg/sg56_5_cif.got.tgz:9183.got - 2010.06.03 13:42:01.
