data_PCOD9431915
_publ_section_title
;
Structure prediction by ZEFSAII (Michael W. Deem and Ramdas Pophale) SiO2 
 PCOD9431915
Probable space group: P C C N
;
_chemical_formula_sum "Si O2"
_cell_formula_units_Z 48
_cell_length_a 17.348016
_cell_length_b 21.497338
_cell_length_c 5.774802
_cell_angle_alpha 90.000000
_cell_angle_beta 90.000000
_cell_angle_gamma 90.000000
_cell_volume 2153.632503
_symmetry_space_group_name_H-M "P C C N"
_symmetry_group_IT_number 56
_symmetry_cell_setting 'orthorhombic'
loop_
_space_group_symop_operation_xyz
x,y,z
1/2-x,1/2-y,z
1/2+x,-y,1/2-z
-x,1/2+y,1/2-z
-x,-y,-z
1/2+x,1/2+y,-z
1/2-x,y,1/2+z
x,1/2-y,1/2+z
loop_
_atom_site_type_symbol
_atom_site_label
_atom_site_fract_x
_atom_site_fract_y
_atom_site_fract_z
Si Si1 0.065412 0.582895 0.095269
Si Si2 0.032841 0.455693 0.299480
Si Si3 0.285645 0.000851 0.731270
Si Si4 0.231166 0.638995 0.198271
Si Si5 0.161123 0.271676 0.817555
Si Si6 0.097420 0.102258 0.178457
O O1 0.075832 0.509750 0.158306
O O2 0.141912 0.619101 0.163032
O O3 0.989144 0.608611 0.224664
O O4 0.035373 0.579056 0.833281
O O5 0.087963 0.402884 0.402077
O O6 0.000000 0.500000 0.500000
O O7 0.253691 0.019102 0.475751
O O8 0.366081 0.036171 0.739445
O O9 0.280128 0.925820 0.721489
O O10 0.242671 0.669188 0.453165
O O11 0.250000 0.250000 0.827427
O O12 0.127712 0.244542 0.573093
O O13 0.151663 0.344888 0.775886
#
# Coordination Sequence:
#
# PCOD9431915 Si02
#       6
#     8   8   8   8   8   8
#     4  10  22  36  56  86 125 165 219 258 315 388
#     4   9  20  33  55  83 118 157 215 262 305 377
#     4  10  23  33  52  79 111 157 212 242 300 364
#     4  10  22  36  52  79 123 163 198 252 298 365
#     4  10  25  45  62  88 123 161 218 280 320 372
#     4  11  24  37  65  82 121 170 220 264 327 372
#
# _framework density 22.287925999999999
#
# number of rings (size 3 to 8) (size 9 to 14) (size 15 to 20)
#    0.000    2.000    0.000    2.000   28.000    0.000 
#    0.000    0.000    0.000    0.000    0.000    0.000 
#    0.000    4.000    0.000    0.000    0.000    0.000 
#
# Total GULP energy -267244.797044 kJ/mol
# GULP energy per Si atom -5567.599938 kJ/mol
# Density = 2.223720 g / cm^3
# Si number density = 22.287926 Si / 1000 Ang^3
#
#
#
# Elastic Constant Matrix: (Units=GPa)
#
#
# Indices 1 2 3 4 5 6 
#
# 1 61.2764 10.7389 17.1711 0.0000 0.0000 0.0000
# 2 10.7389 29.4602 5.5096 0.0000 0.0000 0.0000
# 3 17.1711 5.5096 172.8970 0.0000 0.0000 0.0000
# 4 0.0000 0.0000 0.0000 12.0092 0.0000 0.0000
# 5 0.0000 0.0000 0.0000 0.0000 32.6776 0.0000
# 6 0.0000 0.0000 0.0000 0.0000 0.0000 19.0255
#
#
#
# Elastic Compliance Matrix: (Units=1/GPa)
#
#
# Indices 1 2 3 4 5 6 
#
# 1 0.017849 -0.006212 -0.001575 0.000000 0.000000 0.000000
# 2 -0.006212 0.036310 -0.000540 0.000000 0.000000 0.000000
# 3 -0.001575 -0.000540 0.005957 0.000000 0.000000 0.000000
# 4 0.000000 0.000000 0.000000 0.083270 0.000000 0.000000
# 5 0.000000 0.000000 0.000000 0.000000 0.030602 0.000000
# 6 0.000000 0.000000 0.000000 0.000000 0.000000 0.052561
#
#
# Mechanical properties :
#
#
# Convention : Reuss Voigt Hill
#
# Bulk Modulus (GPa) = 23.00827 36.71920 29.86373
# Shear Modulus (GPa) = 19.40314 28.09006 23.74660
#
# Velocity S-wave (km/s) = 2.95374 3.55396 3.26766
# Velocity P-wave (km/s) = 4.68811 5.77508 5.25975
#
# Compressibility (1/GPa) = 0.04346264
#
# Stress axis : x y z
#
# Youngs Moduli (GPa) = 56.02416 27.54097 167.85858
#
# Poissons Ratio (x) = 0.17108 0.26433
# Poissons Ratio (y) = 0.34802 0.09066
# Poissons Ratio (z) = 0.08822 0.01488
#
# Static dielectric constant tensor:
#      x y z
#    x 1.851900 0.000000 0.000000 
#    y 0.000000 1.818750 0.000000 
#    z 0.000000 0.000000 2.030420 
# 
# From -- ./inp_files/698.got.cif
#   From: 2010.05.17/outbox.cif.g08.bks.cpg/sg56_1_cif.got.tgz:698.got - 2010.06.03 13:42:01.
