data_PCOD9431379
_publ_section_title
;
Structure prediction by ZEFSAII (Michael W. Deem and Ramdas Pophale) SiO2 
 PCOD9431379
Probable space group: P C C N
;
_chemical_formula_sum "Si O2"
_cell_formula_units_Z 40
_cell_length_a 8.418322
_cell_length_b 7.017202
_cell_length_c 27.224827
_cell_angle_alpha 90.000000
_cell_angle_beta 90.000000
_cell_angle_gamma 90.000000
_cell_volume 1608.254002
_symmetry_space_group_name_H-M "P C C N"
_symmetry_group_IT_number 56
_symmetry_cell_setting 'orthorhombic'
loop_
_space_group_symop_operation_xyz
x,y,z
1/2-x,1/2-y,z
1/2+x,-y,1/2-z
-x,1/2+y,1/2-z
-x,-y,-z
1/2+x,1/2+y,-z
1/2-x,y,1/2+z
x,1/2-y,1/2+z
loop_
_atom_site_type_symbol
_atom_site_label
_atom_site_fract_x
_atom_site_fract_y
_atom_site_fract_z
Si Si1 0.315795 0.436891 0.211202
Si Si2 0.014319 0.691573 0.197150
Si Si3 0.553516 0.944354 0.088039
Si Si4 0.220661 0.965390 0.054978
Si Si5 0.615981 0.984335 0.557225
O O1 0.250000 0.250000 0.182798
O O2 0.166558 0.575441 0.216360
O O3 0.447623 0.584114 0.191090
O O4 0.385318 0.355729 0.261878
O O5 0.977962 0.608066 0.144078
O O6 0.398311 0.043032 0.063879
O O7 0.726931 0.038316 0.086915
O O8 0.585298 0.745012 0.058944
O O9 0.250000 0.750000 0.074489
O O10 0.057168 0.051854 0.076219
O O11 0.169636 0.959474 0.997853
#
# Coordination Sequence:
#
# PCOD9431379 Si02
#       5
#     8   8   8   8   8
#     4  11  24  45  70 101 140 187 230 301 373 437
#     4  11  25  43  73 101 140 189 240 300 369 443
#     4  10  21  37  63  94 125 183 239 288 356 427
#     4   9  18  35  58  87 128 174 228 285 352 413
#     4   9  19  33  58  88 123 172 227 282 340 421
#
# _framework density 24.871694000000002
#
# number of rings (size 3 to 8) (size 9 to 14) (size 15 to 20)
#    0.000    2.000    2.000    0.600   11.200    0.000 
#    0.000    2.000   13.200    0.000    0.000    0.000 
#    0.000    0.000    0.000    0.000    0.000    0.000 
#
# Total GULP energy -223003.788686 kJ/mol
# GULP energy per Si atom -5575.094717 kJ/mol
# Density = 2.481508 g / cm^3
# Si number density = 24.871694 Si / 1000 Ang^3
#
#
#
# Elastic Constant Matrix: (Units=GPa)
#
#
# Indices 1 2 3 4 5 6 
#
# 1 271.9331 46.4184 58.1920 0.0000 0.0000 0.0000
# 2 46.4184 138.0652 8.8875 0.0000 0.0000 0.0000
# 3 58.1920 8.8875 83.8926 0.0000 0.0000 0.0000
# 4 0.0000 0.0000 0.0000 18.9242 0.0000 0.0000
# 5 0.0000 0.0000 0.0000 0.0000 -63.0098 0.0000
# 6 0.0000 0.0000 0.0000 0.0000 0.0000 8.4063
#
#
#
# Elastic Compliance Matrix: (Units=1/GPa)
#
#
# Indices 1 2 3 4 5 6 
#
# 1 0.004551 -0.001336 -0.003015 0.000000 0.000000 0.000000
# 2 -0.001336 0.007685 0.000112 0.000000 0.000000 0.000000
# 3 -0.003015 0.000112 0.013999 0.000000 0.000000 0.000000
# 4 0.000000 0.000000 0.000000 0.052842 0.000000 0.000000
# 5 0.000000 0.000000 0.000000 0.000000 -0.015871 0.000000
# 6 0.000000 0.000000 0.000000 0.000000 0.000000 0.118958
#
#
# Mechanical properties :
#
#
# Convention : Reuss Voigt Hill
#
# Bulk Modulus (GPa) = 56.31220 80.09853 68.20536
# Shear Modulus (GPa) = 25.43744 18.22368 21.83056
#
# Velocity S-wave (km/s) = 3.20151 2.70979 2.96586
# Velocity P-wave (km/s) = 6.02963 6.48577 6.26186
#
# Compressibility (1/GPa) = 0.01775814
#
# Stress axis : x y z
#
# Youngs Moduli (GPa) = 219.75148 130.12642 71.43141
#
# Poissons Ratio (x) = 0.17383 0.21537
# Poissons Ratio (y) = 0.29356 -0.00804
# Poissons Ratio (z) = 0.66255 -0.01464
#
# Static dielectric constant tensor:
#      x y z
#    x 2.132680 0.000000 0.000000 
#    y 0.000000 1.951270 0.000000 
#    z 0.000000 0.000000 1.918160 
# 
# From -- ./inp_files/23126.got.cif
#   From: 2010.05.17/outbox.cif.g08.bks.cpg/sg56_12_cif.got.tgz:23126.got - 2010.06.03 13:42:01.
