data_PCOD9431682
_publ_section_title
;
Structure prediction by ZEFSAII (Michael W. Deem and Ramdas Pophale) SiO2 
 PCOD9431682
Probable space group: P C C N
;
_chemical_formula_sum "Si O2"
_cell_formula_units_Z 64
_cell_length_a 13.856049
_cell_length_b 26.580628
_cell_length_c 9.231225
_cell_angle_alpha 90.000000
_cell_angle_beta 90.000000
_cell_angle_gamma 90.000000
_cell_volume 3399.883098
_symmetry_space_group_name_H-M "P C C N"
_symmetry_group_IT_number 56
_symmetry_cell_setting 'orthorhombic'
loop_
_space_group_symop_operation_xyz
x,y,z
1/2-x,1/2-y,z
1/2+x,-y,1/2-z
-x,1/2+y,1/2-z
-x,-y,-z
1/2+x,1/2+y,-z
1/2-x,y,1/2+z
x,1/2-y,1/2+z
loop_
_atom_site_type_symbol
_atom_site_label
_atom_site_fract_x
_atom_site_fract_y
_atom_site_fract_z
Si Si1 0.639326 0.974416 0.807630
Si Si2 0.644289 0.226079 0.961416
Si Si3 0.385125 0.383389 0.184238
Si Si4 0.739520 0.585961 0.562220
Si Si5 0.747906 0.131239 0.045438
Si Si6 0.045909 0.497189 0.658945
Si Si7 0.932952 0.187356 0.158891
Si Si8 0.229661 0.563850 0.710591
O O1 0.697741 0.947536 0.675305
O O2 0.526885 0.975799 0.769955
O O3 0.673439 0.032089 0.804300
O O4 0.672407 0.948073 0.956579
O O5 0.750000 0.250000 0.927094
O O6 0.592696 0.208599 0.816440
O O7 0.672506 0.176672 0.053674
O O8 0.581295 0.266475 0.047863
O O9 0.324945 0.379041 0.333594
O O10 0.433407 0.438987 0.193400
O O11 0.465803 0.341325 0.160971
O O12 0.312199 0.386312 0.047746
O O13 0.848941 0.148402 0.113378
O O14 0.713385 0.081360 0.126279
O O15 0.766336 0.114779 0.881377
O O16 0.145822 0.527175 0.657907
O O17 0.000000 0.500000 0.500000
#
# Coordination Sequence:
#
# PCOD9431682 Si02
#       8
#     8   8   8   8   8   8   8   8
#     4  11  21  38  54  84 132 178 214 258 296 361
#     4  10  22  42  67  94 130 159 196 263 335 384
#     4  11  23  41  64  89 121 171 216 264 322 378
#     4  10  21  41  60  82 126 172 213 263 317 351
#     4  11  23  37  60  95 132 168 202 246 316 388
#     4  12  22  35  58  87 129 174 218 251 303 370
#     4  11  23  43  66  94 123 159 210 266 322 398
#     4  12  22  36  58  89 132 173 210 247 300 374
#
# _framework density 18.824176000000001
#
# number of rings (size 3 to 8) (size 9 to 14) (size 15 to 20)
#    0.000    1.000    5.000    4.125    1.750    1.500 
#    0.000    2.500    0.000    2.250    0.000    0.000 
#    0.000    0.000    0.000    0.000    0.000    0.000 
#
# Total GULP energy -357511.881916 kJ/mol
# GULP energy per Si atom -5586.123155 kJ/mol
# Density = 1.878133 g / cm^3
# Si number density = 18.824176 Si / 1000 Ang^3
#
#
#
# Elastic Constant Matrix: (Units=GPa)
#
#
# Indices 1 2 3 4 5 6 
#
# 1 73.7960 37.8750 37.4706 0.0000 0.0000 0.0000
# 2 37.8750 73.1745 23.5741 0.0000 0.0000 0.0000
# 3 37.4706 23.5741 97.3352 0.0000 0.0000 0.0000
# 4 0.0000 0.0000 0.0000 27.9436 0.0000 0.0000
# 5 0.0000 0.0000 0.0000 0.0000 25.6030 0.0000
# 6 0.0000 0.0000 0.0000 0.0000 0.0000 33.7264
#
#
#
# Elastic Compliance Matrix: (Units=1/GPa)
#
#
# Indices 1 2 3 4 5 6 
#
# 1 0.021242 -0.009068 -0.005981 0.000000 0.000000 0.000000
# 2 -0.009068 0.018693 -0.001037 0.000000 0.000000 0.000000
# 3 -0.005981 -0.001037 0.012827 0.000000 0.000000 0.000000
# 4 0.000000 0.000000 0.000000 0.035786 0.000000 0.000000
# 5 0.000000 0.000000 0.000000 0.000000 0.039058 0.000000
# 6 0.000000 0.000000 0.000000 0.000000 0.000000 0.029650
#
#
# Mechanical properties :
#
#
# Convention : Reuss Voigt Hill
#
# Bulk Modulus (GPa) = 48.56412 49.12723 48.84568
# Shear Modulus (GPa) = 25.47221 27.14701 26.30961
#
# Velocity S-wave (km/s) = 3.68253 3.80167 3.74257
# Velocity P-wave (km/s) = 6.62844 6.73979 6.68435
#
# Compressibility (1/GPa) = 0.02059133
#
# Stress axis : x y z
#
# Youngs Moduli (GPa) = 47.07690 53.49470 77.95815
#
# Poissons Ratio (x) = 0.48508 0.46628
# Poissons Ratio (y) = 0.42689 0.08082
# Poissons Ratio (z) = 0.28158 0.05546
#
# Static dielectric constant tensor:
#      x y z
#    x 1.668050 0.000000 0.000000 
#    y 0.000000 1.656870 0.000000 
#    z 0.000000 0.000000 1.711010 
# 
# From -- ./inp_files/3698.got.cif
#   From: 2010.05.17/outbox.cif.g08.bks.cpg/sg56_2_cif.got.tgz:3698.got - 2010.06.03 13:42:01.
