data_PCOD9431536
_publ_section_title
;
Structure prediction by ZEFSAII (Michael W. Deem and Ramdas Pophale) SiO2 
 PCOD9431536
Probable space group: P C C N
;
_chemical_formula_sum "Si O2"
_cell_formula_units_Z 28
_cell_length_a 16.106103
_cell_length_b 7.735139
_cell_length_c 11.060093
_cell_angle_alpha 90.000000
_cell_angle_beta 90.000000
_cell_angle_gamma 90.000000
_cell_volume 1377.898963
_symmetry_space_group_name_H-M "P C C N"
_symmetry_group_IT_number 56
_symmetry_cell_setting 'orthorhombic'
loop_
_space_group_symop_operation_xyz
x,y,z
1/2-x,1/2-y,z
1/2+x,-y,1/2-z
-x,1/2+y,1/2-z
-x,-y,-z
1/2+x,1/2+y,-z
1/2-x,y,1/2+z
x,1/2-y,1/2+z
loop_
_atom_site_type_symbol
_atom_site_label
_atom_site_fract_x
_atom_site_fract_y
_atom_site_fract_z
Si Si1 0.091759 0.925084 0.710575
Si Si2 0.519686 0.746836 0.891060
Si Si3 0.750000 0.250000 0.905170
Si Si4 0.123633 0.531099 0.474564
O O1 0.172880 0.820503 0.671612
O O2 0.018293 0.801531 0.759582
O O3 0.056554 0.063180 0.616390
O O4 0.117775 0.025166 0.835095
O O5 0.589013 0.612166 0.935178
O O6 0.440705 0.695790 0.975362
O O7 0.712839 0.401781 0.987503
#
# Coordination Sequence:
#
# PCOD9431536 Si02
#       4
#     8   8   4   8
#     4  10  21  39  64  86 121 163 194 258 292 364
#     4   9  20  41  63  85 118 156 215 236 296 363
#     4  12  22  38  60  90 128 158 196 246 326 338
#     4   9  22  40  58  93 118 154 208 252 290 374
#
# _framework density 20.320793999999999
#
# number of rings (size 3 to 8) (size 9 to 14) (size 15 to 20)
#    1.714    0.571    0.000    2.571    0.000    2.286 
#    0.000    2.857    0.000    0.000    0.000    0.000 
#    0.000    0.000    0.000    0.000    0.000    0.000 
#
# Total GULP energy -155885.978575 kJ/mol
# GULP energy per Si atom -5567.356378 kJ/mol
# Density = 2.027454 g / cm^3
# Si number density = 20.320794 Si / 1000 Ang^3
#
#
#
# Elastic Constant Matrix: (Units=GPa)
#
#
# Indices 1 2 3 4 5 6 
#
# 1 57.4810 25.9383 28.7690 0.0000 0.0000 0.0000
# 2 25.9383 72.5384 20.5521 0.0000 0.0000 0.0000
# 3 28.7690 20.5521 56.5329 0.0000 0.0000 0.0000
# 4 0.0000 0.0000 0.0000 31.0998 0.0000 0.0000
# 5 0.0000 0.0000 0.0000 0.0000 15.1577 0.0000
# 6 0.0000 0.0000 0.0000 0.0000 0.0000 30.8891
#
#
#
# Elastic Compliance Matrix: (Units=1/GPa)
#
#
# Indices 1 2 3 4 5 6 
#
# 1 0.025537 -0.006075 -0.010787 0.000000 0.000000 0.000000
# 2 -0.006075 0.016814 -0.003021 0.000000 0.000000 0.000000
# 3 -0.010787 -0.003021 0.024276 0.000000 0.000000 0.000000
# 4 0.000000 0.000000 0.000000 0.032155 0.000000 0.000000
# 5 0.000000 0.000000 0.000000 0.000000 0.065973 0.000000
# 6 0.000000 0.000000 0.000000 0.000000 0.000000 0.032374
#
#
# Mechanical properties :
#
#
# Convention : Reuss Voigt Hill
#
# Bulk Modulus (GPa) = 37.22835 37.45233 37.34034
# Shear Modulus (GPa) = 20.33760 22.84885 21.59322
#
# Velocity S-wave (km/s) = 3.16702 3.35686 3.26332
# Velocity P-wave (km/s) = 5.63324 5.78750 5.71089
#
# Compressibility (1/GPa) = 0.02686125
#
# Stress axis : x y z
#
# Youngs Moduli (GPa) = 39.15814 59.47365 41.19217
#
# Poissons Ratio (x) = 0.36133 0.44434
# Poissons Ratio (y) = 0.23790 0.12444
# Poissons Ratio (z) = 0.42240 0.17967
#
# Static dielectric constant tensor:
#      x y z
#    x 1.702960 0.000000 0.000000 
#    y 0.000000 1.735230 0.000000 
#    z 0.000000 0.000000 1.784420 
# 
# From -- ./inp_files/5902.got.cif
#   From: 2010.05.17/outbox.cif.g08.bks.cpg/sg56_3_cif.got.tgz:5902.got - 2010.06.03 13:42:01.
