data_PCOD9431028
_publ_section_title
;
Structure prediction by ZEFSAII (Michael W. Deem and Ramdas Pophale) SiO2 
 PCOD9431028
Probable space group: P C C N
;
_chemical_formula_sum "Si O2"
_cell_formula_units_Z 48
_cell_length_a 9.565080
_cell_length_b 15.140691
_cell_length_c 18.134336
_cell_angle_alpha 90.000000
_cell_angle_beta 90.000000
_cell_angle_gamma 90.000000
_cell_volume 2626.249370
_symmetry_space_group_name_H-M "P C C N"
_symmetry_group_IT_number 56
_symmetry_cell_setting 'orthorhombic'
loop_
_space_group_symop_operation_xyz
x,y,z
1/2-x,1/2-y,z
1/2+x,-y,1/2-z
-x,1/2+y,1/2-z
-x,-y,-z
1/2+x,1/2+y,-z
1/2-x,y,1/2+z
x,1/2-y,1/2+z
loop_
_atom_site_type_symbol
_atom_site_label
_atom_site_fract_x
_atom_site_fract_y
_atom_site_fract_z
Si Si1 0.584308 0.422490 0.464039
Si Si2 0.125949 0.946775 0.964555
Si Si3 0.502525 0.903111 0.205723
Si Si4 0.087985 0.767024 0.020814
Si Si5 0.907816 0.716764 0.666807
Si Si6 0.186965 0.025416 0.804604
O O1 0.500000 0.500000 0.500000
O O2 0.745713 0.443463 0.478468
O O3 0.546206 0.412500 0.378897
O O4 0.542901 0.330408 0.503375
O O5 0.174782 0.991156 0.888841
O O6 0.082475 0.843597 0.960224
O O7 0.000000 0.000000 0.000000
O O8 0.526950 0.797287 0.214588
O O9 0.651961 0.952509 0.214460
O O10 0.388040 0.951073 0.255776
O O11 0.250000 0.750000 0.043288
O O12 0.997427 0.792750 0.092004
O O13 0.750000 0.750000 0.648231
O O14 0.892481 0.619949 0.701880
#
# Coordination Sequence:
#
# PCOD9431028 Si02
#       6
#     8   8   8   8   8   8
#     4  10  20  40  59  83 117 158 194 239 299 342
#     4  11  21  35  61  91 115 150 198 247 285 347
#     4  10  23  39  61  85 120 159 195 241 296 355
#     4   9  19  33  57  86 117 144 193 245 287 345
#     4   9  19  38  59  81 115 158 196 232 293 359
#     4  11  22  39  60  87 120 156 197 244 291 351
#
# _framework density 18.277017000000001
#
# number of rings (size 3 to 8) (size 9 to 14) (size 15 to 20)
#    0.000    2.000    3.333    0.000    2.333    1.333 
#    3.000    0.000    0.000    0.000    0.000    0.000 
#    0.000    0.000    0.000    0.000    0.000    0.000 
#
# Total GULP energy -267480.968609 kJ/mol
# GULP energy per Si atom -5572.520179 kJ/mol
# Density = 1.823542 g / cm^3
# Si number density = 18.277017 Si / 1000 Ang^3
#
#
#
# Elastic Constant Matrix: (Units=GPa)
#
#
# Indices 1 2 3 4 5 6 
#
# 1 46.7553 45.5739 16.3917 0.0000 0.0000 0.0000
# 2 45.5739 123.1982 21.1219 0.0000 0.0000 0.0000
# 3 16.3917 21.1219 27.2475 0.0000 0.0000 0.0000
# 4 0.0000 0.0000 0.0000 27.2612 0.0000 0.0000
# 5 0.0000 0.0000 0.0000 0.0000 31.0888 0.0000
# 6 0.0000 0.0000 0.0000 0.0000 0.0000 31.8566
#
#
#
# Elastic Compliance Matrix: (Units=1/GPa)
#
#
# Indices 1 2 3 4 5 6 
#
# 1 0.037339 -0.011488 -0.013557 0.000000 0.000000 0.000000
# 2 -0.011488 0.012896 -0.003085 0.000000 0.000000 0.000000
# 3 -0.013557 -0.003085 0.047248 0.000000 0.000000 0.000000
# 4 0.000000 0.000000 0.000000 0.036682 0.000000 0.000000
# 5 0.000000 0.000000 0.000000 0.000000 0.032166 0.000000
# 6 0.000000 0.000000 0.000000 0.000000 0.000000 0.031391
#
#
# Mechanical properties :
#
#
# Convention : Reuss Voigt Hill
#
# Bulk Modulus (GPa) = 24.25926 40.37511 32.31719
# Shear Modulus (GPa) = 18.67602 25.64890 22.16246
#
# Velocity S-wave (km/s) = 3.20008 3.75018 3.48600
# Velocity P-wave (km/s) = 5.19191 6.39456 5.82436
#
# Compressibility (1/GPa) = 0.04122137
#
# Stress axis : x y z
#
# Youngs Moduli (GPa) = 26.78187 77.54501 21.16484
#
# Poissons Ratio (x) = 0.89085 0.28693
# Poissons Ratio (y) = 0.30767 0.06530
# Poissons Ratio (z) = 0.36308 0.23926
#
# Static dielectric constant tensor:
#      x y z
#    x 1.476010 0.000000 0.000000 
#    y 0.000000 1.690180 0.000000 
#    z 0.000000 0.000000 1.584050 
# 
# From -- ./inp_files/14750.got.cif
#   From: 2010.05.17/outbox.cif.g08.bks.cpg/sg56_8_cif.got.tgz:14750.got - 2010.06.03 13:42:01.
