data_PCOD9431505
_publ_section_title
;
Structure prediction by ZEFSAII (Michael W. Deem and Ramdas Pophale) SiO2 
 PCOD9431505
Probable space group: P C C N
;
_chemical_formula_sum "Si O2"
_cell_formula_units_Z 60
_cell_length_a 18.229321
_cell_length_b 16.616693
_cell_length_c 10.030005
_cell_angle_alpha 90.000000
_cell_angle_beta 90.000000
_cell_angle_gamma 90.000000
_cell_volume 3038.199152
_symmetry_space_group_name_H-M "P C C N"
_symmetry_group_IT_number 56
_symmetry_cell_setting 'orthorhombic'
loop_
_space_group_symop_operation_xyz
x,y,z
1/2-x,1/2-y,z
1/2+x,-y,1/2-z
-x,1/2+y,1/2-z
-x,-y,-z
1/2+x,1/2+y,-z
1/2-x,y,1/2+z
x,1/2-y,1/2+z
loop_
_atom_site_type_symbol
_atom_site_label
_atom_site_fract_x
_atom_site_fract_y
_atom_site_fract_z
Si Si1 0.611298 0.270538 0.546237
Si Si2 0.894315 0.547624 0.896393
Si Si3 0.505770 0.113028 0.899622
Si Si4 0.211348 0.891836 0.300709
Si Si5 0.730062 0.003898 0.455005
Si Si6 0.978252 0.115990 0.104861
Si Si7 0.594088 0.560558 0.092314
Si Si8 0.750000 0.250000 0.365710
O O1 0.552052 0.311546 0.449984
O O2 0.641927 0.339486 0.647221
O O3 0.574476 0.192483 0.608658
O O4 0.680057 0.241486 0.459066
O O5 0.936819 0.461879 0.906544
O O6 0.902766 0.581000 0.747521
O O7 0.808750 0.534206 0.921967
O O8 0.936964 0.600051 0.004452
O O9 0.481693 0.114672 0.746836
O O10 0.250015 0.931698 0.428168
O O11 0.262280 0.826232 0.228635
O O12 0.198340 0.955460 0.180871
O O13 0.671907 0.942888 0.518372
O O14 0.933351 0.032838 0.087873
O O15 0.036240 0.115048 0.985588
#
# Coordination Sequence:
#
# PCOD9431505 Si02
#       8
#     8   8   8   8   8   8   8   4
#     4  12  24  40  60  91 129 170 209 262 324 395
#     4  10  21  39  61  89 123 164 212 266 320 376
#     4  10  22  38  60  85 125 163 212 259 317 389
#     4  12  24  36  59  92 127 167 202 258 314 388
#     4  12  23  39  64  93 125 162 215 263 322 376
#     4  10  24  40  59  87 121 172 218 260 316 381
#     4  10  23  41  60  86 122 163 215 263 311 382
#     4  12  24  36  56  88 128 170 206 248 320 396
#
# _framework density 19.748542
#
# number of rings (size 3 to 8) (size 9 to 14) (size 15 to 20)
#    0.000    1.067    4.000    2.000    5.600    4.267 
#    0.000    0.000    0.000    0.800    0.000    3.733 
#    0.000    0.000    0.000    0.000    0.000    0.000 
#
# Total GULP energy -335312.454452 kJ/mol
# GULP energy per Si atom -5588.540908 kJ/mol
# Density = 1.970359 g / cm^3
# Si number density = 19.748542 Si / 1000 Ang^3
#
#
#
# Elastic Constant Matrix: (Units=GPa)
#
#
# Indices 1 2 3 4 5 6 
#
# 1 94.9830 17.5772 66.3173 0.0000 0.0000 0.0000
# 2 17.5772 26.3304 21.6921 0.0000 0.0000 0.0000
# 3 66.3173 21.6921 149.6881 0.0000 0.0000 0.0000
# 4 0.0000 0.0000 0.0000 19.6480 0.0000 0.0000
# 5 0.0000 0.0000 0.0000 0.0000 25.2109 0.0000
# 6 0.0000 0.0000 0.0000 0.0000 0.0000 32.8966
#
#
#
# Elastic Compliance Matrix: (Units=1/GPa)
#
#
# Indices 1 2 3 4 5 6 
#
# 1 0.015907 -0.005466 -0.006255 0.000000 0.000000 0.000000
# 2 -0.005466 0.045006 -0.004101 0.000000 0.000000 0.000000
# 3 -0.006255 -0.004101 0.010046 0.000000 0.000000 0.000000
# 4 0.000000 0.000000 0.000000 0.050896 0.000000 0.000000
# 5 0.000000 0.000000 0.000000 0.000000 0.039665 0.000000
# 6 0.000000 0.000000 0.000000 0.000000 0.000000 0.030398
#
#
# Mechanical properties :
#
#
# Convention : Reuss Voigt Hill
#
# Bulk Modulus (GPa) = 25.43495 53.57495 39.50495
# Shear Modulus (GPa) = 21.12673 26.57876 23.85274
#
# Velocity S-wave (km/s) = 3.27431 3.67258 3.47915
# Velocity P-wave (km/s) = 5.21557 6.72095 6.01554
#
# Compressibility (1/GPa) = 0.03931597
#
# Stress axis : x y z
#
# Youngs Moduli (GPa) = 62.86468 22.21938 99.54044
#
# Poissons Ratio (x) = 0.12144 0.62267
# Poissons Ratio (y) = 0.34359 0.40817
# Poissons Ratio (z) = 0.39324 0.09111
#
# Static dielectric constant tensor:
#      x y z
#    x 1.675130 0.000000 0.000000 
#    y 0.000000 1.700020 0.000000 
#    z 0.000000 0.000000 1.719600 
# 
# From -- ./inp_files/4161.got.cif
#   From: 2010.05.17/outbox.cif.g08.bks.cpg/sg56_3_cif.got.tgz:4161.got - 2010.06.03 13:42:01.
