data_PCOD9431564
_publ_section_title
;
Structure prediction by ZEFSAII (Michael W. Deem and Ramdas Pophale) SiO2 
 PCOD9431564
Probable space group: P C C N
;
_chemical_formula_sum "Si O2"
_cell_formula_units_Z 36
_cell_length_a 17.234438
_cell_length_b 7.894782
_cell_length_c 14.156283
_cell_angle_alpha 90.000000
_cell_angle_beta 90.000000
_cell_angle_gamma 90.000000
_cell_volume 1926.134031
_symmetry_space_group_name_H-M "P C C N"
_symmetry_group_IT_number 56
_symmetry_cell_setting 'orthorhombic'
loop_
_space_group_symop_operation_xyz
x,y,z
1/2-x,1/2-y,z
1/2+x,-y,1/2-z
-x,1/2+y,1/2-z
-x,-y,-z
1/2+x,1/2+y,-z
1/2-x,y,1/2+z
x,1/2-y,1/2+z
loop_
_atom_site_type_symbol
_atom_site_label
_atom_site_fract_x
_atom_site_fract_y
_atom_site_fract_z
Si Si1 0.814225 0.605169 0.865699
Si Si2 0.077834 0.416425 0.958456
Si Si3 0.103217 0.611960 0.783018
Si Si4 0.435568 0.242244 0.267528
Si Si5 0.750000 0.250000 0.323145
O O1 0.750000 0.750000 0.853866
O O2 0.873016 0.613400 0.775778
O O3 0.774500 0.421697 0.876311
O O4 0.867141 0.638248 0.957154
O O5 0.115516 0.561373 0.892075
O O6 0.062261 0.267883 0.881271
O O7 0.000000 0.500000 0.000000
O O8 0.091512 0.428405 0.733585
O O9 0.175565 0.704695 0.739604
O O10 0.021268 0.704149 0.769442
#
# Coordination Sequence:
#
# PCOD9431564 Si02
#       5
#     8   8   8   8   4
#     4  12  23  44  66  97 138 171 221 275 334 392
#     4  10  21  39  68  94 132 171 222 274 322 404
#     4  10  21  39  67  94 126 176 214 270 328 386
#     4  10  21  42  67  91 135 176 211 275 329 390
#     4  12  24  40  68  96 134 178 218 274 336 386
#
# _framework density 18.690287999999999
#
# number of rings (size 3 to 8) (size 9 to 14) (size 15 to 20)
#    1.333    0.000    4.444    2.667    0.000    3.556 
#    0.000    3.333    0.000    0.000    0.000    0.000 
#    0.000    0.000    0.000    0.000    0.000    0.000 
#
# Total GULP energy -200458.966221 kJ/mol
# GULP energy per Si atom -5568.304617 kJ/mol
# Density = 1.864775 g / cm^3
# Si number density = 18.690288 Si / 1000 Ang^3
#
#
#
# Elastic Constant Matrix: (Units=GPa)
#
#
# Indices 1 2 3 4 5 6 
#
# 1 107.4943 22.4305 18.3646 0.0000 0.0000 0.0000
# 2 22.4305 69.6072 2.1459 0.0000 0.0000 0.0000
# 3 18.3646 2.1459 77.3521 0.0000 0.0000 0.0000
# 4 0.0000 0.0000 0.0000 6.6963 0.0000 0.0000
# 5 0.0000 0.0000 0.0000 0.0000 11.1763 0.0000
# 6 0.0000 0.0000 0.0000 0.0000 0.0000 39.4465
#
#
#
# Elastic Compliance Matrix: (Units=1/GPa)
#
#
# Indices 1 2 3 4 5 6 
#
# 1 0.010392 -0.003276 -0.002376 0.000000 0.000000 0.000000
# 2 -0.003276 0.015411 0.000350 0.000000 0.000000 0.000000
# 3 -0.002376 0.000350 0.013482 0.000000 0.000000 0.000000
# 4 0.000000 0.000000 0.000000 0.149336 0.000000 0.000000
# 5 0.000000 0.000000 0.000000 0.000000 0.089475 0.000000
# 6 0.000000 0.000000 0.000000 0.000000 0.000000 0.025351
#
#
# Mechanical properties :
#
#
# Convention : Reuss Voigt Hill
#
# Bulk Modulus (GPa) = 34.86501 37.81503 36.34002
# Shear Modulus (GPa) = 15.45057 25.56466 20.50761
#
# Velocity S-wave (km/s) = 2.87829 3.70240 3.31605
# Velocity P-wave (km/s) = 5.45350 6.20913 5.84354
#
# Compressibility (1/GPa) = 0.02868205
#
# Stress axis : x y z
#
# Youngs Moduli (GPa) = 96.22489 64.88838 74.17082
#
# Poissons Ratio (x) = 0.21255 0.17626
# Poissons Ratio (y) = 0.31519 -0.02597
# Poissons Ratio (z) = 0.22867 -0.02272
#
# Static dielectric constant tensor:
#      x y z
#    x 1.657640 0.000000 0.000000 
#    y 0.000000 1.833890 0.000000 
#    z 0.000000 0.000000 1.640800 
# 
# From -- ./inp_files/10477.got.cif
#   From: 2010.05.17/outbox.cif.g08.bks.cpg/sg56_6_cif.got.tgz:10477.got - 2010.06.03 13:42:01.
