data_PCOD9431347
_publ_section_title
;
Structure prediction by ZEFSAII (Michael W. Deem and Ramdas Pophale) SiO2 
 PCOD9431347
Probable space group: P C C N
;
_chemical_formula_sum "Si O2"
_cell_formula_units_Z 60
_cell_length_a 19.630734
_cell_length_b 12.640612
_cell_length_c 12.882562
_cell_angle_alpha 90.000000
_cell_angle_beta 90.000000
_cell_angle_gamma 90.000000
_cell_volume 3196.736800
_symmetry_space_group_name_H-M "P C C N"
_symmetry_group_IT_number 56
_symmetry_cell_setting 'orthorhombic'
loop_
_space_group_symop_operation_xyz
x,y,z
1/2-x,1/2-y,z
1/2+x,-y,1/2-z
-x,1/2+y,1/2-z
-x,-y,-z
1/2+x,1/2+y,-z
1/2-x,y,1/2+z
x,1/2-y,1/2+z
loop_
_atom_site_type_symbol
_atom_site_label
_atom_site_fract_x
_atom_site_fract_y
_atom_site_fract_z
Si Si1 0.403423 0.311633 0.879670
Si Si2 0.640169 0.120482 0.877719
Si Si3 0.327015 0.395868 0.706743
Si Si4 0.327015 0.104132 0.793257
Si Si5 0.859831 0.120482 0.622281
Si Si6 0.750000 0.250000 0.250000
Si Si7 0.596577 0.688367 0.879670
Si Si8 0.468993 0.750000 0.250000
O O1 0.371827 0.404502 0.811040
O O2 0.356336 0.208452 0.851678
O O3 0.479177 0.292779 0.837340
O O4 0.401404 0.331408 0.000000
O O5 0.703554 0.180446 0.825676
O O6 0.577051 0.162409 0.807899
O O7 0.657197 0.997073 0.862658
O O8 0.630609 0.143948 0.000000
O O9 0.250000 0.386668 0.750000
O O10 0.356336 0.291548 0.648322
O O11 0.371828 0.095498 0.688960
O O12 0.342803 0.002927 0.862658
O O13 0.796446 0.180447 0.674325
O O14 0.922949 0.162409 0.692102
O O15 0.520823 0.707220 0.837340
#
# Coordination Sequence:
#
# PCOD9431347 Si02
#       8
#     8   8   8   8   8   4   8   8
#     4  10  21  38  59  83 119 159 192 243 293 334
#     4  11  21  38  62  84 116 155 188 238 295 342
#     4  10  21  37  57  90 120 145 200 240 281 361
#     4  10  21  37  57  90 120 145 200 240 281 361
#     4  11  21  38  62  84 116 155 188 238 295 342
#     4  10  22  40  56  88 118 144 196 232 278 352
#     4  10  21  38  59  83 119 159 192 243 293 334
#     4   9  22  39  57  86 117 148 206 244 277 354
#
# _framework density 18.769138999999999
#
# number of rings (size 3 to 8) (size 9 to 14) (size 15 to 20)
#    0.000    2.133    1.333    3.600    0.000    7.467 
#    0.000   10.667    0.000    0.000    0.000    0.000 
#    0.000    0.000    0.000    0.000    0.000    0.000 
#
# Total GULP energy -334394.625787 kJ/mol
# GULP energy per Si atom -5573.243763 kJ/mol
# Density = 1.872642 g / cm^3
# Si number density = 18.769139 Si / 1000 Ang^3
#
#
#
# Elastic Constant Matrix: (Units=GPa)
#
#
# Indices 1 2 3 4 5 6 
#
# 1 110.8547 13.4763 16.1268 0.0000 0.0000 0.0000
# 2 13.4763 50.1163 9.4388 0.0000 0.0000 0.0000
# 3 16.1268 9.4388 134.6197 0.0000 0.0000 0.0000
# 4 0.0000 0.0000 0.0000 20.1137 0.0000 0.0000
# 5 0.0000 0.0000 0.0000 0.0000 5.8491 0.0000
# 6 0.0000 0.0000 0.0000 0.0000 0.0000 -8.9208
#
#
#
# Elastic Compliance Matrix: (Units=1/GPa)
#
#
# Indices 1 2 3 4 5 6 
#
# 1 0.009448 -0.002359 -0.000966 0.000000 0.000000 0.000000
# 2 -0.002359 0.020809 -0.001176 0.000000 0.000000 0.000000
# 3 -0.000966 -0.001176 0.007627 0.000000 0.000000 0.000000
# 4 0.000000 0.000000 0.000000 0.049717 0.000000 0.000000
# 5 0.000000 0.000000 0.000000 0.000000 0.170968 0.000000
# 6 0.000000 0.000000 0.000000 0.000000 0.000000 -0.112098
#
#
# Mechanical properties :
#
#
# Convention : Reuss Voigt Hill
#
# Bulk Modulus (GPa) = 34.62480 41.51939 38.07209
# Shear Modulus (GPa) = 30.28447 20.51165 25.39806
#
# Velocity S-wave (km/s) = 4.02123 3.30940 3.68255
# Velocity P-wave (km/s) = 6.32836 6.06399 6.19758
#
# Compressibility (1/GPa) = 0.02888104
#
# Stress axis : x y z
#
# Youngs Moduli (GPa) = 105.84096 48.05521 131.12004
#
# Poissons Ratio (x) = 0.11334 0.12672
# Poissons Ratio (y) = 0.24963 0.15426
# Poissons Ratio (z) = 0.10229 0.05654
#
# Static dielectric constant tensor:
#      x y z
#    x 1.676820 0.000000 0.000000 
#    y 0.000000 1.662450 0.000000 
#    z 0.000000 0.000000 1.630210 
# 
# From -- ./inp_files/12809.got.cif
#   From: 2010.05.17/outbox.cif.g08.bks.cpg/sg56_7_cif.got.tgz:12809.got - 2010.06.03 13:42:01.
