data_PCOD9431634
_publ_section_title
;
Structure prediction by ZEFSAII (Michael W. Deem and Ramdas Pophale) SiO2 
 PCOD9431634
Probable space group: P C C N
;
_chemical_formula_sum "Si O2"
_cell_formula_units_Z 40
_cell_length_a 23.462401
_cell_length_b 5.564356
_cell_length_c 13.469480
_cell_angle_alpha 90.000000
_cell_angle_beta 90.000000
_cell_angle_gamma 90.000000
_cell_volume 1758.483067
_symmetry_space_group_name_H-M "P C C N"
_symmetry_group_IT_number 56
_symmetry_cell_setting 'orthorhombic'
loop_
_space_group_symop_operation_xyz
x,y,z
1/2-x,1/2-y,z
1/2+x,-y,1/2-z
-x,1/2+y,1/2-z
-x,-y,-z
1/2+x,1/2+y,-z
1/2-x,y,1/2+z
x,1/2-y,1/2+z
loop_
_atom_site_type_symbol
_atom_site_label
_atom_site_fract_x
_atom_site_fract_y
_atom_site_fract_z
Si Si1 0.354898 0.979347 0.787430
Si Si2 0.217268 0.490610 0.601493
Si Si3 0.936472 0.352746 0.850476
Si Si4 0.626267 0.282814 0.030691
Si Si5 0.055210 0.371086 0.342146
O O1 0.392444 0.187979 0.835856
O O2 0.305316 0.053985 0.713376
O O3 0.397554 0.822251 0.717867
O O4 0.335454 0.827340 0.882251
O O5 0.250000 0.750000 0.599865
O O6 0.163126 0.528511 0.530722
O O7 0.250000 0.250000 0.570655
O O8 0.952504 0.562451 0.774355
O O9 0.996000 0.233576 0.879584
O O10 0.899606 0.399686 0.948862
O O11 0.574709 0.409570 0.089183
#
# Coordination Sequence:
#
# PCOD9431634 Si02
#       5
#     8   8   8   8   8
#     4  10  24  43  68  99 135 179 232 288 347 430
#     4  11  28  51  75  99 139 186 237 306 369 412
#     4  10  21  40  64  99 143 181 221 273 355 416
#     4  10  25  42  68 103 134 177 241 291 347 427
#     4  11  21  40  67  99 141 186 225 282 347 432
#
# _framework density 22.746876
#
# number of rings (size 3 to 8) (size 9 to 14) (size 15 to 20)
#    0.000    1.600    2.000    0.600   11.200    3.200 
#    0.000    0.000    0.000    0.000    0.000    0.000 
#    0.000    0.000    0.000    0.000    0.000    0.000 
#
# Total GULP energy -223390.205219 kJ/mol
# GULP energy per Si atom -5584.755130 kJ/mol
# Density = 2.269510 g / cm^3
# Si number density = 22.746876 Si / 1000 Ang^3
#
#
#
# Elastic Constant Matrix: (Units=GPa)
#
#
# Indices 1 2 3 4 5 6 
#
# 1 54.1891 2.5843 27.9030 0.0000 0.0000 0.0000
# 2 2.5843 24.1894 12.7508 0.0000 0.0000 0.0000
# 3 27.9030 12.7508 131.0564 0.0000 0.0000 0.0000
# 4 0.0000 0.0000 0.0000 53.6436 0.0000 0.0000
# 5 0.0000 0.0000 0.0000 0.0000 26.9697 0.0000
# 6 0.0000 0.0000 0.0000 0.0000 0.0000 19.8333
#
#
#
# Elastic Compliance Matrix: (Units=1/GPa)
#
#
# Indices 1 2 3 4 5 6 
#
# 1 0.020726 0.000118 -0.004424 0.000000 0.000000 0.000000
# 2 0.000118 0.043576 -0.004265 0.000000 0.000000 0.000000
# 3 -0.004424 -0.004265 0.008987 0.000000 0.000000 0.000000
# 4 0.000000 0.000000 0.000000 0.018642 0.000000 0.000000
# 5 0.000000 0.000000 0.000000 0.000000 0.037079 0.000000
# 6 0.000000 0.000000 0.000000 0.000000 0.000000 0.050420
#
#
# Mechanical properties :
#
#
# Convention : Reuss Voigt Hill
#
# Bulk Modulus (GPa) = 17.81035 32.87903 25.34469
# Shear Modulus (GPa) = 23.22469 31.16910 27.19689
#
# Velocity S-wave (km/s) = 3.19878 3.70572 3.46154
# Velocity P-wave (km/s) = 4.63571 5.72673 5.20986
#
# Compressibility (1/GPa) = 0.05614711
#
# Stress axis : x y z
#
# Youngs Moduli (GPa) = 48.24752 22.94849 111.26935
#
# Poissons Ratio (x) = -0.00270 0.49229
# Poissons Ratio (y) = -0.00568 0.47453
# Poissons Ratio (z) = 0.21346 0.09787
#
# Static dielectric constant tensor:
#      x y z
#    x 1.846510 0.000000 0.000000 
#    y 0.000000 1.920550 0.000000 
#    z 0.000000 0.000000 1.821570 
# 
# From -- ./inp_files/8998.got.cif
#   From: 2010.05.17/outbox.cif.g08.bks.cpg/sg56_5_cif.got.tgz:8998.got - 2010.06.03 13:42:01.
