data_PCOD9431606
_publ_section_title
;
Structure prediction by ZEFSAII (Michael W. Deem and Ramdas Pophale) SiO2 
 PCOD9431606
Probable space group: P C C N
;
_chemical_formula_sum "Si O2"
_cell_formula_units_Z 48
_cell_length_a 8.867573
_cell_length_b 8.353631
_cell_length_c 29.413789
_cell_angle_alpha 90.000000
_cell_angle_beta 90.000000
_cell_angle_gamma 90.000000
_cell_volume 2178.868562
_symmetry_space_group_name_H-M "P C C N"
_symmetry_group_IT_number 56
_symmetry_cell_setting 'orthorhombic'
loop_
_space_group_symop_operation_xyz
x,y,z
1/2-x,1/2-y,z
1/2+x,-y,1/2-z
-x,1/2+y,1/2-z
-x,-y,-z
1/2+x,1/2+y,-z
1/2-x,y,1/2+z
x,1/2-y,1/2+z
loop_
_atom_site_type_symbol
_atom_site_label
_atom_site_fract_x
_atom_site_fract_y
_atom_site_fract_z
Si Si1 0.423224 0.299052 0.887892
Si Si2 0.923441 0.297430 0.227209
Si Si3 0.580156 0.294574 0.474344
Si Si4 0.075421 0.992653 0.183960
Si Si5 0.422173 0.010771 0.152938
Si Si6 0.089197 0.336804 0.059181
O O1 0.250000 0.250000 0.882391
O O2 0.467846 0.299828 0.940758
O O3 0.470631 0.454542 0.859399
O O4 0.527125 0.157941 0.867395
O O5 0.750000 0.250000 0.220766
O O6 0.943800 0.351087 0.279120
O O7 0.972960 0.442882 0.194951
O O8 0.026407 0.151872 0.210301
O O9 0.750000 0.250000 0.465109
O O10 0.582755 0.482240 0.460573
O O11 0.532861 0.256803 0.526066
O O12 0.248375 0.004435 0.168151
O O13 0.441331 0.141482 0.112620
O O14 0.250000 0.250000 0.053463
#
# Coordination Sequence:
#
# PCOD9431606 Si02
#       6
#     8   8   8   8   8   8
#     4  11  22  40  65  92 125 166 213 268 325 389
#     4  12  25  40  62  93 125 163 215 266 321 387
#     4  10  22  39  63  93 127 167 214 267 328 393
#     4  12  24  42  66  91 126 170 212 264 326 387
#     4  11  24  43  64  91 131 172 216 268 326 386
#     4  10  21  40  62  90 126 167 216 268 322 386
#
# _framework density 22.029783999999999
#
# number of rings (size 3 to 8) (size 9 to 14) (size 15 to 20)
#    0.000    1.000    0.000    8.500    0.000    2.667 
#    0.000    6.667    0.000    0.000    0.000    0.000 
#    0.000    0.000    0.000    0.000    0.000    0.000 
#
# Total GULP energy -268437.734092 kJ/mol
# GULP energy per Si atom -5592.452794 kJ/mol
# Density = 2.197964 g / cm^3
# Si number density = 22.029784 Si / 1000 Ang^3
#
#
#
# Elastic Constant Matrix: (Units=GPa)
#
#
# Indices 1 2 3 4 5 6 
#
# 1 45.5338 -15.9765 20.0646 0.0000 0.0000 0.0000
# 2 -15.9765 35.3338 23.4117 0.0000 0.0000 0.0000
# 3 20.0646 23.4117 121.8835 0.0000 0.0000 0.0000
# 4 0.0000 0.0000 0.0000 -43.2431 0.0000 0.0000
# 5 0.0000 0.0000 0.0000 0.0000 39.2450 0.0000
# 6 0.0000 0.0000 0.0000 0.0000 0.0000 37.6806
#
#
#
# Elastic Compliance Matrix: (Units=1/GPa)
#
#
# Indices 1 2 3 4 5 6 
#
# 1 0.033924 0.021816 -0.009775 0.000000 0.000000 0.000000
# 2 0.021816 0.046458 -0.012515 0.000000 0.000000 0.000000
# 3 -0.009775 -0.012515 0.012218 0.000000 0.000000 0.000000
# 4 0.000000 0.000000 0.000000 -0.023125 0.000000 0.000000
# 5 0.000000 0.000000 0.000000 0.000000 0.025481 0.000000
# 6 0.000000 0.000000 0.000000 0.000000 0.000000 0.026539
#
#
# Mechanical properties :
#
#
# Convention : Reuss Voigt Hill
#
# Bulk Modulus (GPa) = 10.91101 28.63896 19.77499
# Shear Modulus (GPa) = 32.68124 18.41993 25.55059
#
# Velocity S-wave (km/s) = 3.85580 2.89474 3.40931
# Velocity P-wave (km/s) = 4.97861 4.91945 4.94912
#
# Compressibility (1/GPa) = 0.09165055
#
# Stress axis : x y z
#
# Youngs Moduli (GPa) = 29.47800 21.52479 81.84879
#
# Poissons Ratio (x) = -0.46958 0.80007
# Poissons Ratio (y) = -0.64308 1.02435
# Poissons Ratio (z) = 0.28815 0.26939
#
# Static dielectric constant tensor:
#      x y z
#    x 1.692300 0.000000 0.000000 
#    y 0.000000 1.876850 0.000000 
#    z 0.000000 0.000000 1.843570 
# 
# From -- ./inp_files/23241.got.cif
#   From: 2010.05.17/outbox.cif.g08.bks.cpg/sg56_12_cif.got.tgz:23241.got - 2010.06.03 13:42:01.
