data_PCOD9431534
_publ_section_title
;
Structure prediction by ZEFSAII (Michael W. Deem and Ramdas Pophale) SiO2 
 PCOD9431534
Probable space group: P C C N
;
_chemical_formula_sum "Si O2"
_cell_formula_units_Z 60
_cell_length_a 18.454539
_cell_length_b 18.454542
_cell_length_c 8.604804
_cell_angle_alpha 90.000000
_cell_angle_beta 90.000000
_cell_angle_gamma 90.000000
_cell_volume 2930.538658
_symmetry_space_group_name_H-M "P C C N"
_symmetry_group_IT_number 56
_symmetry_cell_setting 'orthorhombic'
loop_
_space_group_symop_operation_xyz
x,y,z
1/2-x,1/2-y,z
1/2+x,-y,1/2-z
-x,1/2+y,1/2-z
-x,-y,-z
1/2+x,1/2+y,-z
1/2-x,y,1/2+z
x,1/2-y,1/2+z
loop_
_atom_site_type_symbol
_atom_site_label
_atom_site_fract_x
_atom_site_fract_y
_atom_site_fract_z
Si Si1 0.750000 0.750000 0.250000
Si Si2 0.148571 0.970515 0.201821
Si Si3 0.669567 0.669567 0.000000
Si Si4 0.919791 0.540942 0.835886
Si Si5 0.990314 0.793106 0.879473
Si Si6 0.793106 0.509686 0.620527
Si Si7 0.970515 0.148571 0.798179
Si Si8 0.040942 0.080209 0.335886
O O1 0.776443 0.686070 0.358703
O O2 0.686070 0.723557 0.141298
O O3 0.214370 0.986057 0.319863
O O4 0.098355 0.901645 0.243311
O O5 0.095087 0.040320 0.215360
O O6 0.178109 0.963567 0.026236
O O7 0.591241 0.694559 0.941548
O O8 0.694558 0.591241 0.058453
O O9 0.845715 0.510181 0.769761
O O10 0.959680 0.595087 0.715360
O O11 0.973265 0.473265 0.856337
O O12 0.917415 0.582585 0.000000
O O13 0.989819 0.845715 0.730239
O O14 0.013943 0.714370 0.819863
O O15 0.036433 0.821891 0.026236
#
# Coordination Sequence:
#
# PCOD9431534 Si02
#       8
#     4   8   8   8   8   8   8   8
#     4  10  24  38  52  86 140 170 212 254 340 414
#     4  11  24  42  66  98 132 176 229 286 348 414
#     4  11  22  38  59  92 128 184 209 270 329 416
#     4  10  21  39  63  93 129 170 221 275 331 400
#     4  12  22  41  65  95 132 177 228 285 342 417
#     4  12  22  41  65  95 132 177 228 285 342 417
#     4  11  24  42  66  98 132 176 229 286 348 414
#     4  10  21  39  63  93 129 170 221 275 331 400
#
# _framework density 20.474052
#
# number of rings (size 3 to 8) (size 9 to 14) (size 15 to 20)
#    0.000    1.067    2.667    4.000    0.000    2.133 
#    0.000    1.333    0.000    6.400    0.000    0.000 
#    0.000    0.000    0.000    0.000    0.000    0.000 
#
# Total GULP energy -335143.451443 kJ/mol
# GULP energy per Si atom -5585.724191 kJ/mol
# Density = 2.042745 g / cm^3
# Si number density = 20.474052 Si / 1000 Ang^3
#
#
#
# Elastic Constant Matrix: (Units=GPa)
#
#
# Indices 1 2 3 4 5 6 
#
# 1 89.8449 67.2063 33.2318 0.0000 0.0000 0.0000
# 2 67.2063 89.8450 33.2318 0.0000 0.0000 0.0000
# 3 33.2318 33.2318 95.3221 0.0000 0.0000 0.0000
# 4 0.0000 0.0000 0.0000 -226.7693 0.0000 0.0000
# 5 0.0000 0.0000 0.0000 0.0000 -226.7769 0.0000
# 6 0.0000 0.0000 0.0000 0.0000 0.0000 19.9975
#
#
#
# Elastic Compliance Matrix: (Units=1/GPa)
#
#
# Indices 1 2 3 4 5 6 
#
# 1 0.025821 -0.018351 -0.002604 0.000000 0.000000 0.000000
# 2 -0.018351 0.025821 -0.002604 0.000000 0.000000 0.000000
# 3 -0.002604 -0.002604 0.012306 0.000000 0.000000 0.000000
# 4 0.000000 0.000000 0.000000 -0.004410 0.000000 0.000000
# 5 0.000000 0.000000 0.000000 0.000000 -0.004410 0.000000
# 6 0.000000 0.000000 0.000000 0.000000 0.000000 0.050006
#
#
# Mechanical properties :
#
#
# Convention : Reuss Voigt Hill
#
# Bulk Modulus (GPa) = 59.42103 60.26131 59.84117
# Shear Modulus (GPa) = 31.67294 -77.28695 -22.80700
#
# Velocity S-wave (km/s) = 3.93743 -6.15067 -3.34120
# Velocity P-wave (km/s) = 7.05385 4.57646 3.79558
#
# Compressibility (1/GPa) = 0.01682906
#
# Stress axis : x y z
#
# Youngs Moduli (GPa) = 38.72850 38.72856 81.25851
#
# Poissons Ratio (x) = 0.71072 0.21160
# Poissons Ratio (y) = 0.71072 0.21160
# Poissons Ratio (z) = 0.10085 0.10085
#
# Static dielectric constant tensor:
#      x y z
#    x 1.750610 0.000000 0.000000 
#    y 0.000000 1.750610 0.000000 
#    z 0.000000 0.000000 1.815260 
# 
# From -- ./inp_files/4122.got.cif
#   From: 2010.05.17/outbox.cif.g08.bks.cpg/sg56_3_cif.got.tgz:4122.got - 2010.06.03 13:42:01.
