data_PCOD9431967
_publ_section_title
;
Structure prediction by ZEFSAII (Michael W. Deem and Ramdas Pophale) SiO2 
 PCOD9431967
Probable space group: P C C N
;
_chemical_formula_sum "Si O2"
_cell_formula_units_Z 32
_cell_length_a 16.541120
_cell_length_b 9.032393
_cell_length_c 9.070211
_cell_angle_alpha 90.000000
_cell_angle_beta 90.000000
_cell_angle_gamma 90.000000
_cell_volume 1355.143006
_symmetry_space_group_name_H-M "P C C N"
_symmetry_group_IT_number 56
_symmetry_cell_setting 'orthorhombic'
loop_
_space_group_symop_operation_xyz
x,y,z
1/2-x,1/2-y,z
1/2+x,-y,1/2-z
-x,1/2+y,1/2-z
-x,-y,-z
1/2+x,1/2+y,-z
1/2-x,y,1/2+z
x,1/2-y,1/2+z
loop_
_atom_site_type_symbol
_atom_site_label
_atom_site_fract_x
_atom_site_fract_y
_atom_site_fract_z
Si Si1 0.324293 0.056186 0.767459
Si Si2 0.750000 0.250000 0.683475
Si Si3 0.576778 0.155707 0.591597
Si Si4 0.987346 0.417457 0.267379
Si Si5 0.750000 0.750000 0.477726
O O1 0.288908 0.130032 0.913866
O O2 0.311484 0.165655 0.630540
O O3 0.277228 0.901483 0.735689
O O4 0.418064 0.024766 0.795275
O O5 0.668401 0.210917 0.595762
O O6 0.548150 0.127317 0.426928
O O7 0.516863 0.277396 0.662100
O O8 0.567228 0.009227 0.693831
#
# Coordination Sequence:
#
# PCOD9431967 Si02
#       5
#     8   4   8   8   4
#     4  10  22  39  62  90 126 168 216 270 324 385
#     4  10  22  42  66  92 126 172 222 266 314 382
#     4  10  23  41  63  92 126 165 213 262 320 381
#     4  10  23  41  62  91 125 164 211 265 322 384
#     4  10  22  38  60  92 128 168 214 268 330 384
#
# _framework density 23.613744000000001
#
# number of rings (size 3 to 8) (size 9 to 14) (size 15 to 20)
#    0.000    2.000    0.000    1.500    0.000   22.000 
#    0.000    0.000    0.000    0.000    0.000    0.000 
#    0.000    0.000    0.000    0.000    0.000    0.000 
#
# Total GULP energy -178955.315972 kJ/mol
# GULP energy per Si atom -5592.353624 kJ/mol
# Density = 2.356000 g / cm^3
# Si number density = 23.613744 Si / 1000 Ang^3
#
#
#
# Elastic Constant Matrix: (Units=GPa)
#
#
# Indices 1 2 3 4 5 6 
#
# 1 70.1193 24.8434 -7.3553 0.0000 0.0000 0.0000
# 2 24.8434 80.7076 -1.5080 0.0000 0.0000 0.0000
# 3 -7.3553 -1.5080 29.4726 0.0000 0.0000 0.0000
# 4 0.0000 0.0000 0.0000 13.1243 0.0000 0.0000
# 5 0.0000 0.0000 0.0000 0.0000 14.4000 0.0000
# 6 0.0000 0.0000 0.0000 0.0000 0.0000 51.0119
#
#
#
# Elastic Compliance Matrix: (Units=1/GPa)
#
#
# Indices 1 2 3 4 5 6 
#
# 1 0.016431 -0.004986 0.003846 0.000000 0.000000 0.000000
# 2 -0.004986 0.013915 -0.000532 0.000000 0.000000 0.000000
# 3 0.003846 -0.000532 0.034862 0.000000 0.000000 0.000000
# 4 0.000000 0.000000 0.000000 0.076194 0.000000 0.000000
# 5 0.000000 0.000000 0.000000 0.000000 0.069445 0.000000
# 6 0.000000 0.000000 0.000000 0.000000 0.000000 0.019603
#
#
# Mechanical properties :
#
#
# Convention : Reuss Voigt Hill
#
# Bulk Modulus (GPa) = 16.16466 23.58439 19.87453
# Shear Modulus (GPa) = 19.65270 26.66186 23.15728
#
# Velocity S-wave (km/s) = 2.88802 3.36383 3.13496
# Velocity P-wave (km/s) = 4.24042 5.00963 4.64099
#
# Compressibility (1/GPa) = 0.06186335
#
# Stress axis : x y z
#
# Youngs Moduli (GPa) = 60.85919 71.86352 28.68424
#
# Poissons Ratio (x) = 0.35831 -0.11031
# Poissons Ratio (y) = 0.30345 0.01527
# Poissons Ratio (z) = -0.23404 0.03826
#
# Static dielectric constant tensor:
#      x y z
#    x 1.881220 0.000000 0.000000 
#    y 0.000000 1.962040 0.000000 
#    z 0.000000 0.000000 1.825990 
# 
# From -- ./inp_files/1943.got.cif
#   From: 2010.05.17/outbox.cif.g08.bks.cpg/sg56_1_cif.got.tgz:1943.got - 2010.06.03 13:42:01.
