data_PCOD9431903
_publ_section_title
;
Structure prediction by ZEFSAII (Michael W. Deem and Ramdas Pophale) SiO2 
 PCOD9431903
Probable space group: P C C N
;
_chemical_formula_sum "Si O2"
_cell_formula_units_Z 60
_cell_length_a 24.574953
_cell_length_b 14.883760
_cell_length_c 7.810649
_cell_angle_alpha 90.000000
_cell_angle_beta 90.000000
_cell_angle_gamma 90.000000
_cell_volume 2856.883139
_symmetry_space_group_name_H-M "P C C N"
_symmetry_group_IT_number 56
_symmetry_cell_setting 'orthorhombic'
loop_
_space_group_symop_operation_xyz
x,y,z
1/2-x,1/2-y,z
1/2+x,-y,1/2-z
-x,1/2+y,1/2-z
-x,-y,-z
1/2+x,1/2+y,-z
1/2-x,y,1/2+z
x,1/2-y,1/2+z
loop_
_atom_site_type_symbol
_atom_site_label
_atom_site_fract_x
_atom_site_fract_y
_atom_site_fract_z
Si Si1 0.899953 0.141415 0.190468
Si Si2 0.592294 0.340109 0.601120
Si Si3 0.875649 0.019311 0.895895
Si Si4 0.250000 0.250000 0.464685
Si Si5 0.489895 0.059049 0.690106
Si Si6 0.819117 0.848622 0.776728
Si Si7 0.472571 0.142628 0.253070
Si Si8 0.428619 0.309099 0.425659
O O1 0.901779 0.134369 0.398873
O O2 0.883424 0.241554 0.136206
O O3 0.961342 0.120601 0.120575
O O4 0.866585 0.070813 0.074726
O O5 0.616760 0.412680 0.734661
O O6 0.529659 0.329161 0.664688
O O7 0.830301 0.946683 0.850116
O O8 0.933532 0.965470 0.904199
O O9 0.301472 0.218671 0.573944
O O10 0.230695 0.165446 0.353114
O O11 0.468847 0.114533 0.851497
O O12 0.517868 0.963088 0.724986
O O13 0.873728 0.819057 0.680158
O O14 0.456528 0.211604 0.403859
O O15 0.424137 0.163290 0.121261
#
# Coordination Sequence:
#
# PCOD9431903 Si02
#       8
#     8   8   8   4   8   8   8   8
#     4  12  21  37  57  85 130 181 220 250 308 346
#     4  11  21  36  58  84 131 188 215 257 299 349
#     4  10  24  39  58  93 127 162 227 266 302 385
#     4  10  22  48  72  88 122 158 186 272 360 404
#     4  10  22  33  53  78 125 175 217 258 289 350
#     4  10  23  43  67  95 122 153 210 264 336 401
#     4  11  21  33  50  79 124 173 218 251 300 339
#     4  11  21  35  56  82 121 163 212 260 293 368
#
# _framework density 21.001909999999999
#
# number of rings (size 3 to 8) (size 9 to 14) (size 15 to 20)
#    0.000    1.333    4.000    1.600    5.600    3.200 
#    4.800    0.000    0.000    0.000    0.000    2.800 
#    0.000    0.000    0.000    0.000    0.000    0.000 
#
# Total GULP energy -334642.226967 kJ/mol
# GULP energy per Si atom -5577.370449 kJ/mol
# Density = 2.095411 g / cm^3
# Si number density = 21.001910 Si / 1000 Ang^3
#
#
#
# Elastic Constant Matrix: (Units=GPa)
#
#
# Indices 1 2 3 4 5 6 
#
# 1 40.1407 25.9648 16.7131 0.0000 0.0000 0.0000
# 2 25.9648 125.7441 24.9147 0.0000 0.0000 0.0000
# 3 16.7131 24.9147 64.9384 0.0000 0.0000 0.0000
# 4 0.0000 0.0000 0.0000 -107.1580 0.0000 0.0000
# 5 0.0000 0.0000 0.0000 0.0000 10.9670 0.0000
# 6 0.0000 0.0000 0.0000 0.0000 0.0000 9.8760
#
#
#
# Elastic Compliance Matrix: (Units=1/GPa)
#
#
# Indices 1 2 3 4 5 6 
#
# 1 0.030723 -0.005170 -0.005923 0.000000 0.000000 0.000000
# 2 -0.005170 0.009477 -0.002305 0.000000 0.000000 0.000000
# 3 -0.005923 -0.002305 0.017808 0.000000 0.000000 0.000000
# 4 0.000000 0.000000 0.000000 -0.009332 0.000000 0.000000
# 5 0.000000 0.000000 0.000000 0.000000 0.091183 0.000000
# 6 0.000000 0.000000 0.000000 0.000000 0.000000 0.101256
#
#
# Mechanical properties :
#
#
# Convention : Reuss Voigt Hill
#
# Bulk Modulus (GPa) = 32.04098 40.66759 36.35429
# Shear Modulus (GPa) = 17.96515 -6.38097 5.79209
#
# Velocity S-wave (km/s) = 2.92790 -1.74496 1.66249
# Velocity P-wave (km/s) = 5.16909 3.91739 4.58615
#
# Compressibility (1/GPa) = 0.03121004
#
# Stress axis : x y z
#
# Youngs Moduli (GPa) = 32.54887 105.51807 56.15382
#
# Poissons Ratio (x) = 0.54556 0.33263
# Poissons Ratio (y) = 0.16829 0.12945
# Poissons Ratio (z) = 0.19280 0.24326
#
# Static dielectric constant tensor:
#      x y z
#    x 1.734060 0.000000 0.000000 
#    y 0.000000 1.767630 0.000000 
#    z 0.000000 0.000000 1.934570 
# 
# From -- ./inp_files/4803.got.cif
#   From: 2010.05.17/outbox.cif.g08.bks.cpg/sg56_3_cif.got.tgz:4803.got - 2010.06.03 13:42:01.
