data_PCOD9431833
_publ_section_title
;
Structure prediction by ZEFSAII (Michael W. Deem and Ramdas Pophale) SiO2 
 PCOD9431833
Probable space group: P C C N
;
_chemical_formula_sum "Si O2"
_cell_formula_units_Z 60
_cell_length_a 16.887054
_cell_length_b 16.203643
_cell_length_c 8.683279
_cell_angle_alpha 90.000000
_cell_angle_beta 90.000000
_cell_angle_gamma 90.000000
_cell_volume 2376.021214
_symmetry_space_group_name_H-M "P C C N"
_symmetry_group_IT_number 56
_symmetry_cell_setting 'orthorhombic'
loop_
_space_group_symop_operation_xyz
x,y,z
1/2-x,1/2-y,z
1/2+x,-y,1/2-z
-x,1/2+y,1/2-z
-x,-y,-z
1/2+x,1/2+y,-z
1/2-x,y,1/2+z
x,1/2-y,1/2+z
loop_
_atom_site_type_symbol
_atom_site_label
_atom_site_fract_x
_atom_site_fract_y
_atom_site_fract_z
Si Si1 0.082126 0.208481 0.420198
Si Si2 0.465565 0.868975 0.861083
Si Si3 0.128239 0.692631 0.369270
Si Si4 0.354506 0.109601 0.676075
Si Si5 0.489360 0.113391 0.470507
Si Si6 0.250000 0.250000 0.545149
Si Si7 0.742962 0.133132 0.365202
Si Si8 0.330494 0.965659 0.907466
O O1 0.079898 0.170395 0.251901
O O2 0.035989 0.293436 0.425492
O O3 0.173389 0.226258 0.449804
O O4 0.046496 0.150988 0.551386
O O5 0.417464 0.780589 0.857216
O O6 0.480288 0.913632 0.697379
O O7 0.415638 0.934156 0.960946
O O8 0.180533 0.675115 0.216474
O O9 0.190775 0.683976 0.511652
O O10 0.062954 0.623167 0.412908
O O11 0.408436 0.073238 0.537257
O O12 0.280948 0.167194 0.629839
O O13 0.331687 0.049423 0.814241
O O14 0.770282 0.050141 0.455197
O O15 0.692119 0.102196 0.222047
#
# Coordination Sequence:
#
# PCOD9431833 Si02
#       8
#     8   8   8   8   8   4   8   8
#     4  10  22  41  68 100 125 168 230 280 336 391
#     4  11  24  41  66 101 134 181 221 275 330 411
#     4  10  22  42  69  93 139 178 228 271 316 400
#     4  11  25  44  69  99 130 173 222 287 344 409
#     4  10  21  43  65  95 131 170 226 274 325 395
#     4  10  22  44  74  96 126 170 230 288 344 406
#     4  10  24  45  64 101 135 182 221 275 329 398
#     4  11  26  43  64 100 140 176 224 273 350 404
#
# _framework density 25.252300000000002
#
# number of rings (size 3 to 8) (size 9 to 14) (size 15 to 20)
#    0.000    1.600    1.333    2.800    7.467    5.333 
#    0.000    0.000    0.000    0.000    0.000    0.000 
#    0.000    0.000    0.000    0.000    0.000    0.000 
#
# Total GULP energy -335290.087804 kJ/mol
# GULP energy per Si atom -5588.168130 kJ/mol
# Density = 2.519482 g / cm^3
# Si number density = 25.252300 Si / 1000 Ang^3
#
#
#
# Elastic Constant Matrix: (Units=GPa)
#
#
# Indices 1 2 3 4 5 6 
#
# 1 113.1543 1.3045 13.9875 0.0000 0.0000 0.0000
# 2 1.3045 44.6515 -12.1028 0.0000 0.0000 0.0000
# 3 13.9875 -12.1028 50.7205 0.0000 0.0000 0.0000
# 4 0.0000 0.0000 0.0000 21.8233 0.0000 0.0000
# 5 0.0000 0.0000 0.0000 0.0000 32.7758 0.0000
# 6 0.0000 0.0000 0.0000 0.0000 0.0000 8.7078
#
#
#
# Elastic Compliance Matrix: (Units=1/GPa)
#
#
# Indices 1 2 3 4 5 6 
#
# 1 0.009193 -0.001022 -0.002779 0.000000 0.000000 0.000000
# 2 -0.001022 0.024058 0.006022 0.000000 0.000000 0.000000
# 3 -0.002779 0.006022 0.021919 0.000000 0.000000 0.000000
# 4 0.000000 0.000000 0.000000 0.045823 0.000000 0.000000
# 5 0.000000 0.000000 0.000000 0.000000 0.030510 0.000000
# 6 0.000000 0.000000 0.000000 0.000000 0.000000 0.114839
#
#
# Mechanical properties :
#
#
# Convention : Reuss Voigt Hill
#
# Bulk Modulus (GPa) = 16.77477 23.87830 20.32653
# Shear Modulus (GPa) = 19.10072 26.35052 22.72562
#
# Velocity S-wave (km/s) = 2.75325 3.23381 3.00316
# Velocity P-wave (km/s) = 4.09444 4.83940 4.48243
#
# Compressibility (1/GPa) = 0.05961334
#
# Stress axis : x y z
#
# Youngs Moduli (GPa) = 108.78089 41.56635 45.62182
#
# Poissons Ratio (x) = 0.04247 0.12678
# Poissons Ratio (y) = 0.11115 -0.27475
# Poissons Ratio (z) = 0.30230 -0.25033
#
# Static dielectric constant tensor:
#      x y z
#    x 2.009140 0.000000 0.000000 
#    y 0.000000 2.052060 0.000000 
#    z 0.000000 0.000000 1.999580 
# 
# From -- ./inp_files/4160.got.cif
#   From: 2010.05.17/outbox.cif.g08.bks.cpg/sg56_3_cif.got.tgz:4160.got - 2010.06.03 13:42:01.
