data_PCOD9431437
_publ_section_title
;
Structure prediction by ZEFSAII (Michael W. Deem and Ramdas Pophale) SiO2 
 PCOD9431437
Probable space group: P C C N
;
_chemical_formula_sum "Si O2"
_cell_formula_units_Z 48
_cell_length_a 18.796282
_cell_length_b 7.991474
_cell_length_c 13.895453
_cell_angle_alpha 90.000000
_cell_angle_beta 90.000000
_cell_angle_gamma 90.000000
_cell_volume 2087.235980
_symmetry_space_group_name_H-M "P C C N"
_symmetry_group_IT_number 56
_symmetry_cell_setting 'orthorhombic'
loop_
_space_group_symop_operation_xyz
x,y,z
1/2-x,1/2-y,z
1/2+x,-y,1/2-z
-x,1/2+y,1/2-z
-x,-y,-z
1/2+x,1/2+y,-z
1/2-x,y,1/2+z
x,1/2-y,1/2+z
loop_
_atom_site_type_symbol
_atom_site_label
_atom_site_fract_x
_atom_site_fract_y
_atom_site_fract_z
Si Si1 0.324077 0.193925 0.169900
Si Si2 0.167802 0.207027 0.963240
Si Si3 0.068800 0.699758 0.733244
Si Si4 0.572165 0.034220 0.059830
Si Si5 0.174105 0.684976 0.087988
Si Si6 0.428105 0.431604 0.818377
O O1 0.250000 0.250000 0.216537
O O2 0.389844 0.189156 0.240862
O O3 0.317196 0.004068 0.129917
O O4 0.335854 0.311682 0.078048
O O5 0.250000 0.250000 0.941265
O O6 0.119236 0.367012 0.939550
O O7 0.129063 0.061448 0.904383
O O8 0.062877 0.593105 0.830802
O O9 0.141793 0.701436 0.673351
O O10 0.005102 0.645506 0.662486
O O11 0.060827 0.889865 0.769443
O O12 0.618002 0.166723 0.998134
O O13 0.500000 0.000000 0.000000
O O14 0.250000 0.750000 0.054889
#
# Coordination Sequence:
#
# PCOD9431437 Si02
#       6
#     8   8   8   8   8   8
#     4   9  20  38  59  83 120 161 199 250 310 371
#     4  10  21  38  62  90 121 161 207 255 315 380
#     4  11  24  40  64  90 122 164 209 259 314 379
#     4  11  23  45  66  88 129 172 207 260 319 376
#     4  10  23  40  61  91 123 158 206 260 317 373
#     4  11  22  39  60  90 122 162 210 258 314 375
#
# _framework density 22.996921
#
# number of rings (size 3 to 8) (size 9 to 14) (size 15 to 20)
#    0.000    1.667    0.000    5.500    0.000   10.000 
#    0.000    7.500    0.000    0.000    0.000    0.000 
#    0.000    0.000    0.000    0.000    0.000    0.000 
#
# Total GULP energy -268430.715142 kJ/mol
# GULP energy per Si atom -5592.306565 kJ/mol
# Density = 2.294458 g / cm^3
# Si number density = 22.996921 Si / 1000 Ang^3
#
#
#
# Elastic Constant Matrix: (Units=GPa)
#
#
# Indices 1 2 3 4 5 6 
#
# 1 143.6930 32.2339 22.4556 0.0000 0.0000 0.0000
# 2 32.2339 43.8387 11.0466 0.0000 0.0000 0.0000
# 3 22.4556 11.0466 68.9490 0.0000 0.0000 0.0000
# 4 0.0000 0.0000 0.0000 33.2717 0.0000 0.0000
# 5 0.0000 0.0000 0.0000 0.0000 -3.1777 0.0000
# 6 0.0000 0.0000 0.0000 0.0000 0.0000 37.2095
#
#
#
# Elastic Compliance Matrix: (Units=1/GPa)
#
#
# Indices 1 2 3 4 5 6 
#
# 1 0.008555 -0.005824 -0.001853 0.000000 0.000000 0.000000
# 2 -0.005824 0.027735 -0.002547 0.000000 0.000000 0.000000
# 3 -0.001853 -0.002547 0.015515 0.000000 0.000000 0.000000
# 4 0.000000 0.000000 0.000000 0.030056 0.000000 0.000000
# 5 0.000000 0.000000 0.000000 0.000000 -0.314690 0.000000
# 6 0.000000 0.000000 0.000000 0.000000 0.000000 0.026875
#
#
# Mechanical properties :
#
#
# Convention : Reuss Voigt Hill
#
# Bulk Modulus (GPa) = 31.89021 43.10589 37.49805
# Shear Modulus (GPa) = -28.56256 26.17701 -1.19278
#
# Velocity S-wave (km/s) = -3.52805 3.37751 -0.72097
# Velocity P-wave (km/s) = 1.64283 5.83052 3.95576
#
# Compressibility (1/GPa) = 0.03135758
#
# Stress axis : x y z
#
# Youngs Moduli (GPa) = 116.88690 36.05603 64.45335
#
# Poissons Ratio (x) = 0.20997 0.11945
# Poissons Ratio (y) = 0.68070 0.16415
# Poissons Ratio (z) = 0.21663 0.09183
#
# Static dielectric constant tensor:
#      x y z
#    x 1.576530 0.000000 0.000000 
#    y 0.000000 1.918030 0.000000 
#    z 0.000000 0.000000 1.897840 
# 
# From -- ./inp_files/12671.got.cif
#   From: 2010.05.17/outbox.cif.g08.bks.cpg/sg56_7_cif.got.tgz:12671.got - 2010.06.03 13:42:01.
