data_PCOD9431649
_publ_section_title
;
Structure prediction by ZEFSAII (Michael W. Deem and Ramdas Pophale) SiO2 
 PCOD9431649
Probable space group: P C C N
;
_chemical_formula_sum "Si O2"
_cell_formula_units_Z 60
_cell_length_a 8.561271
_cell_length_b 12.211094
_cell_length_c 27.154408
_cell_angle_alpha 90.000000
_cell_angle_beta 90.000000
_cell_angle_gamma 90.000000
_cell_volume 2838.789289
_symmetry_space_group_name_H-M "P C C N"
_symmetry_group_IT_number 56
_symmetry_cell_setting 'orthorhombic'
loop_
_space_group_symop_operation_xyz
x,y,z
1/2-x,1/2-y,z
1/2+x,-y,1/2-z
-x,1/2+y,1/2-z
-x,-y,-z
1/2+x,1/2+y,-z
1/2-x,y,1/2+z
x,1/2-y,1/2+z
loop_
_atom_site_type_symbol
_atom_site_label
_atom_site_fract_x
_atom_site_fract_y
_atom_site_fract_z
Si Si1 0.912850 0.820018 0.378102
Si Si2 0.818669 0.022901 0.197895
Si Si3 0.461844 0.985627 0.194192
Si Si4 0.436212 0.677149 0.607672
Si Si5 0.976615 0.427568 0.389888
Si Si6 0.804356 0.503103 0.949157
Si Si7 0.750000 0.250000 0.146006
Si Si8 0.232670 0.369128 0.954484
O O1 0.750000 0.750000 0.379124
O O2 0.912813 0.910304 0.421214
O O3 0.082367 0.761307 0.381644
O O4 0.921333 0.895034 0.328672
O O5 0.778232 0.143869 0.179131
O O6 0.887645 0.024008 0.252379
O O7 0.648435 0.966504 0.197205
O O8 0.943638 0.971933 0.159671
O O9 0.399529 0.896790 0.155042
O O10 0.411057 0.804340 0.617976
O O11 0.353698 0.621994 0.560252
O O12 0.614315 0.653963 0.590387
O O13 0.109621 0.407975 0.429927
O O14 0.854964 0.507368 0.416961
O O15 0.805695 0.540470 0.005034
O O16 0.250000 0.250000 0.980062
#
# Coordination Sequence:
#
# PCOD9431649 Si02
#       8
#     8   8   8   8   8   8   4   8
#     4  10  22  42  64  94 131 171 218 277 332 395
#     4  11  24  42  64  95 127 169 219 272 332 398
#     4  10  24  41  64  96 129 170 219 271 332 395
#     4  10  22  42  63  94 133 174 215 271 330 396
#     4  11  23  41  67  96 134 174 218 274 333 399
#     4  11  22  39  66  96 131 169 221 274 326 393
#     4  10  24  44  64  92 132 172 220 274 336 398
#     4  10  21  40  66  93 129 174 220 266 331 400
#
# _framework density 21.135770999999998
#
# number of rings (size 3 to 8) (size 9 to 14) (size 15 to 20)
#    0.000    1.600    1.333    2.400    5.600    2.133 
#    0.000    0.000    0.000    0.000    0.000    0.000 
#    0.000    0.000    0.000    0.000    0.000    0.000 
#
# Total GULP energy -334676.749992 kJ/mol
# GULP energy per Si atom -5577.945833 kJ/mol
# Density = 2.108767 g / cm^3
# Si number density = 21.135771 Si / 1000 Ang^3
#
#
#
# Elastic Constant Matrix: (Units=GPa)
#
#
# Indices 1 2 3 4 5 6 
#
# 1 90.9974 25.9805 20.2284 0.0000 0.0000 0.0000
# 2 25.9805 96.0160 44.0412 0.0000 0.0000 0.0000
# 3 20.2284 44.0412 90.1955 0.0000 0.0000 0.0000
# 4 0.0000 0.0000 0.0000 15.5850 0.0000 0.0000
# 5 0.0000 0.0000 0.0000 0.0000 24.9599 0.0000
# 6 0.0000 0.0000 0.0000 0.0000 0.0000 41.1497
#
#
#
# Elastic Compliance Matrix: (Units=1/GPa)
#
#
# Indices 1 2 3 4 5 6 
#
# 1 0.012051 -0.002604 -0.001431 0.000000 0.000000 0.000000
# 2 -0.002604 0.013984 -0.006244 0.000000 0.000000 0.000000
# 3 -0.001431 -0.006244 0.014457 0.000000 0.000000 0.000000
# 4 0.000000 0.000000 0.000000 0.064164 0.000000 0.000000
# 5 0.000000 0.000000 0.000000 0.000000 0.040064 0.000000
# 6 0.000000 0.000000 0.000000 0.000000 0.000000 0.024302
#
#
# Mechanical properties :
#
#
# Convention : Reuss Voigt Hill
#
# Bulk Modulus (GPa) = 50.16874 50.85656 50.51265
# Shear Modulus (GPa) = 25.48099 28.80283 27.14191
#
# Velocity S-wave (km/s) = 3.47592 3.69555 3.58742
# Velocity P-wave (km/s) = 6.31643 6.50566 6.41174
#
# Compressibility (1/GPa) = 0.01993273
#
# Stress axis : x y z
#
# Youngs Moduli (GPa) = 82.98048 71.51205 69.17172
#
# Poissons Ratio (x) = 0.18625 0.09898
# Poissons Ratio (y) = 0.21612 0.43190
# Poissons Ratio (z) = 0.11874 0.44652
#
# Static dielectric constant tensor:
#      x y z
#    x 1.900500 0.000000 0.000000 
#    y 0.000000 1.793870 0.000000 
#    z 0.000000 0.000000 1.711310 
# 
# From -- ./inp_files/22104.got.cif
#   From: 2010.05.17/outbox.cif.g08.bks.cpg/sg56_12_cif.got.tgz:22104.got - 2010.06.03 13:42:01.
