data_PCOD9431919
_publ_section_title
;
Structure prediction by ZEFSAII (Michael W. Deem and Ramdas Pophale) SiO2 
 PCOD9431919
Probable space group: P C C N
;
_chemical_formula_sum "Si O2"
_cell_formula_units_Z 56
_cell_length_a 5.609924
_cell_length_b 22.027836
_cell_length_c 25.270755
_cell_angle_alpha 90.000000
_cell_angle_beta 90.000000
_cell_angle_gamma 90.000000
_cell_volume 3122.820556
_symmetry_space_group_name_H-M "P C C N"
_symmetry_group_IT_number 56
_symmetry_cell_setting 'orthorhombic'
loop_
_space_group_symop_operation_xyz
x,y,z
1/2-x,1/2-y,z
1/2+x,-y,1/2-z
-x,1/2+y,1/2-z
-x,-y,-z
1/2+x,1/2+y,-z
1/2-x,y,1/2+z
x,1/2-y,1/2+z
loop_
_atom_site_type_symbol
_atom_site_label
_atom_site_fract_x
_atom_site_fract_y
_atom_site_fract_z
Si Si1 0.913786 0.432519 0.017323
Si Si2 0.371081 0.905276 0.166814
Si Si3 0.709810 0.494042 0.619465
Si Si4 0.881818 0.470343 0.733539
Si Si5 0.498119 0.717148 0.627588
Si Si6 0.325775 0.185625 0.980653
Si Si7 0.026869 0.901434 0.071792
O O1 0.852426 0.440986 0.078878
O O2 0.703864 0.419344 0.975492
O O3 0.000000 0.500000 0.000000
O O4 0.085177 0.373652 0.012136
O O5 0.489515 0.966921 0.143366
O O6 0.328104 0.913117 0.228827
O O7 0.530647 0.847081 0.156769
O O8 0.150364 0.892791 0.128443
O O9 0.853571 0.470120 0.670418
O O10 0.850467 0.542943 0.583828
O O11 0.656879 0.512479 0.752806
O O12 0.250000 0.750000 0.643459
O O13 0.482826 0.701901 0.564790
O O14 0.750000 0.750000 0.636033
O O15 0.250000 0.250000 0.006493
O O16 0.106131 0.158487 0.947202
#
# Coordination Sequence:
#
# PCOD9431919 Si02
#       7
#     8   8   8   8   8   8   8
#     4  12  22  35  55  87 117 160 196 249 302 363
#     4  11  20  36  57  84 122 148 195 245 306 360
#     4  11  22  36  53  87 117 152 195 240 304 363
#     4  10  22  36  58  84 116 153 187 241 301 357
#     4  11  22  35  57  85 118 152 195 246 300 355
#     4  11  24  35  53  86 120 158 201 240 304 361
#     4  12  19  36  57  83 124 154 193 251 301 367
#
# _framework density 17.932507000000001
#
# number of rings (size 3 to 8) (size 9 to 14) (size 15 to 20)
#    0.000    0.857    7.143    2.143    0.000    0.000 
#    0.000    0.000    0.000    0.000    3.714    1.000 
#    0.000    0.000    0.000    0.000    0.000    0.000 
#
# Total GULP energy -311758.390776 kJ/mol
# GULP energy per Si atom -5567.114121 kJ/mol
# Density = 1.789169 g / cm^3
# Si number density = 17.932507 Si / 1000 Ang^3
#
#
#
# Elastic Constant Matrix: (Units=GPa)
#
#
# Indices 1 2 3 4 5 6 
#
# 1 61.3795 27.7886 7.5968 0.0000 0.0000 0.0000
# 2 27.7886 110.6749 41.8310 0.0000 0.0000 0.0000
# 3 7.5968 41.8310 69.7137 0.0000 0.0000 0.0000
# 4 0.0000 0.0000 0.0000 18.0011 0.0000 0.0000
# 5 0.0000 0.0000 0.0000 0.0000 14.6043 0.0000
# 6 0.0000 0.0000 0.0000 0.0000 0.0000 35.0024
#
#
#
# Elastic Compliance Matrix: (Units=1/GPa)
#
#
# Indices 1 2 3 4 5 6 
#
# 1 0.018435 -0.005004 0.000994 0.000000 0.000000 0.000000
# 2 -0.005004 0.013044 -0.007282 0.000000 0.000000 0.000000
# 3 0.000994 -0.007282 0.018605 0.000000 0.000000 0.000000
# 4 0.000000 0.000000 0.000000 0.055552 0.000000 0.000000
# 5 0.000000 0.000000 0.000000 0.000000 0.068473 0.000000
# 6 0.000000 0.000000 0.000000 0.000000 0.000000 0.028569
#
#
# Mechanical properties :
#
#
# Convention : Reuss Voigt Hill
#
# Bulk Modulus (GPa) = 36.36349 44.02231 40.19290
# Shear Modulus (GPa) = 21.32837 24.49170 22.91003
#
# Velocity S-wave (km/s) = 3.45246 3.69964 3.57819
# Velocity P-wave (km/s) = 6.01786 6.54614 6.28755
#
# Compressibility (1/GPa) = 0.02750011
#
# Stress axis : x y z
#
# Youngs Moduli (GPa) = 54.24559 76.66251 53.74786
#
# Poissons Ratio (x) = 0.38364 -0.05342
# Poissons Ratio (y) = 0.27146 0.39138
# Poissons Ratio (z) = -0.05392 0.55823
#
# Static dielectric constant tensor:
#      x y z
#    x 1.726690 0.000000 0.000000 
#    y 0.000000 1.685550 0.000000 
#    z 0.000000 0.000000 1.634440 
# 
# From -- ./inp_files/20126.got.cif
#   From: 2010.05.17/outbox.cif.g08.bks.cpg/sg56_11_cif.got.tgz:20126.got - 2010.06.03 13:42:01.
