data_PCOD9431026
_publ_section_title
;
Structure prediction by ZEFSAII (Michael W. Deem and Ramdas Pophale) SiO2 
 PCOD9431026
Probable space group: P C C N
;
_chemical_formula_sum "Si O2"
_cell_formula_units_Z 40
_cell_length_a 5.157052
_cell_length_b 11.756932
_cell_length_c 33.274759
_cell_angle_alpha 90.000000
_cell_angle_beta 90.000000
_cell_angle_gamma 90.000000
_cell_volume 2017.485563
_symmetry_space_group_name_H-M "P C C N"
_symmetry_group_IT_number 56
_symmetry_cell_setting 'orthorhombic'
loop_
_space_group_symop_operation_xyz
x,y,z
1/2-x,1/2-y,z
1/2+x,-y,1/2-z
-x,1/2+y,1/2-z
-x,-y,-z
1/2+x,1/2+y,-z
1/2-x,y,1/2+z
x,1/2-y,1/2+z
loop_
_atom_site_type_symbol
_atom_site_label
_atom_site_fract_x
_atom_site_fract_y
_atom_site_fract_z
Si Si1 0.589357 0.055451 0.232420
Si Si2 0.750000 0.750000 0.783311
Si Si3 0.250000 0.750000 0.982907
Si Si4 0.953858 0.079756 0.462087
Si Si5 0.432285 0.967443 0.428843
Si Si6 0.121816 0.871950 0.842194
O O1 0.466740 0.180259 0.240503
O O2 0.679495 0.057940 0.185823
O O3 0.350828 0.972389 0.243038
O O4 0.611812 0.660028 0.812519
O O5 0.131508 0.852429 0.955521
O O6 0.452509 0.800234 0.015269
O O7 0.184051 0.049731 0.432158
O O8 0.000000 0.000000 0.500000
O O9 0.680378 0.036766 0.444406
O O10 0.465376 0.929331 0.383016
O O11 0.250000 0.750000 0.852503
#
# Coordination Sequence:
#
# PCOD9431026 Si02
#       6
#     8   4   4   8   8   8
#     4  11  22  39  63  94 130 165 197 254 316 376
#     4  10  22  38  64 100 122 152 218 244 320 372
#     4  10  20  40  58  84 124 156 204 256 302 350
#     4  10  23  36  56  88 117 163 208 244 307 375
#     4  11  23  37  60  91 123 157 206 259 309 361
#     4  10  22  38  62  97 127 157 204 264 322 354
#
# _framework density 19.826658999999999
#
# number of rings (size 3 to 8) (size 9 to 14) (size 15 to 20)
#    0.000    1.600    3.000    2.400    5.600    7.200 
#    0.000    0.000    0.000    4.800    2.600    0.000 
#    0.000    0.000    0.000    0.000    0.000    0.000 
#
# Total GULP energy -222859.723665 kJ/mol
# GULP energy per Si atom -5571.493092 kJ/mol
# Density = 1.978153 g / cm^3
# Si number density = 19.826659 Si / 1000 Ang^3
#
#
#
# Elastic Constant Matrix: (Units=GPa)
#
#
# Indices 1 2 3 4 5 6 
#
# 1 142.1475 41.1255 42.4464 0.0000 0.0000 0.0000
# 2 41.1255 56.7606 52.8095 0.0000 0.0000 0.0000
# 3 42.4464 52.8095 90.6070 0.0000 0.0000 0.0000
# 4 0.0000 0.0000 0.0000 37.0734 0.0000 0.0000
# 5 0.0000 0.0000 0.0000 0.0000 20.2148 0.0000
# 6 0.0000 0.0000 0.0000 0.0000 0.0000 42.2571
#
#
#
# Elastic Compliance Matrix: (Units=1/GPa)
#
#
# Indices 1 2 3 4 5 6 
#
# 1 0.008934 -0.005635 -0.000901 0.000000 0.000000 0.000000
# 2 -0.005635 0.042043 -0.021865 0.000000 0.000000 0.000000
# 3 -0.000901 -0.021865 0.024203 0.000000 0.000000 0.000000
# 4 0.000000 0.000000 0.000000 0.026973 0.000000 0.000000
# 5 0.000000 0.000000 0.000000 0.000000 0.049469 0.000000
# 6 0.000000 0.000000 0.000000 0.000000 0.000000 0.023665
#
#
# Mechanical properties :
#
#
# Convention : Reuss Voigt Hill
#
# Bulk Modulus (GPa) = 54.41150 62.47531 58.44340
# Shear Modulus (GPa) = 20.98943 30.11797 25.55370
#
# Velocity S-wave (km/s) = 3.25721 3.90175 3.59396
# Velocity P-wave (km/s) = 6.45361 7.20259 6.83836
#
# Compressibility (1/GPa) = 0.01837847
#
# Stress axis : x y z
#
# Youngs Moduli (GPa) = 111.92830 23.78498 41.31781
#
# Poissons Ratio (x) = 0.13402 0.03724
# Poissons Ratio (y) = 0.63069 0.90341
# Poissons Ratio (z) = 0.10087 0.52006
#
# Static dielectric constant tensor:
#      x y z
#    x 1.816980 0.000000 0.000000 
#    y 0.000000 1.734890 0.000000 
#    z 0.000000 0.000000 1.669550 
# 
# From -- ./inp_files/22798.got.cif
#   From: 2010.05.17/outbox.cif.g08.bks.cpg/sg56_12_cif.got.tgz:22798.got - 2010.06.03 13:42:01.
