data_PCOD9431624
_publ_section_title
;
Structure prediction by ZEFSAII (Michael W. Deem and Ramdas Pophale) SiO2 
 PCOD9431624
Probable space group: P C C N
;
_chemical_formula_sum "Si O2"
_cell_formula_units_Z 64
_cell_length_a 8.651733
_cell_length_b 14.358892
_cell_length_c 25.111288
_cell_angle_alpha 90.000000
_cell_angle_beta 90.000000
_cell_angle_gamma 90.000000
_cell_volume 3119.557724
_symmetry_space_group_name_H-M "P C C N"
_symmetry_group_IT_number 56
_symmetry_cell_setting 'orthorhombic'
loop_
_space_group_symop_operation_xyz
x,y,z
1/2-x,1/2-y,z
1/2+x,-y,1/2-z
-x,1/2+y,1/2-z
-x,-y,-z
1/2+x,1/2+y,-z
1/2-x,y,1/2+z
x,1/2-y,1/2+z
loop_
_atom_site_type_symbol
_atom_site_label
_atom_site_fract_x
_atom_site_fract_y
_atom_site_fract_z
Si Si1 0.652911 0.610172 0.628676
Si Si2 0.116198 0.549934 0.959064
Si Si3 0.097415 0.364827 0.610266
Si Si4 0.442149 0.894097 0.499559
Si Si5 0.012032 0.304233 0.387131
Si Si6 0.125567 0.956121 0.178569
Si Si7 0.024629 0.009682 0.710242
Si Si8 0.540574 0.829537 0.871157
O O1 0.659351 0.531625 0.582862
O O2 0.822611 0.653784 0.631242
O O3 0.533596 0.693365 0.614650
O O4 0.592913 0.562852 0.682693
O O5 0.046742 0.631410 0.922569
O O6 0.260578 0.594678 0.989214
O O7 0.000000 0.500000 0.000000
O O8 0.074873 0.467223 0.634248
O O9 0.018471 0.279080 0.641172
O O10 0.279955 0.347695 0.614596
O O11 0.032569 0.353512 0.551076
O O12 0.478236 0.838812 0.553133
O O13 0.500000 0.000000 0.500000
O O14 0.891778 0.354751 0.347820
O O15 0.014805 0.973537 0.228702
O O16 0.300656 0.976714 0.197495
O O17 0.001481 0.106226 0.678691
#
# Coordination Sequence:
#
# PCOD9431624 Si02
#       8
#     8   8   8   8   8   8   8   8
#     4  10  23  42  61  90 125 166 209 254 314 374
#     4  11  23  38  58  86 126 167 203 250 303 362
#     4  10  21  40  64  88 119 161 210 249 309 374
#     4  12  22  38  61  91 127 166 206 251 305 370
#     4  11  24  40  64  93 126 166 211 257 310 378
#     4  11  22  41  65  91 121 164 207 261 317 372
#     4  10  23  42  65  90 125 162 205 263 317 369
#     4   9  22  40  61  90 120 157 208 257 305 373
#
# _framework density 20.515726999999998
#
# number of rings (size 3 to 8) (size 9 to 14) (size 15 to 20)
#    0.000    1.500    2.500    1.500    5.250    4.000 
#    0.000    2.500    0.000    0.000    0.000    0.000 
#    0.000    0.000    0.000    0.000    0.000    0.000 
#
# Total GULP energy -357499.457682 kJ/mol
# GULP energy per Si atom -5585.929026 kJ/mol
# Density = 2.046903 g / cm^3
# Si number density = 20.515727 Si / 1000 Ang^3
#
#
#
# Elastic Constant Matrix: (Units=GPa)
#
#
# Indices 1 2 3 4 5 6 
#
# 1 33.3587 6.0480 21.4864 0.0000 0.0000 0.0000
# 2 6.0480 76.6669 4.1568 0.0000 0.0000 0.0000
# 3 21.4864 4.1568 94.0942 0.0000 0.0000 0.0000
# 4 0.0000 0.0000 0.0000 9.8530 0.0000 0.0000
# 5 0.0000 0.0000 0.0000 0.0000 28.0053 0.0000
# 6 0.0000 0.0000 0.0000 0.0000 0.0000 20.7904
#
#
#
# Elastic Compliance Matrix: (Units=1/GPa)
#
#
# Indices 1 2 3 4 5 6 
#
# 1 0.035572 -0.002371 -0.008018 0.000000 0.000000 0.000000
# 2 -0.002371 0.013233 -0.000043 0.000000 0.000000 0.000000
# 3 -0.008018 -0.000043 0.012460 0.000000 0.000000 0.000000
# 4 0.000000 0.000000 0.000000 0.101492 0.000000 0.000000
# 5 0.000000 0.000000 0.000000 0.000000 0.035708 0.000000
# 6 0.000000 0.000000 0.000000 0.000000 0.000000 0.048099
#
#
# Mechanical properties :
#
#
# Convention : Reuss Voigt Hill
#
# Bulk Modulus (GPa) = 24.75253 29.72246 27.23750
# Shear Modulus (GPa) = 17.80022 23.22498 20.51260
#
# Velocity S-wave (km/s) = 2.94876 3.36826 3.16547
# Velocity P-wave (km/s) = 4.86672 5.44481 5.16386
#
# Compressibility (1/GPa) = 0.04039991
#
# Stress axis : x y z
#
# Youngs Moduli (GPa) = 28.11235 75.56953 80.25390
#
# Poissons Ratio (x) = 0.17921 0.64347
# Poissons Ratio (y) = 0.06667 0.00346
# Poissons Ratio (z) = 0.22540 0.00326
#
# Static dielectric constant tensor:
#      x y z
#    x 1.758340 0.000000 0.000000 
#    y 0.000000 1.737220 0.000000 
#    z 0.000000 0.000000 1.702590 
# 
# From -- ./inp_files/20649.got.cif
#   From: 2010.05.17/outbox.cif.g08.bks.cpg/sg56_11_cif.got.tgz:20649.got - 2010.06.03 13:42:01.
