data_PCOD9431088
_publ_section_title
;
Structure prediction by ZEFSAII (Michael W. Deem and Ramdas Pophale) SiO2 
 PCOD9431088
Probable space group: P C C N
;
_chemical_formula_sum "Si O2"
_cell_formula_units_Z 40
_cell_length_a 12.528577
_cell_length_b 10.052496
_cell_length_c 12.794202
_cell_angle_alpha 90.000000
_cell_angle_beta 90.000000
_cell_angle_gamma 90.000000
_cell_volume 1611.346198
_symmetry_space_group_name_H-M "P C C N"
_symmetry_group_IT_number 56
_symmetry_cell_setting 'orthorhombic'
loop_
_space_group_symop_operation_xyz
x,y,z
1/2-x,1/2-y,z
1/2+x,-y,1/2-z
-x,1/2+y,1/2-z
-x,-y,-z
1/2+x,1/2+y,-z
1/2-x,y,1/2+z
x,1/2-y,1/2+z
loop_
_atom_site_type_symbol
_atom_site_label
_atom_site_fract_x
_atom_site_fract_y
_atom_site_fract_z
Si Si1 0.782018 0.073652 0.219377
Si Si2 0.666907 0.367674 0.527814
Si Si3 0.004416 0.489188 0.667216
Si Si4 0.721977 0.598996 0.906180
Si Si5 0.957790 0.199460 0.348015
O O1 0.756194 0.945401 0.288820
O O2 0.881903 0.047426 0.141689
O O3 0.681471 0.120139 0.152274
O O4 0.839116 0.170780 0.302348
O O5 0.750000 0.250000 0.502218
O O6 0.709593 0.505524 0.481540
O O7 0.555804 0.333250 0.470921
O O8 0.096210 0.435071 0.591502
O O9 0.020192 0.408717 0.777677
O O10 0.011063 0.648733 0.671241
O O11 0.750000 0.750000 0.926036
#
# Coordination Sequence:
#
# PCOD9431088 Si02
#       5
#     8   8   8   8   8
#     4   9  24  37  69  94 132 179 225 272 342 401
#     4  11  22  40  65  98 132 175 227 272 331 414
#     4  10  20  40  68  93 134 174 226 276 333 399
#     4  11  23  42  68  94 137 180 223 286 339 400
#     4   9  21  40  66  96 133 176 226 273 336 400
#
# _framework density 24.823964
#
# number of rings (size 3 to 8) (size 9 to 14) (size 15 to 20)
#    1.200    0.800    2.000    1.200    2.800    1.600 
#    0.000    1.000    0.000    0.000    0.000    0.000 
#    0.000    0.000    0.000    0.000    0.000    0.000 
#
# Total GULP energy -223238.764502 kJ/mol
# GULP energy per Si atom -5580.969113 kJ/mol
# Density = 2.476746 g / cm^3
# Si number density = 24.823964 Si / 1000 Ang^3
#
#
#
# Elastic Constant Matrix: (Units=GPa)
#
#
# Indices 1 2 3 4 5 6 
#
# 1 72.0372 19.9854 0.1147 0.0000 0.0000 0.0000
# 2 19.9854 176.6355 15.5442 0.0000 0.0000 0.0000
# 3 0.1147 15.5442 50.8383 0.0000 0.0000 0.0000
# 4 0.0000 0.0000 0.0000 26.7401 0.0000 0.0000
# 5 0.0000 0.0000 0.0000 0.0000 19.3995 0.0000
# 6 0.0000 0.0000 0.0000 0.0000 0.0000 37.5472
#
#
#
# Elastic Compliance Matrix: (Units=1/GPa)
#
#
# Indices 1 2 3 4 5 6 
#
# 1 0.014343 -0.001665 0.000477 0.000000 0.000000 0.000000
# 2 -0.001665 0.006011 -0.001834 0.000000 0.000000 0.000000
# 3 0.000477 -0.001834 0.020230 0.000000 0.000000 0.000000
# 4 0.000000 0.000000 0.000000 0.037397 0.000000 0.000000
# 5 0.000000 0.000000 0.000000 0.000000 0.051548 0.000000
# 6 0.000000 0.000000 0.000000 0.000000 0.000000 0.026633
#
#
# Mechanical properties :
#
#
# Convention : Reuss Voigt Hill
#
# Bulk Modulus (GPa) = 28.95252 41.19996 35.07624
# Shear Modulus (GPa) = 28.78205 34.32849 31.55527
#
# Velocity S-wave (km/s) = 3.40876 3.72274 3.56920
# Velocity P-wave (km/s) = 5.21357 5.92548 5.58089
#
# Compressibility (1/GPa) = 0.03453930
#
# Stress axis : x y z
#
# Youngs Moduli (GPa) = 69.72130 166.35762 49.43166
#
# Poissons Ratio (x) = 0.27695 -0.02356
# Poissons Ratio (y) = 0.11607 0.09067
# Poissons Ratio (z) = -0.03323 0.30513
#
# Static dielectric constant tensor:
#      x y z
#    x 1.976930 0.000000 0.000000 
#    y 0.000000 1.936620 0.000000 
#    z 0.000000 0.000000 2.049090 
# 
# From -- ./inp_files/16064.got.cif
#   From: 2010.05.17/outbox.cif.g08.bks.cpg/sg56_9_cif.got.tgz:16064.got - 2010.06.03 13:42:01.
