data_PCOD9431526
_publ_section_title
;
Structure prediction by ZEFSAII (Michael W. Deem and Ramdas Pophale) SiO2 
 PCOD9431526
Probable space group: P C C N
;
_chemical_formula_sum "Si O2"
_cell_formula_units_Z 36
_cell_length_a 8.020009
_cell_length_b 14.234658
_cell_length_c 13.925009
_cell_angle_alpha 90.000000
_cell_angle_beta 90.000000
_cell_angle_gamma 90.000000
_cell_volume 1589.708065
_symmetry_space_group_name_H-M "P C C N"
_symmetry_group_IT_number 56
_symmetry_cell_setting 'orthorhombic'
loop_
_space_group_symop_operation_xyz
x,y,z
1/2-x,1/2-y,z
1/2+x,-y,1/2-z
-x,1/2+y,1/2-z
-x,-y,-z
1/2+x,1/2+y,-z
1/2-x,y,1/2+z
x,1/2-y,1/2+z
loop_
_atom_site_type_symbol
_atom_site_label
_atom_site_fract_x
_atom_site_fract_y
_atom_site_fract_z
Si Si1 0.163967 0.900620 0.938804
Si Si2 0.649804 0.548434 0.837162
Si Si3 0.478981 0.933191 0.840037
Si Si4 0.750000 0.250000 0.900821
Si Si5 0.979024 0.221604 0.223121
O O1 0.331680 0.957702 0.914539
O O2 0.153081 0.834777 0.842888
O O3 0.978967 0.943801 0.925247
O O4 0.195327 0.835987 0.030702
O O5 0.577983 0.473843 0.762394
O O6 0.634092 0.649859 0.783766
O O7 0.838658 0.526992 0.863334
O O8 0.505291 0.821474 0.826944
O O9 0.596565 0.228837 0.829122
#
# Coordination Sequence:
#
# PCOD9431526 Si02
#       5
#     8   8   8   4   8
#     4  10  21  39  63  90 117 167 197 252 305 354
#     4  10  22  37  67  91 119 168 205 250 309 363
#     4  12  18  41  67  86 128 161 208 251 306 367
#     4  12  18  40  70  86 128 160 206 250 316 362
#     4  10  21  39  63  91 119 168 199 252 308 358
#
# _framework density 22.645667
#
# number of rings (size 3 to 8) (size 9 to 14) (size 15 to 20)
#    1.333    0.000    6.667    0.667    0.000    0.000 
#    0.000    6.667    0.000    0.000    0.000    0.000 
#    0.000    0.000    0.000    0.000    0.000    0.000 
#
# Total GULP energy -200724.347124 kJ/mol
# GULP energy per Si atom -5575.676309 kJ/mol
# Density = 2.259412 g / cm^3
# Si number density = 22.645667 Si / 1000 Ang^3
#
#
#
# Elastic Constant Matrix: (Units=GPa)
#
#
# Indices 1 2 3 4 5 6 
#
# 1 173.5335 -19.2742 24.7212 0.0000 0.0000 0.0000
# 2 -19.2742 32.7938 -8.1482 0.0000 0.0000 0.0000
# 3 24.7212 -8.1482 110.9563 0.0000 0.0000 0.0000
# 4 0.0000 0.0000 0.0000 37.1258 0.0000 0.0000
# 5 0.0000 0.0000 0.0000 0.0000 -26.7015 0.0000
# 6 0.0000 0.0000 0.0000 0.0000 0.0000 21.7390
#
#
#
# Elastic Compliance Matrix: (Units=1/GPa)
#
#
# Indices 1 2 3 4 5 6 
#
# 1 0.006307 0.003420 -0.001154 0.000000 0.000000 0.000000
# 2 0.003420 0.032915 0.001655 0.000000 0.000000 0.000000
# 3 -0.001154 0.001655 0.009391 0.000000 0.000000 0.000000
# 4 0.000000 0.000000 0.000000 0.026935 0.000000 0.000000
# 5 0.000000 0.000000 0.000000 0.000000 -0.037451 0.000000
# 6 0.000000 0.000000 0.000000 0.000000 0.000000 0.046000
#
#
# Mechanical properties :
#
#
# Convention : Reuss Voigt Hill
#
# Bulk Modulus (GPa) = 17.71311 34.65345 26.18328
# Shear Modulus (GPa) = 52.59073 27.76497 40.17785
#
# Velocity S-wave (km/s) = 4.82428 3.50531 4.21669
# Velocity P-wave (km/s) = 6.23462 5.63193 5.94092
#
# Compressibility (1/GPa) = 0.05645537
#
# Stress axis : x y z
#
# Youngs Moduli (GPa) = 158.55807 30.38136 106.48239
#
# Poissons Ratio (x) = -0.10391 0.12288
# Poissons Ratio (y) = -0.54228 -0.17625
# Poissons Ratio (z) = 0.18298 -0.05029
#
# Static dielectric constant tensor:
#      x y z
#    x 1.949300 0.000000 0.000000 
#    y 0.000000 1.910540 0.000000 
#    z 0.000000 0.000000 1.806870 
# 
# From -- ./inp_files/10272.got.cif
#   From: 2010.05.17/outbox.cif.g08.bks.cpg/sg56_6_cif.got.tgz:10272.got - 2010.06.03 13:42:01.
