data_PCOD9431773
_publ_section_title
;
Structure prediction by ZEFSAII (Michael W. Deem and Ramdas Pophale) SiO2 
 PCOD9431773
Probable space group: P C C N
;
_chemical_formula_sum "Si O2"
_cell_formula_units_Z 48
_cell_length_a 18.905501
_cell_length_b 7.811339
_cell_length_c 16.492265
_cell_angle_alpha 90.000000
_cell_angle_beta 90.000000
_cell_angle_gamma 90.000000
_cell_volume 2435.532791
_symmetry_space_group_name_H-M "P C C N"
_symmetry_group_IT_number 56
_symmetry_cell_setting 'orthorhombic'
loop_
_space_group_symop_operation_xyz
x,y,z
1/2-x,1/2-y,z
1/2+x,-y,1/2-z
-x,1/2+y,1/2-z
-x,-y,-z
1/2+x,1/2+y,-z
1/2-x,y,1/2+z
x,1/2-y,1/2+z
loop_
_atom_site_type_symbol
_atom_site_label
_atom_site_fract_x
_atom_site_fract_y
_atom_site_fract_z
Si Si1 0.175368 0.439664 0.673099
Si Si2 0.457513 0.056841 0.578174
Si Si3 0.584420 0.979935 0.174362
Si Si4 0.078468 0.428447 0.009005
Si Si5 0.546214 0.361761 0.230381
Si Si6 0.834104 0.524863 0.841732
O O1 0.115926 0.519890 0.613101
O O2 0.148778 0.457341 0.764568
O O3 0.251787 0.523064 0.662231
O O4 0.172303 0.232959 0.661956
O O5 0.434265 0.245953 0.550392
O O6 0.511044 0.043583 0.653702
O O7 0.500000 0.000000 0.500000
O O8 0.560484 0.174927 0.192700
O O9 0.605686 0.935978 0.082916
O O10 0.517069 0.866237 0.203154
O O11 0.128822 0.522828 0.073142
O O12 0.000000 0.500000 0.000000
O O13 0.614815 0.449139 0.271418
#
# Coordination Sequence:
#
# PCOD9431773 Si02
#       6
#     8   8   8   8   8   8
#     4   9  22  41  60  87 118 161 198 249 308 368
#     4  10  22  36  60  90 119 150 205 248 297 361
#     4  11  22  37  61  90 118 159 204 244 309 361
#     4  11  20  38  61  89 120 158 196 254 303 354
#     4  11  21  36  61  87 120 155 200 248 297 367
#     4  10  21  42  62  84 123 157 203 249 309 365
#
# _framework density 19.708214000000002
#
# number of rings (size 3 to 8) (size 9 to 14) (size 15 to 20)
#    0.000    1.667    3.333    2.000    7.000    0.667 
#    3.000    1.667    0.000    0.000    0.000    0.000 
#    0.000    0.000    0.000    0.000    0.000    0.000 
#
# Total GULP energy -267391.489178 kJ/mol
# GULP energy per Si atom -5570.656025 kJ/mol
# Density = 1.966336 g / cm^3
# Si number density = 19.708214 Si / 1000 Ang^3
#
#
#
# Elastic Constant Matrix: (Units=GPa)
#
#
# Indices 1 2 3 4 5 6 
#
# 1 171.5318 20.9284 101.2563 0.0000 0.0000 0.0000
# 2 20.9284 35.6010 11.9475 0.0000 0.0000 0.0000
# 3 101.2563 11.9475 165.8273 0.0000 0.0000 0.0000
# 4 0.0000 0.0000 0.0000 20.7824 0.0000 0.0000
# 5 0.0000 0.0000 0.0000 0.0000 25.5086 0.0000
# 6 0.0000 0.0000 0.0000 0.0000 0.0000 20.2003
#
#
#
# Elastic Compliance Matrix: (Units=1/GPa)
#
#
# Indices 1 2 3 4 5 6 
#
# 1 0.009583 -0.003761 -0.005580 0.000000 0.000000 0.000000
# 2 -0.003761 0.030261 0.000116 0.000000 0.000000 0.000000
# 3 -0.005580 0.000116 0.009430 0.000000 0.000000 0.000000
# 4 0.000000 0.000000 0.000000 0.048118 0.000000 0.000000
# 5 0.000000 0.000000 0.000000 0.000000 0.039202 0.000000
# 6 0.000000 0.000000 0.000000 0.000000 0.000000 0.049504
#
#
# Mechanical properties :
#
#
# Convention : Reuss Voigt Hill
#
# Bulk Modulus (GPa) = 32.44312 71.24715 51.84513
# Shear Modulus (GPa) = 23.27508 29.22011 26.24759
#
# Velocity S-wave (km/s) = 3.44027 3.85468 3.65336
# Velocity P-wave (km/s) = 5.68138 7.48604 6.64526
#
# Compressibility (1/GPa) = 0.03082318
#
# Stress axis : x y z
#
# Youngs Moduli (GPa) = 104.35332 33.04599 106.05006
#
# Poissons Ratio (x) = 0.12427 0.59181
# Poissons Ratio (y) = 0.39243 -0.01231
# Poissons Ratio (z) = 0.58234 -0.00383
#
# Static dielectric constant tensor:
#      x y z
#    x 1.730770 0.000000 0.000000 
#    y 0.000000 -4.876970 0.000000 
#    z 0.000000 0.000000 1.738520 
# 
# From -- ./inp_files/12661.got.cif
#   From: 2010.05.17/outbox.cif.g08.bks.cpg/sg56_7_cif.got.tgz:12661.got - 2010.06.03 13:42:01.
