data_PCOD9431964
_publ_section_title
;
Structure prediction by ZEFSAII (Michael W. Deem and Ramdas Pophale) SiO2 
 PCOD9431964
Probable space group: P C C N
;
_chemical_formula_sum "Si O2"
_cell_formula_units_Z 60
_cell_length_a 26.392229
_cell_length_b 10.654832
_cell_length_c 8.253316
_cell_angle_alpha 90.000000
_cell_angle_beta 90.000000
_cell_angle_gamma 90.000000
_cell_volume 2320.871795
_symmetry_space_group_name_H-M "P C C N"
_symmetry_group_IT_number 56
_symmetry_cell_setting 'orthorhombic'
loop_
_space_group_symop_operation_xyz
x,y,z
1/2-x,1/2-y,z
1/2+x,-y,1/2-z
-x,1/2+y,1/2-z
-x,-y,-z
1/2+x,1/2+y,-z
1/2-x,y,1/2+z
x,1/2-y,1/2+z
loop_
_atom_site_type_symbol
_atom_site_label
_atom_site_fract_x
_atom_site_fract_y
_atom_site_fract_z
Si Si1 0.250000 0.750000 0.439486
Si Si2 0.672878 0.903281 0.400486
Si Si3 0.854419 0.508187 0.840505
Si Si4 0.931782 0.130136 0.529711
Si Si5 0.523991 0.910965 0.189996
Si Si6 0.730061 0.963889 0.086309
Si Si7 0.642392 0.347921 0.023175
Si Si8 0.081871 0.225493 0.599821
O O1 0.238025 0.888379 0.365273
O O2 0.195188 0.722811 0.522208
O O3 0.633323 0.796964 0.437326
O O4 0.700363 0.894615 0.228244
O O5 0.715082 0.911033 0.539856
O O6 0.641680 0.034010 0.403935
O O7 0.880798 0.447010 0.997714
O O8 0.850414 0.404997 0.702210
O O9 0.894727 0.615261 0.786201
O O10 0.801013 0.546976 0.917156
O O11 0.908983 0.268599 0.533424
O O12 0.967287 0.110647 0.372303
O O13 0.962190 0.059165 0.673899
O O14 0.541349 0.828824 0.341175
O O15 0.557288 0.844735 0.050001
#
# Coordination Sequence:
#
# PCOD9431964 Si02
#       8
#     4   8   8   8   8   8   8   8
#     4  10  22  38  60  90 136 166 208 274 336 406
#     4  11  25  43  69 102 142 186 231 283 349 415
#     4  11  24  43  67 100 138 181 229 285 345 413
#     4  10  23  44  70 101 139 180 235 290 356 411
#     4  10  24  46  71  99 137 187 229 298 350 406
#     4  11  23  42  66 103 139 184 227 281 349 416
#     4  11  24  40  69 104 134 179 233 283 349 422
#     4  11  24  47  69  95 143 183 231 288 345 415
#
# _framework density 25.852357000000001
#
# number of rings (size 3 to 8) (size 9 to 14) (size 15 to 20)
#    0.000    1.333    1.333    4.000    3.733    3.200 
#    4.800    4.000    0.000    0.000    0.000    0.000 
#    0.000    0.000    0.000    0.000    0.000    0.000 
#
# Total GULP energy -335303.431699 kJ/mol
# GULP energy per Si atom -5588.390528 kJ/mol
# Density = 2.579352 g / cm^3
# Si number density = 25.852357 Si / 1000 Ang^3
#
#
#
# Elastic Constant Matrix: (Units=GPa)
#
#
# Indices 1 2 3 4 5 6 
#
# 1 116.2667 44.7503 5.7343 0.0000 0.0000 0.0000
# 2 44.7503 75.5697 6.4751 0.0000 0.0000 0.0000
# 3 5.7343 6.4751 68.9523 0.0000 0.0000 0.0000
# 4 0.0000 0.0000 0.0000 20.3417 0.0000 0.0000
# 5 0.0000 0.0000 0.0000 0.0000 31.8980 0.0000
# 6 0.0000 0.0000 0.0000 0.0000 0.0000 47.4539
#
#
#
# Elastic Compliance Matrix: (Units=1/GPa)
#
#
# Indices 1 2 3 4 5 6 
#
# 1 0.011147 -0.006574 -0.000310 0.000000 0.000000 0.000000
# 2 -0.006574 0.017218 -0.001070 0.000000 0.000000 0.000000
# 3 -0.000310 -0.001070 0.014629 0.000000 0.000000 0.000000
# 4 0.000000 0.000000 0.000000 0.049160 0.000000 0.000000
# 5 0.000000 0.000000 0.000000 0.000000 0.031350 0.000000
# 6 0.000000 0.000000 0.000000 0.000000 0.000000 0.021073
#
#
# Mechanical properties :
#
#
# Convention : Reuss Voigt Hill
#
# Bulk Modulus (GPa) = 36.92037 41.63424 39.27730
# Shear Modulus (GPa) = 29.49637 33.52732 31.51185
#
# Velocity S-wave (km/s) = 3.38147 3.60512 3.49509
# Velocity P-wave (km/s) = 5.43673 5.78522 5.61368
#
# Compressibility (1/GPa) = 0.02708532
#
# Stress axis : x y z
#
# Youngs Moduli (GPa) = 89.71402 58.08029 68.35724
#
# Poissons Ratio (x) = 0.38183 0.02117
# Poissons Ratio (y) = 0.58979 0.07315
# Poissons Ratio (z) = 0.02778 0.06215
#
# Static dielectric constant tensor:
#      x y z
#    x 2.038140 0.000000 0.000000 
#    y 0.000000 2.124030 0.000000 
#    z 0.000000 0.000000 2.072180 
# 
# From -- ./inp_files/4989.got.cif
#   From: 2010.05.17/outbox.cif.g08.bks.cpg/sg56_3_cif.got.tgz:4989.got - 2010.06.03 13:42:01.
