data_PCOD9431241
_publ_section_title
;
Structure prediction by ZEFSAII (Michael W. Deem and Ramdas Pophale) SiO2 
 PCOD9431241
Probable space group: P C C N
;
_chemical_formula_sum "Si O2"
_cell_formula_units_Z 40
_cell_length_a 15.585241
_cell_length_b 21.366129
_cell_length_c 5.373238
_cell_angle_alpha 90.000000
_cell_angle_beta 90.000000
_cell_angle_gamma 90.000000
_cell_volume 1789.268210
_symmetry_space_group_name_H-M "P C C N"
_symmetry_group_IT_number 56
_symmetry_cell_setting 'orthorhombic'
loop_
_space_group_symop_operation_xyz
x,y,z
1/2-x,1/2-y,z
1/2+x,-y,1/2-z
-x,1/2+y,1/2-z
-x,-y,-z
1/2+x,1/2+y,-z
1/2-x,y,1/2+z
x,1/2-y,1/2+z
loop_
_atom_site_type_symbol
_atom_site_label
_atom_site_fract_x
_atom_site_fract_y
_atom_site_fract_z
Si Si1 0.717599 0.603383 0.176640
Si Si2 0.778332 0.036582 0.296395
Si Si3 0.022682 0.426110 0.473518
Si Si4 0.348225 0.725855 0.667986
Si Si5 0.569290 0.400387 0.464103
O O1 0.731922 0.633927 0.446657
O O2 0.753671 0.533103 0.234514
O O3 0.619912 0.591113 0.097422
O O4 0.721825 0.065830 0.519015
O O5 0.873475 0.038210 0.408694
O O6 0.999337 0.397410 0.742681
O O7 0.000000 0.500000 0.500000
O O8 0.967324 0.401698 0.239243
O O9 0.250000 0.750000 0.695374
O O10 0.387533 0.765306 0.440745
O O11 0.362763 0.655376 0.579737
#
# Coordination Sequence:
#
# PCOD9431241 Si02
#       5
#     8   8   8   8   8
#     4  10  21  37  54  79 118 166 201 252 306 383
#     4  10  21  31  51  79 116 157 217 249 298 369
#     4  12  24  39  58  90 129 163 215 274 320 390
#     4  10  23  41  60  85 122 166 219 276 309 362
#     4  12  24  37  61  86 121 173 218 265 331 368
#
# _framework density 22.355506999999999
#
# number of rings (size 3 to 8) (size 9 to 14) (size 15 to 20)
#    0.000    1.200    2.000    4.200   11.200    0.000 
#    0.000    0.000    0.000    0.000    0.000    0.000 
#    0.000   56.000    0.000    0.000    0.000    0.000 
#
# Total GULP energy -223041.635511 kJ/mol
# GULP energy per Si atom -5576.040888 kJ/mol
# Density = 2.230462 g / cm^3
# Si number density = 22.355507 Si / 1000 Ang^3
#
#
#
# Elastic Constant Matrix: (Units=GPa)
#
#
# Indices 1 2 3 4 5 6 
#
# 1 70.6501 -6.4952 37.0234 0.0000 0.0000 0.0000
# 2 -6.4952 25.3938 -0.9778 0.0000 0.0000 0.0000
# 3 37.0234 -0.9778 189.4317 0.0000 0.0000 0.0000
# 4 0.0000 0.0000 0.0000 24.0432 0.0000 0.0000
# 5 0.0000 0.0000 0.0000 0.0000 39.6578 0.0000
# 6 0.0000 0.0000 0.0000 0.0000 0.0000 20.7747
#
#
#
# Elastic Compliance Matrix: (Units=1/GPa)
#
#
# Indices 1 2 3 4 5 6 
#
# 1 0.016168 0.004015 -0.003139 0.000000 0.000000 0.000000
# 2 0.004015 0.040384 -0.000576 0.000000 0.000000 0.000000
# 3 -0.003139 -0.000576 0.005890 0.000000 0.000000 0.000000
# 4 0.000000 0.000000 0.000000 0.041592 0.000000 0.000000
# 5 0.000000 0.000000 0.000000 0.000000 0.025216 0.000000
# 6 0.000000 0.000000 0.000000 0.000000 0.000000 0.048135
#
#
# Mechanical properties :
#
#
# Convention : Reuss Voigt Hill
#
# Bulk Modulus (GPa) = 15.86278 38.28627 27.07452
# Shear Modulus (GPa) = 25.27799 33.95683 29.61741
#
# Velocity S-wave (km/s) = 3.36628 3.90159 3.64378
# Velocity P-wave (km/s) = 4.71383 6.12045 5.46260
#
# Compressibility (1/GPa) = 0.06304065
#
# Stress axis : x y z
#
# Youngs Moduli (GPa) = 61.84882 24.76208 169.79276
#
# Poissons Ratio (x) = -0.09941 0.53303
# Poissons Ratio (y) = -0.24830 0.09783
# Poissons Ratio (z) = 0.19416 0.01427
#
# Static dielectric constant tensor:
#      x y z
#    x 1.815690 0.000000 0.000000 
#    y 0.000000 1.894900 0.000000 
#    z 0.000000 0.000000 2.007560 
# 
# From -- ./inp_files/471.got.cif
#   From: 2010.05.17/outbox.cif.g08.bks.cpg/sg56_1_cif.got.tgz:471.got - 2010.06.03 13:42:01.
