data_PCOD9431980
_publ_section_title
;
Structure prediction by ZEFSAII (Michael W. Deem and Ramdas Pophale) SiO2 
 PCOD9431980
Probable space group: P C C N
;
_chemical_formula_sum "Si O2"
_cell_formula_units_Z 36
_cell_length_a 15.707448
_cell_length_b 6.769753
_cell_length_c 14.162431
_cell_angle_alpha 90.000000
_cell_angle_beta 90.000000
_cell_angle_gamma 90.000000
_cell_volume 1505.969794
_symmetry_space_group_name_H-M "P C C N"
_symmetry_group_IT_number 56
_symmetry_cell_setting 'orthorhombic'
loop_
_space_group_symop_operation_xyz
x,y,z
1/2-x,1/2-y,z
1/2+x,-y,1/2-z
-x,1/2+y,1/2-z
-x,-y,-z
1/2+x,1/2+y,-z
1/2-x,y,1/2+z
x,1/2-y,1/2+z
loop_
_atom_site_type_symbol
_atom_site_label
_atom_site_fract_x
_atom_site_fract_y
_atom_site_fract_z
Si Si1 0.440468 0.150382 0.203179
Si Si2 0.750000 0.250000 0.717945
Si Si3 0.903590 0.301935 0.339105
Si Si4 0.012025 0.262048 0.002807
Si Si5 0.331819 0.366732 0.870943
O O1 0.522491 0.123553 0.269251
O O2 0.468988 0.273851 0.112572
O O3 0.365899 0.222473 0.271552
O O4 0.409140 0.936264 0.170409
O O5 0.684873 0.357021 0.790422
O O6 0.802241 0.408135 0.653514
O O7 0.930036 0.328612 0.448624
O O8 0.091592 0.186384 0.941487
O O9 0.000000 0.500000 0.000000
O O10 0.250000 0.250000 0.905322
#
# Coordination Sequence:
#
# PCOD9431980 Si02
#       5
#     8   4   8   8   8
#     4   9  19  37  63  88 122 168 223 271 344 426
#     4  10  22  38  62  96 134 164 230 278 352 428
#     4   9  19  36  61  89 124 174 213 283 345 412
#     4   9  19  38  67  95 127 178 236 275 350 434
#     4  10  22  39  67  93 128 180 217 290 360 407
#
# _framework density 23.904862999999999
#
# number of rings (size 3 to 8) (size 9 to 14) (size 15 to 20)
#    0.000    2.667    0.000    0.000    9.333    0.889 
#    0.000   11.111   14.667    0.000    0.000    0.000 
#    0.000    0.000    0.000    0.000    0.000    0.000 
#
# Total GULP energy -200847.837083 kJ/mol
# GULP energy per Si atom -5579.106586 kJ/mol
# Density = 2.385045 g / cm^3
# Si number density = 23.904863 Si / 1000 Ang^3
#
#
#
# Elastic Constant Matrix: (Units=GPa)
#
#
# Indices 1 2 3 4 5 6 
#
# 1 111.6544 28.5768 37.1015 0.0000 0.0000 0.0000
# 2 28.5768 126.7779 52.4179 0.0000 0.0000 0.0000
# 3 37.1015 52.4179 166.3926 0.0000 0.0000 0.0000
# 4 0.0000 0.0000 0.0000 -29.3800 0.0000 0.0000
# 5 0.0000 0.0000 0.0000 0.0000 31.8936 0.0000
# 6 0.0000 0.0000 0.0000 0.0000 0.0000 49.2308
#
#
#
# Elastic Compliance Matrix: (Units=1/GPa)
#
#
# Indices 1 2 3 4 5 6 
#
# 1 0.009921 -0.001520 -0.001733 0.000000 0.000000 0.000000
# 2 -0.001520 0.009302 -0.002591 0.000000 0.000000 0.000000
# 3 -0.001733 -0.002591 0.007213 0.000000 0.000000 0.000000
# 4 0.000000 0.000000 0.000000 -0.034037 0.000000 0.000000
# 5 0.000000 0.000000 0.000000 0.000000 0.031354 0.000000
# 6 0.000000 0.000000 0.000000 0.000000 0.000000 0.020312
#
#
# Mechanical properties :
#
#
# Convention : Reuss Voigt Hill
#
# Bulk Modulus (GPa) = 67.81186 71.22416 69.51801
# Shear Modulus (GPa) = 82.41268 29.46414 55.93841
#
# Velocity S-wave (km/s) = 5.87793 3.51459 4.84265
# Velocity P-wave (km/s) = 8.63110 6.80656 7.77255
#
# Compressibility (1/GPa) = 0.01474668
#
# Stress axis : x y z
#
# Youngs Moduli (GPa) = 100.79487 107.50594 138.64271
#
# Poissons Ratio (x) = 0.16336 0.24033
# Poissons Ratio (y) = 0.15317 0.35929
# Poissons Ratio (z) = 0.17472 0.27860
#
# Static dielectric constant tensor:
#      x y z
#    x 1.917460 0.000000 0.000000 
#    y 0.000000 2.014150 0.000000 
#    z 0.000000 0.000000 1.918770 
# 
# From -- ./inp_files/12044.got.cif
#   From: 2010.05.17/outbox.cif.g08.bks.cpg/sg56_7_cif.got.tgz:12044.got - 2010.06.03 13:42:01.
