data_PCOD9431142
_publ_section_title
;
Structure prediction by ZEFSAII (Michael W. Deem and Ramdas Pophale) SiO2 
 PCOD9431142
Probable space group: P C C N
;
_chemical_formula_sum "Si O2"
_cell_formula_units_Z 64
_cell_length_a 9.340795
_cell_length_b 24.798978
_cell_length_c 13.974931
_cell_angle_alpha 90.000000
_cell_angle_beta 90.000000
_cell_angle_gamma 90.000000
_cell_volume 3237.183338
_symmetry_space_group_name_H-M "P C C N"
_symmetry_group_IT_number 56
_symmetry_cell_setting 'orthorhombic'
loop_
_space_group_symop_operation_xyz
x,y,z
1/2-x,1/2-y,z
1/2+x,-y,1/2-z
-x,1/2+y,1/2-z
-x,-y,-z
1/2+x,1/2+y,-z
1/2-x,y,1/2+z
x,1/2-y,1/2+z
loop_
_atom_site_type_symbol
_atom_site_label
_atom_site_fract_x
_atom_site_fract_y
_atom_site_fract_z
Si Si1 0.244332 0.809512 0.084749
Si Si2 0.196381 0.635694 0.282898
Si Si3 0.953878 0.351051 0.078967
Si Si4 0.907231 0.918997 0.753278
Si Si5 0.001660 0.667348 0.443693
Si Si6 0.902867 0.543780 0.448850
Si Si7 0.092823 0.449664 0.965672
Si Si8 0.243514 0.309948 0.173052
O O1 0.250000 0.750000 0.125003
O O2 0.267491 0.847082 0.175699
O O3 0.362287 0.817616 0.000294
O O4 0.090636 0.815927 0.035174
O O5 0.338051 0.626095 0.345039
O O6 0.076914 0.590186 0.270329
O O7 0.104329 0.676890 0.350736
O O8 0.082581 0.322452 0.137437
O O9 0.026291 0.397918 0.017692
O O10 0.867899 0.961304 0.835922
O O11 0.896134 0.939868 0.647000
O O12 0.815225 0.862603 0.771733
O O13 0.972541 0.603390 0.455828
O O14 0.850020 0.693507 0.418933
O O15 0.752868 0.543222 0.499954
O O16 0.000000 0.500000 0.500000
O O17 0.000000 0.500000 0.000000
O O18 0.250000 0.250000 0.219954
#
# Coordination Sequence:
#
# PCOD9431142 Si02
#       8
#     8   8   8   8   8   8   8   8
#     4  11  22  37  64  96 128 176 218 264 325 392
#     4   9  21  37  64  84 129 165 210 261 323 376
#     4  11  22  44  62  97 135 165 220 278 321 399
#     4  10  23  46  65  98 140 169 221 283 327 411
#     4   9  21  41  59  91 135 166 212 274 322 389
#     4  10  23  44  68  96 130 174 219 273 338 400
#     4  12  26  44  69  98 131 173 222 279 344 390
#     4  10  20  41  68  93 132 182 213 270 340 398
#
# _framework density 19.770273
#
# number of rings (size 3 to 8) (size 9 to 14) (size 15 to 20)
#    0.000    2.000    3.750    0.750    5.250    6.000 
#    2.250    0.625    0.000    0.000    0.000    0.000 
#    0.000    0.000    0.000    0.000    0.000    0.000 
#
# Total GULP energy -356449.551598 kJ/mol
# GULP energy per Si atom -5569.524244 kJ/mol
# Density = 1.972527 g / cm^3
# Si number density = 19.770273 Si / 1000 Ang^3
#
#
#
# Elastic Constant Matrix: (Units=GPa)
#
#
# Indices 1 2 3 4 5 6 
#
# 1 127.5652 16.3127 68.4488 0.0000 0.0000 0.0000
# 2 16.3127 59.3762 32.8173 0.0000 0.0000 0.0000
# 3 68.4488 32.8173 140.7476 0.0000 0.0000 0.0000
# 4 0.0000 0.0000 0.0000 9.8519 0.0000 0.0000
# 5 0.0000 0.0000 0.0000 0.0000 12.3833 0.0000
# 6 0.0000 0.0000 0.0000 0.0000 0.0000 25.6148
#
#
#
# Elastic Compliance Matrix: (Units=1/GPa)
#
#
# Indices 1 2 3 4 5 6 
#
# 1 0.010607 -0.000072 -0.005142 0.000000 0.000000 0.000000
# 2 -0.000072 0.019334 -0.004473 0.000000 0.000000 0.000000
# 3 -0.005142 -0.004473 0.010648 0.000000 0.000000 0.000000
# 4 0.000000 0.000000 0.000000 0.101503 0.000000 0.000000
# 5 0.000000 0.000000 0.000000 0.000000 0.080754 0.000000
# 6 0.000000 0.000000 0.000000 0.000000 0.000000 0.039040
#
#
# Mechanical properties :
#
#
# Convention : Reuss Voigt Hill
#
# Bulk Modulus (GPa) = 47.13480 62.53851 54.83666
# Shear Modulus (GPa) = 17.34117 23.57738 20.45927
#
# Velocity S-wave (km/s) = 2.96486 3.45710 3.22040
# Velocity P-wave (km/s) = 5.96771 6.90193 6.45175
#
# Compressibility (1/GPa) = 0.02121575
#
# Stress axis : x y z
#
# Youngs Moduli (GPa) = 94.27463 51.72307 93.91141
#
# Poissons Ratio (x) = 0.00374 0.48286
# Poissons Ratio (y) = 0.00682 0.42004
# Poissons Ratio (z) = 0.48473 0.23134
#
# Static dielectric constant tensor:
#      x y z
#    x 1.673340 0.000000 0.000000 
#    y 0.000000 1.724840 0.000000 
#    z 0.000000 0.000000 1.697940 
# 
# From -- ./inp_files/11054.got.cif
#   From: 2010.05.17/outbox.cif.g08.bks.cpg/sg56_6_cif.got.tgz:11054.got - 2010.06.03 13:42:01.
