data_PCOD9431256
_publ_section_title
;
Structure prediction by ZEFSAII (Michael W. Deem and Ramdas Pophale) SiO2 
 PCOD9431256
Probable space group: P C C N
;
_chemical_formula_sum "Si O2"
_cell_formula_units_Z 56
_cell_length_a 31.570138
_cell_length_b 15.243254
_cell_length_c 5.377799
_cell_angle_alpha 90.000000
_cell_angle_beta 90.000000
_cell_angle_gamma 90.000000
_cell_volume 2587.966991
_symmetry_space_group_name_H-M "P C C N"
_symmetry_group_IT_number 56
_symmetry_cell_setting 'orthorhombic'
loop_
_space_group_symop_operation_xyz
x,y,z
1/2-x,1/2-y,z
1/2+x,-y,1/2-z
-x,1/2+y,1/2-z
-x,-y,-z
1/2+x,1/2+y,-z
1/2-x,y,1/2+z
x,1/2-y,1/2+z
loop_
_atom_site_type_symbol
_atom_site_label
_atom_site_fract_x
_atom_site_fract_y
_atom_site_fract_z
Si Si1 0.426196 0.801435 0.744916
Si Si2 0.127553 0.013629 0.835482
Si Si3 0.147721 0.569473 0.829457
Si Si4 0.032460 0.965869 0.793871
Si Si5 0.267172 0.650285 0.202266
Si Si6 0.604923 0.794312 0.870445
Si Si7 0.512699 0.644730 0.439696
O O1 0.416443 0.764242 0.473244
O O2 0.397688 0.884352 0.815575
O O3 0.475665 0.827648 0.753015
O O4 0.119024 0.112730 0.744387
O O5 0.151950 0.968130 0.606400
O O6 0.081495 0.966791 0.863734
O O7 0.148855 0.001151 0.104881
O O8 0.183676 0.641131 0.768186
O O9 0.014394 0.874570 0.688653
O O10 0.031449 0.046948 0.599130
O O11 0.000000 0.000000 0.000000
O O12 0.250000 0.750000 0.179937
O O13 0.242701 0.608908 0.435616
O O14 0.618602 0.726066 0.654025
O O15 0.553536 0.795343 0.904616
#
# Coordination Sequence:
#
# PCOD9431256 Si02
#       7
#     8   8   8   8   8   8   8
#     4  12  26  37  56  83 123 164 219 276 323 360
#     4  11  24  41  65  91 125 169 222 280 330 383
#     4  12  24  43  65  93 128 168 224 264 313 396
#     4  10  21  34  59  77 116 164 224 274 334 377
#     4  10  23  41  67  93 131 170 211 247 313 387
#     4  11  24  40  61  88 126 166 219 277 340 394
#     4  10  22  36  52  81 112 167 221 277 321 378
#
# _framework density 21.638604999999998
#
# number of rings (size 3 to 8) (size 9 to 14) (size 15 to 20)
#    0.000    1.143    1.429    4.286   14.000    0.000 
#    0.000    0.000    0.000    0.000    0.000    0.000 
#    0.000   40.000    0.000    0.000    0.000    0.000 
#
# Total GULP energy -312499.637063 kJ/mol
# GULP energy per Si atom -5580.350662 kJ/mol
# Density = 2.158935 g / cm^3
# Si number density = 21.638605 Si / 1000 Ang^3
#
#
#
# Elastic Constant Matrix: (Units=GPa)
#
#
# Indices 1 2 3 4 5 6 
#
# 1 30.4914 3.0377 2.1326 0.0000 0.0000 0.0000
# 2 3.0377 59.7045 19.0949 0.0000 0.0000 0.0000
# 3 2.1326 19.0949 133.6833 0.0000 0.0000 0.0000
# 4 0.0000 0.0000 0.0000 36.9631 0.0000 0.0000
# 5 0.0000 0.0000 0.0000 0.0000 21.3979 0.0000
# 6 0.0000 0.0000 0.0000 0.0000 0.0000 24.7321
#
#
#
# Elastic Compliance Matrix: (Units=1/GPa)
#
#
# Indices 1 2 3 4 5 6 
#
# 1 0.032975 -0.001582 -0.000300 0.000000 0.000000 0.000000
# 2 -0.001582 0.017627 -0.002493 0.000000 0.000000 0.000000
# 3 -0.000300 -0.002493 0.007841 0.000000 0.000000 0.000000
# 4 0.000000 0.000000 0.000000 0.027054 0.000000 0.000000
# 5 0.000000 0.000000 0.000000 0.000000 0.046734 0.000000
# 6 0.000000 0.000000 0.000000 0.000000 0.000000 0.040433
#
#
# Mechanical properties :
#
#
# Convention : Reuss Voigt Hill
#
# Bulk Modulus (GPa) = 20.12318 30.26772 25.19545
# Shear Modulus (GPa) = 25.25548 29.92623 27.59086
#
# Velocity S-wave (km/s) = 3.42006 3.72291 3.57469
# Velocity P-wave (km/s) = 4.99156 5.70072 5.35789
#
# Compressibility (1/GPa) = 0.04969394
#
# Stress axis : x y z
#
# Youngs Moduli (GPa) = 30.32632 56.73179 127.53183
#
# Poissons Ratio (x) = 0.08973 0.03827
# Poissons Ratio (y) = 0.04797 0.31788
# Poissons Ratio (z) = 0.00910 0.14141
#
# Static dielectric constant tensor:
#      x y z
#    x 1.794680 0.000000 0.000000 
#    y 0.000000 1.845080 0.000000 
#    z 0.000000 0.000000 1.910270 
# 
# From -- ./inp_files/1351.got.cif
#   From: 2010.05.17/outbox.cif.g08.bks.cpg/sg56_1_cif.got.tgz:1351.got - 2010.06.03 13:42:01.
