data_PCOD9431291
_publ_section_title
;
Structure prediction by ZEFSAII (Michael W. Deem and Ramdas Pophale) SiO2 
 PCOD9431291
Probable space group: P C C N
;
_chemical_formula_sum "Si O2"
_cell_formula_units_Z 56
_cell_length_a 16.107613
_cell_length_b 34.661560
_cell_length_c 5.098491
_cell_angle_alpha 90.000000
_cell_angle_beta 90.000000
_cell_angle_gamma 90.000000
_cell_volume 2846.563974
_symmetry_space_group_name_H-M "P C C N"
_symmetry_group_IT_number 56
_symmetry_cell_setting 'orthorhombic'
loop_
_space_group_symop_operation_xyz
x,y,z
1/2-x,1/2-y,z
1/2+x,-y,1/2-z
-x,1/2+y,1/2-z
-x,-y,-z
1/2+x,1/2+y,-z
1/2-x,y,1/2+z
x,1/2-y,1/2+z
loop_
_atom_site_type_symbol
_atom_site_label
_atom_site_fract_x
_atom_site_fract_y
_atom_site_fract_z
Si Si1 0.193741 0.065416 0.667297
Si Si2 0.303859 0.154460 0.211860
Si Si3 0.900132 0.772696 0.484717
Si Si4 0.803859 0.345540 0.788138
Si Si5 0.806259 0.065416 0.332702
Si Si6 0.440823 0.500000 0.749064
Si Si7 0.400132 0.727304 0.515283
O O1 0.233526 0.058926 0.381516
O O2 0.167204 0.110243 0.682560
O O3 0.119295 0.036969 0.733533
O O4 0.273100 0.159108 0.509428
O O5 0.368297 0.186467 0.118513
O O6 0.871497 0.759001 0.770755
O O7 0.000000 0.773264 0.500000
O O8 0.773100 0.340892 0.490570
O O9 0.832796 0.389757 0.817438
O O10 0.868296 0.313533 0.881485
O O11 0.766473 0.058926 0.618482
O O12 0.880705 0.036969 0.266467
O O13 0.500000 0.500000 0.500000
O O14 0.500000 0.500000 0.000000
O O15 0.371497 0.759001 0.729245
#
# Coordination Sequence:
#
# PCOD9431291 Si02
#       7
#     8   8   8   8   8   8   8
#     4  10  21  40  61  82 115 155 188 227 287 346
#     4  10  21  36  57  83 107 141 189 231 270 323
#     4  10  21  36  53  77 111 148 182 223 281 335
#     4  10  21  36  57  83 107 141 189 231 270 323
#     4  10  21  40  61  82 115 155 188 227 287 346
#     4  12  24  38  60  92 118 144 190 236 278 334
#     4  10  21  36  53  77 111 148 182 223 281 335
#
# _framework density 19.672840999999998
#
# number of rings (size 3 to 8) (size 9 to 14) (size 15 to 20)
#    0.000    1.714    0.000    4.286    0.000    4.571 
#    0.000    4.286    0.000    0.000    0.000    0.000 
#    0.000    0.000    0.000    0.000    0.000    0.000 
#
# Total GULP energy -312879.800418 kJ/mol
# GULP energy per Si atom -5587.139293 kJ/mol
# Density = 1.962806 g / cm^3
# Si number density = 19.672841 Si / 1000 Ang^3
#
#
#
# Elastic Constant Matrix: (Units=GPa)
#
#
# Indices 1 2 3 4 5 6 
#
# 1 44.8761 68.0912 16.2966 0.0000 0.0000 0.0000
# 2 68.0912 147.6608 37.5487 0.0000 0.0000 0.0000
# 3 16.2966 37.5487 88.6644 0.0000 0.0000 0.0000
# 4 0.0000 0.0000 0.0000 22.5167 0.0000 0.0000
# 5 0.0000 0.0000 0.0000 0.0000 34.3432 0.0000
# 6 0.0000 0.0000 0.0000 0.0000 0.0000 -88.1714
#
#
#
# Elastic Compliance Matrix: (Units=1/GPa)
#
#
# Indices 1 2 3 4 5 6 
#
# 1 0.074272 -0.034493 0.000956 0.000000 0.000000 0.000000
# 2 -0.034493 0.023608 -0.003658 0.000000 0.000000 0.000000
# 3 0.000956 -0.003658 0.012652 0.000000 0.000000 0.000000
# 4 0.000000 0.000000 0.000000 0.044412 0.000000 0.000000
# 5 0.000000 0.000000 0.000000 0.000000 0.029118 0.000000
# 6 0.000000 0.000000 0.000000 0.000000 0.000000 -0.011342
#
#
# Mechanical properties :
#
#
# Convention : Reuss Voigt Hill
#
# Bulk Modulus (GPa) = 27.66774 58.34159 43.00467
# Shear Modulus (GPa) = 19.29329 4.35535 11.82432
#
# Velocity S-wave (km/s) = 3.13502 1.48953 2.45429
# Velocity P-wave (km/s) = 5.21526 5.71652 5.47163
#
# Compressibility (1/GPa) = 0.03614317
#
# Stress axis : x y z
#
# Youngs Moduli (GPa) = 13.46394 42.35830 79.03923
#
# Poissons Ratio (x) = 1.46105 -0.07556
# Poissons Ratio (y) = 0.46441 0.28913
# Poissons Ratio (z) = -0.01287 0.15495
#
# Static dielectric constant tensor:
#      x y z
#    x 1.649930 0.000000 0.000000 
#    y 0.000000 0.819870 0.000000 
#    z 0.000000 0.000000 1.677990 
# 
# From -- ./inp_files/585.got.cif
#   From: 2010.05.17/outbox.cif.g08.bks.cpg/sg56_1_cif.got.tgz:585.got - 2010.06.03 13:42:01.
