data_PCOD9431957
_publ_section_title
;
Structure prediction by ZEFSAII (Michael W. Deem and Ramdas Pophale) SiO2 
 PCOD9431957
Probable space group: P C C N
;
_chemical_formula_sum "Si O2"
_cell_formula_units_Z 64
_cell_length_a 26.263551
_cell_length_b 5.109522
_cell_length_c 20.543699
_cell_angle_alpha 90.000000
_cell_angle_beta 90.000000
_cell_angle_gamma 90.000000
_cell_volume 2756.845080
_symmetry_space_group_name_H-M "P C C N"
_symmetry_group_IT_number 56
_symmetry_cell_setting 'orthorhombic'
loop_
_space_group_symop_operation_xyz
x,y,z
1/2-x,1/2-y,z
1/2+x,-y,1/2-z
-x,1/2+y,1/2-z
-x,-y,-z
1/2+x,1/2+y,-z
1/2-x,y,1/2+z
x,1/2-y,1/2+z
loop_
_atom_site_type_symbol
_atom_site_label
_atom_site_fract_x
_atom_site_fract_y
_atom_site_fract_z
Si Si1 0.541624 0.068649 0.683343
Si Si2 0.974704 0.063675 0.329043
Si Si3 0.848173 0.184578 0.905319
Si Si4 0.808983 0.787843 0.678163
Si Si5 0.282032 0.512795 0.990630
Si Si6 0.190944 0.717868 0.232269
Si Si7 0.616130 0.647800 0.076758
Si Si8 0.093898 0.167973 0.557249
O O1 0.496410 0.858053 0.668950
O O2 0.554897 0.028662 0.759926
O O3 0.583226 0.010664 0.628641
O O4 0.521902 0.363580 0.676983
O O5 0.945587 0.969755 0.393758
O O6 0.842966 0.272107 0.831463
O O7 0.861604 0.449837 0.944168
O O8 0.888136 0.945963 0.913092
O O9 0.796153 0.069818 0.934406
O O10 0.750000 0.750000 0.656268
O O11 0.817984 0.531213 0.722111
O O12 0.848833 0.833849 0.620624
O O13 0.816903 0.029289 0.724647
O O14 0.250000 0.750000 0.961931
O O15 0.337992 0.506148 0.958706
O O16 0.250000 0.250000 0.986160
O O17 0.250000 0.750000 0.211894
O O18 0.582457 0.771325 0.018676
#
# Coordination Sequence:
#
# PCOD9431957 Si02
#       8
#     8   8   8   8   8   8   8   8
#     4  10  24  43  72  98 134 170 220 269 340 416
#     4  10  23  47  67 100 132 175 212 276 347 394
#     4  11  23  39  65  98 129 179 226 271 326 393
#     4  10  23  40  59  90 133 170 217 273 325 381
#     4  11  24  42  65  91 138 183 222 275 328 393
#     4  10  22  38  59  89 124 170 220 273 327 374
#     4  11  26  43  67 104 130 179 228 268 333 401
#     4  11  25  42  68  99 136 169 221 271 334 398
#
# _framework density 23.214943000000002
#
# number of rings (size 3 to 8) (size 9 to 14) (size 15 to 20)
#    0.000    1.500    0.000    3.750    3.500   11.000 
#    0.000    0.000    0.000    0.000    0.000    0.000 
#    0.000    0.000    0.000    0.000    0.000    0.000 
#
# Total GULP energy -357651.423575 kJ/mol
# GULP energy per Si atom -5588.303493 kJ/mol
# Density = 2.316210 g / cm^3
# Si number density = 23.214943 Si / 1000 Ang^3
#
#
#
# Elastic Constant Matrix: (Units=GPa)
#
#
# Indices 1 2 3 4 5 6 
#
# 1 49.8945 4.6384 39.3998 0.0000 0.0000 0.0000
# 2 4.6384 103.9346 10.2548 0.0000 0.0000 0.0000
# 3 39.3998 10.2548 124.0850 0.0000 0.0000 0.0000
# 4 0.0000 0.0000 0.0000 780.1235 0.0000 0.0000
# 5 0.0000 0.0000 0.0000 0.0000 43.8163 0.0000
# 6 0.0000 0.0000 0.0000 0.0000 0.0000 27.1300
#
#
#
# Elastic Compliance Matrix: (Units=1/GPa)
#
#
# Indices 1 2 3 4 5 6 
#
# 1 0.026763 -0.000359 -0.008468 0.000000 0.000000 0.000000
# 2 -0.000359 0.009705 -0.000688 0.000000 0.000000 0.000000
# 3 -0.008468 -0.000688 0.010805 0.000000 0.000000 0.000000
# 4 0.000000 0.000000 0.000000 0.001282 0.000000 0.000000
# 5 0.000000 0.000000 0.000000 0.000000 0.022823 0.000000
# 6 0.000000 0.000000 0.000000 0.000000 0.000000 0.036860
#
#
# Mechanical properties :
#
#
# Convention : Reuss Voigt Hill
#
# Bulk Modulus (GPa) = 35.40770 42.94448 39.17609
# Shear Modulus (GPa) = 36.58159 185.12204 110.85181
#
# Velocity S-wave (km/s) = 3.97391 8.93956 6.91765
# Velocity P-wave (km/s) = 6.02837 11.18450 8.98427
#
# Compressibility (1/GPa) = 0.02824244
#
# Stress axis : x y z
#
# Youngs Moduli (GPa) = 37.36563 103.03599 92.55260
#
# Poissons Ratio (x) = 0.03698 0.78374
# Poissons Ratio (y) = 0.01341 0.06369
# Poissons Ratio (z) = 0.31641 0.07090
#
# Static dielectric constant tensor:
#      x y z
#    x 1.944530 0.000000 0.000000 
#    y 0.000000 1.841720 0.000000 
#    z 0.000000 0.000000 1.912260 
# 
# From -- ./inp_files/19674.got.cif
#   From: 2010.05.17/outbox.cif.g08.bks.cpg/sg56_10_cif.got.tgz:19674.got - 2010.06.03 13:42:01.
