data_PCOD9431111
_publ_section_title
;
Structure prediction by ZEFSAII (Michael W. Deem and Ramdas Pophale) SiO2 
 PCOD9431111
Probable space group: P C C N
;
_chemical_formula_sum "Si O2"
_cell_formula_units_Z 36
_cell_length_a 13.979569
_cell_length_b 6.975203
_cell_length_c 17.594260
_cell_angle_alpha 90.000000
_cell_angle_beta 90.000000
_cell_angle_gamma 90.000000
_cell_volume 1715.622127
_symmetry_space_group_name_H-M "P C C N"
_symmetry_group_IT_number 56
_symmetry_cell_setting 'orthorhombic'
loop_
_space_group_symop_operation_xyz
x,y,z
1/2-x,1/2-y,z
1/2+x,-y,1/2-z
-x,1/2+y,1/2-z
-x,-y,-z
1/2+x,1/2+y,-z
1/2-x,y,1/2+z
x,1/2-y,1/2+z
loop_
_atom_site_type_symbol
_atom_site_label
_atom_site_fract_x
_atom_site_fract_y
_atom_site_fract_z
Si Si1 0.750000 0.250000 0.918020
Si Si2 0.596218 0.414904 0.034562
Si Si3 0.754240 0.487598 0.643757
Si Si4 0.063137 0.872378 0.327327
Si Si5 0.364478 0.935915 0.210654
O O1 0.704614 0.095800 0.860446
O O2 0.661311 0.314071 0.970484
O O3 0.676045 0.548975 0.076116
O O4 0.560501 0.276768 0.102800
O O5 0.500000 0.500000 0.000000
O O6 0.750000 0.250000 0.637503
O O7 0.642338 0.530085 0.648406
O O8 0.805335 0.535443 0.722215
O O9 0.101441 0.763919 0.251273
O O10 0.959969 0.955983 0.311905
#
# Coordination Sequence:
#
# PCOD9431111 Si02
#       5
#     4   8   8   8   8
#     4  12  20  38  62  86 116 170 202 240 314 370
#     4  10  21  37  62  83 124 160 198 247 310 361
#     4   8  16  38  54  83 117 154 187 244 301 350
#     4  10  20  41  58  92 118 158 201 253 300 361
#     4  10  21  34  67  86 115 158 207 242 303 364
#
# _framework density 20.983643000000001
#
# number of rings (size 3 to 8) (size 9 to 14) (size 15 to 20)
#    0.000    2.667    6.667    0.000    6.222    0.889 
#    0.000    4.444    0.000    0.000    0.000    0.000 
#    0.000    0.000    0.000    0.000    0.000    0.000 
#
# Total GULP energy -200496.391041 kJ/mol
# GULP energy per Si atom -5569.344196 kJ/mol
# Density = 2.093588 g / cm^3
# Si number density = 20.983643 Si / 1000 Ang^3
#
#
#
# Elastic Constant Matrix: (Units=GPa)
#
#
# Indices 1 2 3 4 5 6 
#
# 1 131.1166 15.3843 30.2636 0.0000 0.0000 0.0000
# 2 15.3843 34.6611 9.7762 0.0000 0.0000 0.0000
# 3 30.2636 9.7762 112.7508 0.0000 0.0000 0.0000
# 4 0.0000 0.0000 0.0000 15.7496 0.0000 0.0000
# 5 0.0000 0.0000 0.0000 0.0000 50.9874 0.0000
# 6 0.0000 0.0000 0.0000 0.0000 0.0000 42.8361
#
#
#
# Elastic Compliance Matrix: (Units=1/GPa)
#
#
# Indices 1 2 3 4 5 6 
#
# 1 0.008462 -0.003193 -0.001994 0.000000 0.000000 0.000000
# 2 -0.003193 0.030779 -0.001812 0.000000 0.000000 0.000000
# 3 -0.001994 -0.001812 0.009562 0.000000 0.000000 0.000000
# 4 0.000000 0.000000 0.000000 0.063494 0.000000 0.000000
# 5 0.000000 0.000000 0.000000 0.000000 0.019613 0.000000
# 6 0.000000 0.000000 0.000000 0.000000 0.000000 0.023345
#
#
# Mechanical properties :
#
#
# Convention : Reuss Voigt Hill
#
# Bulk Modulus (GPa) = 28.73242 43.26409 35.99826
# Shear Modulus (GPa) = 27.64673 36.78825 32.21749
#
# Velocity S-wave (km/s) = 3.63373 4.19165 3.92262
# Velocity P-wave (km/s) = 5.59712 6.63998 6.14073
#
# Compressibility (1/GPa) = 0.03480389
#
# Stress axis : x y z
#
# Youngs Moduli (GPa) = 118.17812 32.48958 104.58595
#
# Poissons Ratio (x) = 0.10375 0.20858
# Poissons Ratio (y) = 0.37737 0.18947
# Poissons Ratio (z) = 0.23569 0.05886
#
# Static dielectric constant tensor:
#      x y z
#    x 1.881120 0.000000 0.000000 
#    y 0.000000 1.892850 0.000000 
#    z 0.000000 0.000000 1.752590 
# 
# From -- ./inp_files/12018.got.cif
#   From: 2010.05.17/outbox.cif.g08.bks.cpg/sg56_7_cif.got.tgz:12018.got - 2010.06.03 13:42:01.
