data_PCOD9431754
_publ_section_title
;
Structure prediction by ZEFSAII (Michael W. Deem and Ramdas Pophale) SiO2 
 PCOD9431754
Probable space group: P C C N
;
_chemical_formula_sum "Si O2"
_cell_formula_units_Z 36
_cell_length_a 16.452149
_cell_length_b 7.376389
_cell_length_c 13.068969
_cell_angle_alpha 90.000000
_cell_angle_beta 90.000000
_cell_angle_gamma 90.000000
_cell_volume 1586.016764
_symmetry_space_group_name_H-M "P C C N"
_symmetry_group_IT_number 56
_symmetry_cell_setting 'orthorhombic'
loop_
_space_group_symop_operation_xyz
x,y,z
1/2-x,1/2-y,z
1/2+x,-y,1/2-z
-x,1/2+y,1/2-z
-x,-y,-z
1/2+x,1/2+y,-z
1/2-x,y,1/2+z
x,1/2-y,1/2+z
loop_
_atom_site_type_symbol
_atom_site_label
_atom_site_fract_x
_atom_site_fract_y
_atom_site_fract_z
Si Si1 0.403285 0.429648 0.449703
Si Si2 0.250000 0.250000 0.365394
Si Si3 0.935153 0.303285 0.482894
Si Si4 0.053611 0.878332 0.236204
Si Si5 0.115541 0.996165 0.807611
O O1 0.320515 0.326361 0.435711
O O2 0.474692 0.294356 0.487930
O O3 0.387529 0.611844 0.514534
O O4 0.425405 0.503651 0.335223
O O5 0.202665 0.407791 0.303326
O O6 0.926651 0.423990 0.381315
O O7 0.907545 0.425227 0.578005
O O8 0.099885 0.689058 0.248062
O O9 0.955249 0.870250 0.233213
#
# Coordination Sequence:
#
# PCOD9431754 Si02
#       5
#     8   4   8   8   8
#     4  10  23  41  68  91 132 164 222 260 331 371
#     4  12  24  44  58 100 132 172 200 294 326 358
#     4  10  21  41  69  93 121 178 220 260 304 414
#     4  11  20  42  69  96 120 177 220 257 307 418
#     4  11  23  39  70  92 135 165 222 260 331 371
#
# _framework density 22.698373
#
# number of rings (size 3 to 8) (size 9 to 14) (size 15 to 20)
#    0.000    1.333    4.444    0.667    0.000    3.556 
#    0.000    6.667    0.000    0.000    0.000    0.000 
#    0.000    0.000    0.000    0.000    0.000    0.000 
#
# Total GULP energy -200577.233705 kJ/mol
# GULP energy per Si atom -5571.589825 kJ/mol
# Density = 2.264671 g / cm^3
# Si number density = 22.698373 Si / 1000 Ang^3
#
#
#
# Elastic Constant Matrix: (Units=GPa)
#
#
# Indices 1 2 3 4 5 6 
#
# 1 90.1215 26.6164 -0.5968 0.0000 0.0000 0.0000
# 2 26.6164 99.1737 -4.0391 0.0000 0.0000 0.0000
# 3 -0.5968 -4.0391 106.1140 0.0000 0.0000 0.0000
# 4 0.0000 0.0000 0.0000 29.6935 0.0000 0.0000
# 5 0.0000 0.0000 0.0000 0.0000 28.0040 0.0000
# 6 0.0000 0.0000 0.0000 0.0000 0.0000 32.0395
#
#
#
# Elastic Compliance Matrix: (Units=1/GPa)
#
#
# Indices 1 2 3 4 5 6 
#
# 1 0.012052 -0.003237 -0.000055 0.000000 0.000000 0.000000
# 2 -0.003237 0.010968 0.000399 0.000000 0.000000 0.000000
# 3 -0.000055 0.000399 0.009439 0.000000 0.000000 0.000000
# 4 0.000000 0.000000 0.000000 0.033677 0.000000 0.000000
# 5 0.000000 0.000000 0.000000 0.000000 0.035709 0.000000
# 6 0.000000 0.000000 0.000000 0.000000 0.000000 0.031212
#
#
# Mechanical properties :
#
#
# Convention : Reuss Voigt Hill
#
# Bulk Modulus (GPa) = 37.49115 37.70782 37.59949
# Shear Modulus (GPa) = 33.84473 36.17597 35.01035
#
# Velocity S-wave (km/s) = 3.86562 3.99654 3.93162
# Velocity P-wave (km/s) = 6.03962 6.15995 6.10008
#
# Compressibility (1/GPa) = 0.02667296
#
# Stress axis : x y z
#
# Youngs Moduli (GPa) = 82.97591 91.17223 105.94668
#
# Poissons Ratio (x) = 0.29510 0.00587
# Poissons Ratio (y) = 0.26857 -0.04230
# Poissons Ratio (z) = 0.00460 -0.03640
#
# Static dielectric constant tensor:
#      x y z
#    x 1.860120 0.000000 0.000000 
#    y 0.000000 1.891640 0.000000 
#    z 0.000000 0.000000 1.903620 
# 
# From -- ./inp_files/12557.got.cif
#   From: 2010.05.17/outbox.cif.g08.bks.cpg/sg56_7_cif.got.tgz:12557.got - 2010.06.03 13:42:01.
