data_PCOD9431271
_publ_section_title
;
Structure prediction by ZEFSAII (Michael W. Deem and Ramdas Pophale) SiO2 
 PCOD9431271
Probable space group: P C C N
;
_chemical_formula_sum "Si O2"
_cell_formula_units_Z 48
_cell_length_a 11.812920
_cell_length_b 12.101760
_cell_length_c 14.397483
_cell_angle_alpha 90.000000
_cell_angle_beta 90.000000
_cell_angle_gamma 90.000000
_cell_volume 2058.222744
_symmetry_space_group_name_H-M "P C C N"
_symmetry_group_IT_number 56
_symmetry_cell_setting 'orthorhombic'
loop_
_space_group_symop_operation_xyz
x,y,z
1/2-x,1/2-y,z
1/2+x,-y,1/2-z
-x,1/2+y,1/2-z
-x,-y,-z
1/2+x,1/2+y,-z
1/2-x,y,1/2+z
x,1/2-y,1/2+z
loop_
_atom_site_type_symbol
_atom_site_label
_atom_site_fract_x
_atom_site_fract_y
_atom_site_fract_z
Si Si1 0.345877 0.667536 0.021316
Si Si2 0.301230 0.069806 0.227381
Si Si3 0.337868 0.996794 0.023311
Si Si4 0.662458 0.339779 0.198070
Si Si5 0.583146 0.716359 0.793390
Si Si6 0.971995 0.809749 0.497065
O O1 0.250000 0.750000 0.060226
O O2 0.350944 0.684959 0.910644
O O3 0.468493 0.709734 0.053200
O O4 0.290928 0.546939 0.027206
O O5 0.376169 0.173482 0.259308
O O6 0.178680 0.123242 0.210381
O O7 0.357034 0.023968 0.131879
O O8 0.293441 0.963374 0.291356
O O9 0.370615 0.109612 0.969603
O O10 0.423176 0.899707 0.988655
O O11 0.750000 0.250000 0.235584
O O12 0.537825 0.326519 0.239541
O O13 0.571717 0.756721 0.900808
#
# Coordination Sequence:
#
# PCOD9431271 Si02
#       6
#     8   8   8   8   8   8
#     4   8  15  30  51  73 107 140 179 225 284 342
#     4  10  21  36  61  83 116 153 198 249 286 351
#     4   9  16  30  55  81 102 143 195 232 279 340
#     4  10  21  35  58  84 113 157 198 235 296 357
#     4   9  20  39  57  80 116 157 191 237 308 350
#     4   8  15  30  52  77 103 144 185 225 283 345
#
# _framework density 23.321092
#
# number of rings (size 3 to 8) (size 9 to 14) (size 15 to 20)
#    0.000    3.000    0.000    1.000    2.333    2.000 
#    0.000    3.333    3.667    2.000    0.000    0.000 
#    0.000    0.000    0.000    0.000    0.000    0.000 
#
# Total GULP energy -267304.372771 kJ/mol
# GULP energy per Si atom -5568.841099 kJ/mol
# Density = 2.326801 g / cm^3
# Si number density = 23.321092 Si / 1000 Ang^3
#
#
#
# Elastic Constant Matrix: (Units=GPa)
#
#
# Indices 1 2 3 4 5 6 
#
# 1 108.6615 88.9263 13.5550 0.0000 0.0000 0.0000
# 2 88.9263 152.9002 17.1863 0.0000 0.0000 0.0000
# 3 13.5550 17.1863 52.1095 0.0000 0.0000 0.0000
# 4 0.0000 0.0000 0.0000 27.3892 0.0000 0.0000
# 5 0.0000 0.0000 0.0000 0.0000 -15.4268 0.0000
# 6 0.0000 0.0000 0.0000 0.0000 0.0000 56.0501
#
#
#
# Elastic Compliance Matrix: (Units=1/GPa)
#
#
# Indices 1 2 3 4 5 6 
#
# 1 0.017640 -0.010119 -0.001251 0.000000 0.000000 0.000000
# 2 -0.010119 0.012596 -0.001522 0.000000 0.000000 0.000000
# 3 -0.001251 -0.001522 0.020018 0.000000 0.000000 0.000000
# 4 0.000000 0.000000 0.000000 0.036511 0.000000 0.000000
# 5 0.000000 0.000000 0.000000 0.000000 -0.064822 0.000000
# 6 0.000000 0.000000 0.000000 0.000000 0.000000 0.017841
#
#
# Mechanical properties :
#
#
# Convention : Reuss Voigt Hill
#
# Bulk Modulus (GPa) = 40.86709 61.44514 51.15612
# Shear Modulus (GPa) = 67.81994 26.53609 47.17801
#
# Velocity S-wave (km/s) = 5.39853 3.37687 4.50263
# Velocity P-wave (km/s) = 7.51136 6.45051 7.00105
#
# Compressibility (1/GPa) = 0.02446956
#
# Stress axis : x y z
#
# Youngs Moduli (GPa) = 56.68979 79.38848 49.95523
#
# Poissons Ratio (x) = 0.80330 0.06251
# Poissons Ratio (y) = 0.57362 0.07605
# Poissons Ratio (z) = 0.07094 0.12085
#
# Static dielectric constant tensor:
#      x y z
#    x 1.939400 0.000000 0.000000 
#    y 0.000000 1.911980 0.000000 
#    z 0.000000 0.000000 1.921080 
# 
# From -- ./inp_files/18673.got.cif
#   From: 2010.05.17/outbox.cif.g08.bks.cpg/sg56_10_cif.got.tgz:18673.got - 2010.06.03 13:42:01.
