data_PCOD9431504
_publ_section_title
;
Structure prediction by ZEFSAII (Michael W. Deem and Ramdas Pophale) SiO2 
 PCOD9431504
Probable space group: P C C N
;
_chemical_formula_sum "Si O2"
_cell_formula_units_Z 36
_cell_length_a 27.345055
_cell_length_b 6.541400
_cell_length_c 9.837112
_cell_angle_alpha 90.000000
_cell_angle_beta 90.000000
_cell_angle_gamma 90.000000
_cell_volume 1759.612846
_symmetry_space_group_name_H-M "P C C N"
_symmetry_group_IT_number 56
_symmetry_cell_setting 'orthorhombic'
loop_
_space_group_symop_operation_xyz
x,y,z
1/2-x,1/2-y,z
1/2+x,-y,1/2-z
-x,1/2+y,1/2-z
-x,-y,-z
1/2+x,1/2+y,-z
1/2-x,y,1/2+z
x,1/2-y,1/2+z
loop_
_atom_site_type_symbol
_atom_site_label
_atom_site_fract_x
_atom_site_fract_y
_atom_site_fract_z
Si Si1 0.937900 0.008522 0.650590
Si Si2 0.478886 0.806898 0.580422
Si Si3 0.250000 0.250000 0.349923
Si Si4 0.798967 0.131773 0.285094
Si Si5 0.833033 0.453996 0.063119
O O1 0.945579 0.117767 0.795120
O O2 0.952071 0.163710 0.529029
O O3 0.882167 0.947798 0.622123
O O4 0.975843 0.821891 0.641900
O O5 0.500000 0.000000 0.500000
O O6 0.218319 0.409452 0.262773
O O7 0.287998 0.388136 0.432537
O O8 0.750000 0.250000 0.334770
O O9 0.819316 0.263460 0.159713
O O10 0.836728 0.117767 0.408156
#
# Coordination Sequence:
#
# PCOD9431504 Si02
#       5
#     8   8   4   8   8
#     4  11  24  41  66  94 124 170 211 266 325 379
#     4  11  23  43  65  91 131 161 215 268 317 387
#     4  10  22  38  62  92 128 164 206 254 308 376
#     4  10  21  39  61  87 126 160 206 258 304 370
#     4  11  23  40  64  93 123 166 211 257 317 375
#
# _framework density 20.459047000000002
#
# number of rings (size 3 to 8) (size 9 to 14) (size 15 to 20)
#    0.000    1.333    2.222    4.000    0.000    5.333 
#    0.000    0.000    0.000    0.000    0.000    0.000 
#    0.000    0.000    0.000    0.000    0.000    0.000 
#
# Total GULP energy -201261.460508 kJ/mol
# GULP energy per Si atom -5590.596125 kJ/mol
# Density = 2.041248 g / cm^3
# Si number density = 20.459047 Si / 1000 Ang^3
#
#
#
# Elastic Constant Matrix: (Units=GPa)
#
#
# Indices 1 2 3 4 5 6 
#
# 1 52.9703 4.2135 10.6110 0.0000 0.0000 0.0000
# 2 4.2135 80.1072 28.7862 0.0000 0.0000 0.0000
# 3 10.6110 28.7862 84.3418 0.0000 0.0000 0.0000
# 4 0.0000 0.0000 0.0000 13.5225 0.0000 0.0000
# 5 0.0000 0.0000 0.0000 0.0000 14.8289 0.0000
# 6 0.0000 0.0000 0.0000 0.0000 0.0000 17.1971
#
#
#
# Elastic Compliance Matrix: (Units=1/GPa)
#
#
# Indices 1 2 3 4 5 6 
#
# 1 0.019368 -0.000163 -0.002381 0.000000 0.000000 0.000000
# 2 -0.000163 0.014230 -0.004836 0.000000 0.000000 0.000000
# 3 -0.002381 -0.004836 0.013807 0.000000 0.000000 0.000000
# 4 0.000000 0.000000 0.000000 0.073951 0.000000 0.000000
# 5 0.000000 0.000000 0.000000 0.000000 0.067436 0.000000
# 6 0.000000 0.000000 0.000000 0.000000 0.000000 0.058149
#
#
# Mechanical properties :
#
#
# Convention : Reuss Voigt Hill
#
# Bulk Modulus (GPa) = 30.63332 33.84897 32.24114
# Shear Modulus (GPa) = 18.34304 20.69694 19.51999
#
# Velocity S-wave (km/s) = 2.99753 3.18406 3.09220
# Velocity P-wave (km/s) = 5.19478 5.48619 5.34247
#
# Compressibility (1/GPa) = 0.03264420
#
# Stress axis : x y z
#
# Youngs Moduli (GPa) = 51.63034 70.27558 72.42877
#
# Poissons Ratio (x) = 0.01146 0.17246
# Poissons Ratio (y) = 0.00842 0.35028
# Poissons Ratio (z) = 0.12294 0.33986
#
# Static dielectric constant tensor:
#      x y z
#    x 1.734770 0.000000 0.000000 
#    y 0.000000 1.703810 0.000000 
#    z 0.000000 0.000000 1.702780 
# 
# From -- ./inp_files/5551.got.cif
#   From: 2010.05.17/outbox.cif.g08.bks.cpg/sg56_3_cif.got.tgz:5551.got - 2010.06.03 13:42:01.
