data_PCOD9431933
_publ_section_title
;
Structure prediction by ZEFSAII (Michael W. Deem and Ramdas Pophale) SiO2 
 PCOD9431933
Probable space group: P C C N
;
_chemical_formula_sum "Si O2"
_cell_formula_units_Z 44
_cell_length_a 19.847953
_cell_length_b 5.286854
_cell_length_c 21.437402
_cell_angle_alpha 90.000000
_cell_angle_beta 90.000000
_cell_angle_gamma 90.000000
_cell_volume 2249.495828
_symmetry_space_group_name_H-M "P C C N"
_symmetry_group_IT_number 56
_symmetry_cell_setting 'orthorhombic'
loop_
_space_group_symop_operation_xyz
x,y,z
1/2-x,1/2-y,z
1/2+x,-y,1/2-z
-x,1/2+y,1/2-z
-x,-y,-z
1/2+x,1/2+y,-z
1/2-x,y,1/2+z
x,1/2-y,1/2+z
loop_
_atom_site_type_symbol
_atom_site_label
_atom_site_fract_x
_atom_site_fract_y
_atom_site_fract_z
Si Si1 0.750000 0.250000 0.315141
Si Si2 0.458247 0.242977 0.072976
Si Si3 0.818520 0.614669 0.115106
Si Si4 0.250000 0.250000 0.263411
Si Si5 0.533261 0.741920 0.077248
Si Si6 0.250000 0.750000 0.468644
Si Si7 0.310062 0.443652 0.083344
O O1 0.730475 0.499033 0.275279
O O2 0.807972 0.345124 0.362643
O O3 0.501223 0.478637 0.098112
O O4 0.379895 0.296904 0.083504
O O5 0.487539 0.979605 0.097500
O O6 0.466849 0.248323 0.998010
O O7 0.750000 0.750000 0.090745
O O8 0.806978 0.641044 0.189131
O O9 0.889903 0.726772 0.097962
O O10 0.807652 0.353059 0.078498
O O11 0.209656 0.570523 0.517369
O O12 0.250000 0.250000 0.096861
#
# Coordination Sequence:
#
# PCOD9431933 Si02
#       7
#     4   8   8   4   8   4   8
#     4  11  23  44  66  92 119 165 228 270 314 357
#     4  10  23  36  57  91 134 170 198 243 318 393
#     4  10  23  37  64  92 129 163 207 270 309 389
#     4  10  24  42  64  96 116 166 220 272 314 360
#     4  10  22  37  57  90 136 169 196 244 319 396
#     4  11  21  34  62 102 131 153 218 252 346 361
#     4  11  24  39  66  94 131 167 211 275 307 392
#
# _framework density 19.559937000000001
#
# number of rings (size 3 to 8) (size 9 to 14) (size 15 to 20)
#    0.545    1.091    0.909    3.273   15.273    0.000 
#    0.000    0.000    0.000    4.364    0.000    0.000 
#    0.000    0.000    0.000    0.000    0.000    0.000 
#
# Total GULP energy -245141.093676 kJ/mol
# GULP energy per Si atom -5571.388493 kJ/mol
# Density = 1.951542 g / cm^3
# Si number density = 19.559937 Si / 1000 Ang^3
#
#
#
# Elastic Constant Matrix: (Units=GPa)
#
#
# Indices 1 2 3 4 5 6 
#
# 1 148.7699 68.0774 15.1503 0.0000 0.0000 0.0000
# 2 68.0774 133.4272 62.0982 0.0000 0.0000 0.0000
# 3 15.1503 62.0982 79.6038 0.0000 0.0000 0.0000
# 4 0.0000 0.0000 0.0000 27.4109 0.0000 0.0000
# 5 0.0000 0.0000 0.0000 0.0000 1.4790 0.0000
# 6 0.0000 0.0000 0.0000 0.0000 0.0000 36.5193
#
#
#
# Elastic Compliance Matrix: (Units=1/GPa)
#
#
# Indices 1 2 3 4 5 6 
#
# 1 0.009204 -0.006093 0.003001 0.000000 0.000000 0.000000
# 2 -0.006093 0.015800 -0.011166 0.000000 0.000000 0.000000
# 3 0.003001 -0.011166 0.020702 0.000000 0.000000 0.000000
# 4 0.000000 0.000000 0.000000 0.036482 0.000000 0.000000
# 5 0.000000 0.000000 0.000000 0.000000 0.676131 0.000000
# 6 0.000000 0.000000 0.000000 0.000000 0.000000 0.027383
#
#
# Mechanical properties :
#
#
# Convention : Reuss Voigt Hill
#
# Bulk Modulus (GPa) = 58.17108 72.49473 65.33291
# Shear Modulus (GPa) = 6.09795 27.51350 16.80572
#
# Velocity S-wave (km/s) = 1.76758 3.75457 2.93438
# Velocity P-wave (km/s) = 5.82840 7.47924 6.70482
#
# Compressibility (1/GPa) = 0.01719067
#
# Stress axis : x y z
#
# Youngs Moduli (GPa) = 108.64402 63.28968 48.30565
#
# Poissons Ratio (x) = 0.38563 -0.14499
# Poissons Ratio (y) = 0.66198 0.53938
# Poissons Ratio (z) = -0.32609 0.70670
#
# Static dielectric constant tensor:
#      x y z
#    x 1.667180 0.000000 0.000000 
#    y 0.000000 1.877870 0.000000 
#    z 0.000000 0.000000 1.701880 
# 
# From -- ./inp_files/21220.got.cif
#   From: 2010.05.17/outbox.cif.g08.bks.cpg/sg56_11_cif.got.tgz:21220.got - 2010.06.03 13:42:01.
