data_PCOD9431884
_publ_section_title
;
Structure prediction by ZEFSAII (Michael W. Deem and Ramdas Pophale) SiO2 
 PCOD9431884
Probable space group: P C C N
;
_chemical_formula_sum "Si O2"
_cell_formula_units_Z 56
_cell_length_a 20.135267
_cell_length_b 9.482889
_cell_length_c 14.486228
_cell_angle_alpha 90.000000
_cell_angle_beta 90.000000
_cell_angle_gamma 90.000000
_cell_volume 2766.007646
_symmetry_space_group_name_H-M "P C C N"
_symmetry_group_IT_number 56
_symmetry_cell_setting 'orthorhombic'
loop_
_space_group_symop_operation_xyz
x,y,z
1/2-x,1/2-y,z
1/2+x,-y,1/2-z
-x,1/2+y,1/2-z
-x,-y,-z
1/2+x,1/2+y,-z
1/2-x,y,1/2+z
x,1/2-y,1/2+z
loop_
_atom_site_type_symbol
_atom_site_label
_atom_site_fract_x
_atom_site_fract_y
_atom_site_fract_z
Si Si1 0.234142 0.415214 0.689605
Si Si2 0.016916 0.113085 0.105874
Si Si3 0.922344 0.636614 0.577383
Si Si4 0.809534 0.430318 0.650828
Si Si5 0.280081 0.898758 0.023733
Si Si6 0.591301 0.903181 0.209995
Si Si7 0.103839 0.821038 0.405242
O O1 0.250000 0.250000 0.690792
O O2 0.281688 0.507307 0.755674
O O3 0.252361 0.480724 0.590362
O O4 0.160530 0.422756 0.733890
O O5 0.038237 0.133074 0.210960
O O6 0.958169 0.219077 0.076620
O O7 0.075813 0.145320 0.033655
O O8 0.989823 0.952459 0.098067
O O9 0.864224 0.535859 0.611366
O O10 0.912289 0.780134 0.633344
O O11 0.751428 0.427146 0.576185
O O12 0.844291 0.277682 0.651697
O O13 0.250000 0.750000 0.058113
O O14 0.357536 0.874181 0.997666
O O15 0.580571 0.048180 0.155563
#
# Coordination Sequence:
#
# PCOD9431884 Si02
#       7
#     8   8   8   8   8   8   8
#     4  12  25  40  65 100 134 176 220 274 349 404
#     4  10  23  44  65  94 129 182 225 269 339 407
#     4  10  22  43  64  88 135 172 220 277 329 405
#     4  10  21  45  62  94 136 171 219 273 341 405
#     4  10  23  40  65  96 132 174 216 274 333 406
#     4  12  23  40  67 100 126 176 221 284 336 398
#     4  10  23  42  67  96 137 173 222 287 332 405
#
# _framework density 20.245787
#
# number of rings (size 3 to 8) (size 9 to 14) (size 15 to 20)
#    0.000    1.429    2.857    1.714    2.000    4.571 
#    5.143    0.000    0.000    0.000    0.000    0.000 
#    0.000    0.000    0.000    0.000    0.000    0.000 
#
# Total GULP energy -312434.028852 kJ/mol
# GULP energy per Si atom -5579.179087 kJ/mol
# Density = 2.019971 g / cm^3
# Si number density = 20.245787 Si / 1000 Ang^3
#
#
#
# Elastic Constant Matrix: (Units=GPa)
#
#
# Indices 1 2 3 4 5 6 
#
# 1 45.4236 6.9750 16.7441 0.0000 0.0000 0.0000
# 2 6.9750 110.4774 43.5011 0.0000 0.0000 0.0000
# 3 16.7441 43.5011 66.1311 0.0000 0.0000 0.0000
# 4 0.0000 0.0000 0.0000 -2.2589 0.0000 0.0000
# 5 0.0000 0.0000 0.0000 0.0000 25.7592 0.0000
# 6 0.0000 0.0000 0.0000 0.0000 0.0000 10.1359
#
#
#
# Elastic Compliance Matrix: (Units=1/GPa)
#
#
# Indices 1 2 3 4 5 6 
#
# 1 0.024399 0.001204 -0.006970 0.000000 0.000000 0.000000
# 2 0.001204 0.012275 -0.008379 0.000000 0.000000 0.000000
# 3 -0.006970 -0.008379 0.022398 0.000000 0.000000 0.000000
# 4 0.000000 0.000000 0.000000 -0.442691 0.000000 0.000000
# 5 0.000000 0.000000 0.000000 0.000000 0.038821 0.000000
# 6 0.000000 0.000000 0.000000 0.000000 0.000000 0.098659
#
#
# Mechanical properties :
#
#
# Convention : Reuss Voigt Hill
#
# Bulk Modulus (GPa) = 32.48635 39.60804 36.04719
# Shear Modulus (GPa) = -24.08622 17.04804 -3.51909
#
# Velocity S-wave (km/s) = -3.45293 2.90496 -1.31983
# Velocity P-wave (km/s) = 0.42876 5.55498 3.93965
#
# Compressibility (1/GPa) = 0.03078216
#
# Stress axis : x y z
#
# Youngs Moduli (GPa) = 40.98471 81.46621 44.64661
#
# Poissons Ratio (x) = -0.09808 0.31118
# Poissons Ratio (y) = -0.04934 0.37411
# Poissons Ratio (z) = 0.28565 0.68263
#
# Static dielectric constant tensor:
#      x y z
#    x 1.777910 0.000000 0.000000 
#    y 0.000000 1.716360 0.000000 
#    z 0.000000 0.000000 1.738310 
# 
# From -- ./inp_files/13091.got.cif
#   From: 2010.05.17/outbox.cif.g08.bks.cpg/sg56_7_cif.got.tgz:13091.got - 2010.06.03 13:42:01.
