data_PCOD9431178
_publ_section_title
;
Structure prediction by ZEFSAII (Michael W. Deem and Ramdas Pophale) SiO2 
 PCOD9431178
Probable space group: P C C N
;
_chemical_formula_sum "Si O2"
_cell_formula_units_Z 36
_cell_length_a 16.204925
_cell_length_b 8.669289
_cell_length_c 8.512031
_cell_angle_alpha 90.000000
_cell_angle_beta 90.000000
_cell_angle_gamma 90.000000
_cell_volume 1195.814191
_symmetry_space_group_name_H-M "P C C N"
_symmetry_group_IT_number 56
_symmetry_cell_setting 'orthorhombic'
loop_
_space_group_symop_operation_xyz
x,y,z
1/2-x,1/2-y,z
1/2+x,-y,1/2-z
-x,1/2+y,1/2-z
-x,-y,-z
1/2+x,1/2+y,-z
1/2-x,y,1/2+z
x,1/2-y,1/2+z
loop_
_atom_site_type_symbol
_atom_site_label
_atom_site_fract_x
_atom_site_fract_y
_atom_site_fract_z
Si Si1 0.137962 0.404192 0.031566
Si Si2 0.855870 0.096277 0.970739
Si Si3 0.750000 0.750000 0.709785
Si Si4 0.470338 0.664531 0.654671
Si Si5 0.750000 0.250000 0.728805
Si Si6 0.500000 0.000000 0.500000
O O1 0.209784 0.380843 0.902620
O O2 0.051170 0.367219 0.946536
O O3 0.176929 0.315518 0.179907
O O4 0.110751 0.575578 0.089605
O O5 0.944534 0.156970 0.887363
O O6 0.789156 0.119024 0.838373
O O7 0.899007 0.940471 0.015914
O O8 0.820552 0.187441 0.116157
O O9 0.485634 0.611403 0.830853
#
# Coordination Sequence:
#
# PCOD9431178 Si02
#       6
#     8   8   4   8   4   4
#     4  10  22  48  74 111 159 209 266 327 409 470
#     4   9  21  42  69 106 158 192 267 315 395 461
#     4  10  24  46  76 120 160 210 264 348 398 470
#     4   9  21  46  72 104 151 217 263 320 388 498
#     4  10  20  42  68 118 146 206 248 340 374 468
#     4   8  20  48  66 110 142 214 254 328 372 498
#
# _framework density 30.105014000000001
#
# number of rings (size 3 to 8) (size 9 to 14) (size 15 to 20)
#    1.333    1.333    0.000    0.000    0.000    3.556 
#   24.000    0.000    0.000   20.000    0.000    0.000 
#    0.000    0.000    0.000    0.000    0.000    0.000 
#
# Total GULP energy -201366.090714 kJ/mol
# GULP energy per Si atom -5593.502520 kJ/mol
# Density = 3.003649 g / cm^3
# Si number density = 30.105014 Si / 1000 Ang^3
#
#
#
# Elastic Constant Matrix: (Units=GPa)
#
#
# Indices 1 2 3 4 5 6 
#
# 1 254.9603 44.5849 94.3753 0.0000 0.0000 0.0000
# 2 44.5849 106.2974 100.3475 0.0000 0.0000 0.0000
# 3 94.3753 100.3475 245.5097 0.0000 0.0000 0.0000
# 4 0.0000 0.0000 0.0000 46.9213 0.0000 0.0000
# 5 0.0000 0.0000 0.0000 0.0000 76.0679 0.0000
# 6 0.0000 0.0000 0.0000 0.0000 0.0000 85.1485
#
#
#
# Elastic Compliance Matrix: (Units=1/GPa)
#
#
# Indices 1 2 3 4 5 6 
#
# 1 0.004584 -0.000422 -0.001590 0.000000 0.000000 0.000000
# 2 -0.000422 0.015357 -0.006115 0.000000 0.000000 0.000000
# 3 -0.001590 -0.006115 0.007184 0.000000 0.000000 0.000000
# 4 0.000000 0.000000 0.000000 0.021312 0.000000 0.000000
# 5 0.000000 0.000000 0.000000 0.000000 0.013146 0.000000
# 6 0.000000 0.000000 0.000000 0.000000 0.000000 0.011744
#
#
# Mechanical properties :
#
#
# Convention : Reuss Voigt Hill
#
# Bulk Modulus (GPa) = 91.97970 120.59808 106.28889
# Shear Modulus (GPa) = 53.64549 66.12487 59.88518
#
# Velocity S-wave (km/s) = 4.22589 4.69174 4.46489
# Velocity P-wave (km/s) = 7.37768 8.33643 7.87166
#
# Compressibility (1/GPa) = 0.01087196
#
# Stress axis : x y z
#
# Youngs Moduli (GPa) = 218.12853 65.11703 139.20778
#
# Poissons Ratio (x) = 0.02749 0.22131
# Poissons Ratio (y) = 0.09207 0.85120
# Poissons Ratio (z) = 0.34677 0.39817
#
# Static dielectric constant tensor:
#      x y z
#    x 2.433320 0.000000 0.000000 
#    y 0.000000 2.530040 0.000000 
#    z 0.000000 0.000000 2.255260 
# 
# From -- ./inp_files/3195.got.cif
#   From: 2010.05.17/outbox.cif.g08.bks.cpg/sg56_2_cif.got.tgz:3195.got - 2010.06.03 13:42:01.
