data_PCOD9431965
_publ_section_title
;
Structure prediction by ZEFSAII (Michael W. Deem and Ramdas Pophale) SiO2 
 PCOD9431965
Probable space group: P C C N
;
_chemical_formula_sum "Si O2"
_cell_formula_units_Z 40
_cell_length_a 9.178553
_cell_length_b 23.298574
_cell_length_c 8.420524
_cell_angle_alpha 90.000000
_cell_angle_beta 90.000000
_cell_angle_gamma 90.000000
_cell_volume 1800.705449
_symmetry_space_group_name_H-M "P C C N"
_symmetry_group_IT_number 56
_symmetry_cell_setting 'orthorhombic'
loop_
_space_group_symop_operation_xyz
x,y,z
1/2-x,1/2-y,z
1/2+x,-y,1/2-z
-x,1/2+y,1/2-z
-x,-y,-z
1/2+x,1/2+y,-z
1/2-x,y,1/2+z
x,1/2-y,1/2+z
loop_
_atom_site_type_symbol
_atom_site_label
_atom_site_fract_x
_atom_site_fract_y
_atom_site_fract_z
Si Si1 0.370773 0.527540 0.105643
Si Si2 0.376385 0.612902 0.570750
Si Si3 0.941084 0.631811 0.618443
Si Si4 0.677090 0.311184 0.721419
Si Si5 0.847555 0.593203 0.268716
O O1 0.235920 0.561602 0.026370
O O2 0.462237 0.578563 0.187495
O O3 0.307384 0.473441 0.199702
O O4 0.500000 0.500000 0.000000
O O5 0.301176 0.645536 0.718035
O O6 0.385612 0.661674 0.438501
O O7 0.530574 0.591653 0.632411
O O8 0.909915 0.619213 0.433358
O O9 0.789280 0.629570 0.709336
O O10 0.045184 0.685844 0.650879
O O11 0.750000 0.250000 0.700643
#
# Coordination Sequence:
#
# PCOD9431965 Si02
#       5
#     8   8   8   8   8
#     4   9  19  36  58  92 135 177 213 255 313 385
#     4  11  22  38  64  94 125 167 219 266 319 390
#     4  10  22  38  60  91 131 172 215 264 317 386
#     4  11  23  42  64  88 119 163 216 274 325 375
#     4  11  21  38  61  95 136 171 209 261 323 388
#
# _framework density 22.213515000000001
#
# number of rings (size 3 to 8) (size 9 to 14) (size 15 to 20)
#    0.000    1.600    0.000    6.600    0.000    4.800 
#    0.000   12.000    0.000    7.200    0.000    0.000 
#    0.000    0.000    0.000    0.000    0.000    0.000 
#
# Total GULP energy -223354.088823 kJ/mol
# GULP energy per Si atom -5583.852221 kJ/mol
# Density = 2.216296 g / cm^3
# Si number density = 22.213515 Si / 1000 Ang^3
#
#
#
# Elastic Constant Matrix: (Units=GPa)
#
#
# Indices 1 2 3 4 5 6 
#
# 1 123.3754 44.4130 24.7734 0.0000 0.0000 0.0000
# 2 44.4130 102.0886 40.2084 0.0000 0.0000 0.0000
# 3 24.7734 40.2084 76.5231 0.0000 0.0000 0.0000
# 4 0.0000 0.0000 0.0000 22.4895 0.0000 0.0000
# 5 0.0000 0.0000 0.0000 0.0000 38.2654 0.0000
# 6 0.0000 0.0000 0.0000 0.0000 0.0000 22.5964
#
#
#
# Elastic Compliance Matrix: (Units=1/GPa)
#
#
# Indices 1 2 3 4 5 6 
#
# 1 0.009692 -0.003758 -0.001163 0.000000 0.000000 0.000000
# 2 -0.003758 0.013809 -0.006039 0.000000 0.000000 0.000000
# 3 -0.001163 -0.006039 0.016618 0.000000 0.000000 0.000000
# 4 0.000000 0.000000 0.000000 0.044465 0.000000 0.000000
# 5 0.000000 0.000000 0.000000 0.000000 0.026133 0.000000
# 6 0.000000 0.000000 0.000000 0.000000 0.000000 0.044255
#
#
# Mechanical properties :
#
#
# Convention : Reuss Voigt Hill
#
# Bulk Modulus (GPa) = 54.95153 57.86407 56.40780
# Shear Modulus (GPa) = 27.32867 29.50976 28.41922
#
# Velocity S-wave (km/s) = 3.51133 3.64876 3.58070
# Velocity P-wave (km/s) = 6.42112 6.62245 6.52256
#
# Compressibility (1/GPa) = 0.01819785
#
# Stress axis : x y z
#
# Youngs Moduli (GPa) = 103.18029 72.41651 60.17723
#
# Poissons Ratio (x) = 0.27217 0.06997
# Poissons Ratio (y) = 0.38779 0.36342
# Poissons Ratio (z) = 0.11998 0.43733
#
# Static dielectric constant tensor:
#      x y z
#    x 1.808570 0.000000 0.000000 
#    y 0.000000 1.836060 0.000000 
#    z 0.000000 0.000000 1.891220 
# 
# From -- ./inp_files/2058.got.cif
#   From: 2010.05.17/outbox.cif.g08.bks.cpg/sg56_2_cif.got.tgz:2058.got - 2010.06.03 13:42:01.
