data_PCOD9431847
_publ_section_title
;
Structure prediction by ZEFSAII (Michael W. Deem and Ramdas Pophale) SiO2 
 PCOD9431847
Probable space group: P C C N
;
_chemical_formula_sum "Si O2"
_cell_formula_units_Z 32
_cell_length_a 5.558075
_cell_length_b 12.737749
_cell_length_c 19.085545
_cell_angle_alpha 90.000000
_cell_angle_beta 90.000000
_cell_angle_gamma 90.000000
_cell_volume 1351.206282
_symmetry_space_group_name_H-M "P C C N"
_symmetry_group_IT_number 56
_symmetry_cell_setting 'orthorhombic'
loop_
_space_group_symop_operation_xyz
x,y,z
1/2-x,1/2-y,z
1/2+x,-y,1/2-z
-x,1/2+y,1/2-z
-x,-y,-z
1/2+x,1/2+y,-z
1/2-x,y,1/2+z
x,1/2-y,1/2+z
loop_
_atom_site_type_symbol
_atom_site_label
_atom_site_fract_x
_atom_site_fract_y
_atom_site_fract_z
Si Si1 0.750000 0.750000 0.608083
Si Si2 0.918972 0.415364 0.666616
Si Si3 0.250000 0.250000 0.169220
Si Si4 0.568213 0.358979 0.781370
Si Si5 0.743559 0.974530 0.039373
O O1 0.979918 0.720724 0.657878
O O2 0.773781 0.853517 0.562192
O O3 0.814761 0.361896 0.737048
O O4 0.047434 0.523624 0.688213
O O5 0.730396 0.456736 0.610570
O O6 0.066785 0.323151 0.628906
O O7 0.123487 0.334496 0.220171
O O8 0.500000 0.000000 0.000000
O O9 0.000000 0.000000 0.000000
#
# Coordination Sequence:
#
# PCOD9431847 Si02
#       5
#     4   8   4   8   8
#     4   9  24  51  76 108 149 202 243 322 394 443
#     4  11  23  42  73 105 149 187 248 311 380 450
#     4  11  22  39  64 108 143 180 227 310 390 431
#     4  10  21  43  69 107 141 183 240 312 389 443
#     4  11  28  53  77 107 152 208 260 303 363 468
#
# _framework density 23.682544
#
# number of rings (size 3 to 8) (size 9 to 14) (size 15 to 20)
#    0.000    1.500    2.500    0.750    3.500    2.000 
#   18.000    0.000    0.000    0.000    0.000    0.000 
#    0.000    0.000    0.000    0.000    0.000    0.000 
#
# Total GULP energy -178568.472010 kJ/mol
# GULP energy per Si atom -5580.264750 kJ/mol
# Density = 2.362864 g / cm^3
# Si number density = 23.682544 Si / 1000 Ang^3
#
#
#
# Elastic Constant Matrix: (Units=GPa)
#
#
# Indices 1 2 3 4 5 6 
#
# 1 115.6317 78.8585 47.9337 0.0000 0.0000 0.0000
# 2 78.8585 203.8922 77.1859 0.0000 0.0000 0.0000
# 3 47.9337 77.1859 89.0074 0.0000 0.0000 0.0000
# 4 0.0000 0.0000 0.0000 50.6691 0.0000 0.0000
# 5 0.0000 0.0000 0.0000 0.0000 26.9155 0.0000
# 6 0.0000 0.0000 0.0000 0.0000 0.0000 36.3993
#
#
#
# Elastic Compliance Matrix: (Units=1/GPa)
#
#
# Indices 1 2 3 4 5 6 
#
# 1 0.012553 -0.003418 -0.003796 0.000000 0.000000 0.000000
# 2 -0.003418 0.008232 -0.005298 0.000000 0.000000 0.000000
# 3 -0.003796 -0.005298 0.017874 0.000000 0.000000 0.000000
# 4 0.000000 0.000000 0.000000 0.019736 0.000000 0.000000
# 5 0.000000 0.000000 0.000000 0.000000 0.037153 0.000000
# 6 0.000000 0.000000 0.000000 0.000000 0.000000 0.027473
#
#
# Mechanical properties :
#
#
# Convention : Reuss Voigt Hill
#
# Bulk Modulus (GPa) = 73.34411 90.72085 82.03248
# Shear Modulus (GPa) = 32.76752 36.43367 34.60059
#
# Velocity S-wave (km/s) = 3.72373 3.92652 3.82647
# Velocity P-wave (km/s) = 7.03741 7.67769 7.36452
#
# Compressibility (1/GPa) = 0.01363436
#
# Stress axis : x y z
#
# Youngs Moduli (GPa) = 79.66399 121.47499 55.94758
#
# Poissons Ratio (x) = 0.41519 0.21239
# Poissons Ratio (y) = 0.27228 0.29642
# Poissons Ratio (z) = 0.30242 0.64359
#
# Static dielectric constant tensor:
#      x y z
#    x 2.071760 0.000000 0.000000 
#    y 0.000000 1.951270 0.000000 
#    z 0.000000 0.000000 1.987100 
# 
# From -- ./inp_files/17294.got.cif
#   From: 2010.05.17/outbox.cif.g08.bks.cpg/sg56_9_cif.got.tgz:17294.got - 2010.06.03 13:42:01.
