data_PCOD9431331
_publ_section_title
;
Structure prediction by ZEFSAII (Michael W. Deem and Ramdas Pophale) SiO2 
 PCOD9431331
Probable space group: P C C N
;
_chemical_formula_sum "Si O2"
_cell_formula_units_Z 44
_cell_length_a 12.577261
_cell_length_b 19.069876
_cell_length_c 9.120044
_cell_angle_alpha 90.000000
_cell_angle_beta 90.000000
_cell_angle_gamma 90.000000
_cell_volume 2187.413439
_symmetry_space_group_name_H-M "P C C N"
_symmetry_group_IT_number 56
_symmetry_cell_setting 'orthorhombic'
loop_
_space_group_symop_operation_xyz
x,y,z
1/2-x,1/2-y,z
1/2+x,-y,1/2-z
-x,1/2+y,1/2-z
-x,-y,-z
1/2+x,1/2+y,-z
1/2-x,y,1/2+z
x,1/2-y,1/2+z
loop_
_atom_site_type_symbol
_atom_site_label
_atom_site_fract_x
_atom_site_fract_y
_atom_site_fract_z
Si Si1 0.751167 0.927165 0.228390
Si Si2 0.250000 0.750000 0.371240
Si Si3 0.427569 0.311855 0.705949
Si Si4 0.139506 0.664810 0.619472
Si Si5 0.349230 0.200827 0.916632
Si Si6 0.628069 0.492465 0.983010
O O1 0.838557 0.872142 0.287189
O O2 0.684532 0.877612 0.119582
O O3 0.676284 0.958237 0.354501
O O4 0.813340 0.985039 0.133192
O O5 0.164413 0.715929 0.482446
O O6 0.291279 0.690472 0.259141
O O7 0.521799 0.332449 0.813130
O O8 0.384195 0.239215 0.769570
O O9 0.443421 0.300240 0.534337
O O10 0.157438 0.586353 0.563373
O O11 0.250000 0.250000 0.970595
O O12 0.500000 0.500000 0.000000
#
# Coordination Sequence:
#
# PCOD9431331 Si02
#       6
#     8   4   8   8   8   8
#     4  11  23  42  64  96 138 175 221 277 333 408
#     4  10  24  44  68  92 130 176 226 302 326 404
#     4  11  21  37  64  98 129 174 221 275 335 403
#     4  11  23  43  67  94 130 173 232 277 346 402
#     4  10  21  36  63  97 136 164 210 274 340 390
#     4  12  25  44  69  98 139 184 223 279 346 416
#
# _framework density 20.115082999999998
#
# number of rings (size 3 to 8) (size 9 to 14) (size 15 to 20)
#    0.000    1.091    3.636    3.818    2.545    1.455 
#    0.000    5.455    0.000    0.000    0.000    0.000 
#    0.000    0.000    0.000    0.000    0.000    0.000 
#
# Total GULP energy -245493.298626 kJ/mol
# GULP energy per Si atom -5579.393151 kJ/mol
# Density = 2.006930 g / cm^3
# Si number density = 20.115083 Si / 1000 Ang^3
#
#
#
# Elastic Constant Matrix: (Units=GPa)
#
#
# Indices 1 2 3 4 5 6 
#
# 1 81.1977 36.3973 44.5614 0.0000 0.0000 0.0000
# 2 36.3973 86.6721 27.9875 0.0000 0.0000 0.0000
# 3 44.5614 27.9875 114.5474 0.0000 0.0000 0.0000
# 4 0.0000 0.0000 0.0000 20.4596 0.0000 0.0000
# 5 0.0000 0.0000 0.0000 0.0000 4.6159 0.0000
# 6 0.0000 0.0000 0.0000 0.0000 0.0000 27.6902
#
#
#
# Elastic Compliance Matrix: (Units=1/GPa)
#
#
# Indices 1 2 3 4 5 6 
#
# 1 0.017950 -0.005736 -0.005581 0.000000 0.000000 0.000000
# 2 -0.005736 0.014359 -0.001277 0.000000 0.000000 0.000000
# 3 -0.005581 -0.001277 0.011213 0.000000 0.000000 0.000000
# 4 0.000000 0.000000 0.000000 0.048877 0.000000 0.000000
# 5 0.000000 0.000000 0.000000 0.000000 0.216642 0.000000
# 6 0.000000 0.000000 0.000000 0.000000 0.000000 0.036114
#
#
# Mechanical properties :
#
#
# Convention : Reuss Voigt Hill
#
# Bulk Modulus (GPa) = 54.54430 55.58994 55.06712
# Shear Modulus (GPa) = 13.28185 22.11787 17.69986
#
# Velocity S-wave (km/s) = 2.57240 3.31957 2.96958
# Velocity P-wave (km/s) = 5.99983 6.51066 6.26046
#
# Compressibility (1/GPa) = 0.01833372
#
# Stress axis : x y z
#
# Youngs Moduli (GPa) = 55.71124 69.64417 89.17959
#
# Poissons Ratio (x) = 0.39945 0.49775
# Poissons Ratio (y) = 0.31953 0.11389
# Poissons Ratio (z) = 0.31095 0.08894
#
# Static dielectric constant tensor:
#      x y z
#    x 1.753770 0.000000 0.000000 
#    y 0.000000 1.691030 0.000000 
#    z 0.000000 0.000000 1.693360 
# 
# From -- ./inp_files/3317.got.cif
#   From: 2010.05.17/outbox.cif.g08.bks.cpg/sg56_2_cif.got.tgz:3317.got - 2010.06.03 13:42:01.
