data_PCOD9431623
_publ_section_title
;
Structure prediction by ZEFSAII (Michael W. Deem and Ramdas Pophale) SiO2 
 PCOD9431623
Probable space group: P C C N
;
_chemical_formula_sum "Si O2"
_cell_formula_units_Z 40
_cell_length_a 9.366084
_cell_length_b 8.307867
_cell_length_c 25.646118
_cell_angle_alpha 90.000000
_cell_angle_beta 90.000000
_cell_angle_gamma 90.000000
_cell_volume 1995.580355
_symmetry_space_group_name_H-M "P C C N"
_symmetry_group_IT_number 56
_symmetry_cell_setting 'orthorhombic'
loop_
_space_group_symop_operation_xyz
x,y,z
1/2-x,1/2-y,z
1/2+x,-y,1/2-z
-x,1/2+y,1/2-z
-x,-y,-z
1/2+x,1/2+y,-z
1/2-x,y,1/2+z
x,1/2-y,1/2+z
loop_
_atom_site_type_symbol
_atom_site_label
_atom_site_fract_x
_atom_site_fract_y
_atom_site_fract_z
Si Si1 0.796319 0.986520 0.055859
Si Si2 0.676311 0.985315 0.231100
Si Si3 0.956841 0.318123 0.705669
Si Si4 0.456029 0.785640 0.913759
Si Si5 0.250000 0.250000 0.357663
Si Si6 0.250000 0.250000 0.037693
O O1 0.837781 0.863562 0.102504
O O2 0.643521 0.061976 0.073598
O O3 0.898557 0.138461 0.051581
O O4 0.788548 0.892925 0.002079
O O5 0.580534 0.145627 0.230107
O O6 0.836800 0.055946 0.226414
O O7 0.612816 0.882482 0.278840
O O8 0.662649 0.867369 0.180971
O O9 0.936235 0.280711 0.644702
O O10 0.619591 0.808978 0.927247
#
# Coordination Sequence:
#
# PCOD9431623 Si02
#       6
#     8   8   8   8   4   4
#     4  10  21  40  64  86 124 169 208 250 323 386
#     4  11  22  39  63  92 125 166 213 249 317 371
#     4  11  23  40  63  94 126 170 202 265 307 377
#     4  11  21  43  62  93 128 162 213 254 323 373
#     4  11  18  37  64  86 110 173 212 241 300 386
#     4  11  24  35  68  96 120 159 210 275 308 364
#
# _framework density 20.044294000000001
#
# number of rings (size 3 to 8) (size 9 to 14) (size 15 to 20)
#    0.000    1.200    4.000    3.600    0.000    2.400 
#    0.000    0.000    0.000    0.000    0.000    0.000 
#    0.000    0.000    0.000    0.000    0.000    0.000 
#
# Total GULP energy -223065.954520 kJ/mol
# GULP energy per Si atom -5576.648863 kJ/mol
# Density = 1.999867 g / cm^3
# Si number density = 20.044294 Si / 1000 Ang^3
#
#
#
# Elastic Constant Matrix: (Units=GPa)
#
#
# Indices 1 2 3 4 5 6 
#
# 1 71.7505 19.6023 34.0270 0.0000 0.0000 0.0000
# 2 19.6023 83.5531 12.0327 0.0000 0.0000 0.0000
# 3 34.0270 12.0327 31.9958 0.0000 0.0000 0.0000
# 4 0.0000 0.0000 0.0000 5.8789 0.0000 0.0000
# 5 0.0000 0.0000 0.0000 0.0000 13.4006 0.0000
# 6 0.0000 0.0000 0.0000 0.0000 0.0000 26.7432
#
#
#
# Elastic Compliance Matrix: (Units=1/GPa)
#
#
# Indices 1 2 3 4 5 6 
#
# 1 0.028590 -0.002462 -0.029479 0.000000 0.000000 0.000000
# 2 -0.002462 0.012866 -0.002220 0.000000 0.000000 0.000000
# 3 -0.029479 -0.002220 0.063440 0.000000 0.000000 0.000000
# 4 0.000000 0.000000 0.000000 0.170100 0.000000 0.000000
# 5 0.000000 0.000000 0.000000 0.000000 0.074623 0.000000
# 6 0.000000 0.000000 0.000000 0.000000 0.000000 0.037393
#
#
# Mechanical properties :
#
#
# Convention : Reuss Voigt Hill
#
# Bulk Modulus (GPa) = 27.34268 35.40262 31.37265
# Shear Modulus (GPa) = 10.69462 17.31370 14.00416
#
# Velocity S-wave (km/s) = 2.31238 2.94219 2.64609
# Velocity P-wave (km/s) = 4.56072 5.40763 5.00213
#
# Compressibility (1/GPa) = 0.03657286
#
# Stress axis : x y z
#
# Youngs Moduli (GPa) = 34.97722 77.72554 15.76302
#
# Poissons Ratio (x) = 0.19137 0.46468
# Poissons Ratio (y) = 0.08612 0.03499
# Poissons Ratio (z) = 1.03110 0.17255
#
# Static dielectric constant tensor:
#      x y z
#    x 1.734240 0.000000 0.000000 
#    y 0.000000 1.740470 0.000000 
#    z 0.000000 0.000000 1.705980 
# 
# From -- ./inp_files/21979.got.cif
#   From: 2010.05.17/outbox.cif.g08.bks.cpg/sg56_11_cif.got.tgz:21979.got - 2010.06.03 13:42:01.
