data_PCOD9431260
_publ_section_title
;
Structure prediction by ZEFSAII (Michael W. Deem and Ramdas Pophale) SiO2 
 PCOD9431260
Probable space group: P C C N
;
_chemical_formula_sum "Si O2"
_cell_formula_units_Z 40
_cell_length_a 10.187934
_cell_length_b 21.439487
_cell_length_c 9.118030
_cell_angle_alpha 90.000000
_cell_angle_beta 90.000000
_cell_angle_gamma 90.000000
_cell_volume 1991.597301
_symmetry_space_group_name_H-M "P C C N"
_symmetry_group_IT_number 56
_symmetry_cell_setting 'orthorhombic'
loop_
_space_group_symop_operation_xyz
x,y,z
1/2-x,1/2-y,z
1/2+x,-y,1/2-z
-x,1/2+y,1/2-z
-x,-y,-z
1/2+x,1/2+y,-z
1/2-x,y,1/2+z
x,1/2-y,1/2+z
loop_
_atom_site_type_symbol
_atom_site_label
_atom_site_fract_x
_atom_site_fract_y
_atom_site_fract_z
Si Si1 0.879893 0.470742 0.588604
Si Si2 0.052073 0.252370 0.339905
Si Si3 0.490842 0.666248 0.907125
Si Si4 0.870660 0.521777 0.917546
Si Si5 0.809773 0.833134 0.413565
O O1 0.913336 0.397768 0.599402
O O2 0.871977 0.500083 0.749707
O O3 0.750506 0.489630 0.500409
O O4 0.000000 0.500000 0.500000
O O5 0.136844 0.296749 0.230398
O O6 0.136536 0.207744 0.449443
O O7 0.965833 0.295990 0.444328
O O8 0.967605 0.208376 0.234819
O O9 0.651550 0.659800 0.909512
O O10 0.861531 0.596686 0.922860
O O11 0.000000 0.500000 0.000000
#
# Coordination Sequence:
#
# PCOD9431260 Si02
#       5
#     8   8   8   8   8
#     4  12  25  45  67  97 137 182 221 282 339 401
#     4  10  21  34  62 103 127 174 213 285 338 393
#     4  11  20  37  64  92 135 164 225 273 340 396
#     4  12  27  43  69  99 138 184 228 277 339 407
#     4  11  20  36  62  95 137 163 224 276 335 399
#
# _framework density 20.084382000000002
#
# number of rings (size 3 to 8) (size 9 to 14) (size 15 to 20)
#    0.000    0.800    2.000    8.400    2.800    0.000 
#    0.000    0.000    0.000   20.400    0.000    0.000 
#    0.000    0.000    0.000    0.000    0.000    0.000 
#
# Total GULP energy -223716.853268 kJ/mol
# GULP energy per Si atom -5592.921332 kJ/mol
# Density = 2.003867 g / cm^3
# Si number density = 20.084382 Si / 1000 Ang^3
#
#
#
# Elastic Constant Matrix: (Units=GPa)
#
#
# Indices 1 2 3 4 5 6 
#
# 1 97.2698 53.3615 52.8028 0.0000 0.0000 0.0000
# 2 53.3615 214.5689 76.8998 0.0000 0.0000 0.0000
# 3 52.8028 76.8998 174.8552 0.0000 0.0000 0.0000
# 4 0.0000 0.0000 0.0000 30.7553 0.0000 0.0000
# 5 0.0000 0.0000 0.0000 0.0000 23.5569 0.0000
# 6 0.0000 0.0000 0.0000 0.0000 0.0000 37.0014
#
#
#
# Elastic Compliance Matrix: (Units=1/GPa)
#
#
# Indices 1 2 3 4 5 6 
#
# 1 0.013106 -0.002185 -0.002997 0.000000 0.000000 0.000000
# 2 -0.002185 0.005897 -0.001933 0.000000 0.000000 0.000000
# 3 -0.002997 -0.001933 0.007474 0.000000 0.000000 0.000000
# 4 0.000000 0.000000 0.000000 0.032515 0.000000 0.000000
# 5 0.000000 0.000000 0.000000 0.000000 0.042450 0.000000
# 6 0.000000 0.000000 0.000000 0.000000 0.000000 0.027026
#
#
# Mechanical properties :
#
#
# Convention : Reuss Voigt Hill
#
# Bulk Modulus (GPa) = 81.65704 94.75801 88.20752
# Shear Modulus (GPa) = 34.06407 38.50469 36.28438
#
# Velocity S-wave (km/s) = 4.12278 4.38327 4.25502
# Velocity P-wave (km/s) = 7.96293 8.53814 8.25555
#
# Compressibility (1/GPa) = 0.01224634
#
# Stress axis : x y z
#
# Youngs Moduli (GPa) = 76.29881 169.57919 133.79193
#
# Poissons Ratio (x) = 0.37061 0.40094
# Poissons Ratio (y) = 0.16675 0.25868
# Poissons Ratio (z) = 0.22865 0.32788
#
# Static dielectric constant tensor:
#      x y z
#    x 1.690740 0.000000 0.000000 
#    y 0.000000 1.700320 0.000000 
#    z 0.000000 0.000000 1.713490 
# 
# From -- ./inp_files/2057.got.cif
#   From: 2010.05.17/outbox.cif.g08.bks.cpg/sg56_2_cif.got.tgz:2057.got - 2010.06.03 13:42:01.
