data_PCOD9431615
_publ_section_title
;
Structure prediction by ZEFSAII (Michael W. Deem and Ramdas Pophale) SiO2 
 PCOD9431615
Probable space group: P C C N
;
_chemical_formula_sum "Si O2"
_cell_formula_units_Z 52
_cell_length_a 6.587751
_cell_length_b 21.275739
_cell_length_c 18.788558
_cell_angle_alpha 90.000000
_cell_angle_beta 90.000000
_cell_angle_gamma 90.000000
_cell_volume 2633.390590
_symmetry_space_group_name_H-M "P C C N"
_symmetry_group_IT_number 56
_symmetry_cell_setting 'orthorhombic'
loop_
_space_group_symop_operation_xyz
x,y,z
1/2-x,1/2-y,z
1/2+x,-y,1/2-z
-x,1/2+y,1/2-z
-x,-y,-z
1/2+x,1/2+y,-z
1/2-x,y,1/2+z
x,1/2-y,1/2+z
loop_
_atom_site_type_symbol
_atom_site_label
_atom_site_fract_x
_atom_site_fract_y
_atom_site_fract_z
Si Si1 0.046187 0.584814 0.740602
Si Si2 0.704196 0.080647 0.618925
Si Si3 0.804847 0.958588 0.827561
Si Si4 0.935261 0.349583 0.989352
Si Si5 0.119322 0.693270 0.627115
Si Si6 0.250000 0.250000 0.957257
Si Si7 0.461766 0.025949 0.921801
O O1 0.202857 0.598014 0.804802
O O2 0.079100 0.512713 0.715990
O O3 0.086904 0.633997 0.678260
O O4 0.822045 0.585765 0.774787
O O5 0.461433 0.080907 0.624218
O O6 0.827354 0.119177 0.558428
O O7 0.759623 0.007162 0.605511
O O8 0.641307 0.997738 0.873692
O O9 0.753751 0.323120 0.941825
O O10 0.036174 0.400565 0.935571
O O11 0.108426 0.297617 0.002559
O O12 0.250000 0.750000 0.662660
O O13 0.905984 0.715112 0.595239
O O14 0.500000 0.000000 0.000000
#
# Coordination Sequence:
#
# PCOD9431615 Si02
#       7
#     8   8   8   8   8   4   8
#     4  11  22  38  61  92 131 164 207 251 315 391
#     4  10  23  38  60  97 127 163 199 255 330 374
#     4  11  21  35  58  94 130 165 195 254 328 377
#     4  10  21  40  63  89 123 161 212 267 307 376
#     4  10  23  42  63  89 121 169 217 262 308 368
#     4  10  24  40  64  86 114 166 224 264 316 354
#     4   9  20  35  58  92 123 154 197 244 315 385
#
# _framework density 19.746403999999998
#
# number of rings (size 3 to 8) (size 9 to 14) (size 15 to 20)
#    0.000    1.846    3.077    0.000    2.154    8.615 
#    0.000    3.077    0.000    0.000    0.000    0.000 
#    0.000    0.000    0.000    0.000    0.000    0.000 
#
# Total GULP energy -289893.867716 kJ/mol
# GULP energy per Si atom -5574.882071 kJ/mol
# Density = 1.970146 g / cm^3
# Si number density = 19.746404 Si / 1000 Ang^3
#
#
#
# Elastic Constant Matrix: (Units=GPa)
#
#
# Indices 1 2 3 4 5 6 
#
# 1 95.5704 37.6829 27.9122 0.0000 0.0000 0.0000
# 2 37.6829 77.8820 25.9855 0.0000 0.0000 0.0000
# 3 27.9122 25.9855 74.4978 0.0000 0.0000 0.0000
# 4 0.0000 0.0000 0.0000 25.8073 0.0000 0.0000
# 5 0.0000 0.0000 0.0000 0.0000 25.0427 0.0000
# 6 0.0000 0.0000 0.0000 0.0000 0.0000 26.3435
#
#
#
# Elastic Compliance Matrix: (Units=1/GPa)
#
#
# Indices 1 2 3 4 5 6 
#
# 1 0.013557 -0.005505 -0.003159 0.000000 0.000000 0.000000
# 2 -0.005505 0.016767 -0.003786 0.000000 0.000000 0.000000
# 3 -0.003159 -0.003786 0.015927 0.000000 0.000000 0.000000
# 4 0.000000 0.000000 0.000000 0.038749 0.000000 0.000000
# 5 0.000000 0.000000 0.000000 0.000000 0.039932 0.000000
# 6 0.000000 0.000000 0.000000 0.000000 0.000000 0.037960
#
#
# Mechanical properties :
#
#
# Convention : Reuss Voigt Hill
#
# Bulk Modulus (GPa) = 46.83689 47.90127 47.36908
# Shear Modulus (GPa) = 25.65303 25.86334 25.75819
#
# Velocity S-wave (km/s) = 3.60825 3.62301 3.61563
# Velocity P-wave (km/s) = 6.41326 6.46626 6.43981
#
# Compressibility (1/GPa) = 0.02135069
#
# Stress axis : x y z
#
# Youngs Moduli (GPa) = 73.76341 59.64162 62.78527
#
# Poissons Ratio (x) = 0.32835 0.19834
# Poissons Ratio (y) = 0.40610 0.23769
# Poissons Ratio (z) = 0.23302 0.22579
#
# Static dielectric constant tensor:
#      x y z
#    x 3.651410 0.000000 0.000000 
#    y 0.000000 1.755660 0.000000 
#    z 0.000000 0.000000 1.669000 
# 
# From -- ./inp_files/17566.got.cif
#   From: 2010.05.17/outbox.cif.g08.bks.cpg/sg56_9_cif.got.tgz:17566.got - 2010.06.03 13:42:01.
