data_PCOD9431287
_publ_section_title
;
Structure prediction by ZEFSAII (Michael W. Deem and Ramdas Pophale) SiO2 
 PCOD9431287
Probable space group: P C C N
;
_chemical_formula_sum "Si O2"
_cell_formula_units_Z 40
_cell_length_a 8.304111
_cell_length_b 22.186585
_cell_length_c 9.141131
_cell_angle_alpha 90.000000
_cell_angle_beta 90.000000
_cell_angle_gamma 90.000000
_cell_volume 1684.160737
_symmetry_space_group_name_H-M "P C C N"
_symmetry_group_IT_number 56
_symmetry_cell_setting 'orthorhombic'
loop_
_space_group_symop_operation_xyz
x,y,z
1/2-x,1/2-y,z
1/2+x,-y,1/2-z
-x,1/2+y,1/2-z
-x,-y,-z
1/2+x,1/2+y,-z
1/2-x,y,1/2+z
x,1/2-y,1/2+z
loop_
_atom_site_type_symbol
_atom_site_label
_atom_site_fract_x
_atom_site_fract_y
_atom_site_fract_z
Si Si1 0.592485 0.043464 0.391859
Si Si2 0.608781 0.539870 0.393592
Si Si3 0.567472 0.831609 0.989502
Si Si4 0.823651 0.172960 0.002419
Si Si5 0.996822 0.746008 0.242967
O O1 0.492145 0.057973 0.248061
O O2 0.624442 0.104746 0.477421
O O3 0.500000 0.000000 0.500000
O O4 0.748069 0.004392 0.347671
O O5 0.500000 0.500000 0.500000
O O6 0.646487 0.602957 0.473935
O O7 0.370278 0.832620 0.992755
O O8 0.599536 0.790127 0.849980
O O9 0.606218 0.797518 0.138942
O O10 0.895161 0.203813 0.148716
O O11 0.896982 0.212381 0.868244
#
# Coordination Sequence:
#
# PCOD9431287 Si02
#       5
#     8   8   8   8   8
#     4  12  28  47  71 104 141 191 240 292 361 430
#     4  12  26  45  70 102 144 190 236 294 354 423
#     4  11  20  36  65 100 141 181 235 287 348 406
#     4  11  20  38  64 104 141 178 238 292 340 413
#     4  10  21  35  64 105 142 185 234 293 344 411
#
# _framework density 23.750703000000001
#
# number of rings (size 3 to 8) (size 9 to 14) (size 15 to 20)
#    0.000    0.800    4.000    6.000    2.800    0.000 
#    0.000    0.000    0.000    7.200    0.000    0.000 
#    0.000    0.000    0.000    0.000    0.000    0.000 
#
# Total GULP energy -224068.701762 kJ/mol
# GULP energy per Si atom -5601.717544 kJ/mol
# Density = 2.369665 g / cm^3
# Si number density = 23.750703 Si / 1000 Ang^3
#
#
#
# Elastic Constant Matrix: (Units=GPa)
#
#
# Indices 1 2 3 4 5 6 
#
# 1 49.6587 27.9749 16.5597 0.0000 0.0000 0.0000
# 2 27.9749 213.2565 54.0050 0.0000 0.0000 0.0000
# 3 16.5597 54.0050 136.3221 0.0000 0.0000 0.0000
# 4 0.0000 0.0000 0.0000 41.4491 0.0000 0.0000
# 5 0.0000 0.0000 0.0000 0.0000 17.5593 0.0000
# 6 0.0000 0.0000 0.0000 0.0000 0.0000 35.1516
#
#
#
# Elastic Compliance Matrix: (Units=1/GPa)
#
#
# Indices 1 2 3 4 5 6 
#
# 1 0.022096 -0.002466 -0.001707 0.000000 0.000000 0.000000
# 2 -0.002466 0.005487 -0.001874 0.000000 0.000000 0.000000
# 3 -0.001707 -0.001874 0.008285 0.000000 0.000000 0.000000
# 4 0.000000 0.000000 0.000000 0.024126 0.000000 0.000000
# 5 0.000000 0.000000 0.000000 0.000000 0.056950 0.000000
# 6 0.000000 0.000000 0.000000 0.000000 0.000000 0.028448
#
#
# Mechanical properties :
#
#
# Convention : Reuss Voigt Hill
#
# Bulk Modulus (GPa) = 42.06340 66.25739 54.16040
# Shear Modulus (GPa) = 30.22743 38.87851 34.55297
#
# Velocity S-wave (km/s) = 3.57136 4.05030 3.81835
# Velocity P-wave (km/s) = 5.89533 7.05910 6.50330
#
# Compressibility (1/GPa) = 0.02377364
#
# Stress axis : x y z
#
# Youngs Moduli (GPa) = 45.25690 182.23735 120.69360
#
# Poissons Ratio (x) = 0.44944 0.20604
# Poissons Ratio (y) = 0.11161 0.22621
# Poissons Ratio (z) = 0.07726 0.34156
#
# Static dielectric constant tensor:
#      x y z
#    x 1.384040 0.000000 0.000000 
#    y 0.000000 2.013220 0.000000 
#    z 0.000000 0.000000 1.864070 
# 
# From -- ./inp_files/2071.got.cif
#   From: 2010.05.17/outbox.cif.g08.bks.cpg/sg56_2_cif.got.tgz:2071.got - 2010.06.03 13:42:01.
