data_PCOD9431844
_publ_section_title
;
Structure prediction by ZEFSAII (Michael W. Deem and Ramdas Pophale) SiO2 
 PCOD9431844
Probable space group: P C C N
;
_chemical_formula_sum "Si O2"
_cell_formula_units_Z 40
_cell_length_a 6.433735
_cell_length_b 10.435828
_cell_length_c 24.456476
_cell_angle_alpha 90.000000
_cell_angle_beta 90.000000
_cell_angle_gamma 90.000000
_cell_volume 1642.040860
_symmetry_space_group_name_H-M "P C C N"
_symmetry_group_IT_number 56
_symmetry_cell_setting 'orthorhombic'
loop_
_space_group_symop_operation_xyz
x,y,z
1/2-x,1/2-y,z
1/2+x,-y,1/2-z
-x,1/2+y,1/2-z
-x,-y,-z
1/2+x,1/2+y,-z
1/2-x,y,1/2+z
x,1/2-y,1/2+z
loop_
_atom_site_type_symbol
_atom_site_label
_atom_site_fract_x
_atom_site_fract_y
_atom_site_fract_z
Si Si1 0.180886 0.611308 0.295296
Si Si2 0.431775 0.147035 0.811080
Si Si3 0.053018 0.586981 0.074376
Si Si4 0.813068 0.077648 0.028254
Si Si5 0.874022 0.875994 0.883118
O O1 0.250000 0.750000 0.317580
O O2 0.340184 0.497465 0.306521
O O3 0.112770 0.639831 0.233548
O O4 0.978061 0.569788 0.328925
O O5 0.250000 0.250000 0.797462
O O6 0.512795 0.174293 0.872681
O O7 0.211981 0.477029 0.093139
O O8 0.833117 0.523688 0.059511
O O9 0.157271 0.634498 0.017844
O O10 0.943389 0.155973 0.073233
O O11 0.000000 0.000000 0.000000
O O12 0.750000 0.750000 0.868854
#
# Coordination Sequence:
#
# PCOD9431844 Si02
#       5
#     8   8   8   8   8
#     4  12  25  46  73 103 145 188 246 304 364 444
#     4  12  25  44  72 106 146 191 239 300 372 430
#     4  10  21  43  68  98 144 183 235 301 358 426
#     4   9  20  41  69  97 143 185 239 292 360 423
#     4  11  22  39  72 103 136 187 243 295 354 429
#
# _framework density 24.359929999999999
#
# number of rings (size 3 to 8) (size 9 to 14) (size 15 to 20)
#    0.000    1.200    2.000    4.200    0.000    0.000 
#    0.000   11.000    4.400    0.000    0.000    0.000 
#    0.000    0.000    0.000    0.000    0.000    0.000 
#
# Total GULP energy -223686.724973 kJ/mol
# GULP energy per Si atom -5592.168124 kJ/mol
# Density = 2.430449 g / cm^3
# Si number density = 24.359930 Si / 1000 Ang^3
#
#
#
# Elastic Constant Matrix: (Units=GPa)
#
#
# Indices 1 2 3 4 5 6 
#
# 1 117.9615 14.1760 32.4523 0.0000 0.0000 0.0000
# 2 14.1760 70.7944 -15.7330 0.0000 0.0000 0.0000
# 3 32.4523 -15.7330 135.8489 0.0000 0.0000 0.0000
# 4 0.0000 0.0000 0.0000 23.0448 0.0000 0.0000
# 5 0.0000 0.0000 0.0000 0.0000 52.8825 0.0000
# 6 0.0000 0.0000 0.0000 0.0000 0.0000 46.0018
#
#
#
# Elastic Compliance Matrix: (Units=1/GPa)
#
#
# Indices 1 2 3 4 5 6 
#
# 1 0.009475 -0.002464 -0.002549 0.000000 0.000000 0.000000
# 2 -0.002464 0.015139 0.002342 0.000000 0.000000 0.000000
# 3 -0.002549 0.002342 0.008241 0.000000 0.000000 0.000000
# 4 0.000000 0.000000 0.000000 0.043394 0.000000 0.000000
# 5 0.000000 0.000000 0.000000 0.000000 0.018910 0.000000
# 6 0.000000 0.000000 0.000000 0.000000 0.000000 0.021738
#
#
# Mechanical properties :
#
#
# Convention : Reuss Voigt Hill
#
# Bulk Modulus (GPa) = 36.34512 42.93284 39.63898
# Shear Modulus (GPa) = 38.04914 43.96645 41.00779
#
# Velocity S-wave (km/s) = 3.95645 4.25298 4.10739
# Velocity P-wave (km/s) = 5.98529 6.46373 6.22911
#
# Compressibility (1/GPa) = 0.02751401
#
# Stress axis : x y z
#
# Youngs Moduli (GPa) = 105.54572 66.05390 121.34200
#
# Poissons Ratio (x) = 0.16273 0.30926
# Poissons Ratio (y) = 0.26002 -0.28416
# Poissons Ratio (z) = 0.26900 -0.15469
#
# Static dielectric constant tensor:
#      x y z
#    x 1.911990 0.000000 0.000000 
#    y 0.000000 1.935090 0.000000 
#    z 0.000000 0.000000 1.985900 
# 
# From -- ./inp_files/21526.got.cif
#   From: 2010.05.17/outbox.cif.g08.bks.cpg/sg56_11_cif.got.tgz:21526.got - 2010.06.03 13:42:01.
