data_PCOD9431045
_publ_section_title
;
Structure prediction by ZEFSAII (Michael W. Deem and Ramdas Pophale) SiO2 
 PCOD9431045
Probable space group: P C C N
;
_chemical_formula_sum "Si O2"
_cell_formula_units_Z 52
_cell_length_a 21.497172
_cell_length_b 13.396107
_cell_length_c 8.292312
_cell_angle_alpha 90.000000
_cell_angle_beta 90.000000
_cell_angle_gamma 90.000000
_cell_volume 2388.006877
_symmetry_space_group_name_H-M "P C C N"
_symmetry_group_IT_number 56
_symmetry_cell_setting 'orthorhombic'
loop_
_space_group_symop_operation_xyz
x,y,z
1/2-x,1/2-y,z
1/2+x,-y,1/2-z
-x,1/2+y,1/2-z
-x,-y,-z
1/2+x,1/2+y,-z
1/2-x,y,1/2+z
x,1/2-y,1/2+z
loop_
_atom_site_type_symbol
_atom_site_label
_atom_site_fract_x
_atom_site_fract_y
_atom_site_fract_z
Si Si1 0.452014 0.921374 0.909341
Si Si2 0.265681 0.137129 0.974897
Si Si3 0.250000 0.750000 0.350270
Si Si4 0.390374 0.109739 0.807211
Si Si5 0.169276 0.859934 0.601282
Si Si6 0.565233 0.694734 0.346429
Si Si7 0.167899 0.069315 0.781608
O O1 0.399244 0.869419 0.020863
O O2 0.417789 0.998999 0.790031
O O3 0.493068 0.833572 0.832837
O O4 0.500000 0.000000 0.000000
O O5 0.250000 0.250000 0.937995
O O6 0.317896 0.100115 0.849560
O O7 0.203246 0.074222 0.949465
O O8 0.293576 0.134931 0.152452
O O9 0.220842 0.837570 0.462587
O O10 0.308182 0.781874 0.237728
O O11 0.415309 0.159020 0.975222
O O12 0.412348 0.192562 0.680808
O O13 0.171567 0.963541 0.696944
O O14 0.601276 0.621169 0.223128
#
# Coordination Sequence:
#
# PCOD9431045 Si02
#       7
#     8   8   4   8   8   8   8
#     4  10  20  40  63  82 118 163 199 239 299 356
#     4  11  20  31  54  88 118 148 184 228 297 342
#     4  10  26  40  64  92 116 154 202 258 306 358
#     4  10  21  37  57  86 116 154 197 242 290 352
#     4  11  21  43  62  88 118 153 204 248 305 357
#     4  10  21  38  59  84 116 157 197 239 291 352
#     4  11  21  34  59  82 118 152 184 241 289 354
#
# _framework density 21.775483999999999
#
# number of rings (size 3 to 8) (size 9 to 14) (size 15 to 20)
#    0.000    1.538    6.154    1.385    2.154    2.462 
#    0.000    0.769    0.000    0.000    0.000    0.000 
#    0.000    0.000    0.000    0.000    0.000    0.000 
#
# Total GULP energy -289737.261108 kJ/mol
# GULP energy per Si atom -5571.870406 kJ/mol
# Density = 2.172592 g / cm^3
# Si number density = 21.775484 Si / 1000 Ang^3
#
#
#
# Elastic Constant Matrix: (Units=GPa)
#
#
# Indices 1 2 3 4 5 6 
#
# 1 64.0776 1.4894 -10.1095 0.0000 0.0000 0.0000
# 2 1.4894 45.4576 -2.5352 0.0000 0.0000 0.0000
# 3 -10.1095 -2.5352 26.3418 0.0000 0.0000 0.0000
# 4 0.0000 0.0000 0.0000 -7.5121 0.0000 0.0000
# 5 0.0000 0.0000 0.0000 0.0000 23.1656 0.0000
# 6 0.0000 0.0000 0.0000 0.0000 0.0000 30.1879
#
#
#
# Elastic Compliance Matrix: (Units=1/GPa)
#
#
# Indices 1 2 3 4 5 6 
#
# 1 0.016614 -0.000190 0.006358 0.000000 0.000000 0.000000
# 2 -0.000190 0.022119 0.002056 0.000000 0.000000 0.000000
# 3 0.006358 0.002056 0.040600 0.000000 0.000000 0.000000
# 4 0.000000 0.000000 0.000000 -0.133118 0.000000 0.000000
# 5 0.000000 0.000000 0.000000 0.000000 0.043167 0.000000
# 6 0.000000 0.000000 0.000000 0.000000 0.000000 0.033126
#
#
# Mechanical properties :
#
#
# Convention : Reuss Voigt Hill
#
# Bulk Modulus (GPa) = 10.44048 12.61850 11.52949
# Shear Modulus (GPa) = 131.62159 18.97043 75.29601
#
# Velocity S-wave (km/s) = 7.78306 2.95478 5.88671
# Velocity P-wave (km/s) = 9.25057 4.17713 7.17710
#
# Compressibility (1/GPa) = 0.09578101
#
# Stress axis : x y z
#
# Youngs Moduli (GPa) = 60.19182 45.20916 24.63037
#
# Poissons Ratio (x) = 0.00858 -0.15659
# Poissons Ratio (y) = 0.01142 -0.05064
# Poissons Ratio (z) = -0.38268 -0.09295
#
# Static dielectric constant tensor:
#      x y z
#    x 1.907370 0.000000 0.000000 
#    y 0.000000 1.801530 0.000000 
#    z 0.000000 0.000000 1.853400 
# 
# From -- ./inp_files/4437.got.cif
#   From: 2010.05.17/outbox.cif.g08.bks.cpg/sg56_3_cif.got.tgz:4437.got - 2010.06.03 13:42:01.
