data_PCOD9431184
_publ_section_title
;
Structure prediction by ZEFSAII (Michael W. Deem and Ramdas Pophale) SiO2 
 PCOD9431184
Probable space group: P C C N
;
_chemical_formula_sum "Si O2"
_cell_formula_units_Z 64
_cell_length_a 9.014720
_cell_length_b 14.081916
_cell_length_c 23.694148
_cell_angle_alpha 90.000000
_cell_angle_beta 90.000000
_cell_angle_gamma 90.000000
_cell_volume 3007.842477
_symmetry_space_group_name_H-M "P C C N"
_symmetry_group_IT_number 56
_symmetry_cell_setting 'orthorhombic'
loop_
_space_group_symop_operation_xyz
x,y,z
1/2-x,1/2-y,z
1/2+x,-y,1/2-z
-x,1/2+y,1/2-z
-x,-y,-z
1/2+x,1/2+y,-z
1/2-x,y,1/2+z
x,1/2-y,1/2+z
loop_
_atom_site_type_symbol
_atom_site_label
_atom_site_fract_x
_atom_site_fract_y
_atom_site_fract_z
Si Si1 0.613517 0.813204 0.781552
Si Si2 0.513106 0.935877 0.055390
Si Si3 0.757934 0.540174 0.874621
Si Si4 0.234674 0.973544 0.886082
Si Si5 0.074189 0.723410 0.564756
Si Si6 0.587894 0.208142 0.127453
Si Si7 0.997193 0.405526 0.329356
Si Si8 0.519990 0.856624 0.450377
O O1 0.750000 0.750000 0.760136
O O2 0.676999 0.884597 0.829640
O O3 0.496067 0.752872 0.817939
O O4 0.522664 0.862415 0.732025
O O5 0.494721 0.824389 0.049695
O O6 0.384369 0.975065 0.097209
O O7 0.678292 0.950667 0.077588
O O8 0.500000 0.000000 0.000000
O O9 0.643223 0.473274 0.840830
O O10 0.667222 0.594823 0.924681
O O11 0.367135 0.901957 0.868220
O O12 0.114498 0.916604 0.922764
O O13 0.141606 0.028808 0.839634
O O14 0.250000 0.750000 0.564049
O O15 0.018730 0.650710 0.516209
O O16 0.023428 0.677808 0.624005
O O17 0.750000 0.250000 0.122484
O O18 0.495537 0.249423 0.075075
#
# Coordination Sequence:
#
# PCOD9431184 Si02
#       8
#     8   8   8   8   8   8   8   8
#     4  12  26  46  73 101 141 182 248 299 340 418
#     4  12  25  41  71 106 142 179 230 289 358 428
#     4  11  25  48  72 105 138 188 243 296 356 426
#     4  10  23  42  67  99 140 176 227 281 351 424
#     4  12  25  46  71 103 146 185 229 291 361 438
#     4  10  20  42  69 103 130 179 230 291 347 409
#     4  11  29  47  67 102 142 195 230 292 367 423
#     4  10  22  44  74 101 141 177 231 287 360 426
#
# _framework density 21.277709999999999
#
# number of rings (size 3 to 8) (size 9 to 14) (size 15 to 20)
#    0.000    1.000    3.750    2.625    5.250    1.500 
#    0.000    0.000    0.000    0.000    0.000    0.000 
#    0.000    0.000    0.000    0.000    0.000    0.000 
#
# Total GULP energy -357200.800410 kJ/mol
# GULP energy per Si atom -5581.262506 kJ/mol
# Density = 2.122928 g / cm^3
# Si number density = 21.277710 Si / 1000 Ang^3
#
#
#
# Elastic Constant Matrix: (Units=GPa)
#
#
# Indices 1 2 3 4 5 6 
#
# 1 20.2543 -1.2786 22.8030 0.0000 0.0000 0.0000
# 2 -1.2786 58.8847 4.7617 0.0000 0.0000 0.0000
# 3 22.8030 4.7617 71.9389 0.0000 0.0000 0.0000
# 4 0.0000 0.0000 0.0000 23.5443 0.0000 0.0000
# 5 0.0000 0.0000 0.0000 0.0000 6.6056 0.0000
# 6 0.0000 0.0000 0.0000 0.0000 0.0000 6.2796
#
#
#
# Elastic Compliance Matrix: (Units=1/GPa)
#
#
# Indices 1 2 3 4 5 6 
#
# 1 0.077558 0.003692 -0.024828 0.000000 0.000000 0.000000
# 2 0.003692 0.017249 -0.002312 0.000000 0.000000 0.000000
# 3 -0.024828 -0.002312 0.021924 0.000000 0.000000 0.000000
# 4 0.000000 0.000000 0.000000 0.042473 0.000000 0.000000
# 5 0.000000 0.000000 0.000000 0.000000 0.151386 0.000000
# 6 0.000000 0.000000 0.000000 0.000000 0.000000 0.159247
#
#
# Mechanical properties :
#
#
# Convention : Reuss Voigt Hill
#
# Bulk Modulus (GPa) = 14.31970 22.62779 18.47375
# Shear Modulus (GPa) = 9.25905 15.60535 12.43220
#
# Velocity S-wave (km/s) = 2.08829 2.71110 2.41982
# Velocity P-wave (km/s) = 3.54389 4.52301 4.06305
#
# Compressibility (1/GPa) = 0.06983386
#
# Stress axis : x y z
#
# Youngs Moduli (GPa) = 12.89359 57.97284 45.61260
#
# Poissons Ratio (x) = -0.21402 1.13249
# Poissons Ratio (y) = -0.04760 0.10545
# Poissons Ratio (z) = 0.32013 0.13403
#
# Static dielectric constant tensor:
#      x y z
#    x 1.759300 0.000000 0.000000 
#    y 0.000000 1.854590 0.000000 
#    z 0.000000 0.000000 1.727620 
# 
# From -- ./inp_files/20666.got.cif
#   From: 2010.05.17/outbox.cif.g08.bks.cpg/sg56_11_cif.got.tgz:20666.got - 2010.06.03 13:42:01.
