data_PCOD9431311
_publ_section_title
;
Structure prediction by ZEFSAII (Michael W. Deem and Ramdas Pophale) SiO2 
 PCOD9431311
Probable space group: P C C N
;
_chemical_formula_sum "Si O2"
_cell_formula_units_Z 52
_cell_length_a 22.676153
_cell_length_b 5.485750
_cell_length_c 19.853429
_cell_angle_alpha 90.000000
_cell_angle_beta 90.000000
_cell_angle_gamma 90.000000
_cell_volume 2469.681323
_symmetry_space_group_name_H-M "P C C N"
_symmetry_group_IT_number 56
_symmetry_cell_setting 'orthorhombic'
loop_
_space_group_symop_operation_xyz
x,y,z
1/2-x,1/2-y,z
1/2+x,-y,1/2-z
-x,1/2+y,1/2-z
-x,-y,-z
1/2+x,1/2+y,-z
1/2-x,y,1/2+z
x,1/2-y,1/2+z
loop_
_atom_site_type_symbol
_atom_site_label
_atom_site_fract_x
_atom_site_fract_y
_atom_site_fract_z
Si Si1 0.750000 0.750000 0.049015
Si Si2 0.350114 0.944707 0.983265
Si Si3 0.307758 0.865759 0.360782
Si Si4 0.440718 0.308143 0.193359
Si Si5 0.075601 0.690826 0.273136
Si Si6 0.576395 0.078309 0.433194
Si Si7 0.035635 0.300423 0.956747
O O1 0.798946 0.633688 0.999294
O O2 0.708279 0.618368 0.104419
O O3 0.316729 0.789323 0.928090
O O4 0.404391 0.062460 0.941431
O O5 0.376717 0.779674 0.043192
O O6 0.250000 0.750000 0.325003
O O7 0.367361 0.854467 0.318914
O O8 0.422298 0.539698 0.239812
O O9 0.512327 0.312461 0.189034
O O10 0.410800 0.374235 0.122088
O O11 0.425459 0.041420 0.222210
O O12 0.515809 0.209890 0.407613
O O13 0.558379 0.931078 0.500469
O O14 0.000000 0.500000 0.000000
#
# Coordination Sequence:
#
# PCOD9431311 Si02
#       7
#     4   8   8   8   8   8   8
#     4  10  22  38  62  94 118 166 206 282 326 372
#     4  10  21  36  59  94 125 160 208 267 324 391
#     4  10  23  40  66  94 122 164 217 272 324 375
#     4  10  24  40  64  93 133 173 212 263 334 381
#     4  10  24  42  62  95 129 173 216 274 315 388
#     4  10  21  36  57  95 127 167 203 253 327 401
#     4   9  20  32  55  91 125 163 192 249 313 395
#
# _framework density 21.055350000000001
#
# number of rings (size 3 to 8) (size 9 to 14) (size 15 to 20)
#    0.000    2.154    0.000    0.923   17.231    1.231 
#    0.000    0.000    0.000    5.538    0.000    0.000 
#    0.000    0.000    0.000    0.000    0.000    0.000 
#
# Total GULP energy -289494.844240 kJ/mol
# GULP energy per Si atom -5567.208543 kJ/mol
# Density = 2.100743 g / cm^3
# Si number density = 21.055350 Si / 1000 Ang^3
#
#
#
# Elastic Constant Matrix: (Units=GPa)
#
#
# Indices 1 2 3 4 5 6 
#
# 1 120.7133 20.3932 21.4792 0.0000 0.0000 0.0000
# 2 20.3932 57.7263 -4.0205 0.0000 0.0000 0.0000
# 3 21.4792 -4.0205 26.9827 0.0000 0.0000 0.0000
# 4 0.0000 0.0000 0.0000 3.3110 0.0000 0.0000
# 5 0.0000 0.0000 0.0000 0.0000 28.4651 0.0000
# 6 0.0000 0.0000 0.0000 0.0000 0.0000 41.6869
#
#
#
# Elastic Compliance Matrix: (Units=1/GPa)
#
#
# Indices 1 2 3 4 5 6 
#
# 1 0.010653 -0.004400 -0.009136 0.000000 0.000000 0.000000
# 2 -0.004400 0.019322 0.006381 0.000000 0.000000 0.000000
# 3 -0.009136 0.006381 0.045284 0.000000 0.000000 0.000000
# 4 0.000000 0.000000 0.000000 0.302024 0.000000 0.000000
# 5 0.000000 0.000000 0.000000 0.000000 0.035131 0.000000
# 6 0.000000 0.000000 0.000000 0.000000 0.000000 0.023988
#
#
# Mechanical properties :
#
#
# Convention : Reuss Voigt Hill
#
# Bulk Modulus (GPa) = 16.40673 31.23623 23.82148
# Shear Modulus (GPa) = 10.61511 25.86396 18.23954
#
# Velocity S-wave (km/s) = 2.24777 3.50863 2.94643
# Velocity P-wave (km/s) = 3.81389 5.59298 4.78681
#
# Compressibility (1/GPa) = 0.06095059
#
# Stress axis : x y z
#
# Youngs Moduli (GPa) = 93.87100 51.75491 22.08289
#
# Poissons Ratio (x) = 0.22770 0.20174
# Poissons Ratio (y) = 0.41300 -0.14092
# Poissons Ratio (z) = 0.85757 -0.33026
#
# Static dielectric constant tensor:
#      x y z
#    x 1.985980 0.000000 0.000000 
#    y 0.000000 2.540840 0.000000 
#    z 0.000000 0.000000 1.761930 
# 
# From -- ./inp_files/19469.got.cif
#   From: 2010.05.17/outbox.cif.g08.bks.cpg/sg56_10_cif.got.tgz:19469.got - 2010.06.03 13:42:01.
