data_PCOD9431000
_publ_section_title
;
Structure prediction by ZEFSAII (Michael W. Deem and Ramdas Pophale) SiO2 
 PCOD9431000
Probable space group: P C C N
;
_chemical_formula_sum "Si O2"
_cell_formula_units_Z 60
_cell_length_a 8.659186
_cell_length_b 25.371964
_cell_length_c 12.425862
_cell_angle_alpha 90.000000
_cell_angle_beta 90.000000
_cell_angle_gamma 90.000000
_cell_volume 2729.968783
_symmetry_space_group_name_H-M "P C C N"
_symmetry_group_IT_number 56
_symmetry_cell_setting 'orthorhombic'
loop_
_space_group_symop_operation_xyz
x,y,z
1/2-x,1/2-y,z
1/2+x,-y,1/2-z
-x,1/2+y,1/2-z
-x,-y,-z
1/2+x,1/2+y,-z
1/2-x,y,1/2+z
x,1/2-y,1/2+z
loop_
_atom_site_type_symbol
_atom_site_label
_atom_site_fract_x
_atom_site_fract_y
_atom_site_fract_z
Si Si1 0.695158 0.042191 0.176251
Si Si2 0.261238 0.617322 0.519267
Si Si3 0.250000 0.250000 0.080179
Si Si4 0.977225 0.897019 0.152951
Si Si5 0.947775 0.830214 0.541292
Si Si6 0.220910 0.077864 0.044663
Si Si7 0.181704 0.151764 0.230005
Si Si8 0.095712 0.519368 0.140583
O O1 0.578279 0.070716 0.260838
O O2 0.582217 0.996674 0.131219
O O3 0.840995 0.019575 0.238457
O O4 0.753516 0.084198 0.089808
O O5 0.105708 0.632566 0.580608
O O6 0.377029 0.665083 0.504211
O O7 0.358388 0.575502 0.592286
O O8 0.190103 0.203534 0.156868
O O9 0.374580 0.223214 0.002450
O O10 0.848533 0.863491 0.216719
O O11 0.887457 0.928982 0.059051
O O12 0.849167 0.878221 0.487784
O O13 0.927509 0.837426 0.668828
O O14 0.139666 0.103790 0.149772
O O15 0.302132 0.024999 0.082501
#
# Coordination Sequence:
#
# PCOD9431000 Si02
#       8
#     8   8   4   8   8   8   8   8
#     4  11  23  37  53  85 129 181 227 277 316 381
#     4  11  24  38  57  90 135 177 216 274 339 395
#     4  10  20  40  68  94 114 152 212 282 340 406
#     4  10  23  39  61  92 127 172 224 276 336 391
#     4  10  21  38  64  91 120 162 214 271 339 404
#     4  10  21  37  61  87 125 173 231 276 313 380
#     4  10  20  39  66  90 118 157 214 277 331 402
#     4  11  24  34  58  85 131 182 233 270 325 381
#
# _framework density 21.978275
#
# number of rings (size 3 to 8) (size 9 to 14) (size 15 to 20)
#    0.000    1.600    2.667    1.600    5.600    2.133 
#    0.000    0.000    0.000   17.600    0.000    0.000 
#    0.000    0.000    0.000    0.000    0.000    0.000 
#
# Total GULP energy -335472.568586 kJ/mol
# GULP energy per Si atom -5591.209476 kJ/mol
# Density = 2.192825 g / cm^3
# Si number density = 21.978275 Si / 1000 Ang^3
#
#
#
# Elastic Constant Matrix: (Units=GPa)
#
#
# Indices 1 2 3 4 5 6 
#
# 1 56.3955 21.2828 24.0202 0.0000 0.0000 0.0000
# 2 21.2828 67.0022 27.4746 0.0000 0.0000 0.0000
# 3 24.0202 27.4746 129.8345 0.0000 0.0000 0.0000
# 4 0.0000 0.0000 0.0000 28.0864 0.0000 0.0000
# 5 0.0000 0.0000 0.0000 0.0000 35.3989 0.0000
# 6 0.0000 0.0000 0.0000 0.0000 0.0000 -13.4327
#
#
#
# Elastic Compliance Matrix: (Units=1/GPa)
#
#
# Indices 1 2 3 4 5 6 
#
# 1 0.020981 -0.005555 -0.002706 0.000000 0.000000 0.000000
# 2 -0.005555 0.017814 -0.002742 0.000000 0.000000 0.000000
# 3 -0.002706 -0.002742 0.008783 0.000000 0.000000 0.000000
# 4 0.000000 0.000000 0.000000 0.035604 0.000000 0.000000
# 5 0.000000 0.000000 0.000000 0.000000 0.028249 0.000000
# 6 0.000000 0.000000 0.000000 0.000000 0.000000 -0.074445
#
#
# Mechanical properties :
#
#
# Convention : Reuss Voigt Hill
#
# Bulk Modulus (GPa) = 39.10554 44.30971 41.70763
# Shear Modulus (GPa) = 74.05692 22.04082 48.04887
#
# Velocity S-wave (km/s) = 5.81108 3.17021 4.68075
# Velocity P-wave (km/s) = 7.92820 5.79696 6.94482
#
# Compressibility (1/GPa) = 0.02557182
#
# Stress axis : x y z
#
# Youngs Moduli (GPa) = 47.66264 56.13667 113.85641
#
# Poissons Ratio (x) = 0.31183 0.30811
# Poissons Ratio (y) = 0.26475 0.31219
# Poissons Ratio (z) = 0.12898 0.15392
#
# Static dielectric constant tensor:
#      x y z
#    x 1.817740 0.000000 0.000000 
#    y 0.000000 1.812000 0.000000 
#    z 0.000000 0.000000 1.868410 
# 
# From -- ./inp_files/6555.got.cif
#   From: 2010.05.17/outbox.cif.g08.bks.cpg/sg56_4_cif.got.tgz:6555.got - 2010.06.03 13:42:01.
