data_PCOD9431051
_publ_section_title
;
Structure prediction by ZEFSAII (Michael W. Deem and Ramdas Pophale) SiO2 
 PCOD9431051
Probable space group: P C C N
;
_chemical_formula_sum "Si O2"
_cell_formula_units_Z 44
_cell_length_a 21.324548
_cell_length_b 10.197229
_cell_length_c 9.335130
_cell_angle_alpha 90.000000
_cell_angle_beta 90.000000
_cell_angle_gamma 90.000000
_cell_volume 2029.936147
_symmetry_space_group_name_H-M "P C C N"
_symmetry_group_IT_number 56
_symmetry_cell_setting 'orthorhombic'
loop_
_space_group_symop_operation_xyz
x,y,z
1/2-x,1/2-y,z
1/2+x,-y,1/2-z
-x,1/2+y,1/2-z
-x,-y,-z
1/2+x,1/2+y,-z
1/2-x,y,1/2+z
x,1/2-y,1/2+z
loop_
_atom_site_type_symbol
_atom_site_label
_atom_site_fract_x
_atom_site_fract_y
_atom_site_fract_z
Si Si1 0.250000 0.250000 0.171084
Si Si2 0.622143 0.968758 0.036682
Si Si3 0.268819 0.434112 0.916499
Si Si4 0.120923 0.958514 0.799511
Si Si5 0.951722 0.793624 0.120944
Si Si6 0.540114 0.217373 0.122119
O O1 0.212525 0.337320 0.284794
O O2 0.281418 0.353715 0.062683
O O3 0.624128 0.996970 0.866260
O O4 0.577195 0.081602 0.101179
O O5 0.694966 0.965880 0.086410
O O6 0.592080 0.829715 0.081615
O O7 0.312582 0.555452 0.880710
O O8 0.084089 0.069147 0.891167
O O9 0.085038 0.822905 0.806692
O O10 0.978159 0.794013 0.281487
O O11 0.013488 0.776555 0.024760
#
# Coordination Sequence:
#
# PCOD9431051 Si02
#       6
#     4   8   8   8   8   8
#     4  10  20  40  64 102 142 166 236 280 336 410
#     4  12  26  48  71 105 151 180 233 302 348 422
#     4  11  24  41  71 105 139 186 228 290 356 416
#     4  12  26  47  72 106 145 185 236 294 352 425
#     4  12  24  46  77 103 137 188 242 295 346 409
#     4  12  26  47  73 103 145 191 234 283 359 420
#
# _framework density 21.675559
#
# number of rings (size 3 to 8) (size 9 to 14) (size 15 to 20)
#    0.000    0.364    5.455    4.364    0.000    3.636 
#    0.000    1.818    0.000    0.000    0.000    0.000 
#    0.000    0.000    0.000    0.000    0.000    0.000 
#
# Total GULP energy -245720.652035 kJ/mol
# GULP energy per Si atom -5584.560274 kJ/mol
# Density = 2.162622 g / cm^3
# Si number density = 21.675559 Si / 1000 Ang^3
#
#
#
# Elastic Constant Matrix: (Units=GPa)
#
#
# Indices 1 2 3 4 5 6 
#
# 1 106.3672 30.1682 20.9047 0.0000 0.0000 0.0000
# 2 30.1682 57.4675 18.6934 0.0000 0.0000 0.0000
# 3 20.9047 18.6934 98.0115 0.0000 0.0000 0.0000
# 4 0.0000 0.0000 0.0000 27.6701 0.0000 0.0000
# 5 0.0000 0.0000 0.0000 0.0000 23.3456 0.0000
# 6 0.0000 0.0000 0.0000 0.0000 0.0000 -48.4981
#
#
#
# Elastic Compliance Matrix: (Units=1/GPa)
#
#
# Indices 1 2 3 4 5 6 
#
# 1 0.011212 -0.005446 -0.001353 0.000000 0.000000 0.000000
# 2 -0.005446 0.021197 -0.002881 0.000000 0.000000 0.000000
# 3 -0.001353 -0.002881 0.011041 0.000000 0.000000 0.000000
# 4 0.000000 0.000000 0.000000 0.036140 0.000000 0.000000
# 5 0.000000 0.000000 0.000000 0.000000 0.042835 0.000000
# 6 0.000000 0.000000 0.000000 0.000000 0.000000 -0.020619
#
#
# Mechanical properties :
#
#
# Convention : Reuss Voigt Hill
#
# Bulk Modulus (GPa) = 41.51040 44.59765 43.05403
# Shear Modulus (GPa) = 38.70121 13.30885 26.00503
#
# Velocity S-wave (km/s) = 4.23007 2.48060 3.46748
# Velocity P-wave (km/s) = 6.56128 5.36882 5.99477
#
# Compressibility (1/GPa) = 0.02409035
#
# Stress axis : x y z
#
# Youngs Moduli (GPa) = 89.19196 47.17607 90.57187
#
# Poissons Ratio (x) = 0.25691 0.12252
# Poissons Ratio (y) = 0.48571 0.26097
# Poissons Ratio (z) = 0.12065 0.13593
#
# Static dielectric constant tensor:
#      x y z
#    x 1.833010 0.000000 0.000000 
#    y 0.000000 1.778550 0.000000 
#    z 0.000000 0.000000 1.826990 
# 
# From -- ./inp_files/4723.got.cif
#   From: 2010.05.17/outbox.cif.g08.bks.cpg/sg56_3_cif.got.tgz:4723.got - 2010.06.03 13:42:01.
