data_PCOD9431281
_publ_section_title
;
Structure prediction by ZEFSAII (Michael W. Deem and Ramdas Pophale) SiO2 
 PCOD9431281
Probable space group: P C C N
;
_chemical_formula_sum "Si O2"
_cell_formula_units_Z 40
_cell_length_a 5.315794
_cell_length_b 16.473389
_cell_length_c 22.421064
_cell_angle_alpha 90.000000
_cell_angle_beta 90.000000
_cell_angle_gamma 90.000000
_cell_volume 1963.393346
_symmetry_space_group_name_H-M "P C C N"
_symmetry_group_IT_number 56
_symmetry_cell_setting 'orthorhombic'
loop_
_space_group_symop_operation_xyz
x,y,z
1/2-x,1/2-y,z
1/2+x,-y,1/2-z
-x,1/2+y,1/2-z
-x,-y,-z
1/2+x,1/2+y,-z
1/2-x,y,1/2+z
x,1/2-y,1/2+z
loop_
_atom_site_type_symbol
_atom_site_label
_atom_site_fract_x
_atom_site_fract_y
_atom_site_fract_z
Si Si1 0.574201 0.487707 0.902989
Si Si2 0.987520 0.798645 0.722533
Si Si3 0.583157 0.331245 0.406085
Si Si4 0.689826 0.924325 0.999427
Si Si5 0.132402 0.532740 0.277295
O O1 0.767410 0.414514 0.890023
O O2 0.405189 0.447537 0.954024
O O3 0.412939 0.510762 0.845880
O O4 0.698958 0.568063 0.932906
O O5 0.750000 0.750000 0.747032
O O6 0.045552 0.877229 0.761139
O O7 0.250000 0.750000 0.719574
O O8 0.918535 0.820912 0.653703
O O9 0.750000 0.250000 0.412065
O O10 0.445171 0.348593 0.468977
O O11 0.500000 0.000000 0.000000
O O12 0.921848 0.479607 0.241788
#
# Coordination Sequence:
#
# PCOD9431281 Si02
#       5
#     8   8   8   8   8
#     4  10  21  39  63  91 121 168 210 265 310 385
#     4  11  24  41  62  95 133 167 209 273 327 374
#     4  10  21  35  61  93 122 162 207 266 321 371
#     4   9  20  38  60  88 121 157 207 264 319 369
#     4  12  24  40  68  98 126 171 222 260 324 391
#
# _framework density 20.372893000000001
#
# number of rings (size 3 to 8) (size 9 to 14) (size 15 to 20)
#    0.000    1.600    2.000    2.400   11.200    0.000 
#    0.000    0.000   13.200    0.000    0.000    0.000 
#    0.000    0.000    0.000    0.000    0.000    0.000 
#
# Total GULP energy -223044.169280 kJ/mol
# GULP energy per Si atom -5576.104232 kJ/mol
# Density = 2.032652 g / cm^3
# Si number density = 20.372893 Si / 1000 Ang^3
#
#
#
# Elastic Constant Matrix: (Units=GPa)
#
#
# Indices 1 2 3 4 5 6 
#
# 1 35.8513 -1.0298 -18.7876 0.0000 0.0000 0.0000
# 2 -1.0298 81.8110 8.7815 0.0000 0.0000 0.0000
# 3 -18.7876 8.7815 56.4467 0.0000 0.0000 0.0000
# 4 0.0000 0.0000 0.0000 -0.5862 0.0000 0.0000
# 5 0.0000 0.0000 0.0000 0.0000 -0.1054 0.0000
# 6 0.0000 0.0000 0.0000 0.0000 0.0000 38.4316
#
#
#
# Elastic Compliance Matrix: (Units=1/GPa)
#
#
# Indices 1 2 3 4 5 6 
#
# 1 0.033837 -0.000796 0.011386 0.000000 0.000000 0.000000
# 2 -0.000796 0.012450 -0.002202 0.000000 0.000000 0.000000
# 3 0.011386 -0.002202 0.021848 0.000000 0.000000 0.000000
# 4 0.000000 0.000000 0.000000 -1.705771 0.000000 0.000000
# 5 0.000000 0.000000 0.000000 0.000000 -9.487739 0.000000
# 6 0.000000 0.000000 0.000000 0.000000 0.000000 0.026020
#
#
# Mechanical properties :
#
#
# Convention : Reuss Voigt Hill
#
# Bulk Modulus (GPa) = 11.77711 16.89303 14.33507
# Shear Modulus (GPa) = -0.45094 19.89098 9.72002
#
# Velocity S-wave (km/s) = -0.47098 3.12804 2.18664
# Velocity P-wave (km/s) = 2.34469 4.62127 3.66426
#
# Compressibility (1/GPa) = 0.08491049
#
# Stress axis : x y z
#
# Youngs Moduli (GPa) = 29.55358 80.32380 45.77063
#
# Poissons Ratio (x) = 0.06396 -0.52115
# Poissons Ratio (y) = 0.02353 0.10078
# Poissons Ratio (z) = -0.33650 0.17686
#
# Static dielectric constant tensor:
#      x y z
#    x 2.027610 0.000000 0.000000 
#    y 0.000000 1.799710 0.000000 
#    z 0.000000 0.000000 2.415070 
# 
# From -- ./inp_files/17428.got.cif
#   From: 2010.05.17/outbox.cif.g08.bks.cpg/sg56_9_cif.got.tgz:17428.got - 2010.06.03 13:42:01.
