data_PCOD9431906
_publ_section_title
;
Structure prediction by ZEFSAII (Michael W. Deem and Ramdas Pophale) SiO2 
 PCOD9431906
Probable space group: P C C N
;
_chemical_formula_sum "Si O2"
_cell_formula_units_Z 60
_cell_length_a 14.693310
_cell_length_b 17.956906
_cell_length_c 8.882902
_cell_angle_alpha 90.000000
_cell_angle_beta 90.000000
_cell_angle_gamma 90.000000
_cell_volume 2343.721594
_symmetry_space_group_name_H-M "P C C N"
_symmetry_group_IT_number 56
_symmetry_cell_setting 'orthorhombic'
loop_
_space_group_symop_operation_xyz
x,y,z
1/2-x,1/2-y,z
1/2+x,-y,1/2-z
-x,1/2+y,1/2-z
-x,-y,-z
1/2+x,1/2+y,-z
1/2-x,y,1/2+z
x,1/2-y,1/2+z
loop_
_atom_site_type_symbol
_atom_site_label
_atom_site_fract_x
_atom_site_fract_y
_atom_site_fract_z
Si Si1 0.763925 0.362562 0.492435
Si Si2 0.672849 0.609687 0.521847
Si Si3 0.250000 0.250000 0.793768
Si Si4 0.146456 0.950905 0.742359
Si Si5 0.363284 0.077134 0.478518
Si Si6 0.883234 0.331458 0.222117
Si Si7 0.926483 0.681757 0.771841
Si Si8 0.941449 0.506626 0.232943
O O1 0.830287 0.391572 0.625134
O O2 0.713568 0.427549 0.393109
O O3 0.823236 0.319877 0.369757
O O4 0.681335 0.323272 0.579169
O O5 0.710848 0.680612 0.613084
O O6 0.767374 0.590227 0.439655
O O7 0.590408 0.625456 0.408852
O O8 0.632919 0.546836 0.630091
O O9 0.338909 0.268203 0.699421
O O10 0.041916 0.962208 0.690657
O O11 0.162535 0.026334 0.835491
O O12 0.410866 0.146691 0.394669
O O13 0.426197 0.035310 0.596522
O O14 0.921192 0.417790 0.229670
O O15 0.974563 0.283444 0.218727
#
# Coordination Sequence:
#
# PCOD9431906 Si02
#       8
#     8   8   4   8   8   8   8   8
#     4  10  22  34  53  79 124 167 210 263 316 392
#     4  11  24  38  63  90 125 172 220 271 320 392
#     4  10  24  46  64  96 130 168 228 272 340 382
#     4  11  21  34  51  80 122 167 211 255 314 390
#     4  11  21  34  52  83 125 169 208 259 326 382
#     4  11  22  38  58  93 131 174 215 266 335 397
#     4  11  23  40  65  88 125 171 218 279 325 396
#     4  12  23  35  56  92 130 170 221 261 329 401
#
# _framework density 25.600311000000001
#
# number of rings (size 3 to 8) (size 9 to 14) (size 15 to 20)
#    0.000    1.067    2.667    5.600    3.733    2.133 
#    0.000    0.000    0.000    0.000    0.000   15.867 
#    0.000    0.000    0.000    0.000    0.000    0.000 
#
# Total GULP energy -335516.218747 kJ/mol
# GULP energy per Si atom -5591.936979 kJ/mol
# Density = 2.554204 g / cm^3
# Si number density = 25.600311 Si / 1000 Ang^3
#
#
#
# Elastic Constant Matrix: (Units=GPa)
#
#
# Indices 1 2 3 4 5 6 
#
# 1 194.3870 17.9431 39.4788 0.0000 0.0000 0.0000
# 2 17.9431 28.5796 15.9374 0.0000 0.0000 0.0000
# 3 39.4788 15.9374 95.2858 0.0000 0.0000 0.0000
# 4 0.0000 0.0000 0.0000 9.1199 0.0000 0.0000
# 5 0.0000 0.0000 0.0000 0.0000 42.9939 0.0000
# 6 0.0000 0.0000 0.0000 0.0000 0.0000 29.0599
#
#
#
# Elastic Compliance Matrix: (Units=1/GPa)
#
#
# Indices 1 2 3 4 5 6 
#
# 1 0.005778 -0.002528 -0.001971 0.000000 0.000000 0.000000
# 2 -0.002528 0.039696 -0.005592 0.000000 0.000000 0.000000
# 3 -0.001971 -0.005592 0.012247 0.000000 0.000000 0.000000
# 4 0.000000 0.000000 0.000000 0.109651 0.000000 0.000000
# 5 0.000000 0.000000 0.000000 0.000000 0.023259 0.000000
# 6 0.000000 0.000000 0.000000 0.000000 0.000000 0.034412
#
#
# Mechanical properties :
#
#
# Convention : Reuss Voigt Hill
#
# Bulk Modulus (GPa) = 26.63991 51.66346 39.15168
# Shear Modulus (GPa) = 19.39960 32.56095 25.98027
#
# Velocity S-wave (km/s) = 2.75578 3.57024 3.18911
# Velocity P-wave (km/s) = 4.53370 6.10082 5.37469
#
# Compressibility (1/GPa) = 0.03753766
#
# Stress axis : x y z
#
# Youngs Moduli (GPa) = 173.06787 25.19161 81.65472
#
# Poissons Ratio (x) = 0.06370 0.16095
# Poissons Ratio (y) = 0.43760 0.45660
# Poissons Ratio (z) = 0.34113 0.14087
#
# Static dielectric constant tensor:
#      x y z
#    x 2.017230 0.000000 0.000000 
#    y 0.000000 2.187790 0.000000 
#    z 0.000000 0.000000 2.012810 
# 
# From -- ./inp_files/3671.got.cif
#   From: 2010.05.17/outbox.cif.g08.bks.cpg/sg56_2_cif.got.tgz:3671.got - 2010.06.03 13:42:01.
