data_PCOD9431671
_publ_section_title
;
Structure prediction by ZEFSAII (Michael W. Deem and Ramdas Pophale) SiO2 
 PCOD9431671
Probable space group: P C C N
;
_chemical_formula_sum "Si O2"
_cell_formula_units_Z 40
_cell_length_a 9.638398
_cell_length_b 8.323137
_cell_length_c 22.799267
_cell_angle_alpha 90.000000
_cell_angle_beta 90.000000
_cell_angle_gamma 90.000000
_cell_volume 1828.996117
_symmetry_space_group_name_H-M "P C C N"
_symmetry_group_IT_number 56
_symmetry_cell_setting 'orthorhombic'
loop_
_space_group_symop_operation_xyz
x,y,z
1/2-x,1/2-y,z
1/2+x,-y,1/2-z
-x,1/2+y,1/2-z
-x,-y,-z
1/2+x,1/2+y,-z
1/2-x,y,1/2+z
x,1/2-y,1/2+z
loop_
_atom_site_type_symbol
_atom_site_label
_atom_site_fract_x
_atom_site_fract_y
_atom_site_fract_z
Si Si1 0.301457 0.424238 0.896031
Si Si2 0.059752 0.391026 0.616630
Si Si3 0.149838 0.595815 0.284403
Si Si4 0.673789 0.078210 0.851121
Si Si5 0.465656 0.560933 0.435906
O O1 0.250000 0.250000 0.913488
O O2 0.460589 0.468097 0.909072
O O3 0.290271 0.455375 0.825899
O O4 0.198616 0.552902 0.925206
O O5 0.214929 0.449763 0.624817
O O6 0.029241 0.234201 0.578757
O O7 0.993015 0.362622 0.681636
O O8 0.250000 0.750000 0.288318
O O9 0.137335 0.550556 0.216926
O O10 0.750000 0.250000 0.855199
O O11 0.536924 0.060495 0.889590
O O12 0.500000 0.500000 0.500000
#
# Coordination Sequence:
#
# PCOD9431671 Si02
#       5
#     8   8   8   8   8
#     4  10  21  40  68  97 130 182 227 281 348 407
#     4  10  22  44  67  98 137 184 223 289 342 403
#     4   9  20  40  69  94 139 173 223 280 360 407
#     4  11  25  41  66 107 135 176 231 287 345 415
#     4  12  26  45  67  96 139 192 236 278 338 415
#
# _framework density 21.869921999999999
#
# number of rings (size 3 to 8) (size 9 to 14) (size 15 to 20)
#    1.200    0.400    2.000    2.400    2.800    4.800 
#    0.000    3.000    0.000    0.000    0.000    0.000 
#    0.000    0.000    0.000    0.000    0.000    0.000 
#
# Total GULP energy -223339.584581 kJ/mol
# GULP energy per Si atom -5583.489615 kJ/mol
# Density = 2.182014 g / cm^3
# Si number density = 21.869922 Si / 1000 Ang^3
#
#
#
# Elastic Constant Matrix: (Units=GPa)
#
#
# Indices 1 2 3 4 5 6 
#
# 1 75.1800 -6.2534 9.3458 0.0000 0.0000 0.0000
# 2 -6.2534 93.1367 15.2077 0.0000 0.0000 0.0000
# 3 9.3458 15.2077 78.6176 0.0000 0.0000 0.0000
# 4 0.0000 0.0000 0.0000 17.8802 0.0000 0.0000
# 5 0.0000 0.0000 0.0000 0.0000 -1.3292 0.0000
# 6 0.0000 0.0000 0.0000 0.0000 0.0000 35.2584
#
#
#
# Elastic Compliance Matrix: (Units=1/GPa)
#
#
# Indices 1 2 3 4 5 6 
#
# 1 0.013634 0.001219 -0.001856 0.000000 0.000000 0.000000
# 2 0.001219 0.011196 -0.002311 0.000000 0.000000 0.000000
# 3 -0.001856 -0.002311 0.013387 0.000000 0.000000 0.000000
# 4 0.000000 0.000000 0.000000 0.055928 0.000000 0.000000
# 5 0.000000 0.000000 0.000000 0.000000 -0.752345 0.000000
# 6 0.000000 0.000000 0.000000 0.000000 0.000000 0.028362
#
#
# Mechanical properties :
#
#
# Convention : Reuss Voigt Hill
#
# Bulk Modulus (GPa) = 30.94061 31.50383 31.22222
# Shear Modulus (GPa) = -8.15438 25.60415 8.72488
#
# Velocity S-wave (km/s) = -1.93305 3.42533 1.99953
# Velocity P-wave (km/s) = 3.03250 5.48454 4.43149
#
# Compressibility (1/GPa) = 0.03231998
#
# Stress axis : x y z
#
# Youngs Moduli (GPa) = 73.34848 89.31754 74.69685
#
# Poissons Ratio (x) = -0.10883 0.13867
# Poissons Ratio (y) = -0.08938 0.17259
# Poissons Ratio (z) = 0.13617 0.20638
#
# Static dielectric constant tensor:
#      x y z
#    x 1.820650 0.000000 0.000000 
#    y 0.000000 1.849740 0.000000 
#    z 0.000000 0.000000 1.753140 
# 
# From -- ./inp_files/20308.got.cif
#   From: 2010.05.17/outbox.cif.g08.bks.cpg/sg56_11_cif.got.tgz:20308.got - 2010.06.03 13:42:01.
