data_PCOD9431516
_publ_section_title
;
Structure prediction by ZEFSAII (Michael W. Deem and Ramdas Pophale) SiO2 
 PCOD9431516
Probable space group: P C C N
;
_chemical_formula_sum "Si O2"
_cell_formula_units_Z 64
_cell_length_a 28.176794
_cell_length_b 7.438352
_cell_length_c 14.160425
_cell_angle_alpha 90.000000
_cell_angle_beta 90.000000
_cell_angle_gamma 90.000000
_cell_volume 2967.868069
_symmetry_space_group_name_H-M "P C C N"
_symmetry_group_IT_number 56
_symmetry_cell_setting 'orthorhombic'
loop_
_space_group_symop_operation_xyz
x,y,z
1/2-x,1/2-y,z
1/2+x,-y,1/2-z
-x,1/2+y,1/2-z
-x,-y,-z
1/2+x,1/2+y,-z
1/2-x,y,1/2+z
x,1/2-y,1/2+z
loop_
_atom_site_type_symbol
_atom_site_label
_atom_site_fract_x
_atom_site_fract_y
_atom_site_fract_z
Si Si1 0.552553 0.379654 0.413437
Si Si2 0.644651 0.550073 0.513707
Si Si3 0.393011 0.981324 0.581912
Si Si4 0.161398 0.232896 0.677868
Si Si5 0.532672 0.663543 0.031845
Si Si6 0.298828 0.323601 0.868523
Si Si7 0.577750 0.979765 0.722951
Si Si8 0.847834 0.319789 0.605791
O O1 0.591636 0.480361 0.480646
O O2 0.503201 0.328421 0.462733
O O3 0.544993 0.472745 0.312120
O O4 0.576073 0.186334 0.383658
O O5 0.668827 0.605399 0.413610
O O6 0.657180 0.724012 0.577947
O O7 0.663599 0.384403 0.578024
O O8 0.353188 0.067759 0.646674
O O9 0.425626 0.147109 0.545385
O O10 0.368784 0.899856 0.490325
O O11 0.199703 0.231512 0.759182
O O12 0.115993 0.152182 0.731605
O O13 0.552254 0.614352 0.135170
O O14 0.500000 0.500000 0.000000
O O15 0.250000 0.250000 0.911872
O O16 0.306192 0.538853 0.870618
O O17 0.609692 0.145579 0.681543
#
# Coordination Sequence:
#
# PCOD9431516 Si02
#       8
#     8   8   8   8   8   8   8   8
#     4   9  19  34  58  90 122 170 217 262 316 379
#     4  10  21  41  67  91 125 171 214 249 330 400
#     4   9  17  35  59  82 119 171 205 255 319 368
#     4  10  21  39  62  92 123 164 214 256 320 395
#     4   9  18  33  51  79 126 162 207 268 305 354
#     4  11  24  41  67  96 128 158 209 272 325 396
#     4   9  19  34  55  84 126 163 214 262 310 375
#     4   9  19  39  64  87 124 167 203 254 317 389
#
# _framework density 21.564302000000001
#
# number of rings (size 3 to 8) (size 9 to 14) (size 15 to 20)
#    0.000    2.500    1.250    0.750    1.750    3.000 
#    0.000    3.750    0.000    0.000    0.000    0.000 
#    0.000    0.000    0.000    0.000    0.000    0.000 
#
# Total GULP energy -356374.868280 kJ/mol
# GULP energy per Si atom -5568.357317 kJ/mol
# Density = 2.151522 g / cm^3
# Si number density = 21.564302 Si / 1000 Ang^3
#
#
#
# Elastic Constant Matrix: (Units=GPa)
#
#
# Indices 1 2 3 4 5 6 
#
# 1 56.2481 9.4669 6.6964 0.0000 0.0000 0.0000
# 2 9.4669 94.2010 -2.3285 0.0000 0.0000 0.0000
# 3 6.6964 -2.3285 62.2804 0.0000 0.0000 0.0000
# 4 0.0000 0.0000 0.0000 0.7110 0.0000 0.0000
# 5 0.0000 0.0000 0.0000 0.0000 17.1101 0.0000
# 6 0.0000 0.0000 0.0000 0.0000 0.0000 0.7423
#
#
#
# Elastic Compliance Matrix: (Units=1/GPa)
#
#
# Indices 1 2 3 4 5 6 
#
# 1 0.018340 -0.001894 -0.002043 0.000000 0.000000 0.000000
# 2 -0.001894 0.010821 0.000608 0.000000 0.000000 0.000000
# 3 -0.002043 0.000608 0.016299 0.000000 0.000000 0.000000
# 4 0.000000 0.000000 0.000000 1.406512 0.000000 0.000000
# 5 0.000000 0.000000 0.000000 0.000000 0.058445 0.000000
# 6 0.000000 0.000000 0.000000 0.000000 0.000000 1.347158
#
#
# Mechanical properties :
#
#
# Convention : Reuss Voigt Hill
#
# Bulk Modulus (GPa) = 25.77083 26.71102 26.24092
# Shear Modulus (GPa) = 1.73782 16.97233 9.35508
#
# Velocity S-wave (km/s) = 0.89868 2.80850 2.08510
# Velocity P-wave (km/s) = 3.61296 4.78857 4.24169
#
# Compressibility (1/GPa) = 0.03880357
#
# Stress axis : x y z
#
# Youngs Moduli (GPa) = 54.52483 92.41347 61.35428
#
# Poissons Ratio (x) = 0.17500 0.12533
# Poissons Ratio (y) = 0.10325 -0.03731
# Poissons Ratio (z) = 0.11138 -0.05620
#
# Static dielectric constant tensor:
#      x y z
#    x 1.912390 0.000000 0.000000 
#    y 0.000000 1.842580 0.000000 
#    z 0.000000 0.000000 1.880440 
# 
# From -- ./inp_files/13505.got.cif
#   From: 2010.05.17/outbox.cif.g08.bks.cpg/sg56_7_cif.got.tgz:13505.got - 2010.06.03 13:42:01.
