data_PCOD9431914
_publ_section_title
;
Structure prediction by ZEFSAII (Michael W. Deem and Ramdas Pophale) SiO2 
 PCOD9431914
Probable space group: P C C N
;
_chemical_formula_sum "Si O2"
_cell_formula_units_Z 36
_cell_length_a 16.383889
_cell_length_b 8.186007
_cell_length_c 9.588323
_cell_angle_alpha 90.000000
_cell_angle_beta 90.000000
_cell_angle_gamma 90.000000
_cell_volume 1285.972745
_symmetry_space_group_name_H-M "P C C N"
_symmetry_group_IT_number 56
_symmetry_cell_setting 'orthorhombic'
loop_
_space_group_symop_operation_xyz
x,y,z
1/2-x,1/2-y,z
1/2+x,-y,1/2-z
-x,1/2+y,1/2-z
-x,-y,-z
1/2+x,1/2+y,-z
1/2-x,y,1/2+z
x,1/2-y,1/2+z
loop_
_atom_site_type_symbol
_atom_site_label
_atom_site_fract_x
_atom_site_fract_y
_atom_site_fract_z
Si Si1 0.857503 0.232310 0.443204
Si Si2 0.750000 0.750000 0.346792
Si Si3 0.620436 0.077843 0.184557
Si Si4 0.839763 0.565961 0.595554
Si Si5 0.019632 0.262700 0.793761
O O1 0.829875 0.329040 0.305089
O O2 0.831650 0.078549 0.538231
O O3 0.845980 0.376719 0.555807
O O4 0.946067 0.176224 0.390000
O O5 0.810103 0.665124 0.459401
O O6 0.709896 0.619660 0.236135
O O7 0.534421 0.179430 0.173606
O O8 0.586567 0.901997 0.228315
O O9 0.932128 0.619500 0.629350
#
# Coordination Sequence:
#
# PCOD9431914 Si02
#       5
#     8   4   8   8   8
#     4  10  23  37  63  96 131 165 208 274 338 378
#     4  10  26  40  68  94 122 190 222 258 316 378
#     4  10  22  36  59 109 128 169 198 260 357 390
#     4  11  22  43  65  92 128 169 228 263 312 399
#     4  10  22  35  67  97 135 159 215 268 346 377
#
# _framework density 27.994371999999998
#
# number of rings (size 3 to 8) (size 9 to 14) (size 15 to 20)
#    1.333    0.444    0.000    4.000    6.222    1.778 
#    0.000    0.000    0.000   22.667    0.000    0.000 
#    0.000    0.000    0.000    0.000    0.000    0.000 
#
# Total GULP energy -200728.341514 kJ/mol
# GULP energy per Si atom -5575.787264 kJ/mol
# Density = 2.793066 g / cm^3
# Si number density = 27.994372 Si / 1000 Ang^3
#
#
#
# Elastic Constant Matrix: (Units=GPa)
#
#
# Indices 1 2 3 4 5 6 
#
# 1 101.1026 24.3783 22.5438 0.0000 0.0000 0.0000
# 2 24.3783 77.5489 27.2513 0.0000 0.0000 0.0000
# 3 22.5438 27.2513 174.4203 0.0000 0.0000 0.0000
# 4 0.0000 0.0000 0.0000 48.3359 0.0000 0.0000
# 5 0.0000 0.0000 0.0000 0.0000 31.7836 0.0000
# 6 0.0000 0.0000 0.0000 0.0000 0.0000 38.1785
#
#
#
# Elastic Compliance Matrix: (Units=1/GPa)
#
#
# Indices 1 2 3 4 5 6 
#
# 1 0.010840 -0.003085 -0.000919 0.000000 0.000000 0.000000
# 2 -0.003085 0.014522 -0.001870 0.000000 0.000000 0.000000
# 3 -0.000919 -0.001870 0.006144 0.000000 0.000000 0.000000
# 4 0.000000 0.000000 0.000000 0.020689 0.000000 0.000000
# 5 0.000000 0.000000 0.000000 0.000000 0.031463 0.000000
# 6 0.000000 0.000000 0.000000 0.000000 0.000000 0.026193
#
#
# Mechanical properties :
#
#
# Convention : Reuss Voigt Hill
#
# Bulk Modulus (GPa) = 50.61214 55.71319 53.16266
# Shear Modulus (GPa) = 39.00651 42.25284 40.62968
#
# Velocity S-wave (km/s) = 3.73684 3.88923 3.81379
# Velocity P-wave (km/s) = 6.06113 6.33348 6.19880
#
# Compressibility (1/GPa) = 0.01975811
#
# Stress axis : x y z
#
# Youngs Moduli (GPa) = 92.25399 68.86123 162.75326
#
# Poissons Ratio (x) = 0.21241 0.14958
# Poissons Ratio (y) = 0.28456 0.30438
# Poissons Ratio (z) = 0.08479 0.12879
#
# Static dielectric constant tensor:
#      x y z
#    x 2.220160 0.000000 0.000000 
#    y 0.000000 2.205630 0.000000 
#    z 0.000000 0.000000 2.156640 
# 
# From -- ./inp_files/4344.got.cif
#   From: 2010.05.17/outbox.cif.g08.bks.cpg/sg56_3_cif.got.tgz:4344.got - 2010.06.03 13:42:01.
