data_PCOD9431005
_publ_section_title
;
Structure prediction by ZEFSAII (Michael W. Deem and Ramdas Pophale) SiO2 
 PCOD9431005
Probable space group: P C C N
;
_chemical_formula_sum "Si O2"
_cell_formula_units_Z 64
_cell_length_a 8.967266
_cell_length_b 13.053924
_cell_length_c 24.575025
_cell_angle_alpha 90.000000
_cell_angle_beta 90.000000
_cell_angle_gamma 90.000000
_cell_volume 2876.703494
_symmetry_space_group_name_H-M "P C C N"
_symmetry_group_IT_number 56
_symmetry_cell_setting 'orthorhombic'
loop_
_space_group_symop_operation_xyz
x,y,z
1/2-x,1/2-y,z
1/2+x,-y,1/2-z
-x,1/2+y,1/2-z
-x,-y,-z
1/2+x,1/2+y,-z
1/2-x,y,1/2+z
x,1/2-y,1/2+z
loop_
_atom_site_type_symbol
_atom_site_label
_atom_site_fract_x
_atom_site_fract_y
_atom_site_fract_z
Si Si1 0.678843 0.098668 0.111302
Si Si2 0.139761 0.659187 0.572215
Si Si3 0.593213 0.696895 0.166199
Si Si4 0.176488 0.996792 0.503816
Si Si5 0.511521 0.211944 0.627031
Si Si6 0.066575 0.386122 0.517424
Si Si7 0.495134 0.643846 0.755835
Si Si8 0.754603 0.509164 0.216694
O O1 0.824822 0.161524 0.128001
O O2 0.535248 0.171099 0.109781
O O3 0.667904 0.016096 0.158675
O O4 0.716929 0.059122 0.052147
O O5 0.250000 0.750000 0.586606
O O6 0.249496 0.565096 0.554535
O O7 0.015386 0.652154 0.619436
O O8 0.041929 0.684817 0.518053
O O9 0.750000 0.750000 0.146547
O O10 0.513405 0.782366 0.203943
O O11 0.642202 0.601850 0.203767
O O12 0.261143 0.104985 0.501194
O O13 0.000000 0.000000 0.500000
O O14 0.433590 0.146686 0.580076
O O15 0.463139 0.204926 0.689204
O O16 0.000000 0.500000 0.500000
O O17 0.334620 0.588437 0.760367
O O18 0.616041 0.553192 0.753747
#
# Coordination Sequence:
#
# PCOD9431005 Si02
#       8
#     8   8   8   8   8   8   8   8
#     4  10  20  40  68  95 132 186 235 288 365 435
#     4  11  23  40  70  97 134 180 226 293 361 435
#     4  10  24  46  68 102 142 187 240 305 368 444
#     4  11  24  41  64 102 142 177 237 289 361 445
#     4  10  20  40  70  97 129 178 249 292 355 445
#     4  10  20  39  66  97 130 182 231 293 364 431
#     4  10  24  43  68 103 138 187 242 303 369 449
#     4  10  23  44  72  93 141 188 234 305 374 434
#
# _framework density 22.247686000000002
#
# number of rings (size 3 to 8) (size 9 to 14) (size 15 to 20)
#    0.000    1.750    2.500    1.500    7.000    4.000 
#    4.500    1.875    0.000    0.000    0.000    0.000 
#    0.000    0.000    0.000    0.000    0.000    0.000 
#
# Total GULP energy -356812.466180 kJ/mol
# GULP energy per Si atom -5575.194784 kJ/mol
# Density = 2.219705 g / cm^3
# Si number density = 22.247686 Si / 1000 Ang^3
#
#
#
# Elastic Constant Matrix: (Units=GPa)
#
#
# Indices 1 2 3 4 5 6 
#
# 1 92.4078 12.8088 32.1397 0.0000 0.0000 0.0000
# 2 12.8088 49.3188 17.8006 0.0000 0.0000 0.0000
# 3 32.1397 17.8006 92.4401 0.0000 0.0000 0.0000
# 4 0.0000 0.0000 0.0000 26.0334 0.0000 0.0000
# 5 0.0000 0.0000 0.0000 0.0000 28.0906 0.0000
# 6 0.0000 0.0000 0.0000 0.0000 0.0000 22.7292
#
#
#
# Elastic Compliance Matrix: (Units=1/GPa)
#
#
# Indices 1 2 3 4 5 6 
#
# 1 0.012457 -0.001797 -0.003985 0.000000 0.000000 0.000000
# 2 -0.001797 0.022050 -0.003621 0.000000 0.000000 0.000000
# 3 -0.003985 -0.003621 0.012901 0.000000 0.000000 0.000000
# 4 0.000000 0.000000 0.000000 0.038412 0.000000 0.000000
# 5 0.000000 0.000000 0.000000 0.000000 0.035599 0.000000
# 6 0.000000 0.000000 0.000000 0.000000 0.000000 0.043996
#
#
# Mechanical properties :
#
#
# Convention : Reuss Voigt Hill
#
# Bulk Modulus (GPa) = 34.96375 39.96274 37.46325
# Shear Modulus (GPa) = 25.80584 26.79849 26.30217
#
# Velocity S-wave (km/s) = 3.40947 3.47443 3.44211
# Velocity P-wave (km/s) = 5.59009 5.83928 5.71605
#
# Compressibility (1/GPa) = 0.02860105
#
# Stress axis : x y z
#
# Youngs Moduli (GPa) = 80.27852 45.35160 77.51564
#
# Poissons Ratio (x) = 0.08149 0.30889
# Poissons Ratio (y) = 0.14425 0.28070
# Poissons Ratio (z) = 0.31990 0.16423
#
# Static dielectric constant tensor:
#      x y z
#    x 1.866000 0.000000 0.000000 
#    y 0.000000 1.874110 0.000000 
#    z 0.000000 0.000000 1.847030 
# 
# From -- ./inp_files/20678.got.cif
#   From: 2010.05.17/outbox.cif.g08.bks.cpg/sg56_11_cif.got.tgz:20678.got - 2010.06.03 13:42:01.
