data_PCOD9431936
_publ_section_title
;
Structure prediction by ZEFSAII (Michael W. Deem and Ramdas Pophale) SiO2 
 PCOD9431936
Probable space group: P C C N
;
_chemical_formula_sum "Si O2"
_cell_formula_units_Z 60
_cell_length_a 28.806221
_cell_length_b 8.853956
_cell_length_c 11.971837
_cell_angle_alpha 90.000000
_cell_angle_beta 90.000000
_cell_angle_gamma 90.000000
_cell_volume 3053.405214
_symmetry_space_group_name_H-M "P C C N"
_symmetry_group_IT_number 56
_symmetry_cell_setting 'orthorhombic'
loop_
_space_group_symop_operation_xyz
x,y,z
1/2-x,1/2-y,z
1/2+x,-y,1/2-z
-x,1/2+y,1/2-z
-x,-y,-z
1/2+x,1/2+y,-z
1/2-x,y,1/2+z
x,1/2-y,1/2+z
loop_
_atom_site_type_symbol
_atom_site_label
_atom_site_fract_x
_atom_site_fract_y
_atom_site_fract_z
Si Si1 0.854593 0.266631 0.306447
Si Si2 0.674947 0.541373 0.409098
Si Si3 0.097645 0.238658 0.192077
Si Si4 0.006238 0.409849 0.250031
Si Si5 0.327139 0.448421 0.324514
Si Si6 0.750000 0.750000 0.793868
Si Si7 0.054947 0.819905 0.826114
Si Si8 0.070155 0.548860 0.563880
O O1 0.825578 0.391348 0.239276
O O2 0.894332 0.207036 0.222307
O O3 0.884696 0.353639 0.400878
O O4 0.827088 0.126150 0.357126
O O5 0.631109 0.634554 0.359775
O O6 0.672284 0.534268 0.542792
O O7 0.719677 0.635991 0.369073
O O8 0.053385 0.314595 0.248915
O O9 0.126762 0.136888 0.279106
O O10 0.081088 0.123698 0.095408
O O11 0.023842 0.581297 0.240701
O O12 0.972337 0.337235 0.157135
O O13 0.972910 0.403871 0.357879
O O14 0.284714 0.346004 0.282876
O O15 0.058291 0.916452 0.937587
#
# Coordination Sequence:
#
# PCOD9431936 Si02
#       8
#     8   8   8   8   8   4   8   8
#     4  10  22  41  60  93 121 155 206 249 290 370
#     4  11  22  41  68  91 121 160 194 243 316 359
#     4  10  22  37  59  89 120 157 210 251 292 367
#     4  11  21  35  53  84 117 160 207 257 287 353
#     4  10  23  43  65  91 126 154 194 252 300 365
#     4  10  24  44  66 100 122 146 198 244 298 388
#     4  11  22  38  56  81 124 164 207 255 301 343
#     4  10  22  38  56  81 123 166 204 250 310 341
#
# _framework density 19.650193999999999
#
# number of rings (size 3 to 8) (size 9 to 14) (size 15 to 20)
#    0.000    1.600    2.667    1.600    1.867    0.533 
#    0.000    6.667    0.000    0.000    0.000    0.000 
#    0.000    0.000    0.000    0.000    0.000    0.000 
#
# Total GULP energy -335021.268395 kJ/mol
# GULP energy per Si atom -5583.687807 kJ/mol
# Density = 1.960547 g / cm^3
# Si number density = 19.650194 Si / 1000 Ang^3
#
#
#
# Elastic Constant Matrix: (Units=GPa)
#
#
# Indices 1 2 3 4 5 6 
#
# 1 76.7974 34.7394 22.5853 0.0000 0.0000 0.0000
# 2 34.7394 122.0220 38.8716 0.0000 0.0000 0.0000
# 3 22.5853 38.8716 60.9363 0.0000 0.0000 0.0000
# 4 0.0000 0.0000 0.0000 11.8820 0.0000 0.0000
# 5 0.0000 0.0000 0.0000 0.0000 14.4689 0.0000
# 6 0.0000 0.0000 0.0000 0.0000 0.0000 39.4003
#
#
#
# Elastic Compliance Matrix: (Units=1/GPa)
#
#
# Indices 1 2 3 4 5 6 
#
# 1 0.015583 -0.003259 -0.003697 0.000000 0.000000 0.000000
# 2 -0.003259 0.010967 -0.005788 0.000000 0.000000 0.000000
# 3 -0.003697 -0.005788 0.021473 0.000000 0.000000 0.000000
# 4 0.000000 0.000000 0.000000 0.084161 0.000000 0.000000
# 5 0.000000 0.000000 0.000000 0.000000 0.069114 0.000000
# 6 0.000000 0.000000 0.000000 0.000000 0.000000 0.025381
#
#
# Mechanical properties :
#
#
# Convention : Reuss Voigt Hill
#
# Bulk Modulus (GPa) = 44.37459 50.23871 47.30665
# Shear Modulus (GPa) = 19.25478 24.05421 21.65450
#
# Velocity S-wave (km/s) = 3.13370 3.50254 3.32324
# Velocity P-wave (km/s) = 5.97701 6.47913 6.23313
#
# Compressibility (1/GPa) = 0.02253542
#
# Stress axis : x y z
#
# Youngs Moduli (GPa) = 64.17455 91.18410 46.57020
#
# Poissons Ratio (x) = 0.29714 0.17216
# Poissons Ratio (y) = 0.20912 0.26955
# Poissons Ratio (z) = 0.23724 0.52778
#
# Static dielectric constant tensor:
#      x y z
#    x 1.678980 0.000000 0.000000 
#    y 0.000000 1.729220 0.000000 
#    z 0.000000 0.000000 1.657630 
# 
# From -- ./inp_files/6601.got.cif
#   From: 2010.05.17/outbox.cif.g08.bks.cpg/sg56_4_cif.got.tgz:6601.got - 2010.06.03 13:42:01.
