data_PCOD9431962
_publ_section_title
;
Structure prediction by ZEFSAII (Michael W. Deem and Ramdas Pophale) SiO2 
 PCOD9431962
Probable space group: P C C N
;
_chemical_formula_sum "Si O2"
_cell_formula_units_Z 60
_cell_length_a 14.315842
_cell_length_b 19.157624
_cell_length_c 8.678346
_cell_angle_alpha 90.000000
_cell_angle_beta 90.000000
_cell_angle_gamma 90.000000
_cell_volume 2380.101637
_symmetry_space_group_name_H-M "P C C N"
_symmetry_group_IT_number 56
_symmetry_cell_setting 'orthorhombic'
loop_
_space_group_symop_operation_xyz
x,y,z
1/2-x,1/2-y,z
1/2+x,-y,1/2-z
-x,1/2+y,1/2-z
-x,-y,-z
1/2+x,1/2+y,-z
1/2-x,y,1/2+z
x,1/2-y,1/2+z
loop_
_atom_site_type_symbol
_atom_site_label
_atom_site_fract_x
_atom_site_fract_y
_atom_site_fract_z
Si Si1 0.175591 0.191274 0.121591
Si Si2 0.048073 0.253747 0.860854
Si Si3 0.015379 0.114531 0.670666
Si Si4 0.539272 0.558142 0.623700
Si Si5 0.367541 0.813170 0.965593
Si Si6 0.302992 0.029621 0.630910
Si Si7 0.619021 0.487349 0.193153
Si Si8 0.750000 0.250000 0.296802
O O1 0.250000 0.250000 0.172386
O O2 0.094048 0.188720 0.249666
O O3 0.210869 0.112604 0.092838
O O4 0.126342 0.224246 0.974378
O O5 0.026822 0.187591 0.753339
O O6 0.954115 0.275885 0.948844
O O7 0.071499 0.111659 0.509374
O O8 0.053109 0.055855 0.784561
O O9 0.908703 0.116379 0.606912
O O10 0.500000 0.500000 0.500000
O O11 0.622450 0.532105 0.730165
O O12 0.450368 0.571679 0.737717
O O13 0.284355 0.811656 0.089904
O O14 0.331190 0.770788 0.819183
O O15 0.344609 0.989335 0.482098
O O16 0.207749 0.997205 0.695708
#
# Coordination Sequence:
#
# PCOD9431962 Si02
#       8
#     8   8   8   8   8   8   8   4
#     4  12  26  38  63 107 151 186 228 273 341 459
#     4  12  22  39  62  95 143 186 225 272 348 438
#     4  11  21  41  63  96 131 183 227 282 361 419
#     4  10  24  46  71  94 135 179 240 302 354 419
#     4  11  21  39  63  88 127 175 223 287 345 420
#     4  12  25  43  74 103 143 190 232 295 373 422
#     4  11  24  44  69 101 135 182 239 299 356 434
#     4  10  22  38  60  88 124 166 234 278 334 394
#
# _framework density 25.209007
#
# number of rings (size 3 to 8) (size 9 to 14) (size 15 to 20)
#    0.000    0.800    4.000    4.000    1.867    0.000 
#    0.000    4.000    0.000    0.000    0.000    0.000 
#    0.000    0.000    0.000    0.000    0.000    0.000 
#
# Total GULP energy -335327.088605 kJ/mol
# GULP energy per Si atom -5588.784810 kJ/mol
# Density = 2.515163 g / cm^3
# Si number density = 25.209007 Si / 1000 Ang^3
#
#
#
# Elastic Constant Matrix: (Units=GPa)
#
#
# Indices 1 2 3 4 5 6 
#
# 1 141.0034 24.8132 48.0448 0.0000 0.0000 0.0000
# 2 24.8132 55.4833 14.5952 0.0000 0.0000 0.0000
# 3 48.0448 14.5952 128.1086 0.0000 0.0000 0.0000
# 4 0.0000 0.0000 0.0000 33.8363 0.0000 0.0000
# 5 0.0000 0.0000 0.0000 0.0000 56.4453 0.0000
# 6 0.0000 0.0000 0.0000 0.0000 0.0000 30.5875
#
#
#
# Elastic Compliance Matrix: (Units=1/GPa)
#
#
# Indices 1 2 3 4 5 6 
#
# 1 0.008618 -0.003097 -0.002879 0.000000 0.000000 0.000000
# 2 -0.003097 0.019693 -0.001082 0.000000 0.000000 0.000000
# 3 -0.002879 -0.001082 0.009009 0.000000 0.000000 0.000000
# 4 0.000000 0.000000 0.000000 0.029554 0.000000 0.000000
# 5 0.000000 0.000000 0.000000 0.000000 0.017716 0.000000
# 6 0.000000 0.000000 0.000000 0.000000 0.000000 0.032693
#
#
# Mechanical properties :
#
#
# Convention : Reuss Voigt Hill
#
# Bulk Modulus (GPa) = 43.09667 55.50021 49.29844
# Shear Modulus (GPa) = 35.93648 39.98330 37.95989
#
# Velocity S-wave (km/s) = 3.77973 3.98687 3.88468
# Velocity P-wave (km/s) = 6.01509 6.57703 6.30233
#
# Compressibility (1/GPa) = 0.02320365
#
# Stress axis : x y z
#
# Youngs Moduli (GPa) = 116.03574 50.77936 111.00037
#
# Poissons Ratio (x) = 0.15725 0.31960
# Poissons Ratio (y) = 0.35933 0.12013
# Poissons Ratio (z) = 0.33409 0.05495
#
# Static dielectric constant tensor:
#      x y z
#    x 2.043890 0.000000 0.000000 
#    y 0.000000 2.279300 0.000000 
#    z 0.000000 0.000000 1.992540 
# 
# From -- ./inp_files/3694.got.cif
#   From: 2010.05.17/outbox.cif.g08.bks.cpg/sg56_2_cif.got.tgz:3694.got - 2010.06.03 13:42:01.
