data_PCOD9431359
_publ_section_title
;
Structure prediction by ZEFSAII (Michael W. Deem and Ramdas Pophale) SiO2 
 PCOD9431359
Probable space group: P C C N
;
_chemical_formula_sum "Si O2"
_cell_formula_units_Z 64
_cell_length_a 25.083312
_cell_length_b 14.499226
_cell_length_c 9.491821
_cell_angle_alpha 90.000000
_cell_angle_beta 90.000000
_cell_angle_gamma 90.000000
_cell_volume 3452.067181
_symmetry_space_group_name_H-M "P C C N"
_symmetry_group_IT_number 56
_symmetry_cell_setting 'orthorhombic'
loop_
_space_group_symop_operation_xyz
x,y,z
1/2-x,1/2-y,z
1/2+x,-y,1/2-z
-x,1/2+y,1/2-z
-x,-y,-z
1/2+x,1/2+y,-z
1/2-x,y,1/2+z
x,1/2-y,1/2+z
loop_
_atom_site_type_symbol
_atom_site_label
_atom_site_fract_x
_atom_site_fract_y
_atom_site_fract_z
Si Si1 0.379554 0.864114 0.329822
Si Si2 0.215539 0.496987 0.290262
Si Si3 0.817315 0.485285 0.028952
Si Si4 0.636554 0.659794 0.144727
Si Si5 0.960231 0.530722 0.622842
Si Si6 0.499518 0.901975 0.922173
Si Si7 0.610466 0.189434 0.985787
Si Si8 0.113551 0.338573 0.023194
O O1 0.323866 0.919236 0.332027
O O2 0.381472 0.790661 0.453551
O O3 0.387436 0.811435 0.182832
O O4 0.426040 0.940895 0.332910
O O5 0.274559 0.506708 0.348141
O O6 0.212023 0.496954 0.120839
O O7 0.188155 0.405855 0.357050
O O8 0.844904 0.385489 0.029744
O O9 0.862621 0.564144 0.029779
O O10 0.585698 0.604213 0.082233
O O11 0.626300 0.672670 0.311386
O O12 0.638923 0.756051 0.065095
O O13 0.990322 0.574483 0.757605
O O14 0.000000 0.500000 0.500000
O O15 0.549642 0.844367 0.982078
O O16 0.445311 0.849491 0.955686
O O17 0.500000 0.000000 0.000000
#
# Coordination Sequence:
#
# PCOD9431359 Si02
#       8
#     8   8   8   8   8   8   8   8
#     4  10  23  40  58  84 121 152 195 246 290 346
#     4   9  21  42  60  80 117 151 191 250 292 345
#     4  10  21  41  62  83 114 155 195 241 300 346
#     4   9  21  39  56  85 118 151 192 238 291 344
#     4  10  22  39  56  84 122 158 193 238 285 345
#     4  11  20  39  60  82 122 160 189 236 290 346
#     4  11  23  39  61  89 118 157 200 239 295 353
#     4  10  21  37  60  86 119 153 191 238 290 352
#
# _framework density 18.539615999999999
#
# number of rings (size 3 to 8) (size 9 to 14) (size 15 to 20)
#    0.000    2.000    2.500    1.500    3.500    5.000 
#    2.250    5.000    0.000    0.000    0.000    0.000 
#    0.000    0.000    0.000    0.000    0.000    0.000 
#
# Total GULP energy -357200.994669 kJ/mol
# GULP energy per Si atom -5581.265542 kJ/mol
# Density = 1.849742 g / cm^3
# Si number density = 18.539616 Si / 1000 Ang^3
#
#
#
# Elastic Constant Matrix: (Units=GPa)
#
#
# Indices 1 2 3 4 5 6 
#
# 1 60.0870 -19.4433 16.1026 0.0000 0.0000 0.0000
# 2 -19.4433 52.2743 8.0837 0.0000 0.0000 0.0000
# 3 16.1026 8.0837 21.0914 0.0000 0.0000 0.0000
# 4 0.0000 0.0000 0.0000 34.2965 0.0000 0.0000
# 5 0.0000 0.0000 0.0000 0.0000 23.3152 0.0000
# 6 0.0000 0.0000 0.0000 0.0000 0.0000 9.7299
#
#
#
# Elastic Compliance Matrix: (Units=1/GPa)
#
#
# Indices 1 2 3 4 5 6 
#
# 1 0.029027 0.015120 -0.027956 0.000000 0.000000 0.000000
# 2 0.015120 0.028211 -0.022356 0.000000 0.000000 0.000000
# 3 -0.027956 -0.022356 0.077324 0.000000 0.000000 0.000000
# 4 0.000000 0.000000 0.000000 0.029158 0.000000 0.000000
# 5 0.000000 0.000000 0.000000 0.000000 0.042890 0.000000
# 6 0.000000 0.000000 0.000000 0.000000 0.000000 0.102776
#
#
# Mechanical properties :
#
#
# Convention : Reuss Voigt Hill
#
# Bulk Modulus (GPa) = 15.58167 15.88207 15.73187
# Shear Modulus (GPa) = 12.46379 22.04898 17.25638
#
# Velocity S-wave (km/s) = 2.59565 3.45235 3.05419
# Velocity P-wave (km/s) = 4.17204 4.94740 4.57617
#
# Compressibility (1/GPa) = 0.06417796
#
# Stress axis : x y z
#
# Youngs Moduli (GPa) = 34.45076 35.44759 12.93254
#
# Poissons Ratio (x) = -0.53595 0.36154
# Poissons Ratio (y) = -0.52088 0.28911
# Poissons Ratio (z) = 0.96311 0.79245
#
# Static dielectric constant tensor:
#      x y z
#    x 1.632670 0.000000 0.000000 
#    y 0.000000 1.628750 0.000000 
#    z 0.000000 0.000000 1.630170 
# 
# From -- ./inp_files/3695.got.cif
#   From: 2010.05.17/outbox.cif.g08.bks.cpg/sg56_2_cif.got.tgz:3695.got - 2010.06.03 13:42:01.
