data_PCOD9431326
_publ_section_title
;
Structure prediction by ZEFSAII (Michael W. Deem and Ramdas Pophale) SiO2 
 PCOD9431326
Probable space group: P C C N
;
_chemical_formula_sum "Si O2"
_cell_formula_units_Z 32
_cell_length_a 18.810671
_cell_length_b 5.134026
_cell_length_c 14.541986
_cell_angle_alpha 90.000000
_cell_angle_beta 90.000000
_cell_angle_gamma 90.000000
_cell_volume 1404.384649
_symmetry_space_group_name_H-M "P C C N"
_symmetry_group_IT_number 56
_symmetry_cell_setting 'orthorhombic'
loop_
_space_group_symop_operation_xyz
x,y,z
1/2-x,1/2-y,z
1/2+x,-y,1/2-z
-x,1/2+y,1/2-z
-x,-y,-z
1/2+x,1/2+y,-z
1/2-x,y,1/2+z
x,1/2-y,1/2+z
loop_
_atom_site_type_symbol
_atom_site_label
_atom_site_fract_x
_atom_site_fract_y
_atom_site_fract_z
Si Si1 0.397246 0.840463 0.706938
Si Si2 0.963689 0.606449 0.141982
Si Si3 0.929665 0.729522 0.456624
Si Si4 0.203799 0.989457 0.604923
O O1 0.473504 0.699585 0.709143
O O2 0.334054 0.635792 0.695047
O O3 0.397664 0.021168 0.796053
O O4 0.402915 0.007466 0.612702
O O5 0.001896 0.371009 0.087388
O O6 0.946068 0.817961 0.063386
O O7 0.863713 0.931972 0.456498
O O8 0.250000 0.250000 0.620857
O O9 0.250000 0.750000 0.566490
#
# Coordination Sequence:
#
# PCOD9431326 Si02
#       4
#     8   8   8   8
#     4  11  20  38  67  98 141 172 218 285 335 411
#     4  10  21  36  63 104 131 165 221 270 354 392
#     4  10  21  39  64  95 130 177 213 285 329 408
#     4  11  23  43  68  90 129 187 227 268 335 394
#
# _framework density 22.785782000000001
#
# number of rings (size 3 to 8) (size 9 to 14) (size 15 to 20)
#    0.000    1.500    5.000    0.750    0.000    0.000 
#    0.000    1.250    5.500    0.000    0.000    0.000 
#    0.000    0.000    0.000    0.000    0.000    0.000 
#
# Total GULP energy -178554.253227 kJ/mol
# GULP energy per Si atom -5579.820413 kJ/mol
# Density = 2.273392 g / cm^3
# Si number density = 22.785782 Si / 1000 Ang^3
#
#
#
# Elastic Constant Matrix: (Units=GPa)
#
#
# Indices 1 2 3 4 5 6 
#
# 1 87.2118 35.0016 16.8226 0.0000 0.0000 0.0000
# 2 35.0016 119.9999 24.1015 0.0000 0.0000 0.0000
# 3 16.8226 24.1015 94.9779 0.0000 0.0000 0.0000
# 4 0.0000 0.0000 0.0000 23.5886 0.0000 0.0000
# 5 0.0000 0.0000 0.0000 0.0000 8.5501 0.0000
# 6 0.0000 0.0000 0.0000 0.0000 0.0000 48.2027
#
#
#
# Elastic Compliance Matrix: (Units=1/GPa)
#
#
# Indices 1 2 3 4 5 6 
#
# 1 0.013169 -0.003554 -0.001431 0.000000 0.000000 0.000000
# 2 -0.003554 0.009740 -0.001842 0.000000 0.000000 0.000000
# 3 -0.001431 -0.001842 0.011250 0.000000 0.000000 0.000000
# 4 0.000000 0.000000 0.000000 0.042393 0.000000 0.000000
# 5 0.000000 0.000000 0.000000 0.000000 0.116957 0.000000
# 6 0.000000 0.000000 0.000000 0.000000 0.000000 0.020746
#
#
# Mechanical properties :
#
#
# Convention : Reuss Voigt Hill
#
# Bulk Modulus (GPa) = 48.76839 50.44902 49.60870
# Shear Modulus (GPa) = 21.29998 31.15256 26.22627
#
# Velocity S-wave (km/s) = 3.06075 3.70157 3.39631
# Velocity P-wave (km/s) = 5.82584 6.36062 6.09909
#
# Compressibility (1/GPa) = 0.02050509
#
# Stress axis : x y z
#
# Youngs Moduli (GPa) = 75.93861 102.67090 88.89185
#
# Poissons Ratio (x) = 0.36486 0.12717
# Poissons Ratio (y) = 0.26986 0.16375
# Poissons Ratio (z) = 0.10864 0.18914
#
# Static dielectric constant tensor:
#      x y z
#    x 1.888870 0.000000 0.000000 
#    y 0.000000 1.965410 0.000000 
#    z 0.000000 0.000000 1.892870 
# 
# From -- ./inp_files/12466.got.cif
#   From: 2010.05.17/outbox.cif.g08.bks.cpg/sg56_7_cif.got.tgz:12466.got - 2010.06.03 13:42:01.
