data_PCOD9431642
_publ_section_title
;
Structure prediction by ZEFSAII (Michael W. Deem and Ramdas Pophale) SiO2 
 PCOD9431642
Probable space group: P C C N
;
_chemical_formula_sum "Si O2"
_cell_formula_units_Z 48
_cell_length_a 5.617350
_cell_length_b 16.524690
_cell_length_c 22.374381
_cell_angle_alpha 90.000000
_cell_angle_beta 90.000000
_cell_angle_gamma 90.000000
_cell_volume 2076.901186
_symmetry_space_group_name_H-M "P C C N"
_symmetry_group_IT_number 56
_symmetry_cell_setting 'orthorhombic'
loop_
_space_group_symop_operation_xyz
x,y,z
1/2-x,1/2-y,z
1/2+x,-y,1/2-z
-x,1/2+y,1/2-z
-x,-y,-z
1/2+x,1/2+y,-z
1/2-x,y,1/2+z
x,1/2-y,1/2+z
loop_
_atom_site_type_symbol
_atom_site_label
_atom_site_fract_x
_atom_site_fract_y
_atom_site_fract_z
Si Si1 0.739594 0.154069 0.067634
Si Si2 0.861665 0.664207 0.099550
Si Si3 0.857714 0.588275 0.705950
Si Si4 0.731855 0.585305 0.983345
Si Si5 0.747746 0.444914 0.894792
Si Si6 0.910303 0.435509 0.180817
O O1 0.750000 0.250000 0.067833
O O2 0.483060 0.124868 0.039922
O O3 0.737182 0.117297 0.134523
O O4 0.990198 0.127073 0.038879
O O5 0.750000 0.750000 0.082921
O O6 0.815359 0.647579 0.169608
O O7 0.137966 0.642708 0.091174
O O8 0.746831 0.597347 0.054690
O O9 0.050317 0.571636 0.654479
O O10 0.953258 0.616570 0.769537
O O11 0.744358 0.500285 0.717435
O O12 0.715188 0.495284 0.955912
O O13 0.924802 0.506270 0.859523
#
# Coordination Sequence:
#
# PCOD9431642 Si02
#       6
#     8   8   8   8   8   8
#     4  11  23  42  68 102 133 178 229 294 353 403
#     4  11  26  43  62 101 141 182 221 281 359 426
#     4  11  21  41  67  88 134 173 228 279 344 408
#     4  11  24  45  72  99 138 181 235 286 341 420
#     4  10  22  41  69  97 124 176 234 281 336 407
#     4  10  21  40  65  95 124 171 229 286 334 402
#
# _framework density 23.111353000000001
#
# number of rings (size 3 to 8) (size 9 to 14) (size 15 to 20)
#    0.000    1.333    3.333    2.000    2.333    1.333 
#    3.000    0.000    0.000    0.000    0.000    0.000 
#    0.000    0.000    0.000    0.000    0.000    0.000 
#
# Total GULP energy -267914.814483 kJ/mol
# GULP energy per Si atom -5581.558635 kJ/mol
# Density = 2.305875 g / cm^3
# Si number density = 23.111353 Si / 1000 Ang^3
#
#
#
# Elastic Constant Matrix: (Units=GPa)
#
#
# Indices 1 2 3 4 5 6 
#
# 1 73.7700 11.0428 9.0168 0.0000 0.0000 0.0000
# 2 11.0428 61.8573 -11.8577 0.0000 0.0000 0.0000
# 3 9.0168 -11.8577 115.9980 0.0000 0.0000 0.0000
# 4 0.0000 0.0000 0.0000 10.6004 0.0000 0.0000
# 5 0.0000 0.0000 0.0000 0.0000 39.1800 0.0000
# 6 0.0000 0.0000 0.0000 0.0000 0.0000 21.6496
#
#
#
# Elastic Compliance Matrix: (Units=1/GPa)
#
#
# Indices 1 2 3 4 5 6 
#
# 1 0.014143 -0.002790 -0.001385 0.000000 0.000000 0.000000
# 2 -0.002790 0.017040 0.001959 0.000000 0.000000 0.000000
# 3 -0.001385 0.001959 0.008929 0.000000 0.000000 0.000000
# 4 0.000000 0.000000 0.000000 0.094336 0.000000 0.000000
# 5 0.000000 0.000000 0.000000 0.000000 0.025523 0.000000
# 6 0.000000 0.000000 0.000000 0.000000 0.000000 0.046190
#
#
# Mechanical properties :
#
#
# Convention : Reuss Voigt Hill
#
# Bulk Modulus (GPa) = 28.02754 29.78099 28.90427
# Shear Modulus (GPa) = 22.47334 30.51422 26.49378
#
# Velocity S-wave (km/s) = 3.12171 3.63755 3.38946
# Velocity P-wave (km/s) = 5.01467 5.52777 5.27746
#
# Compressibility (1/GPa) = 0.03567919
#
# Stress axis : x y z
#
# Youngs Moduli (GPa) = 70.70860 58.68601 111.99842
#
# Poissons Ratio (x) = 0.16374 0.15507
# Poissons Ratio (y) = 0.19729 -0.21938
# Poissons Ratio (z) = 0.09790 -0.11495
#
# Static dielectric constant tensor:
#      x y z
#    x 2.020630 0.000000 0.000000 
#    y 0.000000 1.851340 0.000000 
#    z 0.000000 0.000000 1.881790 
# 
# From -- ./inp_files/20051.got.cif
#   From: 2010.05.17/outbox.cif.g08.bks.cpg/sg56_11_cif.got.tgz:20051.got - 2010.06.03 13:42:01.
