data_PCOD9431499
_publ_section_title
;
Structure prediction by ZEFSAII (Michael W. Deem and Ramdas Pophale) SiO2 
 PCOD9431499
Probable space group: P C C N
;
_chemical_formula_sum "Si O2"
_cell_formula_units_Z 52
_cell_length_a 14.088332
_cell_length_b 17.693131
_cell_length_c 8.663332
_cell_angle_alpha 90.000000
_cell_angle_beta 90.000000
_cell_angle_gamma 90.000000
_cell_volume 2159.480210
_symmetry_space_group_name_H-M "P C C N"
_symmetry_group_IT_number 56
_symmetry_cell_setting 'orthorhombic'
loop_
_space_group_symop_operation_xyz
x,y,z
1/2-x,1/2-y,z
1/2+x,-y,1/2-z
-x,1/2+y,1/2-z
-x,-y,-z
1/2+x,1/2+y,-z
1/2-x,y,1/2+z
x,1/2-y,1/2+z
loop_
_atom_site_type_symbol
_atom_site_label
_atom_site_fract_x
_atom_site_fract_y
_atom_site_fract_z
Si Si1 0.199701 0.578691 0.008356
Si Si2 0.531430 0.328517 0.914423
Si Si3 0.347841 0.735482 0.360025
Si Si4 0.383432 0.976254 0.678704
Si Si5 0.613114 0.704192 0.533293
Si Si6 0.009268 0.933501 0.627442
Si Si7 0.250000 0.250000 0.720395
O O1 0.187841 0.667899 0.971664
O O2 0.296643 0.538569 0.061117
O O3 0.122173 0.569033 0.145643
O O4 0.163962 0.544491 0.845031
O O5 0.605526 0.303827 0.046641
O O6 0.572165 0.291189 0.757912
O O7 0.537188 0.416048 0.875922
O O8 0.434059 0.287157 0.955407
O O9 0.250000 0.750000 0.270859
O O10 0.445094 0.049749 0.722999
O O11 0.531210 0.642615 0.549977
O O12 0.686681 0.696798 0.672733
O O13 0.677248 0.702094 0.382298
O O14 0.000000 0.000000 0.500000
#
# Coordination Sequence:
#
# PCOD9431499 Si02
#       7
#     8   8   8   8   8   8   4
#     4  10  21  39  60  89 126 167 213 257 332 397
#     4  11  22  36  64  91 127 166 214 273 336 399
#     4  11  20  32  58  93 127 161 207 265 329 398
#     4  10  23  40  61  93 128 169 212 270 331 404
#     4  11  23  45  69  97 131 177 234 288 337 408
#     4  10  23  42  67  93 135 180 220 272 351 401
#     4  10  26  44  70 100 128 180 244 286 336 390
#
# _framework density 24.079868000000001
#
# number of rings (size 3 to 8) (size 9 to 14) (size 15 to 20)
#    0.000    1.538    3.077    1.385    6.462    2.462 
#    5.538    0.769    0.000    0.000    0.000    0.000 
#    0.000    0.000    0.000    0.000    0.000    0.000 
#
# Total GULP energy -290343.727475 kJ/mol
# GULP energy per Si atom -5583.533221 kJ/mol
# Density = 2.402506 g / cm^3
# Si number density = 24.079868 Si / 1000 Ang^3
#
#
#
# Elastic Constant Matrix: (Units=GPa)
#
#
# Indices 1 2 3 4 5 6 
#
# 1 98.5831 -10.6154 11.1288 0.0000 0.0000 0.0000
# 2 -10.6154 13.7704 -5.3110 0.0000 0.0000 0.0000
# 3 11.1288 -5.3110 82.1634 0.0000 0.0000 0.0000
# 4 0.0000 0.0000 0.0000 7.7890 0.0000 0.0000
# 5 0.0000 0.0000 0.0000 0.0000 24.6570 0.0000
# 6 0.0000 0.0000 0.0000 0.0000 0.0000 26.4471
#
#
#
# Elastic Compliance Matrix: (Units=1/GPa)
#
#
# Indices 1 2 3 4 5 6 
#
# 1 0.011138 0.008209 -0.000978 0.000000 0.000000 0.000000
# 2 0.008209 0.080526 0.004093 0.000000 0.000000 0.000000
# 3 -0.000978 0.004093 0.012568 0.000000 0.000000 0.000000
# 4 0.000000 0.000000 0.000000 0.128386 0.000000 0.000000
# 5 0.000000 0.000000 0.000000 0.000000 0.040557 0.000000
# 6 0.000000 0.000000 0.000000 0.000000 0.000000 0.037811
#
#
# Mechanical properties :
#
#
# Convention : Reuss Voigt Hill
#
# Bulk Modulus (GPa) = 7.88142 20.54687 14.21415
# Shear Modulus (GPa) = 15.12261 25.06624 20.09442
#
# Velocity S-wave (km/s) = 2.50875 3.22990 2.89189
# Velocity P-wave (km/s) = 3.41642 4.73930 4.13115
#
# Compressibility (1/GPa) = 0.12688063
#
# Stress axis : x y z
#
# Youngs Moduli (GPa) = 89.78215 12.41832 79.56763
#
# Poissons Ratio (x) = -0.10194 0.07782
# Poissons Ratio (y) = -0.73702 -0.32569
# Poissons Ratio (z) = 0.08781 -0.05083
#
# Static dielectric constant tensor:
#      x y z
#    x 1.966450 0.000000 0.000000 
#    y 0.000000 1.951100 0.000000 
#    z 0.000000 0.000000 1.967050 
# 
# From -- ./inp_files/3520.got.cif
#   From: 2010.05.17/outbox.cif.g08.bks.cpg/sg56_2_cif.got.tgz:3520.got - 2010.06.03 13:42:01.
