data_PCOD9431528
_publ_section_title
;
Structure prediction by ZEFSAII (Michael W. Deem and Ramdas Pophale) SiO2 
 PCOD9431528
Probable space group: P C C N
;
_chemical_formula_sum "Si O2"
_cell_formula_units_Z 48
_cell_length_a 7.389785
_cell_length_b 21.463145
_cell_length_c 11.542960
_cell_angle_alpha 90.000000
_cell_angle_beta 90.000000
_cell_angle_gamma 90.000000
_cell_volume 1830.806111
_symmetry_space_group_name_H-M "P C C N"
_symmetry_group_IT_number 56
_symmetry_cell_setting 'orthorhombic'
loop_
_space_group_symop_operation_xyz
x,y,z
1/2-x,1/2-y,z
1/2+x,-y,1/2-z
-x,1/2+y,1/2-z
-x,-y,-z
1/2+x,1/2+y,-z
1/2-x,y,1/2+z
x,1/2-y,1/2+z
loop_
_atom_site_type_symbol
_atom_site_label
_atom_site_fract_x
_atom_site_fract_y
_atom_site_fract_z
Si Si1 0.007504 0.061118 0.745625
Si Si2 0.547923 0.730476 0.088405
Si Si3 0.539763 0.256735 0.651741
Si Si4 0.868321 0.067327 0.352490
Si Si5 0.142880 0.371390 0.705685
Si Si6 0.962210 0.088999 0.988186
O O1 0.144880 0.115403 0.708705
O O2 0.795483 0.076948 0.757644
O O3 0.054931 0.001757 0.668245
O O4 0.052578 0.050259 0.882994
O O5 0.750000 0.750000 0.119051
O O6 0.512865 0.777409 0.979743
O O7 0.504918 0.660835 0.042978
O O8 0.451280 0.725439 0.212427
O O9 0.750000 0.250000 0.627234
O O10 0.407877 0.197127 0.667994
O O11 0.752838 0.077330 0.469760
O O12 0.033393 0.112883 0.322961
O O13 0.055029 0.418397 0.611545
#
# Coordination Sequence:
#
# PCOD9431528 Si02
#       6
#     8   8   8   8   8   8
#     4  10  21  39  63  91 124 163 211 261 317 385
#     4  11  22  42  65  96 130 176 217 273 328 398
#     4  11  24  40  67  95 132 173 222 268 335 393
#     4  10  21  39  63  90 125 162 211 261 317 384
#     4  11  21  44  62  89 130 167 204 274 321 382
#     4   9  23  40  60  93 128 160 217 263 315 394
#
# _framework density 26.217960999999999
#
# number of rings (size 3 to 8) (size 9 to 14) (size 15 to 20)
#    1.000    0.667    1.667    3.000    0.000    5.333 
#    3.000    1.667    0.000    0.000    0.000    0.000 
#    0.000    0.000    0.000    0.000    0.000    0.000 
#
# Total GULP energy -267324.702922 kJ/mol
# GULP energy per Si atom -5569.264644 kJ/mol
# Density = 2.615829 g / cm^3
# Si number density = 26.217961 Si / 1000 Ang^3
#
#
#
# Elastic Constant Matrix: (Units=GPa)
#
#
# Indices 1 2 3 4 5 6 
#
# 1 90.7039 -2.3155 14.5052 0.0000 0.0000 0.0000
# 2 -2.3155 45.0473 11.8822 0.0000 0.0000 0.0000
# 3 14.5052 11.8822 107.3370 0.0000 0.0000 0.0000
# 4 0.0000 0.0000 0.0000 33.8000 0.0000 0.0000
# 5 0.0000 0.0000 0.0000 0.0000 0.3749 0.0000
# 6 0.0000 0.0000 0.0000 0.0000 0.0000 6.4886
#
#
#
# Elastic Compliance Matrix: (Units=1/GPa)
#
#
# Indices 1 2 3 4 5 6 
#
# 1 0.011313 0.001014 -0.001641 0.000000 0.000000 0.000000
# 2 0.001014 0.022958 -0.002678 0.000000 0.000000 0.000000
# 3 -0.001641 -0.002678 0.009835 0.000000 0.000000 0.000000
# 4 0.000000 0.000000 0.000000 0.029586 0.000000 0.000000
# 5 0.000000 0.000000 0.000000 0.000000 2.667670 0.000000
# 6 0.000000 0.000000 0.000000 0.000000 0.000000 0.154116
#
#
# Mechanical properties :
#
#
# Convention : Reuss Voigt Hill
#
# Bulk Modulus (GPa) = 26.67019 32.35912 29.51465
# Shear Modulus (GPa) = 1.71551 22.73378 12.22465
#
# Velocity S-wave (km/s) = 0.80978 2.94786 2.16167
# Velocity P-wave (km/s) = 3.32700 4.89445 4.18477
#
# Compressibility (1/GPa) = 0.03749505
#
# Stress axis : x y z
#
# Youngs Moduli (GPa) = 88.39212 43.55871 101.68040
#
# Poissons Ratio (x) = -0.04419 0.16687
# Poissons Ratio (y) = -0.08966 0.27235
# Poissons Ratio (z) = 0.14506 0.11667
#
# Static dielectric constant tensor:
#      x y z
#    x 1.965240 0.000000 0.000000 
#    y 0.000000 2.136620 0.000000 
#    z 0.000000 0.000000 2.191150 
# 
# From -- ./inp_files/6420.got.cif
#   From: 2010.05.17/outbox.cif.g08.bks.cpg/sg56_4_cif.got.tgz:6420.got - 2010.06.03 13:42:01.
