data_PCOD9431234
_publ_section_title
;
Structure prediction by ZEFSAII (Michael W. Deem and Ramdas Pophale) SiO2 
 PCOD9431234
Probable space group: P C C N
;
_chemical_formula_sum "Si O2"
_cell_formula_units_Z 40
_cell_length_a 9.979494
_cell_length_b 6.955342
_cell_length_c 22.650235
_cell_angle_alpha 90.000000
_cell_angle_beta 90.000000
_cell_angle_gamma 90.000000
_cell_volume 1572.170790
_symmetry_space_group_name_H-M "P C C N"
_symmetry_group_IT_number 56
_symmetry_cell_setting 'orthorhombic'
loop_
_space_group_symop_operation_xyz
x,y,z
1/2-x,1/2-y,z
1/2+x,-y,1/2-z
-x,1/2+y,1/2-z
-x,-y,-z
1/2+x,1/2+y,-z
1/2-x,y,1/2+z
x,1/2-y,1/2+z
loop_
_atom_site_type_symbol
_atom_site_label
_atom_site_fract_x
_atom_site_fract_y
_atom_site_fract_z
Si Si1 0.250000 0.750000 0.120494
Si Si2 0.404886 0.304245 0.573918
Si Si3 0.250000 0.250000 0.904020
Si Si4 0.279923 0.975819 0.797665
Si Si5 0.464964 0.752872 0.036451
Si Si6 0.916743 0.950320 0.302039
O O1 0.356575 0.644845 0.077075
O O2 0.160508 0.620266 0.163295
O O3 0.250000 0.250000 0.564576
O O4 0.518780 0.206392 0.532726
O O5 0.420892 0.525894 0.550420
O O6 0.430526 0.296330 0.644505
O O7 0.235912 0.433921 0.861911
O O8 0.385177 0.266143 0.940313
O O9 0.250000 0.750000 0.797002
O O10 0.435267 0.002110 0.780712
O O11 0.175788 0.079105 0.754196
#
# Coordination Sequence:
#
# PCOD9431234 Si02
#       6
#     4   8   4   8   8   8
#     4  10  20  48  68 102 154 192 254 314 390 464
#     4  10  21  43  71 106 151 197 264 321 384 471
#     4  12  24  50  80 106 160 210 254 334 384 480
#     4  12  29  49  76 115 159 206 270 323 400 481
#     4  10  22  44  75 105 148 207 258 324 399 462
#     4  11  26  47  72 112 152 203 259 321 395 475
#
# _framework density 25.442530000000001
#
# number of rings (size 3 to 8) (size 9 to 14) (size 15 to 20)
#    0.000    1.200    6.000    0.000    7.000    0.000 
#    5.400    4.000    0.000    0.000    0.000    0.000 
#    0.000    0.000    0.000    0.000    0.000    0.000 
#
# Total GULP energy -223831.181881 kJ/mol
# GULP energy per Si atom -5595.779547 kJ/mol
# Density = 2.538462 g / cm^3
# Si number density = 25.442530 Si / 1000 Ang^3
#
#
#
# Elastic Constant Matrix: (Units=GPa)
#
#
# Indices 1 2 3 4 5 6 
#
# 1 216.1448 34.3168 41.8012 0.0000 0.0000 0.0000
# 2 34.3168 81.3620 6.6699 0.0000 0.0000 0.0000
# 3 41.8012 6.6699 96.4563 0.0000 0.0000 0.0000
# 4 0.0000 0.0000 0.0000 5.7464 0.0000 0.0000
# 5 0.0000 0.0000 0.0000 0.0000 -2.2642 0.0000
# 6 0.0000 0.0000 0.0000 0.0000 0.0000 41.7617
#
#
#
# Elastic Compliance Matrix: (Units=1/GPa)
#
#
# Indices 1 2 3 4 5 6 
#
# 1 0.005382 -0.002090 -0.002188 0.000000 0.000000 0.000000
# 2 -0.002090 0.013173 -0.000005 0.000000 0.000000 0.000000
# 3 -0.002188 -0.000005 0.011316 0.000000 0.000000 0.000000
# 4 0.000000 0.000000 0.000000 0.174023 0.000000 0.000000
# 5 0.000000 0.000000 0.000000 0.000000 -0.441652 0.000000
# 6 0.000000 0.000000 0.000000 0.000000 0.000000 0.023945
#
#
# Mechanical properties :
#
#
# Convention : Reuss Voigt Hill
#
# Bulk Modulus (GPa) = 46.93940 62.17099 54.55519
# Shear Modulus (GPa) = -25.23391 29.79379 2.27994
#
# Velocity S-wave (km/s) = -3.15270 3.42573 0.94766
# Velocity P-wave (km/s) = 2.28835 6.33533 4.76303
#
# Compressibility (1/GPa) = 0.02130407
#
# Stress axis : x y z
#
# Youngs Moduli (GPa) = 185.82176 75.91355 88.37221
#
# Poissons Ratio (x) = 0.15870 0.19332
# Poissons Ratio (y) = 0.38845 0.00044
# Poissons Ratio (z) = 0.40651 0.00038
#
# Static dielectric constant tensor:
#      x y z
#    x 1.957120 0.000000 0.000000 
#    y 0.000000 2.220710 0.000000 
#    z 0.000000 0.000000 2.039770 
# 
# From -- ./inp_files/20349.got.cif
#   From: 2010.05.17/outbox.cif.g08.bks.cpg/sg56_11_cif.got.tgz:20349.got - 2010.06.03 13:42:01.
