data_PCOD9431956
_publ_section_title
;
Structure prediction by ZEFSAII (Michael W. Deem and Ramdas Pophale) SiO2 
 PCOD9431956
Probable space group: P C C N
;
_chemical_formula_sum "Si O2"
_cell_formula_units_Z 64
_cell_length_a 15.501549
_cell_length_b 27.468109
_cell_length_c 5.675874
_cell_angle_alpha 90.000000
_cell_angle_beta 90.000000
_cell_angle_gamma 90.000000
_cell_volume 2416.777146
_symmetry_space_group_name_H-M "P C C N"
_symmetry_group_IT_number 56
_symmetry_cell_setting 'orthorhombic'
loop_
_space_group_symop_operation_xyz
x,y,z
1/2-x,1/2-y,z
1/2+x,-y,1/2-z
-x,1/2+y,1/2-z
-x,-y,-z
1/2+x,1/2+y,-z
1/2-x,y,1/2+z
x,1/2-y,1/2+z
loop_
_atom_site_type_symbol
_atom_site_label
_atom_site_fract_x
_atom_site_fract_y
_atom_site_fract_z
Si Si1 0.023283 0.694093 0.259656
Si Si2 0.542173 0.468760 0.295459
Si Si3 0.368466 0.233183 0.253745
Si Si4 0.550965 0.381060 0.608939
Si Si5 0.705258 0.433350 0.798619
Si Si6 0.394914 0.129764 0.427758
Si Si7 0.136201 0.469497 0.539692
Si Si8 0.285722 0.805133 0.444768
O O1 0.966392 0.743315 0.251304
O O2 0.956542 0.654592 0.373013
O O3 0.110831 0.697199 0.411251
O O4 0.051528 0.672431 0.004864
O O5 0.500000 0.500000 0.500000
O O6 0.569036 0.417063 0.392895
O O7 0.463002 0.460892 0.119340
O O8 0.621771 0.498940 0.195220
O O9 0.336164 0.259746 0.489277
O O10 0.353711 0.177148 0.313611
O O11 0.618107 0.401165 0.798527
O O12 0.457811 0.389865 0.722114
O O13 0.750598 0.423482 0.549295
O O14 0.680837 0.491342 0.792664
O O15 0.333669 0.085761 0.509317
O O16 0.250000 0.750000 0.452573
O O17 0.253528 0.826048 0.697914
#
# Coordination Sequence:
#
# PCOD9431956 Si02
#       8
#     8   8   8   8   8   8   8   8
#     4  11  25  39  62  87 132 165 218 280 323 378
#     4  11  19  36  66  96 122 164 205 286 330 396
#     4  10  22  38  58  89 129 162 200 260 337 374
#     4  12  23  40  65  93 128 168 226 264 340 391
#     4  12  29  46  64  90 133 180 219 276 327 393
#     4  11  23  37  67  97 118 169 213 282 337 393
#     4  11  22  40  65  95 129 161 224 274 352 408
#     4  10  25  39  57  76 107 171 231 252 305 365
#
# _framework density 26.481549000000001
#
# number of rings (size 3 to 8) (size 9 to 14) (size 15 to 20)
#    0.000    1.000    5.000    1.500   10.500    1.000 
#    0.000    0.000    0.000    0.000    0.000    0.000 
#    0.000   12.000    0.000    0.000    0.000    0.000 
#
# Total GULP energy -357917.609190 kJ/mol
# GULP energy per Si atom -5592.462644 kJ/mol
# Density = 2.642128 g / cm^3
# Si number density = 26.481549 Si / 1000 Ang^3
#
#
#
# Elastic Constant Matrix: (Units=GPa)
#
#
# Indices 1 2 3 4 5 6 
#
# 1 66.6270 3.0999 15.2010 0.0000 0.0000 0.0000
# 2 3.0999 146.2970 22.4723 0.0000 0.0000 0.0000
# 3 15.2010 22.4723 143.2055 0.0000 0.0000 0.0000
# 4 0.0000 0.0000 0.0000 51.4141 0.0000 0.0000
# 5 0.0000 0.0000 0.0000 0.0000 740.7733 0.0000
# 6 0.0000 0.0000 0.0000 0.0000 0.0000 28.7933
#
#
#
# Elastic Compliance Matrix: (Units=1/GPa)
#
#
# Indices 1 2 3 4 5 6 
#
# 1 0.015382 -0.000077 -0.001621 0.000000 0.000000 0.000000
# 2 -0.000077 0.007005 -0.001091 0.000000 0.000000 0.000000
# 3 -0.001621 -0.001091 0.007326 0.000000 0.000000 0.000000
# 4 0.000000 0.000000 0.000000 0.019450 0.000000 0.000000
# 5 0.000000 0.000000 0.000000 0.000000 0.001350 0.000000
# 6 0.000000 0.000000 0.000000 0.000000 0.000000 0.034730
#
#
# Mechanical properties :
#
#
# Convention : Reuss Voigt Hill
#
# Bulk Modulus (GPa) = 41.43245 48.63067 45.03156
# Shear Modulus (GPa) = 50.57350 185.21988 117.89669
#
# Velocity S-wave (km/s) = 4.37483 8.37227 6.67959
# Velocity P-wave (km/s) = 6.41861 10.57656 8.74820
#
# Compressibility (1/GPa) = 0.02413567
#
# Stress axis : x y z
#
# Youngs Moduli (GPa) = 65.00989 142.76274 136.49611
#
# Poissons Ratio (x) = 0.01099 0.22122
# Poissons Ratio (y) = 0.00500 0.14892
# Poissons Ratio (z) = 0.10536 0.15576
#
# Static dielectric constant tensor:
#      x y z
#    x 1.931980 0.000000 0.000000 
#    y 0.000000 2.187000 0.000000 
#    z 0.000000 0.000000 2.133130 
# 
# From -- ./inp_files/964.got.cif
#   From: 2010.05.17/outbox.cif.g08.bks.cpg/sg56_1_cif.got.tgz:964.got - 2010.06.03 13:42:01.
