data_PCOD9431362
_publ_section_title
;
Structure prediction by ZEFSAII (Michael W. Deem and Ramdas Pophale) SiO2 
 PCOD9431362
Probable space group: P C C N
;
_chemical_formula_sum "Si O2"
_cell_formula_units_Z 24
_cell_length_a 21.601653
_cell_length_b 7.338359
_cell_length_c 5.546585
_cell_angle_alpha 90.000000
_cell_angle_beta 90.000000
_cell_angle_gamma 90.000000
_cell_volume 879.248452
_symmetry_space_group_name_H-M "P C C N"
_symmetry_group_IT_number 56
_symmetry_cell_setting 'orthorhombic'
loop_
_space_group_symop_operation_xyz
x,y,z
1/2-x,1/2-y,z
1/2+x,-y,1/2-z
-x,1/2+y,1/2-z
-x,-y,-z
1/2+x,1/2+y,-z
1/2-x,y,1/2+z
x,1/2-y,1/2+z
loop_
_atom_site_type_symbol
_atom_site_label
_atom_site_fract_x
_atom_site_fract_y
_atom_site_fract_z
Si Si1 0.978024 0.790783 0.489732
Si Si2 0.384936 0.843952 0.474047
Si Si3 0.226212 0.043514 0.117919
O O1 0.944938 0.757763 0.237370
O O2 0.040436 0.665923 0.482915
O O3 0.000000 0.000000 0.500000
O O4 0.368966 0.790345 0.199493
O O5 0.345351 0.018512 0.548405
O O6 0.250000 0.250000 0.138332
O O7 0.239179 0.962444 0.382778
#
# Coordination Sequence:
#
# PCOD9431362 Si02
#       3
#     8   8   8
#     4  10  21  40  70  96 131 169 215 270 333 388
#     4  10  21  37  63  91 124 167 208 256 319 378
#     4  10  21  37  60  89 127 167 211 256 308 374
#
# _framework density 27.296042
#
# number of rings (size 3 to 8) (size 9 to 14) (size 15 to 20)
#    0.000    2.000    0.000    3.000    0.000    4.000 
#    0.000    0.000  176.000    0.000    0.000    0.000 
#    0.000    0.000    0.000    0.000    0.000    0.000 
#
# Total GULP energy -134167.096152 kJ/mol
# GULP energy per Si atom -5590.295673 kJ/mol
# Density = 2.723391 g / cm^3
# Si number density = 27.296042 Si / 1000 Ang^3
#
#
#
# Elastic Constant Matrix: (Units=GPa)
#
#
# Indices 1 2 3 4 5 6 
#
# 1 109.3946 44.0096 26.5882 0.0000 0.0000 0.0000
# 2 44.0096 109.1598 37.1596 0.0000 0.0000 0.0000
# 3 26.5882 37.1596 325.9171 0.0000 0.0000 0.0000
# 4 0.0000 0.0000 0.0000 39.1402 0.0000 0.0000
# 5 0.0000 0.0000 0.0000 0.0000 46.1400 0.0000
# 6 0.0000 0.0000 0.0000 0.0000 0.0000 52.3768
#
#
#
# Elastic Compliance Matrix: (Units=1/GPa)
#
#
# Indices 1 2 3 4 5 6 
#
# 1 0.010962 -0.004281 -0.000406 0.000000 0.000000 0.000000
# 2 -0.004281 0.011203 -0.000928 0.000000 0.000000 0.000000
# 3 -0.000406 -0.000928 0.003207 0.000000 0.000000 0.000000
# 4 0.000000 0.000000 0.000000 0.025549 0.000000 0.000000
# 5 0.000000 0.000000 0.000000 0.000000 0.021673 0.000000
# 6 0.000000 0.000000 0.000000 0.000000 0.000000 0.019092
#
#
# Mechanical properties :
#
#
# Convention : Reuss Voigt Hill
#
# Bulk Modulus (GPa) = 70.71481 84.44290 77.57886
# Shear Modulus (GPa) = 46.45452 56.64568 51.55010
#
# Velocity S-wave (km/s) = 4.12986 4.56042 4.35047
# Velocity P-wave (km/s) = 6.97881 7.66374 7.32928
#
# Compressibility (1/GPa) = 0.01414131
#
# Stress axis : x y z
#
# Youngs Moduli (GPa) = 91.22134 89.26250 311.79760
#
# Poissons Ratio (x) = 0.38217 0.12664
# Poissons Ratio (y) = 0.39055 0.28936
# Poissons Ratio (z) = 0.03705 0.08284
#
# Static dielectric constant tensor:
#      x y z
#    x 2.089400 0.000000 0.000000 
#    y 0.000000 2.092900 0.000000 
#    z 0.000000 0.000000 2.199010 
# 
# From -- ./inp_files/81.got.cif
#   From: 2010.05.17/outbox.cif.g08.bks.cpg/sg56_1_cif.got.tgz:81.got - 2010.06.03 13:42:01.
