data_PCOD9431610
_publ_section_title
;
Structure prediction by ZEFSAII (Michael W. Deem and Ramdas Pophale) SiO2 
 PCOD9431610
Probable space group: P C C N
;
_chemical_formula_sum "Si O2"
_cell_formula_units_Z 32
_cell_length_a 9.410603
_cell_length_b 5.466382
_cell_length_c 26.650424
_cell_angle_alpha 90.000000
_cell_angle_beta 90.000000
_cell_angle_gamma 90.000000
_cell_volume 1370.949801
_symmetry_space_group_name_H-M "P C C N"
_symmetry_group_IT_number 56
_symmetry_cell_setting 'orthorhombic'
loop_
_space_group_symop_operation_xyz
x,y,z
1/2-x,1/2-y,z
1/2+x,-y,1/2-z
-x,1/2+y,1/2-z
-x,-y,-z
1/2+x,1/2+y,-z
1/2-x,y,1/2+z
x,1/2-y,1/2+z
loop_
_atom_site_type_symbol
_atom_site_label
_atom_site_fract_x
_atom_site_fract_y
_atom_site_fract_z
Si Si1 0.579693 0.247348 0.518023
Si Si2 0.817810 0.499571 0.831892
Si Si3 0.915468 0.269616 0.637755
Si Si4 0.429735 0.471796 0.766708
O O1 0.750000 0.250000 0.504428
O O2 0.500000 0.500000 0.500000
O O3 0.571971 0.223159 0.578359
O O4 0.500000 0.000000 0.500000
O O5 0.750000 0.250000 0.851681
O O6 0.795672 0.504223 0.771212
O O7 0.982720 0.549372 0.844684
O O8 0.750000 0.750000 0.852941
O O9 0.750000 0.250000 0.650486
O O10 0.946248 0.501837 0.673411
O O11 0.491601 0.215083 0.751273
#
# Coordination Sequence:
#
# PCOD9431610 Si02
#       4
#     8   8   8   8
#     4  11  26  49  73 101 134 176 229 289 349 407
#     4  11  23  41  64  98 136 177 220 265 324 398
#     4  10  24  44  69  98 133 176 223 274 336 400
#     4  10  21  40  62  93 134 175 216 264 320 393
#
# _framework density 23.341483
#
# number of rings (size 3 to 8) (size 9 to 14) (size 15 to 20)
#    0.000    1.500    0.000    4.500    0.000   13.000 
#    0.000   16.250    0.000    0.000    0.000    0.000 
#    0.000    0.000    0.000    0.000    0.000    0.000 
#
# Total GULP energy -178135.111840 kJ/mol
# GULP energy per Si atom -5566.722245 kJ/mol
# Density = 2.328836 g / cm^3
# Si number density = 23.341483 Si / 1000 Ang^3
#
#
#
# Elastic Constant Matrix: (Units=GPa)
#
#
# Indices 1 2 3 4 5 6 
#
# 1 164.1430 115.8317 40.0852 0.0000 0.0000 0.0000
# 2 115.8317 211.4976 31.9729 0.0000 0.0000 0.0000
# 3 40.0852 31.9729 60.7169 0.0000 0.0000 0.0000
# 4 0.0000 0.0000 0.0000 64.4948 0.0000 0.0000
# 5 0.0000 0.0000 0.0000 0.0000 34.1879 0.0000
# 6 0.0000 0.0000 0.0000 0.0000 0.0000 42.7176
#
#
#
# Elastic Compliance Matrix: (Units=1/GPa)
#
#
# Indices 1 2 3 4 5 6 
#
# 1 0.010919 -0.005313 -0.004411 0.000000 0.000000 0.000000
# 2 -0.005313 0.007723 -0.000559 0.000000 0.000000 0.000000
# 3 -0.004411 -0.000559 0.019676 0.000000 0.000000 0.000000
# 4 0.000000 0.000000 0.000000 0.015505 0.000000 0.000000
# 5 0.000000 0.000000 0.000000 0.000000 0.029250 0.000000
# 6 0.000000 0.000000 0.000000 0.000000 0.000000 0.023410
#
#
# Mechanical properties :
#
#
# Convention : Reuss Voigt Hill
#
# Bulk Modulus (GPa) = 56.33180 90.23746 73.28463
# Shear Modulus (GPa) = 37.60391 44.84456 41.22423
#
# Velocity S-wave (km/s) = 4.01812 4.38795 4.20710
# Velocity P-wave (km/s) = 6.76116 8.02594 7.42055
#
# Compressibility (1/GPa) = 0.01775196
#
# Stress axis : x y z
#
# Youngs Moduli (GPa) = 91.58588 129.49127 50.82305
#
# Poissons Ratio (x) = 0.68800 0.22416
# Poissons Ratio (y) = 0.48661 0.02840
# Poissons Ratio (z) = 0.40396 0.07237
#
# Static dielectric constant tensor:
#      x y z
#    x 2.146620 0.000000 0.000000 
#    y 0.000000 1.898010 0.000000 
#    z 0.000000 0.000000 1.984730 
# 
# From -- ./inp_files/23086.got.cif
#   From: 2010.05.17/outbox.cif.g08.bks.cpg/sg56_12_cif.got.tgz:23086.got - 2010.06.03 13:42:01.
