data_PCOD9431853
_publ_section_title
;
Structure prediction by ZEFSAII (Michael W. Deem and Ramdas Pophale) SiO2 
 PCOD9431853
Probable space group: P C C N
;
_chemical_formula_sum "Si O2"
_cell_formula_units_Z 24
_cell_length_a 12.529144
_cell_length_b 7.321218
_cell_length_c 10.745701
_cell_angle_alpha 90.000000
_cell_angle_beta 90.000000
_cell_angle_gamma 90.000000
_cell_volume 985.688050
_symmetry_space_group_name_H-M "P C C N"
_symmetry_group_IT_number 56
_symmetry_cell_setting 'orthorhombic'
loop_
_space_group_symop_operation_xyz
x,y,z
1/2-x,1/2-y,z
1/2+x,-y,1/2-z
-x,1/2+y,1/2-z
-x,-y,-z
1/2+x,1/2+y,-z
1/2-x,y,1/2+z
x,1/2-y,1/2+z
loop_
_atom_site_type_symbol
_atom_site_label
_atom_site_fract_x
_atom_site_fract_y
_atom_site_fract_z
Si Si1 0.309298 0.938644 0.208641
Si Si2 0.022705 0.802201 0.553162
Si Si3 0.827684 0.525363 0.523312
O O1 0.250000 0.750000 0.221684
O O2 0.431608 0.869206 0.188005
O O3 0.285160 0.038467 0.336807
O O4 0.258769 0.036767 0.087283
O O5 0.117477 0.675420 0.496474
O O6 0.921049 0.675712 0.527104
O O7 0.000000 0.000000 0.500000
#
# Coordination Sequence:
#
# PCOD9431853 Si02
#       3
#     8   8   8
#     4  10  21  43  71 100 146 186 237 296 362 424
#     4  10  23  42  69 106 138 185 241 291 356 431
#     4  10  23  45  70 102 144 187 233 303 359 425
#
# _framework density 24.348474
#
# number of rings (size 3 to 8) (size 9 to 14) (size 15 to 20)
#    0.000    2.000    0.000    3.000    4.667    1.333 
#    6.000   10.000    0.000    0.000    0.000    0.000 
#    0.000    0.000    0.000    0.000    0.000    0.000 
#
# Total GULP energy -133783.404106 kJ/mol
# GULP energy per Si atom -5574.308504 kJ/mol
# Density = 2.429306 g / cm^3
# Si number density = 24.348474 Si / 1000 Ang^3
#
#
#
# Elastic Constant Matrix: (Units=GPa)
#
#
# Indices 1 2 3 4 5 6 
#
# 1 77.3428 35.1117 51.7865 0.0000 0.0000 0.0000
# 2 35.1117 151.4169 39.6624 0.0000 0.0000 0.0000
# 3 51.7865 39.6624 178.9476 0.0000 0.0000 0.0000
# 4 0.0000 0.0000 0.0000 -9.2796 0.0000 0.0000
# 5 0.0000 0.0000 0.0000 0.0000 10.1454 0.0000
# 6 0.0000 0.0000 0.0000 0.0000 0.0000 36.9973
#
#
#
# Elastic Compliance Matrix: (Units=1/GPa)
#
#
# Indices 1 2 3 4 5 6 
#
# 1 0.017112 -0.002835 -0.004324 0.000000 0.000000 0.000000
# 2 -0.002835 0.007481 -0.000838 0.000000 0.000000 0.000000
# 3 -0.004324 -0.000838 0.007025 0.000000 0.000000 0.000000
# 4 0.000000 0.000000 0.000000 -0.107763 0.000000 0.000000
# 5 0.000000 0.000000 0.000000 0.000000 0.098566 0.000000
# 6 0.000000 0.000000 0.000000 0.000000 0.000000 0.027029
#
#
# Mechanical properties :
#
#
# Convention : Reuss Voigt Hill
#
# Bulk Modulus (GPa) = 64.00121 73.42537 68.71329
# Shear Modulus (GPa) = 70.76958 26.31575 48.54267
#
# Velocity S-wave (km/s) = 5.39707 3.29111 4.46989
# Velocity P-wave (km/s) = 8.07344 6.68307 7.41093
#
# Compressibility (1/GPa) = 0.01562470
#
# Stress axis : x y z
#
# Youngs Moduli (GPa) = 58.43994 133.66871 142.34710
#
# Poissons Ratio (x) = 0.37901 0.61544
# Poissons Ratio (y) = 0.16570 0.11923
# Poissons Ratio (z) = 0.25267 0.11196
#
# Static dielectric constant tensor:
#      x y z
#    x 2.237250 0.000000 0.000000 
#    y 0.000000 1.928700 0.000000 
#    z 0.000000 0.000000 2.049470 
# 
# From -- ./inp_files/1786.got.cif
#   From: 2010.05.17/outbox.cif.g08.bks.cpg/sg56_1_cif.got.tgz:1786.got - 2010.06.03 13:42:01.
