data_PCOD9431027
_publ_section_title
;
Structure prediction by ZEFSAII (Michael W. Deem and Ramdas Pophale) SiO2 
 PCOD9431027
Probable space group: P C C N
;
_chemical_formula_sum "Si O2"
_cell_formula_units_Z 48
_cell_length_a 13.319830
_cell_length_b 12.054750
_cell_length_c 17.277143
_cell_angle_alpha 90.000000
_cell_angle_beta 90.000000
_cell_angle_gamma 90.000000
_cell_volume 2774.142833
_symmetry_space_group_name_H-M "P C C N"
_symmetry_group_IT_number 56
_symmetry_cell_setting 'orthorhombic'
loop_
_space_group_symop_operation_xyz
x,y,z
1/2-x,1/2-y,z
1/2+x,-y,1/2-z
-x,1/2+y,1/2-z
-x,-y,-z
1/2+x,1/2+y,-z
1/2-x,y,1/2+z
x,1/2-y,1/2+z
loop_
_atom_site_type_symbol
_atom_site_label
_atom_site_fract_x
_atom_site_fract_y
_atom_site_fract_z
Si Si1 0.177586 0.646231 0.102357
Si Si2 0.412686 0.256672 0.645718
Si Si3 0.759278 0.924713 0.834278
Si Si4 0.604001 0.308095 0.235490
Si Si5 0.440717 0.596509 0.454792
Si Si6 0.300800 0.575324 0.307617
O O1 0.250000 0.750000 0.112243
O O2 0.233973 0.529267 0.111796
O O3 0.104970 0.648964 0.176916
O O4 0.124440 0.654802 0.020669
O O5 0.337135 0.157806 0.624654
O O6 0.341262 0.352678 0.680932
O O7 0.493805 0.200764 0.701754
O O8 0.478646 0.318842 0.581302
O O9 0.799977 0.974744 0.753377
O O10 0.684069 0.383374 0.187088
O O11 0.646701 0.182691 0.231500
O O12 0.500000 0.500000 0.500000
O O13 0.364537 0.557579 0.386094
#
# Coordination Sequence:
#
# PCOD9431027 Si02
#       6
#     8   8   8   8   8   8
#     4  11  21  39  62  84 118 158 193 240 298 350
#     4  10  22  36  60  87 117 152 198 242 297 345
#     4  10  20  40  59  82 117 156 194 247 286 350
#     4   9  18  36  59  87 111 153 202 239 277 358
#     4  11  23  37  61  90 121 158 190 243 306 361
#     4   9  19  36  58  86 113 153 197 239 286 344
#
# _framework density 17.302643
#
# number of rings (size 3 to 8) (size 9 to 14) (size 15 to 20)
#    0.000    2.000    5.000    0.000    7.000    1.333 
#    0.000    2.500    0.000    0.000    0.000    0.000 
#    0.000    0.000    0.000    0.000    0.000    0.000 
#
# Total GULP energy -267264.944188 kJ/mol
# GULP energy per Si atom -5568.019671 kJ/mol
# Density = 1.726326 g / cm^3
# Si number density = 17.302643 Si / 1000 Ang^3
#
#
#
# Elastic Constant Matrix: (Units=GPa)
#
#
# Indices 1 2 3 4 5 6 
#
# 1 98.5626 40.1175 49.4803 0.0000 0.0000 0.0000
# 2 40.1175 91.3793 32.7193 0.0000 0.0000 0.0000
# 3 49.4803 32.7193 108.4860 0.0000 0.0000 0.0000
# 4 0.0000 0.0000 0.0000 17.6813 0.0000 0.0000
# 5 0.0000 0.0000 0.0000 0.0000 18.6676 0.0000
# 6 0.0000 0.0000 0.0000 0.0000 0.0000 22.5975
#
#
#
# Elastic Compliance Matrix: (Units=1/GPa)
#
#
# Indices 1 2 3 4 5 6 
#
# 1 0.014661 -0.004532 -0.005320 0.000000 0.000000 0.000000
# 2 -0.004532 0.013669 -0.002056 0.000000 0.000000 0.000000
# 3 -0.005320 -0.002056 0.012264 0.000000 0.000000 0.000000
# 4 0.000000 0.000000 0.000000 0.056557 0.000000 0.000000
# 5 0.000000 0.000000 0.000000 0.000000 0.053569 0.000000
# 6 0.000000 0.000000 0.000000 0.000000 0.000000 0.044253
#
#
# Mechanical properties :
#
#
# Convention : Reuss Voigt Hill
#
# Bulk Modulus (GPa) = 59.59683 60.34022 59.96852
# Shear Modulus (GPa) = 22.28354 23.53000 22.90677
#
# Velocity S-wave (km/s) = 3.59258 3.69169 3.64247
# Velocity P-wave (km/s) = 7.19218 7.28839 7.24044
#
# Compressibility (1/GPa) = 0.01677942
#
# Stress axis : x y z
#
# Youngs Moduli (GPa) = 68.20740 73.15861 81.53738
#
# Poissons Ratio (x) = 0.33153 0.43380
# Poissons Ratio (y) = 0.30909 0.16761
# Poissons Ratio (z) = 0.36288 0.15039
#
# Static dielectric constant tensor:
#      x y z
#    x 1.647790 0.000000 0.000000 
#    y 0.000000 1.617990 0.000000 
#    z 0.000000 0.000000 1.590310 
# 
# From -- ./inp_files/15616.got.cif
#   From: 2010.05.17/outbox.cif.g08.bks.cpg/sg56_8_cif.got.tgz:15616.got - 2010.06.03 13:42:01.
