data_PCOD9431122
_publ_section_title
;
Structure prediction by ZEFSAII (Michael W. Deem and Ramdas Pophale) SiO2 
 PCOD9431122
Probable space group: P C C N
;
_chemical_formula_sum "Si O2"
_cell_formula_units_Z 56
_cell_length_a 13.687078
_cell_length_b 8.569251
_cell_length_c 24.031971
_cell_angle_alpha 90.000000
_cell_angle_beta 90.000000
_cell_angle_gamma 90.000000
_cell_volume 2818.661979
_symmetry_space_group_name_H-M "P C C N"
_symmetry_group_IT_number 56
_symmetry_cell_setting 'orthorhombic'
loop_
_space_group_symop_operation_xyz
x,y,z
1/2-x,1/2-y,z
1/2+x,-y,1/2-z
-x,1/2+y,1/2-z
-x,-y,-z
1/2+x,1/2+y,-z
1/2-x,y,1/2+z
x,1/2-y,1/2+z
loop_
_atom_site_type_symbol
_atom_site_label
_atom_site_fract_x
_atom_site_fract_y
_atom_site_fract_z
Si Si1 0.891367 0.068660 0.726238
Si Si2 0.437636 0.929336 0.277955
Si Si3 0.721130 0.569088 0.286802
Si Si4 0.193773 0.082136 0.591890
Si Si5 0.662885 0.139135 0.613663
Si Si6 0.042007 0.933559 0.400271
Si Si7 0.711510 0.572523 0.532889
O O1 0.914334 0.249971 0.735276
O O2 0.923338 0.028016 0.663175
O O3 0.781121 0.028293 0.741477
O O4 0.949205 0.964242 0.771133
O O5 0.393718 0.954630 0.338888
O O6 0.389040 0.044476 0.233423
O O7 0.750000 0.750000 0.284477
O O8 0.730458 0.508705 0.350028
O O9 0.250000 0.250000 0.591579
O O10 0.215123 0.015225 0.530930
O O11 0.074969 0.080154 0.595934
O O12 0.750000 0.250000 0.637748
O O13 0.586305 0.261413 0.588204
O O14 0.716251 0.030289 0.570115
O O15 0.102341 0.047829 0.441488
O O16 0.750000 0.750000 0.535282
#
# Coordination Sequence:
#
# PCOD9431122 Si02
#       7
#     8   8   8   8   8   8   8
#     4  11  23  36  62  90 122 157 201 245 303 376
#     4  11  21  38  57  89 121 153 201 241 302 363
#     4  11  22  38  60  86 124 165 193 251 309 364
#     4  10  22  39  62  86 123 164 203 248 310 365
#     4   9  20  37  61  85 115 157 199 240 300 365
#     4  10  20  41  64  87 119 164 201 241 312 369
#     4  10  21  39  63  92 118 153 210 258 297 357
#
# _framework density 19.867581000000001
#
# number of rings (size 3 to 8) (size 9 to 14) (size 15 to 20)
#    0.000    1.714    1.429    4.286    6.000    3.429 
#    0.000    7.143    0.000    0.000    0.000    0.000 
#    0.000    0.000    0.000    0.000    0.000    0.000 
#
# Total GULP energy -312162.745051 kJ/mol
# GULP energy per Si atom -5574.334733 kJ/mol
# Density = 1.982236 g / cm^3
# Si number density = 19.867581 Si / 1000 Ang^3
#
#
#
# Elastic Constant Matrix: (Units=GPa)
#
#
# Indices 1 2 3 4 5 6 
#
# 1 66.5639 15.9642 16.4178 0.0000 0.0000 0.0000
# 2 15.9642 43.4852 38.0834 0.0000 0.0000 0.0000
# 3 16.4178 38.0834 108.2056 0.0000 0.0000 0.0000
# 4 0.0000 0.0000 0.0000 16.5328 0.0000 0.0000
# 5 0.0000 0.0000 0.0000 0.0000 30.1721 0.0000
# 6 0.0000 0.0000 0.0000 0.0000 0.0000 32.8390
#
#
#
# Elastic Compliance Matrix: (Units=1/GPa)
#
#
# Indices 1 2 3 4 5 6 
#
# 1 0.016495 -0.005585 -0.000537 0.000000 0.000000 0.000000
# 2 -0.005585 0.035134 -0.011518 0.000000 0.000000 0.000000
# 3 -0.000537 -0.011518 0.013377 0.000000 0.000000 0.000000
# 4 0.000000 0.000000 0.000000 0.060486 0.000000 0.000000
# 5 0.000000 0.000000 0.000000 0.000000 0.033143 0.000000
# 6 0.000000 0.000000 0.000000 0.000000 0.000000 0.030452
#
#
# Mechanical properties :
#
#
# Convention : Reuss Voigt Hill
#
# Bulk Modulus (GPa) = 33.64138 39.90949 36.77544
# Shear Modulus (GPa) = 21.34230 25.76139 23.55185
#
# Velocity S-wave (km/s) = 3.28110 3.60482 3.44676
# Velocity P-wave (km/s) = 5.59676 6.12026 5.86435
#
# Compressibility (1/GPa) = 0.02972530
#
# Stress axis : x y z
#
# Youngs Moduli (GPa) = 60.62383 28.46235 74.75520
#
# Poissons Ratio (x) = 0.15897 0.04014
# Poissons Ratio (y) = 0.33861 0.86104
# Poissons Ratio (z) = 0.03255 0.32783
#
# Static dielectric constant tensor:
#      x y z
#    x 1.701720 0.000000 0.000000 
#    y 0.000000 1.681520 0.000000 
#    z 0.000000 0.000000 1.715380 
# 
# From -- ./inp_files/19142.got.cif
#   From: 2010.05.17/outbox.cif.g08.bks.cpg/sg56_10_cif.got.tgz:19142.got - 2010.06.03 13:42:01.
