data_PCOD9431663
_publ_section_title
;
Structure prediction by ZEFSAII (Michael W. Deem and Ramdas Pophale) SiO2 
 PCOD9431663
Probable space group: P C C N
;
_chemical_formula_sum "Si O2"
_cell_formula_units_Z 40
_cell_length_a 11.233405
_cell_length_b 7.971102
_cell_length_c 18.789619
_cell_angle_alpha 90.000000
_cell_angle_beta 90.000000
_cell_angle_gamma 90.000000
_cell_volume 1682.471659
_symmetry_space_group_name_H-M "P C C N"
_symmetry_group_IT_number 56
_symmetry_cell_setting 'orthorhombic'
loop_
_space_group_symop_operation_xyz
x,y,z
1/2-x,1/2-y,z
1/2+x,-y,1/2-z
-x,1/2+y,1/2-z
-x,-y,-z
1/2+x,1/2+y,-z
1/2-x,y,1/2+z
x,1/2-y,1/2+z
loop_
_atom_site_type_symbol
_atom_site_label
_atom_site_fract_x
_atom_site_fract_y
_atom_site_fract_z
Si Si1 0.977969 0.105212 0.669789
Si Si2 0.845348 0.361162 0.378158
Si Si3 0.171738 0.399158 0.051678
Si Si4 0.565149 0.017904 0.688171
Si Si5 0.906904 0.707818 0.103182
O O1 0.050476 0.107332 0.596060
O O2 0.915286 0.283750 0.682680
O O3 0.069222 0.060061 0.733272
O O4 0.897929 0.939216 0.661204
O O5 0.750000 0.250000 0.334870
O O6 0.761328 0.445928 0.436799
O O7 0.924349 0.490351 0.333008
O O8 0.951797 0.246956 0.408515
O O9 0.250000 0.250000 0.083358
O O10 0.145053 0.355135 0.970424
O O11 0.631845 0.889357 0.634542
#
# Coordination Sequence:
#
# PCOD9431663 Si02
#       5
#     8   8   8   8   8
#     4  12  21  41  70  96 135 184 226 290 351 408
#     4  10  21  40  67  98 134 179 233 276 346 426
#     4  12  23  42  70 100 137 189 231 282 363 420
#     4  10  22  41  68  97 134 183 232 284 353 415
#     4  10  24  42  68  99 141 176 235 292 342 421
#
# _framework density 23.774545
#
# number of rings (size 3 to 8) (size 9 to 14) (size 15 to 20)
#    1.200    0.000    6.000    0.600    0.000    3.200 
#    0.000    3.000    4.400    0.000    0.000    0.000 
#    0.000    0.000    0.000    0.000    0.000    0.000 
#
# Total GULP energy -222909.676892 kJ/mol
# GULP energy per Si atom -5572.741922 kJ/mol
# Density = 2.372043 g / cm^3
# Si number density = 23.774545 Si / 1000 Ang^3
#
#
#
# Elastic Constant Matrix: (Units=GPa)
#
#
# Indices 1 2 3 4 5 6 
#
# 1 62.3570 11.3786 3.5956 0.0000 0.0000 0.0000
# 2 11.3786 185.1057 34.8913 0.0000 0.0000 0.0000
# 3 3.5956 34.8913 122.0802 0.0000 0.0000 0.0000
# 4 0.0000 0.0000 0.0000 25.1329 0.0000 0.0000
# 5 0.0000 0.0000 0.0000 0.0000 8.3884 0.0000
# 6 0.0000 0.0000 0.0000 0.0000 0.0000 -0.8958
#
#
#
# Elastic Compliance Matrix: (Units=1/GPa)
#
#
# Indices 1 2 3 4 5 6 
#
# 1 0.016223 -0.000959 -0.000204 0.000000 0.000000 0.000000
# 2 -0.000959 0.005767 -0.001620 0.000000 0.000000 0.000000
# 3 -0.000204 -0.001620 0.008660 0.000000 0.000000 0.000000
# 4 0.000000 0.000000 0.000000 0.039788 0.000000 0.000000
# 5 0.000000 0.000000 0.000000 0.000000 0.119212 0.000000
# 6 0.000000 0.000000 0.000000 0.000000 0.000000 -1.116262
#
#
# Mechanical properties :
#
#
# Convention : Reuss Voigt Hill
#
# Bulk Modulus (GPa) = 39.86403 52.14156 46.00280
# Shear Modulus (GPa) = -5.47834 27.83693 11.17930
#
# Velocity S-wave (km/s) = -1.51963 3.42551 2.17081
# Velocity P-wave (km/s) = 3.70471 6.13391 5.06703
#
# Compressibility (1/GPa) = 0.02508527
#
# Stress axis : x y z
#
# Youngs Moduli (GPa) = 61.63936 173.41242 115.46927
#
# Poissons Ratio (x) = 0.16628 0.02353
# Poissons Ratio (y) = 0.05910 0.18705
# Poissons Ratio (z) = 0.01256 0.28091
#
# Static dielectric constant tensor:
#      x y z
#    x 1.988340 0.000000 0.000000 
#    y 0.000000 2.022140 0.000000 
#    z 0.000000 0.000000 1.869930 
# 
# From -- ./inp_files/16068.got.cif
#   From: 2010.05.17/outbox.cif.g08.bks.cpg/sg56_9_cif.got.tgz:16068.got - 2010.06.03 13:42:01.
