data_PCOD9431485
_publ_section_title
;
Structure prediction by ZEFSAII (Michael W. Deem and Ramdas Pophale) SiO2 
 PCOD9431485
Probable space group: P C C N
;
_chemical_formula_sum "Si O2"
_cell_formula_units_Z 36
_cell_length_a 31.918566
_cell_length_b 5.230544
_cell_length_c 8.983602
_cell_angle_alpha 90.000000
_cell_angle_beta 90.000000
_cell_angle_gamma 90.000000
_cell_volume 1499.825505
_symmetry_space_group_name_H-M "P C C N"
_symmetry_group_IT_number 56
_symmetry_cell_setting 'orthorhombic'
loop_
_space_group_symop_operation_xyz
x,y,z
1/2-x,1/2-y,z
1/2+x,-y,1/2-z
-x,1/2+y,1/2-z
-x,-y,-z
1/2+x,1/2+y,-z
1/2-x,y,1/2+z
x,1/2-y,1/2+z
loop_
_atom_site_type_symbol
_atom_site_label
_atom_site_fract_x
_atom_site_fract_y
_atom_site_fract_z
Si Si1 0.292355 0.322893 0.872779
Si Si2 0.047399 0.037072 0.556868
Si Si3 0.250000 0.750000 0.664698
Si Si4 0.330417 0.971306 0.621707
Si Si5 0.922732 0.053895 0.772769
O O1 0.250000 0.250000 0.963418
O O2 0.273873 0.545651 0.769449
O O3 0.308012 0.111327 0.757340
O O4 0.332811 0.354211 0.976710
O O5 0.053628 0.809880 0.676167
O O6 0.926167 0.495802 0.096000
O O7 0.059491 0.306178 0.636430
O O8 0.000000 0.000000 0.500000
O O9 0.208859 0.696116 0.564098
O O10 0.375067 0.886778 0.676159
#
# Coordination Sequence:
#
# PCOD9431485 Si02
#       5
#     8   8   4   8   8
#     4  10  21  39  58  87 124 177 225 278 340 406
#     4  12  26  50  76 111 147 192 238 303 381 449
#     4  10  22  36  64  86 130 176 224 280 342 406
#     4  11  24  39  63  92 133 173 235 282 350 409
#     4  12  27  45  78 108 148 188 244 303 361 445
#
# _framework density 24.002793
#
# number of rings (size 3 to 8) (size 9 to 14) (size 15 to 20)
#    0.000    0.889    0.000    7.333    6.222    1.778 
#    0.000    0.000    0.000    0.000    0.000    0.000 
#    0.000    0.000    0.000    0.000    0.000    0.000 
#
# Total GULP energy -200673.198046 kJ/mol
# GULP energy per Si atom -5574.255501 kJ/mol
# Density = 2.394816 g / cm^3
# Si number density = 24.002793 Si / 1000 Ang^3
#
#
#
# Elastic Constant Matrix: (Units=GPa)
#
#
# Indices 1 2 3 4 5 6 
#
# 1 75.5469 6.9493 -29.7705 0.0000 0.0000 0.0000
# 2 6.9493 60.8623 -3.9402 0.0000 0.0000 0.0000
# 3 -29.7705 -3.9402 71.8894 0.0000 0.0000 0.0000
# 4 0.0000 0.0000 0.0000 14.9300 0.0000 0.0000
# 5 0.0000 0.0000 0.0000 0.0000 -15.9938 0.0000
# 6 0.0000 0.0000 0.0000 0.0000 0.0000 30.7185
#
#
#
# Elastic Compliance Matrix: (Units=1/GPa)
#
#
# Indices 1 2 3 4 5 6 
#
# 1 0.015936 -0.001397 0.006523 0.000000 0.000000 0.000000
# 2 -0.001397 0.016612 0.000332 0.000000 0.000000 0.000000
# 3 0.006523 0.000332 0.016630 0.000000 0.000000 0.000000
# 4 0.000000 0.000000 0.000000 0.066979 0.000000 0.000000
# 5 0.000000 0.000000 0.000000 0.000000 -0.062524 0.000000
# 6 0.000000 0.000000 0.000000 0.000000 0.000000 0.032554
#
#
# Mechanical properties :
#
#
# Convention : Reuss Voigt Hill
#
# Bulk Modulus (GPa) = 16.64137 17.19730 16.91934
# Shear Modulus (GPa) = 52.46515 21.60161 37.03338
#
# Velocity S-wave (km/s) = 4.68032 3.00319 3.93221
# Velocity P-wave (km/s) = 6.01293 4.38244 5.26123
#
# Compressibility (1/GPa) = 0.06009122
#
# Stress axis : x y z
#
# Youngs Moduli (GPa) = 62.75218 60.19910 60.13383
#
# Poissons Ratio (x) = 0.08411 -0.39223
# Poissons Ratio (y) = 0.08768 -0.01995
# Poissons Ratio (z) = -0.40931 -0.01998
#
# Static dielectric constant tensor:
#      x y z
#    x 2.171640 0.000000 0.000000 
#    y 0.000000 3.263010 0.000000 
#    z 0.000000 0.000000 2.252470 
# 
# From -- ./inp_files/8798.got.cif
#   From: 2010.05.17/outbox.cif.g08.bks.cpg/sg56_5_cif.got.tgz:8798.got - 2010.06.03 13:42:01.
