data_PCOD9431223
_publ_section_title
;
Structure prediction by ZEFSAII (Michael W. Deem and Ramdas Pophale) SiO2 
 PCOD9431223
Probable space group: P C C N
;
_chemical_formula_sum "Si O2"
_cell_formula_units_Z 48
_cell_length_a 11.912749
_cell_length_b 13.101265
_cell_length_c 12.929350
_cell_angle_alpha 90.000000
_cell_angle_beta 90.000000
_cell_angle_gamma 90.000000
_cell_volume 2017.910567
_symmetry_space_group_name_H-M "P C C N"
_symmetry_group_IT_number 56
_symmetry_cell_setting 'orthorhombic'
loop_
_space_group_symop_operation_xyz
x,y,z
1/2-x,1/2-y,z
1/2+x,-y,1/2-z
-x,1/2+y,1/2-z
-x,-y,-z
1/2+x,1/2+y,-z
1/2-x,y,1/2+z
x,1/2-y,1/2+z
loop_
_atom_site_type_symbol
_atom_site_label
_atom_site_fract_x
_atom_site_fract_y
_atom_site_fract_z
Si Si1 0.360855 0.319454 0.507922
Si Si2 0.312223 0.641155 0.003936
Si Si3 0.133389 0.813673 0.234545
Si Si4 0.007400 0.330913 0.637250
Si Si5 0.825220 0.499732 0.118407
Si Si6 0.246164 0.369808 0.712562
O O1 0.250000 0.250000 0.482848
O O2 0.457043 0.243329 0.542616
O O3 0.392731 0.401765 0.422196
O O4 0.328042 0.375203 0.615506
O O5 0.250000 0.750000 0.985977
O O6 0.402068 0.615444 0.914605
O O7 0.221524 0.553822 0.984180
O O8 0.363792 0.646370 0.117685
O O9 0.250000 0.750000 0.248000
O O10 0.125495 0.908491 0.313335
O O11 0.035786 0.735880 0.266435
O O12 0.119274 0.389007 0.670833
O O13 0.734354 0.554391 0.193706
O O14 0.250000 0.250000 0.743285
#
# Coordination Sequence:
#
# PCOD9431223 Si02
#       6
#     8   8   8   8   8   8
#     4   9  22  41  63  89 129 167 213 265 325 375
#     4  11  23  42  65  90 133 167 212 266 324 379
#     4  11  23  41  65  92 130 169 208 268 325 378
#     4  10  20  45  63  92 125 172 213 257 322 387
#     4  12  20  41  64  95 123 170 210 267 314 385
#     4   9  22  42  62  91 132 167 209 264 326 380
#
# _framework density 23.786981000000001
#
# number of rings (size 3 to 8) (size 9 to 14) (size 15 to 20)
#    0.000    2.000    3.333    1.500    2.333    0.667 
#    9.000    4.167    0.000    0.000    0.000    0.000 
#    0.000    0.000    0.000    0.000    0.000    0.000 
#
# Total GULP energy -267982.291015 kJ/mol
# GULP energy per Si atom -5582.964396 kJ/mol
# Density = 2.373284 g / cm^3
# Si number density = 23.786981 Si / 1000 Ang^3
#
#
#
# Elastic Constant Matrix: (Units=GPa)
#
#
# Indices 1 2 3 4 5 6 
#
# 1 46.5741 8.8656 -3.6430 0.0000 0.0000 0.0000
# 2 8.8656 82.7374 24.9722 0.0000 0.0000 0.0000
# 3 -3.6430 24.9722 114.3621 0.0000 0.0000 0.0000
# 4 0.0000 0.0000 0.0000 36.7607 0.0000 0.0000
# 5 0.0000 0.0000 0.0000 0.0000 15.8274 0.0000
# 6 0.0000 0.0000 0.0000 0.0000 0.0000 12.0332
#
#
#
# Elastic Compliance Matrix: (Units=1/GPa)
#
#
# Indices 1 2 3 4 5 6 
#
# 1 0.022099 -0.002763 0.001307 0.000000 0.000000 0.000000
# 2 -0.002763 0.013285 -0.002989 0.000000 0.000000 0.000000
# 3 0.001307 -0.002989 0.009438 0.000000 0.000000 0.000000
# 4 0.000000 0.000000 0.000000 0.027203 0.000000 0.000000
# 5 0.000000 0.000000 0.000000 0.000000 0.063181 0.000000
# 6 0.000000 0.000000 0.000000 0.000000 0.000000 0.083103
#
#
# Mechanical properties :
#
#
# Convention : Reuss Voigt Hill
#
# Bulk Modulus (GPa) = 27.82888 33.78481 30.80685
# Shear Modulus (GPa) = 20.90509 27.15619 24.03064
#
# Velocity S-wave (km/s) = 2.96775 3.38248 3.18188
# Velocity P-wave (km/s) = 4.84438 5.43036 5.14572
#
# Compressibility (1/GPa) = 0.03593389
#
# Stress axis : x y z
#
# Youngs Moduli (GPa) = 45.25037 75.27537 105.94971
#
# Poissons Ratio (x) = 0.20795 -0.13850
# Poissons Ratio (y) = 0.12501 0.31667
# Poissons Ratio (z) = -0.05915 0.22499
#
# Static dielectric constant tensor:
#      x y z
#    x 1.885020 0.000000 0.000000 
#    y 0.000000 1.944920 0.000000 
#    z 0.000000 0.000000 1.920730 
# 
# From -- ./inp_files/11581.got.cif
#   From: 2010.05.17/outbox.cif.g08.bks.cpg/sg56_6_cif.got.tgz:11581.got - 2010.06.03 13:42:01.
