data_PCOD9431497
_publ_section_title
;
Structure prediction by ZEFSAII (Michael W. Deem and Ramdas Pophale) SiO2 
 PCOD9431497
Probable space group: P C C N
;
_chemical_formula_sum "Si O2"
_cell_formula_units_Z 64
_cell_length_a 7.968283
_cell_length_b 21.746787
_cell_length_c 15.106453
_cell_angle_alpha 90.000000
_cell_angle_beta 90.000000
_cell_angle_gamma 90.000000
_cell_volume 2617.714958
_symmetry_space_group_name_H-M "P C C N"
_symmetry_group_IT_number 56
_symmetry_cell_setting 'orthorhombic'
loop_
_space_group_symop_operation_xyz
x,y,z
1/2-x,1/2-y,z
1/2+x,-y,1/2-z
-x,1/2+y,1/2-z
-x,-y,-z
1/2+x,1/2+y,-z
1/2-x,y,1/2+z
x,1/2-y,1/2+z
loop_
_atom_site_type_symbol
_atom_site_label
_atom_site_fract_x
_atom_site_fract_y
_atom_site_fract_z
Si Si1 0.126204 0.942346 0.661517
Si Si2 0.731807 0.060178 0.512463
Si Si3 0.136769 0.191658 0.230470
Si Si4 0.270730 0.064492 0.738154
Si Si5 0.338072 0.314607 0.446688
Si Si6 0.735426 0.184591 0.759950
Si Si7 0.349015 0.686531 0.420998
Si Si8 0.624140 0.932480 0.582593
O O1 0.114515 0.942776 0.556127
O O2 0.218653 0.878518 0.687471
O O3 0.949934 0.943592 0.712501
O O4 0.227211 0.003669 0.685777
O O5 0.747645 0.123240 0.564331
O O6 0.560248 0.063533 0.456580
O O7 0.715413 0.997775 0.566926
O O8 0.250000 0.250000 0.208195
O O9 0.211852 0.129357 0.189310
O O10 0.128973 0.186539 0.339359
O O11 0.941143 0.191511 0.207491
O O12 0.129261 0.075135 0.812152
O O13 0.250000 0.250000 0.466120
O O14 0.497100 0.316638 0.511042
O O15 0.221603 0.374473 0.458164
O O16 0.750000 0.250000 0.811414
O O17 0.878670 0.183305 0.685234
O O18 0.250000 0.750000 0.439892
#
# Coordination Sequence:
#
# PCOD9431497 Si02
#       8
#     8   8   8   8   8   8   8   8
#     4  11  23  38  62  88 117 158 203 251 299 360
#     4  11  23  39  62  89 119 160 202 248 303 360
#     4   9  20  39  64  90 119 155 199 251 300 357
#     4  10  21  39  60  88 122 155 198 250 304 360
#     4  10  21  40  66  94 122 158 205 254 305 364
#     4  10  23  40  58  87 122 155 195 244 302 364
#     4  11  23  40  61  88 123 160 197 247 307 364
#     4  10  22  39  59  87 124 158 197 248 302 361
#
# _framework density 24.448803999999999
#
# number of rings (size 3 to 8) (size 9 to 14) (size 15 to 20)
#    0.000    1.750    0.000    4.500    0.000   12.000 
#    0.000    6.250    0.000    0.000    0.000    0.000 
#    0.000    0.000    0.000    0.000    0.000    0.000 
#
# Total GULP energy -357965.338447 kJ/mol
# GULP energy per Si atom -5593.208413 kJ/mol
# Density = 2.439316 g / cm^3
# Si number density = 24.448804 Si / 1000 Ang^3
#
#
#
# Elastic Constant Matrix: (Units=GPa)
#
#
# Indices 1 2 3 4 5 6 
#
# 1 64.8201 47.0086 2.9234 0.0000 0.0000 0.0000
# 2 47.0086 221.5720 14.0195 0.0000 0.0000 0.0000
# 3 2.9234 14.0195 40.0376 0.0000 0.0000 0.0000
# 4 0.0000 0.0000 0.0000 -133.6313 0.0000 0.0000
# 5 0.0000 0.0000 0.0000 0.0000 57.2201 0.0000
# 6 0.0000 0.0000 0.0000 0.0000 0.0000 31.6720
#
#
#
# Elastic Compliance Matrix: (Units=1/GPa)
#
#
# Indices 1 2 3 4 5 6 
#
# 1 0.018233 -0.003870 0.000024 0.000000 0.000000 0.000000
# 2 -0.003870 0.005437 -0.001621 0.000000 0.000000 0.000000
# 3 0.000024 -0.001621 0.025542 0.000000 0.000000 0.000000
# 4 0.000000 0.000000 0.000000 -0.007483 0.000000 0.000000
# 5 0.000000 0.000000 0.000000 0.000000 0.017476 0.000000
# 6 0.000000 0.000000 0.000000 0.000000 0.000000 0.031574
#
#
# Mechanical properties :
#
#
# Convention : Reuss Voigt Hill
#
# Bulk Modulus (GPa) = 26.12497 50.48140 38.30319
# Shear Modulus (GPa) = 43.67877 8.55071 26.11474
#
# Velocity S-wave (km/s) = 4.23133 1.87216 3.27179
# Velocity P-wave (km/s) = 5.88056 5.03646 5.47480
#
# Compressibility (1/GPa) = 0.03827755
#
# Stress axis : x y z
#
# Youngs Moduli (GPa) = 54.84670 183.93243 39.15047
#
# Poissons Ratio (x) = 0.71177 -0.00093
# Poissons Ratio (y) = 0.21224 0.06347
# Poissons Ratio (z) = -0.00130 0.29819
#
# Static dielectric constant tensor:
#      x y z
#    x 1.953920 0.000000 0.000000 
#    y 0.000000 1.963350 0.000000 
#    z 0.000000 0.000000 1.936500 
# 
# From -- ./inp_files/15221.got.cif
#   From: 2010.05.17/outbox.cif.g08.bks.cpg/sg56_8_cif.got.tgz:15221.got - 2010.06.03 13:42:01.
