data_PCOD9431180
_publ_section_title
;
Structure prediction by ZEFSAII (Michael W. Deem and Ramdas Pophale) SiO2 
 PCOD9431180
Probable space group: P C C N
;
_chemical_formula_sum "Si O2"
_cell_formula_units_Z 48
_cell_length_a 9.096620
_cell_length_b 8.639406
_cell_length_c 30.829661
_cell_angle_alpha 90.000000
_cell_angle_beta 90.000000
_cell_angle_gamma 90.000000
_cell_volume 2422.884357
_symmetry_space_group_name_H-M "P C C N"
_symmetry_group_IT_number 56
_symmetry_cell_setting 'orthorhombic'
loop_
_space_group_symop_operation_xyz
x,y,z
1/2-x,1/2-y,z
1/2+x,-y,1/2-z
-x,1/2+y,1/2-z
-x,-y,-z
1/2+x,1/2+y,-z
1/2-x,y,1/2+z
x,1/2-y,1/2+z
loop_
_atom_site_type_symbol
_atom_site_label
_atom_site_fract_x
_atom_site_fract_y
_atom_site_fract_z
Si Si1 0.216354 0.929528 0.615205
Si Si2 0.388927 0.336002 0.779638
Si Si3 0.541927 0.492001 0.550057
Si Si4 0.456796 0.005460 0.365251
Si Si5 0.750000 0.250000 0.095916
Si Si6 0.750000 0.750000 0.086321
Si Si7 0.861349 0.107931 0.285014
O O1 0.250000 0.750000 0.604482
O O2 0.144290 0.926991 0.663470
O O3 0.376772 0.009914 0.617435
O O4 0.101726 0.996412 0.580765
O O5 0.250000 0.250000 0.799993
O O6 0.466868 0.444079 0.815206
O O7 0.341425 0.448701 0.740827
O O8 0.490803 0.190679 0.768823
O O9 0.500000 0.500000 0.500000
O O10 0.639314 0.346883 0.565667
O O11 0.648494 0.636102 0.559172
O O12 0.353122 0.859074 0.374451
O O13 0.367105 0.145938 0.387457
O O14 0.750000 0.250000 0.277185
#
# Coordination Sequence:
#
# PCOD9431180 Si02
#       7
#     8   8   8   8   4   4   8
#     4  11  22  44  69  92 127 182 224 263 337 404
#     4  12  24  39  65  95 134 179 228 280 330 393
#     4  11  25  44  71 100 136 170 223 278 341 404
#     4  11  22  43  68  95 137 177 225 268 334 403
#     4  10  28  42  64 110 130 168 224 280 340 396
#     4  10  20  42  68  94 132 182 214 270 330 408
#     4  11  24  43  61  96 130 178 232 274 336 398
#
# _framework density 19.811098999999999
#
# number of rings (size 3 to 8) (size 9 to 14) (size 15 to 20)
#    0.000    1.000    5.833    1.000    4.667    3.333 
#    0.000    3.333    0.000    0.000    0.000    0.000 
#    0.000    0.000    0.000    0.000    0.000    0.000 
#
# Total GULP energy -267883.039986 kJ/mol
# GULP energy per Si atom -5580.896666 kJ/mol
# Density = 1.976601 g / cm^3
# Si number density = 19.811099 Si / 1000 Ang^3
#
#
#
# Elastic Constant Matrix: (Units=GPa)
#
#
# Indices 1 2 3 4 5 6 
#
# 1 130.8056 43.1866 58.5536 0.0000 0.0000 0.0000
# 2 43.1866 94.5753 45.8839 0.0000 0.0000 0.0000
# 3 58.5536 45.8839 98.3915 0.0000 0.0000 0.0000
# 4 0.0000 0.0000 0.0000 -21.4260 0.0000 0.0000
# 5 0.0000 0.0000 0.0000 0.0000 24.6684 0.0000
# 6 0.0000 0.0000 0.0000 0.0000 0.0000 32.9519
#
#
#
# Elastic Compliance Matrix: (Units=1/GPa)
#
#
# Indices 1 2 3 4 5 6 
#
# 1 0.010809 -0.002346 -0.005339 0.000000 0.000000 0.000000
# 2 -0.002346 0.014174 -0.005214 0.000000 0.000000 0.000000
# 3 -0.005339 -0.005214 0.015772 0.000000 0.000000 0.000000
# 4 0.000000 0.000000 0.000000 -0.046672 0.000000 0.000000
# 5 0.000000 0.000000 0.000000 0.000000 0.040538 0.000000
# 6 0.000000 0.000000 0.000000 0.000000 0.000000 0.030347
#
#
# Mechanical properties :
#
#
# Convention : Reuss Voigt Hill
#
# Bulk Modulus (GPa) = 66.85134 68.78008 67.81571
# Shear Modulus (GPa) = 52.21829 18.98208 35.60018
#
# Velocity S-wave (km/s) = 5.13958 3.09876 4.24368
# Velocity P-wave (km/s) = 8.30891 6.89902 7.63657
#
# Compressibility (1/GPa) = 0.01495856
#
# Stress axis : x y z
#
# Youngs Moduli (GPa) = 92.51357 70.54967 63.40286
#
# Poissons Ratio (x) = 0.16549 0.33849
# Poissons Ratio (y) = 0.21702 0.33059
# Poissons Ratio (z) = 0.49391 0.36785
#
# Static dielectric constant tensor:
#      x y z
#    x 1.867330 0.000000 0.000000 
#    y 0.000000 1.691490 0.000000 
#    z 0.000000 0.000000 1.673910 
# 
# From -- ./inp_files/23286.got.cif
#   From: 2010.05.17/outbox.cif.g08.bks.cpg/sg56_12_cif.got.tgz:23286.got - 2010.06.03 13:42:01.
