data_PCOD9431070
_publ_section_title
;
Structure prediction by ZEFSAII (Michael W. Deem and Ramdas Pophale) SiO2 
 PCOD9431070
Probable space group: P C C N
;
_chemical_formula_sum "Si O2"
_cell_formula_units_Z 60
_cell_length_a 14.541782
_cell_length_b 23.397833
_cell_length_c 9.119949
_cell_angle_alpha 90.000000
_cell_angle_beta 90.000000
_cell_angle_gamma 90.000000
_cell_volume 3103.027871
_symmetry_space_group_name_H-M "P C C N"
_symmetry_group_IT_number 56
_symmetry_cell_setting 'orthorhombic'
loop_
_space_group_symop_operation_xyz
x,y,z
1/2-x,1/2-y,z
1/2+x,-y,1/2-z
-x,1/2+y,1/2-z
-x,-y,-z
1/2+x,1/2+y,-z
1/2-x,y,1/2+z
x,1/2-y,1/2+z
loop_
_atom_site_type_symbol
_atom_site_label
_atom_site_fract_x
_atom_site_fract_y
_atom_site_fract_z
Si Si1 0.078386 0.575941 0.439128
Si Si2 0.250000 0.750000 0.287149
Si Si3 0.955658 0.648679 0.220205
Si Si4 0.048659 0.282332 0.343688
Si Si5 0.355074 0.683899 0.037095
Si Si6 0.599464 0.632315 0.404375
Si Si7 0.191297 0.150086 0.031205
Si Si8 0.400677 0.051097 0.359791
O O1 0.153844 0.616370 0.513135
O O2 0.114188 0.516024 0.378021
O O3 0.032045 0.614693 0.312100
O O4 0.998235 0.563648 0.559093
O O5 0.302727 0.706914 0.179487
O O6 0.181518 0.716955 0.395223
O O7 0.966352 0.716352 0.192474
O O8 0.862618 0.644709 0.315717
O O9 0.947283 0.622250 0.059484
O O10 0.051416 0.319198 0.194852
O O11 0.140411 0.300521 0.435021
O O12 0.962567 0.303163 0.439004
O O13 0.701584 0.655852 0.438996
O O14 0.599949 0.575944 0.303865
O O15 0.172029 0.091219 0.944291
#
# Coordination Sequence:
#
# PCOD9431070 Si02
#       8
#     8   4   8   8   8   8   8   8
#     4  10  20  40  66  82 120 159 218 246 317 377
#     4  10  26  38  72  90 122 148 206 276 316 394
#     4  11  21  32  58  94 118 164 208 258 295 374
#     4  11  22  37  62  89 130 173 195 250 319 383
#     4  11  21  45  61  92 118 159 201 259 330 373
#     4  11  22  35  59  93 130 167 213 255 303 363
#     4  10  21  39  56  89 130 172 207 247 307 369
#     4   9  20  40  61  84 115 178 203 258 302 360
#
# _framework density 19.335954000000001
#
# number of rings (size 3 to 8) (size 9 to 14) (size 15 to 20)
#    0.000    1.600    4.000    3.200    1.867    3.733 
#    2.400    0.000    0.000    0.000    0.000    0.000 
#    0.000    0.000    0.000    0.000    0.000    0.000 
#
# Total GULP energy -335082.799486 kJ/mol
# GULP energy per Si atom -5584.713325 kJ/mol
# Density = 1.929194 g / cm^3
# Si number density = 19.335954 Si / 1000 Ang^3
#
#
#
# Elastic Constant Matrix: (Units=GPa)
#
#
# Indices 1 2 3 4 5 6 
#
# 1 39.9751 23.7069 17.6593 0.0000 0.0000 0.0000
# 2 23.7069 142.5469 39.4871 0.0000 0.0000 0.0000
# 3 17.6593 39.4871 128.8357 0.0000 0.0000 0.0000
# 4 0.0000 0.0000 0.0000 19.7659 0.0000 0.0000
# 5 0.0000 0.0000 0.0000 0.0000 15.6018 0.0000
# 6 0.0000 0.0000 0.0000 0.0000 0.0000 14.0731
#
#
#
# Elastic Compliance Matrix: (Units=1/GPa)
#
#
# Indices 1 2 3 4 5 6 
#
# 1 0.028581 -0.004008 -0.002689 0.000000 0.000000 0.000000
# 2 -0.004008 0.008228 -0.001972 0.000000 0.000000 0.000000
# 3 -0.002689 -0.001972 0.008735 0.000000 0.000000 0.000000
# 4 0.000000 0.000000 0.000000 0.050592 0.000000 0.000000
# 5 0.000000 0.000000 0.000000 0.000000 0.064095 0.000000
# 6 0.000000 0.000000 0.000000 0.000000 0.000000 0.071058
#
#
# Mechanical properties :
#
#
# Convention : Reuss Voigt Hill
#
# Bulk Modulus (GPa) = 35.45569 52.56269 44.00919
# Shear Modulus (GPa) = 19.37762 25.25512 22.31637
#
# Velocity S-wave (km/s) = 3.16912 3.61795 3.40095
# Velocity P-wave (km/s) = 5.63627 6.68548 6.18317
#
# Compressibility (1/GPa) = 0.02820421
#
# Stress axis : x y z
#
# Youngs Moduli (GPa) = 34.98880 121.53244 114.48267
#
# Poissons Ratio (x) = 0.48714 0.30784
# Poissons Ratio (y) = 0.14025 0.22581
# Poissons Ratio (z) = 0.09408 0.23972
#
# Static dielectric constant tensor:
#      x y z
#    x 1.679580 0.000000 0.000000 
#    y 0.000000 1.686000 0.000000 
#    z 0.000000 0.000000 1.692310 
# 
# From -- ./inp_files/3675.got.cif
#   From: 2010.05.17/outbox.cif.g08.bks.cpg/sg56_2_cif.got.tgz:3675.got - 2010.06.03 13:42:01.
