data_PCOD9431494
_publ_section_title
;
Structure prediction by ZEFSAII (Michael W. Deem and Ramdas Pophale) SiO2 
 PCOD9431494
Probable space group: P C C N
;
_chemical_formula_sum "Si O2"
_cell_formula_units_Z 60
_cell_length_a 26.172372
_cell_length_b 12.171530
_cell_length_c 8.521391
_cell_angle_alpha 90.000000
_cell_angle_beta 90.000000
_cell_angle_gamma 90.000000
_cell_volume 2714.555663
_symmetry_space_group_name_H-M "P C C N"
_symmetry_group_IT_number 56
_symmetry_cell_setting 'orthorhombic'
loop_
_space_group_symop_operation_xyz
x,y,z
1/2-x,1/2-y,z
1/2+x,-y,1/2-z
-x,1/2+y,1/2-z
-x,-y,-z
1/2+x,1/2+y,-z
1/2-x,y,1/2+z
x,1/2-y,1/2+z
loop_
_atom_site_type_symbol
_atom_site_label
_atom_site_fract_x
_atom_site_fract_y
_atom_site_fract_z
Si Si1 0.250000 0.750000 0.873473
Si Si2 0.418663 0.905422 0.173891
Si Si3 0.799905 0.406709 0.880002
Si Si4 0.640289 0.790956 0.587808
Si Si5 0.568998 0.832248 0.327431
Si Si6 0.964109 0.277445 0.123147
Si Si7 0.791009 0.849126 0.365341
Si Si8 0.504777 0.029287 0.316451
O O1 0.279604 0.661466 0.768272
O O2 0.212099 0.676405 0.978303
O O3 0.359999 0.928274 0.140150
O O4 0.427759 0.821024 0.319168
O O5 0.451585 0.010808 0.226282
O O6 0.443233 0.848165 0.020604
O O7 0.773650 0.526592 0.899482
O O8 0.610800 0.862286 0.458712
O O9 0.597992 0.740573 0.701819
O O10 0.668524 0.692443 0.495164
O O11 0.681542 0.850580 0.695873
O O12 0.521104 0.769143 0.404845
O O13 0.543641 0.938010 0.250002
O O14 0.971569 0.354974 0.275088
O O15 0.750000 0.750000 0.360908
O O16 0.500000 0.000000 0.500000
#
# Coordination Sequence:
#
# PCOD9431494 Si02
#       8
#     4   8   8   8   8   8   8   8
#     4  10  26  52  72 102 130 190 224 320 354 428
#     4  11  24  41  65  97 126 186 223 287 338 424
#     4  11  26  48  76  99 141 174 250 284 371 425
#     4  10  23  41  65  97 130 176 221 272 352 413
#     4  10  21  39  59  93 132 174 219 271 328 407
#     4  11  22  40  63  92 142 173 231 277 334 406
#     4  11  26  44  71 102 136 173 226 295 361 420
#     4  11  23  36  61  94 139 181 221 271 339 395
#
# _framework density 22.103062999999999
#
# number of rings (size 3 to 8) (size 9 to 14) (size 15 to 20)
#    0.000    1.333    0.000    5.600   11.200    0.000 
#    0.000    0.000    0.000    0.000    0.000    0.000 
#    0.000    0.000    0.000    0.000    0.000    0.000 
#
# Total GULP energy -335514.384984 kJ/mol
# GULP energy per Si atom -5591.906416 kJ/mol
# Density = 2.205276 g / cm^3
# Si number density = 22.103063 Si / 1000 Ang^3
#
#
#
# Elastic Constant Matrix: (Units=GPa)
#
#
# Indices 1 2 3 4 5 6 
#
# 1 96.0251 32.4580 19.1893 0.0000 0.0000 0.0000
# 2 32.4580 114.2123 10.1441 0.0000 0.0000 0.0000
# 3 19.1893 10.1441 81.3580 0.0000 0.0000 0.0000
# 4 0.0000 0.0000 0.0000 28.5848 0.0000 0.0000
# 5 0.0000 0.0000 0.0000 0.0000 16.4318 0.0000
# 6 0.0000 0.0000 0.0000 0.0000 0.0000 20.8968
#
#
#
# Elastic Compliance Matrix: (Units=1/GPa)
#
#
# Indices 1 2 3 4 5 6 
#
# 1 0.011977 -0.003188 -0.002427 0.000000 0.000000 0.000000
# 2 -0.003188 0.009702 -0.000458 0.000000 0.000000 0.000000
# 3 -0.002427 -0.000458 0.012921 0.000000 0.000000 0.000000
# 4 0.000000 0.000000 0.000000 0.034984 0.000000 0.000000
# 5 0.000000 0.000000 0.000000 0.000000 0.060858 0.000000
# 6 0.000000 0.000000 0.000000 0.000000 0.000000 0.047854
#
#
# Mechanical properties :
#
#
# Convention : Reuss Voigt Hill
#
# Bulk Modulus (GPa) = 44.53642 46.13091 45.33366
# Shear Modulus (GPa) = 25.26191 28.50292 26.88242
#
# Velocity S-wave (km/s) = 3.38437 3.59492 3.49123
# Velocity P-wave (km/s) = 5.95526 6.17636 6.06682
#
# Compressibility (1/GPa) = 0.02245353
#
# Stress axis : x y z
#
# Youngs Moduli (GPa) = 83.49597 103.06838 77.39367
#
# Poissons Ratio (x) = 0.32859 0.18786
# Poissons Ratio (y) = 0.26619 0.03543
# Poissons Ratio (z) = 0.20267 0.04718
#
# Static dielectric constant tensor:
#      x y z
#    x 1.797270 0.000000 0.000000 
#    y 0.000000 1.839360 0.000000 
#    z 0.000000 0.000000 1.827380 
# 
# From -- ./inp_files/4965.got.cif
#   From: 2010.05.17/outbox.cif.g08.bks.cpg/sg56_3_cif.got.tgz:4965.got - 2010.06.03 13:42:01.
