data_PCOD9431181
_publ_section_title
;
Structure prediction by ZEFSAII (Michael W. Deem and Ramdas Pophale) SiO2 
 PCOD9431181
Probable space group: P C C N
;
_chemical_formula_sum "Si O2"
_cell_formula_units_Z 36
_cell_length_a 6.620006
_cell_length_b 11.795495
_cell_length_c 19.743178
_cell_angle_alpha 90.000000
_cell_angle_beta 90.000000
_cell_angle_gamma 90.000000
_cell_volume 1541.670687
_symmetry_space_group_name_H-M "P C C N"
_symmetry_group_IT_number 56
_symmetry_cell_setting 'orthorhombic'
loop_
_space_group_symop_operation_xyz
x,y,z
1/2-x,1/2-y,z
1/2+x,-y,1/2-z
-x,1/2+y,1/2-z
-x,-y,-z
1/2+x,1/2+y,-z
1/2-x,y,1/2+z
x,1/2-y,1/2+z
loop_
_atom_site_type_symbol
_atom_site_label
_atom_site_fract_x
_atom_site_fract_y
_atom_site_fract_z
Si Si1 0.940852 0.078396 0.935168
Si Si2 0.346775 0.138448 0.727927
Si Si3 0.104607 0.429362 0.093505
Si Si4 0.211231 0.547574 0.330698
Si Si5 0.250000 0.250000 0.984487
O O1 0.044081 0.027319 0.868389
O O2 0.057208 0.196161 0.946177
O O3 0.702941 0.052565 0.923132
O O4 0.000000 0.000000 0.000000
O O5 0.250000 0.250000 0.760964
O O6 0.213607 0.118171 0.660812
O O7 0.325051 0.030186 0.776327
O O8 0.580247 0.145434 0.705015
O O9 0.161875 0.347897 0.032416
O O10 0.870448 0.423080 0.111290
#
# Coordination Sequence:
#
# PCOD9431181 Si02
#       5
#     8   8   8   8   4
#     4   9  22  41  63  95 137 175 227 286 331 412
#     4  11  23  42  67 103 133 175 229 277 350 422
#     4  10  21  43  66  98 133 180 224 283 349 403
#     4  11  23  43  70  96 140 175 223 294 343 415
#     4  10  20  42  68  94 136 182 240 280 342 426
#
# _framework density 23.351291
#
# number of rings (size 3 to 8) (size 9 to 14) (size 15 to 20)
#    0.000    1.778    3.333    0.000    1.556    4.444 
#    0.000    7.778    0.000    0.000    0.000    0.000 
#    0.000    0.000    0.000    0.000    0.000    0.000 
#
# Total GULP energy -200983.715296 kJ/mol
# GULP energy per Si atom -5582.880980 kJ/mol
# Density = 2.329814 g / cm^3
# Si number density = 23.351291 Si / 1000 Ang^3
#
#
#
# Elastic Constant Matrix: (Units=GPa)
#
#
# Indices 1 2 3 4 5 6 
#
# 1 133.4975 53.4572 5.3890 0.0000 0.0000 0.0000
# 2 53.4572 80.4189 1.5068 0.0000 0.0000 0.0000
# 3 5.3890 1.5068 42.5095 0.0000 0.0000 0.0000
# 4 0.0000 0.0000 0.0000 17.1264 0.0000 0.0000
# 5 0.0000 0.0000 0.0000 0.0000 37.9346 0.0000
# 6 0.0000 0.0000 0.0000 0.0000 0.0000 32.7995
#
#
#
# Elastic Compliance Matrix: (Units=1/GPa)
#
#
# Indices 1 2 3 4 5 6 
#
# 1 0.010255 -0.006797 -0.001059 0.000000 0.000000 0.000000
# 2 -0.006797 0.016948 0.000261 0.000000 0.000000 0.000000
# 3 -0.001059 0.000261 0.023649 0.000000 0.000000 0.000000
# 4 0.000000 0.000000 0.000000 0.058389 0.000000 0.000000
# 5 0.000000 0.000000 0.000000 0.000000 0.026361 0.000000
# 6 0.000000 0.000000 0.000000 0.000000 0.000000 0.030488
#
#
# Mechanical properties :
#
#
# Convention : Reuss Voigt Hill
#
# Bulk Modulus (GPa) = 28.04109 41.90356 34.97233
# Shear Modulus (GPa) = 25.88392 30.64364 28.26378
#
# Velocity S-wave (km/s) = 3.33296 3.62648 3.48282
# Velocity P-wave (km/s) = 5.18131 5.95978 5.58413
#
# Compressibility (1/GPa) = 0.03566195
#
# Stress axis : x y z
#
# Youngs Moduli (GPa) = 97.50954 59.00267 42.28481
#
# Poissons Ratio (x) = 0.40106 0.04479
# Poissons Ratio (y) = 0.66280 -0.01103
# Poissons Ratio (z) = 0.10328 -0.01540
#
# Static dielectric constant tensor:
#      x y z
#    x 1.953560 0.000000 0.000000 
#    y 0.000000 1.948800 0.000000 
#    z 0.000000 0.000000 1.860120 
# 
# From -- ./inp_files/19860.got.cif
#   From: 2010.05.17/outbox.cif.g08.bks.cpg/sg56_10_cif.got.tgz:19860.got - 2010.06.03 13:42:01.
