data_PCOD9431740
_publ_section_title
;
Structure prediction by ZEFSAII (Michael W. Deem and Ramdas Pophale) SiO2 
 PCOD9431740
Probable space group: P C C N
;
_chemical_formula_sum "Si O2"
_cell_formula_units_Z 32
_cell_length_a 22.055244
_cell_length_b 9.695633
_cell_length_c 5.245798
_cell_angle_alpha 90.000000
_cell_angle_beta 90.000000
_cell_angle_gamma 90.000000
_cell_volume 1121.759092
_symmetry_space_group_name_H-M "P C C N"
_symmetry_group_IT_number 56
_symmetry_cell_setting 'orthorhombic'
loop_
_space_group_symop_operation_xyz
x,y,z
1/2-x,1/2-y,z
1/2+x,-y,1/2-z
-x,1/2+y,1/2-z
-x,-y,-z
1/2+x,1/2+y,-z
1/2-x,y,1/2+z
x,1/2-y,1/2+z
loop_
_atom_site_type_symbol
_atom_site_label
_atom_site_fract_x
_atom_site_fract_y
_atom_site_fract_z
Si Si1 0.723979 0.403453 0.656653
Si Si2 0.402261 0.935315 0.085394
Si Si3 0.364860 0.180225 0.440043
Si Si4 0.019228 0.380763 0.696849
O O1 0.750000 0.250000 0.696459
O O2 0.740358 0.473382 0.923533
O O3 0.654517 0.384177 0.577931
O O4 0.453798 0.833481 0.194297
O O5 0.372242 0.030421 0.308818
O O6 0.440375 0.033334 0.898421
O O7 0.338740 0.280102 0.218782
O O8 0.436322 0.209212 0.518009
O O9 0.000000 0.500000 0.500000
#
# Coordination Sequence:
#
# PCOD9431740 Si02
#       4
#     8   8   8   8
#     4  10  24  45  66  96 131 180 231 277 335 412
#     4  10  21  41  67  92 139 182 230 286 354 410
#     4  11  21  37  59  98 131 170 219 279 343 409
#     4   9  20  37  63  96 131 182 223 283 356 401
#
# _framework density 28.526626
#
# number of rings (size 3 to 8) (size 9 to 14) (size 15 to 20)
#    0.000    2.000    2.500    0.000    7.000    0.000 
#    9.000    0.000    0.000    4.500    0.000    0.000 
#    0.000    0.000    0.000    0.000    0.000    0.000 
#
# Total GULP energy -178826.730329 kJ/mol
# GULP energy per Si atom -5588.335323 kJ/mol
# Density = 2.846170 g / cm^3
# Si number density = 28.526626 Si / 1000 Ang^3
#
#
#
# Elastic Constant Matrix: (Units=GPa)
#
#
# Indices 1 2 3 4 5 6 
#
# 1 161.7915 10.1772 35.7572 0.0000 0.0000 0.0000
# 2 10.1772 44.4389 6.1719 0.0000 0.0000 0.0000
# 3 35.7572 6.1719 228.8393 0.0000 0.0000 0.0000
# 4 0.0000 0.0000 0.0000 18.1700 0.0000 0.0000
# 5 0.0000 0.0000 0.0000 0.0000 52.7420 0.0000
# 6 0.0000 0.0000 0.0000 0.0000 0.0000 37.9841
#
#
#
# Elastic Compliance Matrix: (Units=1/GPa)
#
#
# Indices 1 2 3 4 5 6 
#
# 1 0.006481 -0.001349 -0.000976 0.000000 0.000000 0.000000
# 2 -0.001349 0.022868 -0.000406 0.000000 0.000000 0.000000
# 3 -0.000976 -0.000406 0.004533 0.000000 0.000000 0.000000
# 4 0.000000 0.000000 0.000000 0.055036 0.000000 0.000000
# 5 0.000000 0.000000 0.000000 0.000000 0.018960 0.000000
# 6 0.000000 0.000000 0.000000 0.000000 0.000000 0.026327
#
#
# Mechanical properties :
#
#
# Convention : Reuss Voigt Hill
#
# Bulk Modulus (GPa) = 35.18571 59.92026 47.55298
# Shear Modulus (GPa) = 33.52522 47.31013 40.41768
#
# Velocity S-wave (km/s) = 3.43188 4.07683 3.76818
# Velocity P-wave (km/s) = 5.29762 6.57354 5.96976
#
# Compressibility (1/GPa) = 0.02842063
#
# Stress axis : x y z
#
# Youngs Moduli (GPa) = 154.28718 43.72907 220.58535
#
# Poissons Ratio (x) = 0.05898 0.21537
# Poissons Ratio (y) = 0.20809 0.08956
# Poissons Ratio (z) = 0.15064 0.01775
#
# Static dielectric constant tensor:
#      x y z
#    x 2.341530 0.000000 0.000000 
#    y 0.000000 2.614100 0.000000 
#    z 0.000000 0.000000 2.517140 
# 
# From -- ./inp_files/612.got.cif
#   From: 2010.05.17/outbox.cif.g08.bks.cpg/sg56_1_cif.got.tgz:612.got - 2010.06.03 13:42:01.
