data_PCOD9431424
_publ_section_title
;
Structure prediction by ZEFSAII (Michael W. Deem and Ramdas Pophale) SiO2 
 PCOD9431424
Probable space group: P C C N
;
_chemical_formula_sum "Si O2"
_cell_formula_units_Z 36
_cell_length_a 20.035057
_cell_length_b 6.487341
_cell_length_c 9.592187
_cell_angle_alpha 90.000000
_cell_angle_beta 90.000000
_cell_angle_gamma 90.000000
_cell_volume 1246.737280
_symmetry_space_group_name_H-M "P C C N"
_symmetry_group_IT_number 56
_symmetry_cell_setting 'orthorhombic'
loop_
_space_group_symop_operation_xyz
x,y,z
1/2-x,1/2-y,z
1/2+x,-y,1/2-z
-x,1/2+y,1/2-z
-x,-y,-z
1/2+x,1/2+y,-z
1/2-x,y,1/2+z
x,1/2-y,1/2+z
loop_
_atom_site_type_symbol
_atom_site_label
_atom_site_fract_x
_atom_site_fract_y
_atom_site_fract_z
Si Si1 0.750000 0.750000 0.188837
Si Si2 0.138724 0.565491 0.232202
Si Si3 0.107965 0.623190 0.558900
Si Si4 0.048146 0.291484 0.401545
Si Si5 0.640781 0.433671 0.611372
O O1 0.699791 0.596492 0.267086
O O2 0.796474 0.588410 0.108512
O O3 0.143748 0.853907 0.213809
O O4 0.070092 0.446009 0.276655
O O5 0.130629 0.605909 0.062874
O O6 0.094783 0.378134 0.527941
O O7 0.028897 0.685445 0.564836
O O8 0.145936 0.665072 0.401724
O O9 0.072396 0.064774 0.366424
#
# Coordination Sequence:
#
# PCOD9431424 Si02
#       5
#     4   8   8   8   8
#     4  10  22  42  58  88 126 168 220 266 312 374
#     4  10  22  38  63  91 127 170 210 265 319 383
#     4  10  21  38  61  94 123 164 206 258 325 385
#     4   9  21  38  59  94 128 159 208 259 319 388
#     4  10  21  40  61  84 125 165 207 264 314 377
#
# _framework density 28.87537
#
# number of rings (size 3 to 8) (size 9 to 14) (size 15 to 20)
#    0.000    2.222    0.000    1.333    3.111    4.444 
#    0.000   11.111    0.000    0.000    0.000    0.000 
#    0.000    0.000    0.000    0.000    0.000    0.000 
#
# Total GULP energy -200962.006089 kJ/mol
# GULP energy per Si atom -5582.277947 kJ/mol
# Density = 2.880965 g / cm^3
# Si number density = 28.875370 Si / 1000 Ang^3
#
#
#
# Elastic Constant Matrix: (Units=GPa)
#
#
# Indices 1 2 3 4 5 6 
#
# 1 178.6015 93.7953 64.9035 0.0000 0.0000 0.0000
# 2 93.7953 193.4058 98.7201 0.0000 0.0000 0.0000
# 3 64.9035 98.7201 255.8709 0.0000 0.0000 0.0000
# 4 0.0000 0.0000 0.0000 52.6016 0.0000 0.0000
# 5 0.0000 0.0000 0.0000 0.0000 7.7307 0.0000
# 6 0.0000 0.0000 0.0000 0.0000 0.0000 64.8701
#
#
#
# Elastic Compliance Matrix: (Units=1/GPa)
#
#
# Indices 1 2 3 4 5 6 
#
# 1 0.007593 -0.003361 -0.000629 0.000000 0.000000 0.000000
# 2 -0.003361 0.007926 -0.002206 0.000000 0.000000 0.000000
# 3 -0.000629 -0.002206 0.004919 0.000000 0.000000 0.000000
# 4 0.000000 0.000000 0.000000 0.019011 0.000000 0.000000
# 5 0.000000 0.000000 0.000000 0.000000 0.129354 0.000000
# 6 0.000000 0.000000 0.000000 0.000000 0.000000 0.015415
#
#
# Mechanical properties :
#
#
# Convention : Reuss Voigt Hill
#
# Bulk Modulus (GPa) = 124.28260 126.96845 125.62553
# Shear Modulus (GPa) = 25.08882 49.73776 37.41329
#
# Velocity S-wave (km/s) = 2.95085 4.15480 3.60346
# Velocity P-wave (km/s) = 7.39895 8.19043 7.80473
#
# Compressibility (1/GPa) = 0.00804618
#
# Stress axis : x y z
#
# Youngs Moduli (GPa) = 131.70286 126.16251 203.30305
#
# Poissons Ratio (x) = 0.42405 0.12792
# Poissons Ratio (y) = 0.44267 0.44839
# Poissons Ratio (z) = 0.08287 0.27826
#
# Static dielectric constant tensor:
#      x y z
#    x 1.957780 0.000000 0.000000 
#    y 0.000000 2.389040 0.000000 
#    z 0.000000 0.000000 2.310300 
# 
# From -- ./inp_files/8575.got.cif
#   From: 2010.05.17/outbox.cif.g08.bks.cpg/sg56_5_cif.got.tgz:8575.got - 2010.06.03 13:42:01.
