data_PCOD9431454
_publ_section_title
;
Structure prediction by ZEFSAII (Michael W. Deem and Ramdas Pophale) SiO2 
 PCOD9431454
Probable space group: P C C N
;
_chemical_formula_sum "Si O2"
_cell_formula_units_Z 32
_cell_length_a 14.595881
_cell_length_b 4.983922
_cell_length_c 20.774150
_cell_angle_alpha 90.000000
_cell_angle_beta 90.000000
_cell_angle_gamma 90.000000
_cell_volume 1511.209983
_symmetry_space_group_name_H-M "P C C N"
_symmetry_group_IT_number 56
_symmetry_cell_setting 'orthorhombic'
loop_
_space_group_symop_operation_xyz
x,y,z
1/2-x,1/2-y,z
1/2+x,-y,1/2-z
-x,1/2+y,1/2-z
-x,-y,-z
1/2+x,1/2+y,-z
1/2-x,y,1/2+z
x,1/2-y,1/2+z
loop_
_atom_site_type_symbol
_atom_site_label
_atom_site_fract_x
_atom_site_fract_y
_atom_site_fract_z
Si Si1 0.460488 0.301683 0.417679
Si Si2 0.087559 0.301468 0.548642
Si Si3 0.750000 0.250000 0.773938
Si Si4 0.750000 0.750000 0.858238
Si Si5 0.056527 0.993935 0.275031
O O1 0.385352 0.256200 0.474038
O O2 0.527530 0.545363 0.433649
O O3 0.433655 0.361854 0.344640
O O4 0.521589 0.044458 0.432861
O O5 0.171514 0.346426 0.594865
O O6 0.784037 0.501450 0.815991
O O7 0.841984 0.124687 0.741218
O O8 0.987724 0.734208 0.269240
#
# Coordination Sequence:
#
# PCOD9431454 Si02
#       5
#     8   8   4   4   8
#     4  10  21  40  61  88 119 159 209 253 322 378
#     4  10  21  38  64  87 116 159 208 266 310 378
#     4  12  26  40  64  98 130 172 222 258 316 408
#     4  12  22  40  62  90 124 162 216 266 318 372
#     4  12  24  42  66  94 136 177 212 270 329 388
#
# _framework density 21.175087000000001
#
# number of rings (size 3 to 8) (size 9 to 14) (size 15 to 20)
#    0.000    1.000    0.000    9.000    0.000    0.000 
#    0.000   12.500    0.000    0.000    0.000    0.000 
#    0.000    0.000    0.000    0.000    0.000    0.000 
#
# Total GULP energy -178251.057472 kJ/mol
# GULP energy per Si atom -5570.345546 kJ/mol
# Density = 2.112689 g / cm^3
# Si number density = 21.175087 Si / 1000 Ang^3
#
#
#
# Elastic Constant Matrix: (Units=GPa)
#
#
# Indices 1 2 3 4 5 6 
#
# 1 86.4912 21.8704 50.4853 0.0000 0.0000 0.0000
# 2 21.8704 164.5889 40.7756 0.0000 0.0000 0.0000
# 3 50.4853 40.7756 164.1332 0.0000 0.0000 0.0000
# 4 0.0000 0.0000 0.0000 34.1710 0.0000 0.0000
# 5 0.0000 0.0000 0.0000 0.0000 84.5906 0.0000
# 6 0.0000 0.0000 0.0000 0.0000 0.0000 29.8622
#
#
#
# Elastic Compliance Matrix: (Units=1/GPa)
#
#
# Indices 1 2 3 4 5 6 
#
# 1 0.014205 -0.000858 -0.004156 0.000000 0.000000 0.000000
# 2 -0.000858 0.006526 -0.001357 0.000000 0.000000 0.000000
# 3 -0.004156 -0.001357 0.007708 0.000000 0.000000 0.000000
# 4 0.000000 0.000000 0.000000 0.029265 0.000000 0.000000
# 5 0.000000 0.000000 0.000000 0.000000 0.011822 0.000000
# 6 0.000000 0.000000 0.000000 0.000000 0.000000 0.033487
#
#
# Mechanical properties :
#
#
# Convention : Reuss Voigt Hill
#
# Bulk Modulus (GPa) = 63.70946 71.27509 67.49227
# Shear Modulus (GPa) = 41.32671 49.86354 45.59512
#
# Velocity S-wave (km/s) = 4.42256 4.85791 4.64534
# Velocity P-wave (km/s) = 7.49873 8.07457 7.79197
#
# Compressibility (1/GPa) = 0.01569626
#
# Stress axis : x y z
#
# Youngs Moduli (GPa) = 70.39914 153.23277 129.73226
#
# Poissons Ratio (x) = 0.13146 0.53918
# Poissons Ratio (y) = 0.06039 0.17610
# Poissons Ratio (z) = 0.29258 0.20800
#
# Static dielectric constant tensor:
#      x y z
#    x 1.904220 0.000000 0.000000 
#    y 0.000000 1.766600 0.000000 
#    z 0.000000 0.000000 1.888990 
# 
# From -- ./inp_files/18904.got.cif
#   From: 2010.05.17/outbox.cif.g08.bks.cpg/sg56_10_cif.got.tgz:18904.got - 2010.06.03 13:42:01.
