data_PCOD9431217
_publ_section_title
;
Structure prediction by ZEFSAII (Michael W. Deem and Ramdas Pophale) SiO2 
 PCOD9431217
Probable space group: P C C N
;
_chemical_formula_sum "Si O2"
_cell_formula_units_Z 36
_cell_length_a 5.283768
_cell_length_b 14.392441
_cell_length_c 20.439534
_cell_angle_alpha 90.000000
_cell_angle_beta 90.000000
_cell_angle_gamma 90.000000
_cell_volume 1554.351327
_symmetry_space_group_name_H-M "P C C N"
_symmetry_group_IT_number 56
_symmetry_cell_setting 'orthorhombic'
loop_
_space_group_symop_operation_xyz
x,y,z
1/2-x,1/2-y,z
1/2+x,-y,1/2-z
-x,1/2+y,1/2-z
-x,-y,-z
1/2+x,1/2+y,-z
1/2-x,y,1/2+z
x,1/2-y,1/2+z
loop_
_atom_site_type_symbol
_atom_site_label
_atom_site_fract_x
_atom_site_fract_y
_atom_site_fract_z
Si Si1 0.637698 0.162669 0.139296
Si Si2 0.412273 0.601553 0.985287
Si Si3 0.805117 0.560418 0.757262
Si Si4 0.750000 0.750000 0.672369
Si Si5 0.250000 0.250000 0.042776
Si Si6 0.750000 0.250000 0.416685
O O1 0.750000 0.250000 0.181743
O O2 0.815957 0.104812 0.090140
O O3 0.443741 0.098722 0.177865
O O4 0.478055 0.222627 0.088470
O O5 0.665013 0.661547 0.995252
O O6 0.500000 0.500000 0.000000
O O7 0.236468 0.658708 0.035925
O O8 0.533597 0.508493 0.768522
O O9 0.755961 0.653416 0.714285
O O10 0.496810 0.751662 0.628676
#
# Coordination Sequence:
#
# PCOD9431217 Si02
#       6
#     8   8   8   4   4   4
#     4  10  24  46  77 103 149 199 256 317 370 451
#     4  11  25  45  75 110 152 202 251 319 382 467
#     4  12  30  51  79 117 149 206 271 314 388 463
#     4  12  30  52  80 110 170 204 246 340 386 460
#     4  10  20  44  70 108 140 196 250 302 372 450
#     4  12  26  52  76 116 160 204 256 312 414 464
#
# _framework density 23.160785000000001
#
# number of rings (size 3 to 8) (size 9 to 14) (size 15 to 20)
#    0.000    0.889    3.333    2.667   14.000    2.667 
#    4.000    0.000    0.000    0.000    0.000    0.000 
#    0.000    0.000    0.000    0.000    0.000    0.000 
#
# Total GULP energy -200727.794444 kJ/mol
# GULP energy per Si atom -5575.772068 kJ/mol
# Density = 2.310807 g / cm^3
# Si number density = 23.160785 Si / 1000 Ang^3
#
#
#
# Elastic Constant Matrix: (Units=GPa)
#
#
# Indices 1 2 3 4 5 6 
#
# 1 120.0351 38.5693 38.2543 0.0000 0.0000 0.0000
# 2 38.5693 181.6179 58.4434 0.0000 0.0000 0.0000
# 3 38.2543 58.4434 96.2408 0.0000 0.0000 0.0000
# 4 0.0000 0.0000 0.0000 21.5126 0.0000 0.0000
# 5 0.0000 0.0000 0.0000 0.0000 43.5760 0.0000
# 6 0.0000 0.0000 0.0000 0.0000 0.0000 42.4060
#
#
#
# Elastic Compliance Matrix: (Units=1/GPa)
#
#
# Indices 1 2 3 4 5 6 
#
# 1 0.009688 -0.001017 -0.003233 0.000000 0.000000 0.000000
# 2 -0.001017 0.006950 -0.003816 0.000000 0.000000 0.000000
# 3 -0.003233 -0.003816 0.013993 0.000000 0.000000 0.000000
# 4 0.000000 0.000000 0.000000 0.046484 0.000000 0.000000
# 5 0.000000 0.000000 0.000000 0.000000 0.022948 0.000000
# 6 0.000000 0.000000 0.000000 0.000000 0.000000 0.023582
#
#
# Mechanical properties :
#
#
# Convention : Reuss Voigt Hill
#
# Bulk Modulus (GPa) = 68.97345 74.26976 71.62161
# Shear Modulus (GPa) = 34.57532 39.00737 36.79134
#
# Velocity S-wave (km/s) = 3.86792 4.10835 3.98995
# Velocity P-wave (km/s) = 7.05639 7.39198 7.22613
#
# Compressibility (1/GPa) = 0.01449833
#
# Stress axis : x y z
#
# Youngs Moduli (GPa) = 103.21943 143.88302 71.46282
#
# Poissons Ratio (x) = 0.14632 0.23106
# Poissons Ratio (y) = 0.10497 0.27272
# Poissons Ratio (z) = 0.33374 0.54910
#
# Static dielectric constant tensor:
#      x y z
#    x 1.775880 0.000000 0.000000 
#    y 0.000000 1.934910 0.000000 
#    z 0.000000 0.000000 1.949400 
# 
# From -- ./inp_files/17388.got.cif
#   From: 2010.05.17/outbox.cif.g08.bks.cpg/sg56_9_cif.got.tgz:17388.got - 2010.06.03 13:42:01.
