data_PCOD9431295
_publ_section_title
;
Structure prediction by ZEFSAII (Michael W. Deem and Ramdas Pophale) SiO2 
 PCOD9431295
Probable space group: P C C N
;
_chemical_formula_sum "Si O2"
_cell_formula_units_Z 48
_cell_length_a 4.905548
_cell_length_b 19.114122
_cell_length_c 25.259728
_cell_angle_alpha 90.000000
_cell_angle_beta 90.000000
_cell_angle_gamma 90.000000
_cell_volume 2368.484533
_symmetry_space_group_name_H-M "P C C N"
_symmetry_group_IT_number 56
_symmetry_cell_setting 'orthorhombic'
loop_
_space_group_symop_operation_xyz
x,y,z
1/2-x,1/2-y,z
1/2+x,-y,1/2-z
-x,1/2+y,1/2-z
-x,-y,-z
1/2+x,1/2+y,-z
1/2-x,y,1/2+z
x,1/2-y,1/2+z
loop_
_atom_site_type_symbol
_atom_site_label
_atom_site_fract_x
_atom_site_fract_y
_atom_site_fract_z
Si Si1 0.750000 0.750000 0.483305
Si Si2 0.407713 0.453306 0.806081
Si Si3 0.442438 0.533383 0.420847
Si Si4 0.407159 0.048027 0.192197
Si Si5 0.319236 0.599340 0.089183
Si Si6 0.750000 0.250000 0.438818
Si Si7 0.923502 0.900638 0.971940
O O1 0.500592 0.732478 0.522100
O O2 0.636397 0.820035 0.455051
O O3 0.097345 0.478539 0.805426
O O4 0.462639 0.416559 0.749264
O O5 0.491604 0.418859 0.860885
O O6 0.595202 0.523328 0.807533
O O7 0.516253 0.574733 0.366063
O O8 0.565797 0.455116 0.413058
O O9 0.135534 0.554319 0.436522
O O10 0.367689 0.436605 0.532943
O O11 0.259226 0.680831 0.095857
O O12 0.467690 0.597579 0.031865
#
# Coordination Sequence:
#
# PCOD9431295 Si02
#       7
#     4   8   8   8   8   4   8
#     4  10  22  40  52  72 108 150 184 210 270 350
#     4   9  18  32  53  73 105 139 174 217 259 318
#     4  11  21  33  55  83 111 139 179 228 271 322
#     4   9  18  33  50  78 105 137 173 214 267 311
#     4  10  21  36  54  82 111 141 181 226 278 329
#     4  10  22  36  54  74 110 148 178 218 274 336
#     4  11  22  35  55  79 109 142 177 225 277 326
#
# _framework density 20.266121999999999
#
# number of rings (size 3 to 8) (size 9 to 14) (size 15 to 20)
#    0.000    2.000    0.000    5.000    0.000   10.667 
#    0.000    0.000    0.000    2.000    0.000    1.167 
#    0.000    0.000    0.000    0.000    0.000    0.000 
#
# Total GULP energy -267224.421461 kJ/mol
# GULP energy per Si atom -5567.175447 kJ/mol
# Density = 2.022000 g / cm^3
# Si number density = 20.266122 Si / 1000 Ang^3
#
#
#
# Elastic Constant Matrix: (Units=GPa)
#
#
# Indices 1 2 3 4 5 6 
#
# 1 77.9124 15.0309 14.4681 0.0000 0.0000 0.0000
# 2 15.0309 110.9359 24.0983 0.0000 0.0000 0.0000
# 3 14.4681 24.0983 115.5109 0.0000 0.0000 0.0000
# 4 0.0000 0.0000 0.0000 9.0559 0.0000 0.0000
# 5 0.0000 0.0000 0.0000 0.0000 27.4686 0.0000
# 6 0.0000 0.0000 0.0000 0.0000 0.0000 18.6660
#
#
#
# Elastic Compliance Matrix: (Units=1/GPa)
#
#
# Indices 1 2 3 4 5 6 
#
# 1 0.013380 -0.001518 -0.001359 0.000000 0.000000 0.000000
# 2 -0.001518 0.009614 -0.001816 0.000000 0.000000 0.000000
# 3 -0.001359 -0.001816 0.009206 0.000000 0.000000 0.000000
# 4 0.000000 0.000000 0.000000 0.110426 0.000000 0.000000
# 5 0.000000 0.000000 0.000000 0.000000 0.036405 0.000000
# 6 0.000000 0.000000 0.000000 0.000000 0.000000 0.053573
#
#
# Mechanical properties :
#
#
# Convention : Reuss Voigt Hill
#
# Bulk Modulus (GPa) = 43.82995 45.72820 44.77907
# Shear Modulus (GPa) = 20.03245 27.75557 23.89401
#
# Velocity S-wave (km/s) = 3.14741 3.70476 3.43740
# Velocity P-wave (km/s) = 5.90613 6.39634 6.15612
#
# Compressibility (1/GPa) = 0.02281545
#
# Stress axis : x y z
#
# Youngs Moduli (GPa) = 74.73772 104.01222 108.62203
#
# Poissons Ratio (x) = 0.15785 0.14765
# Poissons Ratio (y) = 0.11342 0.19722
# Poissons Ratio (z) = 0.10159 0.18885
#
# Static dielectric constant tensor:
#      x y z
#    x 1.739530 0.000000 0.000000 
#    y 0.000000 1.754110 0.000000 
#    z 0.000000 0.000000 1.805150 
# 
# From -- ./inp_files/20114.got.cif
#   From: 2010.05.17/outbox.cif.g08.bks.cpg/sg56_11_cif.got.tgz:20114.got - 2010.06.03 13:42:01.
