data_PCOD9431394
_publ_section_title
;
Structure prediction by ZEFSAII (Michael W. Deem and Ramdas Pophale) SiO2 
 PCOD9431394
Probable space group: P C C N
;
_chemical_formula_sum "Si O2"
_cell_formula_units_Z 64
_cell_length_a 21.373743
_cell_length_b 9.157330
_cell_length_c 18.447423
_cell_angle_alpha 90.000000
_cell_angle_beta 90.000000
_cell_angle_gamma 90.000000
_cell_volume 3610.648025
_symmetry_space_group_name_H-M "P C C N"
_symmetry_group_IT_number 56
_symmetry_cell_setting 'orthorhombic'
loop_
_space_group_symop_operation_xyz
x,y,z
1/2-x,1/2-y,z
1/2+x,-y,1/2-z
-x,1/2+y,1/2-z
-x,-y,-z
1/2+x,1/2+y,-z
1/2-x,y,1/2+z
x,1/2-y,1/2+z
loop_
_atom_site_type_symbol
_atom_site_label
_atom_site_fract_x
_atom_site_fract_y
_atom_site_fract_z
Si Si1 0.637031 0.423359 0.833763
Si Si2 0.125947 0.923612 0.838243
Si Si3 0.125947 0.576389 0.838243
Si Si4 0.750000 0.424895 0.570479
Si Si5 0.997585 0.924098 0.671285
Si Si6 0.750000 0.576205 0.915373
Si Si7 0.137031 0.576642 0.166237
Si Si8 0.502415 0.575903 0.171285
O O1 0.637576 0.454122 0.747225
O O2 0.689098 0.515314 0.874067
O O3 0.649667 0.250000 0.842602
O O4 0.566289 0.452650 0.861527
O O5 0.113767 0.750000 0.843624
O O6 0.187929 0.958487 0.883218
O O7 0.137577 0.954121 0.752774
O O8 0.064451 0.009710 0.864276
O O9 0.187929 0.541513 0.883218
O O10 0.064451 0.490291 0.864276
O O11 0.750000 0.250000 0.556572
O O12 0.750000 0.511087 0.495910
O O13 0.991729 0.750000 0.679592
O O14 0.066290 0.952650 0.638472
O O15 0.000000 0.000001 0.750000
O O16 0.750000 0.750000 0.916236
O O17 0.810902 0.515313 0.874068
#
# Coordination Sequence:
#
# PCOD9431394 Si02
#       8
#     8   8   8   8   8   8   8   8
#     4   9  18  35  57  79 105 137 171 208 257 316
#     4   9  18  34  58  83 104 133 174 215 258 311
#     4   9  18  34  58  83 104 133 174 215 258 311
#     4  10  21  38  56  74 104 144 177 210 262 320
#     4   9  17  30  52  81 109 135 167 211 260 308
#     4  12  25  36  50  76 106 138 179 222 258 298
#     4   9  18  35  57  79 105 137 171 208 257 316
#     4   9  17  30  52  81 109 135 167 211 260 308
#
# _framework density 17.725349000000001
#
# number of rings (size 3 to 8) (size 9 to 14) (size 15 to 20)
#    0.000    2.500    0.000    4.125    0.000    8.000 
#    0.000    2.500    0.000    0.000    0.000    0.000 
#    0.000    0.000    0.000    0.000    0.000    0.000 
#
# Total GULP energy -356879.727940 kJ/mol
# GULP energy per Si atom -5576.245749 kJ/mol
# Density = 1.768501 g / cm^3
# Si number density = 17.725349 Si / 1000 Ang^3
#
#
#
# Elastic Constant Matrix: (Units=GPa)
#
#
# Indices 1 2 3 4 5 6 
#
# 1 205.7354 105.5815 74.0710 0.0000 0.0000 0.0000
# 2 105.5815 76.3981 52.8598 0.0000 0.0000 0.0000
# 3 74.0710 52.8598 63.7863 0.0000 0.0000 0.0000
# 4 0.0000 0.0000 0.0000 20.5536 0.0000 0.0000
# 5 0.0000 0.0000 0.0000 0.0000 -8.2244 0.0000
# 6 0.0000 0.0000 0.0000 0.0000 0.0000 38.2418
#
#
#
# Elastic Compliance Matrix: (Units=1/GPa)
#
#
# Indices 1 2 3 4 5 6 
#
# 1 0.016727 -0.022683 -0.000626 0.000000 0.000000 0.000000
# 2 -0.022683 0.061441 -0.024576 0.000000 0.000000 0.000000
# 3 -0.000626 -0.024576 0.036771 0.000000 0.000000 0.000000
# 4 0.000000 0.000000 0.000000 0.048653 0.000000 0.000000
# 5 0.000000 0.000000 0.000000 0.000000 -0.121590 0.000000
# 6 0.000000 0.000000 0.000000 0.000000 0.000000 0.026149
#
#
# Mechanical properties :
#
#
# Convention : Reuss Voigt Hill
#
# Bulk Modulus (GPa) = 52.17016 90.10495 71.13756
# Shear Modulus (GPa) = 29.35787 17.67471 23.51629
#
# Velocity S-wave (km/s) = 4.07414 3.16118 3.64635
# Velocity P-wave (km/s) = 7.18525 8.01676 7.61237
#
# Compressibility (1/GPa) = 0.01916805
#
# Stress axis : x y z
#
# Youngs Moduli (GPa) = 59.78448 16.27576 27.19519
#
# Poissons Ratio (x) = 0.36918 0.01704
# Poissons Ratio (y) = 1.35608 0.66836
# Poissons Ratio (z) = 0.03745 0.40000
#
# Static dielectric constant tensor:
#      x y z
#    x 1.636770 0.000000 0.000000 
#    y 0.000000 1.586320 0.000000 
#    z 0.000000 0.000000 1.578800 
# 
# From -- ./inp_files/15235.got.cif
#   From: 2010.05.17/outbox.cif.g08.bks.cpg/sg56_8_cif.got.tgz:15235.got - 2010.06.03 13:42:01.
