data_PCOD9431636
_publ_section_title
;
Structure prediction by ZEFSAII (Michael W. Deem and Ramdas Pophale) SiO2 
 PCOD9431636
Probable space group: P C C N
;
_chemical_formula_sum "Si O2"
_cell_formula_units_Z 40
_cell_length_a 23.827284
_cell_length_b 8.107477
_cell_length_c 8.410757
_cell_angle_alpha 90.000000
_cell_angle_beta 90.000000
_cell_angle_gamma 90.000000
_cell_volume 1624.782947
_symmetry_space_group_name_H-M "P C C N"
_symmetry_group_IT_number 56
_symmetry_cell_setting 'orthorhombic'
loop_
_space_group_symop_operation_xyz
x,y,z
1/2-x,1/2-y,z
1/2+x,-y,1/2-z
-x,1/2+y,1/2-z
-x,-y,-z
1/2+x,1/2+y,-z
1/2-x,y,1/2+z
x,1/2-y,1/2+z
loop_
_atom_site_type_symbol
_atom_site_label
_atom_site_fract_x
_atom_site_fract_y
_atom_site_fract_z
Si Si1 0.401423 0.087952 0.233456
Si Si2 0.205829 0.530562 0.382203
Si Si3 0.569344 0.085982 0.069906
Si Si4 0.532788 0.763197 0.508488
Si Si5 0.316674 0.893545 0.749509
O O1 0.340365 0.092461 0.310644
O O2 0.449155 0.098063 0.369336
O O3 0.407017 0.937059 0.109777
O O4 0.417341 0.240379 0.118634
O O5 0.193045 0.564797 0.566022
O O6 0.195469 0.701993 0.288325
O O7 0.271462 0.498900 0.350567
O O8 0.620584 0.085290 0.189115
O O9 0.535995 0.915181 0.099163
O O10 0.527729 0.241190 0.071749
#
# Coordination Sequence:
#
# PCOD9431636 Si02
#       5
#     8   8   8   8   8
#     4  10  21  40  65  90 128 167 215 258 328 371
#     4  11  23  39  68  95 124 170 203 284 318 389
#     4   9  21  43  62  90 133 167 216 265 315 387
#     4   9  22  41  60  90 134 164 215 266 310 389
#     4  11  22  41  65  95 128 156 224 259 333 381
#
# _framework density 24.618670999999999
#
# number of rings (size 3 to 8) (size 9 to 14) (size 15 to 20)
#    1.200    0.800    0.000    4.800    2.800    3.200 
#    0.000    4.000    4.400    0.000    0.000    0.000 
#    0.000    0.000    0.000    0.000    0.000    0.000 
#
# Total GULP energy -223209.304974 kJ/mol
# GULP energy per Si atom -5580.232624 kJ/mol
# Density = 2.456264 g / cm^3
# Si number density = 24.618671 Si / 1000 Ang^3
#
#
#
# Elastic Constant Matrix: (Units=GPa)
#
#
# Indices 1 2 3 4 5 6 
#
# 1 106.2668 13.8967 47.5560 0.0000 0.0000 0.0000
# 2 13.8967 57.1714 27.5428 0.0000 0.0000 0.0000
# 3 47.5560 27.5428 146.4574 0.0000 0.0000 0.0000
# 4 0.0000 0.0000 0.0000 0.4468 0.0000 0.0000
# 5 0.0000 0.0000 0.0000 0.0000 47.5465 0.0000
# 6 0.0000 0.0000 0.0000 0.0000 0.0000 6.4082
#
#
#
# Elastic Compliance Matrix: (Units=1/GPa)
#
#
# Indices 1 2 3 4 5 6 
#
# 1 0.011068 -0.001054 -0.003395 0.000000 0.000000 0.000000
# 2 -0.001054 0.019334 -0.003294 0.000000 0.000000 0.000000
# 3 -0.003395 -0.003294 0.008550 0.000000 0.000000 0.000000
# 4 0.000000 0.000000 0.000000 2.238247 0.000000 0.000000
# 5 0.000000 0.000000 0.000000 0.000000 0.021032 0.000000
# 6 0.000000 0.000000 0.000000 0.000000 0.000000 0.156051
#
#
# Mechanical properties :
#
#
# Convention : Reuss Voigt Hill
#
# Bulk Modulus (GPa) = 42.61705 54.20962 48.41334
# Shear Modulus (GPa) = 2.01809 25.60695 13.81252
#
# Velocity S-wave (km/s) = 0.90638 3.22862 2.37124
# Velocity P-wave (km/s) = 4.29463 5.99718 5.21584
#
# Compressibility (1/GPa) = 0.02346478
#
# Stress axis : x y z
#
# Youngs Moduli (GPa) = 90.35305 51.72152 116.96086
#
# Poissons Ratio (x) = 0.05454 0.39714
# Poissons Ratio (y) = 0.09527 0.38523
# Poissons Ratio (z) = 0.30679 0.17035
#
# Static dielectric constant tensor:
#      x y z
#    x 2.094970 0.000000 0.000000 
#    y 0.000000 2.016350 0.000000 
#    z 0.000000 0.000000 1.968610 
# 
# From -- ./inp_files/4684.got.cif
#   From: 2010.05.17/outbox.cif.g08.bks.cpg/sg56_3_cif.got.tgz:4684.got - 2010.06.03 13:42:01.
