data_PCOD9431332
_publ_section_title
;
Structure prediction by ZEFSAII (Michael W. Deem and Ramdas Pophale) SiO2 
 PCOD9431332
Probable space group: P C C N
;
_chemical_formula_sum "Si O2"
_cell_formula_units_Z 40
_cell_length_a 13.982167
_cell_length_b 7.177388
_cell_length_c 17.326064
_cell_angle_alpha 90.000000
_cell_angle_beta 90.000000
_cell_angle_gamma 90.000000
_cell_volume 1738.764735
_symmetry_space_group_name_H-M "P C C N"
_symmetry_group_IT_number 56
_symmetry_cell_setting 'orthorhombic'
loop_
_space_group_symop_operation_xyz
x,y,z
1/2-x,1/2-y,z
1/2+x,-y,1/2-z
-x,1/2+y,1/2-z
-x,-y,-z
1/2+x,1/2+y,-z
1/2-x,y,1/2+z
x,1/2-y,1/2+z
loop_
_atom_site_type_symbol
_atom_site_label
_atom_site_fract_x
_atom_site_fract_y
_atom_site_fract_z
Si Si1 0.260630 0.971075 0.799015
Si Si2 0.540431 0.436280 0.747267
Si Si3 0.047693 0.802547 0.517142
Si Si4 0.917698 0.507294 0.604661
Si Si5 0.126695 0.924743 0.667997
O O1 0.250000 0.750000 0.816623
O O2 0.370214 0.033967 0.795152
O O3 0.184864 0.057669 0.858219
O O4 0.220896 0.992236 0.711276
O O5 0.489828 0.518826 0.823292
O O6 0.456189 0.424797 0.684438
O O7 0.587326 0.250848 0.782462
O O8 0.087136 0.679916 0.446556
O O9 0.128002 0.853095 0.581233
O O10 0.965931 0.671048 0.555055
O O11 0.000000 0.000000 0.500000
#
# Coordination Sequence:
#
# PCOD9431332 Si02
#       5
#     8   8   8   8   8
#     4   9  18  35  65  88 115 161 207 255 311 358
#     4   9  18  35  63  85 118 152 203 257 303 355
#     4  10  21  36  64  83 125 163 196 246 316 374
#     4   9  20  40  59  92 119 162 205 249 308 372
#     4   9  19  34  58  88 112 156 203 244 310 369
#
# _framework density 23.004836000000001
#
# number of rings (size 3 to 8) (size 9 to 14) (size 15 to 20)
#    0.000    2.800    0.000    0.000    8.400    0.000 
#    0.000   16.000    4.400    0.000    0.000    0.000 
#    0.000    0.000    0.000    0.000    0.000    0.000 
#
# Total GULP energy -223097.335266 kJ/mol
# GULP energy per Si atom -5577.433382 kJ/mol
# Density = 2.295248 g / cm^3
# Si number density = 23.004836 Si / 1000 Ang^3
#
#
#
# Elastic Constant Matrix: (Units=GPa)
#
#
# Indices 1 2 3 4 5 6 
#
# 1 88.5904 -2.7857 7.1187 0.0000 0.0000 0.0000
# 2 -2.7857 77.1470 26.3912 0.0000 0.0000 0.0000
# 3 7.1187 26.3912 81.7403 0.0000 0.0000 0.0000
# 4 0.0000 0.0000 0.0000 30.6512 0.0000 0.0000
# 5 0.0000 0.0000 0.0000 0.0000 13.4846 0.0000
# 6 0.0000 0.0000 0.0000 0.0000 0.0000 19.9988
#
#
#
# Elastic Compliance Matrix: (Units=1/GPa)
#
#
# Indices 1 2 3 4 5 6 
#
# 1 0.011416 0.000846 -0.001267 0.000000 0.000000 0.000000
# 2 0.000846 0.014634 -0.004799 0.000000 0.000000 0.000000
# 3 -0.001267 -0.004799 0.013894 0.000000 0.000000 0.000000
# 4 0.000000 0.000000 0.000000 0.032625 0.000000 0.000000
# 5 0.000000 0.000000 0.000000 0.000000 0.074159 0.000000
# 6 0.000000 0.000000 0.000000 0.000000 0.000000 0.050003
#
#
# Mechanical properties :
#
#
# Convention : Reuss Voigt Hill
#
# Bulk Modulus (GPa) = 33.89378 34.32514 34.10946
# Shear Modulus (GPa) = 23.04086 27.27716 25.15901
#
# Velocity S-wave (km/s) = 3.16819 3.44716 3.31061
# Velocity P-wave (km/s) = 5.30552 5.54951 5.42889
#
# Compressibility (1/GPa) = 0.02950394
#
# Stress axis : x y z
#
# Youngs Moduli (GPa) = 87.59374 68.33230 71.97589
#
# Poissons Ratio (x) = -0.05779 0.09122
# Poissons Ratio (y) = -0.07408 0.34538
# Poissons Ratio (z) = 0.11101 0.32790
#
# Static dielectric constant tensor:
#      x y z
#    x 1.940660 0.000000 0.000000 
#    y 0.000000 2.006690 0.000000 
#    z 0.000000 0.000000 1.882580 
# 
# From -- ./inp_files/16039.got.cif
#   From: 2010.05.17/outbox.cif.g08.bks.cpg/sg56_9_cif.got.tgz:16039.got - 2010.06.03 13:42:01.
