data_PCOD9431030
_publ_section_title
;
Structure prediction by ZEFSAII (Michael W. Deem and Ramdas Pophale) SiO2 
 PCOD9431030
Probable space group: P C C N
;
_chemical_formula_sum "Si O2"
_cell_formula_units_Z 36
_cell_length_a 13.805034
_cell_length_b 5.095884
_cell_length_c 22.564708
_cell_angle_alpha 90.000000
_cell_angle_beta 90.000000
_cell_angle_gamma 90.000000
_cell_volume 1587.401301
_symmetry_space_group_name_H-M "P C C N"
_symmetry_group_IT_number 56
_symmetry_cell_setting 'orthorhombic'
loop_
_space_group_symop_operation_xyz
x,y,z
1/2-x,1/2-y,z
1/2+x,-y,1/2-z
-x,1/2+y,1/2-z
-x,-y,-z
1/2+x,1/2+y,-z
1/2-x,y,1/2+z
x,1/2-y,1/2+z
loop_
_atom_site_type_symbol
_atom_site_label
_atom_site_fract_x
_atom_site_fract_y
_atom_site_fract_z
Si Si1 0.104778 0.260030 0.950235
Si Si2 0.532809 0.599663 0.173153
Si Si3 0.121021 0.772078 0.018170
Si Si4 0.750000 0.250000 0.867805
Si Si5 0.602936 0.593406 0.303810
O O1 0.140191 0.546524 0.969324
O O2 0.100434 0.145290 0.883978
O O3 0.153770 0.046667 0.991715
O O4 0.992743 0.247783 0.970054
O O5 0.597735 0.588753 0.232445
O O6 0.453350 0.358630 0.173425
O O7 0.470345 0.862499 0.178199
O O8 0.165302 0.767753 0.083401
O O9 0.792270 0.488518 0.827539
#
# Coordination Sequence:
#
# PCOD9431030 Si02
#       5
#     8   8   8   4   8
#     4  10  20  40  59  91 120 174 210 255 308 409
#     4  10  20  42  62  91 123 177 215 258 313 412
#     4  10  23  34  63  89 130 161 209 262 328 367
#     4  12  24  42  60 106 128 164 210 288 320 386
#     4  10  23  36  65  93 129 164 214 267 329 372
#
# _framework density 22.678574000000001
#
# number of rings (size 3 to 8) (size 9 to 14) (size 15 to 20)
#    0.000    1.778    2.222    1.333    6.222    3.556 
#    0.000    1.111    0.000    8.000    0.000    0.000 
#    0.000    0.000    0.000    0.000    0.000    0.000 
#
# Total GULP energy -200443.487278 kJ/mol
# GULP energy per Si atom -5567.874647 kJ/mol
# Density = 2.262696 g / cm^3
# Si number density = 22.678574 Si / 1000 Ang^3
#
#
#
# Elastic Constant Matrix: (Units=GPa)
#
#
# Indices 1 2 3 4 5 6 
#
# 1 76.7237 3.4023 8.7719 0.0000 0.0000 0.0000
# 2 3.4023 135.8711 38.9720 0.0000 0.0000 0.0000
# 3 8.7719 38.9720 161.6550 0.0000 0.0000 0.0000
# 4 0.0000 0.0000 0.0000 1.0400 0.0000 0.0000
# 5 0.0000 0.0000 0.0000 0.0000 -87.4927 0.0000
# 6 0.0000 0.0000 0.0000 0.0000 0.0000 -39.9770
#
#
#
# Elastic Compliance Matrix: (Units=1/GPa)
#
#
# Indices 1 2 3 4 5 6 
#
# 1 0.013117 -0.000134 -0.000680 0.000000 0.000000 0.000000
# 2 -0.000134 0.007908 -0.001899 0.000000 0.000000 0.000000
# 3 -0.000680 -0.001899 0.006681 0.000000 0.000000 0.000000
# 4 0.000000 0.000000 0.000000 0.961565 0.000000 0.000000
# 5 0.000000 0.000000 0.000000 0.000000 -0.011430 0.000000
# 6 0.000000 0.000000 0.000000 0.000000 0.000000 -0.025014
#
#
# Mechanical properties :
#
#
# Convention : Reuss Voigt Hill
#
# Bulk Modulus (GPa) = 44.88036 52.94912 48.91474
# Shear Modulus (GPa) = 5.17770 -3.74568 0.71601
#
# Velocity S-wave (km/s) = 1.51263 -1.28656 0.56250
# Velocity P-wave (km/s) = 4.78366 4.60341 4.69440
#
# Compressibility (1/GPa) = 0.02228146
#
# Stress axis : x y z
#
# Youngs Moduli (GPa) = 76.23458 126.45397 149.68365
#
# Poissons Ratio (x) = 0.01689 0.10172
# Poissons Ratio (y) = 0.01018 0.28428
# Poissons Ratio (z) = 0.05181 0.24016
#
# Static dielectric constant tensor:
#      x y z
#    x 1.882640 0.000000 0.000000 
#    y 0.000000 1.863970 0.000000 
#    z 0.000000 0.000000 1.697260 
# 
# From -- ./inp_files/21040.got.cif
#   From: 2010.05.17/outbox.cif.g08.bks.cpg/sg56_11_cif.got.tgz:21040.got - 2010.06.03 13:42:01.
