data_PCOD9431456
_publ_section_title
;
Structure prediction by ZEFSAII (Michael W. Deem and Ramdas Pophale) SiO2 
 PCOD9431456
Probable space group: P C C N
;
_chemical_formula_sum "Si O2"
_cell_formula_units_Z 36
_cell_length_a 10.562832
_cell_length_b 9.718384
_cell_length_c 18.662584
_cell_angle_alpha 90.000000
_cell_angle_beta 90.000000
_cell_angle_gamma 90.000000
_cell_volume 1915.782506
_symmetry_space_group_name_H-M "P C C N"
_symmetry_group_IT_number 56
_symmetry_cell_setting 'orthorhombic'
loop_
_space_group_symop_operation_xyz
x,y,z
1/2-x,1/2-y,z
1/2+x,-y,1/2-z
-x,1/2+y,1/2-z
-x,-y,-z
1/2+x,1/2+y,-z
1/2-x,y,1/2+z
x,1/2-y,1/2+z
loop_
_atom_site_type_symbol
_atom_site_label
_atom_site_fract_x
_atom_site_fract_y
_atom_site_fract_z
Si Si1 0.075794 0.958105 0.726828
Si Si2 0.613472 0.686181 0.530377
Si Si3 0.750000 0.250000 0.200329
Si Si4 0.547565 0.400767 0.598942
Si Si5 0.899856 0.777394 0.182111
O O1 0.198560 0.871309 0.748781
O O2 0.965022 0.845286 0.725744
O O3 0.060488 0.031388 0.649815
O O4 0.063749 0.078313 0.784308
O O5 0.750000 0.750000 0.512834
O O6 0.620276 0.528662 0.560648
O O7 0.520540 0.684631 0.463140
O O8 0.560760 0.767843 0.599204
O O9 0.641177 0.186554 0.149161
O O10 0.750000 0.750000 0.183947
#
# Coordination Sequence:
#
# PCOD9431456 Si02
#       5
#     8   8   4   8   8
#     4  11  21  39  62  93 122 167 209 256 316 367
#     4   9  19  41  62  87 125 169 205 256 310 370
#     4  12  22  40  64  90 128 164 206 262 314 368
#     4  10  22  40  62  91 129 164 207 260 310 375
#     4  10  21  38  64  90 127 165 206 260 310 370
#
# _framework density 18.791276
#
# number of rings (size 3 to 8) (size 9 to 14) (size 15 to 20)
#    0.000    1.778    2.222    4.000    0.000    0.889 
#    4.000   14.444    0.000    0.000    0.000    0.000 
#    0.000    0.000    0.000    0.000    0.000    0.000 
#
# Total GULP energy -200761.149510 kJ/mol
# GULP energy per Si atom -5576.698597 kJ/mol
# Density = 1.874851 g / cm^3
# Si number density = 18.791276 Si / 1000 Ang^3
#
#
#
# Elastic Constant Matrix: (Units=GPa)
#
#
# Indices 1 2 3 4 5 6 
#
# 1 75.6883 45.3887 77.5785 0.0000 0.0000 0.0000
# 2 45.3887 98.2344 68.6140 0.0000 0.0000 0.0000
# 3 77.5785 68.6140 119.6675 0.0000 0.0000 0.0000
# 4 0.0000 0.0000 0.0000 23.5275 0.0000 0.0000
# 5 0.0000 0.0000 0.0000 0.0000 43.4585 0.0000
# 6 0.0000 0.0000 0.0000 0.0000 0.0000 41.7230
#
#
#
# Elastic Compliance Matrix: (Units=1/GPa)
#
#
# Indices 1 2 3 4 5 6 
#
# 1 0.039399 -0.000607 -0.025194 0.000000 0.000000 0.000000
# 2 -0.000607 0.016989 -0.009348 0.000000 0.000000 0.000000
# 3 -0.025194 -0.009348 0.030049 0.000000 0.000000 0.000000
# 4 0.000000 0.000000 0.000000 0.042503 0.000000 0.000000
# 5 0.000000 0.000000 0.000000 0.000000 0.023010 0.000000
# 6 0.000000 0.000000 0.000000 0.000000 0.000000 0.023968
#
#
# Mechanical properties :
#
#
# Convention : Reuss Voigt Hill
#
# Bulk Modulus (GPa) = 61.95643 75.19475 68.57559
# Shear Modulus (GPa) = 19.87318 28.54239 24.20778
#
# Velocity S-wave (km/s) = 3.25557 3.90156 3.59311
# Velocity P-wave (km/s) = 6.86834 7.77167 7.33392
#
# Compressibility (1/GPa) = 0.01614038
#
# Stress axis : x y z
#
# Youngs Moduli (GPa) = 25.38137 58.86066 33.27917
#
# Poissons Ratio (x) = 0.03573 0.83842
# Poissons Ratio (y) = 0.01541 0.31108
# Poissons Ratio (z) = 0.63945 0.55021
#
# Static dielectric constant tensor:
#      x y z
#    x 1.655430 0.000000 0.000000 
#    y 0.000000 1.669090 0.000000 
#    z 0.000000 0.000000 1.657120 
# 
# From -- ./inp_files/17854.got.cif
#   From: 2010.05.17/outbox.cif.g08.bks.cpg/sg56_9_cif.got.tgz:17854.got - 2010.06.03 13:42:01.
