data_PCOD9431127
_publ_section_title
;
Structure prediction by ZEFSAII (Michael W. Deem and Ramdas Pophale) SiO2 
 PCOD9431127
Probable space group: P C C N
;
_chemical_formula_sum "Si O2"
_cell_formula_units_Z 56
_cell_length_a 6.627535
_cell_length_b 31.915291
_cell_length_c 14.035935
_cell_angle_alpha 90.000000
_cell_angle_beta 90.000000
_cell_angle_gamma 90.000000
_cell_volume 2968.876875
_symmetry_space_group_name_H-M "P C C N"
_symmetry_group_IT_number 56
_symmetry_cell_setting 'orthorhombic'
loop_
_space_group_symop_operation_xyz
x,y,z
1/2-x,1/2-y,z
1/2+x,-y,1/2-z
-x,1/2+y,1/2-z
-x,-y,-z
1/2+x,1/2+y,-z
1/2-x,y,1/2+z
x,1/2-y,1/2+z
loop_
_atom_site_type_symbol
_atom_site_label
_atom_site_fract_x
_atom_site_fract_y
_atom_site_fract_z
Si Si1 0.549136 0.648650 0.255550
Si Si2 0.925492 0.003176 0.642940
Si Si3 0.841570 0.297276 0.728870
Si Si4 0.306949 0.202412 0.878969
Si Si5 0.190867 0.529205 0.525861
Si Si6 0.795903 0.702305 0.400635
Si Si7 0.564898 0.556908 0.183688
O O1 0.327530 0.667255 0.268238
O O2 0.645164 0.670588 0.163244
O O3 0.678291 0.667593 0.341415
O O4 0.573823 0.599481 0.242466
O O5 0.803817 0.035783 0.574726
O O6 0.969714 0.022056 0.746117
O O7 0.780890 0.962303 0.651971
O O8 0.135182 0.992288 0.590366
O O9 0.750000 0.250000 0.732427
O O10 0.985747 0.304097 0.821062
O O11 0.971792 0.302078 0.631680
O O12 0.250000 0.250000 0.854667
O O13 0.285199 0.199265 0.992233
O O14 0.000000 0.500000 0.500000
O O15 0.083381 0.563303 0.593042
O O16 0.750000 0.750000 0.368309
#
# Coordination Sequence:
#
# PCOD9431127 Si02
#       7
#     8   8   8   8   8   8   8
#     4  11  23  40  58  96 121 159 206 259 298 361
#     4  10  20  41  65  85 122 167 200 255 311 370
#     4  11  19  39  65  84 123 160 202 249 307 369
#     4  10  21  40  61  86 124 164 199 248 309 365
#     4   9  20  39  63  92 115 158 210 246 305 375
#     4  10  21  40  61  88 126 163 201 247 306 365
#     4  11  22  40  64  90 124 161 208 252 316 371
#
# _framework density 18.862352999999999
#
# number of rings (size 3 to 8) (size 9 to 14) (size 15 to 20)
#    0.000    1.714    4.286    0.857    0.000    3.429 
#   12.857    0.000    0.000    0.000    0.000    0.000 
#    0.000    0.000    0.000    0.000    0.000    0.000 
#
# Total GULP energy -311881.575760 kJ/mol
# GULP energy per Si atom -5569.313853 kJ/mol
# Density = 1.881942 g / cm^3
# Si number density = 18.862353 Si / 1000 Ang^3
#
#
#
# Elastic Constant Matrix: (Units=GPa)
#
#
# Indices 1 2 3 4 5 6 
#
# 1 102.5601 17.0958 8.6474 0.0000 0.0000 0.0000
# 2 17.0958 47.0326 -13.4548 0.0000 0.0000 0.0000
# 3 8.6474 -13.4548 55.7172 0.0000 0.0000 0.0000
# 4 0.0000 0.0000 0.0000 30.8330 0.0000 0.0000
# 5 0.0000 0.0000 0.0000 0.0000 23.5222 0.0000
# 6 0.0000 0.0000 0.0000 0.0000 0.0000 16.8398
#
#
#
# Elastic Compliance Matrix: (Units=1/GPa)
#
#
# Indices 1 2 3 4 5 6 
#
# 1 0.010774 -0.004721 -0.002812 0.000000 0.000000 0.000000
# 2 -0.004721 0.024908 0.006748 0.000000 0.000000 0.000000
# 3 -0.002812 0.006748 0.020014 0.000000 0.000000 0.000000
# 4 0.000000 0.000000 0.000000 0.032433 0.000000 0.000000
# 5 0.000000 0.000000 0.000000 0.000000 0.042513 0.000000
# 6 0.000000 0.000000 0.000000 0.000000 0.000000 0.059383
#
#
# Mechanical properties :
#
#
# Convention : Reuss Voigt Hill
#
# Bulk Modulus (GPa) = 18.47567 25.54296 22.00932
# Shear Modulus (GPa) = 23.85064 27.10709 25.47886
#
# Velocity S-wave (km/s) = 3.55978 3.79502 3.67928
# Velocity P-wave (km/s) = 5.16839 5.72487 5.45373
#
# Compressibility (1/GPa) = 0.05412523
#
# Stress axis : x y z
#
# Youngs Moduli (GPa) = 92.81241 40.14754 49.96582
#
# Poissons Ratio (x) = 0.18953 0.14052
# Poissons Ratio (y) = 0.43816 -0.33715
# Poissons Ratio (z) = 0.26101 -0.27090
#
# Static dielectric constant tensor:
#      x y z
#    x 1.674930 0.000000 0.000000 
#    y 0.000000 1.633840 0.000000 
#    z 0.000000 0.000000 1.699050 
# 
# From -- ./inp_files/9819.got.cif
#   From: 2010.05.17/outbox.cif.g08.bks.cpg/sg56_5_cif.got.tgz:9819.got - 2010.06.03 13:42:01.
