data_PCOD9431594
_publ_section_title
;
Structure prediction by ZEFSAII (Michael W. Deem and Ramdas Pophale) SiO2 
 PCOD9431594
Probable space group: P C C N
;
_chemical_formula_sum "Si O2"
_cell_formula_units_Z 40
_cell_length_a 6.153656
_cell_length_b 21.542785
_cell_length_c 13.829082
_cell_angle_alpha 90.000000
_cell_angle_beta 90.000000
_cell_angle_gamma 90.000000
_cell_volume 1833.278367
_symmetry_space_group_name_H-M "P C C N"
_symmetry_group_IT_number 56
_symmetry_cell_setting 'orthorhombic'
loop_
_space_group_symop_operation_xyz
x,y,z
1/2-x,1/2-y,z
1/2+x,-y,1/2-z
-x,1/2+y,1/2-z
-x,-y,-z
1/2+x,1/2+y,-z
1/2-x,y,1/2+z
x,1/2-y,1/2+z
loop_
_atom_site_type_symbol
_atom_site_label
_atom_site_fract_x
_atom_site_fract_y
_atom_site_fract_z
Si Si1 0.392108 0.189107 0.491500
Si Si2 0.892311 0.510081 0.605499
Si Si3 0.521912 0.906232 0.056851
Si Si4 0.214227 0.879775 0.878058
Si Si5 0.638584 0.366904 0.822178
O O1 0.250000 0.250000 0.503315
O O2 0.221540 0.133703 0.481683
O O3 0.554204 0.171649 0.578147
O O4 0.527298 0.184183 0.391176
O O5 0.641785 0.532054 0.593164
O O6 0.904694 0.443191 0.656586
O O7 0.000000 0.500000 0.500000
O O8 0.020439 0.566718 0.656551
O O9 0.386863 0.874431 0.142503
O O10 0.352607 0.904947 0.968950
O O11 0.359490 0.854586 0.791270
#
# Coordination Sequence:
#
# PCOD9431594 Si02
#       5
#     8   8   8   8   8
#     4  10  23  46  66  87 128 178 224 280 333 382
#     4  11  20  37  59  95 135 175 202 267 340 404
#     4  10  21  40  61  86 136 170 215 266 335 394
#     4  11  23  38  63  99 128 171 230 259 340 404
#     4  10  24  38  61 101 129 170 222 274 331 403
#
# _framework density 21.818836999999998
#
# number of rings (size 3 to 8) (size 9 to 14) (size 15 to 20)
#    0.000    1.600    6.000    0.600    2.800    6.400 
#    0.000    6.000    0.000    0.000    0.000    0.000 
#    0.000    0.000    0.000    0.000    0.000    0.000 
#
# Total GULP energy -223254.984334 kJ/mol
# GULP energy per Si atom -5581.374608 kJ/mol
# Density = 2.176918 g / cm^3
# Si number density = 21.818837 Si / 1000 Ang^3
#
#
#
# Elastic Constant Matrix: (Units=GPa)
#
#
# Indices 1 2 3 4 5 6 
#
# 1 78.5478 21.0163 28.0438 0.0000 0.0000 0.0000
# 2 21.0163 85.2487 35.9425 0.0000 0.0000 0.0000
# 3 28.0438 35.9425 90.3870 0.0000 0.0000 0.0000
# 4 0.0000 0.0000 0.0000 13.4351 0.0000 0.0000
# 5 0.0000 0.0000 0.0000 0.0000 15.9659 0.0000
# 6 0.0000 0.0000 0.0000 0.0000 0.0000 44.4264
#
#
#
# Elastic Compliance Matrix: (Units=1/GPa)
#
#
# Indices 1 2 3 4 5 6 
#
# 1 0.014604 -0.002030 -0.003724 0.000000 0.000000 0.000000
# 2 -0.002030 0.014375 -0.005087 0.000000 0.000000 0.000000
# 3 -0.003724 -0.005087 0.014242 0.000000 0.000000 0.000000
# 4 0.000000 0.000000 0.000000 0.074432 0.000000 0.000000
# 5 0.000000 0.000000 0.000000 0.000000 0.062634 0.000000
# 6 0.000000 0.000000 0.000000 0.000000 0.000000 0.022509
#
#
# Mechanical properties :
#
#
# Convention : Reuss Voigt Hill
#
# Bulk Modulus (GPa) = 46.42561 47.13210 46.77885
# Shear Modulus (GPa) = 21.58371 26.04420 23.81395
#
# Velocity S-wave (km/s) = 3.14860 3.45868 3.30728
# Velocity P-wave (km/s) = 5.87726 6.13176 6.00586
#
# Compressibility (1/GPa) = 0.02153984
#
# Stress axis : x y z
#
# Youngs Moduli (GPa) = 68.47536 69.56288 70.21726
#
# Poissons Ratio (x) = 0.14123 0.26147
# Poissons Ratio (y) = 0.13902 0.35716
# Poissons Ratio (z) = 0.25498 0.35383
#
# Static dielectric constant tensor:
#      x y z
#    x 1.840930 0.000000 0.000000 
#    y 0.000000 1.889940 0.000000 
#    z 0.000000 0.000000 1.805920 
# 
# From -- ./inp_files/9553.got.cif
#   From: 2010.05.17/outbox.cif.g08.bks.cpg/sg56_5_cif.got.tgz:9553.got - 2010.06.03 13:42:01.
