data_PCOD9431284
_publ_section_title
;
Structure prediction by ZEFSAII (Michael W. Deem and Ramdas Pophale) SiO2 
 PCOD9431284
Probable space group: P C C N
;
_chemical_formula_sum "Si O2"
_cell_formula_units_Z 60
_cell_length_a 12.241063
_cell_length_b 10.352210
_cell_length_c 20.459530
_cell_angle_alpha 90.000000
_cell_angle_beta 90.000000
_cell_angle_gamma 90.000000
_cell_volume 2592.673682
_symmetry_space_group_name_H-M "P C C N"
_symmetry_group_IT_number 56
_symmetry_cell_setting 'orthorhombic'
loop_
_space_group_symop_operation_xyz
x,y,z
1/2-x,1/2-y,z
1/2+x,-y,1/2-z
-x,1/2+y,1/2-z
-x,-y,-z
1/2+x,1/2+y,-z
1/2-x,y,1/2+z
x,1/2-y,1/2+z
loop_
_atom_site_type_symbol
_atom_site_label
_atom_site_fract_x
_atom_site_fract_y
_atom_site_fract_z
Si Si1 0.212928 0.472986 0.923409
Si Si2 0.750000 0.250000 0.088980
Si Si3 0.822860 0.868593 0.954075
Si Si4 0.506304 0.284193 0.123589
Si Si5 0.047829 0.527636 0.714303
Si Si6 0.994927 0.481726 0.860836
Si Si7 0.308686 0.113595 0.289521
Si Si8 0.760130 0.045821 0.341294
O O1 0.221836 0.619576 0.948783
O O2 0.085620 0.438560 0.913344
O O3 0.264802 0.466791 0.851370
O O4 0.284353 0.390392 0.972515
O O5 0.637119 0.277223 0.126891
O O6 0.750000 0.750000 0.928059
O O7 0.786579 0.985752 0.907898
O O8 0.949917 0.836787 0.942803
O O9 0.464616 0.390963 0.175393
O O10 0.469545 0.134931 0.128483
O O11 0.049953 0.484654 0.789510
O O12 0.152984 0.609293 0.691235
O O13 0.939333 0.611808 0.704226
O O14 0.881184 0.405346 0.858266
O O15 0.250000 0.250000 0.294328
O O16 0.283926 0.054066 0.218568
#
# Coordination Sequence:
#
# PCOD9431284 Si02
#       8
#     8   4   8   8   8   8   8   8
#     4  11  23  41  65  93 130 173 231 279 334 404
#     4  10  22  44  60  90 130 178 222 274 344 400
#     4  11  22  40  64  97 126 179 230 274 328 403
#     4  10  21  39  63  94 133 177 228 267 340 410
#     4  10  21  35  62  97 130 169 218 277 335 402
#     4  10  21  36  64  95 132 179 217 281 336 403
#     4  11  22  39  65  97 130 170 223 280 335 396
#     4  10  21  39  62  94 133 170 223 270 341 403
#
# _framework density 23.142132
#
# number of rings (size 3 to 8) (size 9 to 14) (size 15 to 20)
#    0.000    1.600    4.000    0.800    5.600    1.067 
#    0.000    0.000    0.000    8.000    0.000    0.000 
#    0.000    0.000    0.000    0.000    0.000    0.000 
#
# Total GULP energy -334579.769477 kJ/mol
# GULP energy per Si atom -5576.329491 kJ/mol
# Density = 2.308946 g / cm^3
# Si number density = 23.142132 Si / 1000 Ang^3
#
#
#
# Elastic Constant Matrix: (Units=GPa)
#
#
# Indices 1 2 3 4 5 6 
#
# 1 187.6538 10.5311 43.7703 0.0000 0.0000 0.0000
# 2 10.5311 50.7219 10.2471 0.0000 0.0000 0.0000
# 3 43.7703 10.2471 58.1699 0.0000 0.0000 0.0000
# 4 0.0000 0.0000 0.0000 18.5533 0.0000 0.0000
# 5 0.0000 0.0000 0.0000 0.0000 13.0930 0.0000
# 6 0.0000 0.0000 0.0000 0.0000 0.0000 7.7981
#
#
#
# Elastic Compliance Matrix: (Units=1/GPa)
#
#
# Indices 1 2 3 4 5 6 
#
# 1 0.006470 -0.000373 -0.004803 0.000000 0.000000 0.000000
# 2 -0.000373 0.020464 -0.003324 0.000000 0.000000 0.000000
# 3 -0.004803 -0.003324 0.021390 0.000000 0.000000 0.000000
# 4 0.000000 0.000000 0.000000 0.053899 0.000000 0.000000
# 5 0.000000 0.000000 0.000000 0.000000 0.076377 0.000000
# 6 0.000000 0.000000 0.000000 0.000000 0.000000 0.128237
#
#
# Mechanical properties :
#
#
# Convention : Reuss Voigt Hill
#
# Bulk Modulus (GPa) = 31.92360 47.29366 39.60863
# Shear Modulus (GPa) = 14.95757 23.35537 19.15647
#
# Velocity S-wave (km/s) = 2.54507 3.18026 2.88023
# Velocity P-wave (km/s) = 4.73931 5.82803 5.31164
#
# Compressibility (1/GPa) = 0.03132478
#
# Stress axis : x y z
#
# Youngs Moduli (GPa) = 154.55599 48.86540 46.74976
#
# Poissons Ratio (x) = 0.01823 0.22453
# Poissons Ratio (y) = 0.05766 0.15541
# Poissons Ratio (z) = 0.74230 0.16244
#
# Static dielectric constant tensor:
#      x y z
#    x 1.935760 0.000000 0.000000 
#    y 0.000000 1.937950 0.000000 
#    z 0.000000 0.000000 1.852380 
# 
# From -- ./inp_files/18820.got.cif
#   From: 2010.05.17/outbox.cif.g08.bks.cpg/sg56_10_cif.got.tgz:18820.got - 2010.06.03 13:42:01.
