data_PCOD9431500
_publ_section_title
;
Structure prediction by ZEFSAII (Michael W. Deem and Ramdas Pophale) SiO2 
 PCOD9431500
Probable space group: P C C N
;
_chemical_formula_sum "Si O2"
_cell_formula_units_Z 48
_cell_length_a 20.917359
_cell_length_b 5.609689
_cell_length_c 19.785317
_cell_angle_alpha 90.000000
_cell_angle_beta 90.000000
_cell_angle_gamma 90.000000
_cell_volume 2321.606697
_symmetry_space_group_name_H-M "P C C N"
_symmetry_group_IT_number 56
_symmetry_cell_setting 'orthorhombic'
loop_
_space_group_symop_operation_xyz
x,y,z
1/2-x,1/2-y,z
1/2+x,-y,1/2-z
-x,1/2+y,1/2-z
-x,-y,-z
1/2+x,1/2+y,-z
1/2-x,y,1/2+z
x,1/2-y,1/2+z
loop_
_atom_site_type_symbol
_atom_site_label
_atom_site_fract_x
_atom_site_fract_y
_atom_site_fract_z
Si Si1 0.590072 0.239985 0.112493
Si Si2 0.609156 0.214679 0.459477
Si Si3 0.179696 0.354030 0.861765
Si Si4 0.826272 0.731772 0.984714
Si Si5 0.975607 0.100864 0.344499
Si Si6 0.921224 0.867505 0.228064
O O1 0.582750 0.429448 0.171281
O O2 0.661549 0.128547 0.122474
O O3 0.533629 0.049450 0.124505
O O4 0.581896 0.312073 0.035089
O O5 0.647650 0.470421 0.461808
O O6 0.555846 0.244068 0.402555
O O7 0.646216 0.966320 0.448200
O O8 0.250000 0.250000 0.850675
O O9 0.136795 0.297754 0.796290
O O10 0.158396 0.243802 0.934453
O O11 0.750000 0.750000 0.979354
O O12 0.010256 0.247914 0.285419
O O13 0.921887 0.950630 0.304994
#
# Coordination Sequence:
#
# PCOD9431500 Si02
#       6
#     8   8   8   8   8   8
#     4  10  21  39  60  91 120 160 202 254 315 372
#     4  11  23  39  64  96 123 165 213 265 312 374
#     4   9  20  38  63  91 118 157 208 258 302 371
#     4  10  21  40  65  92 125 163 210 262 319 370
#     4  11  24  37  61  87 127 165 207 257 316 379
#     4  11  21  39  60  86 123 165 204 249 318 370
#
# _framework density 20.675336999999999
#
# number of rings (size 3 to 8) (size 9 to 14) (size 15 to 20)
#    0.000    1.667    3.333    1.000    2.333    1.333 
#    0.000    0.833    3.667    0.000    0.000    0.000 
#    0.000    0.000    0.000    0.000    0.000    0.000 
#
# Total GULP energy -267415.878320 kJ/mol
# GULP energy per Si atom -5571.164132 kJ/mol
# Density = 2.062828 g / cm^3
# Si number density = 20.675337 Si / 1000 Ang^3
#
#
#
# Elastic Constant Matrix: (Units=GPa)
#
#
# Indices 1 2 3 4 5 6 
#
# 1 25.2840 -2.3285 4.9797 0.0000 0.0000 0.0000
# 2 -2.3285 63.2968 -2.8680 0.0000 0.0000 0.0000
# 3 4.9797 -2.8680 41.4817 0.0000 0.0000 0.0000
# 4 0.0000 0.0000 0.0000 19.9512 0.0000 0.0000
# 5 0.0000 0.0000 0.0000 0.0000 -11.3157 0.0000
# 6 0.0000 0.0000 0.0000 0.0000 0.0000 14.6615
#
#
#
# Elastic Compliance Matrix: (Units=1/GPa)
#
#
# Indices 1 2 3 4 5 6 
#
# 1 0.040611 0.001277 -0.004787 0.000000 0.000000 0.000000
# 2 0.001277 0.015888 0.000945 0.000000 0.000000 0.000000
# 3 -0.004787 0.000945 0.024747 0.000000 0.000000 0.000000
# 4 0.000000 0.000000 0.000000 0.050122 0.000000 0.000000
# 5 0.000000 0.000000 0.000000 0.000000 -0.088373 0.000000
# 6 0.000000 0.000000 0.000000 0.000000 0.000000 0.068206
#
#
# Mechanical properties :
#
#
# Convention : Reuss Voigt Hill
#
# Bulk Modulus (GPa) = 13.13761 14.40320 13.77040
# Shear Modulus (GPa) = 35.28486 13.34468 24.31477
#
# Velocity S-wave (km/s) = 4.13560 2.54331 3.43305
# Velocity P-wave (km/s) = 5.40114 3.95045 4.73172
#
# Compressibility (1/GPa) = 0.07611736
#
# Stress axis : x y z
#
# Youngs Moduli (GPa) = 24.62379 62.93900 40.40891
#
# Poissons Ratio (x) = -0.08038 0.19343
# Poissons Ratio (y) = -0.03145 -0.03819
# Poissons Ratio (z) = 0.11787 -0.05949
#
# Static dielectric constant tensor:
#      x y z
#    x 1.749950 0.000000 0.000000 
#    y 0.000000 1.877880 0.000000 
#    z 0.000000 0.000000 1.700130 
# 
# From -- ./inp_files/19415.got.cif
#   From: 2010.05.17/outbox.cif.g08.bks.cpg/sg56_10_cif.got.tgz:19415.got - 2010.06.03 13:42:01.
