data_PCOD9431912
_publ_section_title
;
Structure prediction by ZEFSAII (Michael W. Deem and Ramdas Pophale) SiO2 
 PCOD9431912
Probable space group: P C C N
;
_chemical_formula_sum "Si O2"
_cell_formula_units_Z 44
_cell_length_a 19.880732
_cell_length_b 10.924674
_cell_length_c 9.395740
_cell_angle_alpha 90.000000
_cell_angle_beta 90.000000
_cell_angle_gamma 90.000000
_cell_volume 2040.665619
_symmetry_space_group_name_H-M "P C C N"
_symmetry_group_IT_number 56
_symmetry_cell_setting 'orthorhombic'
loop_
_space_group_symop_operation_xyz
x,y,z
1/2-x,1/2-y,z
1/2+x,-y,1/2-z
-x,1/2+y,1/2-z
-x,-y,-z
1/2+x,1/2+y,-z
1/2-x,y,1/2+z
x,1/2-y,1/2+z
loop_
_atom_site_type_symbol
_atom_site_label
_atom_site_fract_x
_atom_site_fract_y
_atom_site_fract_z
Si Si1 0.085606 0.344994 0.072330
Si Si2 0.607493 0.612983 0.741172
Si Si3 0.335290 0.856066 0.677214
Si Si4 0.040202 0.511997 0.299139
Si Si5 0.964097 0.197471 0.967140
Si Si6 0.750000 0.250000 0.067561
O O1 0.114783 0.232856 0.163054
O O2 0.084070 0.465810 0.168646
O O3 0.122328 0.362520 0.923351
O O4 0.007573 0.305404 0.036757
O O5 0.645480 0.496830 0.802695
O O6 0.528926 0.573406 0.747163
O O7 0.402913 0.778650 0.639183
O O8 0.285843 0.840673 0.543653
O O9 0.303015 0.810563 0.824330
O O10 0.067298 0.608392 0.412782
O O11 0.018373 0.388518 0.384902
#
# Coordination Sequence:
#
# PCOD9431912 Si02
#       6
#     8   8   8   8   8   4
#     4  11  19  35  56  94 136 166 190 233 291 394
#     4  10  22  35  58  90 131 161 201 230 304 367
#     4  10  23  43  65  92 111 160 207 269 310 349
#     4   9  18  33  51  88 132 168 191 225 278 388
#     4   9  19  33  57  89 128 160 198 239 298 364
#     4  10  24  48  68  82 114 148 220 280 310 344
#
# _framework density 21.561593999999999
#
# number of rings (size 3 to 8) (size 9 to 14) (size 15 to 20)
#    0.000    2.182    1.818    1.636    5.091    0.000 
#    6.545    0.000    0.000    3.273    0.000    0.000 
#    0.000    0.000    0.000    0.000    0.000    0.000 
#
# Total GULP energy -245932.645125 kJ/mol
# GULP energy per Si atom -5589.378298 kJ/mol
# Density = 2.151252 g / cm^3
# Si number density = 21.561594 Si / 1000 Ang^3
#
#
#
# Elastic Constant Matrix: (Units=GPa)
#
#
# Indices 1 2 3 4 5 6 
#
# 1 44.4169 20.1941 39.4746 0.0000 0.0000 0.0000
# 2 20.1941 66.5094 53.8513 0.0000 0.0000 0.0000
# 3 39.4746 53.8513 179.4534 0.0000 0.0000 0.0000
# 4 0.0000 0.0000 0.0000 37.0975 0.0000 0.0000
# 5 0.0000 0.0000 0.0000 0.0000 18.0627 0.0000
# 6 0.0000 0.0000 0.0000 0.0000 0.0000 14.6667
#
#
#
# Elastic Compliance Matrix: (Units=1/GPa)
#
#
# Indices 1 2 3 4 5 6 
#
# 1 0.029113 -0.004827 -0.004955 0.000000 0.000000 0.000000
# 2 -0.004827 0.020662 -0.005138 0.000000 0.000000 0.000000
# 3 -0.004955 -0.005138 0.008204 0.000000 0.000000 0.000000
# 4 0.000000 0.000000 0.000000 0.026956 0.000000 0.000000
# 5 0.000000 0.000000 0.000000 0.000000 0.055363 0.000000
# 6 0.000000 0.000000 0.000000 0.000000 0.000000 0.068182
#
#
# Mechanical properties :
#
#
# Convention : Reuss Voigt Hill
#
# Bulk Modulus (GPa) = 35.54058 57.49107 46.51583
# Shear Modulus (GPa) = 20.18574 25.75603 22.97088
#
# Velocity S-wave (km/s) = 3.06304 3.45995 3.26753
# Velocity P-wave (km/s) = 5.38783 6.53324 5.98798
#
# Compressibility (1/GPa) = 0.02813685
#
# Stress axis : x y z
#
# Youngs Moduli (GPa) = 34.34942 48.39898 121.88459
#
# Poissons Ratio (x) = 0.23363 0.60398
# Poissons Ratio (y) = 0.16581 0.62629
# Poissons Ratio (z) = 0.17021 0.24869
#
# Static dielectric constant tensor:
#      x y z
#    x 1.787820 0.000000 0.000000 
#    y 0.000000 1.798320 0.000000 
#    z 0.000000 0.000000 1.847040 
# 
# From -- ./inp_files/2741.got.cif
#   From: 2010.05.17/outbox.cif.g08.bks.cpg/sg56_2_cif.got.tgz:2741.got - 2010.06.03 13:42:01.
