data_PCOD9431225
_publ_section_title
;
Structure prediction by ZEFSAII (Michael W. Deem and Ramdas Pophale) SiO2 
 PCOD9431225
Probable space group: P C C N
;
_chemical_formula_sum "Si O2"
_cell_formula_units_Z 40
_cell_length_a 10.566816
_cell_length_b 7.590453
_cell_length_c 19.799695
_cell_angle_alpha 90.000000
_cell_angle_beta 90.000000
_cell_angle_gamma 90.000000
_cell_volume 1588.072557
_symmetry_space_group_name_H-M "P C C N"
_symmetry_group_IT_number 56
_symmetry_cell_setting 'orthorhombic'
loop_
_space_group_symop_operation_xyz
x,y,z
1/2-x,1/2-y,z
1/2+x,-y,1/2-z
-x,1/2+y,1/2-z
-x,-y,-z
1/2+x,1/2+y,-z
1/2-x,y,1/2+z
x,1/2-y,1/2+z
loop_
_atom_site_type_symbol
_atom_site_label
_atom_site_fract_x
_atom_site_fract_y
_atom_site_fract_z
Si Si1 0.856594 0.564013 0.995067
Si Si2 0.048668 0.259889 0.685258
Si Si3 0.837273 0.414448 0.768155
Si Si4 0.104879 0.048497 0.056976
Si Si5 0.305233 0.574005 0.371814
O O1 0.810566 0.572656 0.072275
O O2 0.872300 0.748778 0.960247
O O3 0.743116 0.463676 0.955889
O O4 0.000000 0.500000 0.000000
O O5 0.070208 0.428829 0.635974
O O6 0.978096 0.336296 0.752160
O O7 0.941677 0.138468 0.650824
O O8 0.153442 0.107108 0.697639
O O9 0.750000 0.250000 0.794203
O O10 0.776906 0.456559 0.694468
O O11 0.000000 0.000000 0.000000
O O12 0.250000 0.750000 0.406818
#
# Coordination Sequence:
#
# PCOD9431225 Si02
#       5
#     8   8   8   8   8
#     4  11  23  42  67 106 137 184 241 303 380 444
#     4  10  20  45  66 102 138 190 250 304 364 457
#     4   9  21  43  69 100 143 192 245 306 377 440
#     4  11  24  44  70 101 147 189 247 309 382 448
#     4   9  19  42  69  90 134 184 230 299 370 444
#
# _framework density 25.187764999999999
#
# number of rings (size 3 to 8) (size 9 to 14) (size 15 to 20)
#    0.000    2.400    2.000    2.400    0.000    0.000 
#   25.200    1.000    0.000    0.000    0.000    0.000 
#    0.000    0.000    0.000    0.000    0.000    0.000 
#
# Total GULP energy -222835.302396 kJ/mol
# GULP energy per Si atom -5570.882560 kJ/mol
# Density = 2.513044 g / cm^3
# Si number density = 25.187765 Si / 1000 Ang^3
#
#
#
# Elastic Constant Matrix: (Units=GPa)
#
#
# Indices 1 2 3 4 5 6 
#
# 1 148.3085 44.9984 28.7389 0.0000 0.0000 0.0000
# 2 44.9984 79.3988 35.8348 0.0000 0.0000 0.0000
# 3 28.7389 35.8348 66.7354 0.0000 0.0000 0.0000
# 4 0.0000 0.0000 0.0000 50.4727 0.0000 0.0000
# 5 0.0000 0.0000 0.0000 0.0000 11.1815 0.0000
# 6 0.0000 0.0000 0.0000 0.0000 0.0000 36.4360
#
#
#
# Elastic Compliance Matrix: (Units=1/GPa)
#
#
# Indices 1 2 3 4 5 6 
#
# 1 0.008237 -0.004049 -0.001373 0.000000 0.000000 0.000000
# 2 -0.004049 0.018613 -0.008251 0.000000 0.000000 0.000000
# 3 -0.001373 -0.008251 0.020007 0.000000 0.000000 0.000000
# 4 0.000000 0.000000 0.000000 0.019813 0.000000 0.000000
# 5 0.000000 0.000000 0.000000 0.000000 0.089433 0.000000
# 6 0.000000 0.000000 0.000000 0.000000 0.000000 0.027445
#
#
# Mechanical properties :
#
#
# Convention : Reuss Voigt Hill
#
# Bulk Modulus (GPa) = 51.25370 57.06522 54.15946
# Shear Modulus (GPa) = 22.99930 31.94275 27.47103
#
# Velocity S-wave (km/s) = 3.02506 3.56502 3.30608
# Velocity P-wave (km/s) = 5.70912 6.29690 6.01020
#
# Compressibility (1/GPa) = 0.01951079
#
# Stress axis : x y z
#
# Youngs Moduli (GPa) = 121.40063 53.72562 49.98349
#
# Poissons Ratio (x) = 0.21751 0.06864
# Poissons Ratio (y) = 0.49149 0.41242
# Poissons Ratio (z) = 0.16672 0.44330
#
# Static dielectric constant tensor:
#      x y z
#    x 2.175070 0.000000 0.000000 
#    y 0.000000 2.020290 0.000000 
#    z 0.000000 0.000000 2.028000 
# 
# From -- ./inp_files/18571.got.cif
#   From: 2010.05.17/outbox.cif.g08.bks.cpg/sg56_10_cif.got.tgz:18571.got - 2010.06.03 13:42:01.
