data_PCOD9431432
_publ_section_title
;
Structure prediction by ZEFSAII (Michael W. Deem and Ramdas Pophale) SiO2 
 PCOD9431432
Probable space group: P C C N
;
_chemical_formula_sum "Si O2"
_cell_formula_units_Z 48
_cell_length_a 16.643800
_cell_length_b 12.990579
_cell_length_c 10.771287
_cell_angle_alpha 90.000000
_cell_angle_beta 90.000000
_cell_angle_gamma 90.000000
_cell_volume 2328.887954
_symmetry_space_group_name_H-M "P C C N"
_symmetry_group_IT_number 56
_symmetry_cell_setting 'orthorhombic'
loop_
_space_group_symop_operation_xyz
x,y,z
1/2-x,1/2-y,z
1/2+x,-y,1/2-z
-x,1/2+y,1/2-z
-x,-y,-z
1/2+x,1/2+y,-z
1/2-x,y,1/2+z
x,1/2-y,1/2+z
loop_
_atom_site_type_symbol
_atom_site_label
_atom_site_fract_x
_atom_site_fract_y
_atom_site_fract_z
Si Si1 0.452876 0.717035 0.543475
Si Si2 0.357101 0.463694 0.231364
Si Si3 0.451233 0.262136 0.203778
Si Si4 0.794715 0.651435 0.835150
Si Si5 0.800457 0.345722 0.435167
Si Si6 0.651965 0.033661 0.007009
O O1 0.511295 0.721423 0.424922
O O2 0.492569 0.744616 0.675318
O O3 0.379317 0.793385 0.509072
O O4 0.411558 0.606139 0.560835
O O5 0.420054 0.379506 0.181885
O O6 0.272800 0.402676 0.248392
O O7 0.334053 0.562756 0.150376
O O8 0.385610 0.502994 0.363195
O O9 0.371957 0.195508 0.233452
O O10 0.750000 0.750000 0.895452
O O11 0.823913 0.567152 0.932244
O O12 0.750000 0.250000 0.374136
O O13 0.734173 0.399685 0.523041
#
# Coordination Sequence:
#
# PCOD9431432 Si02
#       6
#     8   8   8   8   8   8
#     4  11  24  40  61  91 126 161 198 247 307 365
#     4  10  21  38  62  87 116 158 204 250 300 357
#     4  11  24  39  60  91 126 160 197 247 305 363
#     4   9  21  39  59  86 117 156 204 250 296 354
#     4   9  21  39  59  85 116 157 206 253 299 358
#     4  10  21  39  63  86 117 162 207 249 299 360
#
# _framework density 20.610695
#
# number of rings (size 3 to 8) (size 9 to 14) (size 15 to 20)
#    0.000    2.000    0.000    2.000    0.000   16.667 
#    0.000    0.000    0.000    0.000    0.000    0.000 
#    0.000    0.000    0.000    0.000    0.000    0.000 
#
# Total GULP energy -267618.861988 kJ/mol
# GULP energy per Si atom -5575.392958 kJ/mol
# Density = 2.056378 g / cm^3
# Si number density = 20.610695 Si / 1000 Ang^3
#
#
#
# Elastic Constant Matrix: (Units=GPa)
#
#
# Indices 1 2 3 4 5 6 
#
# 1 79.2927 29.1388 9.8146 0.0000 0.0000 0.0000
# 2 29.1388 106.7159 3.4808 0.0000 0.0000 0.0000
# 3 9.8146 3.4808 36.3252 0.0000 0.0000 0.0000
# 4 0.0000 0.0000 0.0000 19.7242 0.0000 0.0000
# 5 0.0000 0.0000 0.0000 0.0000 19.6962 0.0000
# 6 0.0000 0.0000 0.0000 0.0000 0.0000 25.4045
#
#
#
# Elastic Compliance Matrix: (Units=1/GPa)
#
#
# Indices 1 2 3 4 5 6 
#
# 1 0.014458 -0.003832 -0.003539 0.000000 0.000000 0.000000
# 2 -0.003832 0.010416 0.000037 0.000000 0.000000 0.000000
# 3 -0.003539 0.000037 0.028482 0.000000 0.000000 0.000000
# 4 0.000000 0.000000 0.000000 0.050699 0.000000 0.000000
# 5 0.000000 0.000000 0.000000 0.000000 0.050771 0.000000
# 6 0.000000 0.000000 0.000000 0.000000 0.000000 0.039363
#
#
# Mechanical properties :
#
#
# Convention : Reuss Voigt Hill
#
# Bulk Modulus (GPa) = 25.84821 34.13358 29.99090
# Shear Modulus (GPa) = 22.54763 24.95829 23.75296
#
# Velocity S-wave (km/s) = 3.31112 3.48363 3.39847
# Velocity P-wave (km/s) = 5.21406 5.72520 5.47560
#
# Compressibility (1/GPa) = 0.03868739
#
# Stress axis : x y z
#
# Youngs Moduli (GPa) = 69.16655 96.00749 35.11019
#
# Poissons Ratio (x) = 0.36793 0.12426
# Poissons Ratio (y) = 0.26507 -0.00131
# Poissons Ratio (z) = 0.24479 -0.00358
#
# Static dielectric constant tensor:
#      x y z
#    x 1.748900 0.000000 0.000000 
#    y 0.000000 1.779850 0.000000 
#    z 0.000000 0.000000 1.683620 
# 
# From -- ./inp_files/7812.got.cif
#   From: 2010.05.17/outbox.cif.g08.bks.cpg/sg56_4_cif.got.tgz:7812.got - 2010.06.03 13:42:01.
