data_PCOD9431475
_publ_section_title
;
Structure prediction by ZEFSAII (Michael W. Deem and Ramdas Pophale) SiO2 
 PCOD9431475
Probable space group: P C C N
;
_chemical_formula_sum "Si O2"
_cell_formula_units_Z 40
_cell_length_a 20.138002
_cell_length_b 5.197518
_cell_length_c 17.903469
_cell_angle_alpha 90.000000
_cell_angle_beta 90.000000
_cell_angle_gamma 90.000000
_cell_volume 1873.913631
_symmetry_space_group_name_H-M "P C C N"
_symmetry_group_IT_number 56
_symmetry_cell_setting 'orthorhombic'
loop_
_space_group_symop_operation_xyz
x,y,z
1/2-x,1/2-y,z
1/2+x,-y,1/2-z
-x,1/2+y,1/2-z
-x,-y,-z
1/2+x,1/2+y,-z
1/2-x,y,1/2+z
x,1/2-y,1/2+z
loop_
_atom_site_type_symbol
_atom_site_label
_atom_site_fract_x
_atom_site_fract_y
_atom_site_fract_z
Si Si1 0.067262 0.014963 0.322750
Si Si2 0.676598 0.308702 0.245151
Si Si3 0.880781 0.029144 0.103720
Si Si4 0.575225 0.540238 0.352066
Si Si5 0.431582 0.963839 0.546659
O O1 0.124435 0.929633 0.264586
O O2 0.077401 0.790996 0.384481
O O3 0.081738 0.286213 0.360686
O O4 0.990607 0.993051 0.300449
O O5 0.750000 0.250000 0.270937
O O6 0.638915 0.496741 0.300988
O O7 0.820114 0.073550 0.160951
O O8 0.874009 0.000053 0.015767
O O9 0.574077 0.812302 0.392675
O O10 0.571279 0.312127 0.413377
O O11 0.500000 0.000000 0.500000
#
# Coordination Sequence:
#
# PCOD9431475 Si02
#       5
#     8   8   8   8   8
#     4  10  21  38  67  98 122 172 229 269 330 393
#     4  10  27  46  67  96 142 183 229 275 344 404
#     4  10  22  39  69  93 131 171 223 269 335 399
#     4  12  24  38  72  99 139 169 225 287 339 402
#     4  12  21  40  65 105 135 169 218 289 345 395
#
# _framework density 21.345701999999999
#
# number of rings (size 3 to 8) (size 9 to 14) (size 15 to 20)
#    1.200    0.000    4.000    1.800    5.600    0.800 
#    0.000    1.000    4.400    0.000    0.000    0.000 
#    0.000    0.000    0.000    0.000    0.000    0.000 
#
# Total GULP energy -223156.860216 kJ/mol
# GULP energy per Si atom -5578.921505 kJ/mol
# Density = 2.129712 g / cm^3
# Si number density = 21.345702 Si / 1000 Ang^3
#
#
#
# Elastic Constant Matrix: (Units=GPa)
#
#
# Indices 1 2 3 4 5 6 
#
# 1 112.6607 6.1456 26.5823 0.0000 0.0000 0.0000
# 2 6.1456 102.4801 25.2881 0.0000 0.0000 0.0000
# 3 26.5823 25.2881 78.7893 0.0000 0.0000 0.0000
# 4 0.0000 0.0000 0.0000 40.1330 0.0000 0.0000
# 5 0.0000 0.0000 0.0000 0.0000 11.8953 0.0000
# 6 0.0000 0.0000 0.0000 0.0000 0.0000 15.3102
#
#
#
# Elastic Compliance Matrix: (Units=1/GPa)
#
#
# Indices 1 2 3 4 5 6 
#
# 1 0.009650 0.000244 -0.003334 0.000000 0.000000 0.000000
# 2 0.000244 0.010603 -0.003486 0.000000 0.000000 0.000000
# 3 -0.003334 -0.003486 0.014936 0.000000 0.000000 0.000000
# 4 0.000000 0.000000 0.000000 0.024917 0.000000 0.000000
# 5 0.000000 0.000000 0.000000 0.000000 0.084067 0.000000
# 6 0.000000 0.000000 0.000000 0.000000 0.000000 0.065316
#
#
# Mechanical properties :
#
#
# Convention : Reuss Voigt Hill
#
# Bulk Modulus (GPa) = 45.37699 45.55137 45.46418
# Shear Modulus (GPa) = 21.74046 29.19529 25.46788
#
# Velocity S-wave (km/s) = 3.19485 3.70230 3.45790
# Velocity P-wave (km/s) = 5.90878 6.29780 6.10639
#
# Compressibility (1/GPa) = 0.02203760
#
# Stress axis : x y z
#
# Youngs Moduli (GPa) = 103.63193 94.30870 66.95403
#
# Poissons Ratio (x) = -0.02301 0.22322
# Poissons Ratio (y) = -0.02529 0.23338
# Poissons Ratio (z) = 0.34550 0.32872
#
# Static dielectric constant tensor:
#      x y z
#    x 1.838840 0.000000 0.000000 
#    y 0.000000 1.783980 0.000000 
#    z 0.000000 0.000000 1.799830 
# 
# From -- ./inp_files/21059.got.cif
#   From: 2010.05.17/outbox.cif.g08.bks.cpg/sg56_11_cif.got.tgz:21059.got - 2010.06.03 13:42:01.
