data_PCOD9431409
_publ_section_title
;
Structure prediction by ZEFSAII (Michael W. Deem and Ramdas Pophale) SiO2 
 PCOD9431409
Probable space group: P C C N
;
_chemical_formula_sum "Si O2"
_cell_formula_units_Z 60
_cell_length_a 24.503882
_cell_length_b 7.815489
_cell_length_c 15.433696
_cell_angle_alpha 90.000000
_cell_angle_beta 90.000000
_cell_angle_gamma 90.000000
_cell_volume 2955.704346
_symmetry_space_group_name_H-M "P C C N"
_symmetry_group_IT_number 56
_symmetry_cell_setting 'orthorhombic'
loop_
_space_group_symop_operation_xyz
x,y,z
1/2-x,1/2-y,z
1/2+x,-y,1/2-z
-x,1/2+y,1/2-z
-x,-y,-z
1/2+x,1/2+y,-z
1/2-x,y,1/2+z
x,1/2-y,1/2+z
loop_
_atom_site_type_symbol
_atom_site_label
_atom_site_fract_x
_atom_site_fract_y
_atom_site_fract_z
Si Si1 0.137795 0.040499 0.200763
Si Si2 0.103305 0.694686 0.543731
Si Si3 0.977198 0.674646 0.316188
Si Si4 0.792496 0.097820 0.488847
Si Si5 0.563192 0.057082 0.818225
Si Si6 0.317452 0.082378 0.189427
Si Si7 0.500000 0.500000 0.000000
Si Si8 0.231289 0.946729 0.324183
O O1 0.076480 0.091465 0.228420
O O2 0.167013 0.219837 0.179186
O O3 0.133659 0.918270 0.117346
O O4 0.173685 0.957365 0.275381
O O5 0.148893 0.809510 0.497157
O O6 0.064254 0.825847 0.596526
O O7 0.063463 0.577876 0.487967
O O8 0.029148 0.651360 0.255510
O O9 0.983310 0.574445 0.405417
O O10 0.964037 0.872693 0.333343
O O11 0.750000 0.250000 0.473745
O O12 0.775391 0.999173 0.575954
O O13 0.795355 0.987108 0.401958
O O14 0.626010 0.019697 0.793709
O O15 0.275293 0.048985 0.266852
O O16 0.250000 0.750000 0.325651
#
# Coordination Sequence:
#
# PCOD9431409 Si02
#       8
#     8   8   8   8   8   8   4   8
#     4  10  21  39  61  85 119 160 198 249 307 362
#     4  10  21  39  60  85 122 162 204 254 308 366
#     4  10  21  38  60  89 122 159 205 250 304 361
#     4  10  22  39  61  89 118 158 203 250 308 372
#     4  10  21  39  63  86 117 164 201 243 307 365
#     4  10  21  41  64  87 120 158 199 251 307 363
#     4  10  22  36  56  88 122 156 202 256 298 356
#     4  11  22  38  62  89 118 156 202 248 306 370
#
# _framework density 20.299728999999999
#
# number of rings (size 3 to 8) (size 9 to 14) (size 15 to 20)
#    0.000    1.867    0.000    4.800    0.000    4.800 
#    0.000   22.667    0.000    0.000    0.000    0.000 
#    0.000    0.000    0.000    0.000    0.000    0.000 
#
# Total GULP energy -334173.377452 kJ/mol
# GULP energy per Si atom -5569.556291 kJ/mol
# Density = 2.025353 g / cm^3
# Si number density = 20.299729 Si / 1000 Ang^3
#
#
#
# Elastic Constant Matrix: (Units=GPa)
#
#
# Indices 1 2 3 4 5 6 
#
# 1 82.3269 32.1518 70.4284 0.0000 0.0000 0.0000
# 2 32.1518 52.6878 29.5104 0.0000 0.0000 0.0000
# 3 70.4284 29.5104 102.9987 0.0000 0.0000 0.0000
# 4 0.0000 0.0000 0.0000 2.0911 0.0000 0.0000
# 5 0.0000 0.0000 0.0000 0.0000 32.5183 0.0000
# 6 0.0000 0.0000 0.0000 0.0000 0.0000 30.4981
#
#
#
# Elastic Compliance Matrix: (Units=1/GPa)
#
#
# Indices 1 2 3 4 5 6 
#
# 1 0.032333 -0.008752 -0.019601 0.000000 0.000000 0.000000
# 2 -0.008752 0.024977 -0.001172 0.000000 0.000000 0.000000
# 3 -0.019601 -0.001172 0.023447 0.000000 0.000000 0.000000
# 4 0.000000 0.000000 0.000000 0.478224 0.000000 0.000000
# 5 0.000000 0.000000 0.000000 0.000000 0.030752 0.000000
# 6 0.000000 0.000000 0.000000 0.000000 0.000000 0.032789
#
#
# Mechanical properties :
#
#
# Convention : Reuss Voigt Hill
#
# Bulk Modulus (GPa) = 46.06699 55.79941 50.93320
# Shear Modulus (GPa) = 7.25894 20.08302 13.67098
#
# Velocity S-wave (km/s) = 1.89305 3.14877 2.59792
# Velocity P-wave (km/s) = 5.24603 6.38491 5.84328
#
# Compressibility (1/GPa) = 0.02170752
#
# Stress axis : x y z
#
# Youngs Moduli (GPa) = 30.92845 40.03717 42.64896
#
# Poissons Ratio (x) = 0.35041 0.83596
# Poissons Ratio (y) = 0.27069 0.04997
# Poissons Ratio (z) = 0.60622 0.04691
#
# Static dielectric constant tensor:
#      x y z
#    x 1.750140 0.000000 0.000000 
#    y 0.000000 1.748950 0.000000 
#    z 0.000000 0.000000 1.678180 
# 
# From -- ./inp_files/13229.got.cif
#   From: 2010.05.17/outbox.cif.g08.bks.cpg/sg56_7_cif.got.tgz:13229.got - 2010.06.03 13:42:01.
