data_PCOD9431143
_publ_section_title
;
Structure prediction by ZEFSAII (Michael W. Deem and Ramdas Pophale) SiO2 
 PCOD9431143
Probable space group: P C C N
;
_chemical_formula_sum "Si O2"
_cell_formula_units_Z 64
_cell_length_a 14.492587
_cell_length_b 8.187638
_cell_length_c 23.344507
_cell_angle_alpha 90.000000
_cell_angle_beta 90.000000
_cell_angle_gamma 90.000000
_cell_volume 2770.060509
_symmetry_space_group_name_H-M "P C C N"
_symmetry_group_IT_number 56
_symmetry_cell_setting 'orthorhombic'
loop_
_space_group_symop_operation_xyz
x,y,z
1/2-x,1/2-y,z
1/2+x,-y,1/2-z
-x,1/2+y,1/2-z
-x,-y,-z
1/2+x,1/2+y,-z
1/2-x,y,1/2+z
x,1/2-y,1/2+z
loop_
_atom_site_type_symbol
_atom_site_label
_atom_site_fract_x
_atom_site_fract_y
_atom_site_fract_z
Si Si1 0.466214 0.750724 0.336780
Si Si2 0.781709 0.984177 0.805500
Si Si3 0.550767 0.268842 0.941466
Si Si4 0.352014 0.806005 0.442666
Si Si5 0.652032 0.691601 0.043114
Si Si6 0.613459 0.175857 0.826273
Si Si7 0.621863 0.636942 0.913601
Si Si8 0.949176 0.570022 0.238568
O O1 0.379703 0.756637 0.378713
O O2 0.551533 0.744765 0.380727
O O3 0.492403 0.906810 0.297478
O O4 0.455641 0.601717 0.293658
O O5 0.674550 0.029472 0.799460
O O6 0.835267 0.157876 0.808955
O O7 0.799772 0.905399 0.867450
O O8 0.843530 0.892580 0.757515
O O9 0.442777 0.229547 0.935187
O O10 0.610446 0.171249 0.895011
O O11 0.570798 0.462059 0.927600
O O12 0.581854 0.241857 0.006702
O O13 0.250000 0.750000 0.457378
O O14 0.356535 0.000483 0.444557
O O15 0.750000 0.750000 0.066329
O O16 0.651235 0.707557 0.974167
O O17 0.508601 0.180482 0.804748
#
# Coordination Sequence:
#
# PCOD9431143 Si02
#       8
#     8   8   8   8   8   8   8   8
#     4  11  22  42  64  94 131 178 222 280 342 398
#     4   9  20  38  64  94 123 172 225 266 341 394
#     4  10  20  41  68  95 134 179 224 271 346 416
#     4  11  24  42  67  99 137 185 223 272 346 429
#     4  11  22  39  66  97 136 177 217 275 340 404
#     4  10  21  38  67  95 127 174 223 284 327 407
#     4   9  18  38  64  87 128 176 215 266 327 402
#     4  11  23  40  67  95 130 173 230 282 340 399
#
# _framework density 23.104188000000001
#
# number of rings (size 3 to 8) (size 9 to 14) (size 15 to 20)
#    0.000    1.750    3.750    0.750    5.250    3.000 
#    0.000    3.125    0.000    0.000    0.000    0.000 
#    0.000    0.000    0.000    0.000    0.000    0.000 
#
# Total GULP energy -357265.949027 kJ/mol
# GULP energy per Si atom -5582.280454 kJ/mol
# Density = 2.305160 g / cm^3
# Si number density = 23.104188 Si / 1000 Ang^3
#
#
#
# Elastic Constant Matrix: (Units=GPa)
#
#
# Indices 1 2 3 4 5 6 
#
# 1 113.3529 16.2991 19.5418 0.0000 0.0000 0.0000
# 2 16.2991 31.5401 23.6014 0.0000 0.0000 0.0000
# 3 19.5418 23.6014 96.9961 0.0000 0.0000 0.0000
# 4 0.0000 0.0000 0.0000 17.4889 0.0000 0.0000
# 5 0.0000 0.0000 0.0000 0.0000 17.1091 0.0000
# 6 0.0000 0.0000 0.0000 0.0000 0.0000 29.6336
#
#
#
# Elastic Compliance Matrix: (Units=1/GPa)
#
#
# Indices 1 2 3 4 5 6 
#
# 1 0.009592 -0.004293 -0.000888 0.000000 0.000000 0.000000
# 2 -0.004293 0.040685 -0.009035 0.000000 0.000000 0.000000
# 3 -0.000888 -0.009035 0.012687 0.000000 0.000000 0.000000
# 4 0.000000 0.000000 0.000000 0.057179 0.000000 0.000000
# 5 0.000000 0.000000 0.000000 0.000000 0.058449 0.000000
# 6 0.000000 0.000000 0.000000 0.000000 0.000000 0.033745
#
#
# Mechanical properties :
#
#
# Convention : Reuss Voigt Hill
#
# Bulk Modulus (GPa) = 28.95760 40.08598 34.52179
# Shear Modulus (GPa) = 19.81937 25.00944 22.41440
#
# Velocity S-wave (km/s) = 2.93204 3.29365 3.11809
# Velocity P-wave (km/s) = 4.90135 5.64375 5.28560
#
# Compressibility (1/GPa) = 0.03453325
#
# Stress axis : x y z
#
# Youngs Moduli (GPa) = 104.24985 24.57936 78.82102
#
# Poissons Ratio (x) = 0.10551 0.07000
# Poissons Ratio (y) = 0.44749 0.71212
# Poissons Ratio (z) = 0.09258 0.22207
#
# Static dielectric constant tensor:
#      x y z
#    x 1.910890 0.000000 0.000000 
#    y 0.000000 1.930350 0.000000 
#    z 0.000000 0.000000 1.837380 
# 
# From -- ./inp_files/21156.got.cif
#   From: 2010.05.17/outbox.cif.g08.bks.cpg/sg56_11_cif.got.tgz:21156.got - 2010.06.03 13:42:01.
