data_PCOD9431467
_publ_section_title
;
Structure prediction by ZEFSAII (Michael W. Deem and Ramdas Pophale) SiO2 
 PCOD9431467
Probable space group: P C C N
;
_chemical_formula_sum "Si O2"
_cell_formula_units_Z 40
_cell_length_a 17.041445
_cell_length_b 4.949633
_cell_length_c 18.979699
_cell_angle_alpha 90.000000
_cell_angle_beta 90.000000
_cell_angle_gamma 90.000000
_cell_volume 1600.916705
_symmetry_space_group_name_H-M "P C C N"
_symmetry_group_IT_number 56
_symmetry_cell_setting 'orthorhombic'
loop_
_space_group_symop_operation_xyz
x,y,z
1/2-x,1/2-y,z
1/2+x,-y,1/2-z
-x,1/2+y,1/2-z
-x,-y,-z
1/2+x,1/2+y,-z
1/2-x,y,1/2+z
x,1/2-y,1/2+z
loop_
_atom_site_type_symbol
_atom_site_label
_atom_site_fract_x
_atom_site_fract_y
_atom_site_fract_z
Si Si1 0.053502 0.491612 0.263654
Si Si2 0.664205 0.200260 0.316799
Si Si3 0.163435 0.859101 0.340738
Si Si4 0.899323 0.769018 0.538186
Si Si5 0.587873 0.226334 0.454253
O O1 0.123030 0.519293 0.207072
O O2 0.094607 0.629977 0.332022
O O3 0.011699 0.206132 0.264222
O O4 0.750000 0.250000 0.345058
O O5 0.670414 0.049314 0.241705
O O6 0.611122 0.099982 0.379723
O O7 0.250000 0.750000 0.358580
O O8 0.137942 0.092956 0.393395
O O9 0.877357 0.470732 0.513854
O O10 0.993809 0.751984 0.545267
O O11 0.882015 0.976935 0.474057
#
# Coordination Sequence:
#
# PCOD9431467 Si02
#       5
#     8   8   8   8   8
#     4  10  21  38  65  94 126 173 223 273 336 401
#     4   9  21  43  67 101 137 179 227 289 348 420
#     4   9  21  43  67 102 142 181 230 296 353 426
#     4  10  22  42  67  98 134 178 231 287 342 418
#     4  10  22  42  67  97 135 179 234 283 342 417
#
# _framework density 24.985682000000001
#
# number of rings (size 3 to 8) (size 9 to 14) (size 15 to 20)
#    1.200    1.200    0.000    1.200    0.000    8.800 
#    0.000   12.000    0.000    0.000    0.000    0.000 
#    0.000    0.000    0.000    0.000    0.000    0.000 
#
# Total GULP energy -223349.853241 kJ/mol
# GULP energy per Si atom -5583.746331 kJ/mol
# Density = 2.492881 g / cm^3
# Si number density = 24.985682 Si / 1000 Ang^3
#
#
#
# Elastic Constant Matrix: (Units=GPa)
#
#
# Indices 1 2 3 4 5 6 
#
# 1 101.1943 43.9402 12.3952 0.0000 0.0000 0.0000
# 2 43.9402 113.1574 27.7593 0.0000 0.0000 0.0000
# 3 12.3952 27.7593 135.5978 0.0000 0.0000 0.0000
# 4 0.0000 0.0000 0.0000 24.0111 0.0000 0.0000
# 5 0.0000 0.0000 0.0000 0.0000 6.2964 0.0000
# 6 0.0000 0.0000 0.0000 0.0000 0.0000 17.7242
#
#
#
# Elastic Compliance Matrix: (Units=1/GPa)
#
#
# Indices 1 2 3 4 5 6 
#
# 1 0.011889 -0.004580 -0.000149 0.000000 0.000000 0.000000
# 2 -0.004580 0.011069 -0.001847 0.000000 0.000000 0.000000
# 3 -0.000149 -0.001847 0.007767 0.000000 0.000000 0.000000
# 4 0.000000 0.000000 0.000000 0.041647 0.000000 0.000000
# 5 0.000000 0.000000 0.000000 0.000000 0.158822 0.000000
# 6 0.000000 0.000000 0.000000 0.000000 0.000000 0.056420
#
#
# Mechanical properties :
#
#
# Convention : Reuss Voigt Hill
#
# Bulk Modulus (GPa) = 56.91073 57.57099 57.24086
# Shear Modulus (GPa) = 16.30662 27.33000 21.81831
#
# Velocity S-wave (km/s) = 2.55745 3.31089 2.95826
# Velocity P-wave (km/s) = 5.61672 6.14065 5.88452
#
# Compressibility (1/GPa) = 0.01757138
#
# Stress axis : x y z
#
# Youngs Moduli (GPa) = 84.11157 90.34329 128.75694
#
# Poissons Ratio (x) = 0.41377 0.01921
# Poissons Ratio (y) = 0.38523 0.23786
# Poissons Ratio (z) = 0.01255 0.16689
#
# Static dielectric constant tensor:
#      x y z
#    x 1.966330 0.000000 0.000000 
#    y 0.000000 1.984120 0.000000 
#    z 0.000000 0.000000 2.081010 
# 
# From -- ./inp_files/19242.got.cif
#   From: 2010.05.17/outbox.cif.g08.bks.cpg/sg56_10_cif.got.tgz:19242.got - 2010.06.03 13:42:01.
