data_PCOD9431743
_publ_section_title
;
Structure prediction by ZEFSAII (Michael W. Deem and Ramdas Pophale) SiO2 
 PCOD9431743
Probable space group: P C C N
;
_chemical_formula_sum "Si O2"
_cell_formula_units_Z 64
_cell_length_a 18.123904
_cell_length_b 13.723757
_cell_length_c 12.353339
_cell_angle_alpha 90.000000
_cell_angle_beta 90.000000
_cell_angle_gamma 90.000000
_cell_volume 3072.621975
_symmetry_space_group_name_H-M "P C C N"
_symmetry_group_IT_number 56
_symmetry_cell_setting 'orthorhombic'
loop_
_space_group_symop_operation_xyz
x,y,z
1/2-x,1/2-y,z
1/2+x,-y,1/2-z
-x,1/2+y,1/2-z
-x,-y,-z
1/2+x,1/2+y,-z
1/2-x,y,1/2+z
x,1/2-y,1/2+z
loop_
_atom_site_type_symbol
_atom_site_label
_atom_site_fract_x
_atom_site_fract_y
_atom_site_fract_z
Si Si1 0.572405 0.915763 0.815665
Si Si2 0.387918 0.882599 0.290007
Si Si3 0.338886 0.256248 0.278810
Si Si4 0.828671 0.891770 0.523535
Si Si5 0.279486 0.549150 0.302411
Si Si6 0.186666 0.096912 0.106895
Si Si7 0.920630 0.167526 0.755947
Si Si8 0.424631 0.944894 0.518695
O O1 0.574963 0.023975 0.766794
O O2 0.622592 0.846870 0.737772
O O3 0.609981 0.915055 0.933779
O O4 0.490937 0.870073 0.811820
O O5 0.300073 0.901446 0.293730
O O6 0.413922 0.783159 0.235853
O O7 0.410202 0.879249 0.415207
O O8 0.250000 0.250000 0.278192
O O9 0.356958 0.312695 0.389507
O O10 0.358198 0.321379 0.173089
O O11 0.799345 0.984165 0.592781
O O12 0.755469 0.860142 0.458110
O O13 0.283708 0.474601 0.201203
O O14 0.344407 0.627365 0.292597
O O15 0.136966 0.028997 0.031659
O O16 0.927506 0.117467 0.872778
O O17 0.500000 0.000000 0.500000
#
# Coordination Sequence:
#
# PCOD9431743 Si02
#       8
#     8   8   8   8   8   8   8   8
#     4  12  26  44  67 105 142 184 235 298 359 422
#     4  12  24  46  73 100 143 184 241 290 348 437
#     4  11  24  37  63 103 140 180 234 284 354 431
#     4  11  22  40  71  99 139 181 226 293 357 419
#     4  10  22  46  69 104 136 183 237 289 347 424
#     4  10  21  41  68 101 137 177 231 289 347 416
#     4  11  28  45  70 106 143 183 239 294 355 424
#     4  11  24  44  74 101 139 191 233 288 358 420
#
# _framework density 20.829114000000001
#
# number of rings (size 3 to 8) (size 9 to 14) (size 15 to 20)
#    0.000    1.000    5.000    1.125    3.500    3.500 
#    0.000    1.250    0.000    0.000    0.000    0.000 
#    0.000    0.000    0.000    0.000    0.000    0.000 
#
# Total GULP energy -358015.614862 kJ/mol
# GULP energy per Si atom -5593.993982 kJ/mol
# Density = 2.078171 g / cm^3
# Si number density = 20.829114 Si / 1000 Ang^3
#
#
#
# Elastic Constant Matrix: (Units=GPa)
#
#
# Indices 1 2 3 4 5 6 
#
# 1 79.4274 32.1129 -9.2911 0.0000 0.0000 0.0000
# 2 32.1129 135.8422 20.0649 0.0000 0.0000 0.0000
# 3 -9.2911 20.0649 61.3543 0.0000 0.0000 0.0000
# 4 0.0000 0.0000 0.0000 22.6619 0.0000 0.0000
# 5 0.0000 0.0000 0.0000 0.0000 26.8217 0.0000
# 6 0.0000 0.0000 0.0000 0.0000 0.0000 10.6793
#
#
#
# Elastic Compliance Matrix: (Units=1/GPa)
#
#
# Indices 1 2 3 4 5 6 
#
# 1 0.014606 -0.003972 0.003511 0.000000 0.000000 0.000000
# 2 -0.003972 0.008815 -0.003484 0.000000 0.000000 0.000000
# 3 0.003511 -0.003484 0.017970 0.000000 0.000000 0.000000
# 4 0.000000 0.000000 0.000000 0.044127 0.000000 0.000000
# 5 0.000000 0.000000 0.000000 0.000000 0.037283 0.000000
# 6 0.000000 0.000000 0.000000 0.000000 0.000000 0.093639
#
#
# Mechanical properties :
#
#
# Convention : Reuss Voigt Hill
#
# Bulk Modulus (GPa) = 29.84953 40.26636 35.05795
# Shear Modulus (GPa) = 21.23162 27.61506 24.42334
#
# Velocity S-wave (km/s) = 3.19615 3.64509 3.42798
# Velocity P-wave (km/s) = 5.28983 6.09010 5.70402
#
# Compressibility (1/GPa) = 0.03350136
#
# Stress axis : x y z
#
# Youngs Moduli (GPa) = 68.46271 113.44312 55.64868
#
# Poissons Ratio (x) = 0.45054 -0.19537
# Poissons Ratio (y) = 0.27190 0.19389
# Poissons Ratio (z) = -0.24035 0.39526
#
# Static dielectric constant tensor:
#      x y z
#    x 1.802520 0.000000 0.000000 
#    y 0.000000 1.757070 0.000000 
#    z 0.000000 0.000000 1.752510 
# 
# From -- ./inp_files/8502.got.cif
#   From: 2010.05.17/outbox.cif.g08.bks.cpg/sg56_5_cif.got.tgz:8502.got - 2010.06.03 13:42:01.
