data_PCOD9431420
_publ_section_title
;
Structure prediction by ZEFSAII (Michael W. Deem and Ramdas Pophale) SiO2 
 PCOD9431420
Probable space group: P C C N
;
_chemical_formula_sum "Si O2"
_cell_formula_units_Z 48
_cell_length_a 6.218680
_cell_length_b 12.470738
_cell_length_c 29.240613
_cell_angle_alpha 90.000000
_cell_angle_beta 90.000000
_cell_angle_gamma 90.000000
_cell_volume 2267.654247
_symmetry_space_group_name_H-M "P C C N"
_symmetry_group_IT_number 56
_symmetry_cell_setting 'orthorhombic'
loop_
_space_group_symop_operation_xyz
x,y,z
1/2-x,1/2-y,z
1/2+x,-y,1/2-z
-x,1/2+y,1/2-z
-x,-y,-z
1/2+x,1/2+y,-z
1/2-x,y,1/2+z
x,1/2-y,1/2+z
loop_
_atom_site_type_symbol
_atom_site_label
_atom_site_fract_x
_atom_site_fract_y
_atom_site_fract_z
Si Si1 0.150498 0.130366 0.269434
Si Si2 0.817825 0.084390 0.015465
Si Si3 0.908096 0.847870 0.907144
Si Si4 0.470122 0.531388 0.821302
Si Si5 0.175660 0.635018 0.152899
Si Si6 0.065579 0.966970 0.567026
O O1 0.250000 0.250000 0.270715
O O2 0.100692 0.094111 0.218077
O O3 0.932401 0.140215 0.297956
O O4 0.283991 0.035432 0.295103
O O5 0.940368 0.168261 0.048299
O O6 0.644206 0.019897 0.045690
O O7 0.682082 0.111212 0.969785
O O8 0.000000 0.000000 0.000000
O O9 0.750000 0.750000 0.895471
O O10 0.054326 0.886733 0.864100
O O11 0.739703 0.941117 0.921372
O O12 0.619538 0.439841 0.842509
O O13 0.250000 0.750000 0.137386
O O14 0.015799 0.589452 0.114789
#
# Coordination Sequence:
#
# PCOD9431420 Si02
#       6
#     8   8   8   8   8   8
#     4  12  23  39  66  90 126 170 209 259 325 380
#     4   9  18  39  61  86 123 163 206 258 315 371
#     4  10  21  38  61  89 125 166 213 259 315 380
#     4  11  23  40  61  92 127 163 208 266 315 382
#     4  11  22  40  60  92 123 160 210 258 314 378
#     4   9  20  38  62  86 126 165 202 264 315 367
#
# _framework density 21.167248000000001
#
# number of rings (size 3 to 8) (size 9 to 14) (size 15 to 20)
#    0.000    1.667    3.333    1.500    0.000    0.667 
#    9.000    0.000    0.000    0.000    0.000    0.000 
#    0.000    0.000    0.000    0.000    0.000    0.000 
#
# Total GULP energy -267629.799992 kJ/mol
# GULP energy per Si atom -5575.620833 kJ/mol
# Density = 2.111907 g / cm^3
# Si number density = 21.167248 Si / 1000 Ang^3
#
#
#
# Elastic Constant Matrix: (Units=GPa)
#
#
# Indices 1 2 3 4 5 6 
#
# 1 42.4705 -1.7365 1.4614 0.0000 0.0000 0.0000
# 2 -1.7365 64.2529 19.0528 0.0000 0.0000 0.0000
# 3 1.4614 19.0528 98.4739 0.0000 0.0000 0.0000
# 4 0.0000 0.0000 0.0000 17.3749 0.0000 0.0000
# 5 0.0000 0.0000 0.0000 0.0000 23.9697 0.0000
# 6 0.0000 0.0000 0.0000 0.0000 0.0000 18.5660
#
#
#
# Elastic Compliance Matrix: (Units=1/GPa)
#
#
# Indices 1 2 3 4 5 6 
#
# 1 0.023595 0.000787 -0.000502 0.000000 0.000000 0.000000
# 2 0.000787 0.016537 -0.003211 0.000000 0.000000 0.000000
# 3 -0.000502 -0.003211 0.010784 0.000000 0.000000 0.000000
# 4 0.000000 0.000000 0.000000 0.057554 0.000000 0.000000
# 5 0.000000 0.000000 0.000000 0.000000 0.041719 0.000000
# 6 0.000000 0.000000 0.000000 0.000000 0.000000 0.053862
#
#
# Mechanical properties :
#
#
# Convention : Reuss Voigt Hill
#
# Bulk Modulus (GPa) = 22.19165 26.97253 24.58209
# Shear Modulus (GPa) = 22.22951 24.41009 23.31980
#
# Velocity S-wave (km/s) = 3.24417 3.39957 3.32278
# Velocity P-wave (km/s) = 4.95374 5.30845 5.13416
#
# Compressibility (1/GPa) = 0.04506198
#
# Stress axis : x y z
#
# Youngs Moduli (GPa) = 42.38147 60.47046 92.73215
#
# Poissons Ratio (x) = -0.04757 0.04659
# Poissons Ratio (y) = -0.03334 0.29779
# Poissons Ratio (z) = 0.02129 0.19419
#
# Static dielectric constant tensor:
#      x y z
#    x 1.733510 0.000000 0.000000 
#    y 0.000000 1.788460 0.000000 
#    z 0.000000 0.000000 1.776490 
# 
# From -- ./inp_files/21665.got.cif
#   From: 2010.05.17/outbox.cif.g08.bks.cpg/sg56_11_cif.got.tgz:21665.got - 2010.06.03 13:42:01.
