data_PCOD9431899
_publ_section_title
;
Structure prediction by ZEFSAII (Michael W. Deem and Ramdas Pophale) SiO2 
 PCOD9431899
Probable space group: P C C N
;
_chemical_formula_sum "Si O2"
_cell_formula_units_Z 28
_cell_length_a 12.284323
_cell_length_b 5.264804
_cell_length_c 16.706892
_cell_angle_alpha 90.000000
_cell_angle_beta 90.000000
_cell_angle_gamma 90.000000
_cell_volume 1080.510770
_symmetry_space_group_name_H-M "P C C N"
_symmetry_group_IT_number 56
_symmetry_cell_setting 'orthorhombic'
loop_
_space_group_symop_operation_xyz
x,y,z
1/2-x,1/2-y,z
1/2+x,-y,1/2-z
-x,1/2+y,1/2-z
-x,-y,-z
1/2+x,1/2+y,-z
1/2-x,y,1/2+z
x,1/2-y,1/2+z
loop_
_atom_site_type_symbol
_atom_site_label
_atom_site_fract_x
_atom_site_fract_y
_atom_site_fract_z
Si Si1 0.250000 0.750000 0.056536
Si Si2 0.616323 0.871224 0.348861
Si Si3 0.405661 0.661705 0.412975
Si Si4 0.905441 0.647504 0.681738
O O1 0.284345 0.510348 0.109382
O O2 0.148998 0.693027 0.998362
O O3 0.534722 0.727373 0.410092
O O4 0.633242 0.702322 0.270679
O O5 0.535682 0.096405 0.315835
O O6 0.385432 0.389222 0.374190
O O7 0.360163 0.891556 0.357611
#
# Coordination Sequence:
#
# PCOD9431899 Si02
#       4
#     4   8   8   8
#     4  12  26  44  72 118 148 186 252 304 388 458
#     4  10  22  47  75 103 140 202 246 307 368 446
#     4  10  23  46  67 106 142 194 227 318 370 439
#     4  10  21  46  76  90 146 195 247 292 379 423
#
# _framework density 25.913671000000001
#
# number of rings (size 3 to 8) (size 9 to 14) (size 15 to 20)
#    1.714    0.000    2.857    0.857    0.000    3.429 
#    5.143    0.000    0.000    0.000    0.000    0.000 
#    0.000    0.000    0.000    0.000    0.000    0.000 
#
# Total GULP energy -156914.214598 kJ/mol
# GULP energy per Si atom -5604.079093 kJ/mol
# Density = 2.585469 g / cm^3
# Si number density = 25.913671 Si / 1000 Ang^3
#
#
#
# Elastic Constant Matrix: (Units=GPa)
#
#
# Indices 1 2 3 4 5 6 
#
# 1 79.0945 44.3150 45.0716 0.0000 0.0000 0.0000
# 2 44.3150 194.0914 81.1633 0.0000 0.0000 0.0000
# 3 45.0716 81.1633 159.4236 0.0000 0.0000 0.0000
# 4 0.0000 0.0000 0.0000 55.5653 0.0000 0.0000
# 5 0.0000 0.0000 0.0000 0.0000 102.5283 0.0000
# 6 0.0000 0.0000 0.0000 0.0000 0.0000 35.9392
#
#
#
# Elastic Compliance Matrix: (Units=1/GPa)
#
#
# Indices 1 2 3 4 5 6 
#
# 1 0.015782 -0.002208 -0.003338 0.000000 0.000000 0.000000
# 2 -0.002208 0.006855 -0.002866 0.000000 0.000000 0.000000
# 3 -0.003338 -0.002866 0.008675 0.000000 0.000000 0.000000
# 4 0.000000 0.000000 0.000000 0.017997 0.000000 0.000000
# 5 0.000000 0.000000 0.000000 0.000000 0.009753 0.000000
# 6 0.000000 0.000000 0.000000 0.000000 0.000000 0.027825
#
#
# Mechanical properties :
#
#
# Convention : Reuss Voigt Hill
#
# Bulk Modulus (GPa) = 69.01494 85.96772 77.49133
# Shear Modulus (GPa) = 46.06646 56.27719 51.17183
#
# Velocity S-wave (km/s) = 4.22084 4.66523 4.44858
# Velocity P-wave (km/s) = 7.10242 7.89087 7.50700
#
# Compressibility (1/GPa) = 0.01448962
#
# Stress axis : x y z
#
# Youngs Moduli (GPa) = 63.36307 145.88890 115.27140
#
# Poissons Ratio (x) = 0.32205 0.38477
# Poissons Ratio (y) = 0.13987 0.33032
# Poissons Ratio (z) = 0.21151 0.41806
#
# Static dielectric constant tensor:
#      x y z
#    x 2.172830 0.000000 0.000000 
#    y 0.000000 2.037560 0.000000 
#    z 0.000000 0.000000 1.940680 
# 
# From -- ./inp_files/15939.got.cif
#   From: 2010.05.17/outbox.cif.g08.bks.cpg/sg56_8_cif.got.tgz:15939.got - 2010.06.03 13:42:01.
