data_PCOD9431278
_publ_section_title
;
Structure prediction by ZEFSAII (Michael W. Deem and Ramdas Pophale) SiO2 
 PCOD9431278
Probable space group: P C C N
;
_chemical_formula_sum "Si O2"
_cell_formula_units_Z 40
_cell_length_a 5.187559
_cell_length_b 18.961344
_cell_length_c 18.686669
_cell_angle_alpha 90.000000
_cell_angle_beta 90.000000
_cell_angle_gamma 90.000000
_cell_volume 1838.078518
_symmetry_space_group_name_H-M "P C C N"
_symmetry_group_IT_number 56
_symmetry_cell_setting 'orthorhombic'
loop_
_space_group_symop_operation_xyz
x,y,z
1/2-x,1/2-y,z
1/2+x,-y,1/2-z
-x,1/2+y,1/2-z
-x,-y,-z
1/2+x,1/2+y,-z
1/2-x,y,1/2+z
x,1/2-y,1/2+z
loop_
_atom_site_type_symbol
_atom_site_label
_atom_site_fract_x
_atom_site_fract_y
_atom_site_fract_z
Si Si1 0.270465 0.667472 0.708141
Si Si2 0.713761 0.469950 0.714616
Si Si3 0.559390 0.582183 0.481381
Si Si4 0.269265 0.166951 0.384053
Si Si5 0.941551 0.052590 0.066276
O O1 0.250000 0.750000 0.726546
O O2 0.216078 0.613746 0.771768
O O3 0.554672 0.653775 0.676884
O O4 0.053640 0.652439 0.647086
O O5 0.431029 0.498819 0.732010
O O6 0.820001 0.484481 0.635327
O O7 0.500000 0.500000 0.500000
O O8 0.681669 0.622846 0.547592
O O9 0.776095 0.584134 0.419827
O O10 0.276203 0.607659 0.458989
O O11 0.250000 0.250000 0.401344
O O12 0.000000 0.000000 0.000000
#
# Coordination Sequence:
#
# PCOD9431278 Si02
#       5
#     8   8   8   8   8
#     4  10  23  41  64  91 130 169 218 272 329 384
#     4  12  26  40  66  98 131 171 225 272 324 394
#     4  10  21  35  61  86 128 162 205 257 330 372
#     4  10  21  39  64  94 123 171 222 268 320 399
#     4  10  23  39  58  93 131 166 202 261 335 371
#
# _framework density 21.761855000000001
#
# number of rings (size 3 to 8) (size 9 to 14) (size 15 to 20)
#    0.000    1.600    0.000    3.600   16.800    0.000 
#    0.000    2.000    0.000    0.000    0.000    0.000 
#    0.000    0.000    0.000    0.000    0.000    0.000 
#
# Total GULP energy -223342.155265 kJ/mol
# GULP energy per Si atom -5583.553882 kJ/mol
# Density = 2.171232 g / cm^3
# Si number density = 21.761855 Si / 1000 Ang^3
#
#
#
# Elastic Constant Matrix: (Units=GPa)
#
#
# Indices 1 2 3 4 5 6 
#
# 1 140.8473 -0.2513 -0.5098 0.0000 0.0000 0.0000
# 2 -0.2513 65.3954 16.6680 0.0000 0.0000 0.0000
# 3 -0.5098 16.6680 79.0466 0.0000 0.0000 0.0000
# 4 0.0000 0.0000 0.0000 30.9999 0.0000 0.0000
# 5 0.0000 0.0000 0.0000 0.0000 27.0134 0.0000
# 6 0.0000 0.0000 0.0000 0.0000 0.0000 22.3698
#
#
#
# Elastic Compliance Matrix: (Units=1/GPa)
#
#
# Indices 1 2 3 4 5 6 
#
# 1 0.007100 0.000017 0.000042 0.000000 0.000000 0.000000
# 2 0.000017 0.016160 -0.003407 0.000000 0.000000 0.000000
# 3 0.000042 -0.003407 0.013370 0.000000 0.000000 0.000000
# 4 0.000000 0.000000 0.000000 0.032258 0.000000 0.000000
# 5 0.000000 0.000000 0.000000 0.000000 0.037019 0.000000
# 6 0.000000 0.000000 0.000000 0.000000 0.000000 0.044703
#
#
# Mechanical properties :
#
#
# Convention : Reuss Voigt Hill
#
# Bulk Modulus (GPa) = 33.40855 35.23367 34.32111
# Shear Modulus (GPa) = 29.88921 34.03546 31.96233
#
# Velocity S-wave (km/s) = 3.71005 3.95903 3.83656
# Velocity P-wave (km/s) = 5.80843 6.09297 5.95240
#
# Compressibility (1/GPa) = 0.02993246
#
# Stress axis : x y z
#
# Youngs Moduli (GPa) = 140.84369 61.88061 74.79680
#
# Poissons Ratio (x) = -0.00102 -0.00317
# Poissons Ratio (y) = -0.00232 0.25487
# Poissons Ratio (z) = -0.00596 0.21086
#
# Static dielectric constant tensor:
#      x y z
#    x 1.947020 0.000000 0.000000 
#    y 0.000000 1.836640 0.000000 
#    z 0.000000 0.000000 1.829790 
# 
# From -- ./inp_files/13818.got.cif
#   From: 2010.05.17/outbox.cif.g08.bks.cpg/sg56_7_cif.got.tgz:13818.got - 2010.06.03 13:42:01.
