data_PCOD9431549
_publ_section_title
;
Structure prediction by ZEFSAII (Michael W. Deem and Ramdas Pophale) SiO2 
 PCOD9431549
Probable space group: P C C N
;
_chemical_formula_sum "Si O2"
_cell_formula_units_Z 56
_cell_length_a 21.498860
_cell_length_b 12.637375
_cell_length_c 10.046034
_cell_angle_alpha 90.000000
_cell_angle_beta 90.000000
_cell_angle_gamma 90.000000
_cell_volume 2729.398498
_symmetry_space_group_name_H-M "P C C N"
_symmetry_group_IT_number 56
_symmetry_cell_setting 'orthorhombic'
loop_
_space_group_symop_operation_xyz
x,y,z
1/2-x,1/2-y,z
1/2+x,-y,1/2-z
-x,1/2+y,1/2-z
-x,-y,-z
1/2+x,1/2+y,-z
1/2-x,y,1/2+z
x,1/2-y,1/2+z
loop_
_atom_site_type_symbol
_atom_site_label
_atom_site_fract_x
_atom_site_fract_y
_atom_site_fract_z
Si Si1 0.795950 0.152174 0.300043
Si Si2 0.099855 0.788405 0.314912
Si Si3 0.290375 0.559407 0.417249
Si Si4 0.011626 0.434609 0.295952
Si Si5 0.612963 0.802115 0.814700
Si Si6 0.186770 0.315589 0.916228
Si Si7 0.496016 0.151368 0.588874
O O1 0.750000 0.250000 0.330765
O O2 0.863467 0.205672 0.280413
O O3 0.770487 0.100201 0.162964
O O4 0.787497 0.072922 0.423431
O O5 0.153602 0.862645 0.374077
O O6 0.047188 0.866481 0.255198
O O7 0.060843 0.714679 0.415498
O O8 0.303417 0.438309 0.378341
O O9 0.075856 0.408677 0.221711
O O10 0.020261 0.397427 0.447440
O O11 0.999396 0.558747 0.301893
O O12 0.641603 0.744901 0.686204
O O13 0.558270 0.728631 0.869456
O O14 0.661233 0.815175 0.933441
O O15 0.250000 0.250000 0.912285
#
# Coordination Sequence:
#
# PCOD9431549 Si02
#       7
#     8   8   8   8   8   8   8
#     4  10  22  42  65  96 133 169 222 279 333 398
#     4  10  21  39  66  96 133 170 217 274 330 396
#     4  11  25  42  65  98 128 177 224 280 336 396
#     4  10  21  39  65  98 130 174 211 261 337 394
#     4  11  24  47  64  99 132 172 218 285 324 410
#     4  12  28  45  69  91 135 175 231 277 342 401
#     4  10  21  40  66  97 133 169 213 266 330 401
#
# _framework density 20.517340999999998
#
# number of rings (size 3 to 8) (size 9 to 14) (size 15 to 20)
#    0.000    1.429    1.429    3.429    6.000    1.143 
#    0.000    2.143    0.000    0.000    0.000    0.000 
#    0.000    0.000    0.000    0.000    0.000    0.000 
#
# Total GULP energy -312708.066326 kJ/mol
# GULP energy per Si atom -5584.072613 kJ/mol
# Density = 2.047064 g / cm^3
# Si number density = 20.517341 Si / 1000 Ang^3
#
#
#
# Elastic Constant Matrix: (Units=GPa)
#
#
# Indices 1 2 3 4 5 6 
#
# 1 73.4417 7.3949 8.3801 0.0000 0.0000 0.0000
# 2 7.3949 68.1480 -6.7147 0.0000 0.0000 0.0000
# 3 8.3801 -6.7147 58.0084 0.0000 0.0000 0.0000
# 4 0.0000 0.0000 0.0000 29.0369 0.0000 0.0000
# 5 0.0000 0.0000 0.0000 0.0000 16.0821 0.0000
# 6 0.0000 0.0000 0.0000 0.0000 0.0000 10.2916
#
#
#
# Elastic Compliance Matrix: (Units=1/GPa)
#
#
# Indices 1 2 3 4 5 6 
#
# 1 0.014046 -0.001744 -0.002231 0.000000 0.000000 0.000000
# 2 -0.001744 0.015060 0.001995 0.000000 0.000000 0.000000
# 3 -0.002231 0.001995 0.017792 0.000000 0.000000 0.000000
# 4 0.000000 0.000000 0.000000 0.034439 0.000000 0.000000
# 5 0.000000 0.000000 0.000000 0.000000 0.062181 0.000000
# 6 0.000000 0.000000 0.000000 0.000000 0.000000 0.097167
#
#
# Mechanical properties :
#
#
# Convention : Reuss Voigt Hill
#
# Bulk Modulus (GPa) = 23.28913 24.19095 23.74004
# Shear Modulus (GPa) = 19.30819 23.78465 21.54642
#
# Velocity S-wave (km/s) = 3.07101 3.40846 3.24413
# Velocity P-wave (km/s) = 4.89391 5.22554 5.06244
#
# Compressibility (1/GPa) = 0.04293849
#
# Stress axis : x y z
#
# Youngs Moduli (GPa) = 71.19244 66.40208 56.20458
#
# Poissons Ratio (x) = 0.11581 0.12540
# Poissons Ratio (y) = 0.12416 -0.11214
# Poissons Ratio (z) = 0.15884 -0.13248
#
# Static dielectric constant tensor:
#      x y z
#    x 1.707640 0.000000 0.000000 
#    y 0.000000 1.734390 0.000000 
#    z 0.000000 0.000000 1.727790 
# 
# From -- ./inp_files/8644.got.cif
#   From: 2010.05.17/outbox.cif.g08.bks.cpg/sg56_5_cif.got.tgz:8644.got - 2010.06.03 13:42:01.
