data_PCOD9431804
_publ_section_title
;
Structure prediction by ZEFSAII (Michael W. Deem and Ramdas Pophale) SiO2 
 PCOD9431804
Probable space group: P C C N
;
_chemical_formula_sum "Si O2"
_cell_formula_units_Z 40
_cell_length_a 7.561438
_cell_length_b 7.998475
_cell_length_c 27.861756
_cell_angle_alpha 90.000000
_cell_angle_beta 90.000000
_cell_angle_gamma 90.000000
_cell_volume 1685.078245
_symmetry_space_group_name_H-M "P C C N"
_symmetry_group_IT_number 56
_symmetry_cell_setting 'orthorhombic'
loop_
_space_group_symop_operation_xyz
x,y,z
1/2-x,1/2-y,z
1/2+x,-y,1/2-z
-x,1/2+y,1/2-z
-x,-y,-z
1/2+x,1/2+y,-z
1/2-x,y,1/2+z
x,1/2-y,1/2+z
loop_
_atom_site_type_symbol
_atom_site_label
_atom_site_fract_x
_atom_site_fract_y
_atom_site_fract_z
Si Si1 0.458307 0.756394 0.111921
Si Si2 0.438309 0.389594 0.589850
Si Si3 0.465145 0.056236 0.553545
Si Si4 0.557939 0.837702 0.713765
Si Si5 0.946387 0.226816 0.184269
O O1 0.250000 0.750000 0.101253
O O2 0.535736 0.587712 0.089207
O O3 0.476599 0.761584 0.169092
O O4 0.529269 0.930026 0.091210
O O5 0.534312 0.243642 0.560928
O O6 0.243131 0.421360 0.567620
O O7 0.431646 0.313364 0.644062
O O8 0.500000 0.000000 0.500000
O O9 0.750000 0.750000 0.720058
O O10 0.465447 0.820135 0.764981
O O11 0.538802 0.030435 0.696916
O O12 0.750000 0.250000 0.164791
#
# Coordination Sequence:
#
# PCOD9431804 Si02
#       5
#     8   8   8   8   8
#     4  10  21  42  69 101 140 182 233 289 352 425
#     4  10  22  43  71  98 140 183 233 299 355 426
#     4  10  22  43  70 102 136 186 240 299 367 428
#     4  12  25  41  69 104 146 190 236 291 352 439
#     4  12  25  44  67 107 143 190 239 288 360 437
#
# _framework density 23.737767000000002
#
# number of rings (size 3 to 8) (size 9 to 14) (size 15 to 20)
#    0.000    1.200    2.000    4.200    2.800    2.400 
#    3.600    3.000    0.000    0.000    0.000    0.000 
#    0.000    0.000    0.000    0.000    0.000    0.000 
#
# Total GULP energy -223435.343813 kJ/mol
# GULP energy per Si atom -5585.883595 kJ/mol
# Density = 2.368374 g / cm^3
# Si number density = 23.737767 Si / 1000 Ang^3
#
#
#
# Elastic Constant Matrix: (Units=GPa)
#
#
# Indices 1 2 3 4 5 6 
#
# 1 80.2849 29.0936 22.4033 0.0000 0.0000 0.0000
# 2 29.0936 155.3891 57.4356 0.0000 0.0000 0.0000
# 3 22.4033 57.4356 161.3522 0.0000 0.0000 0.0000
# 4 0.0000 0.0000 0.0000 56.9241 0.0000 0.0000
# 5 0.0000 0.0000 0.0000 0.0000 -0.7385 0.0000
# 6 0.0000 0.0000 0.0000 0.0000 0.0000 6.0248
#
#
#
# Elastic Compliance Matrix: (Units=1/GPa)
#
#
# Indices 1 2 3 4 5 6 
#
# 1 0.013537 -0.002119 -0.001125 0.000000 0.000000 0.000000
# 2 -0.002119 0.007742 -0.002462 0.000000 0.000000 0.000000
# 3 -0.001125 -0.002462 0.007230 0.000000 0.000000 0.000000
# 4 0.000000 0.000000 0.000000 0.017567 0.000000 0.000000
# 5 0.000000 0.000000 0.000000 0.000000 -1.354133 0.000000
# 6 0.000000 0.000000 0.000000 0.000000 0.000000 0.165981
#
#
# Mechanical properties :
#
#
# Convention : Reuss Voigt Hill
#
# Bulk Modulus (GPa) = 58.48633 68.32125 63.40379
# Shear Modulus (GPa) = -4.44459 31.64834 13.60188
#
# Velocity S-wave (km/s) = -1.36983 3.65533 2.39635
# Velocity P-wave (km/s) = 4.71064 6.83077 5.86726
#
# Compressibility (1/GPa) = 0.01709801
#
# Stress axis : x y z
#
# Youngs Moduli (GPa) = 73.86921 129.16496 138.30921
#
# Poissons Ratio (x) = 0.27365 0.15566
# Poissons Ratio (y) = 0.15650 0.34048
# Poissons Ratio (z) = 0.08314 0.31797
#
# Static dielectric constant tensor:
#      x y z
#    x 1.914490 0.000000 0.000000 
#    y 0.000000 1.997580 0.000000 
#    z 0.000000 0.000000 1.859220 
# 
# From -- ./inp_files/20342.got.cif
#   From: 2010.05.17/outbox.cif.g08.bks.cpg/sg56_11_cif.got.tgz:20342.got - 2010.06.03 13:42:01.
