data_PCOD9431056
_publ_section_title
;
Structure prediction by ZEFSAII (Michael W. Deem and Ramdas Pophale) SiO2 
 PCOD9431056
Probable space group: P C C N
;
_chemical_formula_sum "Si O2"
_cell_formula_units_Z 36
_cell_length_a 9.384468
_cell_length_b 7.044295
_cell_length_c 22.987910
_cell_angle_alpha 90.000000
_cell_angle_beta 90.000000
_cell_angle_gamma 90.000000
_cell_volume 1519.660870
_symmetry_space_group_name_H-M "P C C N"
_symmetry_group_IT_number 56
_symmetry_cell_setting 'orthorhombic'
loop_
_space_group_symop_operation_xyz
x,y,z
1/2-x,1/2-y,z
1/2+x,-y,1/2-z
-x,1/2+y,1/2-z
-x,-y,-z
1/2+x,1/2+y,-z
1/2-x,y,1/2+z
x,1/2-y,1/2+z
loop_
_atom_site_type_symbol
_atom_site_label
_atom_site_fract_x
_atom_site_fract_y
_atom_site_fract_z
Si Si1 0.923754 0.075541 0.217351
Si Si2 0.620059 0.512325 0.681588
Si Si3 0.633929 0.593931 0.879725
Si Si4 0.250000 0.750000 0.045001
Si Si5 0.604088 0.146031 0.066703
O O1 0.898594 0.288712 0.195571
O O2 0.781076 0.954399 0.205170
O O3 0.050961 0.010857 0.175371
O O4 0.988788 0.092504 0.281494
O O5 0.600030 0.530642 0.611750
O O6 0.750000 0.750000 0.860454
O O7 0.691341 0.419373 0.916446
O O8 0.526397 0.715866 0.919878
O O9 0.365353 0.854516 0.002151
O O10 0.750000 0.250000 0.086622
#
# Coordination Sequence:
#
# PCOD9431056 Si02
#       5
#     8   8   8   4   8
#     4  10  22  38  61  92 128 165 213 271 331 391
#     4  10  20  40  64  88 127 170 208 275 330 385
#     4  11  23  41  68  99 132 174 224 279 330 396
#     4  10  22  42  72  92 132 180 222 272 332 400
#     4   9  19  42  66  85 132 172 211 278 333 375
#
# _framework density 23.689495000000001
#
# number of rings (size 3 to 8) (size 9 to 14) (size 15 to 20)
#    0.667    1.333    4.444    0.667    6.222    2.667 
#    0.000    0.000    9.778    0.000    0.000    0.000 
#    0.000    0.000    0.000    0.000    0.000    0.000 
#
# Total GULP energy -200821.030282 kJ/mol
# GULP energy per Si atom -5578.361952 kJ/mol
# Density = 2.363558 g / cm^3
# Si number density = 23.689495 Si / 1000 Ang^3
#
#
#
# Elastic Constant Matrix: (Units=GPa)
#
#
# Indices 1 2 3 4 5 6 
#
# 1 99.4791 51.8749 37.5363 0.0000 0.0000 0.0000
# 2 51.8749 59.4832 41.2652 0.0000 0.0000 0.0000
# 3 37.5363 41.2652 121.4911 0.0000 0.0000 0.0000
# 4 0.0000 0.0000 0.0000 10.9299 0.0000 0.0000
# 5 0.0000 0.0000 0.0000 0.0000 222.1164 0.0000
# 6 0.0000 0.0000 0.0000 0.0000 0.0000 21.6277
#
#
#
# Elastic Compliance Matrix: (Units=1/GPa)
#
#
# Indices 1 2 3 4 5 6 
#
# 1 0.018446 -0.015873 -0.000308 0.000000 0.000000 0.000000
# 2 -0.015873 0.035653 -0.007206 0.000000 0.000000 0.000000
# 3 -0.000308 -0.007206 0.010774 0.000000 0.000000 0.000000
# 4 0.000000 0.000000 0.000000 0.091492 0.000000 0.000000
# 5 0.000000 0.000000 0.000000 0.000000 0.004502 0.000000
# 6 0.000000 0.000000 0.000000 0.000000 0.000000 0.046237
#
#
# Mechanical properties :
#
#
# Convention : Reuss Voigt Hill
#
# Bulk Modulus (GPa) = 55.24947 60.20068 57.72507
# Shear Modulus (GPa) = 19.23756 60.91994 40.07875
#
# Velocity S-wave (km/s) = 2.85278 5.07660 4.11766
# Velocity P-wave (km/s) = 5.85014 7.73499 6.85763
#
# Compressibility (1/GPa) = 0.01809972
#
# Stress axis : x y z
#
# Youngs Moduli (GPa) = 54.21353 28.04833 92.81998
#
# Poissons Ratio (x) = 0.44521 0.02856
# Poissons Ratio (y) = 0.86052 0.66882
# Poissons Ratio (z) = 0.01668 0.20210
#
# Static dielectric constant tensor:
#      x y z
#    x 1.988840 0.000000 0.000000 
#    y 0.000000 1.937760 0.000000 
#    z 0.000000 0.000000 1.988610 
# 
# From -- ./inp_files/21931.got.cif
#   From: 2010.05.17/outbox.cif.g08.bks.cpg/sg56_11_cif.got.tgz:21931.got - 2010.06.03 13:42:01.
