data_PCOD9431455
_publ_section_title
;
Structure prediction by ZEFSAII (Michael W. Deem and Ramdas Pophale) SiO2 
 PCOD9431455
Probable space group: P C C N
;
_chemical_formula_sum "Si O2"
_cell_formula_units_Z 48
_cell_length_a 9.679227
_cell_length_b 11.252544
_cell_length_c 20.331591
_cell_angle_alpha 90.000000
_cell_angle_beta 90.000000
_cell_angle_gamma 90.000000
_cell_volume 2214.434095
_symmetry_space_group_name_H-M "P C C N"
_symmetry_group_IT_number 56
_symmetry_cell_setting 'orthorhombic'
loop_
_space_group_symop_operation_xyz
x,y,z
1/2-x,1/2-y,z
1/2+x,-y,1/2-z
-x,1/2+y,1/2-z
-x,-y,-z
1/2+x,1/2+y,-z
1/2-x,y,1/2+z
x,1/2-y,1/2+z
loop_
_atom_site_type_symbol
_atom_site_label
_atom_site_fract_x
_atom_site_fract_y
_atom_site_fract_z
Si Si1 0.501646 0.921066 0.153375
Si Si2 0.397802 0.193223 0.714927
Si Si3 0.100533 0.889716 0.019630
Si Si4 0.320043 0.944611 0.666471
Si Si5 0.138804 0.652116 0.813156
Si Si6 0.072662 0.872714 0.512488
O O1 0.537509 0.839636 0.214906
O O2 0.344523 0.967294 0.162480
O O3 0.485278 0.853028 0.086125
O O4 0.617665 0.024838 0.152518
O O5 0.250000 0.250000 0.725273
O O6 0.492897 0.285682 0.678470
O O7 0.391307 0.071160 0.675589
O O8 0.119752 0.887590 0.099987
O O9 0.264215 0.899477 0.001911
O O10 0.052162 0.763554 0.987430
O O11 0.000000 0.000000 0.000000
O O12 0.340547 0.875045 0.735187
O O13 0.250000 0.750000 0.834206
O O14 0.000000 0.000000 0.500000
#
# Coordination Sequence:
#
# PCOD9431455 Si02
#       6
#     8   8   8   8   8   8
#     4  10  21  39  61  91 125 168 212 264 334 395
#     4  11  21  36  58  95 129 161 210 260 324 405
#     4  10  23  45  70  93 122 178 231 273 331 394
#     4  10  21  38  64  88 125 170 213 262 329 400
#     4  11  21  36  60  92 129 165 206 261 332 398
#     4  10  23  46  67  93 130 171 223 283 335 388
#
# _framework density 21.675968000000001
#
# number of rings (size 3 to 8) (size 9 to 14) (size 15 to 20)
#    0.000    1.667    3.333    1.000    2.333    2.000 
#   12.000    0.000    0.000    0.000    0.000    0.000 
#    0.000    0.000    0.000    0.000    0.000    0.000 
#
# Total GULP energy -267317.959118 kJ/mol
# GULP energy per Si atom -5569.124148 kJ/mol
# Density = 2.162663 g / cm^3
# Si number density = 21.675968 Si / 1000 Ang^3
#
#
#
# Elastic Constant Matrix: (Units=GPa)
#
#
# Indices 1 2 3 4 5 6 
#
# 1 69.0975 51.1854 19.0333 0.0000 0.0000 0.0000
# 2 51.1854 157.4482 18.4189 0.0000 0.0000 0.0000
# 3 19.0333 18.4189 55.0319 0.0000 0.0000 0.0000
# 4 0.0000 0.0000 0.0000 -8.4625 0.0000 0.0000
# 5 0.0000 0.0000 0.0000 0.0000 18.6409 0.0000
# 6 0.0000 0.0000 0.0000 0.0000 0.0000 38.9453
#
#
#
# Elastic Compliance Matrix: (Units=1/GPa)
#
#
# Indices 1 2 3 4 5 6 
#
# 1 0.020309 -0.006016 -0.005010 0.000000 0.000000 0.000000
# 2 -0.006016 0.008392 -0.000728 0.000000 0.000000 0.000000
# 3 -0.005010 -0.000728 0.020148 0.000000 0.000000 0.000000
# 4 0.000000 0.000000 0.000000 -0.118168 0.000000 0.000000
# 5 0.000000 0.000000 0.000000 0.000000 0.053646 0.000000
# 6 0.000000 0.000000 0.000000 0.000000 0.000000 0.025677
#
#
# Mechanical properties :
#
#
# Convention : Reuss Voigt Hill
#
# Bulk Modulus (GPa) = 39.46377 50.98362 45.22370
# Shear Modulus (GPa) = 119.16120 22.68739 70.92430
#
# Velocity S-wave (km/s) = 7.42248 3.23872 5.72637
# Velocity P-wave (km/s) = 9.57619 6.12843 8.03931
#
# Compressibility (1/GPa) = 0.02533970
#
# Stress axis : x y z
#
# Youngs Moduli (GPa) = 49.23898 119.15684 49.63300
#
# Poissons Ratio (x) = 0.71687 0.24869
# Poissons Ratio (y) = 0.29623 0.03614
# Poissons Ratio (z) = 0.24671 0.08676
#
# Static dielectric constant tensor:
#      x y z
#    x 1.763900 0.000000 0.000000 
#    y 0.000000 2.190580 0.000000 
#    z 0.000000 0.000000 1.809890 
# 
# From -- ./inp_files/20484.got.cif
#   From: 2010.05.17/outbox.cif.g08.bks.cpg/sg56_11_cif.got.tgz:20484.got - 2010.06.03 13:42:01.
