data_PCOD9431940
_publ_section_title
;
Structure prediction by ZEFSAII (Michael W. Deem and Ramdas Pophale) SiO2 
 PCOD9431940
Probable space group: P C C N
;
_chemical_formula_sum "Si O2"
_cell_formula_units_Z 48
_cell_length_a 14.036659
_cell_length_b 8.988843
_cell_length_c 16.265132
_cell_angle_alpha 90.000000
_cell_angle_beta 90.000000
_cell_angle_gamma 90.000000
_cell_volume 2052.225770
_symmetry_space_group_name_H-M "P C C N"
_symmetry_group_IT_number 56
_symmetry_cell_setting 'orthorhombic'
loop_
_space_group_symop_operation_xyz
x,y,z
1/2-x,1/2-y,z
1/2+x,-y,1/2-z
-x,1/2+y,1/2-z
-x,-y,-z
1/2+x,1/2+y,-z
1/2-x,y,1/2+z
x,1/2-y,1/2+z
loop_
_atom_site_type_symbol
_atom_site_label
_atom_site_fract_x
_atom_site_fract_y
_atom_site_fract_z
Si Si1 0.162652 0.669051 0.336228
Si Si2 0.481856 0.481610 0.243189
Si Si3 0.686527 0.602342 0.057966
Si Si4 0.999933 0.249719 0.866894
Si Si5 0.528783 0.160994 0.035780
Si Si6 0.348352 0.174143 0.614874
O O1 0.250000 0.750000 0.291136
O O2 0.213194 0.543679 0.392864
O O3 0.103111 0.781380 0.395323
O O4 0.086965 0.576876 0.282338
O O5 0.472717 0.652009 0.213622
O O6 0.471672 0.413650 0.333909
O O7 0.401090 0.402833 0.189263
O O8 0.750000 0.750000 0.065080
O O9 0.587156 0.656571 0.095787
O O10 0.677650 0.568228 0.961499
O O11 0.937301 0.262556 0.949017
O O12 0.427599 0.218581 0.073595
O O13 0.500000 0.000000 0.000000
O O14 0.250000 0.250000 0.641107
#
# Coordination Sequence:
#
# PCOD9431940 Si02
#       6
#     8   8   8   8   8   8
#     4  10  22  37  60  88 119 154 198 252 301 352
#     4  10  22  39  58  85 122 157 194 245 295 363
#     4   9  19  36  60  87 113 154 206 244 294 358
#     4  10  22  38  59  84 118 159 196 240 301 349
#     4  10  22  38  63  90 120 154 202 250 294 352
#     4   9  19  36  61  85 115 153 198 243 294 349
#
# _framework density 23.389240000000001
#
# number of rings (size 3 to 8) (size 9 to 14) (size 15 to 20)
#    0.000    2.333    0.000    1.000   11.667    4.667 
#    0.000    2.500    0.000    0.000    0.000    0.000 
#    0.000    0.000    0.000    0.000    0.000    0.000 
#
# Total GULP energy -267407.522900 kJ/mol
# GULP energy per Si atom -5570.990060 kJ/mol
# Density = 2.333600 g / cm^3
# Si number density = 23.389240 Si / 1000 Ang^3
#
#
#
# Elastic Constant Matrix: (Units=GPa)
#
#
# Indices 1 2 3 4 5 6 
#
# 1 51.9961 18.7514 -16.5117 0.0000 0.0000 0.0000
# 2 18.7514 70.8241 0.0112 0.0000 0.0000 0.0000
# 3 -16.5117 0.0112 45.7241 0.0000 0.0000 0.0000
# 4 0.0000 0.0000 0.0000 -27.2695 0.0000 0.0000
# 5 0.0000 0.0000 0.0000 0.0000 20.3059 0.0000
# 6 0.0000 0.0000 0.0000 0.0000 0.0000 16.3617
#
#
#
# Elastic Compliance Matrix: (Units=1/GPa)
#
#
# Indices 1 2 3 4 5 6 
#
# 1 0.024351 -0.006448 0.008795 0.000000 0.000000 0.000000
# 2 -0.006448 0.015827 -0.002333 0.000000 0.000000 0.000000
# 3 0.008795 -0.002333 0.025047 0.000000 0.000000 0.000000
# 4 0.000000 0.000000 0.000000 -0.036671 0.000000 0.000000
# 5 0.000000 0.000000 0.000000 0.000000 0.049247 0.000000
# 6 0.000000 0.000000 0.000000 0.000000 0.000000 0.061118
#
#
# Mechanical properties :
#
#
# Convention : Reuss Voigt Hill
#
# Bulk Modulus (GPa) = 15.32504 19.22735 17.27620
# Shear Modulus (GPa) = 31.12518 12.96584 22.04551
#
# Velocity S-wave (km/s) = 3.65190 2.35702 3.07343
# Velocity P-wave (km/s) = 4.93439 3.95548 4.47180
#
# Compressibility (1/GPa) = 0.06525268
#
# Stress axis : x y z
#
# Youngs Moduli (GPa) = 41.06666 63.18252 39.92510
#
# Poissons Ratio (x) = 0.40743 -0.35114
# Poissons Ratio (y) = 0.26482 0.09313
# Poissons Ratio (z) = -0.36118 0.14738
#
# Static dielectric constant tensor:
#      x y z
#    x 1.892730 0.000000 0.000000 
#    y 0.000000 1.961500 0.000000 
#    z 0.000000 0.000000 1.950770 
# 
# From -- ./inp_files/14780.got.cif
#   From: 2010.05.17/outbox.cif.g08.bks.cpg/sg56_8_cif.got.tgz:14780.got - 2010.06.03 13:42:01.
