data_PCOD9431669
_publ_section_title
;
Structure prediction by ZEFSAII (Michael W. Deem and Ramdas Pophale) SiO2 
 PCOD9431669
Probable space group: P C C N
;
_chemical_formula_sum "Si O2"
_cell_formula_units_Z 60
_cell_length_a 27.730278
_cell_length_b 4.820108
_cell_length_c 18.097591
_cell_angle_alpha 90.000000
_cell_angle_beta 90.000000
_cell_angle_gamma 90.000000
_cell_volume 2418.977126
_symmetry_space_group_name_H-M "P C C N"
_symmetry_group_IT_number 56
_symmetry_cell_setting 'orthorhombic'
loop_
_space_group_symop_operation_xyz
x,y,z
1/2-x,1/2-y,z
1/2+x,-y,1/2-z
-x,1/2+y,1/2-z
-x,-y,-z
1/2+x,1/2+y,-z
1/2-x,y,1/2+z
x,1/2-y,1/2+z
loop_
_atom_site_type_symbol
_atom_site_label
_atom_site_fract_x
_atom_site_fract_y
_atom_site_fract_z
Si Si1 0.250000 0.750000 0.847717
Si Si2 0.874764 0.875862 0.636821
Si Si3 0.015388 0.756392 0.703974
Si Si4 0.393258 0.945054 0.542719
Si Si5 0.846821 0.338043 0.726616
Si Si6 0.201737 0.173745 0.962509
Si Si7 0.107352 0.054266 0.642231
Si Si8 0.532830 0.793206 0.049311
O O1 0.294637 0.781873 0.792632
O O2 0.271917 0.515978 0.901313
O O3 0.867336 0.565842 0.668229
O O4 0.828217 0.909942 0.582725
O O5 0.921165 0.938244 0.587855
O O6 0.877549 0.067752 0.708074
O O7 0.063466 0.933897 0.689948
O O8 0.017200 0.476862 0.751063
O O9 0.995818 0.689424 0.621716
O O10 0.342358 0.022998 0.504296
O O11 0.395603 0.131244 0.617087
O O12 0.439842 0.049517 0.496234
O O13 0.393093 0.627937 0.567563
O O14 0.848018 0.475509 0.806396
O O15 0.250000 0.250000 0.009327
O O16 0.500000 0.000000 0.000000
#
# Coordination Sequence:
#
# PCOD9431669 Si02
#       8
#     4   8   8   8   8   8   8   8
#     4  10  22  40  70 100 126 176 236 286 342 422
#     4  10  22  40  68 101 127 175 225 286 340 396
#     4  12  26  45  72 103 138 186 239 293 347 416
#     4  11  27  44  67 101 137 187 223 292 352 424
#     4  11  22  43  68  95 136 174 228 287 346 405
#     4  10  21  40  68  94 134 164 234 284 343 408
#     4  12  25  46  64  98 147 178 229 284 359 422
#     4  11  24  46  71 102 142 184 236 281 348 426
#
# _framework density 24.803874
#
# number of rings (size 3 to 8) (size 9 to 14) (size 15 to 20)
#    0.000    1.067    2.667    3.200    1.867    4.800 
#    2.400    0.000    0.000    0.000    0.000    0.000 
#    0.000    0.000    0.000    0.000    0.000    0.000 
#
# Total GULP energy -335289.468950 kJ/mol
# GULP energy per Si atom -5588.157816 kJ/mol
# Density = 2.474742 g / cm^3
# Si number density = 24.803874 Si / 1000 Ang^3
#
#
#
# Elastic Constant Matrix: (Units=GPa)
#
#
# Indices 1 2 3 4 5 6 
#
# 1 137.4225 16.2177 36.6610 0.0000 0.0000 0.0000
# 2 16.2177 78.6064 11.9890 0.0000 0.0000 0.0000
# 3 36.6610 11.9890 105.0509 0.0000 0.0000 0.0000
# 4 0.0000 0.0000 0.0000 41.2013 0.0000 0.0000
# 5 0.0000 0.0000 0.0000 0.0000 36.9197 0.0000
# 6 0.0000 0.0000 0.0000 0.0000 0.0000 23.8683
#
#
#
# Elastic Compliance Matrix: (Units=1/GPa)
#
#
# Indices 1 2 3 4 5 6 
#
# 1 0.008146 -0.001269 -0.002698 0.000000 0.000000 0.000000
# 2 -0.001269 0.013145 -0.001057 0.000000 0.000000 0.000000
# 3 -0.002698 -0.001057 0.010581 0.000000 0.000000 0.000000
# 4 0.000000 0.000000 0.000000 0.024271 0.000000 0.000000
# 5 0.000000 0.000000 0.000000 0.000000 0.027086 0.000000
# 6 0.000000 0.000000 0.000000 0.000000 0.000000 0.041897
#
#
# Mechanical properties :
#
#
# Convention : Reuss Voigt Hill
#
# Bulk Modulus (GPa) = 45.82219 50.09058 47.95638
# Shear Modulus (GPa) = 35.10011 37.47865 36.28938
#
# Velocity S-wave (km/s) = 3.76587 3.89138 3.82914
# Velocity P-wave (km/s) = 6.11743 6.35837 6.23906
#
# Compressibility (1/GPa) = 0.02182349
#
# Stress axis : x y z
#
# Youngs Moduli (GPa) = 122.75354 76.07615 94.50509
#
# Poissons Ratio (x) = 0.09656 0.25498
# Poissons Ratio (y) = 0.15580 0.09991
# Poissons Ratio (z) = 0.33120 0.08043
#
# Static dielectric constant tensor:
#      x y z
#    x 2.163830 0.000000 0.000000 
#    y 0.000000 1.967260 0.000000 
#    z 0.000000 0.000000 1.992340 
# 
# From -- ./inp_files/17048.got.cif
#   From: 2010.05.17/outbox.cif.g08.bks.cpg/sg56_9_cif.got.tgz:17048.got - 2010.06.03 13:42:01.
