data_PCOD9431558
_publ_section_title
;
Structure prediction by ZEFSAII (Michael W. Deem and Ramdas Pophale) SiO2 
 PCOD9431558
Probable space group: P C C N
;
_chemical_formula_sum "Si O2"
_cell_formula_units_Z 48
_cell_length_a 28.851787
_cell_length_b 5.130580
_cell_length_c 13.664173
_cell_angle_alpha 90.000000
_cell_angle_beta 90.000000
_cell_angle_gamma 90.000000
_cell_volume 2022.658357
_symmetry_space_group_name_H-M "P C C N"
_symmetry_group_IT_number 56
_symmetry_cell_setting 'orthorhombic'
loop_
_space_group_symop_operation_xyz
x,y,z
1/2-x,1/2-y,z
1/2+x,-y,1/2-z
-x,1/2+y,1/2-z
-x,-y,-z
1/2+x,1/2+y,-z
1/2-x,y,1/2+z
x,1/2-y,1/2+z
loop_
_atom_site_type_symbol
_atom_site_label
_atom_site_fract_x
_atom_site_fract_y
_atom_site_fract_z
Si Si1 0.653426 0.852637 0.924696
Si Si2 0.250000 0.750000 0.229600
Si Si3 0.350544 0.651041 0.213273
Si Si4 0.988794 0.723428 0.898165
Si Si5 0.250000 0.250000 0.088846
Si Si6 0.060553 0.947665 0.763431
Si Si7 0.930812 0.683769 0.063458
O O1 0.646060 0.630987 0.839718
O O2 0.702851 0.770542 0.969665
O O3 0.653662 0.132462 0.872605
O O4 0.616828 0.863707 0.010562
O O5 0.302259 0.703963 0.274293
O O6 0.248538 0.497566 0.160180
O O7 0.399230 0.730129 0.264129
O O8 0.951184 0.534912 0.846132
O O9 0.010029 0.891480 0.810837
O O10 0.034014 0.558396 0.928995
O O11 0.960293 0.858080 0.985030
O O12 0.077143 0.176230 0.834642
#
# Coordination Sequence:
#
# PCOD9431558 Si02
#       7
#     8   4   8   8   4   8   8
#     4  10  21  39  66  95 126 168 214 265 318 386
#     4   8  16  36  60  94 122 162 208 256 316 384
#     4  10  22  38  68  94 128 167 216 261 323 383
#     4  11  25  42  60  93 127 174 217 269 324 387
#     4   8  16  34  62  92 122 162 208 256 320 380
#     4  12  24  39  64  90 132 173 218 269 325 383
#     4  11  25  41  63  91 129 170 221 265 326 387
#
# _framework density 23.731142999999999
#
# number of rings (size 3 to 8) (size 9 to 14) (size 15 to 20)
#    0.000    1.667    3.333    0.500    7.000    0.000 
#    0.000    0.000    3.667    0.000    0.000    0.000 
#    0.000    0.000    0.000    0.000    0.000    0.000 
#
# Total GULP energy -267735.735327 kJ/mol
# GULP energy per Si atom -5577.827819 kJ/mol
# Density = 2.367713 g / cm^3
# Si number density = 23.731143 Si / 1000 Ang^3
#
#
#
# Elastic Constant Matrix: (Units=GPa)
#
#
# Indices 1 2 3 4 5 6 
#
# 1 130.5216 -14.3607 34.0043 0.0000 0.0000 0.0000
# 2 -14.3607 72.8367 5.6558 0.0000 0.0000 0.0000
# 3 34.0043 5.6558 57.1815 0.0000 0.0000 0.0000
# 4 0.0000 0.0000 0.0000 15.2155 0.0000 0.0000
# 5 0.0000 0.0000 0.0000 0.0000 25.1825 0.0000
# 6 0.0000 0.0000 0.0000 0.0000 0.0000 31.3828
#
#
#
# Elastic Compliance Matrix: (Units=1/GPa)
#
#
# Indices 1 2 3 4 5 6 
#
# 1 0.009438 0.002314 -0.005841 0.000000 0.000000 0.000000
# 2 0.002314 0.014403 -0.002801 0.000000 0.000000 0.000000
# 3 -0.005841 -0.002801 0.021239 0.000000 0.000000 0.000000
# 4 0.000000 0.000000 0.000000 0.065723 0.000000 0.000000
# 5 0.000000 0.000000 0.000000 0.000000 0.039710 0.000000
# 6 0.000000 0.000000 0.000000 0.000000 0.000000 0.031865
#
#
# Mechanical properties :
#
#
# Convention : Reuss Voigt Hill
#
# Bulk Modulus (GPa) = 30.84113 34.57095 32.70604
# Shear Modulus (GPa) = 24.29052 30.03884 27.16468
#
# Velocity S-wave (km/s) = 3.20280 3.56167 3.38699
# Velocity P-wave (km/s) = 5.16735 5.61367 5.39513
#
# Compressibility (1/GPa) = 0.03242424
#
# Stress axis : x y z
#
# Youngs Moduli (GPa) = 105.95380 69.42925 47.08319
#
# Poissons Ratio (x) = -0.16069 0.27504
# Poissons Ratio (y) = -0.24522 0.13188
# Poissons Ratio (z) = 0.61893 0.19447
#
# Static dielectric constant tensor:
#      x y z
#    x 2.028390 0.000000 0.000000 
#    y 0.000000 1.971610 0.000000 
#    z 0.000000 0.000000 1.956410 
# 
# From -- ./inp_files/9739.got.cif
#   From: 2010.05.17/outbox.cif.g08.bks.cpg/sg56_5_cif.got.tgz:9739.got - 2010.06.03 13:42:01.
