data_PCOD9431304
_publ_section_title
;
Structure prediction by ZEFSAII (Michael W. Deem and Ramdas Pophale) SiO2 
 PCOD9431304
Probable space group: P C C N
;
_chemical_formula_sum "Si O2"
_cell_formula_units_Z 56
_cell_length_a 14.668221
_cell_length_b 19.479959
_cell_length_c 8.840202
_cell_angle_alpha 90.000000
_cell_angle_beta 90.000000
_cell_angle_gamma 90.000000
_cell_volume 2525.966997
_symmetry_space_group_name_H-M "P C C N"
_symmetry_group_IT_number 56
_symmetry_cell_setting 'orthorhombic'
loop_
_space_group_symop_operation_xyz
x,y,z
1/2-x,1/2-y,z
1/2+x,-y,1/2-z
-x,1/2+y,1/2-z
-x,-y,-z
1/2+x,1/2+y,-z
1/2-x,y,1/2+z
x,1/2-y,1/2+z
loop_
_atom_site_type_symbol
_atom_site_label
_atom_site_fract_x
_atom_site_fract_y
_atom_site_fract_z
Si Si1 0.867243 0.040828 0.526430
Si Si2 0.061883 0.094100 0.635033
Si Si3 0.427178 0.327772 0.346609
Si Si4 0.640982 0.174663 0.849550
Si Si5 0.667293 0.610681 0.091698
Si Si6 0.823326 0.550777 0.283261
Si Si7 0.750000 0.250000 0.099199
Si Si8 0.250000 0.250000 0.890070
O O1 0.835948 0.098556 0.409894
O O2 0.960542 0.072398 0.591023
O O3 0.882446 0.971929 0.427939
O O4 0.819247 0.016979 0.681500
O O5 0.084473 0.158137 0.526643
O O6 0.074909 0.110735 0.811513
O O7 0.533311 0.312118 0.317357
O O8 0.408687 0.402078 0.269876
O O9 0.342612 0.277844 0.306771
O O10 0.671913 0.221343 0.990159
O O11 0.703190 0.194229 0.707613
O O12 0.737483 0.593582 0.225093
O O13 0.705473 0.682972 0.029528
O O14 0.670993 0.553028 0.962993
#
# Coordination Sequence:
#
# PCOD9431304 Si02
#       8
#     8   8   8   8   8   8   4   4
#     4   9  19  39  62  82 113 155 194 252 323 364
#     4   9  19  37  58  83 116 154 199 249 306 372
#     4   9  20  38  60  86 121 162 199 249 309 372
#     4  10  22  43  65  85 118 156 199 256 315 367
#     4  11  22  35  55  87 127 164 206 252 297 374
#     4  10  21  36  56  87 121 157 205 253 301 367
#     4  10  24  42  62  90 114 150 210 258 296 372
#     4  10  22  36  58  88 126 168 202 236 310 382
#
# _framework density 22.169726000000001
#
# number of rings (size 3 to 8) (size 9 to 14) (size 15 to 20)
#    0.000    2.286    0.000    3.429    0.000   11.429 
#    0.000    4.286    0.000    0.000    0.000    0.000 
#    0.000    0.000    0.000    0.000    0.000    0.000 
#
# Total GULP energy -311873.539786 kJ/mol
# GULP energy per Si atom -5569.170353 kJ/mol
# Density = 2.211927 g / cm^3
# Si number density = 22.169726 Si / 1000 Ang^3
#
#
#
# Elastic Constant Matrix: (Units=GPa)
#
#
# Indices 1 2 3 4 5 6 
#
# 1 94.7996 28.7630 30.6682 0.0000 0.0000 0.0000
# 2 28.7630 43.9701 4.8965 0.0000 0.0000 0.0000
# 3 30.6682 4.8965 97.8674 0.0000 0.0000 0.0000
# 4 0.0000 0.0000 0.0000 6.7289 0.0000 0.0000
# 5 0.0000 0.0000 0.0000 0.0000 23.3441 0.0000
# 6 0.0000 0.0000 0.0000 0.0000 0.0000 30.6402
#
#
#
# Elastic Compliance Matrix: (Units=1/GPa)
#
#
# Indices 1 2 3 4 5 6 
#
# 1 0.014656 -0.009126 -0.004136 0.000000 0.000000 0.000000
# 2 -0.009126 0.028553 0.001431 0.000000 0.000000 0.000000
# 3 -0.004136 0.001431 0.011442 0.000000 0.000000 0.000000
# 4 0.000000 0.000000 0.000000 0.148612 0.000000 0.000000
# 5 0.000000 0.000000 0.000000 0.000000 0.042837 0.000000
# 6 0.000000 0.000000 0.000000 0.000000 0.000000 0.032637
#
#
# Mechanical properties :
#
#
# Convention : Reuss Voigt Hill
#
# Bulk Modulus (GPa) = 32.26919 40.58805 36.42862
# Shear Modulus (GPa) = 15.98825 23.62993 19.80909
#
# Velocity S-wave (km/s) = 2.68838 3.26830 2.99242
# Velocity P-wave (km/s) = 4.92175 5.70877 5.32981
#
# Compressibility (1/GPa) = 0.03098931
#
# Stress axis : x y z
#
# Youngs Moduli (GPa) = 68.23340 35.02215 87.39454
#
# Poissons Ratio (x) = 0.31962 0.36146
# Poissons Ratio (y) = 0.62272 -0.12509
# Poissons Ratio (z) = 0.28221 -0.05013
#
# Static dielectric constant tensor:
#      x y z
#    x 1.882720 0.000000 0.000000 
#    y 0.000000 1.890340 0.000000 
#    z 0.000000 0.000000 1.846270 
# 
# From -- ./inp_files/3603.got.cif
#   From: 2010.05.17/outbox.cif.g08.bks.cpg/sg56_2_cif.got.tgz:3603.got - 2010.06.03 13:42:01.
