data_PCOD9431959
_publ_section_title
;
Structure prediction by ZEFSAII (Michael W. Deem and Ramdas Pophale) SiO2 
 PCOD9431959
Probable space group: P C C N
;
_chemical_formula_sum "Si O2"
_cell_formula_units_Z 56
_cell_length_a 14.267187
_cell_length_b 19.118619
_cell_length_c 9.382280
_cell_angle_alpha 90.000000
_cell_angle_beta 90.000000
_cell_angle_gamma 90.000000
_cell_volume 2559.194312
_symmetry_space_group_name_H-M "P C C N"
_symmetry_group_IT_number 56
_symmetry_cell_setting 'orthorhombic'
loop_
_space_group_symop_operation_xyz
x,y,z
1/2-x,1/2-y,z
1/2+x,-y,1/2-z
-x,1/2+y,1/2-z
-x,-y,-z
1/2+x,1/2+y,-z
1/2-x,y,1/2+z
x,1/2-y,1/2+z
loop_
_atom_site_type_symbol
_atom_site_label
_atom_site_fract_x
_atom_site_fract_y
_atom_site_fract_z
Si Si1 0.795136 0.328400 0.001034
Si Si2 0.597468 0.932845 0.988228
Si Si3 0.453344 0.637457 0.270382
Si Si4 0.096051 0.605632 0.465087
Si Si5 0.958492 0.725660 0.350218
Si Si6 0.414282 0.932493 0.166268
Si Si7 0.162171 0.300420 0.908059
O O1 0.750000 0.250000 0.985815
O O2 0.861804 0.359401 0.874652
O O3 0.859608 0.344042 0.139658
O O4 0.703317 0.374393 0.014952
O O5 0.529323 0.903342 0.864562
O O6 0.630320 0.007915 0.934720
O O7 0.523080 0.933858 0.118416
O O8 0.677018 0.877528 0.027348
O O9 0.495030 0.714922 0.251080
O O10 0.438754 0.595262 0.125606
O O11 0.091852 0.552424 0.333483
O O12 0.033881 0.670498 0.405413
O O13 0.912015 0.765269 0.483394
O O14 0.879497 0.692693 0.249982
O O15 0.250000 0.250000 0.903914
#
# Coordination Sequence:
#
# PCOD9431959 Si02
#       7
#     8   8   8   8   8   8   8
#     4  11  23  37  61  96 134 171 214 268 323 390
#     4   9  21  43  66  87 130 176 216 265 326 391
#     4  10  22  38  59  92 132 171 214 270 324 385
#     4  12  22  35  63  93 132 168 213 267 320 391
#     4  11  21  37  58  94 124 162 213 264 332 380
#     4  10  22  41  65  94 127 179 220 254 326 401
#     4  11  22  40  65  92 123 161 219 282 325 374
#
# _framework density 21.881886000000002
#
# number of rings (size 3 to 8) (size 9 to 14) (size 15 to 20)
#    0.000    1.429    4.286    1.286    2.000    1.714 
#    0.000    4.286    3.143    0.000    0.000    0.000 
#    0.000    0.000    0.000    0.000    0.000    0.000 
#
# Total GULP energy -312400.758060 kJ/mol
# GULP energy per Si atom -5578.584965 kJ/mol
# Density = 2.183208 g / cm^3
# Si number density = 21.881886 Si / 1000 Ang^3
#
#
#
# Elastic Constant Matrix: (Units=GPa)
#
#
# Indices 1 2 3 4 5 6 
#
# 1 50.2587 14.0766 20.4847 0.0000 0.0000 0.0000
# 2 14.0766 64.6866 -0.2132 0.0000 0.0000 0.0000
# 3 20.4847 -0.2132 102.0492 0.0000 0.0000 0.0000
# 4 0.0000 0.0000 0.0000 12.2814 0.0000 0.0000
# 5 0.0000 0.0000 0.0000 0.0000 9.7753 0.0000
# 6 0.0000 0.0000 0.0000 0.0000 0.0000 31.4602
#
#
#
# Elastic Compliance Matrix: (Units=1/GPa)
#
#
# Indices 1 2 3 4 5 6 
#
# 1 0.023221 -0.005069 -0.004672 0.000000 0.000000 0.000000
# 2 -0.005069 0.016566 0.001052 0.000000 0.000000 0.000000
# 3 -0.004672 0.001052 0.010739 0.000000 0.000000 0.000000
# 4 0.000000 0.000000 0.000000 0.081424 0.000000 0.000000
# 5 0.000000 0.000000 0.000000 0.000000 0.102299 0.000000
# 6 0.000000 0.000000 0.000000 0.000000 0.000000 0.031786
#
#
# Mechanical properties :
#
#
# Convention : Reuss Voigt Hill
#
# Bulk Modulus (GPa) = 30.16683 31.74343 30.95513
# Shear Modulus (GPa) = 16.98021 22.87981 19.93001
#
# Velocity S-wave (km/s) = 2.78869 3.23709 3.02122
# Velocity P-wave (km/s) = 4.91784 5.33946 5.13298
#
# Compressibility (1/GPa) = 0.03314899
#
# Stress axis : x y z
#
# Youngs Moduli (GPa) = 43.06483 60.36611 93.11696
#
# Poissons Ratio (x) = 0.30597 0.43502
# Poissons Ratio (y) = 0.21828 -0.09796
# Poissons Ratio (z) = 0.20119 -0.06351
#
# Static dielectric constant tensor:
#      x y z
#    x 1.790860 0.000000 0.000000 
#    y 0.000000 1.878340 0.000000 
#    z 0.000000 0.000000 1.849120 
# 
# From -- ./inp_files/3561.got.cif
#   From: 2010.05.17/outbox.cif.g08.bks.cpg/sg56_2_cif.got.tgz:3561.got - 2010.06.03 13:42:01.
