data_PCOD9431916
_publ_section_title
;
Structure prediction by ZEFSAII (Michael W. Deem and Ramdas Pophale) SiO2 
 PCOD9431916
Probable space group: P C C N
;
_chemical_formula_sum "Si O2"
_cell_formula_units_Z 64
_cell_length_a 15.625500
_cell_length_b 21.623331
_cell_length_c 8.934812
_cell_angle_alpha 90.000000
_cell_angle_beta 90.000000
_cell_angle_gamma 90.000000
_cell_volume 3018.852808
_symmetry_space_group_name_H-M "P C C N"
_symmetry_group_IT_number 56
_symmetry_cell_setting 'orthorhombic'
loop_
_space_group_symop_operation_xyz
x,y,z
1/2-x,1/2-y,z
1/2+x,-y,1/2-z
-x,1/2+y,1/2-z
-x,-y,-z
1/2+x,1/2+y,-z
1/2-x,y,1/2+z
x,1/2-y,1/2+z
loop_
_atom_site_type_symbol
_atom_site_label
_atom_site_fract_x
_atom_site_fract_y
_atom_site_fract_z
Si Si1 0.900756 0.893778 0.818167
Si Si2 0.093021 0.447927 0.371252
Si Si3 0.579296 0.475070 0.396593
Si Si4 0.573256 0.683862 0.228067
Si Si5 0.069101 0.661745 0.192211
Si Si6 0.763516 0.816508 0.410214
Si Si7 0.535016 0.262718 0.037062
Si Si8 0.295239 0.058531 0.929197
O O1 0.826401 0.845926 0.863611
O O2 0.852070 0.944315 0.718966
O O3 0.969532 0.856677 0.721147
O O4 0.937295 0.927797 0.964586
O O5 0.062323 0.505470 0.275421
O O6 0.066871 0.389855 0.268359
O O7 0.195967 0.451861 0.392748
O O8 0.500000 0.500000 0.500000
O O9 0.599703 0.402121 0.383585
O O10 0.662766 0.511923 0.453726
O O11 0.671748 0.695013 0.272075
O O12 0.515669 0.718494 0.348931
O O13 0.536326 0.704854 0.068081
O O14 0.088523 0.689185 0.359496
O O15 0.084072 0.717540 0.076730
O O16 0.750000 0.750000 0.482329
O O17 0.803455 0.871007 0.510533
#
# Coordination Sequence:
#
# PCOD9431916 Si02
#       8
#     8   8   8   8   8   8   8   8
#     4  11  21  35  51  83 122 163 214 259 295 347
#     4  11  22  40  57  87 125 167 209 264 302 367
#     4  12  24  43  66  87 125 174 219 254 321 388
#     4  11  19  35  50  79 122 170 207 254 282 352
#     4  11  22  39  59  86 117 164 199 264 315 371
#     4  11  22  32  54  84 127 182 222 245 295 351
#     4  10  22  36  54  83 127 155 210 256 314 371
#     4  11  22  41  56  84 125 168 216 263 296 369
#
# _framework density 21.200106999999999
#
# number of rings (size 3 to 8) (size 9 to 14) (size 15 to 20)
#    0.000    1.000    5.000    3.750    1.750    1.000 
#    0.000    0.000    0.000    0.000    0.000    2.625 
#    0.000    0.000    0.000    0.000    0.000    0.000 
#
# Total GULP energy -357079.736238 kJ/mol
# GULP energy per Si atom -5579.370879 kJ/mol
# Density = 2.115185 g / cm^3
# Si number density = 21.200107 Si / 1000 Ang^3
#
#
#
# Elastic Constant Matrix: (Units=GPa)
#
#
# Indices 1 2 3 4 5 6 
#
# 1 12.5828 9.9338 13.2799 0.0000 0.0000 0.0000
# 2 9.9338 107.5631 41.7194 0.0000 0.0000 0.0000
# 3 13.2799 41.7194 104.7215 0.0000 0.0000 0.0000
# 4 0.0000 0.0000 0.0000 44.0501 0.0000 0.0000
# 5 0.0000 0.0000 0.0000 0.0000 12.2316 0.0000
# 6 0.0000 0.0000 0.0000 0.0000 0.0000 25.5125
#
#
#
# Elastic Compliance Matrix: (Units=1/GPa)
#
#
# Indices 1 2 3 4 5 6 
#
# 1 0.093794 -0.004789 -0.009986 0.000000 0.000000 0.000000
# 2 -0.004789 0.011240 -0.003871 0.000000 0.000000 0.000000
# 3 -0.009986 -0.003871 0.012358 0.000000 0.000000 0.000000
# 4 0.000000 0.000000 0.000000 0.022701 0.000000 0.000000
# 5 0.000000 0.000000 0.000000 0.000000 0.081755 0.000000
# 6 0.000000 0.000000 0.000000 0.000000 0.000000 0.039196
#
#
# Mechanical properties :
#
#
# Convention : Reuss Voigt Hill
#
# Bulk Modulus (GPa) = 12.48441 39.41485 25.94963
# Shear Modulus (GPa) = 15.38289 27.02113 21.20201
#
# Velocity S-wave (km/s) = 2.69663 3.57399 3.16585
# Velocity P-wave (km/s) = 3.94935 5.97188 5.06265
#
# Compressibility (1/GPa) = 0.08009987
#
# Stress axis : x y z
#
# Youngs Moduli (GPa) = 10.66171 88.96450 80.92214
#
# Poissons Ratio (x) = 0.42603 0.80811
# Poissons Ratio (y) = 0.05106 0.31323
# Poissons Ratio (z) = 0.10647 0.34436
#
# Static dielectric constant tensor:
#      x y z
#    x 1.760370 0.000000 0.000000 
#    y 0.000000 1.821570 0.000000 
#    z 0.000000 0.000000 1.873710 
# 
# From -- ./inp_files/4210.got.cif
#   From: 2010.05.17/outbox.cif.g08.bks.cpg/sg56_3_cif.got.tgz:4210.got - 2010.06.03 13:42:01.
