data_PCOD9431506
_publ_section_title
;
Structure prediction by ZEFSAII (Michael W. Deem and Ramdas Pophale) SiO2 
 PCOD9431506
Probable space group: P C C N
;
_chemical_formula_sum "Si O2"
_cell_formula_units_Z 64
_cell_length_a 29.139632
_cell_length_b 7.567117
_cell_length_c 11.442541
_cell_angle_alpha 90.000000
_cell_angle_beta 90.000000
_cell_angle_gamma 90.000000
_cell_volume 2523.114672
_symmetry_space_group_name_H-M "P C C N"
_symmetry_group_IT_number 56
_symmetry_cell_setting 'orthorhombic'
loop_
_space_group_symop_operation_xyz
x,y,z
1/2-x,1/2-y,z
1/2+x,-y,1/2-z
-x,1/2+y,1/2-z
-x,-y,-z
1/2+x,1/2+y,-z
1/2-x,y,1/2+z
x,1/2-y,1/2+z
loop_
_atom_site_type_symbol
_atom_site_label
_atom_site_fract_x
_atom_site_fract_y
_atom_site_fract_z
Si Si1 0.025982 0.884777 0.909373
Si Si2 0.600110 0.356319 0.344060
Si Si3 0.619099 0.006667 0.585477
Si Si4 0.596666 0.606232 0.559898
Si Si5 0.200932 0.782067 0.141736
Si Si6 0.971155 0.074184 0.722691
Si Si7 0.691651 0.909802 0.184791
Si Si8 0.211671 0.493228 0.346508
O O1 0.008706 0.692286 0.881430
O O2 0.078190 0.865349 0.951268
O O3 0.012919 0.995053 0.793847
O O4 0.000000 0.000000 0.000000
O O5 0.613622 0.467287 0.226079
O O6 0.585939 0.494497 0.444447
O O7 0.648655 0.274283 0.387738
O O8 0.563674 0.205235 0.296462
O O9 0.603759 0.814968 0.540522
O O10 0.672399 0.036721 0.559776
O O11 0.559223 0.574459 0.660824
O O12 0.645165 0.545677 0.617379
O O13 0.250000 0.750000 0.074887
O O14 0.209771 0.645915 0.251397
O O15 0.196407 0.978077 0.197296
O O16 0.695877 0.699174 0.203013
O O17 0.736745 0.963584 0.111561
#
# Coordination Sequence:
#
# PCOD9431506 Si02
#       8
#     8   8   8   8   8   8   8   8
#     4  11  24  42  65  89 121 158 208 259 316 388
#     4  10  21  39  61  89 127 160 210 262 311 384
#     4   9  21  39  61  87 121 161 203 262 318 363
#     4  11  21  37  64  89 124 166 205 252 320 384
#     4   9  16  32  58  83 124 164 202 256 310 360
#     4  11  23  41  62  92 124 161 204 267 319 379
#     4   9  16  31  58  88 118 167 200 247 313 365
#     4   8  16  31  57  86 120 160 205 249 312 362
#
# _framework density 25.365476000000001
#
# number of rings (size 3 to 8) (size 9 to 14) (size 15 to 20)
#    0.000    2.250    1.250    1.500    0.000    3.000 
#    0.000    6.250    0.000   49.500    0.000    0.000 
#    0.000    0.000    0.000    0.000    0.000    0.000 
#
# Total GULP energy -357291.125115 kJ/mol
# GULP energy per Si atom -5582.673830 kJ/mol
# Density = 2.530774 g / cm^3
# Si number density = 25.365476 Si / 1000 Ang^3
#
#
#
# Elastic Constant Matrix: (Units=GPa)
#
#
# Indices 1 2 3 4 5 6 
#
# 1 138.3050 4.5087 -0.8197 0.0000 0.0000 0.0000
# 2 4.5087 58.3894 -0.8555 0.0000 0.0000 0.0000
# 3 -0.8197 -0.8555 43.9615 0.0000 0.0000 0.0000
# 4 0.0000 0.0000 0.0000 37.5315 0.0000 0.0000
# 5 0.0000 0.0000 0.0000 0.0000 17.1186 0.0000
# 6 0.0000 0.0000 0.0000 0.0000 0.0000 48.3665
#
#
#
# Elastic Compliance Matrix: (Units=1/GPa)
#
#
# Indices 1 2 3 4 5 6 
#
# 1 0.007249 -0.000558 0.000124 0.000000 0.000000 0.000000
# 2 -0.000558 0.017174 0.000324 0.000000 0.000000 0.000000
# 3 0.000124 0.000324 0.022756 0.000000 0.000000 0.000000
# 4 0.000000 0.000000 0.000000 0.026644 0.000000 0.000000
# 5 0.000000 0.000000 0.000000 0.000000 0.058416 0.000000
# 6 0.000000 0.000000 0.000000 0.000000 0.000000 0.020675
#
#
# Mechanical properties :
#
#
# Convention : Reuss Voigt Hill
#
# Bulk Modulus (GPa) = 21.29485 27.36921 24.33203
# Shear Modulus (GPa) = 29.62298 36.45815 33.04057
#
# Velocity S-wave (km/s) = 3.42108 3.79531 3.61304
# Velocity P-wave (km/s) = 4.90087 5.47897 5.19797
#
# Compressibility (1/GPa) = 0.04695971
#
# Stress axis : x y z
#
# Youngs Moduli (GPa) = 137.94392 58.22678 43.94485
#
# Poissons Ratio (x) = 0.03249 -0.00546
# Poissons Ratio (y) = 0.07697 -0.01423
# Poissons Ratio (z) = -0.01715 -0.01886
#
# Static dielectric constant tensor:
#      x y z
#    x 2.092500 0.000000 0.000000 
#    y 0.000000 2.013380 0.000000 
#    z 0.000000 0.000000 2.133220 
# 
# From -- ./inp_files/9184.got.cif
#   From: 2010.05.17/outbox.cif.g08.bks.cpg/sg56_5_cif.got.tgz:9184.got - 2010.06.03 13:42:01.
