data_PCOD9431708
_publ_section_title
;
Structure prediction by ZEFSAII (Michael W. Deem and Ramdas Pophale) SiO2 
 PCOD9431708
Probable space group: P C C N
;
_chemical_formula_sum "Si O2"
_cell_formula_units_Z 64
_cell_length_a 12.151389
_cell_length_b 17.273920
_cell_length_c 14.988820
_cell_angle_alpha 90.000000
_cell_angle_beta 90.000000
_cell_angle_gamma 90.000000
_cell_volume 3146.185116
_symmetry_space_group_name_H-M "P C C N"
_symmetry_group_IT_number 56
_symmetry_cell_setting 'orthorhombic'
loop_
_space_group_symop_operation_xyz
x,y,z
1/2-x,1/2-y,z
1/2+x,-y,1/2-z
-x,1/2+y,1/2-z
-x,-y,-z
1/2+x,1/2+y,-z
1/2-x,y,1/2+z
x,1/2-y,1/2+z
loop_
_atom_site_type_symbol
_atom_site_label
_atom_site_fract_x
_atom_site_fract_y
_atom_site_fract_z
Si Si1 0.411050 0.582656 0.180502
Si Si2 0.464515 0.797002 0.316346
Si Si3 0.045683 0.763076 0.115271
Si Si4 0.159824 0.412774 0.629390
Si Si5 0.329353 0.084806 0.289152
Si Si6 0.316657 0.177226 0.455637
Si Si7 0.737705 0.415906 0.160540
Si Si8 0.147901 0.808936 0.458446
O O1 0.385807 0.656727 0.118468
O O2 0.393026 0.498380 0.137476
O O3 0.538063 0.592345 0.212497
O O4 0.327437 0.589494 0.261597
O O5 0.472627 0.764155 0.216252
O O6 0.571724 0.847537 0.339962
O O7 0.360645 0.855435 0.322450
O O8 0.437648 0.727794 0.386171
O O9 0.937585 0.790461 0.063544
O O10 0.098867 0.696081 0.056600
O O11 0.265239 0.410590 0.695569
O O12 0.186502 0.390466 0.527975
O O13 0.279657 0.147068 0.358487
O O14 0.307864 0.001807 0.334215
O O15 0.250000 0.250000 0.490327
O O16 0.803505 0.390351 0.072616
O O17 0.250000 0.750000 0.456178
#
# Coordination Sequence:
#
# PCOD9431708 Si02
#       8
#     8   8   8   8   8   8   8   8
#     4  10  22  40  65  94 126 170 218 254 327 377
#     4  11  21  40  63  96 131 166 210 270 322 380
#     4  11  23  38  65  93 129 166 214 266 320 387
#     4  11  23  42  68  92 130 169 212 273 318 385
#     4  10  23  43  65  95 127 172 213 269 319 384
#     4  11  25  43  65  96 124 171 225 261 322 389
#     4  10  21  41  63  92 136 164 213 265 322 393
#     4  10  22  35  59  93 126 167 203 258 324 381
#
# _framework density 20.342096999999999
#
# number of rings (size 3 to 8) (size 9 to 14) (size 15 to 20)
#    0.000    1.500    3.750    0.750    1.750    7.500 
#    2.250    0.000    0.000    3.750    0.000    0.000 
#    0.000    0.000    0.000    0.000    0.000    0.000 
#
# Total GULP energy -357242.289455 kJ/mol
# GULP energy per Si atom -5581.910773 kJ/mol
# Density = 2.029580 g / cm^3
# Si number density = 20.342097 Si / 1000 Ang^3
#
#
#
# Elastic Constant Matrix: (Units=GPa)
#
#
# Indices 1 2 3 4 5 6 
#
# 1 44.8986 9.2834 14.5153 0.0000 0.0000 0.0000
# 2 9.2834 42.9376 -2.6928 0.0000 0.0000 0.0000
# 3 14.5153 -2.6928 80.4453 0.0000 0.0000 0.0000
# 4 0.0000 0.0000 0.0000 34.1991 0.0000 0.0000
# 5 0.0000 0.0000 0.0000 0.0000 11.9422 0.0000
# 6 0.0000 0.0000 0.0000 0.0000 0.0000 7.9291
#
#
#
# Elastic Compliance Matrix: (Units=1/GPa)
#
#
# Indices 1 2 3 4 5 6 
#
# 1 0.024968 -0.005693 -0.004696 0.000000 0.000000 0.000000
# 2 -0.005693 0.024637 0.001852 0.000000 0.000000 0.000000
# 3 -0.004696 0.001852 0.013340 0.000000 0.000000 0.000000
# 4 0.000000 0.000000 0.000000 0.029241 0.000000 0.000000
# 5 0.000000 0.000000 0.000000 0.000000 0.083737 0.000000
# 6 0.000000 0.000000 0.000000 0.000000 0.000000 0.126118
#
#
# Mechanical properties :
#
#
# Convention : Reuss Voigt Hill
#
# Bulk Modulus (GPa) = 21.80016 23.38816 22.59416
# Shear Modulus (GPa) = 14.95202 20.62577 17.78890
#
# Velocity S-wave (km/s) = 2.71408 3.18770 2.96038
# Velocity P-wave (km/s) = 4.53450 5.00709 4.77665
#
# Compressibility (1/GPa) = 0.04587123
#
# Stress axis : x y z
#
# Youngs Moduli (GPa) = 40.05206 40.59016 74.96223
#
# Poissons Ratio (x) = 0.23107 0.35199
# Poissons Ratio (y) = 0.22800 -0.13882
# Poissons Ratio (z) = 0.18807 -0.07517
#
# Static dielectric constant tensor:
#      x y z
#    x 1.488250 0.000000 0.000000 
#    y 0.000000 1.752720 0.000000 
#    z 0.000000 0.000000 1.730220 
# 
# From -- ./inp_files/11856.got.cif
#   From: 2010.05.17/outbox.cif.g08.bks.cpg/sg56_6_cif.got.tgz:11856.got - 2010.06.03 13:42:01.
