data_PCOD9431511
_publ_section_title
;
Structure prediction by ZEFSAII (Michael W. Deem and Ramdas Pophale) SiO2 
 PCOD9431511
Probable space group: P C C N
;
_chemical_formula_sum "Si O2"
_cell_formula_units_Z 40
_cell_length_a 24.189870
_cell_length_b 9.815038
_cell_length_c 7.532015
_cell_angle_alpha 90.000000
_cell_angle_beta 90.000000
_cell_angle_gamma 90.000000
_cell_volume 1788.284845
_symmetry_space_group_name_H-M "P C C N"
_symmetry_group_IT_number 56
_symmetry_cell_setting 'orthorhombic'
loop_
_space_group_symop_operation_xyz
x,y,z
1/2-x,1/2-y,z
1/2+x,-y,1/2-z
-x,1/2+y,1/2-z
-x,-y,-z
1/2+x,1/2+y,-z
1/2-x,y,1/2+z
x,1/2-y,1/2+z
loop_
_atom_site_type_symbol
_atom_site_label
_atom_site_fract_x
_atom_site_fract_y
_atom_site_fract_z
Si Si1 0.108170 0.076585 0.483585
Si Si2 0.715720 0.055320 0.953497
Si Si3 0.820697 0.152874 0.072386
Si Si4 0.063661 0.579624 0.318724
Si Si5 0.055742 0.355457 0.616946
O O1 0.082773 0.964501 0.620782
O O2 0.088261 0.219207 0.566870
O O3 0.084861 0.069737 0.283762
O O4 0.174990 0.062877 0.481951
O O5 0.782347 0.058990 0.946791
O O6 0.697965 0.191561 0.058918
O O7 0.696547 0.088074 0.757146
O O8 0.886309 0.149470 0.073952
O O9 0.053709 0.444626 0.437504
O O10 0.007610 0.665758 0.321378
#
# Coordination Sequence:
#
# PCOD9431511 Si02
#       5
#     8   8   8   8   8
#     4  11  23  43  65  94 130 172 215 266 325 388
#     4  10  22  38  66  93 127 164 209 274 320 383
#     4  10  21  39  61  94 123 157 219 257 326 379
#     4  10  24  41  63  93 122 175 210 266 318 386
#     4  11  23  41  65  88 135 164 217 262 321 383
#
# _framework density 22.367801
#
# number of rings (size 3 to 8) (size 9 to 14) (size 15 to 20)
#    0.000    1.600    2.000    3.000    5.600    4.800 
#    0.000    1.000    0.000    0.000    0.000    0.000 
#    0.000    0.000    0.000    0.000    0.000    0.000 
#
# Total GULP energy -223116.426584 kJ/mol
# GULP energy per Si atom -5577.910665 kJ/mol
# Density = 2.231689 g / cm^3
# Si number density = 22.367801 Si / 1000 Ang^3
#
#
#
# Elastic Constant Matrix: (Units=GPa)
#
#
# Indices 1 2 3 4 5 6 
#
# 1 48.5422 28.1543 13.0462 0.0000 0.0000 0.0000
# 2 28.1543 51.1859 -4.8421 0.0000 0.0000 0.0000
# 3 13.0462 -4.8421 69.9699 0.0000 0.0000 0.0000
# 4 0.0000 0.0000 0.0000 12.7975 0.0000 0.0000
# 5 0.0000 0.0000 0.0000 0.0000 23.7315 0.0000
# 6 0.0000 0.0000 0.0000 0.0000 0.0000 38.6085
#
#
#
# Elastic Compliance Matrix: (Units=1/GPa)
#
#
# Indices 1 2 3 4 5 6 
#
# 1 0.033892 -0.019366 -0.007659 0.000000 0.000000 0.000000
# 2 -0.019366 0.030732 0.005738 0.000000 0.000000 0.000000
# 3 -0.007659 0.005738 0.016117 0.000000 0.000000 0.000000
# 4 0.000000 0.000000 0.000000 0.078140 0.000000 0.000000
# 5 0.000000 0.000000 0.000000 0.000000 0.042138 0.000000
# 6 0.000000 0.000000 0.000000 0.000000 0.000000 0.025901
#
#
# Mechanical properties :
#
#
# Convention : Reuss Voigt Hill
#
# Bulk Modulus (GPa) = 26.20263 26.93497 26.56880
# Shear Modulus (GPa) = 17.71684 23.91681 20.81683
#
# Velocity S-wave (km/s) = 2.81743 3.27349 3.05398
# Velocity P-wave (km/s) = 4.72480 5.13377 4.93353
#
# Compressibility (1/GPa) = 0.03816411
#
# Stress axis : x y z
#
# Youngs Moduli (GPa) = 29.50584 32.53971 62.04612
#
# Poissons Ratio (x) = 0.63017 0.47524
# Poissons Ratio (y) = 0.57142 -0.35600
# Poissons Ratio (z) = 0.22600 -0.18670
#
# Static dielectric constant tensor:
#      x y z
#    x 1.965480 0.000000 0.000000 
#    y 0.000000 1.799590 0.000000 
#    z 0.000000 0.000000 1.877390 
# 
# From -- ./inp_files/4383.got.cif
#   From: 2010.05.17/outbox.cif.g08.bks.cpg/sg56_3_cif.got.tgz:4383.got - 2010.06.03 13:42:01.
