data_PCOD9431197
_publ_section_title
;
Structure prediction by ZEFSAII (Michael W. Deem and Ramdas Pophale) SiO2 
 PCOD9431197
Probable space group: P C C N
;
_chemical_formula_sum "Si O2"
_cell_formula_units_Z 40
_cell_length_a 12.961600
_cell_length_b 16.106381
_cell_length_c 8.898756
_cell_angle_alpha 90.000000
_cell_angle_beta 90.000000
_cell_angle_gamma 90.000000
_cell_volume 1857.744062
_symmetry_space_group_name_H-M "P C C N"
_symmetry_group_IT_number 56
_symmetry_cell_setting 'orthorhombic'
loop_
_space_group_symop_operation_xyz
x,y,z
1/2-x,1/2-y,z
1/2+x,-y,1/2-z
-x,1/2+y,1/2-z
-x,-y,-z
1/2+x,1/2+y,-z
1/2-x,y,1/2+z
x,1/2-y,1/2+z
loop_
_atom_site_type_symbol
_atom_site_label
_atom_site_fract_x
_atom_site_fract_y
_atom_site_fract_z
Si Si1 0.711279 0.437140 0.507468
Si Si2 0.951697 0.696823 0.606245
Si Si3 0.171424 0.677380 0.731927
Si Si4 0.838797 0.684971 0.308815
Si Si5 0.176074 0.048434 0.753322
O O1 0.648882 0.380086 0.623683
O O2 0.772328 0.378682 0.392419
O O3 0.793074 0.487736 0.610265
O O4 0.648771 0.498844 0.398101
O O5 0.927924 0.681509 0.432490
O O6 0.885610 0.776003 0.658880
O O7 0.905903 0.616765 0.693951
O O8 0.068080 0.710208 0.655399
O O9 0.250000 0.750000 0.777303
O O10 0.750000 0.750000 0.860026
O O11 0.781262 0.598934 0.283504
#
# Coordination Sequence:
#
# PCOD9431197 Si02
#       5
#     8   8   8   8   8
#     4  10  23  43  65  88 130 172 200 280 312 362
#     4  11  24  38  69  97 124 176 207 258 321 381
#     4  11  26  45  64  88 130 172 225 255 307 382
#     4  10  21  39  66  99 130 158 206 267 325 377
#     4  10  20  43  66  96 130 153 213 265 330 372
#
# _framework density 21.531490999999999
#
# number of rings (size 3 to 8) (size 9 to 14) (size 15 to 20)
#    0.000    1.600    2.000    2.400    8.400    1.600 
#    0.000    0.000    0.000    0.000    0.000    0.000 
#    0.000    0.000    0.000    0.000    0.000    0.000 
#
# Total GULP energy -223579.109655 kJ/mol
# GULP energy per Si atom -5589.477741 kJ/mol
# Density = 2.148248 g / cm^3
# Si number density = 21.531491 Si / 1000 Ang^3
#
#
#
# Elastic Constant Matrix: (Units=GPa)
#
#
# Indices 1 2 3 4 5 6 
#
# 1 14.7771 -10.0278 -24.9270 0.0000 0.0000 0.0000
# 2 -10.0278 69.0427 15.7041 0.0000 0.0000 0.0000
# 3 -24.9270 15.7041 82.4823 0.0000 0.0000 0.0000
# 4 0.0000 0.0000 0.0000 29.4002 0.0000 0.0000
# 5 0.0000 0.0000 0.0000 0.0000 5.7171 0.0000
# 6 0.0000 0.0000 0.0000 0.0000 0.0000 -1.1378
#
#
#
# Elastic Compliance Matrix: (Units=1/GPa)
#
#
# Indices 1 2 3 4 5 6 
#
# 1 0.146595 0.011722 0.042071 0.000000 0.000000 0.000000
# 2 0.011722 0.016077 0.000482 0.000000 0.000000 0.000000
# 3 0.042071 0.000482 0.024746 0.000000 0.000000 0.000000
# 4 0.000000 0.000000 0.000000 0.034013 0.000000 0.000000
# 5 0.000000 0.000000 0.000000 0.000000 0.174914 0.000000
# 6 0.000000 0.000000 0.000000 0.000000 0.000000 -0.878897
#
#
# Mechanical properties :
#
#
# Convention : Reuss Voigt Hill
#
# Bulk Modulus (GPa) = 3.37876 14.20008 8.78942
# Shear Modulus (GPa) = -10.15342 19.16607 4.50633
#
# Velocity S-wave (km/s) = -2.17390 2.98676 1.44826
# Velocity P-wave (km/s) = 2.17451 4.30159 2.62442
#
# Compressibility (1/GPa) = 0.29596669
#
# Stress axis : x y z
#
# Youngs Moduli (GPa) = 6.82153 62.20155 40.41018
#
# Poissons Ratio (x) = -0.72914 -1.70008
# Poissons Ratio (y) = -0.07996 -0.01946
# Poissons Ratio (z) = -0.28699 -0.02996
#
# Static dielectric constant tensor:
#      x y z
#    x 1.749050 0.000000 0.000000 
#    y 0.000000 1.791420 0.000000 
#    z 0.000000 0.000000 1.767770 
# 
# From -- ./inp_files/2562.got.cif
#   From: 2010.05.17/outbox.cif.g08.bks.cpg/sg56_2_cif.got.tgz:2562.got - 2010.06.03 13:42:01.
