data_PCOD9431416
_publ_section_title
;
Structure prediction by ZEFSAII (Michael W. Deem and Ramdas Pophale) SiO2 
 PCOD9431416
Probable space group: P C C N
;
_chemical_formula_sum "Si O2"
_cell_formula_units_Z 56
_cell_length_a 10.182743
_cell_length_b 20.308449
_cell_length_c 9.847834
_cell_angle_alpha 90.000000
_cell_angle_beta 90.000000
_cell_angle_gamma 90.000000
_cell_volume 2036.489892
_symmetry_space_group_name_H-M "P C C N"
_symmetry_group_IT_number 56
_symmetry_cell_setting 'orthorhombic'
loop_
_space_group_symop_operation_xyz
x,y,z
1/2-x,1/2-y,z
1/2+x,-y,1/2-z
-x,1/2+y,1/2-z
-x,-y,-z
1/2+x,1/2+y,-z
1/2-x,y,1/2+z
x,1/2-y,1/2+z
loop_
_atom_site_type_symbol
_atom_site_label
_atom_site_fract_x
_atom_site_fract_y
_atom_site_fract_z
Si Si1 0.174917 0.577535 0.425980
Si Si2 0.827169 0.566722 0.595097
Si Si3 0.644685 0.790524 0.576579
Si Si4 0.945283 0.915159 0.716076
Si Si5 0.049033 0.939726 0.300626
Si Si6 0.647826 0.290460 0.913823
Si Si7 0.005021 0.318093 0.022774
O O1 0.190291 0.502533 0.481782
O O2 0.295896 0.576558 0.316983
O O3 0.188327 0.638662 0.527930
O O4 0.036057 0.586945 0.349385
O O5 0.817878 0.637525 0.525613
O O6 0.713421 0.576057 0.711091
O O7 0.971878 0.561211 0.659053
O O8 0.750000 0.750000 0.663437
O O9 0.500043 0.797184 0.644104
O O10 0.882902 0.764051 0.461979
O O11 0.983639 0.852638 0.625756
O O12 0.981595 0.986188 0.650024
O O13 0.987006 0.881233 0.385649
O O14 0.750000 0.250000 0.822196
O O15 0.618979 0.231253 0.023376
#
# Coordination Sequence:
#
# PCOD9431416 Si02
#       7
#     8   8   8   8   8   8   8
#     4  10  21  40  60  86 119 153 196 241 288 349
#     4  10  21  40  60  86 119 153 196 241 288 349
#     4  10  21  39  57  86 118 152 193 238 295 344
#     4  10  21  39  62  86 118 156 197 240 290 347
#     4  10  21  39  62  86 118 156 197 240 290 347
#     4  10  21  39  57  86 118 152 193 238 295 344
#     4  10  21  38  61  82 120 152 198 234 293 350
#
# _framework density 27.498297000000001
#
# number of rings (size 3 to 8) (size 9 to 14) (size 15 to 20)
#    0.857    1.143    2.857    0.429    0.000    4.000 
#    0.000    0.000    0.000    0.000    0.000    0.000 
#    0.000    0.000    0.000    0.000    0.000    0.000 
#
# Total GULP energy -312070.098630 kJ/mol
# GULP energy per Si atom -5572.680333 kJ/mol
# Density = 2.743571 g / cm^3
# Si number density = 27.498297 Si / 1000 Ang^3
#
#
#
# Elastic Constant Matrix: (Units=GPa)
#
#
# Indices 1 2 3 4 5 6 
#
# 1 144.7455 77.9735 19.6816 0.0000 0.0000 0.0000
# 2 77.9735 283.0259 47.7144 0.0000 0.0000 0.0000
# 3 19.6816 47.7144 54.9345 0.0000 0.0000 0.0000
# 4 0.0000 0.0000 0.0000 20.3038 0.0000 0.0000
# 5 0.0000 0.0000 0.0000 0.0000 26.1650 0.0000
# 6 0.0000 0.0000 0.0000 0.0000 0.0000 56.2319
#
#
#
# Elastic Compliance Matrix: (Units=1/GPa)
#
#
# Indices 1 2 3 4 5 6 
#
# 1 0.008173 -0.002060 -0.001139 0.000000 0.000000 0.000000
# 2 -0.002060 0.004658 -0.003308 0.000000 0.000000 0.000000
# 3 -0.001139 -0.003308 0.021485 0.000000 0.000000 0.000000
# 4 0.000000 0.000000 0.000000 0.049252 0.000000 0.000000
# 5 0.000000 0.000000 0.000000 0.000000 0.038219 0.000000
# 6 0.000000 0.000000 0.000000 0.000000 0.000000 0.017784
#
#
# Mechanical properties :
#
#
# Convention : Reuss Voigt Hill
#
# Bulk Modulus (GPa) = 46.94322 85.93829 66.44075
# Shear Modulus (GPa) = 31.31142 43.02921 37.17032
#
# Velocity S-wave (km/s) = 3.37808 3.96004 3.68058
# Velocity P-wave (km/s) = 5.68538 7.22698 6.50203
#
# Compressibility (1/GPa) = 0.02130233
#
# Stress axis : x y z
#
# Youngs Moduli (GPa) = 122.35276 214.66640 46.54387
#
# Poissons Ratio (x) = 0.44213 0.05303
# Poissons Ratio (y) = 0.25200 0.15398
# Poissons Ratio (z) = 0.13939 0.71017
#
# Static dielectric constant tensor:
#      x y z
#    x 2.601080 0.000000 0.000000 
#    y 0.000000 2.075310 0.000000 
#    z 0.000000 0.000000 2.195190 
# 
# From -- ./inp_files/10857.got.cif
#   From: 2010.05.17/outbox.cif.g08.bks.cpg/sg56_6_cif.got.tgz:10857.got - 2010.06.03 13:42:01.
