data_PCOD9431576
_publ_section_title
;
Structure prediction by ZEFSAII (Michael W. Deem and Ramdas Pophale) SiO2 
 PCOD9431576
Probable space group: P C C N
;
_chemical_formula_sum "Si O2"
_cell_formula_units_Z 56
_cell_length_a 5.547395
_cell_length_b 31.431048
_cell_length_c 13.793407
_cell_angle_alpha 90.000000
_cell_angle_beta 90.000000
_cell_angle_gamma 90.000000
_cell_volume 2405.024493
_symmetry_space_group_name_H-M "P C C N"
_symmetry_group_IT_number 56
_symmetry_cell_setting 'orthorhombic'
loop_
_space_group_symop_operation_xyz
x,y,z
1/2-x,1/2-y,z
1/2+x,-y,1/2-z
-x,1/2+y,1/2-z
-x,-y,-z
1/2+x,1/2+y,-z
1/2-x,y,1/2+z
x,1/2-y,1/2+z
loop_
_atom_site_type_symbol
_atom_site_label
_atom_site_fract_x
_atom_site_fract_y
_atom_site_fract_z
Si Si1 0.610152 0.705883 0.107692
Si Si2 0.114569 0.911089 0.634633
Si Si3 0.716877 0.594038 0.829053
Si Si4 0.365255 0.654047 0.250826
Si Si5 0.224787 0.798907 0.916479
Si Si6 0.702042 0.499960 0.809351
Si Si7 0.640444 0.859112 0.993918
O O1 0.750000 0.750000 0.106107
O O2 0.493758 0.696238 0.210886
O O3 0.436669 0.703868 0.013341
O O4 0.775806 0.664954 0.089865
O O5 0.279790 0.870398 0.655426
O O6 0.942258 0.909347 0.730936
O O7 0.994538 0.900709 0.532781
O O8 0.248821 0.956024 0.635115
O O9 0.729868 0.545070 0.862343
O O10 0.654957 0.622529 0.923106
O O11 0.967350 0.617641 0.799856
O O12 0.161641 0.672859 0.321802
O O13 0.250000 0.750000 0.887033
O O14 0.474673 0.822767 0.944768
O O15 0.429878 0.498040 0.766311
#
# Coordination Sequence:
#
# PCOD9431576 Si02
#       7
#     8   8   8   8   8   8   8
#     4  12  24  43  67  93 131 170 223 276 337 400
#     4  11  21  40  68  90 131 169 217 274 334 402
#     4  10  22  41  62  94 131 168 224 265 337 401
#     4  11  23  41  65  93 125 174 219 267 336 403
#     4  11  24  42  62  90 129 166 216 277 328 394
#     4  10  21  39  68  98 136 180 224 283 343 410
#     4  11  23  40  64  93 125 174 214 271 332 399
#
# _framework density 23.284587999999999
#
# number of rings (size 3 to 8) (size 9 to 14) (size 15 to 20)
#    0.000    1.143    5.714    0.857    0.000    2.286 
#    5.143    0.000    0.000    5.143    0.000    0.000 
#    0.000    0.000    0.000    0.000    0.000    0.000 
#
# Total GULP energy -311969.387321 kJ/mol
# GULP energy per Si atom -5570.881916 kJ/mol
# Density = 2.323159 g / cm^3
# Si number density = 23.284588 Si / 1000 Ang^3
#
#
#
# Elastic Constant Matrix: (Units=GPa)
#
#
# Indices 1 2 3 4 5 6 
#
# 1 21.5290 13.4460 -6.5438 0.0000 0.0000 0.0000
# 2 13.4460 139.6851 37.2087 0.0000 0.0000 0.0000
# 3 -6.5438 37.2087 49.7751 0.0000 0.0000 0.0000
# 4 0.0000 0.0000 0.0000 19.6498 0.0000 0.0000
# 5 0.0000 0.0000 0.0000 0.0000 27.0241 0.0000
# 6 0.0000 0.0000 0.0000 0.0000 0.0000 27.1163
#
#
#
# Elastic Compliance Matrix: (Units=1/GPa)
#
#
# Indices 1 2 3 4 5 6 
#
# 1 0.056616 -0.009281 0.014381 0.000000 0.000000 0.000000
# 2 -0.009281 0.010460 -0.009039 0.000000 0.000000 0.000000
# 3 0.014381 -0.009039 0.028738 0.000000 0.000000 0.000000
# 4 0.000000 0.000000 0.000000 0.050891 0.000000 0.000000
# 5 0.000000 0.000000 0.000000 0.000000 0.037004 0.000000
# 6 0.000000 0.000000 0.000000 0.000000 0.000000 0.036878
#
#
# Mechanical properties :
#
#
# Convention : Reuss Voigt Hill
#
# Bulk Modulus (GPa) = 11.37186 33.24565 22.30876
# Shear Modulus (GPa) = 19.39648 25.88326 22.63987
#
# Velocity S-wave (km/s) = 2.88934 3.33769 3.12157
# Velocity P-wave (km/s) = 4.00318 5.40023 4.75332
#
# Compressibility (1/GPa) = 0.08793636
#
# Stress axis : x y z
#
# Youngs Moduli (GPa) = 17.66275 95.60049 34.79674
#
# Poissons Ratio (x) = 0.88722 -0.50040
# Poissons Ratio (y) = 0.16392 0.31454
# Poissons Ratio (z) = -0.25400 0.86418
#
# Static dielectric constant tensor:
#      x y z
#    x 2.088790 0.000000 0.000000 
#    y 0.000000 1.839080 0.000000 
#    z 0.000000 0.000000 1.952650 
# 
# From -- ./inp_files/9795.got.cif
#   From: 2010.05.17/outbox.cif.g08.bks.cpg/sg56_5_cif.got.tgz:9795.got - 2010.06.03 13:42:01.
