data_PCOD9431696
_publ_section_title
;
Structure prediction by ZEFSAII (Michael W. Deem and Ramdas Pophale) SiO2 
 PCOD9431696
Probable space group: P C C N
;
_chemical_formula_sum "Si O2"
_cell_formula_units_Z 64
_cell_length_a 5.215977
_cell_length_b 33.417022
_cell_length_c 17.296472
_cell_angle_alpha 90.000000
_cell_angle_beta 90.000000
_cell_angle_gamma 90.000000
_cell_volume 3014.816895
_symmetry_space_group_name_H-M "P C C N"
_symmetry_group_IT_number 56
_symmetry_cell_setting 'orthorhombic'
loop_
_space_group_symop_operation_xyz
x,y,z
1/2-x,1/2-y,z
1/2+x,-y,1/2-z
-x,1/2+y,1/2-z
-x,-y,-z
1/2+x,1/2+y,-z
1/2-x,y,1/2+z
x,1/2-y,1/2+z
loop_
_atom_site_type_symbol
_atom_site_label
_atom_site_fract_x
_atom_site_fract_y
_atom_site_fract_z
Si Si1 0.237998 0.086430 0.189438
Si Si2 0.481882 0.646688 0.412549
Si Si3 0.331290 0.998831 0.699816
Si Si4 0.503241 0.778334 0.168408
Si Si5 0.738882 0.345549 0.430640
Si Si6 0.238651 0.588987 0.702123
Si Si7 0.359133 0.705830 0.830748
Si Si8 0.155205 0.292864 0.509169
O O1 0.303329 0.117540 0.121597
O O2 0.212810 0.040986 0.157538
O O3 0.487014 0.089210 0.244253
O O4 0.987310 0.093503 0.242268
O O5 0.325231 0.631868 0.487847
O O6 0.319332 0.667176 0.344156
O O7 0.610861 0.684216 0.453316
O O8 0.625451 0.998544 0.729174
O O9 0.261965 0.955790 0.664748
O O10 0.250000 0.750000 0.159371
O O11 0.464420 0.813353 0.105112
O O12 0.515855 0.800488 0.252206
O O13 0.750000 0.750000 0.168813
O O14 0.776176 0.377629 0.363291
O O15 0.988554 0.318948 0.450409
O O16 0.250000 0.750000 0.815222
O O17 0.484244 0.712150 0.913954
O O18 0.250000 0.250000 0.482226
#
# Coordination Sequence:
#
# PCOD9431696 Si02
#       8
#     8   8   8   8   8   8   8   8
#     4  10  22  40  70  99 127 170 218 267 324 392
#     4  11  25  39  64  90 131 169 221 264 327 389
#     4   8  16  36  65  98 126 164 209 260 325 392
#     4  11  27  42  64  89 123 158 215 274 329 379
#     4  11  28  40  60  96 131 175 219 267 339 387
#     4  10  22  42  69  97 134 165 214 273 324 390
#     4  10  21  41  62  90 111 162 214 279 320 375
#     4  11  24  42  65  82 126 175 225 266 322 392
#
# _framework density 21.228487000000001
#
# number of rings (size 3 to 8) (size 9 to 14) (size 15 to 20)
#    0.000    1.750    1.250    1.125   12.250    0.000 
#    0.000    0.625    0.000    0.750    0.000    0.000 
#    0.000    0.000    0.000    0.000    0.000    0.000 
#
# Total GULP energy -356846.017769 kJ/mol
# GULP energy per Si atom -5575.719028 kJ/mol
# Density = 2.118017 g / cm^3
# Si number density = 21.228487 Si / 1000 Ang^3
#
#
#
# Elastic Constant Matrix: (Units=GPa)
#
#
# Indices 1 2 3 4 5 6 
#
# 1 95.3690 0.0312 28.4056 0.0000 0.0000 0.0000
# 2 0.0312 93.1293 56.4405 0.0000 0.0000 0.0000
# 3 28.4056 56.4405 83.8376 0.0000 0.0000 0.0000
# 4 0.0000 0.0000 0.0000 29.7145 0.0000 0.0000
# 5 0.0000 0.0000 0.0000 0.0000 6.8838 0.0000
# 6 0.0000 0.0000 0.0000 0.0000 0.0000 24.6247
#
#
#
# Elastic Compliance Matrix: (Units=1/GPa)
#
#
# Indices 1 2 3 4 5 6 
#
# 1 0.012637 0.004376 -0.007228 0.000000 0.000000 0.000000
# 2 0.004376 0.019653 -0.014714 0.000000 0.000000 0.000000
# 3 -0.007228 -0.014714 0.024282 0.000000 0.000000 0.000000
# 4 0.000000 0.000000 0.000000 0.033654 0.000000 0.000000
# 5 0.000000 0.000000 0.000000 0.000000 0.145268 0.000000
# 6 0.000000 0.000000 0.000000 0.000000 0.000000 0.040610
#
#
# Mechanical properties :
#
#
# Convention : Reuss Voigt Hill
#
# Bulk Modulus (GPa) = 46.63743 49.12114 47.87929
# Shear Modulus (GPa) = 15.70443 24.74185 20.22314
#
# Velocity S-wave (km/s) = 2.72284 3.41765 3.08984
# Velocity P-wave (km/s) = 5.64820 6.22601 5.94413
#
# Compressibility (1/GPa) = 0.02144201
#
# Stress axis : x y z
#
# Youngs Moduli (GPa) = 79.13341 50.88190 41.18278
#
# Poissons Ratio (x) = -0.22266 0.29765
# Poissons Ratio (y) = -0.34629 0.60594
# Poissons Ratio (z) = 0.57194 0.74865
#
# Static dielectric constant tensor:
#      x y z
#    x 1.879970 0.000000 0.000000 
#    y 0.000000 1.741310 0.000000 
#    z 0.000000 0.000000 1.839030 
# 
# From -- ./inp_files/14183.got.cif
#   From: 2010.05.17/outbox.cif.g08.bks.cpg/sg56_8_cif.got.tgz:14183.got - 2010.06.03 13:42:01.
