data_PCOD9431021
_publ_section_title
;
Structure prediction by ZEFSAII (Michael W. Deem and Ramdas Pophale) SiO2 
 PCOD9431021
Probable space group: P C C N
;
_chemical_formula_sum "Si O2"
_cell_formula_units_Z 60
_cell_length_a 28.127567
_cell_length_b 8.479590
_cell_length_c 11.729583
_cell_angle_alpha 90.000000
_cell_angle_beta 90.000000
_cell_angle_gamma 90.000000
_cell_volume 2797.625608
_symmetry_space_group_name_H-M "P C C N"
_symmetry_group_IT_number 56
_symmetry_cell_setting 'orthorhombic'
loop_
_space_group_symop_operation_xyz
x,y,z
1/2-x,1/2-y,z
1/2+x,-y,1/2-z
-x,1/2+y,1/2-z
-x,-y,-z
1/2+x,1/2+y,-z
1/2-x,y,1/2+z
x,1/2-y,1/2+z
loop_
_atom_site_type_symbol
_atom_site_label
_atom_site_fract_x
_atom_site_fract_y
_atom_site_fract_z
Si Si1 0.017547 0.680256 0.548381
Si Si2 0.144746 0.191806 0.017634
Si Si3 0.250000 0.750000 0.580458
Si Si4 0.919419 0.846509 0.183309
Si Si5 0.052235 0.149063 0.123176
Si Si6 0.663377 0.083642 0.296956
Si Si7 0.597649 0.371821 0.358771
Si Si8 0.821865 0.484663 0.032844
O O1 0.051038 0.530464 0.578319
O O2 0.046545 0.826684 0.591489
O O3 0.968888 0.639101 0.614730
O O4 0.999801 0.704204 0.418228
O O5 0.128854 0.145261 0.890561
O O6 0.181363 0.334355 0.010065
O O7 0.092336 0.249015 0.057525
O O8 0.155796 0.054650 0.108211
O O9 0.288743 0.831873 0.660573
O O10 0.276939 0.620963 0.502867
O O11 0.930709 0.682241 0.249449
O O12 0.911951 0.989864 0.269700
O O13 0.622844 0.219152 0.300773
O O14 0.669053 0.021613 0.168124
O O15 0.633491 0.415622 0.461564
#
# Coordination Sequence:
#
# PCOD9431021 Si02
#       8
#     8   8   4   8   8   8   8   8
#     4  10  22  37  62  90 138 187 236 299 336 391
#     4  11  23  43  68 100 134 186 225 279 340 423
#     4  10  26  50  74 114 132 168 226 284 366 436
#     4  11  23  39  62  97 142 184 239 287 340 408
#     4  10  20  40  55  91 135 176 237 281 335 396
#     4  11  25  47  75 102 143 172 231 286 354 435
#     4  11  24  40  68 103 133 192 239 287 358 405
#     4  11  25  46  75 101 141 178 225 288 354 429
#
# _framework density 21.446759
#
# number of rings (size 3 to 8) (size 9 to 14) (size 15 to 20)
#    0.000    1.333    2.667    2.000    3.733    2.133 
#    0.000    1.333    0.000    0.000    0.000    0.000 
#    0.000    0.000    0.000    0.000    0.000    0.000 
#
# Total GULP energy -334220.527583 kJ/mol
# GULP energy per Si atom -5570.342126 kJ/mol
# Density = 2.139794 g / cm^3
# Si number density = 21.446759 Si / 1000 Ang^3
#
#
#
# Elastic Constant Matrix: (Units=GPa)
#
#
# Indices 1 2 3 4 5 6 
#
# 1 88.1574 26.3004 14.9018 0.0000 0.0000 0.0000
# 2 26.3004 63.0006 7.0632 0.0000 0.0000 0.0000
# 3 14.9018 7.0632 62.0903 0.0000 0.0000 0.0000
# 4 0.0000 0.0000 0.0000 36.7932 0.0000 0.0000
# 5 0.0000 0.0000 0.0000 0.0000 23.8786 0.0000
# 6 0.0000 0.0000 0.0000 0.0000 0.0000 35.2344
#
#
#
# Elastic Compliance Matrix: (Units=1/GPa)
#
#
# Indices 1 2 3 4 5 6 
#
# 1 0.013361 -0.005285 -0.002605 0.000000 0.000000 0.000000
# 2 -0.005285 0.018169 -0.000798 0.000000 0.000000 0.000000
# 3 -0.002605 -0.000798 0.016822 0.000000 0.000000 0.000000
# 4 0.000000 0.000000 0.000000 0.027179 0.000000 0.000000
# 5 0.000000 0.000000 0.000000 0.000000 0.041879 0.000000
# 6 0.000000 0.000000 0.000000 0.000000 0.000000 0.028381
#
#
# Mechanical properties :
#
#
# Convention : Reuss Voigt Hill
#
# Bulk Modulus (GPa) = 32.28625 34.41991 33.35308
# Shear Modulus (GPa) = 28.81971 30.18009 29.49990
#
# Velocity S-wave (km/s) = 3.66974 3.75535 3.71279
# Velocity P-wave (km/s) = 5.74828 5.90655 5.82796
#
# Compressibility (1/GPa) = 0.03097294
#
# Stress axis : x y z
#
# Youngs Moduli (GPa) = 74.84710 55.03926 59.44713
#
# Poissons Ratio (x) = 0.29091 0.15488
# Poissons Ratio (y) = 0.39560 0.04746
# Poissons Ratio (z) = 0.19500 0.04394
#
# Static dielectric constant tensor:
#      x y z
#    x 1.774300 0.000000 0.000000 
#    y 0.000000 1.850690 0.000000 
#    z 0.000000 0.000000 1.930880 
# 
# From -- ./inp_files/9065.got.cif
#   From: 2010.05.17/outbox.cif.g08.bks.cpg/sg56_5_cif.got.tgz:9065.got - 2010.06.03 13:42:01.
