data_PCOD9431425
_publ_section_title
;
Structure prediction by ZEFSAII (Michael W. Deem and Ramdas Pophale) SiO2 
 PCOD9431425
Probable space group: P C C N
;
_chemical_formula_sum "Si O2"
_cell_formula_units_Z 36
_cell_length_a 6.181567
_cell_length_b 19.526738
_cell_length_c 12.292311
_cell_angle_alpha 90.000000
_cell_angle_beta 90.000000
_cell_angle_gamma 90.000000
_cell_volume 1483.753715
_symmetry_space_group_name_H-M "P C C N"
_symmetry_group_IT_number 56
_symmetry_cell_setting 'orthorhombic'
loop_
_space_group_symop_operation_xyz
x,y,z
1/2-x,1/2-y,z
1/2+x,-y,1/2-z
-x,1/2+y,1/2-z
-x,-y,-z
1/2+x,1/2+y,-z
1/2-x,y,1/2+z
x,1/2-y,1/2+z
loop_
_atom_site_type_symbol
_atom_site_label
_atom_site_fract_x
_atom_site_fract_y
_atom_site_fract_z
Si Si1 0.750000 0.750000 0.077527
Si Si2 0.191572 0.915662 0.846516
Si Si3 0.036302 0.626285 0.038998
Si Si4 0.092355 0.832823 0.194806
Si Si5 0.288258 0.061503 0.758289
O O1 0.637632 0.813011 0.012416
O O2 0.940493 0.771818 0.159816
O O3 0.242413 0.841036 0.794506
O O4 0.929897 0.921599 0.849615
O O5 0.234483 0.981971 0.770422
O O6 0.361148 0.919778 0.944353
O O7 0.257806 0.655754 0.090403
O O8 0.924296 0.584125 0.135339
O O9 0.924129 0.892659 0.227347
#
# Coordination Sequence:
#
# PCOD9431425 Si02
#       5
#     4   8   8   8   8
#     4  10  22  44  62  90 128 172 220 268 324 392
#     4  11  21  39  63  95 127 167 211 266 332 398
#     4  10  23  39  65  91 127 170 217 269 325 388
#     4  10  22  41  62  89 130 168 213 273 322 395
#     4  10  21  38  61  95 131 164 209 264 330 396
#
# _framework density 24.262789000000001
#
# number of rings (size 3 to 8) (size 9 to 14) (size 15 to 20)
#    0.000    1.778    2.222    1.333    0.000    5.333 
#    0.000   11.111    0.000    0.000    0.000    0.000 
#    0.000    0.000    0.000    0.000    0.000    0.000 
#
# Total GULP energy -200433.651205 kJ/mol
# GULP energy per Si atom -5567.601422 kJ/mol
# Density = 2.420757 g / cm^3
# Si number density = 24.262789 Si / 1000 Ang^3
#
#
#
# Elastic Constant Matrix: (Units=GPa)
#
#
# Indices 1 2 3 4 5 6 
#
# 1 114.5619 44.3637 10.6759 0.0000 0.0000 0.0000
# 2 44.3637 68.9043 -0.9458 0.0000 0.0000 0.0000
# 3 10.6759 -0.9458 20.8666 0.0000 0.0000 0.0000
# 4 0.0000 0.0000 0.0000 21.4880 0.0000 0.0000
# 5 0.0000 0.0000 0.0000 0.0000 31.8170 0.0000
# 6 0.0000 0.0000 0.0000 0.0000 0.0000 57.0241
#
#
#
# Elastic Compliance Matrix: (Units=1/GPa)
#
#
# Indices 1 2 3 4 5 6 
#
# 1 0.012517 -0.008152 -0.006774 0.000000 0.000000 0.000000
# 2 -0.008152 0.019831 0.005070 0.000000 0.000000 0.000000
# 3 -0.006774 0.005070 0.051619 0.000000 0.000000 0.000000
# 4 0.000000 0.000000 0.000000 0.046537 0.000000 0.000000
# 5 0.000000 0.000000 0.000000 0.000000 0.031430 0.000000
# 6 0.000000 0.000000 0.000000 0.000000 0.000000 0.017536
#
#
# Mechanical properties :
#
#
# Convention : Reuss Voigt Hill
#
# Bulk Modulus (GPa) = 15.56295 34.72448 25.14371
# Shear Modulus (GPa) = 22.66540 32.08175 27.37358
#
# Velocity S-wave (km/s) = 3.05972 3.64024 3.36253
# Velocity P-wave (km/s) = 4.34865 5.65785 5.04590
#
# Compressibility (1/GPa) = 0.06425518
#
# Stress axis : x y z
#
# Youngs Moduli (GPa) = 79.89171 50.42590 19.37278
#
# Poissons Ratio (x) = 0.41107 0.13122
# Poissons Ratio (y) = 0.65127 -0.09821
# Poissons Ratio (z) = 0.54115 -0.25564
#
# Static dielectric constant tensor:
#      x y z
#    x 2.056280 0.000000 0.000000 
#    y 0.000000 1.963180 0.000000 
#    z 0.000000 0.000000 2.002720 
# 
# From -- ./inp_files/5529.got.cif
#   From: 2010.05.17/outbox.cif.g08.bks.cpg/sg56_3_cif.got.tgz:5529.got - 2010.06.03 13:42:01.
