data_PCOD9431428
_publ_section_title
;
Structure prediction by ZEFSAII (Michael W. Deem and Ramdas Pophale) SiO2 
 PCOD9431428
Probable space group: P C C N
;
_chemical_formula_sum "Si O2"
_cell_formula_units_Z 40
_cell_length_a 6.837894
_cell_length_b 15.171681
_cell_length_c 15.933331
_cell_angle_alpha 90.000000
_cell_angle_beta 90.000000
_cell_angle_gamma 90.000000
_cell_volume 1652.961145
_symmetry_space_group_name_H-M "P C C N"
_symmetry_group_IT_number 56
_symmetry_cell_setting 'orthorhombic'
loop_
_space_group_symop_operation_xyz
x,y,z
1/2-x,1/2-y,z
1/2+x,-y,1/2-z
-x,1/2+y,1/2-z
-x,-y,-z
1/2+x,1/2+y,-z
1/2-x,y,1/2+z
x,1/2-y,1/2+z
loop_
_atom_site_type_symbol
_atom_site_label
_atom_site_fract_x
_atom_site_fract_y
_atom_site_fract_z
Si Si1 0.750000 0.250000 0.895080
Si Si2 0.860292 0.657281 0.420324
Si Si3 0.068982 0.065102 0.250000
Si Si4 0.139708 0.157281 0.420324
Si Si5 0.631368 0.133864 0.250000
Si Si6 0.250000 0.750000 0.895080
O O1 0.589689 0.183782 0.936703
O O2 0.887899 0.191952 0.833110
O O3 0.750000 0.750000 0.408869
O O4 0.840137 0.599052 0.336985
O O5 0.750000 0.885162 0.500000
O O6 0.089689 0.683782 0.436703
O O7 0.159863 0.099052 0.336985
O O8 0.859958 0.111076 0.250000
O O9 0.034830 0.960940 0.250000
O O10 0.250000 0.250000 0.408869
O O11 0.612101 0.191952 0.166890
#
# Coordination Sequence:
#
# PCOD9431428 Si02
#       6
#     4   8   8   8   8   4
#     4   9  20  41  60  95 127 170 218 262 326 381
#     4  10  22  39  66  93 128 170 212 269 319 387
#     4  10  21  38  62 102 123 166 216 266 329 378
#     4  10  22  39  66  93 128 170 212 269 319 387
#     4   9  20  36  67  94 127 165 214 277 320 380
#     4   9  20  41  60  95 127 170 218 262 326 381
#
# _framework density 24.198996999999999
#
# number of rings (size 3 to 8) (size 9 to 14) (size 15 to 20)
#    0.000    2.400    0.000    1.800    5.600    3.200 
#    0.000    8.000    0.000    3.600    0.000    0.000 
#    0.000    0.000    0.000    0.000    0.000    0.000 
#
# Total GULP energy -223338.750673 kJ/mol
# GULP energy per Si atom -5583.468767 kJ/mol
# Density = 2.414392 g / cm^3
# Si number density = 24.198997 Si / 1000 Ang^3
#
#
#
# Elastic Constant Matrix: (Units=GPa)
#
#
# Indices 1 2 3 4 5 6 
#
# 1 135.6859 8.5712 69.5588 0.0000 0.0000 0.0000
# 2 8.5712 84.7763 43.3751 0.0000 0.0000 0.0000
# 3 69.5588 43.3751 178.7390 0.0000 0.0000 0.0000
# 4 0.0000 0.0000 0.0000 -82.8687 0.0000 0.0000
# 5 0.0000 0.0000 0.0000 0.0000 -139.0485 0.0000
# 6 0.0000 0.0000 0.0000 0.0000 0.0000 20.4276
#
#
#
# Elastic Compliance Matrix: (Units=1/GPa)
#
#
# Indices 1 2 3 4 5 6 
#
# 1 0.009286 0.001039 -0.003866 0.000000 0.000000 0.000000
# 2 0.001039 0.013584 -0.003701 0.000000 0.000000 0.000000
# 3 -0.003866 -0.003701 0.007997 0.000000 0.000000 0.000000
# 4 0.000000 0.000000 0.000000 -0.012067 0.000000 0.000000
# 5 0.000000 0.000000 0.000000 0.000000 -0.007192 0.000000
# 6 0.000000 0.000000 0.000000 0.000000 0.000000 0.048953
#
#
# Mechanical properties :
#
#
# Convention : Reuss Voigt Hill
#
# Bulk Modulus (GPa) = 56.14122 71.35681 63.74901
# Shear Modulus (GPa) = 62.84952 -21.78483 20.53234
#
# Velocity S-wave (km/s) = 5.10180 -3.00365 2.91603
# Velocity P-wave (km/s) = 7.61279 4.18596 6.14316
#
# Compressibility (1/GPa) = 0.01781222
#
# Stress axis : x y z
#
# Youngs Moduli (GPa) = 107.68634 73.61480 125.04083
#
# Poissons Ratio (x) = -0.07650 0.48341
# Poissons Ratio (y) = -0.11190 0.46277
# Poissons Ratio (z) = 0.41632 0.27244
#
# Static dielectric constant tensor:
#      x y z
#    x 2.012800 0.000000 0.000000 
#    y 0.000000 1.611510 0.000000 
#    z 0.000000 0.000000 2.302510 
# 
# From -- ./inp_files/14656.got.cif
#   From: 2010.05.17/outbox.cif.g08.bks.cpg/sg56_8_cif.got.tgz:14656.got - 2010.06.03 13:42:01.
