data_PCOD9431389
_publ_section_title
;
Structure prediction by ZEFSAII (Michael W. Deem and Ramdas Pophale) SiO2 
 PCOD9431389
Probable space group: P C C N
;
_chemical_formula_sum "Si O2"
_cell_formula_units_Z 32
_cell_length_a 9.590901
_cell_length_b 15.034074
_cell_length_c 9.156337
_cell_angle_alpha 90.000000
_cell_angle_beta 90.000000
_cell_angle_gamma 90.000000
_cell_volume 1320.255120
_symmetry_space_group_name_H-M "P C C N"
_symmetry_group_IT_number 56
_symmetry_cell_setting 'orthorhombic'
loop_
_space_group_symop_operation_xyz
x,y,z
1/2-x,1/2-y,z
1/2+x,-y,1/2-z
-x,1/2+y,1/2-z
-x,-y,-z
1/2+x,1/2+y,-z
1/2-x,y,1/2+z
x,1/2-y,1/2+z
loop_
_atom_site_type_symbol
_atom_site_label
_atom_site_fract_x
_atom_site_fract_y
_atom_site_fract_z
Si Si1 0.611484 0.091375 0.812449
Si Si2 0.658753 0.835735 0.054797
Si Si3 0.116084 0.104291 0.761720
Si Si4 0.597021 0.089443 0.480451
O O1 0.497821 0.150978 0.892728
O O2 0.621774 0.123394 0.644258
O O3 0.756545 0.083276 0.898034
O O4 0.559777 0.989058 0.801250
O O5 0.750000 0.750000 0.097682
O O6 0.748119 0.912354 0.137522
O O7 0.659707 0.842500 0.880938
O O8 0.000811 0.144415 0.869700
O O9 0.500000 0.000000 0.500000
#
# Coordination Sequence:
#
# PCOD9431389 Si02
#       4
#     8   8   8   8
#     4  11  21  40  67 102 141 188 243 299 358 436
#     4  12  25  41  65 101 146 192 239 305 374 437
#     4  11  21  40  66  98 140 190 245 295 363 445
#     4  10  21  37  66 105 141 182 240 301 354 420
#
# _framework density 24.237741
#
# number of rings (size 3 to 8) (size 9 to 14) (size 15 to 20)
#    0.000    1.000    0.000   10.500    0.000    0.000 
#    0.000    2.500    0.000    6.000    0.000    0.000 
#    0.000    0.000    0.000    0.000    0.000    0.000 
#
# Total GULP energy -178809.051542 kJ/mol
# GULP energy per Si atom -5587.782861 kJ/mol
# Density = 2.418257 g / cm^3
# Si number density = 24.237741 Si / 1000 Ang^3
#
#
#
# Elastic Constant Matrix: (Units=GPa)
#
#
# Indices 1 2 3 4 5 6 
#
# 1 202.4078 43.1045 100.5181 0.0000 0.0000 0.0000
# 2 43.1045 73.3829 19.8989 0.0000 0.0000 0.0000
# 3 100.5181 19.8989 237.7942 0.0000 0.0000 0.0000
# 4 0.0000 0.0000 0.0000 9.7796 0.0000 0.0000
# 5 0.0000 0.0000 0.0000 0.0000 62.5351 0.0000
# 6 0.0000 0.0000 0.0000 0.0000 0.0000 30.1173
#
#
#
# Elastic Compliance Matrix: (Units=1/GPa)
#
#
# Indices 1 2 3 4 5 6 
#
# 1 0.006986 -0.003380 -0.002670 0.000000 0.000000 0.000000
# 2 -0.003380 0.015578 0.000125 0.000000 0.000000 0.000000
# 3 -0.002670 0.000125 0.005324 0.000000 0.000000 0.000000
# 4 0.000000 0.000000 0.000000 0.102254 0.000000 0.000000
# 5 0.000000 0.000000 0.000000 0.000000 0.015991 0.000000
# 6 0.000000 0.000000 0.000000 0.000000 0.000000 0.033204
#
#
# Mechanical properties :
#
#
# Convention : Reuss Voigt Hill
#
# Bulk Modulus (GPa) = 62.35042 93.40310 77.87676
# Shear Modulus (GPa) = 25.44097 43.82394 34.63246
#
# Velocity S-wave (km/s) = 3.24333 4.25677 3.78413
# Velocity P-wave (km/s) = 6.30920 7.92339 7.16191
#
# Compressibility (1/GPa) = 0.01603838
#
# Stress axis : x y z
#
# Youngs Moduli (GPa) = 143.13516 64.19129 187.84029
#
# Poissons Ratio (x) = 0.21694 0.50161
# Poissons Ratio (y) = 0.48374 -0.02348
# Poissons Ratio (z) = 0.38223 -0.00802
#
# Static dielectric constant tensor:
#      x y z
#    x 1.950800 0.000000 0.000000 
#    y 0.000000 1.303460 0.000000 
#    z 0.000000 0.000000 1.926810 
# 
# From -- ./inp_files/1933.got.cif
#   From: 2010.05.17/outbox.cif.g08.bks.cpg/sg56_1_cif.got.tgz:1933.got - 2010.06.03 13:42:01.
