data_PCOD9431982
_publ_section_title
;
Structure prediction by ZEFSAII (Michael W. Deem and Ramdas Pophale) SiO2 
 PCOD9431982
Probable space group: P C C N
;
_chemical_formula_sum "Si O2"
_cell_formula_units_Z 60
_cell_length_a 7.888587
_cell_length_b 25.701775
_cell_length_c 14.064550
_cell_angle_alpha 90.000000
_cell_angle_beta 90.000000
_cell_angle_gamma 90.000000
_cell_volume 2851.597191
_symmetry_space_group_name_H-M "P C C N"
_symmetry_group_IT_number 56
_symmetry_cell_setting 'orthorhombic'
loop_
_space_group_symop_operation_xyz
x,y,z
1/2-x,1/2-y,z
1/2+x,-y,1/2-z
-x,1/2+y,1/2-z
-x,-y,-z
1/2+x,1/2+y,-z
1/2-x,y,1/2+z
x,1/2-y,1/2+z
loop_
_atom_site_type_symbol
_atom_site_label
_atom_site_fract_x
_atom_site_fract_y
_atom_site_fract_z
Si Si1 0.199484 0.489480 0.021729
Si Si2 0.192883 0.154324 0.771716
Si Si3 0.250000 0.750000 0.386385
Si Si4 0.202650 0.545110 0.353323
Si Si5 0.087417 0.038543 0.716601
Si Si6 0.306808 0.128822 0.487832
Si Si7 0.039505 0.846709 0.830582
Si Si8 0.596638 0.791161 0.911036
O O1 0.298777 0.534794 0.966538
O O2 0.264299 0.432770 0.985696
O O3 0.205011 0.486575 0.134821
O O4 0.000000 0.500000 0.000000
O O5 0.151158 0.096239 0.736494
O O6 0.158853 0.152811 0.883926
O O7 0.389971 0.163226 0.744735
O O8 0.094611 0.193795 0.701402
O O9 0.329074 0.799368 0.331564
O O10 0.415343 0.730070 0.441519
O O11 0.396796 0.540935 0.320753
O O12 0.102262 0.497872 0.306868
O O13 0.131047 0.598831 0.315572
O O14 0.448660 0.144307 0.566124
O O15 0.142027 0.157405 0.530933
O O16 0.750000 0.750000 0.924870
#
# Coordination Sequence:
#
# PCOD9431982 Si02
#       8
#     8   8   4   8   8   8   8   8
#     4  10  22  38  62  97 135 179 218 270 336 408
#     4  11  22  44  69 100 135 178 221 281 349 411
#     4  12  24  50  72 100 132 180 232 282 352 404
#     4  11  24  39  66 100 134 181 224 280 337 419
#     4  11  21  40  64  95 137 178 224 275 345 408
#     4  11  23  44  70  97 137 181 227 279 351 410
#     4  11  25  44  69  99 138 179 228 288 343 408
#     4  11  23  47  73  96 134 181 223 290 343 400
#
# _framework density 21.040839999999999
#
# number of rings (size 3 to 8) (size 9 to 14) (size 15 to 20)
#    0.000    1.067    6.667    1.600    3.733    2.133 
#    0.000    4.000    0.000    0.000    0.000    0.000 
#    0.000    0.000    0.000    0.000    0.000    0.000 
#
# Total GULP energy -334937.128462 kJ/mol
# GULP energy per Si atom -5582.285474 kJ/mol
# Density = 2.099295 g / cm^3
# Si number density = 21.040840 Si / 1000 Ang^3
#
#
#
# Elastic Constant Matrix: (Units=GPa)
#
#
# Indices 1 2 3 4 5 6 
#
# 1 93.2871 28.0793 3.6353 0.0000 0.0000 0.0000
# 2 28.0793 80.4045 -25.2617 0.0000 0.0000 0.0000
# 3 3.6353 -25.2617 76.3543 0.0000 0.0000 0.0000
# 4 0.0000 0.0000 0.0000 3.1652 0.0000 0.0000
# 5 0.0000 0.0000 0.0000 0.0000 16.6612 0.0000
# 6 0.0000 0.0000 0.0000 0.0000 0.0000 46.5118
#
#
#
# Elastic Compliance Matrix: (Units=1/GPa)
#
#
# Indices 1 2 3 4 5 6 
#
# 1 0.012313 -0.005005 -0.002242 0.000000 0.000000 0.000000
# 2 -0.005005 0.015914 0.005503 0.000000 0.000000 0.000000
# 3 -0.002242 0.005503 0.015024 0.000000 0.000000 0.000000
# 4 0.000000 0.000000 0.000000 0.315938 0.000000 0.000000
# 5 0.000000 0.000000 0.000000 0.000000 0.060020 0.000000
# 6 0.000000 0.000000 0.000000 0.000000 0.000000 0.021500
#
#
# Mechanical properties :
#
#
# Convention : Reuss Voigt Hill
#
# Bulk Modulus (GPa) = 25.14759 29.21687 27.18223
# Shear Modulus (GPa) = 10.93013 29.50716 20.21865
#
# Velocity S-wave (km/s) = 2.28167 3.74889 3.10324
# Velocity P-wave (km/s) = 4.34961 5.71444 5.07809
#
# Compressibility (1/GPa) = 0.03976524
#
# Stress axis : x y z
#
# Youngs Moduli (GPa) = 81.21289 62.83821 66.55859
#
# Poissons Ratio (x) = 0.31448 0.14922
# Poissons Ratio (y) = 0.40643 -0.36630
# Poissons Ratio (z) = 0.18208 -0.34582
#
# Static dielectric constant tensor:
#      x y z
#    x 1.794310 0.000000 0.000000 
#    y 0.000000 1.772920 0.000000 
#    z 0.000000 0.000000 1.775320 
# 
# From -- ./inp_files/10991.got.cif
#   From: 2010.05.17/outbox.cif.g08.bks.cpg/sg56_6_cif.got.tgz:10991.got - 2010.06.03 13:42:01.
