data_PCOD9431620
_publ_section_title
;
Structure prediction by ZEFSAII (Michael W. Deem and Ramdas Pophale) SiO2 
 PCOD9431620
Probable space group: P C C N
;
_chemical_formula_sum "Si O2"
_cell_formula_units_Z 64
_cell_length_a 17.463720
_cell_length_b 11.477447
_cell_length_c 14.219902
_cell_angle_alpha 90.000000
_cell_angle_beta 90.000000
_cell_angle_gamma 90.000000
_cell_volume 2850.221810
_symmetry_space_group_name_H-M "P C C N"
_symmetry_group_IT_number 56
_symmetry_cell_setting 'orthorhombic'
loop_
_space_group_symop_operation_xyz
x,y,z
1/2-x,1/2-y,z
1/2+x,-y,1/2-z
-x,1/2+y,1/2-z
-x,-y,-z
1/2+x,1/2+y,-z
1/2-x,y,1/2+z
x,1/2-y,1/2+z
loop_
_atom_site_type_symbol
_atom_site_label
_atom_site_fract_x
_atom_site_fract_y
_atom_site_fract_z
Si Si1 0.905178 0.139136 0.702427
Si Si2 0.872408 0.515329 0.034443
Si Si3 0.790946 0.958607 0.990483
Si Si4 0.722404 0.365824 0.833481
Si Si5 0.162338 0.883237 0.840757
Si Si6 0.984276 0.452687 0.739001
Si Si7 0.459478 0.384545 0.038398
Si Si8 0.476180 0.661398 0.564275
O O1 0.866069 0.040800 0.637621
O O2 0.864885 0.149985 0.802685
O O3 0.884901 0.261701 0.653765
O O4 0.985586 0.075917 0.720436
O O5 0.794104 0.584501 0.016508
O O6 0.898679 0.405329 0.969097
O O7 0.947675 0.593457 0.029247
O O8 0.775206 0.016952 0.890249
O O9 0.868839 0.884273 0.987190
O O10 0.807131 0.066201 0.062332
O O11 0.750000 0.250000 0.886497
O O12 0.773222 0.369653 0.738781
O O13 0.100058 0.972504 0.800883
O O14 0.032468 0.398781 0.651954
O O15 0.979827 0.358286 0.823367
O O16 0.500000 0.500000 0.000000
O O17 0.507793 0.283879 0.985733
#
# Coordination Sequence:
#
# PCOD9431620 Si02
#       8
#     8   8   8   8   8   8   8   8
#     4  10  21  40  63  93 136 173 226 282 343 405
#     4  10  22  44  71  94 135 179 235 286 333 415
#     4  12  24  38  68 102 139 176 228 288 350 407
#     4  10  22  36  59  96 135 173 216 279 345 400
#     4  11  23  38  63 100 133 176 228 284 345 413
#     4  11  23  43  68  95 136 183 226 285 343 425
#     4  12  26  44  67 106 142 179 227 290 355 412
#     4  10  25  47  69  99 133 187 233 278 350 418
#
# _framework density 22.454393
#
# number of rings (size 3 to 8) (size 9 to 14) (size 15 to 20)
#    0.000    1.250    3.750    1.500    3.500    0.500 
#    0.000    0.000    0.000    1.500    0.000    0.000 
#    0.000    0.000    0.000    0.000    0.000    0.000 
#
# Total GULP energy -356868.192079 kJ/mol
# GULP energy per Si atom -5576.065501 kJ/mol
# Density = 2.240329 g / cm^3
# Si number density = 22.454393 Si / 1000 Ang^3
#
#
#
# Elastic Constant Matrix: (Units=GPa)
#
#
# Indices 1 2 3 4 5 6 
#
# 1 124.6656 7.5061 9.4943 0.0000 0.0000 0.0000
# 2 7.5061 56.0306 21.9999 0.0000 0.0000 0.0000
# 3 9.4943 21.9999 86.7592 0.0000 0.0000 0.0000
# 4 0.0000 0.0000 0.0000 18.9604 0.0000 0.0000
# 5 0.0000 0.0000 0.0000 0.0000 37.4860 0.0000
# 6 0.0000 0.0000 0.0000 0.0000 0.0000 37.7435
#
#
#
# Elastic Compliance Matrix: (Units=1/GPa)
#
#
# Indices 1 2 3 4 5 6 
#
# 1 0.008123 -0.000821 -0.000681 0.000000 0.000000 0.000000
# 2 -0.000821 0.019904 -0.004957 0.000000 0.000000 0.000000
# 3 -0.000681 -0.004957 0.012858 0.000000 0.000000 0.000000
# 4 0.000000 0.000000 0.000000 0.052742 0.000000 0.000000
# 5 0.000000 0.000000 0.000000 0.000000 0.026677 0.000000
# 6 0.000000 0.000000 0.000000 0.000000 0.000000 0.026495
#
#
# Mechanical properties :
#
#
# Convention : Reuss Voigt Hill
#
# Bulk Modulus (GPa) = 35.75711 38.38399 37.07055
# Shear Modulus (GPa) = 29.57933 34.06832 31.82383
#
# Velocity S-wave (km/s) = 3.63341 3.89938 3.76874
# Velocity P-wave (km/s) = 5.79320 6.11595 5.95676
#
# Compressibility (1/GPa) = 0.02796647
#
# Stress axis : x y z
#
# Youngs Moduli (GPa) = 123.11141 50.24172 77.77454
#
# Poissons Ratio (x) = 0.04124 0.05294
# Poissons Ratio (y) = 0.10106 0.38555
# Poissons Ratio (z) = 0.08381 0.24906
#
# Static dielectric constant tensor:
#      x y z
#    x 1.883950 0.000000 0.000000 
#    y 0.000000 1.880530 0.000000 
#    z 0.000000 0.000000 1.881730 
# 
# From -- ./inp_files/12866.got.cif
#   From: 2010.05.17/outbox.cif.g08.bks.cpg/sg56_7_cif.got.tgz:12866.got - 2010.06.03 13:42:01.
