data_PCOD9431629
_publ_section_title
;
Structure prediction by ZEFSAII (Michael W. Deem and Ramdas Pophale) SiO2 
 PCOD9431629
Probable space group: P C C N
;
_chemical_formula_sum "Si O2"
_cell_formula_units_Z 48
_cell_length_a 10.417820
_cell_length_b 8.505873
_cell_length_c 23.093284
_cell_angle_alpha 90.000000
_cell_angle_beta 90.000000
_cell_angle_gamma 90.000000
_cell_volume 2046.357182
_symmetry_space_group_name_H-M "P C C N"
_symmetry_group_IT_number 56
_symmetry_cell_setting 'orthorhombic'
loop_
_space_group_symop_operation_xyz
x,y,z
1/2-x,1/2-y,z
1/2+x,-y,1/2-z
-x,1/2+y,1/2-z
-x,-y,-z
1/2+x,1/2+y,-z
1/2-x,y,1/2+z
x,1/2-y,1/2+z
loop_
_atom_site_type_symbol
_atom_site_label
_atom_site_fract_x
_atom_site_fract_y
_atom_site_fract_z
Si Si1 0.558869 0.846779 0.260824
Si Si2 0.750000 0.750000 0.974646
Si Si3 0.109905 0.971503 0.579768
Si Si4 0.750000 0.250000 0.014867
Si Si5 0.331879 0.484981 0.709845
Si Si6 0.598577 0.774800 0.127281
Si Si7 0.404106 0.013999 0.448241
O O1 0.592178 0.683806 0.293655
O O2 0.682417 0.957336 0.274349
O O3 0.570244 0.806317 0.193245
O O4 0.415447 0.921701 0.258943
O O5 0.852841 0.650554 0.937103
O O6 0.805899 0.874091 0.018865
O O7 0.170191 0.860438 0.529840
O O8 0.962937 0.913504 0.588218
O O9 0.165253 0.944561 0.644741
O O10 0.659329 0.347040 0.057793
O O11 0.750000 0.750000 0.125303
O O12 0.540205 0.609355 0.105182
O O13 0.500000 0.000000 0.500000
#
# Coordination Sequence:
#
# PCOD9431629 Si02
#       7
#     8   4   8   4   8   8   8
#     4  10  22  41  65  94 130 171 220 267 334 403
#     4  10  22  38  60  92 128 162 218 272 326 396
#     4  10  22  39  62  93 124 170 214 270 331 393
#     4  10  22  40  62  96 124 164 234 264 330 402
#     4  10  21  40  64  90 130 169 211 272 327 396
#     4  11  21  40  65  88 132 175 211 273 339 393
#     4  11  22  39  63  91 126 173 213 276 330 403
#
# _framework density 23.456316000000001
#
# number of rings (size 3 to 8) (size 9 to 14) (size 15 to 20)
#    0.000    1.667    4.167    1.000    0.000    5.333 
#    3.000    0.000    0.000    0.000    0.000    0.000 
#    0.000    0.000    0.000    0.000    0.000    0.000 
#
# Total GULP energy -267487.166090 kJ/mol
# GULP energy per Si atom -5572.649294 kJ/mol
# Density = 2.340293 g / cm^3
# Si number density = 23.456316 Si / 1000 Ang^3
#
#
#
# Elastic Constant Matrix: (Units=GPa)
#
#
# Indices 1 2 3 4 5 6 
#
# 1 48.7188 18.8981 3.3678 0.0000 0.0000 0.0000
# 2 18.8981 70.7646 3.2042 0.0000 0.0000 0.0000
# 3 3.3678 3.2042 67.8756 0.0000 0.0000 0.0000
# 4 0.0000 0.0000 0.0000 14.6360 0.0000 0.0000
# 5 0.0000 0.0000 0.0000 0.0000 25.9743 0.0000
# 6 0.0000 0.0000 0.0000 0.0000 0.0000 46.0570
#
#
#
# Elastic Compliance Matrix: (Units=1/GPa)
#
#
# Indices 1 2 3 4 5 6 
#
# 1 0.022947 -0.006090 -0.000851 0.000000 0.000000 0.000000
# 2 -0.006090 0.015778 -0.000443 0.000000 0.000000 0.000000
# 3 -0.000851 -0.000443 0.014796 0.000000 0.000000 0.000000
# 4 0.000000 0.000000 0.000000 0.068325 0.000000 0.000000
# 5 0.000000 0.000000 0.000000 0.000000 0.038500 0.000000
# 6 0.000000 0.000000 0.000000 0.000000 0.000000 0.021712
#
#
# Mechanical properties :
#
#
# Convention : Reuss Voigt Hill
#
# Bulk Modulus (GPa) = 25.80387 26.47770 26.14079
# Shear Modulus (GPa) = 23.83885 28.12606 25.98245
#
# Velocity S-wave (km/s) = 3.19142 3.46653 3.33182
# Velocity P-wave (km/s) = 4.96033 5.22829 5.09608
#
# Compressibility (1/GPa) = 0.03875387
#
# Stress axis : x y z
#
# Youngs Moduli (GPa) = 43.57880 63.38076 67.58605
#
# Poissons Ratio (x) = 0.38596 0.05752
# Poissons Ratio (y) = 0.26538 0.02992
# Poissons Ratio (z) = 0.03709 0.02806
#
# Static dielectric constant tensor:
#      x y z
#    x 1.949510 0.000000 0.000000 
#    y 0.000000 1.911950 0.000000 
#    z 0.000000 0.000000 1.891750 
# 
# From -- ./inp_files/20931.got.cif
#   From: 2010.05.17/outbox.cif.g08.bks.cpg/sg56_11_cif.got.tgz:20931.got - 2010.06.03 13:42:01.
