data_PCOD9431882
_publ_section_title
;
Structure prediction by ZEFSAII (Michael W. Deem and Ramdas Pophale) SiO2 
 PCOD9431882
Probable space group: P C C N
;
_chemical_formula_sum "Si O2"
_cell_formula_units_Z 64
_cell_length_a 11.725312
_cell_length_b 23.950396
_cell_length_c 10.432509
_cell_angle_alpha 90.000000
_cell_angle_beta 90.000000
_cell_angle_gamma 90.000000
_cell_volume 2929.718371
_symmetry_space_group_name_H-M "P C C N"
_symmetry_group_IT_number 56
_symmetry_cell_setting 'orthorhombic'
loop_
_space_group_symop_operation_xyz
x,y,z
1/2-x,1/2-y,z
1/2+x,-y,1/2-z
-x,1/2+y,1/2-z
-x,-y,-z
1/2+x,1/2+y,-z
1/2-x,y,1/2+z
x,1/2-y,1/2+z
loop_
_atom_site_type_symbol
_atom_site_label
_atom_site_fract_x
_atom_site_fract_y
_atom_site_fract_z
Si Si1 0.375282 0.463508 0.875262
Si Si2 0.027994 0.689544 0.711116
Si Si3 0.735378 0.350603 0.353587
Si Si4 0.511433 0.814526 0.205152
Si Si5 0.250507 0.576956 0.900603
Si Si6 0.992100 0.923590 0.367896
Si Si7 0.925019 0.867294 0.962244
Si Si8 0.190422 0.382403 0.947078
O O1 0.326743 0.522602 0.912162
O O2 0.451365 0.462046 0.748984
O O3 0.438314 0.431151 0.990679
O O4 0.267202 0.420972 0.853008
O O5 0.164346 0.690860 0.690182
O O6 0.982939 0.750204 0.746282
O O7 0.001418 0.639717 0.810269
O O8 0.972119 0.670512 0.577306
O O9 0.609461 0.325032 0.364448
O O10 0.772534 0.378614 0.487037
O O11 0.733874 0.396602 0.240266
O O12 0.515721 0.852650 0.331194
O O13 0.617153 0.834625 0.119836
O O14 0.117355 0.561010 0.914312
O O15 0.898466 0.921090 0.477985
O O16 0.787934 0.859047 0.957669
#
# Coordination Sequence:
#
# PCOD9431882 Si02
#       8
#     8   8   8   8   8   8   8   8
#     4   9  23  42  67  95 134 180 214 290 343 398
#     4  10  24  43  65  94 138 179 216 284 349 389
#     4  11  25  44  67 106 133 176 241 283 326 435
#     4  12  23  42  70  98 131 185 222 282 349 397
#     4  11  24  43  73  96 140 182 225 280 359 392
#     4  10  21  45  62 100 135 169 233 284 322 428
#     4   9  23  43  63  96 140 164 231 273 335 419
#     4  10  22  40  65  97 135 165 228 282 331 414
#
# _framework density 21.845103999999999
#
# number of rings (size 3 to 8) (size 9 to 14) (size 15 to 20)
#    0.750    1.000    1.250    1.875    3.500    2.000 
#    0.000   12.500    0.000    0.000    0.000    0.000 
#    0.000    0.000    0.000    0.000    0.000    0.000 
#
# Total GULP energy -357615.666236 kJ/mol
# GULP energy per Si atom -5587.744785 kJ/mol
# Density = 2.179538 g / cm^3
# Si number density = 21.845104 Si / 1000 Ang^3
#
#
#
# Elastic Constant Matrix: (Units=GPa)
#
#
# Indices 1 2 3 4 5 6 
#
# 1 93.2057 9.5969 -3.3809 0.0000 0.0000 0.0000
# 2 9.5969 64.9481 5.8945 0.0000 0.0000 0.0000
# 3 -3.3809 5.8945 47.9562 0.0000 0.0000 0.0000
# 4 0.0000 0.0000 0.0000 6.5201 0.0000 0.0000
# 5 0.0000 0.0000 0.0000 0.0000 35.8640 0.0000
# 6 0.0000 0.0000 0.0000 0.0000 0.0000 22.3544
#
#
#
# Elastic Compliance Matrix: (Units=1/GPa)
#
#
# Indices 1 2 3 4 5 6 
#
# 1 0.010940 -0.001706 0.000981 0.000000 0.000000 0.000000
# 2 -0.001706 0.015837 -0.002067 0.000000 0.000000 0.000000
# 3 0.000981 -0.002067 0.021176 0.000000 0.000000 0.000000
# 4 0.000000 0.000000 0.000000 0.153371 0.000000 0.000000
# 5 0.000000 0.000000 0.000000 0.000000 0.027883 0.000000
# 6 0.000000 0.000000 0.000000 0.000000 0.000000 0.044734
#
#
# Mechanical properties :
#
#
# Convention : Reuss Voigt Hill
#
# Bulk Modulus (GPa) = 23.60197 25.59234 24.59715
# Shear Modulus (GPa) = 17.02731 25.88101 21.45416
#
# Velocity S-wave (km/s) = 2.79490 3.44576 3.13725
# Velocity P-wave (km/s) = 4.60901 5.25088 4.94038
#
# Compressibility (1/GPa) = 0.04236935
#
# Stress axis : x y z
#
# Youngs Moduli (GPa) = 91.40640 63.14525 47.22428
#
# Poissons Ratio (x) = 0.10770 -0.04632
# Poissons Ratio (y) = 0.15590 0.09760
# Poissons Ratio (z) = -0.08966 0.13051
#
# Static dielectric constant tensor:
#      x y z
#    x 1.836100 0.000000 0.000000 
#    y 0.000000 1.787300 0.000000 
#    z 0.000000 0.000000 1.772200 
# 
# From -- ./inp_files/7401.got.cif
#   From: 2010.05.17/outbox.cif.g08.bks.cpg/sg56_4_cif.got.tgz:7401.got - 2010.06.03 13:42:01.
