data_PCOD9431769
_publ_section_title
;
Structure prediction by ZEFSAII (Michael W. Deem and Ramdas Pophale) SiO2 
 PCOD9431769
Probable space group: P C C N
;
_chemical_formula_sum "Si O2"
_cell_formula_units_Z 60
_cell_length_a 8.467328
_cell_length_b 31.020696
_cell_length_c 11.172403
_cell_angle_alpha 90.000000
_cell_angle_beta 90.000000
_cell_angle_gamma 90.000000
_cell_volume 2934.570273
_symmetry_space_group_name_H-M "P C C N"
_symmetry_group_IT_number 56
_symmetry_cell_setting 'orthorhombic'
loop_
_space_group_symop_operation_xyz
x,y,z
1/2-x,1/2-y,z
1/2+x,-y,1/2-z
-x,1/2+y,1/2-z
-x,-y,-z
1/2+x,1/2+y,-z
1/2-x,y,1/2+z
x,1/2-y,1/2+z
loop_
_atom_site_type_symbol
_atom_site_label
_atom_site_fract_x
_atom_site_fract_y
_atom_site_fract_z
Si Si1 0.828756 0.051518 0.896852
Si Si2 0.498451 0.686070 0.422343
Si Si3 0.650844 0.610609 0.578125
Si Si4 0.318647 0.641773 0.971341
Si Si5 0.250000 0.250000 0.472618
Si Si6 0.361945 0.459482 0.019645
Si Si7 0.084379 0.579412 0.277137
Si Si8 0.586215 0.829042 0.653614
O O1 0.742217 0.055685 0.769736
O O2 0.788241 0.006558 0.962198
O O3 0.778601 0.095511 0.965507
O O4 0.019779 0.047338 0.905906
O O5 0.583731 0.647888 0.494403
O O6 0.317134 0.677884 0.462694
O O7 0.604479 0.728255 0.453297
O O8 0.506388 0.678102 0.280957
O O9 0.728111 0.575362 0.493348
O O10 0.523474 0.589321 0.663643
O O11 0.785704 0.632894 0.658894
O O12 0.371124 0.624612 0.841108
O O13 0.461983 0.659153 0.050396
O O14 0.323691 0.213379 0.389395
O O15 0.478489 0.447694 0.129784
#
# Coordination Sequence:
#
# PCOD9431769 Si02
#       8
#     8   8   8   8   4   8   8   8
#     4  10  21  42  59  91 136 176 227 276 324 389
#     4  11  24  44  71  98 133 173 214 269 339 397
#     4  11  22  40  66  99 128 178 221 275 331 396
#     4  11  23  43  67  99 129 179 218 275 329 401
#     4  10  26  46  70 106 130 166 214 268 340 412
#     4  10  23  40  60  94 136 180 227 283 328 384
#     4  11  22  40  62  97 131 180 225 275 333 393
#     4  11  23  45  69  98 136 165 218 272 331 407
#
# _framework density 20.445923000000001
#
# number of rings (size 3 to 8) (size 9 to 14) (size 15 to 20)
#    0.000    1.333    4.000    2.000    1.867    4.267 
#    4.800    1.333    0.000    0.000    0.000    0.000 
#    0.000    0.000    0.000    0.000    0.000    0.000 
#
# Total GULP energy -334600.781659 kJ/mol
# GULP energy per Si atom -5576.679694 kJ/mol
# Density = 2.039939 g / cm^3
# Si number density = 20.445923 Si / 1000 Ang^3
#
#
#
# Elastic Constant Matrix: (Units=GPa)
#
#
# Indices 1 2 3 4 5 6 
#
# 1 75.6205 18.3945 27.4711 0.0000 0.0000 0.0000
# 2 18.3945 76.6509 13.1298 0.0000 0.0000 0.0000
# 3 27.4711 13.1298 61.0930 0.0000 0.0000 0.0000
# 4 0.0000 0.0000 0.0000 18.3492 0.0000 0.0000
# 5 0.0000 0.0000 0.0000 0.0000 26.7115 0.0000
# 6 0.0000 0.0000 0.0000 0.0000 0.0000 16.1222
#
#
#
# Elastic Compliance Matrix: (Units=1/GPa)
#
#
# Indices 1 2 3 4 5 6 
#
# 1 0.016352 -0.002766 -0.006758 0.000000 0.000000 0.000000
# 2 -0.002766 0.014013 -0.001768 0.000000 0.000000 0.000000
# 3 -0.006758 -0.001768 0.019787 0.000000 0.000000 0.000000
# 4 0.000000 0.000000 0.000000 0.054498 0.000000 0.000000
# 5 0.000000 0.000000 0.000000 0.000000 0.037437 0.000000
# 6 0.000000 0.000000 0.000000 0.000000 0.000000 0.062026
#
#
# Mechanical properties :
#
#
# Convention : Reuss Voigt Hill
#
# Bulk Modulus (GPa) = 36.27469 36.81723 36.54596
# Shear Modulus (GPa) = 21.19654 22.52785 21.86220
#
# Velocity S-wave (km/s) = 3.22329 3.32298 3.27352
# Velocity P-wave (km/s) = 5.62433 5.72443 5.67460
#
# Compressibility (1/GPa) = 0.02756743
#
# Stress axis : x y z
#
# Youngs Moduli (GPa) = 61.15470 71.36326 50.53751
#
# Poissons Ratio (x) = 0.19742 0.34155
# Poissons Ratio (y) = 0.16918 0.08933
# Poissons Ratio (z) = 0.41330 0.12614
#
# Static dielectric constant tensor:
#      x y z
#    x 1.759810 0.000000 0.000000 
#    y 0.000000 1.734780 0.000000 
#    z 0.000000 0.000000 1.740220 
# 
# From -- ./inp_files/6556.got.cif
#   From: 2010.05.17/outbox.cif.g08.bks.cpg/sg56_4_cif.got.tgz:6556.got - 2010.06.03 13:42:01.
