data_PCOD9431736
_publ_section_title
;
Structure prediction by ZEFSAII (Michael W. Deem and Ramdas Pophale) SiO2 
 PCOD9431736
Probable space group: P C C N
;
_chemical_formula_sum "Si O2"
_cell_formula_units_Z 48
_cell_length_a 26.369145
_cell_length_b 8.244309
_cell_length_c 9.195520
_cell_angle_alpha 90.000000
_cell_angle_beta 90.000000
_cell_angle_gamma 90.000000
_cell_volume 1999.063560
_symmetry_space_group_name_H-M "P C C N"
_symmetry_group_IT_number 56
_symmetry_cell_setting 'orthorhombic'
loop_
_space_group_symop_operation_xyz
x,y,z
1/2-x,1/2-y,z
1/2+x,-y,1/2-z
-x,1/2+y,1/2-z
-x,-y,-z
1/2+x,1/2+y,-z
1/2-x,y,1/2+z
x,1/2-y,1/2+z
loop_
_atom_site_type_symbol
_atom_site_label
_atom_site_fract_x
_atom_site_fract_y
_atom_site_fract_z
Si Si1 0.670716 0.127577 0.764178
Si Si2 0.854423 0.791805 0.186583
Si Si3 0.954121 0.637939 0.108948
Si Si4 0.885635 0.176248 0.558705
Si Si5 0.014015 0.849359 0.899384
Si Si6 0.203129 0.366928 0.049162
O O1 0.663440 0.281155 0.658695
O O2 0.664330 0.974587 0.654229
O O3 0.712234 0.042154 0.874293
O O4 0.629055 0.159836 0.890194
O O5 0.912743 0.773534 0.151089
O O6 0.843956 0.791363 0.358748
O O7 0.818098 0.658382 0.112269
O O8 0.917667 0.482722 0.099499
O O9 0.994677 0.622752 0.237322
O O10 0.983651 0.694840 0.966151
O O11 0.926620 0.315993 0.587123
O O12 0.000000 0.000000 0.000000
O O13 0.250000 0.250000 0.068756
#
# Coordination Sequence:
#
# PCOD9431736 Si02
#       6
#     8   8   8   8   8   8
#     4  10  24  41  67 101 130 188 214 286 350 413
#     4  10  21  41  67 102 131 169 236 274 349 414
#     4  12  22  40  62  94 135 187 231 283 342 394
#     4  12  23  44  62  96 150 177 237 273 353 415
#     4  12  25  38  61  94 135 191 238 288 316 396
#     4  10  21  42  72 104 124 164 232 290 349 420
#
# _framework density 24.011244000000001
#
# number of rings (size 3 to 8) (size 9 to 14) (size 15 to 20)
#    1.000    0.000    1.667    7.000    0.000    1.333 
#    0.000    0.000    0.000    8.000    0.000    0.000 
#    0.000    0.000    0.000    0.000    0.000    0.000 
#
# Total GULP energy -267418.324926 kJ/mol
# GULP energy per Si atom -5571.215103 kJ/mol
# Density = 2.395659 g / cm^3
# Si number density = 24.011244 Si / 1000 Ang^3
#
#
#
# Elastic Constant Matrix: (Units=GPa)
#
#
# Indices 1 2 3 4 5 6 
#
# 1 43.9134 6.7012 -2.5655 0.0000 0.0000 0.0000
# 2 6.7012 106.7216 26.2013 0.0000 0.0000 0.0000
# 3 -2.5655 26.2013 79.4736 0.0000 0.0000 0.0000
# 4 0.0000 0.0000 0.0000 33.8103 0.0000 0.0000
# 5 0.0000 0.0000 0.0000 0.0000 15.6940 0.0000
# 6 0.0000 0.0000 0.0000 0.0000 0.0000 43.1347
#
#
#
# Elastic Compliance Matrix: (Units=1/GPa)
#
#
# Indices 1 2 3 4 5 6 
#
# 1 0.023121 -0.001779 0.001333 0.000000 0.000000 0.000000
# 2 -0.001779 0.010332 -0.003464 0.000000 0.000000 0.000000
# 3 0.001333 -0.003464 0.013768 0.000000 0.000000 0.000000
# 4 0.000000 0.000000 0.000000 0.029577 0.000000 0.000000
# 5 0.000000 0.000000 0.000000 0.000000 0.063719 0.000000
# 6 0.000000 0.000000 0.000000 0.000000 0.000000 0.023183
#
#
# Mechanical properties :
#
#
# Convention : Reuss Voigt Hill
#
# Bulk Modulus (GPa) = 25.37970 32.30918 28.84444
# Shear Modulus (GPa) = 27.07768 31.84591 29.46180
#
# Velocity S-wave (km/s) = 3.36178 3.64578 3.50666
# Velocity P-wave (km/s) = 5.06573 5.58635 5.33240
#
# Compressibility (1/GPa) = 0.03940157
#
# Stress axis : x y z
#
# Youngs Moduli (GPa) = 43.24987 96.78393 72.63330
#
# Poissons Ratio (x) = 0.17219 -0.09682
# Poissons Ratio (y) = 0.07695 0.25159
# Poissons Ratio (z) = -0.05765 0.33524
#
# Static dielectric constant tensor:
#      x y z
#    x 1.937320 0.000000 0.000000 
#    y 0.000000 2.057250 0.000000 
#    z 0.000000 0.000000 1.877790 
# 
# From -- ./inp_files/5138.got.cif
#   From: 2010.05.17/outbox.cif.g08.bks.cpg/sg56_3_cif.got.tgz:5138.got - 2010.06.03 13:42:01.
