data_PCOD9431106
_publ_section_title
;
Structure prediction by ZEFSAII (Michael W. Deem and Ramdas Pophale) SiO2 
 PCOD9431106
Probable space group: P C C N
;
_chemical_formula_sum "Si O2"
_cell_formula_units_Z 48
_cell_length_a 5.084721
_cell_length_b 28.090897
_cell_length_c 13.033157
_cell_angle_alpha 90.000000
_cell_angle_beta 90.000000
_cell_angle_gamma 90.000000
_cell_volume 1861.582820
_symmetry_space_group_name_H-M "P C C N"
_symmetry_group_IT_number 56
_symmetry_cell_setting 'orthorhombic'
loop_
_space_group_symop_operation_xyz
x,y,z
1/2-x,1/2-y,z
1/2+x,-y,1/2-z
-x,1/2+y,1/2-z
-x,-y,-z
1/2+x,1/2+y,-z
1/2-x,y,1/2+z
x,1/2-y,1/2+z
loop_
_atom_site_type_symbol
_atom_site_label
_atom_site_fract_x
_atom_site_fract_y
_atom_site_fract_z
Si Si1 0.822347 0.143015 0.270417
Si Si2 0.750000 0.750000 0.898333
Si Si3 0.443019 0.493132 0.183803
Si Si4 0.407864 0.155331 0.547059
Si Si5 0.252882 0.920204 0.059829
Si Si6 0.250000 0.750000 0.750618
Si Si7 0.446794 0.088141 0.130249
O O1 0.935393 0.104999 0.352841
O O2 0.793225 0.198465 0.305144
O O3 0.568517 0.112466 0.230720
O O4 0.975168 0.149873 0.162528
O O5 0.869238 0.789978 0.971536
O O6 0.505157 0.761571 0.822530
O O7 0.738273 0.491267 0.225449
O O8 0.405258 0.535036 0.103125
O O9 0.308481 0.444139 0.148673
O O10 0.565863 0.123821 0.468898
O O11 0.121909 0.133517 0.560241
O O12 0.374525 0.938453 0.953169
#
# Coordination Sequence:
#
# PCOD9431106 Si02
#       7
#     8   4   8   8   8   4   8
#     4  10  21  44  63  98 136 182 232 284 354 417
#     4  10  20  42  68  98 134 184 224 278 360 410
#     4  12  27  46  74 101 141 191 235 293 359 428
#     4  10  23  41  71  96 141 182 232 292 355 421
#     4  11  25  43  66 106 138 183 238 297 347 430
#     4  10  20  40  72  94 132 186 226 280 344 420
#     4  11  23  43  70  97 137 186 230 292 361 414
#
# _framework density 25.784507999999999
#
# number of rings (size 3 to 8) (size 9 to 14) (size 15 to 20)
#    0.000    1.333    3.333    1.500    4.667    2.000 
#    3.000    0.000    0.000    0.000    0.000    0.000 
#    0.000    0.000    0.000    0.000    0.000    0.000 
#
# Total GULP energy -267972.999188 kJ/mol
# GULP energy per Si atom -5582.770816 kJ/mol
# Density = 2.572582 g / cm^3
# Si number density = 25.784508 Si / 1000 Ang^3
#
#
#
# Elastic Constant Matrix: (Units=GPa)
#
#
# Indices 1 2 3 4 5 6 
#
# 1 57.7633 -11.3791 12.6641 0.0000 0.0000 0.0000
# 2 -11.3791 157.7784 27.9080 0.0000 0.0000 0.0000
# 3 12.6641 27.9080 73.9280 0.0000 0.0000 0.0000
# 4 0.0000 0.0000 0.0000 33.5732 0.0000 0.0000
# 5 0.0000 0.0000 0.0000 0.0000 24.3541 0.0000
# 6 0.0000 0.0000 0.0000 0.0000 0.0000 37.7913
#
#
#
# Elastic Compliance Matrix: (Units=1/GPa)
#
#
# Indices 1 2 3 4 5 6 
#
# 1 0.018580 0.002039 -0.003953 0.000000 0.000000 0.000000
# 2 0.002039 0.007015 -0.002998 0.000000 0.000000 0.000000
# 3 -0.003953 -0.002998 0.015335 0.000000 0.000000 0.000000
# 4 0.000000 0.000000 0.000000 0.029786 0.000000 0.000000
# 5 0.000000 0.000000 0.000000 0.000000 0.041061 0.000000
# 6 0.000000 0.000000 0.000000 0.000000 0.000000 0.026461
#
#
# Mechanical properties :
#
#
# Convention : Reuss Voigt Hill
#
# Bulk Modulus (GPa) = 32.14522 38.65063 35.39792
# Shear Modulus (GPa) = 31.55959 36.49549 34.02754
#
# Velocity S-wave (km/s) = 3.50233 3.76627 3.63669
# Velocity P-wave (km/s) = 5.37113 5.82541 5.60288
#
# Compressibility (1/GPa) = 0.03110883
#
# Stress axis : x y z
#
# Youngs Moduli (GPa) = 53.82034 142.54577 65.20866
#
# Poissons Ratio (x) = -0.29068 0.25775
# Poissons Ratio (y) = -0.10975 0.19547
# Poissons Ratio (z) = 0.21273 0.42730
#
# Static dielectric constant tensor:
#      x y z
#    x 2.125030 0.000000 0.000000 
#    y 0.000000 2.088470 0.000000 
#    z 0.000000 0.000000 2.147290 
# 
# From -- ./inp_files/9725.got.cif
#   From: 2010.05.17/outbox.cif.g08.bks.cpg/sg56_5_cif.got.tgz:9725.got - 2010.06.03 13:42:01.
