data_PCOD9431179
_publ_section_title
;
Structure prediction by ZEFSAII (Michael W. Deem and Ramdas Pophale) SiO2 
 PCOD9431179
Probable space group: P C C N
;
_chemical_formula_sum "Si O2"
_cell_formula_units_Z 24
_cell_length_a 13.745219
_cell_length_b 4.920319
_cell_length_c 16.711824
_cell_angle_alpha 90.000000
_cell_angle_beta 90.000000
_cell_angle_gamma 90.000000
_cell_volume 1130.235066
_symmetry_space_group_name_H-M "P C C N"
_symmetry_group_IT_number 56
_symmetry_cell_setting 'orthorhombic'
loop_
_space_group_symop_operation_xyz
x,y,z
1/2-x,1/2-y,z
1/2+x,-y,1/2-z
-x,1/2+y,1/2-z
-x,-y,-z
1/2+x,1/2+y,-z
1/2-x,y,1/2+z
x,1/2-y,1/2+z
loop_
_atom_site_type_symbol
_atom_site_label
_atom_site_fract_x
_atom_site_fract_y
_atom_site_fract_z
Si Si1 0.439937 0.790199 0.228515
Si Si2 0.816458 0.983479 0.407350
Si Si3 0.750000 0.750000 0.057857
Si Si4 0.250000 0.750000 0.329155
O O1 0.507758 0.528458 0.221749
O O2 0.342350 0.695755 0.273329
O O3 0.407008 0.927073 0.145259
O O4 0.750000 0.750000 0.364976
O O5 0.832396 0.851300 0.494787
O O6 0.750000 0.250000 0.418869
O O7 0.724650 0.501621 0.114226
#
# Coordination Sequence:
#
# PCOD9431179 Si02
#       4
#     8   8   4   4
#     4  12  26  42  69 102 131 178 230 272 328 401
#     4  10  20  42  68  90 131 181 214 258 349 383
#     4  10  22  40  72  94 128 186 208 274 350 382
#     4  12  24  44  68 100 134 168 226 288 318 390
#
# _framework density 21.234521999999998
#
# number of rings (size 3 to 8) (size 9 to 14) (size 15 to 20)
#    1.000    0.000    3.333    4.000    2.333    0.000 
#    0.000   10.000    0.000    0.000    0.000    0.000 
#    0.000    0.000    0.000    0.000    0.000    0.000 
#
# Total GULP energy -133939.476886 kJ/mol
# GULP energy per Si atom -5580.811537 kJ/mol
# Density = 2.118619 g / cm^3
# Si number density = 21.234522 Si / 1000 Ang^3
#
#
#
# Elastic Constant Matrix: (Units=GPa)
#
#
# Indices 1 2 3 4 5 6 
#
# 1 73.8026 20.0766 22.5281 0.0000 0.0000 0.0000
# 2 20.0766 127.9722 14.2551 0.0000 0.0000 0.0000
# 3 22.5281 14.2551 88.0479 0.0000 0.0000 0.0000
# 4 0.0000 0.0000 0.0000 41.0241 0.0000 0.0000
# 5 0.0000 0.0000 0.0000 0.0000 -5.7844 0.0000
# 6 0.0000 0.0000 0.0000 0.0000 0.0000 33.0706
#
#
#
# Elastic Compliance Matrix: (Units=1/GPa)
#
#
# Indices 1 2 3 4 5 6 
#
# 1 0.015177 -0.001984 -0.003562 0.000000 0.000000 0.000000
# 2 -0.001984 0.008217 -0.000823 0.000000 0.000000 0.000000
# 3 -0.003562 -0.000823 0.012402 0.000000 0.000000 0.000000
# 4 0.000000 0.000000 0.000000 0.024376 0.000000 0.000000
# 5 0.000000 0.000000 0.000000 0.000000 -0.172880 0.000000
# 6 0.000000 0.000000 0.000000 0.000000 0.000000 0.030238
#
#
# Mechanical properties :
#
#
# Convention : Reuss Voigt Hill
#
# Bulk Modulus (GPa) = 43.36840 44.83804 44.10322
# Shear Modulus (GPa) = -80.58487 29.19293 -25.69597
#
# Velocity S-wave (km/s) = -6.16704 3.71183 -3.48243
# Velocity P-wave (km/s) = 5.49926 6.28743 2.15521
#
# Compressibility (1/GPa) = 0.02305826
#
# Stress axis : x y z
#
# Youngs Moduli (GPa) = 65.89056 121.69705 80.63216
#
# Poissons Ratio (x) = 0.24147 0.28720
# Poissons Ratio (y) = 0.13074 0.06633
# Poissons Ratio (z) = 0.23470 0.10012
#
# Static dielectric constant tensor:
#      x y z
#    x 1.743640 0.000000 0.000000 
#    y 0.000000 1.739240 0.000000 
#    z 0.000000 0.000000 1.786170 
# 
# From -- ./inp_files/9261.got.cif
#   From: 2010.05.17/outbox.cif.g08.bks.cpg/sg56_5_cif.got.tgz:9261.got - 2010.06.03 13:42:01.
