data_PCOD9431265
_publ_section_title
;
Structure prediction by ZEFSAII (Michael W. Deem and Ramdas Pophale) SiO2 
 PCOD9431265
Probable space group: P C C N
;
_chemical_formula_sum "Si O2"
_cell_formula_units_Z 40
_cell_length_a 11.967791
_cell_length_b 19.359945
_cell_length_c 9.374923
_cell_angle_alpha 90.000000
_cell_angle_beta 90.000000
_cell_angle_gamma 90.000000
_cell_volume 2172.130055
_symmetry_space_group_name_H-M "P C C N"
_symmetry_group_IT_number 56
_symmetry_cell_setting 'orthorhombic'
loop_
_space_group_symop_operation_xyz
x,y,z
1/2-x,1/2-y,z
1/2+x,-y,1/2-z
-x,1/2+y,1/2-z
-x,-y,-z
1/2+x,1/2+y,-z
1/2-x,y,1/2+z
x,1/2-y,1/2+z
loop_
_atom_site_type_symbol
_atom_site_label
_atom_site_fract_x
_atom_site_fract_y
_atom_site_fract_z
Si Si1 0.782108 0.170598 0.016484
Si Si2 0.127985 0.901067 0.699609
Si Si3 0.830663 0.522999 0.610083
Si Si4 0.059007 0.919691 0.123296
Si Si5 0.578265 0.526030 0.626319
O O1 0.750000 0.250000 0.018267
O O2 0.679987 0.126046 0.948182
O O3 0.882056 0.152690 0.905345
O O4 0.824041 0.146573 0.172782
O O5 0.993945 0.911389 0.695525
O O6 0.167216 0.978497 0.743470
O O7 0.882975 0.468733 0.496680
O O8 0.704171 0.544581 0.583422
O O9 0.925329 0.581392 0.611516
O O10 0.084759 0.961111 0.266511
O O11 0.500000 0.500000 0.500000
#
# Coordination Sequence:
#
# PCOD9431265 Si02
#       5
#     8   8   8   8   8
#     4  11  21  38  58  81 119 159 205 253 292 357
#     4  10  21  35  54  87 115 152 203 242 299 362
#     4   9  18  34  54  79 121 148 181 250 301 358
#     4   9  19  33  52  84 114 151 193 237 306 354
#     4  11  20  32  56  86 122 155 194 249 312 370
#
# _framework density 18.415103999999999
#
# number of rings (size 3 to 8) (size 9 to 14) (size 15 to 20)
#    0.000    2.000    2.000    4.200    2.800    0.000 
#    0.000    0.000    0.000    1.200    0.000    8.400 
#    0.000    0.000    0.000    0.000    0.000    0.000 
#
# Total GULP energy -222790.527630 kJ/mol
# GULP energy per Si atom -5569.763191 kJ/mol
# Density = 1.837319 g / cm^3
# Si number density = 18.415104 Si / 1000 Ang^3
#
#
#
# Elastic Constant Matrix: (Units=GPa)
#
#
# Indices 1 2 3 4 5 6 
#
# 1 204.5063 50.0615 35.6534 0.0000 0.0000 0.0000
# 2 50.0615 78.7919 25.0633 0.0000 0.0000 0.0000
# 3 35.6534 25.0633 84.2029 0.0000 0.0000 0.0000
# 4 0.0000 0.0000 0.0000 15.8800 0.0000 0.0000
# 5 0.0000 0.0000 0.0000 0.0000 27.9409 0.0000
# 6 0.0000 0.0000 0.0000 0.0000 0.0000 28.4687
#
#
#
# Elastic Compliance Matrix: (Units=1/GPa)
#
#
# Indices 1 2 3 4 5 6 
#
# 1 0.005967 -0.003300 -0.001544 0.000000 0.000000 0.000000
# 2 -0.003300 0.015844 -0.003319 0.000000 0.000000 0.000000
# 3 -0.001544 -0.003319 0.013518 0.000000 0.000000 0.000000
# 4 0.000000 0.000000 0.000000 0.062972 0.000000 0.000000
# 5 0.000000 0.000000 0.000000 0.000000 0.035790 0.000000
# 6 0.000000 0.000000 0.000000 0.000000 0.000000 0.035126
#
#
# Mechanical properties :
#
#
# Convention : Reuss Voigt Hill
#
# Bulk Modulus (GPa) = 52.62394 65.45083 59.03739
# Shear Modulus (GPa) = 26.05834 31.57278 28.81556
#
# Velocity S-wave (km/s) = 3.76580 4.14515 3.96002
# Velocity P-wave (km/s) = 6.89542 7.65041 7.28271
#
# Compressibility (1/GPa) = 0.01900276
#
# Stress axis : x y z
#
# Youngs Moduli (GPa) = 167.59305 63.11545 73.97656
#
# Poissons Ratio (x) = 0.20827 0.11424
# Poissons Ratio (y) = 0.55304 0.24551
# Poissons Ratio (z) = 0.25881 0.20947
#
# Static dielectric constant tensor:
#      x y z
#    x 1.723250 0.000000 0.000000 
#    y 0.000000 1.639860 0.000000 
#    z 0.000000 0.000000 1.748590 
# 
# From -- ./inp_files/2692.got.cif
#   From: 2010.05.17/outbox.cif.g08.bks.cpg/sg56_2_cif.got.tgz:2692.got - 2010.06.03 13:42:01.
