data_PCOD9431387
_publ_section_title
;
Structure prediction by ZEFSAII (Michael W. Deem and Ramdas Pophale) SiO2 
 PCOD9431387
Probable space group: P C C N
;
_chemical_formula_sum "Si O2"
_cell_formula_units_Z 40
_cell_length_a 9.305345
_cell_length_b 19.340687
_cell_length_c 10.579448
_cell_angle_alpha 90.000000
_cell_angle_beta 90.000000
_cell_angle_gamma 90.000000
_cell_volume 1904.001930
_symmetry_space_group_name_H-M "P C C N"
_symmetry_group_IT_number 56
_symmetry_cell_setting 'orthorhombic'
loop_
_space_group_symop_operation_xyz
x,y,z
1/2-x,1/2-y,z
1/2+x,-y,1/2-z
-x,1/2+y,1/2-z
-x,-y,-z
1/2+x,1/2+y,-z
1/2-x,y,1/2+z
x,1/2-y,1/2+z
loop_
_atom_site_type_symbol
_atom_site_label
_atom_site_fract_x
_atom_site_fract_y
_atom_site_fract_z
Si Si1 0.079445 0.238949 0.318067
Si Si2 0.539193 0.037043 0.630711
Si Si3 0.590777 0.680568 0.940234
Si Si4 0.371587 0.970920 0.861646
Si Si5 0.904195 0.883846 0.500207
O O1 0.250000 0.250000 0.321027
O O2 0.033489 0.295682 0.422301
O O3 0.050693 0.236690 0.168483
O O4 0.047702 0.165096 0.383908
O O5 0.483725 0.113197 0.609834
O O6 0.706010 0.042513 0.664565
O O7 0.500000 0.000000 0.500000
O O8 0.456453 0.997273 0.740288
O O9 0.760838 0.656611 0.948602
O O10 0.460107 0.904669 0.913259
O O11 0.363185 0.038560 0.953894
#
# Coordination Sequence:
#
# PCOD9431387 Si02
#       5
#     8   8   8   8   8
#     4  10  21  37  65  95 127 172 226 278 328 400
#     4  12  25  41  66 100 139 179 225 284 351 414
#     4  11  22  41  67  98 130 175 231 281 338 407
#     4  11  24  40  67 100 138 173 223 283 343 413
#     4  10  21  40  67  94 132 169 222 276 338 400
#
# _framework density 21.008382000000001
#
# number of rings (size 3 to 8) (size 9 to 14) (size 15 to 20)
#    0.000    1.200    4.000    3.000    2.800    1.600 
#    0.000    1.000    0.000    7.200    0.000    0.000 
#    0.000    0.000    0.000    0.000    0.000    0.000 
#
# Total GULP energy -222841.902087 kJ/mol
# GULP energy per Si atom -5571.047552 kJ/mol
# Density = 2.096057 g / cm^3
# Si number density = 21.008382 Si / 1000 Ang^3
#
#
#
# Elastic Constant Matrix: (Units=GPa)
#
#
# Indices 1 2 3 4 5 6 
#
# 1 104.2917 7.2210 49.9049 0.0000 0.0000 0.0000
# 2 7.2210 55.8093 25.4487 0.0000 0.0000 0.0000
# 3 49.9049 25.4487 115.0673 0.0000 0.0000 0.0000
# 4 0.0000 0.0000 0.0000 35.9314 0.0000 0.0000
# 5 0.0000 0.0000 0.0000 0.0000 21.2453 0.0000
# 6 0.0000 0.0000 0.0000 0.0000 0.0000 37.6653
#
#
#
# Elastic Compliance Matrix: (Units=1/GPa)
#
#
# Indices 1 2 3 4 5 6 
#
# 1 0.012142 0.000923 -0.005470 0.000000 0.000000 0.000000
# 2 0.000923 0.019998 -0.004823 0.000000 0.000000 0.000000
# 3 -0.005470 -0.004823 0.012130 0.000000 0.000000 0.000000
# 4 0.000000 0.000000 0.000000 0.027831 0.000000 0.000000
# 5 0.000000 0.000000 0.000000 0.000000 0.047069 0.000000
# 6 0.000000 0.000000 0.000000 0.000000 0.000000 0.026550
#
#
# Mechanical properties :
#
#
# Convention : Reuss Voigt Hill
#
# Bulk Modulus (GPa) = 39.17026 48.92417 44.04721
# Shear Modulus (GPa) = 28.90672 31.80796 30.35734
#
# Velocity S-wave (km/s) = 3.71342 3.89531 3.80545
# Velocity P-wave (km/s) = 6.08864 6.60074 6.34985
#
# Compressibility (1/GPa) = 0.02552957
#
# Stress axis : x y z
#
# Youngs Moduli (GPa) = 82.35759 50.00475 82.44161
#
# Poissons Ratio (x) = -0.04617 0.45098
# Poissons Ratio (y) = -0.07605 0.39764
# Poissons Ratio (z) = 0.45052 0.24119
#
# Static dielectric constant tensor:
#      x y z
#    x 1.749010 0.000000 0.000000 
#    y 0.000000 2.113540 0.000000 
#    z 0.000000 0.000000 1.758770 
# 
# From -- ./inp_files/6325.got.cif
#   From: 2010.05.17/outbox.cif.g08.bks.cpg/sg56_4_cif.got.tgz:6325.got - 2010.06.03 13:42:01.
