data_PCOD9431909
_publ_section_title
;
Structure prediction by ZEFSAII (Michael W. Deem and Ramdas Pophale) SiO2 
 PCOD9431909
Probable space group: P C C N
;
_chemical_formula_sum "Si O2"
_cell_formula_units_Z 32
_cell_length_a 10.730183
_cell_length_b 11.566646
_cell_length_c 10.839020
_cell_angle_alpha 90.000000
_cell_angle_beta 90.000000
_cell_angle_gamma 90.000000
_cell_volume 1345.254925
_symmetry_space_group_name_H-M "P C C N"
_symmetry_group_IT_number 56
_symmetry_cell_setting 'orthorhombic'
loop_
_space_group_symop_operation_xyz
x,y,z
1/2-x,1/2-y,z
1/2+x,-y,1/2-z
-x,1/2+y,1/2-z
-x,-y,-z
1/2+x,1/2+y,-z
1/2-x,y,1/2+z
x,1/2-y,1/2+z
loop_
_atom_site_type_symbol
_atom_site_label
_atom_site_fract_x
_atom_site_fract_y
_atom_site_fract_z
Si Si1 0.845803 0.160366 0.118861
Si Si2 0.804546 0.546072 0.030061
Si Si3 0.524410 0.518621 0.300136
Si Si4 0.037551 0.126754 0.944144
O O1 0.750000 0.250000 0.173486
O O2 0.902527 0.079563 0.224069
O O3 0.759997 0.080190 0.030239
O O4 0.956207 0.208871 0.031258
O O5 0.686671 0.631264 0.044095
O O6 0.899564 0.537813 0.144732
O O7 0.886695 0.561681 0.909066
O O8 0.501226 0.618991 0.199020
O O9 0.000000 0.000000 0.000000
#
# Coordination Sequence:
#
# PCOD9431909 Si02
#       4
#     8   8   8   8
#     4  10  22  34  54  90 124 157 196 256 307 351
#     4   9  18  33  58  88 114 157 215 234 292 361
#     4   9  18  33  57  85 114 161 207 250 281 368
#     4   8  18  30  54  82 117 154 197 248 283 357
#
# _framework density 23.787312
#
# number of rings (size 3 to 8) (size 9 to 14) (size 15 to 20)
#    0.000    3.500    0.000    0.000   21.000    1.000 
#    0.000    0.000    0.000    7.500    0.000    0.000 
#    0.000    0.000    0.000    0.000    0.000    0.000 
#
# Total GULP energy -178605.005887 kJ/mol
# GULP energy per Si atom -5581.406434 kJ/mol
# Density = 2.373317 g / cm^3
# Si number density = 23.787312 Si / 1000 Ang^3
#
#
#
# Elastic Constant Matrix: (Units=GPa)
#
#
# Indices 1 2 3 4 5 6 
#
# 1 172.4191 36.6539 67.0526 0.0000 0.0000 0.0000
# 2 36.6539 31.4923 10.3318 0.0000 0.0000 0.0000
# 3 67.0526 10.3318 121.5344 0.0000 0.0000 0.0000
# 4 0.0000 0.0000 0.0000 3.7644 0.0000 0.0000
# 5 0.0000 0.0000 0.0000 0.0000 47.6822 0.0000
# 6 0.0000 0.0000 0.0000 0.0000 0.0000 30.6133
#
#
#
# Elastic Compliance Matrix: (Units=1/GPa)
#
#
# Indices 1 2 3 4 5 6 
#
# 1 0.009604 -0.009710 -0.004473 0.000000 0.000000 0.000000
# 2 -0.009710 0.042483 0.001746 0.000000 0.000000 0.000000
# 3 -0.004473 0.001746 0.010548 0.000000 0.000000 0.000000
# 4 0.000000 0.000000 0.000000 0.265647 0.000000 0.000000
# 5 0.000000 0.000000 0.000000 0.000000 0.020972 0.000000
# 6 0.000000 0.000000 0.000000 0.000000 0.000000 0.032666
#
#
# Mechanical properties :
#
#
# Convention : Reuss Voigt Hill
#
# Bulk Modulus (GPa) = 26.48375 61.50249 43.99312
# Shear Modulus (GPa) = 11.92237 30.50582 21.21410
#
# Velocity S-wave (km/s) = 2.24119 3.58500 2.98958
# Velocity P-wave (km/s) = 4.22552 6.56107 5.51827
#
# Compressibility (1/GPa) = 0.03775901
#
# Stress axis : x y z
#
# Youngs Moduli (GPa) = 104.12799 23.53903 94.80887
#
# Poissons Ratio (x) = 0.22857 0.42408
# Poissons Ratio (y) = 1.01109 -0.16551
# Poissons Ratio (z) = 0.46576 -0.04109
#
# Static dielectric constant tensor:
#      x y z
#    x 1.965650 0.000000 0.000000 
#    y 0.000000 2.062500 0.000000 
#    z 0.000000 0.000000 1.909340 
# 
# From -- ./inp_files/2536.got.cif
#   From: 2010.05.17/outbox.cif.g08.bks.cpg/sg56_2_cif.got.tgz:2536.got - 2010.06.03 13:42:01.
