data_PCOD9431514
_publ_section_title
;
Structure prediction by ZEFSAII (Michael W. Deem and Ramdas Pophale) SiO2 
 PCOD9431514
Probable space group: P C C N
;
_chemical_formula_sum "Si O2"
_cell_formula_units_Z 40
_cell_length_a 8.769367
_cell_length_b 7.247851
_cell_length_c 25.565943
_cell_angle_alpha 90.000000
_cell_angle_beta 90.000000
_cell_angle_gamma 90.000000
_cell_volume 1624.947443
_symmetry_space_group_name_H-M "P C C N"
_symmetry_group_IT_number 56
_symmetry_cell_setting 'orthorhombic'
loop_
_space_group_symop_operation_xyz
x,y,z
1/2-x,1/2-y,z
1/2+x,-y,1/2-z
-x,1/2+y,1/2-z
-x,-y,-z
1/2+x,1/2+y,-z
1/2-x,y,1/2+z
x,1/2-y,1/2+z
loop_
_atom_site_type_symbol
_atom_site_label
_atom_site_fract_x
_atom_site_fract_y
_atom_site_fract_z
Si Si1 0.619770 0.119388 0.417092
Si Si2 0.060090 0.921120 0.711369
Si Si3 0.389240 0.490360 0.187555
Si Si4 0.316130 0.041036 0.989137
Si Si5 0.866334 0.604902 0.119029
O O1 0.750000 0.250000 0.393308
O O2 0.594782 0.957440 0.374579
O O3 0.477075 0.256706 0.414584
O O4 0.697516 0.060254 0.471374
O O5 0.078514 0.708878 0.694654
O O6 0.215870 0.032947 0.706044
O O7 0.947137 0.997560 0.666430
O O8 0.001378 0.906879 0.770198
O O9 0.250000 0.250000 0.995082
O O10 0.295496 0.987453 0.928054
O O11 0.500000 0.000000 0.000000
O O12 0.750000 0.750000 0.143900
#
# Coordination Sequence:
#
# PCOD9431514 Si02
#       5
#     8   8   8   8   8
#     4  11  20  44  66  90 135 176 213 278 347 391
#     4  10  21  39  62  90 125 166 215 263 326 393
#     4  10  21  39  62  91 127 168 213 266 327 396
#     4  11  23  42  69 100 133 176 231 277 337 415
#     4  10  22  40  67  91 127 175 222 264 338 405
#
# _framework density 24.616181999999998
#
# number of rings (size 3 to 8) (size 9 to 14) (size 15 to 20)
#    0.000    1.600    6.000    0.000    5.600    3.200 
#    7.200    0.000    4.400    0.000    0.000    0.000 
#    0.000    0.000    0.000    0.000    0.000    0.000 
#
# Total GULP energy -222823.063506 kJ/mol
# GULP energy per Si atom -5570.576588 kJ/mol
# Density = 2.456015 g / cm^3
# Si number density = 24.616182 Si / 1000 Ang^3
#
#
#
# Elastic Constant Matrix: (Units=GPa)
#
#
# Indices 1 2 3 4 5 6 
#
# 1 77.7069 6.9540 21.3797 0.0000 0.0000 0.0000
# 2 6.9540 44.3855 13.5116 0.0000 0.0000 0.0000
# 3 21.3797 13.5116 153.9239 0.0000 0.0000 0.0000
# 4 0.0000 0.0000 0.0000 28.1980 0.0000 0.0000
# 5 0.0000 0.0000 0.0000 0.0000 46.2013 0.0000
# 6 0.0000 0.0000 0.0000 0.0000 0.0000 24.7046
#
#
#
# Elastic Compliance Matrix: (Units=1/GPa)
#
#
# Indices 1 2 3 4 5 6 
#
# 1 0.013488 -0.001585 -0.001734 0.000000 0.000000 0.000000
# 2 -0.001585 0.023335 -0.001828 0.000000 0.000000 0.000000
# 3 -0.001734 -0.001828 0.006898 0.000000 0.000000 0.000000
# 4 0.000000 0.000000 0.000000 0.035464 0.000000 0.000000
# 5 0.000000 0.000000 0.000000 0.000000 0.021644 0.000000
# 6 0.000000 0.000000 0.000000 0.000000 0.000000 0.040478
#
#
# Mechanical properties :
#
#
# Convention : Reuss Voigt Hill
#
# Bulk Modulus (GPa) = 29.91739 39.96741 34.94240
# Shear Modulus (GPa) = 30.72309 35.43219 33.07764
#
# Velocity S-wave (km/s) = 3.53666 3.79804 3.66968
# Velocity P-wave (km/s) = 5.37189 5.95860 5.67284
#
# Compressibility (1/GPa) = 0.03342538
#
# Stress axis : x y z
#
# Youngs Moduli (GPa) = 74.14062 42.85452 144.96780
#
# Poissons Ratio (x) = 0.06793 0.25142
# Poissons Ratio (y) = 0.11753 0.26502
# Poissons Ratio (z) = 0.12858 0.07834
#
# Static dielectric constant tensor:
#      x y z
#    x 2.838700 0.000000 0.000000 
#    y 0.000000 2.166720 0.000000 
#    z 0.000000 0.000000 2.116830 
# 
# From -- ./inp_files/21960.got.cif
#   From: 2010.05.17/outbox.cif.g08.bks.cpg/sg56_11_cif.got.tgz:21960.got - 2010.06.03 13:42:01.
