data_PCOD9431452
_publ_section_title
;
Structure prediction by ZEFSAII (Michael W. Deem and Ramdas Pophale) SiO2 
 PCOD9431452
Probable space group: P C C N
;
_chemical_formula_sum "Si O2"
_cell_formula_units_Z 56
_cell_length_a 4.749975
_cell_length_b 23.880126
_cell_length_c 21.864289
_cell_angle_alpha 90.000000
_cell_angle_beta 90.000000
_cell_angle_gamma 90.000000
_cell_volume 2480.066334
_symmetry_space_group_name_H-M "P C C N"
_symmetry_group_IT_number 56
_symmetry_cell_setting 'orthorhombic'
loop_
_space_group_symop_operation_xyz
x,y,z
1/2-x,1/2-y,z
1/2+x,-y,1/2-z
-x,1/2+y,1/2-z
-x,-y,-z
1/2+x,1/2+y,-z
1/2-x,y,1/2+z
x,1/2-y,1/2+z
loop_
_atom_site_type_symbol
_atom_site_label
_atom_site_fract_x
_atom_site_fract_y
_atom_site_fract_z
Si Si1 0.438081 0.914796 0.426775
Si Si2 0.548972 0.696545 0.332754
Si Si3 0.449910 0.593318 0.539892
Si Si4 0.152696 0.187441 0.531507
Si Si5 0.385034 0.030059 0.776440
Si Si6 0.530504 0.536798 0.099289
Si Si7 0.928475 0.370743 0.702040
O O1 0.195739 0.924568 0.476435
O O2 0.616263 0.860244 0.448791
O O3 0.321627 0.902247 0.358934
O O4 0.581053 0.975349 0.418789
O O5 0.750000 0.750000 0.323614
O O6 0.478184 0.695458 0.405265
O O7 0.270447 0.683596 0.294206
O O8 0.757366 0.646828 0.314947
O O9 0.503583 0.658702 0.526102
O O10 0.232598 0.578506 0.593596
O O11 0.738383 0.561233 0.552384
O O12 0.250000 0.250000 0.516763
O O13 0.203394 0.033674 0.837800
O O14 0.540561 0.087422 0.757873
O O15 0.643686 0.986144 0.773609
#
# Coordination Sequence:
#
# PCOD9431452 Si02
#       7
#     8   8   8   8   8   8   8
#     4  11  23  41  65 102 142 181 224 285 353 424
#     4  10  21  38  63  99 133 168 223 287 352 406
#     4  12  24  42  64  99 143 182 224 283 346 426
#     4  10  23  41  67 101 143 186 229 280 355 425
#     4  12  25  45  66  95 138 186 234 289 349 418
#     4  12  27  40  66  99 141 186 232 278 355 427
#     4  11  22  38  66  94 135 178 223 282 349 416
#
# _framework density 22.580038999999999
#
# number of rings (size 3 to 8) (size 9 to 14) (size 15 to 20)
#    0.000    0.857    4.286    3.000    2.000    0.571 
#    0.000    0.000    0.000    0.857    3.714    0.000 
#    0.000    0.000    0.000    0.000    0.000    0.000 
#
# Total GULP energy -312651.450554 kJ/mol
# GULP energy per Si atom -5583.061617 kJ/mol
# Density = 2.252865 g / cm^3
# Si number density = 22.580039 Si / 1000 Ang^3
#
#
#
# Elastic Constant Matrix: (Units=GPa)
#
#
# Indices 1 2 3 4 5 6 
#
# 1 121.1970 48.1628 25.2254 0.0000 0.0000 0.0000
# 2 48.1628 163.4676 49.2062 0.0000 0.0000 0.0000
# 3 25.2254 49.2062 72.3604 0.0000 0.0000 0.0000
# 4 0.0000 0.0000 0.0000 26.0974 0.0000 0.0000
# 5 0.0000 0.0000 0.0000 0.0000 35.8185 0.0000
# 6 0.0000 0.0000 0.0000 0.0000 0.0000 43.4376
#
#
#
# Elastic Compliance Matrix: (Units=1/GPa)
#
#
# Indices 1 2 3 4 5 6 
#
# 1 0.009523 -0.002271 -0.001775 0.000000 0.000000 0.000000
# 2 -0.002271 0.008234 -0.004807 0.000000 0.000000 0.000000
# 3 -0.001775 -0.004807 0.017708 0.000000 0.000000 0.000000
# 4 0.000000 0.000000 0.000000 0.038318 0.000000 0.000000
# 5 0.000000 0.000000 0.000000 0.000000 0.027919 0.000000
# 6 0.000000 0.000000 0.000000 0.000000 0.000000 0.023022
#
#
# Mechanical properties :
#
#
# Convention : Reuss Voigt Hill
#
# Bulk Modulus (GPa) = 56.31690 66.91264 61.61477
# Shear Modulus (GPa) = 33.70427 36.69941 35.20184
#
# Velocity S-wave (km/s) = 3.86768 4.03588 3.95268
# Velocity P-wave (km/s) = 6.70377 7.17047 6.94104
#
# Compressibility (1/GPa) = 0.01775666
#
# Stress axis : x y z
#
# Youngs Moduli (GPa) = 105.00690 121.45195 56.47308
#
# Poissons Ratio (x) = 0.27587 0.10025
# Poissons Ratio (y) = 0.23852 0.27148
# Poissons Ratio (z) = 0.18641 0.58384
#
# Static dielectric constant tensor:
#      x y z
#    x 1.902170 0.000000 0.000000 
#    y 0.000000 1.928560 0.000000 
#    z 0.000000 0.000000 1.854750 
# 
# From -- ./inp_files/17618.got.cif
#   From: 2010.05.17/outbox.cif.g08.bks.cpg/sg56_9_cif.got.tgz:17618.got - 2010.06.03 13:42:01.
