data_PCOD9431818
_publ_section_title
;
Structure prediction by ZEFSAII (Michael W. Deem and Ramdas Pophale) SiO2 
 PCOD9431818
Probable space group: P C C N
;
_chemical_formula_sum "Si O2"
_cell_formula_units_Z 36
_cell_length_a 5.910069
_cell_length_b 16.135686
_cell_length_c 15.078727
_cell_angle_alpha 90.000000
_cell_angle_beta 90.000000
_cell_angle_gamma 90.000000
_cell_volume 1437.952909
_symmetry_space_group_name_H-M "P C C N"
_symmetry_group_IT_number 56
_symmetry_cell_setting 'orthorhombic'
loop_
_space_group_symop_operation_xyz
x,y,z
1/2-x,1/2-y,z
1/2+x,-y,1/2-z
-x,1/2+y,1/2-z
-x,-y,-z
1/2+x,1/2+y,-z
1/2-x,y,1/2+z
x,1/2-y,1/2+z
loop_
_atom_site_type_symbol
_atom_site_label
_atom_site_fract_x
_atom_site_fract_y
_atom_site_fract_z
Si Si1 0.591872 0.880314 0.077493
Si Si2 0.914076 0.858708 0.916560
Si Si3 0.648927 0.623295 0.247317
Si Si4 0.250000 0.750000 0.525284
Si Si5 0.708935 0.461678 0.662840
O O1 0.780793 0.848154 0.149356
O O2 0.553106 0.975068 0.106774
O O3 0.370203 0.823653 0.079452
O O4 0.708400 0.878333 0.982044
O O5 0.055360 0.786923 0.962983
O O6 0.090235 0.933172 0.901379
O O7 0.818481 0.840233 0.819268
O O8 0.402656 0.618490 0.291345
O O9 0.694011 0.523805 0.237047
#
# Coordination Sequence:
#
# PCOD9431818 Si02
#       5
#     8   8   8   4   8
#     4  10  25  46  73 107 149 193 249 304 382 453
#     4  12  24  45  72 106 148 193 251 308 383 455
#     4  10  22  43  72 108 137 183 242 313 377 443
#     4  12  28  46  66 104 156 214 236 300 384 462
#     4  10  21  42  74 107 138 180 246 316 370 428
#
# _framework density 25.035592000000001
#
# number of rings (size 3 to 8) (size 9 to 14) (size 15 to 20)
#    1.333    0.000    2.222    2.667    0.000    9.778 
#    0.000    6.667    0.000    0.000    0.000    0.000 
#    0.000    0.000    0.000    0.000    0.000    0.000 
#
# Total GULP energy -201079.980807 kJ/mol
# GULP energy per Si atom -5585.555022 kJ/mol
# Density = 2.497861 g / cm^3
# Si number density = 25.035592 Si / 1000 Ang^3
#
#
#
# Elastic Constant Matrix: (Units=GPa)
#
#
# Indices 1 2 3 4 5 6 
#
# 1 72.7371 38.1173 25.0360 0.0000 0.0000 0.0000
# 2 38.1173 93.2745 27.2753 0.0000 0.0000 0.0000
# 3 25.0360 27.2753 116.4138 0.0000 0.0000 0.0000
# 4 0.0000 0.0000 0.0000 -189.3674 0.0000 0.0000
# 5 0.0000 0.0000 0.0000 0.0000 45.3079 0.0000
# 6 0.0000 0.0000 0.0000 0.0000 0.0000 45.8724
#
#
#
# Elastic Compliance Matrix: (Units=1/GPa)
#
#
# Indices 1 2 3 4 5 6 
#
# 1 0.018057 -0.006703 -0.002313 0.000000 0.000000 0.000000
# 2 -0.006703 0.013998 -0.001838 0.000000 0.000000 0.000000
# 3 -0.002313 -0.001838 0.009518 0.000000 0.000000 0.000000
# 4 0.000000 0.000000 0.000000 -0.005281 0.000000 0.000000
# 5 0.000000 0.000000 0.000000 0.000000 0.022071 0.000000
# 6 0.000000 0.000000 0.000000 0.000000 0.000000 0.021800
#
#
# Mechanical properties :
#
#
# Convention : Reuss Voigt Hill
#
# Bulk Modulus (GPa) = 50.33945 51.47587 50.90766
# Shear Modulus (GPa) = 46.08653 -6.83763 19.62445
#
# Velocity S-wave (km/s) = 4.29516 -1.65442 2.80279
# Velocity P-wave (km/s) = 6.68944 4.11780 5.55450
#
# Compressibility (1/GPa) = 0.01986514
#
# Stress axis : x y z
#
# Youngs Moduli (GPa) = 55.38109 71.44057 105.06277
#
# Poissons Ratio (x) = 0.47884 0.24300
# Poissons Ratio (y) = 0.37120 0.19312
# Poissons Ratio (z) = 0.12809 0.13132
#
# Static dielectric constant tensor:
#      x y z
#    x 2.060410 0.000000 0.000000 
#    y 0.000000 2.021370 0.000000 
#    z 0.000000 0.000000 1.971870 
# 
# From -- ./inp_files/9505.got.cif
#   From: 2010.05.17/outbox.cif.g08.bks.cpg/sg56_5_cif.got.tgz:9505.got - 2010.06.03 13:42:01.
