data_PCOD9431824
_publ_section_title
;
Structure prediction by ZEFSAII (Michael W. Deem and Ramdas Pophale) SiO2 
 PCOD9431824
Probable space group: P C C N
;
_chemical_formula_sum "Si O2"
_cell_formula_units_Z 32
_cell_length_a 16.885679
_cell_length_b 7.380035
_cell_length_c 11.870228
_cell_angle_alpha 90.000000
_cell_angle_beta 90.000000
_cell_angle_gamma 90.000000
_cell_volume 1479.231040
_symmetry_space_group_name_H-M "P C C N"
_symmetry_group_IT_number 56
_symmetry_cell_setting 'orthorhombic'
loop_
_space_group_symop_operation_xyz
x,y,z
1/2-x,1/2-y,z
1/2+x,-y,1/2-z
-x,1/2+y,1/2-z
-x,-y,-z
1/2+x,1/2+y,-z
1/2-x,y,1/2+z
x,1/2-y,1/2+z
loop_
_atom_site_type_symbol
_atom_site_label
_atom_site_fract_x
_atom_site_fract_y
_atom_site_fract_z
Si Si1 0.610148 0.958167 0.413454
Si Si2 0.657425 0.797820 0.093014
Si Si3 0.331320 0.653766 0.283002
Si Si4 0.433627 0.965531 0.343322
O O1 0.675675 0.041780 0.332958
O O2 0.594715 0.074344 0.527147
O O3 0.632213 0.764817 0.467719
O O4 0.527733 0.961382 0.346447
O O5 0.750000 0.750000 0.107936
O O6 0.605146 0.663751 0.172340
O O7 0.645152 0.004764 0.124595
O O8 0.250000 0.750000 0.314302
O O9 0.395813 0.810920 0.268218
#
# Coordination Sequence:
#
# PCOD9431824 Si02
#       4
#     8   8   8   8
#     4   9  23  42  62  96 127 169 217 261 327 382
#     4  10  21  43  61  92 132 160 212 277 309 379
#     4  12  23  40  69  95 126 174 214 263 327 385
#     4   9  22  45  59  94 135 160 220 267 317 383
#
# _framework density 21.632860999999998
#
# number of rings (size 3 to 8) (size 9 to 14) (size 15 to 20)
#    1.500    0.500    2.500    0.000    3.500    5.000 
#    4.500    0.000    0.000    0.000    0.000    0.000 
#    0.000    0.000    0.000    0.000    0.000    0.000 
#
# Total GULP energy -178351.497195 kJ/mol
# GULP energy per Si atom -5573.484287 kJ/mol
# Density = 2.158362 g / cm^3
# Si number density = 21.632861 Si / 1000 Ang^3
#
#
#
# Elastic Constant Matrix: (Units=GPa)
#
#
# Indices 1 2 3 4 5 6 
#
# 1 61.7165 42.7499 12.7543 0.0000 0.0000 0.0000
# 2 42.7499 138.2783 28.3786 0.0000 0.0000 0.0000
# 3 12.7543 28.3786 35.8445 0.0000 0.0000 0.0000
# 4 0.0000 0.0000 0.0000 34.0221 0.0000 0.0000
# 5 0.0000 0.0000 0.0000 0.0000 17.8020 0.0000
# 6 0.0000 0.0000 0.0000 0.0000 0.0000 32.0071
#
#
#
# Elastic Compliance Matrix: (Units=1/GPa)
#
#
# Indices 1 2 3 4 5 6 
#
# 1 0.020845 -0.005877 -0.002764 0.000000 0.000000 0.000000
# 2 -0.005877 0.010292 -0.006057 0.000000 0.000000 0.000000
# 3 -0.002764 -0.006057 0.033677 0.000000 0.000000 0.000000
# 4 0.000000 0.000000 0.000000 0.029393 0.000000 0.000000
# 5 0.000000 0.000000 0.000000 0.000000 0.056173 0.000000
# 6 0.000000 0.000000 0.000000 0.000000 0.000000 0.031243
#
#
# Mechanical properties :
#
#
# Convention : Reuss Voigt Hill
#
# Bulk Modulus (GPa) = 28.23444 44.84498 36.53971
# Shear Modulus (GPa) = 22.43902 26.89669 24.66785
#
# Velocity S-wave (km/s) = 3.22415 3.52991 3.38049
# Velocity P-wave (km/s) = 5.19040 6.11463 5.67137
#
# Compressibility (1/GPa) = 0.03541774
#
# Stress axis : x y z
#
# Youngs Moduli (GPa) = 47.97212 97.16432 29.69371
#
# Poissons Ratio (x) = 0.57106 0.08208
# Poissons Ratio (y) = 0.28194 0.17985
# Poissons Ratio (z) = 0.13260 0.58852
#
# Static dielectric constant tensor:
#      x y z
#    x 1.816090 0.000000 0.000000 
#    y 0.000000 1.773890 0.000000 
#    z 0.000000 0.000000 1.826600 
# 
# From -- ./inp_files/7518.got.cif
#   From: 2010.05.17/outbox.cif.g08.bks.cpg/sg56_4_cif.got.tgz:7518.got - 2010.06.03 13:42:01.
