data_PCOD9431612
_publ_section_title
;
Structure prediction by ZEFSAII (Michael W. Deem and Ramdas Pophale) SiO2 
 PCOD9431612
Probable space group: P C C N
;
_chemical_formula_sum "Si O2"
_cell_formula_units_Z 36
_cell_length_a 9.200761
_cell_length_b 7.360806
_cell_length_c 22.356358
_cell_angle_alpha 90.000000
_cell_angle_beta 90.000000
_cell_angle_gamma 90.000000
_cell_volume 1514.084721
_symmetry_space_group_name_H-M "P C C N"
_symmetry_group_IT_number 56
_symmetry_cell_setting 'orthorhombic'
loop_
_space_group_symop_operation_xyz
x,y,z
1/2-x,1/2-y,z
1/2+x,-y,1/2-z
-x,1/2+y,1/2-z
-x,-y,-z
1/2+x,1/2+y,-z
1/2-x,y,1/2+z
x,1/2-y,1/2+z
loop_
_atom_site_type_symbol
_atom_site_label
_atom_site_fract_x
_atom_site_fract_y
_atom_site_fract_z
Si Si1 0.737472 0.531715 0.693294
Si Si2 0.519903 0.078647 0.887948
Si Si3 0.750000 0.250000 0.297233
Si Si4 0.424303 0.037348 0.415471
Si Si5 0.268068 0.534537 0.034128
O O1 0.750000 0.750000 0.703297
O O2 0.599698 0.480959 0.651932
O O3 0.722708 0.419812 0.753616
O O4 0.874863 0.486215 0.650985
O O5 0.621487 0.183475 0.839992
O O6 0.436833 0.243816 0.920239
O O7 0.620874 0.966966 0.933870
O O8 0.584817 0.969561 0.433069
O O9 0.304739 0.985111 0.464627
O O10 0.250000 0.750000 0.043455
#
# Coordination Sequence:
#
# PCOD9431612 Si02
#       5
#     8   8   4   8   8
#     4  10  25  41  65  94 130 171 222 265 321 387
#     4  10  21  40  62  97 126 174 218 265 327 386
#     4  12  24  42  68  90 136 174 216 278 316 380
#     4   9  18  37  59  95 126 165 213 266 320 389
#     4   9  17  34  66  91 129 169 207 266 334 381
#
# _framework density 23.77674
#
# number of rings (size 3 to 8) (size 9 to 14) (size 15 to 20)
#    0.000    2.222    3.333    0.000    7.778    0.889 
#    0.000    0.000    0.000    0.000    0.000    0.000 
#    0.000    0.000    0.000    0.000    0.000    0.000 
#
# Total GULP energy -201080.353884 kJ/mol
# GULP energy per Si atom -5585.565386 kJ/mol
# Density = 2.372262 g / cm^3
# Si number density = 23.776740 Si / 1000 Ang^3
#
#
#
# Elastic Constant Matrix: (Units=GPa)
#
#
# Indices 1 2 3 4 5 6 
#
# 1 81.0810 16.2212 23.4148 0.0000 0.0000 0.0000
# 2 16.2212 73.2983 29.3285 0.0000 0.0000 0.0000
# 3 23.4148 29.3285 105.6174 0.0000 0.0000 0.0000
# 4 0.0000 0.0000 0.0000 22.6732 0.0000 0.0000
# 5 0.0000 0.0000 0.0000 0.0000 31.1637 0.0000
# 6 0.0000 0.0000 0.0000 0.0000 0.0000 1.8964
#
#
#
# Elastic Compliance Matrix: (Units=1/GPa)
#
#
# Indices 1 2 3 4 5 6 
#
# 1 0.013434 -0.002004 -0.002422 0.000000 0.000000 0.000000
# 2 -0.002004 0.015647 -0.003901 0.000000 0.000000 0.000000
# 3 -0.002422 -0.003901 0.011088 0.000000 0.000000 0.000000
# 4 0.000000 0.000000 0.000000 0.044105 0.000000 0.000000
# 5 0.000000 0.000000 0.000000 0.000000 0.032089 0.000000
# 6 0.000000 0.000000 0.000000 0.000000 0.000000 0.527328
#
#
# Mechanical properties :
#
#
# Convention : Reuss Voigt Hill
#
# Bulk Modulus (GPa) = 42.52383 44.21395 43.36889
# Shear Modulus (GPa) = 7.48299 23.88214 15.68257
#
# Velocity S-wave (km/s) = 1.77596 3.17272 2.57101
# Velocity P-wave (km/s) = 4.70413 5.66192 5.20510
#
# Compressibility (1/GPa) = 0.02351623
#
# Stress axis : x y z
#
# Youngs Moduli (GPa) = 74.44022 63.90947 90.18608
#
# Poissons Ratio (x) = 0.12807 0.21840
# Poissons Ratio (y) = 0.14917 0.35179
# Poissons Ratio (z) = 0.18027 0.24929
#
# Static dielectric constant tensor:
#      x y z
#    x 1.903780 0.000000 0.000000 
#    y 0.000000 1.913220 0.000000 
#    z 0.000000 0.000000 1.888510 
# 
# From -- ./inp_files/17897.got.cif
#   From: 2010.05.17/outbox.cif.g08.bks.cpg/sg56_9_cif.got.tgz:17897.got - 2010.06.03 13:42:01.
