data_PCOD9431397
_publ_section_title
;
Structure prediction by ZEFSAII (Michael W. Deem and Ramdas Pophale) SiO2 
 PCOD9431397
Probable space group: P C C N
;
_chemical_formula_sum "Si O2"
_cell_formula_units_Z 40
_cell_length_a 8.105346
_cell_length_b 11.090889
_cell_length_c 20.778901
_cell_angle_alpha 90.000000
_cell_angle_beta 90.000000
_cell_angle_gamma 90.000000
_cell_volume 1867.929545
_symmetry_space_group_name_H-M "P C C N"
_symmetry_group_IT_number 56
_symmetry_cell_setting 'orthorhombic'
loop_
_space_group_symop_operation_xyz
x,y,z
1/2-x,1/2-y,z
1/2+x,-y,1/2-z
-x,1/2+y,1/2-z
-x,-y,-z
1/2+x,1/2+y,-z
1/2-x,y,1/2+z
x,1/2-y,1/2+z
loop_
_atom_site_type_symbol
_atom_site_label
_atom_site_fract_x
_atom_site_fract_y
_atom_site_fract_z
Si Si1 0.659908 0.504121 0.559701
Si Si2 0.897103 0.073384 0.169318
Si Si3 0.753442 0.021865 0.303061
Si Si4 0.653517 0.368878 0.436974
Si Si5 0.919640 0.810783 0.374272
O O1 0.801771 0.494765 0.612222
O O2 0.715949 0.469231 0.488157
O O3 0.545841 0.622951 0.559485
O O4 0.529426 0.398614 0.581358
O O5 0.062235 0.004297 0.188637
O O6 0.958818 0.204389 0.147073
O O7 0.789224 0.075891 0.233689
O O8 0.852052 0.896157 0.316460
O O9 0.805780 0.103241 0.363220
O O10 0.750000 0.250000 0.456472
O O11 0.750000 0.750000 0.401318
#
# Coordination Sequence:
#
# PCOD9431397 Si02
#       5
#     8   8   8   8   8
#     4  10  21  38  60  84 113 155 198 234 293 363
#     4  11  21  38  60  83 117 154 195 241 291 357
#     4  10  22  36  57  89 117 149 196 244 295 352
#     4  10  21  38  58  85 119 151 191 245 296 346
#     4   9  19  36  59  82 110 152 196 239 292 357
#
# _framework density 21.414083999999999
#
# number of rings (size 3 to 8) (size 9 to 14) (size 15 to 20)
#    0.000    2.000    0.000    4.200    0.000    4.000 
#    0.000    7.000    0.000    3.600    0.000    0.000 
#    0.000    0.000    0.000    0.000    0.000    0.000 
#
# Total GULP energy -223224.308354 kJ/mol
# GULP energy per Si atom -5580.607709 kJ/mol
# Density = 2.136534 g / cm^3
# Si number density = 21.414084 Si / 1000 Ang^3
#
#
#
# Elastic Constant Matrix: (Units=GPa)
#
#
# Indices 1 2 3 4 5 6 
#
# 1 88.0422 22.5081 5.9090 0.0000 0.0000 0.0000
# 2 22.5081 44.0102 -24.1712 0.0000 0.0000 0.0000
# 3 5.9090 -24.1712 61.9799 0.0000 0.0000 0.0000
# 4 0.0000 0.0000 0.0000 14.4854 0.0000 0.0000
# 5 0.0000 0.0000 0.0000 0.0000 18.2246 0.0000
# 6 0.0000 0.0000 0.0000 0.0000 0.0000 50.4601
#
#
#
# Elastic Compliance Matrix: (Units=1/GPa)
#
#
# Indices 1 2 3 4 5 6 
#
# 1 0.014352 -0.010297 -0.005384 0.000000 0.000000 0.000000
# 2 -0.010297 0.036303 0.015139 0.000000 0.000000 0.000000
# 3 -0.005384 0.015139 0.022552 0.000000 0.000000 0.000000
# 4 0.000000 0.000000 0.000000 0.069035 0.000000 0.000000
# 5 0.000000 0.000000 0.000000 0.000000 0.054871 0.000000
# 6 0.000000 0.000000 0.000000 0.000000 0.000000 0.019818
#
#
# Mechanical properties :
#
#
# Convention : Reuss Voigt Hill
#
# Bulk Modulus (GPa) = 13.86517 22.50267 18.18392
# Shear Modulus (GPa) = 20.65655 29.28647 24.97151
#
# Velocity S-wave (km/s) = 3.10921 3.70216 3.41856
# Velocity P-wave (km/s) = 4.40209 5.36710 4.90837
#
# Compressibility (1/GPa) = 0.07212315
#
# Stress axis : x y z
#
# Youngs Moduli (GPa) = 69.67688 27.54604 44.34274
#
# Poissons Ratio (x) = 0.28364 0.23874
# Poissons Ratio (y) = 0.71746 -0.67131
# Poissons Ratio (z) = 0.37513 -0.41703
#
# Static dielectric constant tensor:
#      x y z
#    x 1.800900 0.000000 0.000000 
#    y 0.000000 1.829880 0.000000 
#    z 0.000000 0.000000 1.778860 
# 
# From -- ./inp_files/15393.got.cif
#   From: 2010.05.17/outbox.cif.g08.bks.cpg/sg56_8_cif.got.tgz:15393.got - 2010.06.03 13:42:01.
