data_PCOD9431378
_publ_section_title
;
Structure prediction by ZEFSAII (Michael W. Deem and Ramdas Pophale) SiO2 
 PCOD9431378
Probable space group: P C C N
;
_chemical_formula_sum "Si O2"
_cell_formula_units_Z 48
_cell_length_a 4.980997
_cell_length_b 14.062803
_cell_length_c 29.887530
_cell_angle_alpha 90.000000
_cell_angle_beta 90.000000
_cell_angle_gamma 90.000000
_cell_volume 2093.525225
_symmetry_space_group_name_H-M "P C C N"
_symmetry_group_IT_number 56
_symmetry_cell_setting 'orthorhombic'
loop_
_space_group_symop_operation_xyz
x,y,z
1/2-x,1/2-y,z
1/2+x,-y,1/2-z
-x,1/2+y,1/2-z
-x,-y,-z
1/2+x,1/2+y,-z
1/2-x,y,1/2+z
x,1/2-y,1/2+z
loop_
_atom_site_type_symbol
_atom_site_label
_atom_site_fract_x
_atom_site_fract_y
_atom_site_fract_z
Si Si1 0.405183 0.948116 0.091528
Si Si2 0.580834 0.522994 0.689837
Si Si3 0.250000 0.750000 0.487309
Si Si4 0.750000 0.250000 0.666868
Si Si5 0.929587 0.590021 0.533523
Si Si6 0.448093 0.338344 0.590204
Si Si7 0.079635 0.400332 0.714931
O O1 0.633739 0.924326 0.054436
O O2 0.131174 0.901959 0.075836
O O3 0.513865 0.933392 0.141595
O O4 0.323679 0.059262 0.090259
O O5 0.877298 0.479269 0.694257
O O6 0.549812 0.594696 0.731560
O O7 0.372768 0.437060 0.701308
O O8 0.487134 0.810920 0.509930
O O9 0.389509 0.673617 0.455112
O O10 0.644721 0.328794 0.632094
O O11 0.977928 0.300424 0.695854
O O12 0.000000 0.500000 0.500000
O O13 0.250000 0.250000 0.593996
#
# Coordination Sequence:
#
# PCOD9431378 Si02
#       7
#     8   8   4   4   8   8   8
#     4  12  24  42  67  95 133 171 227 269 335 411
#     4  10  21  40  62  92 126 177 207 263 318 405
#     4  11  26  42  63  96 134 172 225 280 340 395
#     4  11  22  36  59 104 128 162 205 278 336 381
#     4  12  26  44  66  97 129 179 224 279 340 408
#     4  11  23  37  66  96 136 165 214 288 337 393
#     4  10  21  37  63  93 133 162 214 256 335 396
#
# _framework density 22.927837
#
# number of rings (size 3 to 8) (size 9 to 14) (size 15 to 20)
#    0.000    1.000    3.333    3.500    4.667    0.000 
#    0.000    0.833    0.000    6.000    0.000    0.000 
#    0.000    0.000    0.000    0.000    0.000    0.000 
#
# Total GULP energy -268340.415817 kJ/mol
# GULP energy per Si atom -5590.425330 kJ/mol
# Density = 2.287565 g / cm^3
# Si number density = 22.927837 Si / 1000 Ang^3
#
#
#
# Elastic Constant Matrix: (Units=GPa)
#
#
# Indices 1 2 3 4 5 6 
#
# 1 77.1148 6.7778 8.5723 0.0000 0.0000 0.0000
# 2 6.7778 60.5848 32.5217 0.0000 0.0000 0.0000
# 3 8.5723 32.5217 129.6164 0.0000 0.0000 0.0000
# 4 0.0000 0.0000 0.0000 22.4019 0.0000 0.0000
# 5 0.0000 0.0000 0.0000 0.0000 27.1019 0.0000
# 6 0.0000 0.0000 0.0000 0.0000 0.0000 34.2167
#
#
#
# Elastic Compliance Matrix: (Units=1/GPa)
#
#
# Indices 1 2 3 4 5 6 
#
# 1 0.013134 -0.001159 -0.000578 0.000000 0.000000 0.000000
# 2 -0.001159 0.019177 -0.004735 0.000000 0.000000 0.000000
# 3 -0.000578 -0.004735 0.008941 0.000000 0.000000 0.000000
# 4 0.000000 0.000000 0.000000 0.044639 0.000000 0.000000
# 5 0.000000 0.000000 0.000000 0.000000 0.036898 0.000000
# 6 0.000000 0.000000 0.000000 0.000000 0.000000 0.029225
#
#
# Mechanical properties :
#
#
# Convention : Reuss Voigt Hill
#
# Bulk Modulus (GPa) = 35.32522 40.33995 37.83258
# Shear Modulus (GPa) = 28.67060 31.37373 30.02217
#
# Velocity S-wave (km/s) = 3.54004 3.70316 3.62252
# Velocity P-wave (km/s) = 5.67007 5.99308 5.83381
#
# Compressibility (1/GPa) = 0.02830839
#
# Stress axis : x y z
#
# Youngs Moduli (GPa) = 76.13949 52.14524 111.84013
#
# Poissons Ratio (x) = 0.06045 0.06462
# Poissons Ratio (y) = 0.08826 0.52957
# Poissons Ratio (z) = 0.04399 0.24691
#
# Static dielectric constant tensor:
#      x y z
#    x 1.901750 0.000000 0.000000 
#    y 0.000000 2.038800 0.000000 
#    z 0.000000 0.000000 1.906430 
# 
# From -- ./inp_files/22838.got.cif
#   From: 2010.05.17/outbox.cif.g08.bks.cpg/sg56_12_cif.got.tgz:22838.got - 2010.06.03 13:42:01.
