data_PCOD9431450
_publ_section_title
;
Structure prediction by ZEFSAII (Michael W. Deem and Ramdas Pophale) SiO2 
 PCOD9431450
Probable space group: P C C N
;
_chemical_formula_sum "Si O2"
_cell_formula_units_Z 52
_cell_length_a 24.530195
_cell_length_b 8.325759
_cell_length_c 8.863075
_cell_angle_alpha 90.000000
_cell_angle_beta 90.000000
_cell_angle_gamma 90.000000
_cell_volume 1810.127892
_symmetry_space_group_name_H-M "P C C N"
_symmetry_group_IT_number 56
_symmetry_cell_setting 'orthorhombic'
loop_
_space_group_symop_operation_xyz
x,y,z
1/2-x,1/2-y,z
1/2+x,-y,1/2-z
-x,1/2+y,1/2-z
-x,-y,-z
1/2+x,1/2+y,-z
1/2-x,y,1/2+z
x,1/2-y,1/2+z
loop_
_atom_site_type_symbol
_atom_site_label
_atom_site_fract_x
_atom_site_fract_y
_atom_site_fract_z
Si Si1 0.575678 0.965696 0.316295
Si Si2 0.117941 0.984059 0.739610
Si Si3 0.730880 0.006318 0.994192
Si Si4 0.595337 0.309380 0.577051
Si Si5 0.829606 0.773380 0.911568
Si Si6 0.991693 0.818039 0.225484
Si Si7 0.750000 0.250000 0.757719
O O1 0.535803 0.099571 0.386132
O O2 0.611452 0.854821 0.423471
O O3 0.536607 0.853952 0.213881
O O4 0.615050 0.062781 0.205528
O O5 0.159466 0.136014 0.720953
O O6 0.059354 0.066409 0.763765
O O7 0.106349 0.884905 0.584522
O O8 0.031430 0.693201 0.871721
O O9 0.783965 0.913057 0.923891
O O10 0.691130 0.858343 0.029376
O O11 0.736934 0.107713 0.143378
O O12 0.713764 0.145806 0.874757
O O13 0.625204 0.144350 0.625158
#
# Coordination Sequence:
#
# PCOD9431450 Si02
#       7
#     8   8   8   8   8   8   4
#     4   9  19  37  63  92 134 180 232 283 346 404
#     4  11  22  40  65  95 137 184 233 289 345 407
#     4  10  24  48  74 105 140 175 230 283 353 416
#     4  10  21  38  63  93 134 179 235 285 343 405
#     4  10  24  42  70 102 141 182 226 287 350 420
#     4   9  17  38  61  89 131 181 231 289 340 405
#     4  10  24  48  80 100 134 182 220 290 350 414
#
# _framework density 28.727253999999999
#
# number of rings (size 3 to 8) (size 9 to 14) (size 15 to 20)
#    0.923    1.231    1.538    0.462    0.000    8.615 
#    0.000   10.769    0.000    0.000    0.000    0.000 
#    0.000    0.000    0.000    0.000    0.000    0.000 
#
# Total GULP energy -290191.438759 kJ/mol
# GULP energy per Si atom -5580.604592 kJ/mol
# Density = 2.866187 g / cm^3
# Si number density = 28.727254 Si / 1000 Ang^3
#
#
#
# Elastic Constant Matrix: (Units=GPa)
#
#
# Indices 1 2 3 4 5 6 
#
# 1 96.1378 75.2927 -4.5114 0.0000 0.0000 0.0000
# 2 75.2927 220.0951 66.8562 0.0000 0.0000 0.0000
# 3 -4.5114 66.8562 105.9942 0.0000 0.0000 0.0000
# 4 0.0000 0.0000 0.0000 59.8387 0.0000 0.0000
# 5 0.0000 0.0000 0.0000 0.0000 15.4273 0.0000
# 6 0.0000 0.0000 0.0000 0.0000 0.0000 57.6490
#
#
#
# Elastic Compliance Matrix: (Units=1/GPa)
#
#
# Indices 1 2 3 4 5 6 
#
# 1 0.016226 -0.007126 0.005185 0.000000 0.000000 0.000000
# 2 -0.007126 0.008750 -0.005822 0.000000 0.000000 0.000000
# 3 0.005185 -0.005822 0.013328 0.000000 0.000000 0.000000
# 4 0.000000 0.000000 0.000000 0.016712 0.000000 0.000000
# 5 0.000000 0.000000 0.000000 0.000000 0.064820 0.000000
# 6 0.000000 0.000000 0.000000 0.000000 0.000000 0.017346
#
#
# Mechanical properties :
#
#
# Convention : Reuss Voigt Hill
#
# Bulk Modulus (GPa) = 43.90291 77.50022 60.70157
# Shear Modulus (GPa) = 31.19165 45.55562 38.37363
#
# Velocity S-wave (km/s) = 3.29870 3.98653 3.65881
# Velocity P-wave (km/s) = 5.46117 6.94452 6.24703
#
# Compressibility (1/GPa) = 0.02277753
#
# Stress axis : x y z
#
# Youngs Moduli (GPa) = 61.63034 114.28951 75.03256
#
# Poissons Ratio (x) = 0.81440 -0.38906
# Poissons Ratio (y) = 0.43916 0.43685
# Poissons Ratio (z) = -0.31957 0.66542
#
# Static dielectric constant tensor:
#      x y z
#    x 2.353560 0.000000 0.000000 
#    y 0.000000 2.247740 0.000000 
#    z 0.000000 0.000000 2.228080 
# 
# From -- ./inp_files/9059.got.cif
#   From: 2010.05.17/outbox.cif.g08.bks.cpg/sg56_5_cif.got.tgz:9059.got - 2010.06.03 13:42:01.
