data_PCOD9431488
_publ_section_title
;
Structure prediction by ZEFSAII (Michael W. Deem and Ramdas Pophale) SiO2 
 PCOD9431488
Probable space group: P C C N
;
_chemical_formula_sum "Si O2"
_cell_formula_units_Z 52
_cell_length_a 25.773842
_cell_length_b 11.225927
_cell_length_c 8.696305
_cell_angle_alpha 90.000000
_cell_angle_beta 90.000000
_cell_angle_gamma 90.000000
_cell_volume 2516.147745
_symmetry_space_group_name_H-M "P C C N"
_symmetry_group_IT_number 56
_symmetry_cell_setting 'orthorhombic'
loop_
_space_group_symop_operation_xyz
x,y,z
1/2-x,1/2-y,z
1/2+x,-y,1/2-z
-x,1/2+y,1/2-z
-x,-y,-z
1/2+x,1/2+y,-z
1/2-x,y,1/2+z
x,1/2-y,1/2+z
loop_
_atom_site_type_symbol
_atom_site_label
_atom_site_fract_x
_atom_site_fract_y
_atom_site_fract_z
Si Si1 0.050188 0.578214 0.548439
Si Si2 0.750000 0.250000 0.448864
Si Si3 0.570874 0.232448 0.729435
Si Si4 0.364113 0.404029 0.916885
Si Si5 0.315528 0.626028 0.795460
Si Si6 0.978994 0.618571 0.083497
Si Si7 0.088959 0.264204 0.662664
O O1 0.057899 0.632507 0.718543
O O2 0.057422 0.696226 0.443908
O O3 0.097446 0.498730 0.493884
O O4 0.000000 0.500000 0.500000
O O5 0.794320 0.303334 0.557077
O O6 0.725110 0.350091 0.340057
O O7 0.629621 0.186278 0.753839
O O8 0.530024 0.156585 0.824907
O O9 0.320368 0.488230 0.845072
O O10 0.391862 0.338137 0.776359
O O11 0.363063 0.309719 0.056941
O O12 0.953267 0.706133 0.954133
O O13 0.936621 0.635336 0.224914
O O14 0.000000 0.500000 0.000000
#
# Coordination Sequence:
#
# PCOD9431488 Si02
#       7
#     8   4   8   8   8   8   8
#     4  11  22  35  52  79 119 161 200 247 285 333
#     4  10  22  42  68  94 116 138 188 254 328 386
#     4  11  22  35  55  83 116 155 203 237 290 365
#     4  10  21  39  59  83 118 157 199 243 297 354
#     4  10  21  41  65  90 117 148 186 253 319 374
#     4  11  21  35  54  82 122 167 206 244 281 328
#     4  10  22  37  56  85 123 165 207 245 280 345
#
# _framework density 20.666513999999999
#
# number of rings (size 3 to 8) (size 9 to 14) (size 15 to 20)
#    0.000    1.538    0.000    7.385    0.000    3.692 
#    0.000   14.615    0.000    2.769    0.000    0.000 
#    0.000    0.000    0.000    0.000    0.000    0.000 
#
# Total GULP energy -289585.753368 kJ/mol
# GULP energy per Si atom -5568.956796 kJ/mol
# Density = 2.061948 g / cm^3
# Si number density = 20.666514 Si / 1000 Ang^3
#
#
#
# Elastic Constant Matrix: (Units=GPa)
#
#
# Indices 1 2 3 4 5 6 
#
# 1 44.5927 19.4477 18.7812 0.0000 0.0000 0.0000
# 2 19.4477 81.7579 39.6476 0.0000 0.0000 0.0000
# 3 18.7812 39.6476 116.2420 0.0000 0.0000 0.0000
# 4 0.0000 0.0000 0.0000 34.1739 0.0000 0.0000
# 5 0.0000 0.0000 0.0000 0.0000 12.9184 0.0000
# 6 0.0000 0.0000 0.0000 0.0000 0.0000 33.9716
#
#
#
# Elastic Compliance Matrix: (Units=1/GPa)
#
#
# Indices 1 2 3 4 5 6 
#
# 1 0.025598 -0.004893 -0.002467 0.000000 0.000000 0.000000
# 2 -0.004893 0.015590 -0.004527 0.000000 0.000000 0.000000
# 3 -0.002467 -0.004527 0.010545 0.000000 0.000000 0.000000
# 4 0.000000 0.000000 0.000000 0.029262 0.000000 0.000000
# 5 0.000000 0.000000 0.000000 0.000000 0.077409 0.000000
# 6 0.000000 0.000000 0.000000 0.000000 0.000000 0.029436
#
#
# Mechanical properties :
#
#
# Convention : Reuss Voigt Hill
#
# Bulk Modulus (GPa) = 35.76496 44.26065 40.01280
# Shear Modulus (GPa) = 22.63113 27.19385 24.91249
#
# Velocity S-wave (km/s) = 3.31276 3.63139 3.47573
# Velocity P-wave (km/s) = 5.65472 6.24866 5.95909
#
# Compressibility (1/GPa) = 0.02796033
#
# Stress axis : x y z
#
# Youngs Moduli (GPa) = 39.06550 64.14219 94.82780
#
# Poissons Ratio (x) = 0.31382 0.23395
# Poissons Ratio (y) = 0.19113 0.42929
# Poissons Ratio (z) = 0.09638 0.29037
#
# Static dielectric constant tensor:
#      x y z
#    x 1.847420 0.000000 0.000000 
#    y 0.000000 1.895310 0.000000 
#    z 0.000000 0.000000 1.957580 
# 
# From -- ./inp_files/4954.got.cif
#   From: 2010.05.17/outbox.cif.g08.bks.cpg/sg56_3_cif.got.tgz:4954.got - 2010.06.03 13:42:01.
