data_PCOD9431827
_publ_section_title
;
Structure prediction by ZEFSAII (Michael W. Deem and Ramdas Pophale) SiO2 
 PCOD9431827
Probable space group: P C C N
;
_chemical_formula_sum "Si O2"
_cell_formula_units_Z 56
_cell_length_a 12.537076
_cell_length_b 19.333634
_cell_length_c 11.294915
_cell_angle_alpha 90.000000
_cell_angle_beta 90.000000
_cell_angle_gamma 90.000000
_cell_volume 2737.743259
_symmetry_space_group_name_H-M "P C C N"
_symmetry_group_IT_number 56
_symmetry_cell_setting 'orthorhombic'
loop_
_space_group_symop_operation_xyz
x,y,z
1/2-x,1/2-y,z
1/2+x,-y,1/2-z
-x,1/2+y,1/2-z
-x,-y,-z
1/2+x,1/2+y,-z
1/2-x,y,1/2+z
x,1/2-y,1/2+z
loop_
_atom_site_type_symbol
_atom_site_label
_atom_site_fract_x
_atom_site_fract_y
_atom_site_fract_z
Si Si1 0.458571 0.804880 0.363248
Si Si2 0.552589 0.501147 0.365285
Si Si3 0.250000 0.250000 0.297642
Si Si4 0.733269 0.885035 0.866318
Si Si5 0.394847 0.650605 0.614378
Si Si6 0.540450 0.542375 0.884875
Si Si7 0.250000 0.750000 0.992913
Si Si8 0.599149 0.790763 0.010646
O O1 0.435049 0.805242 0.225355
O O2 0.476393 0.885210 0.391301
O O3 0.353482 0.773450 0.421956
O O4 0.560212 0.761843 0.409183
O O5 0.500000 0.500000 0.500000
O O6 0.631519 0.565399 0.344418
O O7 0.618835 0.429639 0.361738
O O8 0.479506 0.492769 0.245675
O O9 0.248107 0.176413 0.228617
O O10 0.142714 0.250069 0.376894
O O11 0.836394 0.932535 0.886669
O O12 0.697424 0.839863 0.978647
O O13 0.288406 0.685068 0.568428
O O14 0.496089 0.661102 0.528845
O O15 0.500000 0.500000 0.000000
#
# Coordination Sequence:
#
# PCOD9431827 Si02
#       8
#     8   8   4   8   8   8   4   8
#     4  10  22  43  64 100 135 176 234 290 350 418
#     4  11  25  47  70  98 140 189 234 284 352 433
#     4  12  24  40  68 108 130 186 230 300 364 418
#     4  12  26  44  72 102 142 189 235 300 366 423
#     4  10  21  43  63  96 137 175 235 284 340 428
#     4  11  27  46  67 103 142 178 235 295 348 427
#     4  10  22  38  70  98 132 182 222 290 350 416
#     4  11  22  40  71  96 137 176 238 288 356 421
#
# _framework density 20.454802000000001
#
# number of rings (size 3 to 8) (size 9 to 14) (size 15 to 20)
#    0.000    1.143    1.429    5.143    6.000    0.000 
#    2.571    0.000    0.000    0.000    0.000    0.000 
#    0.000    0.000    0.000    0.000    0.000    0.000 
#
# Total GULP energy -312082.658475 kJ/mol
# GULP energy per Si atom -5572.904616 kJ/mol
# Density = 2.040825 g / cm^3
# Si number density = 20.454802 Si / 1000 Ang^3
#
#
#
# Elastic Constant Matrix: (Units=GPa)
#
#
# Indices 1 2 3 4 5 6 
#
# 1 115.4182 51.2685 47.3677 0.0000 0.0000 0.0000
# 2 51.2685 91.4268 47.3687 0.0000 0.0000 0.0000
# 3 47.3677 47.3687 101.6774 0.0000 0.0000 0.0000
# 4 0.0000 0.0000 0.0000 26.0752 0.0000 0.0000
# 5 0.0000 0.0000 0.0000 0.0000 27.5796 0.0000
# 6 0.0000 0.0000 0.0000 0.0000 0.0000 40.8882
#
#
#
# Elastic Compliance Matrix: (Units=1/GPa)
#
#
# Indices 1 2 3 4 5 6 
#
# 1 0.012337 -0.005194 -0.003328 0.000000 0.000000 0.000000
# 2 -0.005194 0.016605 -0.005316 0.000000 0.000000 0.000000
# 3 -0.003328 -0.005316 0.013862 0.000000 0.000000 0.000000
# 4 0.000000 0.000000 0.000000 0.038351 0.000000 0.000000
# 5 0.000000 0.000000 0.000000 0.000000 0.036259 0.000000
# 6 0.000000 0.000000 0.000000 0.000000 0.000000 0.024457
#
#
# Mechanical properties :
#
#
# Convention : Reuss Voigt Hill
#
# Bulk Modulus (GPa) = 66.10156 66.72580 66.41368
# Shear Modulus (GPa) = 28.63899 29.74309 29.19104
#
# Velocity S-wave (km/s) = 3.74586 3.81739 3.78180
# Velocity P-wave (km/s) = 7.14806 7.21955 7.18389
#
# Compressibility (1/GPa) = 0.01512824
#
# Stress axis : x y z
#
# Youngs Moduli (GPa) = 81.05720 60.22462 72.14106
#
# Poissons Ratio (x) = 0.31281 0.24005
# Poissons Ratio (y) = 0.42102 0.38349
# Poissons Ratio (z) = 0.26972 0.32015
#
# Static dielectric constant tensor:
#      x y z
#    x 1.754180 0.000000 0.000000 
#    y 0.000000 1.823850 0.000000 
#    z 0.000000 0.000000 1.816250 
# 
# From -- ./inp_files/7287.got.cif
#   From: 2010.05.17/outbox.cif.g08.bks.cpg/sg56_4_cif.got.tgz:7287.got - 2010.06.03 13:42:01.
