data_PCOD9431207
_publ_section_title
;
Structure prediction by ZEFSAII (Michael W. Deem and Ramdas Pophale) SiO2 
 PCOD9431207
Probable space group: P C C N
;
_chemical_formula_sum "Si O2"
_cell_formula_units_Z 56
_cell_length_a 11.927950
_cell_length_b 10.292323
_cell_length_c 19.286203
_cell_angle_alpha 90.000000
_cell_angle_beta 90.000000
_cell_angle_gamma 90.000000
_cell_volume 2367.696056
_symmetry_space_group_name_H-M "P C C N"
_symmetry_group_IT_number 56
_symmetry_cell_setting 'orthorhombic'
loop_
_space_group_symop_operation_xyz
x,y,z
1/2-x,1/2-y,z
1/2+x,-y,1/2-z
-x,1/2+y,1/2-z
-x,-y,-z
1/2+x,1/2+y,-z
1/2-x,y,1/2+z
x,1/2-y,1/2+z
loop_
_atom_site_type_symbol
_atom_site_label
_atom_site_fract_x
_atom_site_fract_y
_atom_site_fract_z
Si Si1 0.832654 0.509304 0.696790
Si Si2 0.502138 0.168277 0.637962
Si Si3 0.380290 0.476721 0.395696
Si Si4 0.589736 0.810159 0.576135
Si Si5 0.122218 0.775216 0.492069
Si Si6 0.109495 0.050788 0.653034
Si Si7 0.202986 0.101944 0.058459
O O1 0.716763 0.480108 0.657352
O O2 0.891566 0.620976 0.649656
O O3 0.819977 0.544195 0.776705
O O4 0.921395 0.391939 0.696413
O O5 0.586968 0.187870 0.574028
O O6 0.445172 0.305575 0.652752
O O7 0.400085 0.080839 0.611005
O O8 0.353994 0.332643 0.422607
O O9 0.392866 0.580755 0.457993
O O10 0.498441 0.465504 0.355853
O O11 0.465146 0.772284 0.550073
O O12 0.645816 0.901751 0.516906
O O13 0.250000 0.750000 0.511013
O O14 0.191427 0.024427 0.588119
O O15 0.250000 0.250000 0.064601
#
# Coordination Sequence:
#
# PCOD9431207 Si02
#       7
#     8   8   8   8   8   8   8
#     4  12  25  41  68 100 134 180 227 297 330 425
#     4   9  21  41  66  89 131 177 226 270 352 404
#     4  11  24  43  69  98 137 180 228 288 346 409
#     4  11  25  41  66 106 136 176 240 283 339 409
#     4  10  20  44  65  97 137 182 220 288 357 404
#     4  10  25  42  69  96 134 186 226 279 352 414
#     4   9  19  41  65  94 130 173 223 277 329 406
#
# _framework density 23.651682999999998
#
# number of rings (size 3 to 8) (size 9 to 14) (size 15 to 20)
#    0.000    1.714    1.429    2.571    4.000    5.714 
#    7.714    0.000    0.000    0.000    0.000    0.000 
#    0.000    0.000    0.000    0.000    0.000    0.000 
#
# Total GULP energy -312898.745622 kJ/mol
# GULP energy per Si atom -5587.477600 kJ/mol
# Density = 2.359785 g / cm^3
# Si number density = 23.651683 Si / 1000 Ang^3
#
#
#
# Elastic Constant Matrix: (Units=GPa)
#
#
# Indices 1 2 3 4 5 6 
#
# 1 145.9620 16.0473 55.7309 0.0000 0.0000 0.0000
# 2 16.0473 56.8034 17.7358 0.0000 0.0000 0.0000
# 3 55.7309 17.7358 112.1751 0.0000 0.0000 0.0000
# 4 0.0000 0.0000 0.0000 14.3429 0.0000 0.0000
# 5 0.0000 0.0000 0.0000 0.0000 28.2008 0.0000
# 6 0.0000 0.0000 0.0000 0.0000 0.0000 21.0374
#
#
#
# Elastic Compliance Matrix: (Units=1/GPa)
#
#
# Indices 1 2 3 4 5 6 
#
# 1 0.008525 -0.001142 -0.004055 0.000000 0.000000 0.000000
# 2 -0.001142 0.018672 -0.002385 0.000000 0.000000 0.000000
# 3 -0.004055 -0.002385 0.011306 0.000000 0.000000 0.000000
# 4 0.000000 0.000000 0.000000 0.069721 0.000000 0.000000
# 5 0.000000 0.000000 0.000000 0.000000 0.035460 0.000000
# 6 0.000000 0.000000 0.000000 0.000000 0.000000 0.047534
#
#
# Mechanical properties :
#
#
# Convention : Reuss Voigt Hill
#
# Bulk Modulus (GPa) = 42.84582 54.88538 48.86560
# Shear Modulus (GPa) = 23.34687 27.74464 25.54575
#
# Velocity S-wave (km/s) = 3.14524 3.42870 3.29003
# Velocity P-wave (km/s) = 5.59864 6.23945 5.92771
#
# Compressibility (1/GPa) = 0.02333950
#
# Stress axis : x y z
#
# Youngs Moduli (GPa) = 117.30412 53.55651 88.44753
#
# Poissons Ratio (x) = 0.06118 0.35863
# Poissons Ratio (y) = 0.13400 0.21092
# Poissons Ratio (z) = 0.47563 0.12771
#
# Static dielectric constant tensor:
#      x y z
#    x 1.923690 0.000000 0.000000 
#    y 0.000000 1.959540 0.000000 
#    z 0.000000 0.000000 1.874250 
# 
# From -- ./inp_files/18730.got.cif
#   From: 2010.05.17/outbox.cif.g08.bks.cpg/sg56_10_cif.got.tgz:18730.got - 2010.06.03 13:42:01.
