data_PCOD9431346
_publ_section_title
;
Structure prediction by ZEFSAII (Michael W. Deem and Ramdas Pophale) SiO2 
 PCOD9431346
Probable space group: P C C N
;
_chemical_formula_sum "Si O2"
_cell_formula_units_Z 56
_cell_length_a 4.948378
_cell_length_b 17.128627
_cell_length_c 32.392087
_cell_angle_alpha 90.000000
_cell_angle_beta 90.000000
_cell_angle_gamma 90.000000
_cell_volume 2745.518344
_symmetry_space_group_name_H-M "P C C N"
_symmetry_group_IT_number 56
_symmetry_cell_setting 'orthorhombic'
loop_
_space_group_symop_operation_xyz
x,y,z
1/2-x,1/2-y,z
1/2+x,-y,1/2-z
-x,1/2+y,1/2-z
-x,-y,-z
1/2+x,1/2+y,-z
1/2-x,y,1/2+z
x,1/2-y,1/2+z
loop_
_atom_site_type_symbol
_atom_site_label
_atom_site_fract_x
_atom_site_fract_y
_atom_site_fract_z
Si Si1 0.776704 0.061057 0.958623
Si Si2 0.192293 0.337550 0.178954
Si Si3 0.004621 0.194850 0.405639
Si Si4 0.810013 0.337409 0.623402
Si Si5 0.269517 0.540171 0.448392
Si Si6 0.429362 0.446702 0.249025
Si Si7 0.508791 0.693288 0.688314
O O1 0.614558 0.128823 0.935412
O O2 0.576250 0.987625 0.953808
O O3 0.812728 0.076712 0.007339
O O4 0.067226 0.033656 0.941625
O O5 0.250000 0.250000 0.195267
O O6 0.384297 0.343756 0.138934
O O7 0.289878 0.400506 0.211530
O O8 0.887114 0.346514 0.163134
O O9 0.750000 0.250000 0.399444
O O10 0.250000 0.250000 0.420981
O O11 0.071686 0.166873 0.359026
O O12 0.750000 0.250000 0.607798
O O13 0.754018 0.400749 0.588931
O O14 0.695289 0.494342 0.235762
O O15 0.511804 0.382503 0.283096
O O16 0.750000 0.750000 0.701839
O O17 0.250000 0.750000 0.690151
#
# Coordination Sequence:
#
# PCOD9431346 Si02
#       7
#     8   8   8   8   8   8   8
#     4  10  21  37  58  85 119 156 189 230 292 350
#     4  10  22  40  60  82 116 157 192 235 296 353
#     4  10  21  38  60  86 111 145 193 236 279 337
#     4  10  21  38  60  86 113 151 201 242 282 340
#     4  10  21  37  57  84 119 156 190 231 289 347
#     4  12  25  39  60  92 119 146 195 246 289 344
#     4  10  22  41  62  83 116 157 191 233 296 356
#
# _framework density 20.396875999999999
#
# number of rings (size 3 to 8) (size 9 to 14) (size 15 to 20)
#    0.000    1.714    0.000    3.857    0.000    5.714 
#    0.000    2.143    0.000    0.000    0.000    0.000 
#    0.000    0.000    0.000    0.000    0.000    0.000 
#
# Total GULP energy -312702.074637 kJ/mol
# GULP energy per Si atom -5583.965619 kJ/mol
# Density = 2.035045 g / cm^3
# Si number density = 20.396876 Si / 1000 Ang^3
#
#
#
# Elastic Constant Matrix: (Units=GPa)
#
#
# Indices 1 2 3 4 5 6 
#
# 1 99.9012 17.0017 -0.5081 0.0000 0.0000 0.0000
# 2 17.0017 90.8790 49.8354 0.0000 0.0000 0.0000
# 3 -0.5081 49.8354 60.1516 0.0000 0.0000 0.0000
# 4 0.0000 0.0000 0.0000 41.3448 0.0000 0.0000
# 5 0.0000 0.0000 0.0000 0.0000 19.3781 0.0000
# 6 0.0000 0.0000 0.0000 0.0000 0.0000 34.4413
#
#
#
# Elastic Compliance Matrix: (Units=1/GPa)
#
#
# Indices 1 2 3 4 5 6 
#
# 1 0.010664 -0.003747 0.003194 0.000000 0.000000 0.000000
# 2 -0.003747 0.021481 -0.017829 0.000000 0.000000 0.000000
# 3 0.003194 -0.017829 0.031423 0.000000 0.000000 0.000000
# 4 0.000000 0.000000 0.000000 0.024187 0.000000 0.000000
# 5 0.000000 0.000000 0.000000 0.000000 0.051605 0.000000
# 6 0.000000 0.000000 0.000000 0.000000 0.000000 0.029035
#
#
# Mechanical properties :
#
#
# Convention : Reuss Voigt Hill
#
# Bulk Modulus (GPa) = 37.30613 42.62107 39.96360
# Shear Modulus (GPa) = 23.35443 31.33971 27.34707
#
# Velocity S-wave (km/s) = 3.38746 3.92407 3.66559
# Velocity P-wave (km/s) = 5.79911 6.43990 6.12789
#
# Compressibility (1/GPa) = 0.02680525
#
# Stress axis : x y z
#
# Youngs Moduli (GPa) = 93.77574 46.55190 31.82398
#
# Poissons Ratio (x) = 0.17441 -0.10165
# Poissons Ratio (y) = 0.35133 0.56739
# Poissons Ratio (z) = -0.29952 0.82997
#
# Static dielectric constant tensor:
#      x y z
#    x 1.687620 0.000000 0.000000 
#    y 0.000000 1.760290 0.000000 
#    z 0.000000 0.000000 1.732750 
# 
# From -- ./inp_files/22867.got.cif
#   From: 2010.05.17/outbox.cif.g08.bks.cpg/sg56_12_cif.got.tgz:22867.got - 2010.06.03 13:42:01.
