data_PCOD9431543
_publ_section_title
;
Structure prediction by ZEFSAII (Michael W. Deem and Ramdas Pophale) SiO2 
 PCOD9431543
Probable space group: P C C N
;
_chemical_formula_sum "Si O2"
_cell_formula_units_Z 40
_cell_length_a 10.887979
_cell_length_b 26.496159
_cell_length_c 5.533422
_cell_angle_alpha 90.000000
_cell_angle_beta 90.000000
_cell_angle_gamma 90.000000
_cell_volume 1596.334825
_symmetry_space_group_name_H-M "P C C N"
_symmetry_group_IT_number 56
_symmetry_cell_setting 'orthorhombic'
loop_
_space_group_symop_operation_xyz
x,y,z
1/2-x,1/2-y,z
1/2+x,-y,1/2-z
-x,1/2+y,1/2-z
-x,-y,-z
1/2+x,1/2+y,-z
1/2-x,y,1/2+z
x,1/2-y,1/2+z
loop_
_atom_site_type_symbol
_atom_site_label
_atom_site_fract_x
_atom_site_fract_y
_atom_site_fract_z
Si Si1 0.720295 0.869895 0.076701
Si Si2 0.443306 0.884735 0.243029
Si Si3 0.178888 0.517651 0.049200
Si Si4 0.610358 0.230198 0.731042
Si Si5 0.443061 0.448609 0.880767
O O1 0.765950 0.843340 0.319954
O O2 0.577633 0.879534 0.123870
O O3 0.813578 0.918980 0.057487
O O4 0.370087 0.926049 0.091216
O O5 0.386238 0.829978 0.253503
O O6 0.462912 0.907410 0.513893
O O7 0.273953 0.512919 0.276593
O O8 0.086612 0.472352 0.120527
O O9 0.750000 0.250000 0.724159
O O10 0.552113 0.247783 0.477107
O O11 0.500000 0.500000 0.000000
#
# Coordination Sequence:
#
# PCOD9431543 Si02
#       5
#     8   8   8   8   8
#     4  10  21  39  64  94 133 179 231 275 341 405
#     4  10  23  41  70  97 136 190 226 291 362 416
#     4  11  24  38  62  98 142 180 236 278 341 427
#     4  10  24  43  68  95 135 172 236 296 359 421
#     4   9  20  41  63  96 134 180 226 276 337 415
#
# _framework density 25.057402
#
# number of rings (size 3 to 8) (size 9 to 14) (size 15 to 20)
#    0.000    2.000    0.000    2.400    5.600    8.000 
#    0.000   11.000    0.000   14.400    0.000    0.000 
#    0.000    0.000    0.000    0.000    0.000    0.000 
#
# Total GULP energy -223137.212262 kJ/mol
# GULP energy per Si atom -5578.430307 kJ/mol
# Density = 2.500037 g / cm^3
# Si number density = 25.057402 Si / 1000 Ang^3
#
#
#
# Elastic Constant Matrix: (Units=GPa)
#
#
# Indices 1 2 3 4 5 6 
#
# 1 64.6479 28.0282 32.2740 0.0000 0.0000 0.0000
# 2 28.0282 150.3927 22.1653 0.0000 0.0000 0.0000
# 3 32.2740 22.1653 195.2115 0.0000 0.0000 0.0000
# 4 0.0000 0.0000 0.0000 27.3476 0.0000 0.0000
# 5 0.0000 0.0000 0.0000 0.0000 54.6025 0.0000
# 6 0.0000 0.0000 0.0000 0.0000 0.0000 32.0660
#
#
#
# Elastic Compliance Matrix: (Units=1/GPa)
#
#
# Indices 1 2 3 4 5 6 
#
# 1 0.018084 -0.002979 -0.002651 0.000000 0.000000 0.000000
# 2 -0.002979 0.007253 -0.000331 0.000000 0.000000 0.000000
# 3 -0.002651 -0.000331 0.005599 0.000000 0.000000 0.000000
# 4 0.000000 0.000000 0.000000 0.036566 0.000000 0.000000
# 5 0.000000 0.000000 0.000000 0.000000 0.018314 0.000000
# 6 0.000000 0.000000 0.000000 0.000000 0.000000 0.031186
#
#
# Mechanical properties :
#
#
# Convention : Reuss Voigt Hill
#
# Bulk Modulus (GPa) = 52.59855 63.90968 58.25411
# Shear Modulus (GPa) = 36.96502 44.65552 40.81027
#
# Velocity S-wave (km/s) = 3.84502 4.22611 4.04006
# Velocity P-wave (km/s) = 6.38349 7.02666 6.71279
#
# Compressibility (1/GPa) = 0.01901193
#
# Stress axis : x y z
#
# Youngs Moduli (GPa) = 55.29798 137.86804 178.61622
#
# Poissons Ratio (x) = 0.41077 0.47360
# Poissons Ratio (y) = 0.16476 0.05912
# Poissons Ratio (z) = 0.14662 0.04563
#
# Static dielectric constant tensor:
#      x y z
#    x 2.175640 0.000000 0.000000 
#    y 0.000000 1.893720 0.000000 
#    z 0.000000 0.000000 2.153230 
# 
# From -- ./inp_files/303.got.cif
#   From: 2010.05.17/outbox.cif.g08.bks.cpg/sg56_1_cif.got.tgz:303.got - 2010.06.03 13:42:01.
