data_PCOD9431297
_publ_section_title
;
Structure prediction by ZEFSAII (Michael W. Deem and Ramdas Pophale) SiO2 
 PCOD9431297
Probable space group: P C C N
;
_chemical_formula_sum "Si O2"
_cell_formula_units_Z 48
_cell_length_a 16.465169
_cell_length_b 11.022046
_cell_length_c 10.320984
_cell_angle_alpha 90.000000
_cell_angle_beta 90.000000
_cell_angle_gamma 90.000000
_cell_volume 1873.050629
_symmetry_space_group_name_H-M "P C C N"
_symmetry_group_IT_number 56
_symmetry_cell_setting 'orthorhombic'
loop_
_space_group_symop_operation_xyz
x,y,z
1/2-x,1/2-y,z
1/2+x,-y,1/2-z
-x,1/2+y,1/2-z
-x,-y,-z
1/2+x,1/2+y,-z
1/2-x,y,1/2+z
x,1/2-y,1/2+z
loop_
_atom_site_type_symbol
_atom_site_label
_atom_site_fract_x
_atom_site_fract_y
_atom_site_fract_z
Si Si1 0.704045 0.095726 0.478397
Si Si2 0.537246 0.290632 0.987805
Si Si3 0.978906 0.101929 0.707185
Si Si4 0.343229 0.137742 0.248343
Si Si5 0.197019 0.952463 0.292110
Si Si6 0.136913 0.329037 0.526630
O O1 0.621843 0.152731 0.532332
O O2 0.712941 0.133494 0.330488
O O3 0.779653 0.109250 0.572139
O O4 0.686449 0.952070 0.464607
O O5 0.534321 0.304676 0.830464
O O6 0.458085 0.362560 0.038350
O O7 0.525603 0.165206 0.065668
O O8 0.072439 0.061967 0.728853
O O9 0.899013 0.016984 0.711680
O O10 0.264766 0.056155 0.272362
O O11 0.353003 0.215788 0.379428
O O12 0.339444 0.226966 0.127428
#
# Coordination Sequence:
#
# PCOD9431297 Si02
#       6
#     8   8   8   8   8   8
#     4  10  21  36  55  82 120 158 198 248 302 362
#     4   9  18  35  60  87 115 152 199 251 307 364
#     4   9  19  37  61  89 120 157 202 251 306 366
#     4   9  19  37  61  89 120 157 202 251 306 366
#     4  10  22  38  56  86 122 160 202 248 304 362
#     4   9  18  35  60  87 115 152 199 251 307 364
#
# _framework density 25.626643000000001
#
# number of rings (size 3 to 8) (size 9 to 14) (size 15 to 20)
#    0.000    2.667    0.000    0.500    0.000    5.333 
#    0.000    7.500    0.000    0.000    0.000    9.333 
#    0.000    0.000    0.000    0.000    0.000    0.000 
#
# Total GULP energy -268023.738647 kJ/mol
# GULP energy per Si atom -5583.827888 kJ/mol
# Density = 2.556832 g / cm^3
# Si number density = 25.626643 Si / 1000 Ang^3
#
#
#
# Elastic Constant Matrix: (Units=GPa)
#
#
# Indices 1 2 3 4 5 6 
#
# 1 177.2245 59.5487 47.8451 0.0000 0.0000 0.0000
# 2 59.5487 50.0507 -9.5525 0.0000 0.0000 0.0000
# 3 47.8451 -9.5525 63.6896 0.0000 0.0000 0.0000
# 4 0.0000 0.0000 0.0000 -7.5693 0.0000 0.0000
# 5 0.0000 0.0000 0.0000 0.0000 35.7473 0.0000
# 6 0.0000 0.0000 0.0000 0.0000 0.0000 45.5907
#
#
#
# Elastic Compliance Matrix: (Units=1/GPa)
#
#
# Indices 1 2 3 4 5 6 
#
# 1 0.020118 -0.027610 -0.019254 0.000000 0.000000 0.000000
# 2 -0.027610 0.058462 0.029510 0.000000 0.000000 0.000000
# 3 -0.019254 0.029510 0.034591 0.000000 0.000000 0.000000
# 4 0.000000 0.000000 0.000000 -0.132113 0.000000 0.000000
# 5 0.000000 0.000000 0.000000 0.000000 0.027974 0.000000
# 6 0.000000 0.000000 0.000000 0.000000 0.000000 0.021934
#
#
# Mechanical properties :
#
#
# Convention : Reuss Voigt Hill
#
# Bulk Modulus (GPa) = 12.74504 54.07194 33.40849
# Shear Modulus (GPa) = 54.44843 27.62863 41.03853
#
# Velocity S-wave (km/s) = 4.61443 3.28704 4.00609
# Velocity P-wave (km/s) = 5.77709 5.96254 5.87054
#
# Compressibility (1/GPa) = 0.07846188
#
# Stress axis : x y z
#
# Youngs Moduli (GPa) = 49.70705 17.10518 28.90896
#
# Poissons Ratio (x) = 0.47228 0.55662
# Poissons Ratio (y) = 1.37243 -0.85310
# Poissons Ratio (z) = 0.95707 -0.50477
#
# Static dielectric constant tensor:
#      x y z
#    x 2.055770 0.000000 0.000000 
#    y 0.000000 2.036350 0.000000 
#    z 0.000000 0.000000 2.117980 
# 
# From -- ./inp_files/8298.got.cif
#   From: 2010.05.17/outbox.cif.g08.bks.cpg/sg56_5_cif.got.tgz:8298.got - 2010.06.03 13:42:01.
