data_PCOD9431194
_publ_section_title
;
Structure prediction by ZEFSAII (Michael W. Deem and Ramdas Pophale) SiO2 
 PCOD9431194
Probable space group: P C C N
;
_chemical_formula_sum "Si O2"
_cell_formula_units_Z 60
_cell_length_a 8.016980
_cell_length_b 29.830930
_cell_length_c 11.092762
_cell_angle_alpha 90.000000
_cell_angle_beta 90.000000
_cell_angle_gamma 90.000000
_cell_volume 2652.878062
_symmetry_space_group_name_H-M "P C C N"
_symmetry_group_IT_number 56
_symmetry_cell_setting 'orthorhombic'
loop_
_space_group_symop_operation_xyz
x,y,z
1/2-x,1/2-y,z
1/2+x,-y,1/2-z
-x,1/2+y,1/2-z
-x,-y,-z
1/2+x,1/2+y,-z
1/2-x,y,1/2+z
x,1/2-y,1/2+z
loop_
_atom_site_type_symbol
_atom_site_label
_atom_site_fract_x
_atom_site_fract_y
_atom_site_fract_z
Si Si1 0.152773 0.535819 0.995994
Si Si2 0.656829 0.010790 0.746692
Si Si3 0.016844 0.126832 0.452617
Si Si4 0.450546 0.800748 0.232242
Si Si5 0.250000 0.750000 0.394358
Si Si6 0.331211 0.151621 0.572375
Si Si7 0.834755 0.571524 0.263527
Si Si8 0.933833 0.731034 0.557258
O O1 0.259624 0.524310 0.879258
O O2 0.235990 0.529417 0.127980
O O3 0.000000 0.500000 0.000000
O O4 0.090161 0.586987 0.991958
O O5 0.477203 0.033932 0.744004
O O6 0.665630 0.956951 0.759750
O O7 0.135153 0.151600 0.547007
O O8 0.138230 0.102152 0.354343
O O9 0.921505 0.163971 0.374481
O O10 0.284590 0.792435 0.308557
O O11 0.596458 0.819882 0.316777
O O12 0.516765 0.753342 0.183088
O O13 0.416449 0.750956 0.473442
O O14 0.362827 0.100911 0.616703
O O15 0.417521 0.177412 0.460129
O O16 0.750000 0.750000 0.525202
#
# Coordination Sequence:
#
# PCOD9431194 Si02
#       8
#     8   8   8   8   4   8   8   8
#     4  11  22  43  66  98 141 187 234 304 368 436
#     4  11  22  43  70  98 141 193 242 297 374 449
#     4  10  20  43  65  96 140 180 232 302 359 437
#     4  10  22  43  68  99 137 182 239 298 368 444
#     4  10  24  44  70  98 144 180 230 306 368 450
#     4  10  22  42  68  99 139 182 240 300 361 446
#     4  10  23  40  67  99 141 188 238 301 360 444
#     4  11  22  45  73 101 136 188 239 300 377 447
#
# _framework density 22.616945999999999
#
# number of rings (size 3 to 8) (size 9 to 14) (size 15 to 20)
#    0.000    1.600    4.000    1.200    0.000    2.667 
#   12.000    0.000    0.000    0.000    0.000    0.000 
#    0.000    0.000    0.000    0.000    0.000    0.000 
#
# Total GULP energy -334592.999851 kJ/mol
# GULP energy per Si atom -5576.549998 kJ/mol
# Density = 2.256547 g / cm^3
# Si number density = 22.616946 Si / 1000 Ang^3
#
#
#
# Elastic Constant Matrix: (Units=GPa)
#
#
# Indices 1 2 3 4 5 6 
#
# 1 73.3484 14.5101 29.9172 0.0000 0.0000 0.0000
# 2 14.5101 70.8264 7.3946 0.0000 0.0000 0.0000
# 3 29.9172 7.3946 59.3573 0.0000 0.0000 0.0000
# 4 0.0000 0.0000 0.0000 30.8653 0.0000 0.0000
# 5 0.0000 0.0000 0.0000 0.0000 24.2054 0.0000
# 6 0.0000 0.0000 0.0000 0.0000 0.0000 35.5224
#
#
#
# Elastic Compliance Matrix: (Units=1/GPa)
#
#
# Indices 1 2 3 4 5 6 
#
# 1 0.017666 -0.002725 -0.008564 0.000000 0.000000 0.000000
# 2 -0.002725 0.014725 -0.000461 0.000000 0.000000 0.000000
# 3 -0.008564 -0.000461 0.021221 0.000000 0.000000 0.000000
# 4 0.000000 0.000000 0.000000 0.032399 0.000000 0.000000
# 5 0.000000 0.000000 0.000000 0.000000 0.041313 0.000000
# 6 0.000000 0.000000 0.000000 0.000000 0.000000 0.028151
#
#
# Mechanical properties :
#
#
# Convention : Reuss Voigt Hill
#
# Bulk Modulus (GPa) = 33.20983 34.13065 33.67024
# Shear Modulus (GPa) = 26.45307 28.23262 27.34284
#
# Velocity S-wave (km/s) = 3.42367 3.53695 3.48077
# Velocity P-wave (km/s) = 5.50855 5.63947 5.57439
#
# Compressibility (1/GPa) = 0.03011157
#
# Stress axis : x y z
#
# Youngs Moduli (GPa) = 56.60618 67.90975 47.12259
#
# Poissons Ratio (x) = 0.18505 0.40358
# Poissons Ratio (y) = 0.15425 0.02172
# Poissons Ratio (z) = 0.48480 0.03131
#
# Static dielectric constant tensor:
#      x y z
#    x 1.851860 0.000000 0.000000 
#    y 0.000000 1.887450 0.000000 
#    z 0.000000 0.000000 1.907230 
# 
# From -- ./inp_files/6596.got.cif
#   From: 2010.05.17/outbox.cif.g08.bks.cpg/sg56_4_cif.got.tgz:6596.got - 2010.06.03 13:42:01.
