data_PCOD9431166
_publ_section_title
;
Structure prediction by ZEFSAII (Michael W. Deem and Ramdas Pophale) SiO2 
 PCOD9431166
Probable space group: P C C N
;
_chemical_formula_sum "Si O2"
_cell_formula_units_Z 60
_cell_length_a 7.185029
_cell_length_b 23.222649
_cell_length_c 15.034017
_cell_angle_alpha 90.000000
_cell_angle_beta 90.000000
_cell_angle_gamma 90.000000
_cell_volume 2508.507018
_symmetry_space_group_name_H-M "P C C N"
_symmetry_group_IT_number 56
_symmetry_cell_setting 'orthorhombic'
loop_
_space_group_symop_operation_xyz
x,y,z
1/2-x,1/2-y,z
1/2+x,-y,1/2-z
-x,1/2+y,1/2-z
-x,-y,-z
1/2+x,1/2+y,-z
1/2-x,y,1/2+z
x,1/2-y,1/2+z
loop_
_atom_site_type_symbol
_atom_site_label
_atom_site_fract_x
_atom_site_fract_y
_atom_site_fract_z
Si Si1 0.024982 0.756144 0.034395
Si Si2 0.304386 0.101774 0.086961
Si Si3 0.447398 0.439336 0.229414
Si Si4 0.116489 0.934002 0.288161
Si Si5 0.250000 0.750000 0.749752
Si Si6 0.597408 0.715375 0.849530
Si Si7 0.051208 0.365430 0.898700
Si Si8 0.376923 0.644546 0.130753
O O1 0.250000 0.750000 0.029601
O O2 0.996068 0.823605 0.058378
O O3 0.939597 0.704310 0.092398
O O4 0.945525 0.746684 0.936825
O O5 0.838419 0.071946 0.203714
O O6 0.505105 0.097835 0.134340
O O7 0.186919 0.156490 0.120032
O O8 0.346104 0.104198 0.981882
O O9 0.433633 0.499062 0.282864
O O10 0.392363 0.390424 0.302510
O O11 0.318884 0.445352 0.141329
O O12 0.054065 0.905383 0.194546
O O13 0.400346 0.713976 0.803469
O O14 0.151126 0.701015 0.692670
O O15 0.750000 0.750000 0.793550
O O16 0.825533 0.374577 0.905406
#
# Coordination Sequence:
#
# PCOD9431166 Si02
#       8
#     8   8   8   8   4   8   8   8
#     4  10  20  42  65  99 144 184 227 296 365 440
#     4  12  26  44  75 108 139 197 248 306 375 443
#     4  11  25  49  76 100 149 195 248 327 371 441
#     4  11  24  49  71 105 143 191 259 312 375 445
#     4  12  22  42  70 102 146 200 234 286 384 436
#     4  12  24  38  64 103 146 180 230 293 353 449
#     4  10  22  44  70 106 146 190 248 302 374 452
#     4  10  22  40  74  98 141 198 238 299 374 438
#
# _framework density 23.918610000000001
#
# number of rings (size 3 to 8) (size 9 to 14) (size 15 to 20)
#    0.000    1.067    5.333    2.400    0.000    3.733 
#    0.000    4.000    0.000    0.000    0.000    0.000 
#    0.000    0.000    0.000    0.000    0.000    0.000 
#
# Total GULP energy -335132.354511 kJ/mol
# GULP energy per Si atom -5585.539242 kJ/mol
# Density = 2.386417 g / cm^3
# Si number density = 23.918610 Si / 1000 Ang^3
#
#
#
# Elastic Constant Matrix: (Units=GPa)
#
#
# Indices 1 2 3 4 5 6 
#
# 1 115.7663 4.7528 51.2815 0.0000 0.0000 0.0000
# 2 4.7528 70.3029 23.1275 0.0000 0.0000 0.0000
# 3 51.2815 23.1275 97.0319 0.0000 0.0000 0.0000
# 4 0.0000 0.0000 0.0000 22.1472 0.0000 0.0000
# 5 0.0000 0.0000 0.0000 0.0000 -1.6213 0.0000
# 6 0.0000 0.0000 0.0000 0.0000 0.0000 35.6393
#
#
#
# Elastic Compliance Matrix: (Units=1/GPa)
#
#
# Indices 1 2 3 4 5 6 
#
# 1 0.011389 0.001313 -0.006332 0.000000 0.000000 0.000000
# 2 0.001313 0.015586 -0.004409 0.000000 0.000000 0.000000
# 3 -0.006332 -0.004409 0.014703 0.000000 0.000000 0.000000
# 4 0.000000 0.000000 0.000000 0.045152 0.000000 0.000000
# 5 0.000000 0.000000 0.000000 0.000000 -0.616800 0.000000
# 6 0.000000 0.000000 0.000000 0.000000 0.000000 0.028059
#
#
# Mechanical properties :
#
#
# Convention : Reuss Voigt Hill
#
# Bulk Modulus (GPa) = 43.81650 49.04720 46.43185
# Shear Modulus (GPa) = -10.51642 24.82900 7.15629
#
# Velocity S-wave (km/s) = -2.09912 3.22539 1.73160
# Velocity P-wave (km/s) = 3.53323 5.86696 4.84278
#
# Compressibility (1/GPa) = 0.02282245
#
# Stress axis : x y z
#
# Youngs Moduli (GPa) = 87.80265 64.16104 68.01191
#
# Poissons Ratio (x) = -0.08425 0.43066
# Poissons Ratio (y) = -0.11530 0.29986
# Poissons Ratio (z) = 0.55598 0.28288
#
# Static dielectric constant tensor:
#      x y z
#    x 2.028050 0.000000 0.000000 
#    y 0.000000 1.945480 0.000000 
#    z 0.000000 0.000000 1.946170 
# 
# From -- ./inp_files/10989.got.cif
#   From: 2010.05.17/outbox.cif.g08.bks.cpg/sg56_6_cif.got.tgz:10989.got - 2010.06.03 13:42:01.
