data_PCOD9431001
_publ_section_title
;
Structure prediction by ZEFSAII (Michael W. Deem and Ramdas Pophale) SiO2 
 PCOD9431001
Probable space group: P C C N
;
_chemical_formula_sum "Si O2"
_cell_formula_units_Z 48
_cell_length_a 8.593515
_cell_length_b 14.476279
_cell_length_c 19.192968
_cell_angle_alpha 90.000000
_cell_angle_beta 90.000000
_cell_angle_gamma 90.000000
_cell_volume 2387.645922
_symmetry_space_group_name_H-M "P C C N"
_symmetry_group_IT_number 56
_symmetry_cell_setting 'orthorhombic'
loop_
_space_group_symop_operation_xyz
x,y,z
1/2-x,1/2-y,z
1/2+x,-y,1/2-z
-x,1/2+y,1/2-z
-x,-y,-z
1/2+x,1/2+y,-z
1/2-x,y,1/2+z
x,1/2-y,1/2+z
loop_
_atom_site_type_symbol
_atom_site_label
_atom_site_fract_x
_atom_site_fract_y
_atom_site_fract_z
Si Si1 0.389381 0.097954 0.115827
Si Si2 0.842961 0.654114 0.726994
Si Si3 0.868431 0.567242 0.128468
Si Si4 0.427508 0.751983 0.629536
Si Si5 0.687944 0.505122 0.994352
Si Si6 0.873121 0.189148 0.520271
O O1 0.368643 0.139053 0.191922
O O2 0.472703 0.167640 0.062675
O O3 0.516652 0.017715 0.124395
O O4 0.240237 0.054683 0.077222
O O5 0.750000 0.750000 0.720371
O O6 0.743556 0.570651 0.694845
O O7 0.986771 0.670185 0.674346
O O8 0.976936 0.656948 0.136131
O O9 0.761972 0.563192 0.059009
O O10 0.250000 0.750000 0.654297
O O11 0.416105 0.754313 0.545521
O O12 0.500000 0.500000 0.000000
O O13 0.785327 0.407027 0.998350
O O14 0.750000 0.250000 0.563361
#
# Coordination Sequence:
#
# PCOD9431001 Si02
#       6
#     8   8   8   8   8   8
#     4  11  22  44  63  92 134 165 211 271 318 370
#     4  10  25  41  60  96 127 167 212 252 319 389
#     4  10  21  42  63  87 129 167 205 259 313 379
#     4  10  20  39  66  90 125 167 216 252 318 383
#     4  11  23  39  66  97 121 164 219 259 319 379
#     4  10  21  40  67  92 125 167 213 264 321 378
#
# _framework density 20.103483000000001
#
# number of rings (size 3 to 8) (size 9 to 14) (size 15 to 20)
#    0.000    1.667    3.333    1.000    4.667    4.667 
#    0.000    6.667    0.000    0.000    0.000    0.000 
#    0.000    0.000    0.000    0.000    0.000    0.000 
#
# Total GULP energy -267462.688791 kJ/mol
# GULP energy per Si atom -5572.139350 kJ/mol
# Density = 2.005773 g / cm^3
# Si number density = 20.103483 Si / 1000 Ang^3
#
#
#
# Elastic Constant Matrix: (Units=GPa)
#
#
# Indices 1 2 3 4 5 6 
#
# 1 134.6256 21.4643 64.5175 0.0000 0.0000 0.0000
# 2 21.4643 29.7725 25.0830 0.0000 0.0000 0.0000
# 3 64.5175 25.0830 113.6396 0.0000 0.0000 0.0000
# 4 0.0000 0.0000 0.0000 30.2046 0.0000 0.0000
# 5 0.0000 0.0000 0.0000 0.0000 10.9670 0.0000
# 6 0.0000 0.0000 0.0000 0.0000 0.0000 21.5753
#
#
#
# Elastic Compliance Matrix: (Units=1/GPa)
#
#
# Indices 1 2 3 4 5 6 
#
# 1 0.010434 -0.003110 -0.005237 0.000000 0.000000 0.000000
# 2 -0.003110 0.042188 -0.007546 0.000000 0.000000 0.000000
# 3 -0.005237 -0.007546 0.013439 0.000000 0.000000 0.000000
# 4 0.000000 0.000000 0.000000 0.033108 0.000000 0.000000
# 5 0.000000 0.000000 0.000000 0.000000 0.091182 0.000000
# 6 0.000000 0.000000 0.000000 0.000000 0.000000 0.046349
#
#
# Mechanical properties :
#
#
# Convention : Reuss Voigt Hill
#
# Bulk Modulus (GPa) = 29.17703 55.57415 42.37559
# Shear Modulus (GPa) = 17.86287 23.68091 20.77189
#
# Velocity S-wave (km/s) = 2.98408 3.43585 3.21791
# Velocity P-wave (km/s) = 5.13984 6.59122 5.91025
#
# Compressibility (1/GPa) = 0.03427353
#
# Stress axis : x y z
#
# Youngs Moduli (GPa) = 95.84340 23.70362 74.41173
#
# Poissons Ratio (x) = 0.07371 0.38971
# Poissons Ratio (y) = 0.29806 0.56153
# Poissons Ratio (z) = 0.50195 0.17887
#
# Static dielectric constant tensor:
#      x y z
#    x 1.780450 0.000000 0.000000 
#    y 0.000000 1.784320 0.000000 
#    z 0.000000 0.000000 1.725170 
# 
# From -- ./inp_files/14958.got.cif
#   From: 2010.05.17/outbox.cif.g08.bks.cpg/sg56_8_cif.got.tgz:14958.got - 2010.06.03 13:42:01.
