data_PCOD9431735
_publ_section_title
;
Structure prediction by ZEFSAII (Michael W. Deem and Ramdas Pophale) SiO2 
 PCOD9431735
Probable space group: P C C N
;
_chemical_formula_sum "Si O2"
_cell_formula_units_Z 56
_cell_length_a 15.470460
_cell_length_b 14.425815
_cell_length_c 11.212433
_cell_angle_alpha 90.000000
_cell_angle_beta 90.000000
_cell_angle_gamma 90.000000
_cell_volume 2502.323454
_symmetry_space_group_name_H-M "P C C N"
_symmetry_group_IT_number 56
_symmetry_cell_setting 'orthorhombic'
loop_
_space_group_symop_operation_xyz
x,y,z
1/2-x,1/2-y,z
1/2+x,-y,1/2-z
-x,1/2+y,1/2-z
-x,-y,-z
1/2+x,1/2+y,-z
1/2-x,y,1/2+z
x,1/2-y,1/2+z
loop_
_atom_site_type_symbol
_atom_site_label
_atom_site_fract_x
_atom_site_fract_y
_atom_site_fract_z
Si Si1 0.734146 0.856174 0.620068
Si Si2 0.963992 0.294119 0.412857
Si Si3 0.799606 0.454020 0.113468
Si Si4 0.104580 0.301250 0.205241
Si Si5 0.686589 0.074933 0.373276
Si Si6 0.094807 0.111708 0.081999
Si Si7 0.020753 0.895090 0.468700
O O1 0.750000 0.750000 0.587211
O O2 0.690874 0.850465 0.750064
O O3 0.660524 0.886316 0.528368
O O4 0.806761 0.933651 0.612250
O O5 0.870633 0.333246 0.382852
O O6 0.960488 0.184205 0.434953
O O7 0.033068 0.307436 0.308239
O O8 0.003177 0.353515 0.525925
O O9 0.763347 0.430581 0.246204
O O10 0.891215 0.403099 0.106771
O O11 0.744876 0.431101 0.993459
O O12 0.118976 0.194053 0.172811
O O13 0.062613 0.353972 0.096366
O O14 0.614527 0.990643 0.368460
O O15 0.000000 0.000000 0.500000
#
# Coordination Sequence:
#
# PCOD9431735 Si02
#       7
#     8   8   8   8   8   8   8
#     4  10  22  37  65 101 141 174 221 283 355 418
#     4  10  22  43  67  97 132 185 232 285 349 414
#     4  11  26  44  68 103 139 187 228 290 345 415
#     4  10  21  41  67 101 132 182 227 282 351 419
#     4  11  23  46  68 101 140 181 234 284 351 412
#     4   9  21  37  67  99 136 175 224 283 349 420
#     4  11  26  44  68  99 140 177 236 290 344 418
#
# _framework density 22.379200999999998
#
# number of rings (size 3 to 8) (size 9 to 14) (size 15 to 20)
#    0.000    1.714    1.429    1.286   10.000    2.286 
#    5.143    1.429    0.000    0.000    0.000    0.000 
#    0.000    0.000    0.000    0.000    0.000    0.000 
#
# Total GULP energy -312442.884012 kJ/mol
# GULP energy per Si atom -5579.337214 kJ/mol
# Density = 2.232827 g / cm^3
# Si number density = 22.379201 Si / 1000 Ang^3
#
#
#
# Elastic Constant Matrix: (Units=GPa)
#
#
# Indices 1 2 3 4 5 6 
#
# 1 43.5305 17.3228 25.6133 0.0000 0.0000 0.0000
# 2 17.3228 91.8167 21.2804 0.0000 0.0000 0.0000
# 3 25.6133 21.2804 103.0479 0.0000 0.0000 0.0000
# 4 0.0000 0.0000 0.0000 5.6292 0.0000 0.0000
# 5 0.0000 0.0000 0.0000 0.0000 100.9209 0.0000
# 6 0.0000 0.0000 0.0000 0.0000 0.0000 32.7926
#
#
#
# Elastic Compliance Matrix: (Units=1/GPa)
#
#
# Indices 1 2 3 4 5 6 
#
# 1 0.028163 -0.003877 -0.006200 0.000000 0.000000 0.000000
# 2 -0.003877 0.011972 -0.001509 0.000000 0.000000 0.000000
# 3 -0.006200 -0.001509 0.011557 0.000000 0.000000 0.000000
# 4 0.000000 0.000000 0.000000 0.177646 0.000000 0.000000
# 5 0.000000 0.000000 0.000000 0.000000 0.009909 0.000000
# 6 0.000000 0.000000 0.000000 0.000000 0.000000 0.030495
#
#
# Mechanical properties :
#
#
# Convention : Reuss Voigt Hill
#
# Bulk Modulus (GPa) = 35.06056 40.75868 37.90962
# Shear Modulus (GPa) = 16.53339 39.48043 28.00691
#
# Velocity S-wave (km/s) = 2.72101 4.20474 3.54145
# Velocity P-wave (km/s) = 5.05692 6.46726 5.80508
#
# Compressibility (1/GPa) = 0.02852207
#
# Stress axis : x y z
#
# Youngs Moduli (GPa) = 35.50776 83.52579 86.52942
#
# Poissons Ratio (x) = 0.32379 0.53644
# Poissons Ratio (y) = 0.13765 0.13056
# Poissons Ratio (z) = 0.22013 0.12603
#
# Static dielectric constant tensor:
#      x y z
#    x 1.822120 0.000000 0.000000 
#    y 0.000000 1.856020 0.000000 
#    z 0.000000 0.000000 1.903900 
# 
# From -- ./inp_files/7907.got.cif
#   From: 2010.05.17/outbox.cif.g08.bks.cpg/sg56_4_cif.got.tgz:7907.got - 2010.06.03 13:42:01.
