data_PCOD9431266
_publ_section_title
;
Structure prediction by ZEFSAII (Michael W. Deem and Ramdas Pophale) SiO2 
 PCOD9431266
Probable space group: P C C N
;
_chemical_formula_sum "Si O2"
_cell_formula_units_Z 64
_cell_length_a 4.998613
_cell_length_b 30.755587
_cell_length_c 20.324581
_cell_angle_alpha 90.000000
_cell_angle_beta 90.000000
_cell_angle_gamma 90.000000
_cell_volume 3124.605090
_symmetry_space_group_name_H-M "P C C N"
_symmetry_group_IT_number 56
_symmetry_cell_setting 'orthorhombic'
loop_
_space_group_symop_operation_xyz
x,y,z
1/2-x,1/2-y,z
1/2+x,-y,1/2-z
-x,1/2+y,1/2-z
-x,-y,-z
1/2+x,1/2+y,-z
1/2-x,y,1/2+z
x,1/2-y,1/2+z
loop_
_atom_site_type_symbol
_atom_site_label
_atom_site_fract_x
_atom_site_fract_y
_atom_site_fract_z
Si Si1 0.076874 0.392386 0.399094
Si Si2 0.240770 0.582944 0.904974
Si Si3 0.700995 0.699239 0.859503
Si Si4 0.955049 0.506756 0.578687
Si Si5 0.314200 0.843283 0.802452
Si Si6 0.770895 0.484960 0.789846
Si Si7 0.427764 0.612402 0.681341
Si Si8 0.239458 0.127087 0.536528
O O1 0.133608 0.443424 0.413249
O O2 0.267432 0.380560 0.338506
O O3 0.162497 0.366543 0.463117
O O4 0.768457 0.386464 0.381460
O O5 0.251352 0.531306 0.900819
O O6 0.163875 0.610436 0.840589
O O7 0.536621 0.598397 0.925876
O O8 0.033300 0.599961 0.959243
O O9 0.750000 0.750000 0.866447
O O10 0.397552 0.686360 0.842374
O O11 0.783388 0.671963 0.924172
O O12 0.900282 0.679714 0.804345
O O13 0.000000 0.500000 0.500000
O O14 0.187771 0.502691 0.634894
O O15 0.185579 0.853468 0.732890
O O16 0.496944 0.487145 0.747352
O O17 0.886363 0.436190 0.790973
#
# Coordination Sequence:
#
# PCOD9431266 Si02
#       8
#     8   8   8   8   8   8   8   8
#     4  11  23  38  56  83 123 166 204 244 297 343
#     4  10  21  35  55  83 116 154 202 250 298 334
#     4  10  21  39  66  94 115 141 183 245 307 363
#     4  11  23  38  58  88 121 166 221 274 290 343
#     4  10  21  38  62  89 118 152 190 244 300 362
#     4  11  24  41  56  80 119 169 210 258 305 348
#     4  11  23  39  58  83 116 160 202 238 292 361
#     4  10  21  37  57  84 117 152 188 237 302 359
#
# _framework density 20.482589000000001
#
# number of rings (size 3 to 8) (size 9 to 14) (size 15 to 20)
#    0.000    1.500    1.250    4.125    1.750    6.500 
#    0.000    0.000    0.000    4.500    0.000    0.000 
#    0.000    0.000    0.000    0.000    0.000    0.000 
#
# Total GULP energy -357630.731439 kJ/mol
# GULP energy per Si atom -5587.980179 kJ/mol
# Density = 2.043597 g / cm^3
# Si number density = 20.482589 Si / 1000 Ang^3
#
#
#
# Elastic Constant Matrix: (Units=GPa)
#
#
# Indices 1 2 3 4 5 6 
#
# 1 69.0909 7.2673 4.6376 0.0000 0.0000 0.0000
# 2 7.2673 67.3904 21.2424 0.0000 0.0000 0.0000
# 3 4.6376 21.2424 67.6856 0.0000 0.0000 0.0000
# 4 0.0000 0.0000 0.0000 10.8263 0.0000 0.0000
# 5 0.0000 0.0000 0.0000 0.0000 17.4843 0.0000
# 6 0.0000 0.0000 0.0000 0.0000 0.0000 17.5584
#
#
#
# Elastic Compliance Matrix: (Units=1/GPa)
#
#
# Indices 1 2 3 4 5 6 
#
# 1 0.014659 -0.001403 -0.000564 0.000000 0.000000 0.000000
# 2 -0.001403 0.016602 -0.005114 0.000000 0.000000 0.000000
# 3 -0.000564 -0.005114 0.016418 0.000000 0.000000 0.000000
# 4 0.000000 0.000000 0.000000 0.092368 0.000000 0.000000
# 5 0.000000 0.000000 0.000000 0.000000 0.057194 0.000000
# 6 0.000000 0.000000 0.000000 0.000000 0.000000 0.056953
#
#
# Mechanical properties :
#
#
# Convention : Reuss Voigt Hill
#
# Bulk Modulus (GPa) = 29.83601 30.05125 29.94363
# Shear Modulus (GPa) = 17.88723 20.57511 19.23117
#
# Velocity S-wave (km/s) = 2.95835 3.17285 3.06748
# Velocity P-wave (km/s) = 5.12516 5.30340 5.21504
#
# Compressibility (1/GPa) = 0.03351654
#
# Stress axis : x y z
#
# Youngs Moduli (GPa) = 68.21688 60.23255 60.90909
#
# Poissons Ratio (x) = 0.08451 0.03436
# Poissons Ratio (y) = 0.09571 0.31151
# Poissons Ratio (z) = 0.03848 0.30805
#
# Static dielectric constant tensor:
#      x y z
#    x 1.726930 0.000000 0.000000 
#    y 0.000000 1.689080 0.000000 
#    z 0.000000 0.000000 1.779480 
# 
# From -- ./inp_files/14197.got.cif
#   From: 2010.05.17/outbox.cif.g08.bks.cpg/sg56_8_cif.got.tgz:14197.got - 2010.06.03 13:42:01.
