data_PCOD9431992
_publ_section_title
;
Structure prediction by ZEFSAII (Michael W. Deem and Ramdas Pophale) SiO2 
 PCOD9431992
Probable space group: P C C N
;
_chemical_formula_sum "Si O2"
_cell_formula_units_Z 60
_cell_length_a 16.497224
_cell_length_b 12.464551
_cell_length_c 14.923891
_cell_angle_alpha 90.000000
_cell_angle_beta 90.000000
_cell_angle_gamma 90.000000
_cell_volume 3068.807018
_symmetry_space_group_name_H-M "P C C N"
_symmetry_group_IT_number 56
_symmetry_cell_setting 'orthorhombic'
loop_
_space_group_symop_operation_xyz
x,y,z
1/2-x,1/2-y,z
1/2+x,-y,1/2-z
-x,1/2+y,1/2-z
-x,-y,-z
1/2+x,1/2+y,-z
1/2-x,y,1/2+z
x,1/2-y,1/2+z
loop_
_atom_site_type_symbol
_atom_site_label
_atom_site_fract_x
_atom_site_fract_y
_atom_site_fract_z
Si Si1 0.250000 0.750000 0.259322
Si Si2 0.171334 0.312925 0.258098
Si Si3 0.522563 0.004987 0.301191
Si Si4 0.149893 0.543382 0.215323
Si Si5 0.931850 0.789805 0.887736
Si Si6 0.434438 0.919139 0.041313
Si Si7 0.593980 0.151026 0.147128
Si Si8 0.467404 0.209952 0.404913
O O1 0.206645 0.647857 0.212583
O O2 0.174009 0.796795 0.313309
O O3 0.250000 0.250000 0.283721
O O4 0.192180 0.438412 0.254497
O O5 0.137792 0.277718 0.160896
O O6 0.100857 0.283913 0.328596
O O7 0.563346 0.055991 0.212637
O O8 0.514319 0.102562 0.372672
O O9 0.434137 0.957374 0.273127
O O10 0.570083 0.907263 0.344486
O O11 0.119580 0.524129 0.114792
O O12 0.016776 0.730905 0.861873
O O13 0.930873 0.798529 0.995184
O O14 0.476415 0.816038 0.089212
O O15 0.386570 0.882516 0.953953
O O16 0.500000 0.000000 0.000000
#
# Coordination Sequence:
#
# PCOD9431992 Si02
#       8
#     4   8   8   8   8   8   8   8
#     4  12  26  40  64 100 140 178 220 286 354 400
#     4  11  25  43  64  93 131 174 226 280 338 397
#     4  11  20  40  67  92 125 174 221 274 336 406
#     4  11  22  42  64  93 132 170 218 278 336 405
#     4  11  21  41  66  95 127 173 226 275 334 409
#     4  11  21  40  70  97 124 173 232 273 334 420
#     4  11  23  39  66  95 132 176 220 275 342 402
#     4  10  22  38  65  97 123 166 223 279 328 401
#
# _framework density 19.551570999999999
#
# number of rings (size 3 to 8) (size 9 to 14) (size 15 to 20)
#    0.000    1.067    5.333    2.800    1.867    1.067 
#    0.000    2.667    0.000    0.000    0.000    0.000 
#    0.000    0.000    0.000    0.000    0.000    0.000 
#
# Total GULP energy -334809.168537 kJ/mol
# GULP energy per Si atom -5580.152809 kJ/mol
# Density = 1.950707 g / cm^3
# Si number density = 19.551571 Si / 1000 Ang^3
#
#
#
# Elastic Constant Matrix: (Units=GPa)
#
#
# Indices 1 2 3 4 5 6 
#
# 1 29.3742 10.4152 -0.7732 0.0000 0.0000 0.0000
# 2 10.4152 90.4331 33.1137 0.0000 0.0000 0.0000
# 3 -0.7732 33.1137 92.3052 0.0000 0.0000 0.0000
# 4 0.0000 0.0000 0.0000 26.0462 0.0000 0.0000
# 5 0.0000 0.0000 0.0000 0.0000 -5.4357 0.0000
# 6 0.0000 0.0000 0.0000 0.0000 0.0000 35.2084
#
#
#
# Elastic Compliance Matrix: (Units=1/GPa)
#
#
# Indices 1 2 3 4 5 6 
#
# 1 0.035827 -0.004877 0.002050 0.000000 0.000000 0.000000
# 2 -0.004877 0.013394 -0.004846 0.000000 0.000000 0.000000
# 3 0.002050 -0.004846 0.012589 0.000000 0.000000 0.000000
# 4 0.000000 0.000000 0.000000 0.038393 0.000000 0.000000
# 5 0.000000 0.000000 0.000000 0.000000 -0.183971 0.000000
# 6 0.000000 0.000000 0.000000 0.000000 0.000000 0.028402
#
#
# Mechanical properties :
#
#
# Convention : Reuss Voigt Hill
#
# Bulk Modulus (GPa) = 21.52210 33.06931 27.29571
# Shear Modulus (GPa) = -203.81900 22.45424 -90.68238
#
# Velocity S-wave (km/s) = -10.22121 3.39257 -6.81776
# Velocity P-wave (km/s) = 11.32545 5.68302 6.92709
#
# Compressibility (1/GPa) = 0.04646387
#
# Stress axis : x y z
#
# Youngs Moduli (GPa) = 27.91228 74.66073 79.43324
#
# Poissons Ratio (x) = 0.36409 -0.16280
# Poissons Ratio (y) = 0.13612 0.38492
# Poissons Ratio (z) = -0.05721 0.36179
#
# Static dielectric constant tensor:
#      x y z
#    x 1.606080 0.000000 0.000000 
#    y 0.000000 1.735000 0.000000 
#    z 0.000000 0.000000 1.676050 
# 
# From -- ./inp_files/12842.got.cif
#   From: 2010.05.17/outbox.cif.g08.bks.cpg/sg56_7_cif.got.tgz:12842.got - 2010.06.03 13:42:01.
