data_PCOD9431760
_publ_section_title
;
Structure prediction by ZEFSAII (Michael W. Deem and Ramdas Pophale) SiO2 
 PCOD9431760
Probable space group: P C C N
;
_chemical_formula_sum "Si O2"
_cell_formula_units_Z 32
_cell_length_a 5.053975
_cell_length_b 14.707874
_cell_length_c 16.249594
_cell_angle_alpha 90.000000
_cell_angle_beta 90.000000
_cell_angle_gamma 90.000000
_cell_volume 1207.884768
_symmetry_space_group_name_H-M "P C C N"
_symmetry_group_IT_number 56
_symmetry_cell_setting 'orthorhombic'
loop_
_space_group_symop_operation_xyz
x,y,z
1/2-x,1/2-y,z
1/2+x,-y,1/2-z
-x,1/2+y,1/2-z
-x,-y,-z
1/2+x,1/2+y,-z
1/2-x,y,1/2+z
x,1/2-y,1/2+z
loop_
_atom_site_type_symbol
_atom_site_label
_atom_site_fract_x
_atom_site_fract_y
_atom_site_fract_z
Si Si1 0.250000 0.750000 0.339844
Si Si2 0.750000 0.250000 0.898673
Si Si3 0.118406 0.439623 0.634939
Si Si4 0.590005 0.374081 0.541691
Si Si5 0.011930 0.128552 0.778265
O O1 0.470318 0.718723 0.405130
O O2 0.230772 0.835868 0.279030
O O3 0.989122 0.206531 0.846390
O O4 0.866198 0.333589 0.952049
O O5 0.359019 0.442122 0.568202
O O6 0.251167 0.384963 0.713127
O O7 0.041884 0.534643 0.676520
O O8 0.868252 0.407992 0.580036
#
# Coordination Sequence:
#
# PCOD9431760 Si02
#       5
#     4   4   8   8   8
#     4   8  18  36  60  90 130 170 218 270 330 392
#     4  10  24  46  72 106 140 182 238 290 348 420
#     4  11  23  43  69  97 137 181 227 282 350 408
#     4  10  23  44  65  95 140 184 218 279 356 414
#     4  10  21  41  70 102 132 177 237 287 333 412
#
# _framework density 26.492592999999999
#
# number of rings (size 3 to 8) (size 9 to 14) (size 15 to 20)
#    0.000    2.000    0.000    3.000    0.000   11.000 
#    0.000   25.000    0.000    0.000    0.000    0.000 
#    0.000    0.000    0.000    0.000    0.000    0.000 
#
# Total GULP energy -178164.456650 kJ/mol
# GULP energy per Si atom -5567.639270 kJ/mol
# Density = 2.643229 g / cm^3
# Si number density = 26.492593 Si / 1000 Ang^3
#
#
#
# Elastic Constant Matrix: (Units=GPa)
#
#
# Indices 1 2 3 4 5 6 
#
# 1 208.5959 52.1977 61.4309 0.0000 0.0000 0.0000
# 2 52.1977 82.9541 32.7945 0.0000 0.0000 0.0000
# 3 61.4309 32.7945 131.4044 0.0000 0.0000 0.0000
# 4 0.0000 0.0000 0.0000 36.6755 0.0000 0.0000
# 5 0.0000 0.0000 0.0000 0.0000 5.4882 0.0000
# 6 0.0000 0.0000 0.0000 0.0000 0.0000 9.3564
#
#
#
# Elastic Compliance Matrix: (Units=1/GPa)
#
#
# Indices 1 2 3 4 5 6 
#
# 1 0.006184 -0.003049 -0.002130 0.000000 0.000000 0.000000
# 2 -0.003049 0.014878 -0.002288 0.000000 0.000000 0.000000
# 3 -0.002130 -0.002288 0.009177 0.000000 0.000000 0.000000
# 4 0.000000 0.000000 0.000000 0.027266 0.000000 0.000000
# 5 0.000000 0.000000 0.000000 0.000000 0.182209 0.000000
# 6 0.000000 0.000000 0.000000 0.000000 0.000000 0.106879
#
#
# Mechanical properties :
#
#
# Convention : Reuss Voigt Hill
#
# Bulk Modulus (GPa) = 65.33749 79.53337 72.43543
# Shear Modulus (GPa) = 13.63779 28.73945 21.18862
#
# Velocity S-wave (km/s) = 2.27133 3.29722 2.83113
# Velocity P-wave (km/s) = 5.62092 6.67695 6.17156
#
# Compressibility (1/GPa) = 0.01530515
#
# Stress axis : x y z
#
# Youngs Moduli (GPa) = 161.69966 67.21368 108.97018
#
# Poissons Ratio (x) = 0.20495 0.23212
# Poissons Ratio (y) = 0.49307 0.24927
# Poissons Ratio (z) = 0.34444 0.15375
#
# Static dielectric constant tensor:
#      x y z
#    x 2.176690 0.000000 0.000000 
#    y 0.000000 2.522530 0.000000 
#    z 0.000000 0.000000 2.153000 
# 
# From -- ./inp_files/13731.got.cif
#   From: 2010.05.17/outbox.cif.g08.bks.cpg/sg56_7_cif.got.tgz:13731.got - 2010.06.03 13:42:01.
