data_PCOD9431136
_publ_section_title
;
Structure prediction by ZEFSAII (Michael W. Deem and Ramdas Pophale) SiO2 
 PCOD9431136
Probable space group: P C C N
;
_chemical_formula_sum "Si O2"
_cell_formula_units_Z 64
_cell_length_a 8.356211
_cell_length_b 26.725574
_cell_length_c 12.777554
_cell_angle_alpha 90.000000
_cell_angle_beta 90.000000
_cell_angle_gamma 90.000000
_cell_volume 2853.541311
_symmetry_space_group_name_H-M "P C C N"
_symmetry_group_IT_number 56
_symmetry_cell_setting 'orthorhombic'
loop_
_space_group_symop_operation_xyz
x,y,z
1/2-x,1/2-y,z
1/2+x,-y,1/2-z
-x,1/2+y,1/2-z
-x,-y,-z
1/2+x,1/2+y,-z
1/2-x,y,1/2+z
x,1/2-y,1/2+z
loop_
_atom_site_type_symbol
_atom_site_label
_atom_site_fract_x
_atom_site_fract_y
_atom_site_fract_z
Si Si1 0.251425 0.028406 0.450080
Si Si2 0.413402 0.735173 0.533143
Si Si3 0.464703 0.663809 0.712548
Si Si4 0.845978 0.699244 0.416504
Si Si5 0.210525 0.847330 0.375857
Si Si6 0.126986 0.105257 0.603601
Si Si7 0.387340 0.436863 0.251673
Si Si8 0.930480 0.432762 0.536348
O O1 0.134145 0.059271 0.524053
O O2 0.172181 0.023816 0.336323
O O3 0.418148 0.061249 0.458439
O O4 0.301113 0.974400 0.492543
O O5 0.250000 0.750000 0.589821
O O6 0.496256 0.697561 0.612787
O O7 0.522434 0.781738 0.500046
O O8 0.347910 0.702931 0.434356
O O9 0.567455 0.683831 0.809901
O O10 0.287933 0.663022 0.763056
O O11 0.516092 0.607129 0.690455
O O12 0.750000 0.750000 0.397287
O O13 0.727683 0.653164 0.441208
O O14 0.342942 0.879958 0.441721
O O15 0.050887 0.879614 0.368870
O O16 0.227620 0.087589 0.703644
O O17 0.493352 0.449419 0.149499
#
# Coordination Sequence:
#
# PCOD9431136 Si02
#       8
#     8   8   8   8   8   8   8   8
#     4  10  20  41  66  92 129 165 211 259 319 388
#     4  12  25  38  65  90 121 172 214 260 322 386
#     4  10  24  43  59  92 127 162 211 267 315 378
#     4  11  23  43  62  89 131 165 210 270 316 382
#     4  11  22  43  60  91 133 162 209 268 323 375
#     4  10  22  39  65  93 123 169 211 260 320 382
#     4   9  20  40  63  88 126 163 206 256 311 381
#     4   9  22  40  65  94 130 167 204 271 324 372
#
# _framework density 22.428270000000001
#
# number of rings (size 3 to 8) (size 9 to 14) (size 15 to 20)
#    0.000    1.750    2.500    1.500    1.750    3.000 
#    2.250    8.750    0.000    0.000    0.000    0.000 
#    0.000    0.000    0.000    0.000    0.000    0.000 
#
# Total GULP energy -357237.826505 kJ/mol
# GULP energy per Si atom -5581.841039 kJ/mol
# Density = 2.237722 g / cm^3
# Si number density = 22.428270 Si / 1000 Ang^3
#
#
#
# Elastic Constant Matrix: (Units=GPa)
#
#
# Indices 1 2 3 4 5 6 
#
# 1 67.6684 -2.0163 19.2718 0.0000 0.0000 0.0000
# 2 -2.0163 50.4801 9.7609 0.0000 0.0000 0.0000
# 3 19.2718 9.7609 55.6807 0.0000 0.0000 0.0000
# 4 0.0000 0.0000 0.0000 24.1832 0.0000 0.0000
# 5 0.0000 0.0000 0.0000 0.0000 11.7145 0.0000
# 6 0.0000 0.0000 0.0000 0.0000 0.0000 43.8050
#
#
#
# Elastic Compliance Matrix: (Units=1/GPa)
#
#
# Indices 1 2 3 4 5 6 
#
# 1 0.016556 0.001831 -0.006051 0.000000 0.000000 0.000000
# 2 0.001831 0.020707 -0.004264 0.000000 0.000000 0.000000
# 3 -0.006051 -0.004264 0.020801 0.000000 0.000000 0.000000
# 4 0.000000 0.000000 0.000000 0.041351 0.000000 0.000000
# 5 0.000000 0.000000 0.000000 0.000000 0.085365 0.000000
# 6 0.000000 0.000000 0.000000 0.000000 0.000000 0.022828
#
#
# Mechanical properties :
#
#
# Convention : Reuss Voigt Hill
#
# Bulk Modulus (GPa) = 24.33258 25.31800 24.82529
# Shear Modulus (GPa) = 20.98413 25.72806 23.35609
#
# Velocity S-wave (km/s) = 3.06209 3.39060 3.23052
# Velocity P-wave (km/s) = 4.83472 5.16151 5.00078
#
# Compressibility (1/GPa) = 0.04109717
#
# Stress axis : x y z
#
# Youngs Moduli (GPa) = 60.40148 48.29187 48.07367
#
# Poissons Ratio (x) = -0.08844 0.29090
# Poissons Ratio (y) = -0.11062 0.20498
# Poissons Ratio (z) = 0.36550 0.20591
#
# Static dielectric constant tensor:
#      x y z
#    x 1.896320 0.000000 0.000000 
#    y 0.000000 1.857050 0.000000 
#    z 0.000000 0.000000 1.811600 
# 
# From -- ./inp_files/6635.got.cif
#   From: 2010.05.17/outbox.cif.g08.bks.cpg/sg56_4_cif.got.tgz:6635.got - 2010.06.03 13:42:01.
