data_PCOD9431495
_publ_section_title
;
Structure prediction by ZEFSAII (Michael W. Deem and Ramdas Pophale) SiO2 
 PCOD9431495
Probable space group: P C C N
;
_chemical_formula_sum "Si O2"
_cell_formula_units_Z 48
_cell_length_a 9.255620
_cell_length_b 15.644886
_cell_length_c 17.603009
_cell_angle_alpha 90.000000
_cell_angle_beta 90.000000
_cell_angle_gamma 90.000000
_cell_volume 2548.970620
_symmetry_space_group_name_H-M "P C C N"
_symmetry_group_IT_number 56
_symmetry_cell_setting 'orthorhombic'
loop_
_space_group_symop_operation_xyz
x,y,z
1/2-x,1/2-y,z
1/2+x,-y,1/2-z
-x,1/2+y,1/2-z
-x,-y,-z
1/2+x,1/2+y,-z
1/2-x,y,1/2+z
x,1/2-y,1/2+z
loop_
_atom_site_type_symbol
_atom_site_label
_atom_site_fract_x
_atom_site_fract_y
_atom_site_fract_z
Si Si1 0.093846 0.410894 0.272590
Si Si2 0.083540 0.747492 0.975358
Si Si3 0.437116 0.419885 0.456564
Si Si4 0.844708 0.838145 0.062670
Si Si5 0.067016 0.417294 0.772701
Si Si6 0.919636 0.252245 0.206303
O O1 0.101523 0.375621 0.358188
O O2 0.263258 0.418222 0.250416
O O3 0.017099 0.502189 0.262784
O O4 0.001675 0.339532 0.228130
O O5 0.250000 0.750000 0.997846
O O6 0.073990 0.753597 0.884760
O O7 0.020686 0.660608 0.009526
O O8 0.981114 0.819025 0.010955
O O9 0.500000 0.500000 0.500000
O O10 0.268326 0.403964 0.473319
O O11 0.446659 0.423870 0.364749
O O12 0.750000 0.750000 0.075030
O O13 0.998701 0.328165 0.745008
O O14 0.750000 0.250000 0.228644
#
# Coordination Sequence:
#
# PCOD9431495 Si02
#       6
#     8   8   8   8   8   8
#     4  11  22  40  61  87 121 155 195 247 296 350
#     4  10  22  38  59  85 115 153 195 240 293 350
#     4  10  21  39  60  84 116 153 194 241 292 346
#     4   9  20  39  60  84 116 155 196 240 291 352
#     4  11  24  38  61  92 118 156 202 243 295 355
#     4  11  23  40  60  88 123 156 197 247 294 351
#
# _framework density 18.831130000000002
#
# number of rings (size 3 to 8) (size 9 to 14) (size 15 to 20)
#    0.000    1.667    0.000    5.500    0.000   13.333 
#    0.000    1.667    0.000    0.000    0.000    0.000 
#    0.000    0.000    0.000    0.000    0.000    0.000 
#
# Total GULP energy -268007.440057 kJ/mol
# GULP energy per Si atom -5583.488335 kJ/mol
# Density = 1.878827 g / cm^3
# Si number density = 18.831130 Si / 1000 Ang^3
#
#
#
# Elastic Constant Matrix: (Units=GPa)
#
#
# Indices 1 2 3 4 5 6 
#
# 1 162.1213 43.7281 56.0504 0.0000 0.0000 0.0000
# 2 43.7281 76.6576 20.3750 0.0000 0.0000 0.0000
# 3 56.0504 20.3750 51.0332 0.0000 0.0000 0.0000
# 4 0.0000 0.0000 0.0000 9.9791 0.0000 0.0000
# 5 0.0000 0.0000 0.0000 0.0000 25.8956 0.0000
# 6 0.0000 0.0000 0.0000 0.0000 0.0000 36.9154
#
#
#
# Elastic Compliance Matrix: (Units=1/GPa)
#
#
# Indices 1 2 3 4 5 6 
#
# 1 0.010649 -0.003318 -0.010371 0.000000 0.000000 0.000000
# 2 -0.003318 0.015627 -0.002595 0.000000 0.000000 0.000000
# 3 -0.010371 -0.002595 0.032022 0.000000 0.000000 0.000000
# 4 0.000000 0.000000 0.000000 0.100209 0.000000 0.000000
# 5 0.000000 0.000000 0.000000 0.000000 0.038617 0.000000
# 6 0.000000 0.000000 0.000000 0.000000 0.000000 0.027089
#
#
# Mechanical properties :
#
#
# Convention : Reuss Voigt Hill
#
# Bulk Modulus (GPa) = 38.86529 58.90213 48.88371
# Shear Modulus (GPa) = 18.84253 25.86860 22.35557
#
# Velocity S-wave (km/s) = 3.16667 3.71039 3.44926
# Velocity P-wave (km/s) = 5.83558 7.05003 6.47136
#
# Compressibility (1/GPa) = 0.02572990
#
# Stress axis : x y z
#
# Youngs Moduli (GPa) = 93.90825 63.99006 31.22876
#
# Poissons Ratio (x) = 0.21231 0.32387
# Poissons Ratio (y) = 0.31158 0.08104
# Poissons Ratio (z) = 0.97392 0.16607
#
# Static dielectric constant tensor:
#      x y z
#    x 1.667740 0.000000 0.000000 
#    y 0.000000 1.584390 0.000000 
#    z 0.000000 0.000000 1.637480 
# 
# From -- ./inp_files/14761.got.cif
#   From: 2010.05.17/outbox.cif.g08.bks.cpg/sg56_8_cif.got.tgz:14761.got - 2010.06.03 13:42:01.
