data_PCOD9431330
_publ_section_title
;
Structure prediction by ZEFSAII (Michael W. Deem and Ramdas Pophale) SiO2 
 PCOD9431330
Probable space group: P C C N
;
_chemical_formula_sum "Si O2"
_cell_formula_units_Z 60
_cell_length_a 9.551070
_cell_length_b 14.025747
_cell_length_c 22.049123
_cell_angle_alpha 90.000000
_cell_angle_beta 90.000000
_cell_angle_gamma 90.000000
_cell_volume 2953.720172
_symmetry_space_group_name_H-M "P C C N"
_symmetry_group_IT_number 56
_symmetry_cell_setting 'orthorhombic'
loop_
_space_group_symop_operation_xyz
x,y,z
1/2-x,1/2-y,z
1/2+x,-y,1/2-z
-x,1/2+y,1/2-z
-x,-y,-z
1/2+x,1/2+y,-z
1/2-x,y,1/2+z
x,1/2-y,1/2+z
loop_
_atom_site_type_symbol
_atom_site_label
_atom_site_fract_x
_atom_site_fract_y
_atom_site_fract_z
Si Si1 0.556756 0.388401 0.576670
Si Si2 0.750000 0.250000 0.145796
Si Si3 0.176233 0.146774 0.676414
Si Si4 0.707548 0.435102 0.846299
Si Si5 0.408147 0.430979 0.805681
Si Si6 0.950091 0.395976 0.936699
Si Si7 0.091328 0.640191 0.256988
Si Si8 0.853982 0.663535 0.160975
O O1 0.692665 0.338427 0.606234
O O2 0.431148 0.353547 0.620068
O O3 0.530902 0.502569 0.572954
O O4 0.552395 0.362773 0.505650
O O5 0.629961 0.285158 0.191715
O O6 0.250000 0.250000 0.678168
O O7 0.102916 0.124990 0.741421
O O8 0.268514 0.049295 0.665539
O O9 0.545366 0.405154 0.844389
O O10 0.797481 0.409197 0.906128
O O11 0.783517 0.378471 0.791231
O O12 0.429729 0.539512 0.788334
O O13 0.257003 0.422644 0.837378
O O14 0.044311 0.328202 0.895655
O O15 0.953460 0.660054 0.218728
O O16 0.750000 0.750000 0.163547
#
# Coordination Sequence:
#
# PCOD9431330 Si02
#       8
#     8   4   8   8   8   8   8   8
#     4  10  22  40  69  88 122 169 213 264 315 367
#     4  12  24  36  64 102 120 158 214 274 310 370
#     4  10  21  36  63  95 132 158 208 262 321 371
#     4   9  20  39  63  87 123 176 201 248 314 387
#     4  11  21  36  60  93 126 163 196 251 318 381
#     4   9  21  48  64  84 124 174 216 249 317 387
#     4  10  22  38  57  91 129 153 201 252 319 377
#     4  11  24  39  62  92 123 166 201 258 311 372
#
# _framework density 20.313367
#
# number of rings (size 3 to 8) (size 9 to 14) (size 15 to 20)
#    0.000    1.867    0.000    4.400    7.467    0.533 
#    2.400    0.000    0.000    3.200    0.000    0.000 
#    0.000    0.000    0.000    0.000    0.000    0.000 
#
# Total GULP energy -334837.499781 kJ/mol
# GULP energy per Si atom -5580.624996 kJ/mol
# Density = 2.026713 g / cm^3
# Si number density = 20.313367 Si / 1000 Ang^3
#
#
#
# Elastic Constant Matrix: (Units=GPa)
#
#
# Indices 1 2 3 4 5 6 
#
# 1 122.5895 18.3251 63.8305 0.0000 0.0000 0.0000
# 2 18.3251 64.1441 21.9660 0.0000 0.0000 0.0000
# 3 63.8305 21.9660 111.8411 0.0000 0.0000 0.0000
# 4 0.0000 0.0000 0.0000 0.9577 0.0000 0.0000
# 5 0.0000 0.0000 0.0000 0.0000 16.1226 0.0000
# 6 0.0000 0.0000 0.0000 0.0000 0.0000 14.7463
#
#
#
# Elastic Compliance Matrix: (Units=1/GPa)
#
#
# Indices 1 2 3 4 5 6 
#
# 1 0.011682 -0.001130 -0.006445 0.000000 0.000000 0.000000
# 2 -0.001130 0.016823 -0.002659 0.000000 0.000000 0.000000
# 3 -0.006445 -0.002659 0.013142 0.000000 0.000000 0.000000
# 4 0.000000 0.000000 0.000000 1.044156 0.000000 0.000000
# 5 0.000000 0.000000 0.000000 0.000000 0.062025 0.000000
# 6 0.000000 0.000000 0.000000 0.000000 0.000000 0.067814
#
#
# Mechanical properties :
#
#
# Convention : Reuss Voigt Hill
#
# Bulk Modulus (GPa) = 47.21828 56.31308 51.76568
# Shear Modulus (GPa) = 4.02197 19.32887 11.67542
#
# Velocity S-wave (km/s) = 1.40864 3.08804 2.40003
# Velocity P-wave (km/s) = 5.09324 6.36373 5.76360
#
# Compressibility (1/GPa) = 0.02117824
#
# Stress axis : x y z
#
# Youngs Moduli (GPa) = 85.59986 59.44101 76.09165
#
# Poissons Ratio (x) = 0.06718 0.49044
# Poissons Ratio (y) = 0.09675 0.20234
# Poissons Ratio (z) = 0.55172 0.15806
#
# Static dielectric constant tensor:
#      x y z
#    x 2.372910 0.000000 0.000000 
#    y 0.000000 1.871330 0.000000 
#    z 0.000000 0.000000 1.696520 
# 
# From -- ./inp_files/20615.got.cif
#   From: 2010.05.17/outbox.cif.g08.bks.cpg/sg56_11_cif.got.tgz:20615.got - 2010.06.03 13:42:01.
