data_PCOD9431684
_publ_section_title
;
Structure prediction by ZEFSAII (Michael W. Deem and Ramdas Pophale) SiO2 
 PCOD9431684
Probable space group: P C C N
;
_chemical_formula_sum "Si O2"
_cell_formula_units_Z 60
_cell_length_a 8.514391
_cell_length_b 11.474117
_cell_length_c 31.807899
_cell_angle_alpha 90.000000
_cell_angle_beta 90.000000
_cell_angle_gamma 90.000000
_cell_volume 3107.476463
_symmetry_space_group_name_H-M "P C C N"
_symmetry_group_IT_number 56
_symmetry_cell_setting 'orthorhombic'
loop_
_space_group_symop_operation_xyz
x,y,z
1/2-x,1/2-y,z
1/2+x,-y,1/2-z
-x,1/2+y,1/2-z
-x,-y,-z
1/2+x,1/2+y,-z
1/2-x,y,1/2+z
x,1/2-y,1/2+z
loop_
_atom_site_type_symbol
_atom_site_label
_atom_site_fract_x
_atom_site_fract_y
_atom_site_fract_z
Si Si1 0.816427 0.637274 0.399778
Si Si2 0.079768 0.552897 0.133892
Si Si3 0.773753 0.887708 0.114910
Si Si4 0.423384 0.768778 0.335664
Si Si5 0.983749 0.443292 0.454223
Si Si6 0.750000 0.250000 0.420806
Si Si7 0.128286 0.485078 0.299850
Si Si8 0.524262 0.030787 0.214490
O O1 0.750000 0.750000 0.423578
O O2 0.676113 0.560359 0.380552
O O3 0.908600 0.547494 0.427837
O O4 0.936874 0.691045 0.365920
O O5 0.153633 0.662875 0.109728
O O6 0.895304 0.550413 0.121013
O O7 0.085256 0.550432 0.184820
O O8 0.750000 0.750000 0.119564
O O9 0.855223 0.912888 0.070365
O O10 0.884425 0.930705 0.153553
O O11 0.250000 0.750000 0.356420
O O12 0.401005 0.877217 0.304399
O O13 0.462942 0.651456 0.311022
O O14 0.868404 0.330833 0.448337
O O15 0.000000 0.500000 0.500000
O O16 0.307629 0.468825 0.285927
O O17 0.024477 0.442094 0.261675
#
# Coordination Sequence:
#
# PCOD9431684 Si02
#       8
#     8   8   8   8   8   4   8   8
#     4  11  22  40  68  93 128 168 213 270 333 387
#     4  10  22  40  65  95 128 178 215 270 328 394
#     4  11  22  44  69  93 133 181 220 275 346 408
#     4  10  21  41  60  87 128 172 221 271 323 394
#     4  11  25  46  70  99 131 170 218 278 343 412
#     4  10  22  46  66  98 136 164 228 270 346 412
#     4  10  23  38  58  92 127 175 223 272 329 387
#     4  10  22  37  59  92 129 169 232 267 321 388
#
# _framework density 19.308271999999999
#
# number of rings (size 3 to 8) (size 9 to 14) (size 15 to 20)
#    0.000    1.600    4.000    0.000    1.867    2.667 
#    7.200    1.333    0.000    0.000    0.000    0.000 
#    0.000    0.000    0.000    0.000    0.000    0.000 
#
# Total GULP energy -334537.801251 kJ/mol
# GULP energy per Si atom -5575.630021 kJ/mol
# Density = 1.926433 g / cm^3
# Si number density = 19.308272 Si / 1000 Ang^3
#
#
#
# Elastic Constant Matrix: (Units=GPa)
#
#
# Indices 1 2 3 4 5 6 
#
# 1 69.2293 31.6756 38.2139 0.0000 0.0000 0.0000
# 2 31.6756 86.0530 24.6269 0.0000 0.0000 0.0000
# 3 38.2139 24.6269 100.8197 0.0000 0.0000 0.0000
# 4 0.0000 0.0000 0.0000 16.3700 0.0000 0.0000
# 5 0.0000 0.0000 0.0000 0.0000 17.1829 0.0000
# 6 0.0000 0.0000 0.0000 0.0000 0.0000 28.0893
#
#
#
# Elastic Compliance Matrix: (Units=1/GPa)
#
#
# Indices 1 2 3 4 5 6 
#
# 1 0.020615 -0.005754 -0.006408 0.000000 0.000000 0.000000
# 2 -0.005754 0.014100 -0.001263 0.000000 0.000000 0.000000
# 3 -0.006408 -0.001263 0.012656 0.000000 0.000000 0.000000
# 4 0.000000 0.000000 0.000000 0.061087 0.000000 0.000000
# 5 0.000000 0.000000 0.000000 0.000000 0.058197 0.000000
# 6 0.000000 0.000000 0.000000 0.000000 0.000000 0.035601
#
#
# Mechanical properties :
#
#
# Convention : Reuss Voigt Hill
#
# Bulk Modulus (GPa) = 48.73260 49.45944 49.09602
# Shear Modulus (GPa) = 21.19113 23.10083 22.14598
#
# Velocity S-wave (km/s) = 3.31647 3.46268 3.39037
# Velocity P-wave (km/s) = 6.32134 6.45432 6.38817
#
# Compressibility (1/GPa) = 0.02052014
#
# Stress axis : x y z
#
# Youngs Moduli (GPa) = 48.50885 70.92019 79.01314
#
# Poissons Ratio (x) = 0.40809 0.50632
# Poissons Ratio (y) = 0.27913 0.09981
# Poissons Ratio (z) = 0.31085 0.08959
#
# Static dielectric constant tensor:
#      x y z
#    x 1.781980 0.000000 0.000000 
#    y 0.000000 1.673160 0.000000 
#    z 0.000000 0.000000 1.670390 
# 
# From -- ./inp_files/23359.got.cif
#   From: 2010.05.17/outbox.cif.g08.bks.cpg/sg56_12_cif.got.tgz:23359.got - 2010.06.03 13:42:01.
