data_PCOD9431928
_publ_section_title
;
Structure prediction by ZEFSAII (Michael W. Deem and Ramdas Pophale) SiO2 
 PCOD9431928
Probable space group: P C C N
;
_chemical_formula_sum "Si O2"
_cell_formula_units_Z 44
_cell_length_a 16.453801
_cell_length_b 9.024659
_cell_length_c 12.646774
_cell_angle_alpha 90.000000
_cell_angle_beta 90.000000
_cell_angle_gamma 90.000000
_cell_volume 1877.918754
_symmetry_space_group_name_H-M "P C C N"
_symmetry_group_IT_number 56
_symmetry_cell_setting 'orthorhombic'
loop_
_space_group_symop_operation_xyz
x,y,z
1/2-x,1/2-y,z
1/2+x,-y,1/2-z
-x,1/2+y,1/2-z
-x,-y,-z
1/2+x,1/2+y,-z
1/2-x,y,1/2+z
x,1/2-y,1/2+z
loop_
_atom_site_type_symbol
_atom_site_label
_atom_site_fract_x
_atom_site_fract_y
_atom_site_fract_z
Si Si1 0.574093 0.396153 0.618341
Si Si2 0.830950 0.974401 0.977607
Si Si3 0.582827 0.802282 0.012898
Si Si4 0.143065 0.620612 0.325926
Si Si5 0.013283 0.566624 0.649352
Si Si6 0.750000 0.250000 0.858039
O O1 0.486418 0.350738 0.570797
O O2 0.607140 0.545042 0.567456
O O3 0.636041 0.263597 0.598625
O O4 0.562941 0.405524 0.743941
O O5 0.923386 0.018112 0.940769
O O6 0.780196 0.101107 0.917939
O O7 0.813244 0.998909 0.102002
O O8 0.843899 0.796322 0.965015
O O9 0.536274 0.705590 0.102818
O O10 0.183122 0.675349 0.219504
O O11 0.052141 0.557177 0.316117
#
# Coordination Sequence:
#
# PCOD9431928 Si02
#       6
#     8   8   8   8   8   4
#     4  11  20  35  67 103 133 170 230 287 355 400
#     4  11  22  42  64  97 136 179 228 286 349 414
#     4  10  22  36  62 104 133 173 223 305 335 398
#     4  11  22  41  63 100 132 176 234 289 335 422
#     4  11  20  38  67  97 135 172 236 292 341 409
#     4  12  26  38  70  98 138 188 228 276 358 430
#
# _framework density 23.430194
#
# number of rings (size 3 to 8) (size 9 to 14) (size 15 to 20)
#    0.000    1.091    5.455    2.727    0.000    0.000 
#    0.000    0.000    0.000   26.182    0.000    0.000 
#    0.000    0.000    0.000    0.000    0.000    0.000 
#
# Total GULP energy -245433.912409 kJ/mol
# GULP energy per Si atom -5578.043464 kJ/mol
# Density = 2.337687 g / cm^3
# Si number density = 23.430194 Si / 1000 Ang^3
#
#
#
# Elastic Constant Matrix: (Units=GPa)
#
#
# Indices 1 2 3 4 5 6 
#
# 1 77.5778 38.7897 17.9558 0.0000 0.0000 0.0000
# 2 38.7897 139.3105 25.4404 0.0000 0.0000 0.0000
# 3 17.9558 25.4404 80.6585 0.0000 0.0000 0.0000
# 4 0.0000 0.0000 0.0000 14.0385 0.0000 0.0000
# 5 0.0000 0.0000 0.0000 0.0000 27.6834 0.0000
# 6 0.0000 0.0000 0.0000 0.0000 0.0000 35.3723
#
#
#
# Elastic Compliance Matrix: (Units=1/GPa)
#
#
# Indices 1 2 3 4 5 6 
#
# 1 0.015332 -0.003869 -0.002193 0.000000 0.000000 0.000000
# 2 -0.003869 0.008593 -0.001849 0.000000 0.000000 0.000000
# 3 -0.002193 -0.001849 0.013469 0.000000 0.000000 0.000000
# 4 0.000000 0.000000 0.000000 0.071233 0.000000 0.000000
# 5 0.000000 0.000000 0.000000 0.000000 0.036123 0.000000
# 6 0.000000 0.000000 0.000000 0.000000 0.000000 0.028271
#
#
# Mechanical properties :
#
#
# Convention : Reuss Voigt Hill
#
# Bulk Modulus (GPa) = 46.35384 51.32430 48.83907
# Shear Modulus (GPa) = 25.50589 29.77625 27.64107
#
# Velocity S-wave (km/s) = 3.30296 3.56876 3.43843
# Velocity P-wave (km/s) = 5.86283 6.23973 6.05421
#
# Compressibility (1/GPa) = 0.02157319
#
# Stress axis : x y z
#
# Youngs Moduli (GPa) = 65.22211 116.37277 74.24258
#
# Poissons Ratio (x) = 0.45020 0.16281
# Poissons Ratio (y) = 0.25232 0.13728
# Poissons Ratio (z) = 0.14303 0.21519
#
# Static dielectric constant tensor:
#      x y z
#    x 1.948520 0.000000 0.000000 
#    y 0.000000 1.963040 0.000000 
#    z 0.000000 0.000000 1.891390 
# 
# From -- ./inp_files/12610.got.cif
#   From: 2010.05.17/outbox.cif.g08.bks.cpg/sg56_7_cif.got.tgz:12610.got - 2010.06.03 13:42:01.
