data_PCOD9431374
_publ_section_title
;
Structure prediction by ZEFSAII (Michael W. Deem and Ramdas Pophale) SiO2 
 PCOD9431374
Probable space group: P C C N
;
_chemical_formula_sum "Si O2"
_cell_formula_units_Z 32
_cell_length_a 15.467386
_cell_length_b 6.866648
_cell_length_c 11.846062
_cell_angle_alpha 90.000000
_cell_angle_beta 90.000000
_cell_angle_gamma 90.000000
_cell_volume 1258.159526
_symmetry_space_group_name_H-M "P C C N"
_symmetry_group_IT_number 56
_symmetry_cell_setting 'orthorhombic'
loop_
_space_group_symop_operation_xyz
x,y,z
1/2-x,1/2-y,z
1/2+x,-y,1/2-z
-x,1/2+y,1/2-z
-x,-y,-z
1/2+x,1/2+y,-z
1/2-x,y,1/2+z
x,1/2-y,1/2+z
loop_
_atom_site_type_symbol
_atom_site_label
_atom_site_fract_x
_atom_site_fract_y
_atom_site_fract_z
Si Si1 0.771453 0.979520 0.496072
Si Si2 0.591712 0.540433 0.051267
Si Si3 0.405675 0.051704 0.841893
Si Si4 0.095544 0.090192 0.697280
O O1 0.750000 0.750000 0.517698
O O2 0.822082 0.052656 0.607323
O O3 0.833073 0.989433 0.387958
O O4 0.672965 0.051488 0.485715
O O5 0.584541 0.776139 0.064750
O O6 0.602826 0.483162 0.182155
O O7 0.500000 0.500000 0.000000
O O8 0.389553 0.180962 0.729117
O O9 0.495586 0.939506 0.836513
#
# Coordination Sequence:
#
# PCOD9431374 Si02
#       4
#     8   8   8   8
#     4  10  21  37  62  91 119 162 218 241 294 381
#     4   9  22  38  62  88 122 157 208 250 300 356
#     4   9  22  38  62  96 118 162 203 255 303 365
#     4  10  22  37  67  88 125 162 204 255 312 353
#
# _framework density 25.433975
#
# number of rings (size 3 to 8) (size 9 to 14) (size 15 to 20)
#    1.500    1.000    0.000    0.750   10.500    0.000 
#    0.000    1.250    0.000    0.000    0.000    0.000 
#    0.000    0.000    0.000    0.000    0.000    0.000 
#
# Total GULP energy -178420.146155 kJ/mol
# GULP energy per Si atom -5575.629567 kJ/mol
# Density = 2.537609 g / cm^3
# Si number density = 25.433975 Si / 1000 Ang^3
#
#
#
# Elastic Constant Matrix: (Units=GPa)
#
#
# Indices 1 2 3 4 5 6 
#
# 1 253.7572 11.9553 119.7088 0.0000 0.0000 0.0000
# 2 11.9553 62.2270 15.6961 0.0000 0.0000 0.0000
# 3 119.7088 15.6961 124.2220 0.0000 0.0000 0.0000
# 4 0.0000 0.0000 0.0000 22.6882 0.0000 0.0000
# 5 0.0000 0.0000 0.0000 0.0000 37.6629 0.0000
# 6 0.0000 0.0000 0.0000 0.0000 0.0000 25.4646
#
#
#
# Elastic Compliance Matrix: (Units=1/GPa)
#
#
# Indices 1 2 3 4 5 6 
#
# 1 0.007234 0.000381 -0.007020 0.000000 0.000000 0.000000
# 2 0.000381 0.016619 -0.002467 0.000000 0.000000 0.000000
# 3 -0.007020 -0.002467 0.015126 0.000000 0.000000 0.000000
# 4 0.000000 0.000000 0.000000 0.044076 0.000000 0.000000
# 5 0.000000 0.000000 0.000000 0.000000 0.026551 0.000000
# 6 0.000000 0.000000 0.000000 0.000000 0.000000 0.039270
#
#
# Mechanical properties :
#
#
# Convention : Reuss Voigt Hill
#
# Bulk Modulus (GPa) = 48.14969 81.65853 64.90411
# Shear Modulus (GPa) = 28.73374 36.68618 32.70996
#
# Velocity S-wave (km/s) = 3.36480 3.80203 3.59008
# Velocity P-wave (km/s) = 5.83680 7.17284 6.53903
#
# Compressibility (1/GPa) = 0.02076856
#
# Stress axis : x y z
#
# Youngs Moduli (GPa) = 138.23072 60.17110 66.10992
#
# Poissons Ratio (x) = -0.02291 0.46406
# Poissons Ratio (y) = -0.05263 0.16308
# Poissons Ratio (z) = 0.97032 0.14843
#
# Static dielectric constant tensor:
#      x y z
#    x 2.144180 0.000000 0.000000 
#    y 0.000000 2.216540 0.000000 
#    z 0.000000 0.000000 2.068090 
# 
# From -- ./inp_files/6795.got.cif
#   From: 2010.05.17/outbox.cif.g08.bks.cpg/sg56_4_cif.got.tgz:6795.got - 2010.06.03 13:42:01.
