data_PCOD9431923
_publ_section_title
;
Structure prediction by ZEFSAII (Michael W. Deem and Ramdas Pophale) SiO2 
 PCOD9431923
Probable space group: P C C N
;
_chemical_formula_sum "Si O2"
_cell_formula_units_Z 40
_cell_length_a 10.513192
_cell_length_b 9.191878
_cell_length_c 17.509770
_cell_angle_alpha 90.000000
_cell_angle_beta 90.000000
_cell_angle_gamma 90.000000
_cell_volume 1692.073753
_symmetry_space_group_name_H-M "P C C N"
_symmetry_group_IT_number 56
_symmetry_cell_setting 'orthorhombic'
loop_
_space_group_symop_operation_xyz
x,y,z
1/2-x,1/2-y,z
1/2+x,-y,1/2-z
-x,1/2+y,1/2-z
-x,-y,-z
1/2+x,1/2+y,-z
1/2-x,y,1/2+z
x,1/2-y,1/2+z
loop_
_atom_site_type_symbol
_atom_site_label
_atom_site_fract_x
_atom_site_fract_y
_atom_site_fract_z
Si Si1 0.750000 0.250000 0.279152
Si Si2 0.494490 0.835058 0.309194
Si Si3 0.750000 0.750000 0.564490
Si Si4 0.013120 0.182471 0.543735
Si Si5 0.101335 0.615594 0.102590
Si Si6 0.415786 0.157212 0.312406
O O1 0.869187 0.248224 0.222419
O O2 0.722582 0.379998 0.341062
O O3 0.505192 0.815952 0.399259
O O4 0.606218 0.755518 0.262483
O O5 0.474200 0.003130 0.290451
O O6 0.862380 0.803608 0.509758
O O7 0.696588 0.866811 0.626113
O O8 0.894483 0.162007 0.486394
O O9 0.034896 0.040440 0.596121
O O10 0.012725 0.738379 0.140991
#
# Coordination Sequence:
#
# PCOD9431923 Si02
#       6
#     4   8   4   8   8   8
#     4  10  22  36  58  92 124 162 204 252 312 362
#     4  11  23  39  64  94 125 164 213 261 309 373
#     4  10  24  40  62  94 128 166 206 256 320 374
#     4  10  22  41  64  92 125 167 213 260 311 371
#     4   9  21  41  61  85 126 166 208 259 312 371
#     4  10  23  42  63  91 128 164 209 262 314 372
#
# _framework density 23.639631999999999
#
# number of rings (size 3 to 8) (size 9 to 14) (size 15 to 20)
#    0.000    2.000    0.000    2.400    0.000   17.600 
#    0.000    0.000    0.000    2.400    0.000    0.000 
#    0.000    0.000    0.000    0.000    0.000    0.000 
#
# Total GULP energy -222840.263450 kJ/mol
# GULP energy per Si atom -5571.006586 kJ/mol
# Density = 2.358583 g / cm^3
# Si number density = 23.639632 Si / 1000 Ang^3
#
#
#
# Elastic Constant Matrix: (Units=GPa)
#
#
# Indices 1 2 3 4 5 6 
#
# 1 86.3150 8.5829 27.4555 0.0000 0.0000 0.0000
# 2 8.5829 86.2430 24.4827 0.0000 0.0000 0.0000
# 3 27.4555 24.4827 115.5898 0.0000 0.0000 0.0000
# 4 0.0000 0.0000 0.0000 42.3805 0.0000 0.0000
# 5 0.0000 0.0000 0.0000 0.0000 49.1506 0.0000
# 6 0.0000 0.0000 0.0000 0.0000 0.0000 13.8388
#
#
#
# Elastic Compliance Matrix: (Units=1/GPa)
#
#
# Indices 1 2 3 4 5 6 
#
# 1 0.012547 -0.000428 -0.002890 0.000000 0.000000 0.000000
# 2 -0.000428 0.012352 -0.002514 0.000000 0.000000 0.000000
# 3 -0.002890 -0.002514 0.009870 0.000000 0.000000 0.000000
# 4 0.000000 0.000000 0.000000 0.023596 0.000000 0.000000
# 5 0.000000 0.000000 0.000000 0.000000 0.020346 0.000000
# 6 0.000000 0.000000 0.000000 0.000000 0.000000 0.072261
#
#
# Mechanical properties :
#
#
# Convention : Reuss Voigt Hill
#
# Bulk Modulus (GPa) = 43.28203 45.46554 44.37379
# Shear Modulus (GPa) = 29.35354 36.24908 32.80131
#
# Velocity S-wave (km/s) = 3.52761 3.92012 3.72903
# Velocity P-wave (km/s) = 5.91108 6.30589 6.11168
#
# Compressibility (1/GPa) = 0.02310428
#
# Stress axis : x y z
#
# Youngs Moduli (GPa) = 79.69910 80.96139 101.31525
#
# Poissons Ratio (x) = 0.03469 0.29275
# Poissons Ratio (y) = 0.03414 0.25475
# Poissons Ratio (z) = 0.23029 0.20357
#
# Static dielectric constant tensor:
#      x y z
#    x 2.116270 0.000000 0.000000 
#    y 0.000000 1.894570 0.000000 
#    z 0.000000 0.000000 1.950770 
# 
# From -- ./inp_files/15436.got.cif
#   From: 2010.05.17/outbox.cif.g08.bks.cpg/sg56_8_cif.got.tgz:15436.got - 2010.06.03 13:42:01.
