data_PCOD9431810
_publ_section_title
;
Structure prediction by ZEFSAII (Michael W. Deem and Ramdas Pophale) SiO2 
 PCOD9431810
Probable space group: P C C N
;
_chemical_formula_sum "Si O2"
_cell_formula_units_Z 48
_cell_length_a 8.072688
_cell_length_b 18.182262
_cell_length_c 15.257595
_cell_angle_alpha 90.000000
_cell_angle_beta 90.000000
_cell_angle_gamma 90.000000
_cell_volume 2239.505648
_symmetry_space_group_name_H-M "P C C N"
_symmetry_group_IT_number 56
_symmetry_cell_setting 'orthorhombic'
loop_
_space_group_symop_operation_xyz
x,y,z
1/2-x,1/2-y,z
1/2+x,-y,1/2-z
-x,1/2+y,1/2-z
-x,-y,-z
1/2+x,1/2+y,-z
1/2-x,y,1/2+z
x,1/2-y,1/2+z
loop_
_atom_site_type_symbol
_atom_site_label
_atom_site_fract_x
_atom_site_fract_y
_atom_site_fract_z
Si Si1 0.948365 0.426234 0.447046
Si Si2 0.446057 0.836006 0.394424
Si Si3 0.107603 0.064483 0.757515
Si Si4 0.142670 0.827747 0.573203
Si Si5 0.482905 0.409997 0.277216
Si Si6 0.043118 0.671576 0.887745
O O1 0.011176 0.359800 0.510245
O O2 0.758186 0.399545 0.442177
O O3 0.000000 0.500000 0.500000
O O4 0.001702 0.428567 0.346450
O O5 0.511938 0.892611 0.325021
O O6 0.497649 0.755369 0.366095
O O7 0.244488 0.838250 0.385682
O O8 0.291530 0.075593 0.794140
O O9 0.046515 0.119952 0.681735
O O10 0.086571 0.984519 0.714362
O O11 0.250000 0.750000 0.570348
O O12 0.013854 0.832135 0.492601
O O13 0.056533 0.843512 0.665678
#
# Coordination Sequence:
#
# PCOD9431810 Si02
#       6
#     8   8   8   8   8   8
#     4  11  22  43  73  99 141 181 233 290 357 420
#     4  10  21  42  70 100 135 183 226 292 352 422
#     4  12  27  45  67 104 141 190 236 301 351 418
#     4  11  24  47  75 104 137 193 234 288 366 439
#     4  12  27  43  69 104 141 186 243 288 359 421
#     4  10  22  44  73  99 135 183 239 281 357 421
#
# _framework density 21.433302999999999
#
# number of rings (size 3 to 8) (size 9 to 14) (size 15 to 20)
#    0.000    1.000    5.000    3.000    7.000    2.667 
#    0.000    0.000    0.000    0.000    0.000    0.000 
#    0.000    0.000    0.000    0.000    0.000    0.000 
#
# Total GULP energy -267452.762681 kJ/mol
# GULP energy per Si atom -5571.932556 kJ/mol
# Density = 2.138452 g / cm^3
# Si number density = 21.433303 Si / 1000 Ang^3
#
#
#
# Elastic Constant Matrix: (Units=GPa)
#
#
# Indices 1 2 3 4 5 6 
#
# 1 34.7105 27.5051 5.3708 0.0000 0.0000 0.0000
# 2 27.5051 90.4563 44.3723 0.0000 0.0000 0.0000
# 3 5.3708 44.3723 119.4418 0.0000 0.0000 0.0000
# 4 0.0000 0.0000 0.0000 42.5624 0.0000 0.0000
# 5 0.0000 0.0000 0.0000 0.0000 2.8249 0.0000
# 6 0.0000 0.0000 0.0000 0.0000 0.0000 22.3531
#
#
#
# Elastic Compliance Matrix: (Units=1/GPa)
#
#
# Indices 1 2 3 4 5 6 
#
# 1 0.038953 -0.013433 0.003239 0.000000 0.000000 0.000000
# 2 -0.013433 0.018151 -0.006139 0.000000 0.000000 0.000000
# 3 0.003239 -0.006139 0.010507 0.000000 0.000000 0.000000
# 4 0.000000 0.000000 0.000000 0.023495 0.000000 0.000000
# 5 0.000000 0.000000 0.000000 0.000000 0.354000 0.000000
# 6 0.000000 0.000000 0.000000 0.000000 0.000000 0.044737
#
#
# Mechanical properties :
#
#
# Convention : Reuss Voigt Hill
#
# Bulk Modulus (GPa) = 28.61662 44.34500 36.48081
# Shear Modulus (GPa) = 9.36052 24.70542 17.03297
#
# Velocity S-wave (km/s) = 2.09207 3.39878 2.82209
# Velocity P-wave (km/s) = 4.38362 6.01140 5.26085
#
# Compressibility (1/GPa) = 0.03494473
#
# Stress axis : x y z
#
# Youngs Moduli (GPa) = 25.67171 55.09274 95.17205
#
# Poissons Ratio (x) = 0.74008 -0.30825
# Poissons Ratio (y) = 0.34486 0.58427
# Poissons Ratio (z) = -0.08315 0.33822
#
# Static dielectric constant tensor:
#      x y z
#    x 1.934520 0.000000 0.000000 
#    y 0.000000 1.712480 0.000000 
#    z 0.000000 0.000000 1.806510 
# 
# From -- ./inp_files/10704.got.cif
#   From: 2010.05.17/outbox.cif.g08.bks.cpg/sg56_6_cif.got.tgz:10704.got - 2010.06.03 13:42:01.
