data_PCOD9431481
_publ_section_title
;
Structure prediction by ZEFSAII (Michael W. Deem and Ramdas Pophale) SiO2 
 PCOD9431481
Probable space group: P C C N
;
_chemical_formula_sum "Si O2"
_cell_formula_units_Z 48
_cell_length_a 12.224992
_cell_length_b 6.998928
_cell_length_c 21.604665
_cell_angle_alpha 90.000000
_cell_angle_beta 90.000000
_cell_angle_gamma 90.000000
_cell_volume 1848.534864
_symmetry_space_group_name_H-M "P C C N"
_symmetry_group_IT_number 56
_symmetry_cell_setting 'orthorhombic'
loop_
_space_group_symop_operation_xyz
x,y,z
1/2-x,1/2-y,z
1/2+x,-y,1/2-z
-x,1/2+y,1/2-z
-x,-y,-z
1/2+x,1/2+y,-z
1/2-x,y,1/2+z
x,1/2-y,1/2+z
loop_
_atom_site_type_symbol
_atom_site_label
_atom_site_fract_x
_atom_site_fract_y
_atom_site_fract_z
Si Si1 0.801650 0.444885 0.169982
Si Si2 0.409159 0.316542 0.814905
Si Si3 0.286650 0.028493 0.061773
Si Si4 0.951852 0.509718 0.407826
Si Si5 0.368879 0.167396 0.184050
Si Si6 0.378483 0.804613 0.957509
O O1 0.750000 0.250000 0.197688
O O2 0.692569 0.565986 0.155595
O O3 0.876162 0.601235 0.202424
O O4 0.874850 0.396085 0.110631
O O5 0.494795 0.337847 0.869704
O O6 0.426320 0.402953 0.746357
O O7 0.250000 0.250000 0.049642
O O8 0.338393 0.018676 0.129998
O O9 0.163939 0.940575 0.063987
O O10 0.376441 0.958647 0.012792
O O11 0.926936 0.662093 0.352894
O O12 0.967358 0.365933 0.547523
O O13 0.250000 0.250000 0.202685
O O14 0.250000 0.750000 0.960385
#
# Coordination Sequence:
#
# PCOD9431481 Si02
#       6
#     8   8   8   8   8   8
#     4  10  21  38  69 104 136 183 233 285 355 423
#     4  11  20  41  73  97 145 192 226 300 358 419
#     4   9  23  43  68  93 145 191 232 309 363 422
#     4  10  22  42  66 105 136 187 248 290 362 438
#     4   9  20  42  66  96 145 187 234 292 362 425
#     4  11  22  41  66  98 140 179 247 299 354 434
#
# _framework density 25.966508999999999
#
# number of rings (size 3 to 8) (size 9 to 14) (size 15 to 20)
#    0.000    2.333    5.000    0.000    2.333    4.667 
#    0.000    5.833    0.000    1.000    0.000    0.000 
#    0.000    0.000    0.000    0.000    0.000    0.000 
#
# Total GULP energy -267618.227582 kJ/mol
# GULP energy per Si atom -5575.379741 kJ/mol
# Density = 2.590741 g / cm^3
# Si number density = 25.966509 Si / 1000 Ang^3
#
#
#
# Elastic Constant Matrix: (Units=GPa)
#
#
# Indices 1 2 3 4 5 6 
#
# 1 115.4358 62.9911 36.6628 0.0000 0.0000 0.0000
# 2 62.9911 101.5973 42.9729 0.0000 0.0000 0.0000
# 3 36.6628 42.9729 96.2508 0.0000 0.0000 0.0000
# 4 0.0000 0.0000 0.0000 24.8675 0.0000 0.0000
# 5 0.0000 0.0000 0.0000 0.0000 -4.9468 0.0000
# 6 0.0000 0.0000 0.0000 0.0000 0.0000 24.5716
#
#
#
# Elastic Compliance Matrix: (Units=1/GPa)
#
#
# Indices 1 2 3 4 5 6 
#
# 1 0.013316 -0.007533 -0.001709 0.000000 0.000000 0.000000
# 2 -0.007533 0.016396 -0.004451 0.000000 0.000000 0.000000
# 3 -0.001709 -0.004451 0.013028 0.000000 0.000000 0.000000
# 4 0.000000 0.000000 0.000000 0.040213 0.000000 0.000000
# 5 0.000000 0.000000 0.000000 0.000000 -0.202152 0.000000
# 6 0.000000 0.000000 0.000000 0.000000 0.000000 0.040697
#
#
# Mechanical properties :
#
#
# Convention : Reuss Voigt Hill
#
# Bulk Modulus (GPa) = 65.13019 66.50418 65.81718
# Shear Modulus (GPa) = -108.70256 20.27561 -44.21348
#
# Velocity S-wave (km/s) = -6.47715 2.79738 -4.13087
# Velocity P-wave (km/s) = 5.54988 6.00840 1.62784
#
# Compressibility (1/GPa) = 0.01535386
#
# Stress axis : x y z
#
# Youngs Moduli (GPa) = 75.09508 60.98991 76.76012
#
# Poissons Ratio (x) = 0.45947 0.13118
# Poissons Ratio (y) = 0.56573 0.34164
# Poissons Ratio (z) = 0.12833 0.27145
#
# Static dielectric constant tensor:
#      x y z
#    x 2.112930 0.000000 0.000000 
#    y 0.000000 2.201950 0.000000 
#    z 0.000000 0.000000 2.223810 
# 
# From -- ./inp_files/18968.got.cif
#   From: 2010.05.17/outbox.cif.g08.bks.cpg/sg56_10_cif.got.tgz:18968.got - 2010.06.03 13:42:01.
