data_PCOD9431689
_publ_section_title
;
Structure prediction by ZEFSAII (Michael W. Deem and Ramdas Pophale) SiO2 
 PCOD9431689
Probable space group: P C C N
;
_chemical_formula_sum "Si O2"
_cell_formula_units_Z 60
_cell_length_a 8.817116
_cell_length_b 13.493741
_cell_length_c 24.109246
_cell_angle_alpha 90.000000
_cell_angle_beta 90.000000
_cell_angle_gamma 90.000000
_cell_volume 2868.418751
_symmetry_space_group_name_H-M "P C C N"
_symmetry_group_IT_number 56
_symmetry_cell_setting 'orthorhombic'
loop_
_space_group_symop_operation_xyz
x,y,z
1/2-x,1/2-y,z
1/2+x,-y,1/2-z
-x,1/2+y,1/2-z
-x,-y,-z
1/2+x,1/2+y,-z
1/2-x,y,1/2+z
x,1/2-y,1/2+z
loop_
_atom_site_type_symbol
_atom_site_label
_atom_site_fract_x
_atom_site_fract_y
_atom_site_fract_z
Si Si1 0.103732 0.030893 0.857025
Si Si2 0.646481 0.013109 0.061288
Si Si3 0.107061 0.955488 0.639687
Si Si4 0.164625 0.102197 0.178922
Si Si5 0.750000 0.750000 0.418617
Si Si6 0.641878 0.327545 0.903745
Si Si7 0.155633 0.344310 0.801362
Si Si8 0.500624 0.820928 0.005087
O O1 0.189427 0.992959 0.911722
O O2 0.235030 0.064152 0.815814
O O3 0.998614 0.124068 0.872930
O O4 0.993998 0.950725 0.831649
O O5 0.514328 0.022850 0.107445
O O6 0.625820 0.107723 0.022290
O O7 0.605547 0.904375 0.035939
O O8 0.001849 0.871349 0.668387
O O9 0.232846 0.916708 0.594969
O O10 0.203945 0.018706 0.683264
O O11 0.208468 0.162394 0.123910
O O12 0.144530 0.162986 0.235284
O O13 0.607664 0.727231 0.458552
O O14 0.750000 0.250000 0.871945
O O15 0.925892 0.237109 0.955053
O O16 0.250000 0.250000 0.822977
#
# Coordination Sequence:
#
# PCOD9431689 Si02
#       8
#     8   8   8   8   4   8   8   8
#     4  10  24  39  66  94 128 165 213 268 325 386
#     4  10  21  41  61  91 129 171 214 261 331 382
#     4  10  21  41  66  91 133 166 212 269 330 384
#     4  11  23  44  63  95 130 171 213 267 324 392
#     4  12  24  42  64  92 132 178 222 262 320 394
#     4  11  21  38  62  96 125 160 217 269 311 381
#     4  11  22  40  71  97 126 167 212 267 330 389
#     4  11  23  38  64  90 131 174 214 268 321 379
#
# _framework density 20.917449000000001
#
# number of rings (size 3 to 8) (size 9 to 14) (size 15 to 20)
#    0.000    1.333    3.333    2.400    1.867    1.067 
#    0.000    2.667    0.000    3.200    0.000    0.000 
#    0.000    0.000    0.000    0.000    0.000    0.000 
#
# Total GULP energy -334409.853317 kJ/mol
# GULP energy per Si atom -5573.497555 kJ/mol
# Density = 2.086984 g / cm^3
# Si number density = 20.917449 Si / 1000 Ang^3
#
#
#
# Elastic Constant Matrix: (Units=GPa)
#
#
# Indices 1 2 3 4 5 6 
#
# 1 121.5210 34.7169 41.0778 0.0000 0.0000 0.0000
# 2 34.7169 64.0512 23.6695 0.0000 0.0000 0.0000
# 3 41.0778 23.6695 84.3211 0.0000 0.0000 0.0000
# 4 0.0000 0.0000 0.0000 34.1586 0.0000 0.0000
# 5 0.0000 0.0000 0.0000 0.0000 17.6439 0.0000
# 6 0.0000 0.0000 0.0000 0.0000 0.0000 32.1772
#
#
#
# Elastic Compliance Matrix: (Units=1/GPa)
#
#
# Indices 1 2 3 4 5 6 
#
# 1 0.010852 -0.004383 -0.004056 0.000000 0.000000 0.000000
# 2 -0.004383 0.019190 -0.003251 0.000000 0.000000 0.000000
# 3 -0.004056 -0.003251 0.014748 0.000000 0.000000 0.000000
# 4 0.000000 0.000000 0.000000 0.029275 0.000000 0.000000
# 5 0.000000 0.000000 0.000000 0.000000 0.056677 0.000000
# 6 0.000000 0.000000 0.000000 0.000000 0.000000 0.031078
#
#
# Mechanical properties :
#
#
# Convention : Reuss Voigt Hill
#
# Bulk Modulus (GPa) = 46.71066 52.09130 49.40098
# Shear Modulus (GPa) = 25.99578 28.15787 27.07682
#
# Velocity S-wave (km/s) = 3.52913 3.67296 3.60177
# Velocity P-wave (km/s) = 6.24386 6.55323 6.40042
#
# Compressibility (1/GPa) = 0.02140839
#
# Stress axis : x y z
#
# Youngs Moduli (GPa) = 92.14502 52.11100 67.80459
#
# Poissons Ratio (x) = 0.22841 0.27505
# Poissons Ratio (y) = 0.40389 0.22046
# Poissons Ratio (z) = 0.37378 0.16943
#
# Static dielectric constant tensor:
#      x y z
#    x 1.748900 0.000000 0.000000 
#    y 0.000000 1.818450 0.000000 
#    z 0.000000 0.000000 1.783650 
# 
# From -- ./inp_files/20626.got.cif
#   From: 2010.05.17/outbox.cif.g08.bks.cpg/sg56_11_cif.got.tgz:20626.got - 2010.06.03 13:42:01.
