data_PCOD9431433
_publ_section_title
;
Structure prediction by ZEFSAII (Michael W. Deem and Ramdas Pophale) SiO2 
 PCOD9431433
Probable space group: P C C N
;
_chemical_formula_sum "Si O2"
_cell_formula_units_Z 56
_cell_length_a 19.287201
_cell_length_b 10.420500
_cell_length_c 13.458890
_cell_angle_alpha 90.000000
_cell_angle_beta 90.000000
_cell_angle_gamma 90.000000
_cell_volume 2704.998372
_symmetry_space_group_name_H-M "P C C N"
_symmetry_group_IT_number 56
_symmetry_cell_setting 'orthorhombic'
loop_
_space_group_symop_operation_xyz
x,y,z
1/2-x,1/2-y,z
1/2+x,-y,1/2-z
-x,1/2+y,1/2-z
-x,-y,-z
1/2+x,1/2+y,-z
1/2-x,y,1/2+z
x,1/2-y,1/2+z
loop_
_atom_site_type_symbol
_atom_site_label
_atom_site_fract_x
_atom_site_fract_y
_atom_site_fract_z
Si Si1 0.213945 0.557939 0.430406
Si Si2 0.958843 0.086777 0.360362
Si Si3 0.336901 0.826887 0.841557
Si Si4 0.301008 0.520091 0.161453
Si Si5 0.575182 0.674392 0.795832
Si Si6 0.482805 0.820391 0.932178
Si Si7 0.655506 0.561786 0.251312
O O1 0.185919 0.691291 0.385693
O O2 0.295834 0.563935 0.404646
O O3 0.201831 0.549618 0.545895
O O4 0.174769 0.453077 0.364541
O O5 0.955339 0.182505 0.454700
O O6 0.021754 0.130907 0.289855
O O7 0.892055 0.055570 0.292697
O O8 0.973506 0.949396 0.412397
O O9 0.418054 0.834164 0.858281
O O10 0.312610 0.854847 0.729957
O O11 0.366238 0.430429 0.185813
O O12 0.229198 0.451375 0.192939
O O13 0.529891 0.703708 0.894544
O O14 0.614543 0.806512 0.768015
#
# Coordination Sequence:
#
# PCOD9431433 Si02
#       7
#     8   8   8   8   8   8   8
#     4  10  23  38  67  95 123 173 222 262 332 387
#     4  10  21  40  62  87 132 169 218 261 325 401
#     4  10  21  41  62  93 128 166 214 275 321 388
#     4  11  23  43  65  97 137 168 222 282 333 395
#     4  11  23  40  65  97 133 172 218 279 336 394
#     4  10  21  38  62  89 122 177 212 257 334 392
#     4  10  23  43  64  98 134 173 222 275 333 400
#
# _framework density 20.702415999999999
#
# number of rings (size 3 to 8) (size 9 to 14) (size 15 to 20)
#    0.000    1.714    1.429    2.143    2.000    6.857 
#    0.000    4.286    0.000    0.000    0.000    0.000 
#    0.000    0.000    0.000    0.000    0.000    0.000 
#
# Total GULP energy -312626.057879 kJ/mol
# GULP energy per Si atom -5582.608176 kJ/mol
# Density = 2.065530 g / cm^3
# Si number density = 20.702416 Si / 1000 Ang^3
#
#
#
# Elastic Constant Matrix: (Units=GPa)
#
#
# Indices 1 2 3 4 5 6 
#
# 1 107.2141 16.5344 40.4192 0.0000 0.0000 0.0000
# 2 16.5344 49.6004 32.8832 0.0000 0.0000 0.0000
# 3 40.4192 32.8832 163.4912 0.0000 0.0000 0.0000
# 4 0.0000 0.0000 0.0000 12.0131 0.0000 0.0000
# 5 0.0000 0.0000 0.0000 0.0000 14.2972 0.0000
# 6 0.0000 0.0000 0.0000 0.0000 0.0000 25.2229
#
#
#
# Elastic Compliance Matrix: (Units=1/GPa)
#
#
# Indices 1 2 3 4 5 6 
#
# 1 0.010463 -0.002046 -0.002175 0.000000 0.000000 0.000000
# 2 -0.002046 0.023663 -0.004254 0.000000 0.000000 0.000000
# 3 -0.002175 -0.004254 0.007510 0.000000 0.000000 0.000000
# 4 0.000000 0.000000 0.000000 0.083242 0.000000 0.000000
# 5 0.000000 0.000000 0.000000 0.000000 0.069944 0.000000
# 6 0.000000 0.000000 0.000000 0.000000 0.000000 0.039646
#
#
# Mechanical properties :
#
#
# Convention : Reuss Voigt Hill
#
# Bulk Modulus (GPa) = 40.50790 55.55325 48.03057
# Shear Modulus (GPa) = 19.25700 25.67124 22.46412
#
# Velocity S-wave (km/s) = 3.05320 3.52520 3.29765
# Velocity P-wave (km/s) = 5.66026 6.59256 6.14412
#
# Compressibility (1/GPa) = 0.02468654
#
# Stress axis : x y z
#
# Youngs Moduli (GPa) = 95.57812 42.25998 133.15863
#
# Poissons Ratio (x) = 0.08645 0.28964
# Poissons Ratio (y) = 0.19552 0.56641
# Poissons Ratio (z) = 0.20790 0.17976
#
# Static dielectric constant tensor:
#      x y z
#    x 1.770620 0.000000 0.000000 
#    y 0.000000 1.760370 0.000000 
#    z 0.000000 0.000000 1.744760 
# 
# From -- ./inp_files/8649.got.cif
#   From: 2010.05.17/outbox.cif.g08.bks.cpg/sg56_5_cif.got.tgz:8649.got - 2010.06.03 13:42:01.
