data_PCOD9431518
_publ_section_title
;
Structure prediction by ZEFSAII (Michael W. Deem and Ramdas Pophale) SiO2 
 PCOD9431518
Probable space group: P C C N
;
_chemical_formula_sum "Si O2"
_cell_formula_units_Z 64
_cell_length_a 11.074411
_cell_length_b 9.309112
_cell_length_c 31.264468
_cell_angle_alpha 90.000000
_cell_angle_beta 90.000000
_cell_angle_gamma 90.000000
_cell_volume 3223.145684
_symmetry_space_group_name_H-M "P C C N"
_symmetry_group_IT_number 56
_symmetry_cell_setting 'orthorhombic'
loop_
_space_group_symop_operation_xyz
x,y,z
1/2-x,1/2-y,z
1/2+x,-y,1/2-z
-x,1/2+y,1/2-z
-x,-y,-z
1/2+x,1/2+y,-z
1/2-x,y,1/2+z
x,1/2-y,1/2+z
loop_
_atom_site_type_symbol
_atom_site_label
_atom_site_fract_x
_atom_site_fract_y
_atom_site_fract_z
Si Si1 0.881141 0.917292 0.272742
Si Si2 0.890603 0.214396 0.969011
Si Si3 0.277840 0.417522 0.634569
Si Si4 0.973308 0.032256 0.887124
Si Si5 0.610073 0.285348 0.065249
Si Si6 0.880642 0.705785 0.141281
Si Si7 0.521679 0.484082 0.426511
Si Si8 0.379189 0.402824 0.262072
O O1 0.858332 0.938980 0.323245
O O2 0.894100 0.747035 0.263584
O O3 0.752760 0.963427 0.251358
O O4 0.001796 0.998712 0.257339
O O5 0.750000 0.250000 0.962128
O O6 0.937312 0.111055 0.931610
O O7 0.960757 0.366030 0.963372
O O8 0.900894 0.153810 0.016906
O O9 0.250000 0.250000 0.628690
O O10 0.148140 0.491027 0.637403
O O11 0.349078 0.480771 0.594403
O O12 0.043911 0.147507 0.858962
O O13 0.051587 0.893936 0.900731
O O14 0.750000 0.250000 0.074210
O O15 0.539785 0.134880 0.063975
O O16 0.750000 0.750000 0.124382
O O17 0.870234 0.640564 0.188232
O O18 0.943045 0.594698 0.109664
#
# Coordination Sequence:
#
# PCOD9431518 Si02
#       8
#     8   8   8   8   8   8   8   8
#     4  11  25  44  67  96 128 167 214 264 323 383
#     4  10  21  39  62  93 126 164 211 261 316 374
#     4  12  22  41  67  94 124 161 213 268 309 370
#     4  11  24  39  67  93 125 166 214 261 312 372
#     4  11  23  40  61  92 130 166 209 262 315 377
#     4  11  23  42  64  90 127 168 206 254 317 380
#     4  11  22  40  64  91 125 166 213 254 317 371
#     4  11  24  44  65  94 132 166 208 266 320 384
#
# _framework density 19.856380000000001
#
# number of rings (size 3 to 8) (size 9 to 14) (size 15 to 20)
#    0.000    1.000    6.250    1.500    1.750    0.500 
#    0.000    0.000    2.750    0.000    0.000    0.000 
#    0.000    0.000    0.000    0.000    0.000    0.000 
#
# Total GULP energy -357517.037569 kJ/mol
# GULP energy per Si atom -5586.203712 kJ/mol
# Density = 1.981119 g / cm^3
# Si number density = 19.856380 Si / 1000 Ang^3
#
#
#
# Elastic Constant Matrix: (Units=GPa)
#
#
# Indices 1 2 3 4 5 6 
#
# 1 109.6160 25.6969 -5.0578 0.0000 0.0000 0.0000
# 2 25.6969 57.4745 -2.6351 0.0000 0.0000 0.0000
# 3 -5.0578 -2.6351 34.9256 0.0000 0.0000 0.0000
# 4 0.0000 0.0000 0.0000 11.7273 0.0000 0.0000
# 5 0.0000 0.0000 0.0000 0.0000 15.3415 0.0000
# 6 0.0000 0.0000 0.0000 0.0000 0.0000 43.9643
#
#
#
# Elastic Compliance Matrix: (Units=1/GPa)
#
#
# Indices 1 2 3 4 5 6 
#
# 1 0.010236 -0.004524 0.001141 0.000000 0.000000 0.000000
# 2 -0.004524 0.019459 0.000813 0.000000 0.000000 0.000000
# 3 0.001141 0.000813 0.028859 0.000000 0.000000 0.000000
# 4 0.000000 0.000000 0.000000 0.085271 0.000000 0.000000
# 5 0.000000 0.000000 0.000000 0.000000 0.065183 0.000000
# 6 0.000000 0.000000 0.000000 0.000000 0.000000 0.022746
#
#
# Mechanical properties :
#
#
# Convention : Reuss Voigt Hill
#
# Bulk Modulus (GPa) = 18.72187 26.44713 22.58450
# Shear Modulus (GPa) = 19.63109 26.47411 23.05260
#
# Velocity S-wave (km/s) = 3.14770 3.65537 3.41099
# Velocity P-wave (km/s) = 4.76023 5.58245 5.18766
#
# Compressibility (1/GPa) = 0.05341346
#
# Stress axis : x y z
#
# Youngs Moduli (GPa) = 97.69444 51.38986 34.65144
#
# Poissons Ratio (x) = 0.23250 -0.03954
# Poissons Ratio (y) = 0.44199 -0.02817
# Poissons Ratio (z) = -0.11147 -0.04178
#
# Static dielectric constant tensor:
#      x y z
#    x 1.711830 0.000000 0.000000 
#    y 0.000000 1.720140 0.000000 
#    z 0.000000 0.000000 1.702670 
# 
# From -- ./inp_files/23537.got.cif
#   From: 2010.05.17/outbox.cif.g08.bks.cpg/sg56_12_cif.got.tgz:23537.got - 2010.06.03 13:42:01.
