data_PCOD9431341
_publ_section_title
;
Structure prediction by ZEFSAII (Michael W. Deem and Ramdas Pophale) SiO2 
 PCOD9431341
Probable space group: P C C N
;
_chemical_formula_sum "Si O2"
_cell_formula_units_Z 64
_cell_length_a 7.706747
_cell_length_b 20.381425
_cell_length_c 20.561585
_cell_angle_alpha 90.000000
_cell_angle_beta 90.000000
_cell_angle_gamma 90.000000
_cell_volume 3229.700395
_symmetry_space_group_name_H-M "P C C N"
_symmetry_group_IT_number 56
_symmetry_cell_setting 'orthorhombic'
loop_
_space_group_symop_operation_xyz
x,y,z
1/2-x,1/2-y,z
1/2+x,-y,1/2-z
-x,1/2+y,1/2-z
-x,-y,-z
1/2+x,1/2+y,-z
1/2-x,y,1/2+z
x,1/2-y,1/2+z
loop_
_atom_site_type_symbol
_atom_site_label
_atom_site_fract_x
_atom_site_fract_y
_atom_site_fract_z
Si Si1 0.303766 0.400027 0.534164
Si Si2 0.870419 0.937828 0.602840
Si Si3 0.774532 0.045308 0.932275
Si Si4 0.788257 0.823815 0.345147
Si Si5 0.225404 0.428139 0.755502
Si Si6 0.198159 0.673815 0.814949
Si Si7 0.626821 0.073224 0.291080
Si Si8 0.784394 0.082586 0.570137
O O1 0.289572 0.396069 0.456322
O O2 0.208149 0.467082 0.556592
O O3 0.246733 0.341103 0.580142
O O4 0.510363 0.408213 0.551582
O O5 0.865673 0.913401 0.676179
O O6 0.070073 0.947310 0.583371
O O7 0.779789 0.009570 0.600844
O O8 0.864893 0.074364 0.869045
O O9 0.811893 0.080217 0.000874
O O10 0.750000 0.750000 0.328007
O O11 0.687778 0.875596 0.300210
O O12 0.993184 0.830668 0.331285
O O13 0.191827 0.501653 0.731105
O O14 0.428098 0.423264 0.770671
O O15 0.250000 0.750000 0.809400
O O16 0.223922 0.630317 0.749658
O O17 0.277309 0.635692 0.877504
#
# Coordination Sequence:
#
# PCOD9431341 Si02
#       8
#     8   8   8   8   8   8   8   8
#     4   8  15  31  54  77 103 137 172 210 260 320
#     4   9  16  31  56  80 104 135 172 215 265 316
#     4   9  16  31  56  80 104 135 172 215 265 316
#     4  10  21  37  54  76 106 143 182 219 264 322
#     4  11  21  34  54  80 110 140 178 226 270 317
#     4  10  21  37  54  76 106 143 182 219 264 322
#     4  11  21  34  54  80 110 140 178 226 270 317
#     4   8  15  31  54  77 103 137 172 210 260 320
#
# _framework density 19.816081000000001
#
# number of rings (size 3 to 8) (size 9 to 14) (size 15 to 20)
#    0.000    2.500    2.500    2.250    0.000    2.000 
#    0.000    5.000    0.000    6.000    0.000    0.000 
#    0.000    0.000    0.000    0.000    0.000    0.000 
#
# Total GULP energy -356942.633988 kJ/mol
# GULP energy per Si atom -5577.228656 kJ/mol
# Density = 1.977098 g / cm^3
# Si number density = 19.816081 Si / 1000 Ang^3
#
#
#
# Elastic Constant Matrix: (Units=GPa)
#
#
# Indices 1 2 3 4 5 6 
#
# 1 17.8877 5.2157 13.0098 0.0000 0.0000 0.0000
# 2 5.2157 85.1512 39.1243 0.0000 0.0000 0.0000
# 3 13.0098 39.1243 93.4337 0.0000 0.0000 0.0000
# 4 0.0000 0.0000 0.0000 27.5747 0.0000 0.0000
# 5 0.0000 0.0000 0.0000 0.0000 28.1347 0.0000
# 6 0.0000 0.0000 0.0000 0.0000 0.0000 18.6061
#
#
#
# Elastic Compliance Matrix: (Units=1/GPa)
#
#
# Indices 1 2 3 4 5 6 
#
# 1 0.062207 0.000210 -0.008750 0.000000 0.000000 0.000000
# 2 0.000210 0.014542 -0.006119 0.000000 0.000000 0.000000
# 3 -0.008750 -0.006119 0.014483 0.000000 0.000000 0.000000
# 4 0.000000 0.000000 0.000000 0.036265 0.000000 0.000000
# 5 0.000000 0.000000 0.000000 0.000000 0.035543 0.000000
# 6 0.000000 0.000000 0.000000 0.000000 0.000000 0.053746
#
#
# Mechanical properties :
#
#
# Convention : Reuss Voigt Hill
#
# Bulk Modulus (GPa) = 16.15103 34.57469 25.36286
# Shear Modulus (GPa) = 18.74471 24.13795 21.44133
#
# Velocity S-wave (km/s) = 3.07894 3.49391 3.29297
# Velocity P-wave (km/s) = 4.56158 5.81053 5.22352
#
# Compressibility (1/GPa) = 0.06191556
#
# Stress axis : x y z
#
# Youngs Moduli (GPa) = 16.07539 68.76493 69.04551
#
# Poissons Ratio (x) = -0.01443 0.60412
# Poissons Ratio (y) = -0.00337 0.42247
# Poissons Ratio (z) = 0.14065 0.42075
#
# Static dielectric constant tensor:
#      x y z
#    x 1.794530 0.000000 0.000000 
#    y 0.000000 1.663850 0.000000 
#    z 0.000000 0.000000 1.722950 
# 
# From -- ./inp_files/18439.got.cif
#   From: 2010.05.17/outbox.cif.g08.bks.cpg/sg56_10_cif.got.tgz:18439.got - 2010.06.03 13:42:01.
