data_PCOD9431819
_publ_section_title
;
Structure prediction by ZEFSAII (Michael W. Deem and Ramdas Pophale) SiO2 
 PCOD9431819
Probable space group: P C C N
;
_chemical_formula_sum "Si O2"
_cell_formula_units_Z 32
_cell_length_a 7.752374
_cell_length_b 5.179087
_cell_length_c 29.408087
_cell_angle_alpha 90.000000
_cell_angle_beta 90.000000
_cell_angle_gamma 90.000000
_cell_volume 1180.741145
_symmetry_space_group_name_H-M "P C C N"
_symmetry_group_IT_number 56
_symmetry_cell_setting 'orthorhombic'
loop_
_space_group_symop_operation_xyz
x,y,z
1/2-x,1/2-y,z
1/2+x,-y,1/2-z
-x,1/2+y,1/2-z
-x,-y,-z
1/2+x,1/2+y,-z
1/2-x,y,1/2+z
x,1/2-y,1/2+z
loop_
_atom_site_type_symbol
_atom_site_label
_atom_site_fract_x
_atom_site_fract_y
_atom_site_fract_z
Si Si1 0.401280 0.917123 0.558845
Si Si2 0.250000 0.250000 0.126742
Si Si3 0.663229 0.462409 0.207254
Si Si4 0.750000 0.750000 0.522087
Si Si5 0.474934 0.910961 0.191014
O O1 0.250000 0.750000 0.579746
O O2 0.575133 0.751544 0.551904
O O3 0.403872 0.161816 0.591970
O O4 0.311326 0.020142 0.511770
O O5 0.333829 0.040032 0.159761
O O6 0.750000 0.750000 0.221950
O O7 0.633259 0.128767 0.190305
O O8 0.593372 0.392170 0.257810
O O9 0.529551 0.622825 0.175314
#
# Coordination Sequence:
#
# PCOD9431819 Si02
#       5
#     8   4   8   4   8
#     4  10  21  42  74 113 147 200 245 312 377 457
#     4  11  26  44  70 107 158 200 240 321 392 454
#     4  11  23  43  74 102 126 190 267 325 378 455
#     4   9  20  42  78 109 146 194 262 295 366 478
#     4  11  24  44  71 101 140 190 266 314 387 465
#
# _framework density 27.10162
#
# number of rings (size 3 to 8) (size 9 to 14) (size 15 to 20)
#    0.000    1.500    2.500    2.250    0.000    3.000 
#    0.000    5.000    5.500    0.000    0.000    0.000 
#    0.000    0.000    0.000   19.750    0.000    0.000 
#
# Total GULP energy -178322.068594 kJ/mol
# GULP energy per Si atom -5572.564644 kJ/mol
# Density = 2.703994 g / cm^3
# Si number density = 27.101620 Si / 1000 Ang^3
#
#
#
# Elastic Constant Matrix: (Units=GPa)
#
#
# Indices 1 2 3 4 5 6 
#
# 1 244.7587 94.3475 58.4583 0.0000 0.0000 0.0000
# 2 94.3475 217.4819 38.5767 0.0000 0.0000 0.0000
# 3 58.4583 38.5767 86.4980 0.0000 0.0000 0.0000
# 4 0.0000 0.0000 0.0000 28.6887 0.0000 0.0000
# 5 0.0000 0.0000 0.0000 0.0000 52.2583 0.0000
# 6 0.0000 0.0000 0.0000 0.0000 0.0000 81.8904
#
#
#
# Elastic Compliance Matrix: (Units=1/GPa)
#
#
# Indices 1 2 3 4 5 6 
#
# 1 0.005495 -0.001873 -0.002878 0.000000 0.000000 0.000000
# 2 -0.001873 0.005632 -0.001246 0.000000 0.000000 0.000000
# 3 -0.002878 -0.001246 0.014062 0.000000 0.000000 0.000000
# 4 0.000000 0.000000 0.000000 0.034857 0.000000 0.000000
# 5 0.000000 0.000000 0.000000 0.000000 0.019136 0.000000
# 6 0.000000 0.000000 0.000000 0.000000 0.000000 0.012211
#
#
# Mechanical properties :
#
#
# Convention : Reuss Voigt Hill
#
# Bulk Modulus (GPa) = 75.79145 103.50041 89.64593
# Shear Modulus (GPa) = 46.38839 56.39122 51.38981
#
# Velocity S-wave (km/s) = 4.14169 4.56645 4.35925
# Velocity P-wave (km/s) = 7.13427 8.12871 7.64767
#
# Compressibility (1/GPa) = 0.01319410
#
# Stress axis : x y z
#
# Youngs Moduli (GPa) = 181.97476 177.56541 71.11473
#
# Poissons Ratio (x) = 0.33265 0.20470
# Poissons Ratio (y) = 0.34091 0.08858
# Poissons Ratio (z) = 0.52380 0.22117
#
# Static dielectric constant tensor:
#      x y z
#    x 3.307520 0.000000 0.000000 
#    y 0.000000 2.436990 0.000000 
#    z 0.000000 0.000000 2.011320 
# 
# From -- ./inp_files/22739.got.cif
#   From: 2010.05.17/outbox.cif.g08.bks.cpg/sg56_12_cif.got.tgz:22739.got - 2010.06.03 13:42:01.
