data_PCOD9431974
_publ_section_title
;
Structure prediction by ZEFSAII (Michael W. Deem and Ramdas Pophale) SiO2 
 PCOD9431974
Probable space group: P C C N
;
_chemical_formula_sum "Si O2"
_cell_formula_units_Z 64
_cell_length_a 14.955371
_cell_length_b 22.713944
_cell_length_c 9.310774
_cell_angle_alpha 90.000000
_cell_angle_beta 90.000000
_cell_angle_gamma 90.000000
_cell_volume 3162.827651
_symmetry_space_group_name_H-M "P C C N"
_symmetry_group_IT_number 56
_symmetry_cell_setting 'orthorhombic'
loop_
_space_group_symop_operation_xyz
x,y,z
1/2-x,1/2-y,z
1/2+x,-y,1/2-z
-x,1/2+y,1/2-z
-x,-y,-z
1/2+x,1/2+y,-z
1/2-x,y,1/2+z
x,1/2-y,1/2+z
loop_
_atom_site_type_symbol
_atom_site_label
_atom_site_fract_x
_atom_site_fract_y
_atom_site_fract_z
Si Si1 0.987733 0.434665 0.436580
Si Si2 0.644788 0.499754 0.568957
Si Si3 0.998768 0.673948 0.369536
Si Si4 0.504859 0.706527 0.544737
Si Si5 0.295883 0.863451 0.311738
Si Si6 0.480877 0.414599 0.606827
Si Si7 0.705669 0.306411 0.458055
Si Si8 0.291764 0.963949 0.643372
O O1 0.027051 0.385996 0.546099
O O2 0.879565 0.428806 0.412871
O O3 0.000000 0.500000 0.500000
O O4 0.028609 0.426457 0.277134
O O5 0.577505 0.443142 0.565669
O O6 0.589421 0.550366 0.490393
O O7 0.667351 0.507666 0.736681
O O8 0.736966 0.492784 0.483753
O O9 0.105097 0.659310 0.346102
O O10 0.978093 0.729429 0.474205
O O11 0.964143 0.690512 0.208248
O O12 0.527763 0.653577 0.435717
O O13 0.397793 0.703376 0.553610
O O14 0.254408 0.817989 0.197346
O O15 0.233029 0.861478 0.447769
O O16 0.281311 0.924898 0.231368
O O17 0.750000 0.250000 0.525519
#
# Coordination Sequence:
#
# PCOD9431974 Si02
#       8
#     8   8   8   8   8   8   8   8
#     4  11  25  40  62  88 127 168 219 271 323 390
#     4  10  22  38  62  88 124 165 208 266 315 382
#     4  11  23  37  58  85 119 165 210 254 321 375
#     4  11  23  36  57  81 122 162 206 257 306 386
#     4  11  21  32  51  76 116 154 201 246 290 361
#     4  10  23  41  60  88 133 165 216 259 332 369
#     4  11  20  30  46  73 110 158 199 236 285 343
#     4  11  22  37  60  89 122 162 219 261 326 372
#
# _framework density 20.235059
#
# number of rings (size 3 to 8) (size 9 to 14) (size 15 to 20)
#    0.000    1.250    1.250    6.375   10.500    0.000 
#    0.000    0.000    0.000    0.000    0.000    0.875 
#    0.000    0.000    0.000    0.000    0.000    0.000 
#
# Total GULP energy -356752.525529 kJ/mol
# GULP energy per Si atom -5574.258211 kJ/mol
# Density = 2.018900 g / cm^3
# Si number density = 20.235059 Si / 1000 Ang^3
#
#
#
# Elastic Constant Matrix: (Units=GPa)
#
#
# Indices 1 2 3 4 5 6 
#
# 1 15.3552 -0.0812 9.2017 0.0000 0.0000 0.0000
# 2 -0.0812 135.7487 63.8580 0.0000 0.0000 0.0000
# 3 9.2017 63.8580 150.3055 0.0000 0.0000 0.0000
# 4 0.0000 0.0000 0.0000 100.2861 0.0000 0.0000
# 5 0.0000 0.0000 0.0000 0.0000 21.9956 0.0000
# 6 0.0000 0.0000 0.0000 0.0000 0.0000 27.0583
#
#
#
# Elastic Compliance Matrix: (Units=1/GPa)
#
#
# Indices 1 2 3 4 5 6 
#
# 1 0.068282 0.002509 -0.005246 0.000000 0.000000 0.000000
# 2 0.002509 0.009299 -0.004104 0.000000 0.000000 0.000000
# 3 -0.005246 -0.004104 0.008718 0.000000 0.000000 0.000000
# 4 0.000000 0.000000 0.000000 0.009971 0.000000 0.000000
# 5 0.000000 0.000000 0.000000 0.000000 0.045464 0.000000
# 6 0.000000 0.000000 0.000000 0.000000 0.000000 0.036957
#
#
# Mechanical properties :
#
#
# Convention : Reuss Voigt Hill
#
# Bulk Modulus (GPa) = 13.77122 49.70738 31.73930
# Shear Modulus (GPa) = 23.08628 45.09672 34.09150
#
# Velocity S-wave (km/s) = 3.38139 4.72597 4.10905
# Velocity P-wave (km/s) = 4.69739 7.37550 6.18318
#
# Compressibility (1/GPa) = 0.07261521
#
# Stress axis : x y z
#
# Youngs Moduli (GPa) = 14.64522 107.54164 114.70566
#
# Poissons Ratio (x) = -0.26978 0.60175
# Poissons Ratio (y) = -0.03674 0.47077
# Poissons Ratio (z) = 0.07683 0.44137
#
# Static dielectric constant tensor:
#      x y z
#    x 1.711110 0.000000 0.000000 
#    y 0.000000 1.790210 0.000000 
#    z 0.000000 0.000000 1.795900 
# 
# From -- ./inp_files/3718.got.cif
#   From: 2010.05.17/outbox.cif.g08.bks.cpg/sg56_2_cif.got.tgz:3718.got - 2010.06.03 13:42:01.
