data_PCOD9431058
_publ_section_title
;
Structure prediction by ZEFSAII (Michael W. Deem and Ramdas Pophale) SiO2 
 PCOD9431058
Probable space group: P C C N
;
_chemical_formula_sum "Si O2"
_cell_formula_units_Z 52
_cell_length_a 5.305924
_cell_length_b 15.455031
_cell_length_c 28.362153
_cell_angle_alpha 90.000000
_cell_angle_beta 90.000000
_cell_angle_gamma 90.000000
_cell_volume 2325.787869
_symmetry_space_group_name_H-M "P C C N"
_symmetry_group_IT_number 56
_symmetry_cell_setting 'orthorhombic'
loop_
_space_group_symop_operation_xyz
x,y,z
1/2-x,1/2-y,z
1/2+x,-y,1/2-z
-x,1/2+y,1/2-z
-x,-y,-z
1/2+x,1/2+y,-z
1/2-x,y,1/2+z
x,1/2-y,1/2+z
loop_
_atom_site_type_symbol
_atom_site_label
_atom_site_fract_x
_atom_site_fract_y
_atom_site_fract_z
Si Si1 0.781015 0.952550 0.647905
Si Si2 0.733885 0.144608 0.500357
Si Si3 0.766622 0.853659 0.554193
Si Si4 0.750000 0.250000 0.657161
Si Si5 0.618600 0.946525 0.247547
Si Si6 0.489709 0.597261 0.901555
Si Si7 0.126802 0.119356 0.664979
O O1 0.848148 0.891675 0.604511
O O2 0.782805 0.905079 0.698412
O O3 0.545630 0.006734 0.626259
O O4 0.967939 0.031455 0.660641
O O5 0.750000 0.250000 0.507692
O O6 0.516724 0.122827 0.462044
O O7 0.625187 0.097398 0.546693
O O8 0.013695 0.119951 0.482834
O O9 0.750000 0.750000 0.556540
O O10 0.838091 0.327382 0.624201
O O11 0.527021 0.298314 0.683089
O O12 0.660836 0.893949 0.295427
O O13 0.326495 0.975525 0.247101
O O14 0.769889 0.629230 0.888577
#
# Coordination Sequence:
#
# PCOD9431058 Si02
#       7
#     8   8   8   4   8   8   8
#     4  10  23  39  65  92 125 168 219 263 320 378
#     4  10  23  40  64  87 125 170 207 266 329 379
#     4  10  24  43  62  89 126 169 217 263 319 381
#     4  10  22  36  60  94 132 160 216 264 328 384
#     4  10  20  40  64  90 125 169 208 254 322 376
#     4  11  21  38  63  92 126 168 209 269 320 389
#     4  10  22  38  63  96 132 168 213 267 326 387
#
# _framework density 22.358013
#
# number of rings (size 3 to 8) (size 9 to 14) (size 15 to 20)
#    0.000    1.846    2.308    0.462    6.462    2.462 
#    0.000    1.538    5.077    0.000    0.000    0.000 
#    0.000    0.000    0.000    0.000    0.000    0.000 
#
# Total GULP energy -289472.657907 kJ/mol
# GULP energy per Si atom -5566.781883 kJ/mol
# Density = 2.230712 g / cm^3
# Si number density = 22.358013 Si / 1000 Ang^3
#
#
#
# Elastic Constant Matrix: (Units=GPa)
#
#
# Indices 1 2 3 4 5 6 
#
# 1 91.1891 17.3893 19.6957 0.0000 0.0000 0.0000
# 2 17.3893 36.1384 21.4443 0.0000 0.0000 0.0000
# 3 19.6957 21.4443 132.2336 0.0000 0.0000 0.0000
# 4 0.0000 0.0000 0.0000 14.8833 0.0000 0.0000
# 5 0.0000 0.0000 0.0000 0.0000 13.3104 0.0000
# 6 0.0000 0.0000 0.0000 0.0000 0.0000 16.0373
#
#
#
# Elastic Compliance Matrix: (Units=1/GPa)
#
#
# Indices 1 2 3 4 5 6 
#
# 1 0.012182 -0.005295 -0.000956 0.000000 0.000000 0.000000
# 2 -0.005295 0.032919 -0.004550 0.000000 0.000000 0.000000
# 3 -0.000956 -0.004550 0.008443 0.000000 0.000000 0.000000
# 4 0.000000 0.000000 0.000000 0.067189 0.000000 0.000000
# 5 0.000000 0.000000 0.000000 0.000000 0.075129 0.000000
# 6 0.000000 0.000000 0.000000 0.000000 0.000000 0.062354
#
#
# Mechanical properties :
#
#
# Convention : Reuss Voigt Hill
#
# Bulk Modulus (GPa) = 31.30578 41.84664 36.57621
# Shear Modulus (GPa) = 17.21373 22.24833 19.73103
#
# Velocity S-wave (km/s) = 2.77774 3.15793 2.97392
# Velocity P-wave (km/s) = 4.93156 5.66162 5.30915
#
# Compressibility (1/GPa) = 0.03194298
#
# Stress axis : x y z
#
# Youngs Moduli (GPa) = 82.08580 30.37761 118.44709
#
# Poissons Ratio (x) = 0.16084 0.11322
# Poissons Ratio (y) = 0.43463 0.53891
# Poissons Ratio (z) = 0.07846 0.13821
#
# Static dielectric constant tensor:
#      x y z
#    x 2.104220 0.000000 0.000000 
#    y 0.000000 1.847940 0.000000 
#    z 0.000000 0.000000 1.862380 
# 
# From -- ./inp_files/22871.got.cif
#   From: 2010.05.17/outbox.cif.g08.bks.cpg/sg56_12_cif.got.tgz:22871.got - 2010.06.03 13:42:01.
