data_PCOD9431377
_publ_section_title
;
Structure prediction by ZEFSAII (Michael W. Deem and Ramdas Pophale) SiO2 
 PCOD9431377
Probable space group: P C C N
;
_chemical_formula_sum "Si O2"
_cell_formula_units_Z 64
_cell_length_a 26.815738
_cell_length_b 5.220849
_cell_length_c 18.455180
_cell_angle_alpha 90.000000
_cell_angle_beta 90.000000
_cell_angle_gamma 90.000000
_cell_volume 2583.742159
_symmetry_space_group_name_H-M "P C C N"
_symmetry_group_IT_number 56
_symmetry_cell_setting 'orthorhombic'
loop_
_space_group_symop_operation_xyz
x,y,z
1/2-x,1/2-y,z
1/2+x,-y,1/2-z
-x,1/2+y,1/2-z
-x,-y,-z
1/2+x,1/2+y,-z
1/2-x,y,1/2+z
x,1/2-y,1/2+z
loop_
_atom_site_type_symbol
_atom_site_label
_atom_site_fract_x
_atom_site_fract_y
_atom_site_fract_z
Si Si1 0.654003 0.189656 0.946562
Si Si2 0.595922 0.218444 0.671106
Si Si3 0.778264 0.514000 0.229907
Si Si4 0.372530 0.908540 0.691377
Si Si5 0.821904 0.013624 0.585180
Si Si6 0.507310 0.548347 0.701329
Si Si7 0.093144 0.402227 0.456319
Si Si8 0.069324 0.304564 0.097327
O O1 0.665349 0.330375 0.872462
O O2 0.620718 0.954890 0.917990
O O3 0.617862 0.375226 0.993536
O O4 0.693933 0.101374 0.005207
O O5 0.606817 0.178932 0.756574
O O6 0.647197 0.266402 0.628545
O O7 0.562214 0.472140 0.673893
O O8 0.569780 0.020024 0.616715
O O9 0.750000 0.250000 0.246938
O O10 0.835893 0.548499 0.253282
O O11 0.779730 0.539672 0.142694
O O12 0.750000 0.750000 0.264042
O O13 0.415428 0.074430 0.652594
O O14 0.862631 0.791048 0.568722
O O15 0.503756 0.821556 0.739749
O O16 0.470047 0.489861 0.635272
O O17 0.055594 0.278873 0.515226
#
# Coordination Sequence:
#
# PCOD9431377 Si02
#       8
#     8   8   8   8   8   8   8   8
#     4   9  19  38  68  91 123 172 219 258 322 399
#     4  10  21  37  63  93 127 176 217 269 320 389
#     4  11  27  43  68 101 131 165 216 273 326 393
#     4  10  21  40  67  91 130 175 212 267 332 390
#     4   9  21  41  67  91 125 170 216 260 331 398
#     4  12  26  40  60  97 137 172 228 274 326 376
#     4   9  20  38  64  95 119 173 221 261 325 390
#     4  10  21  39  63  93 131 177 221 270 323 388
#
# _framework density 24.770271999999999
#
# number of rings (size 3 to 8) (size 9 to 14) (size 15 to 20)
#    0.000    2.000    1.250    0.750   10.500    1.500 
#    0.000    6.250    0.000    0.000    0.000    0.000 
#    0.000    0.000    0.000    0.000    0.000    0.000 
#
# Total GULP energy -356819.083531 kJ/mol
# GULP energy per Si atom -5575.298180 kJ/mol
# Density = 2.471389 g / cm^3
# Si number density = 24.770272 Si / 1000 Ang^3
#
#
#
# Elastic Constant Matrix: (Units=GPa)
#
#
# Indices 1 2 3 4 5 6 
#
# 1 44.7014 4.6651 0.3842 0.0000 0.0000 0.0000
# 2 4.6651 69.6360 43.7732 0.0000 0.0000 0.0000
# 3 0.3842 43.7732 114.8378 0.0000 0.0000 0.0000
# 4 0.0000 0.0000 0.0000 20.9103 0.0000 0.0000
# 5 0.0000 0.0000 0.0000 0.0000 26.1769 0.0000
# 6 0.0000 0.0000 0.0000 0.0000 0.0000 25.1979
#
#
#
# Elastic Compliance Matrix: (Units=1/GPa)
#
#
# Indices 1 2 3 4 5 6 
#
# 1 0.022566 -0.001926 0.000659 0.000000 0.000000 0.000000
# 2 -0.001926 0.019050 -0.007255 0.000000 0.000000 0.000000
# 3 0.000659 -0.007255 0.011471 0.000000 0.000000 0.000000
# 4 0.000000 0.000000 0.000000 0.047823 0.000000 0.000000
# 5 0.000000 0.000000 0.000000 0.000000 0.038202 0.000000
# 6 0.000000 0.000000 0.000000 0.000000 0.000000 0.039686
#
#
# Mechanical properties :
#
#
# Convention : Reuss Voigt Hill
#
# Bulk Modulus (GPa) = 27.74479 36.31336 32.02908
# Shear Modulus (GPa) = 24.05512 26.48054 25.26783
#
# Velocity S-wave (km/s) = 3.11967 3.27317 3.19734
# Velocity P-wave (km/s) = 4.91952 5.38301 5.15647
#
# Compressibility (1/GPa) = 0.03604280
#
# Stress axis : x y z
#
# Youngs Moduli (GPa) = 44.31452 52.49406 87.17573
#
# Poissons Ratio (x) = 0.10109 -0.05741
# Poissons Ratio (y) = 0.08534 0.63245
# Poissons Ratio (z) = -0.02918 0.38084
#
# Static dielectric constant tensor:
#      x y z
#    x 2.181090 0.000000 0.000000 
#    y 0.000000 2.102270 0.000000 
#    z 0.000000 0.000000 2.045590 
# 
# From -- ./inp_files/14188.got.cif
#   From: 2010.05.17/outbox.cif.g08.bks.cpg/sg56_8_cif.got.tgz:14188.got - 2010.06.03 13:42:01.
