data_PCOD9431783
_publ_section_title
;
Structure prediction by ZEFSAII (Michael W. Deem and Ramdas Pophale) SiO2 
 PCOD9431783
Probable space group: P C C N
;
_chemical_formula_sum "Si O2"
_cell_formula_units_Z 48
_cell_length_a 7.933188
_cell_length_b 13.908707
_cell_length_c 18.859177
_cell_angle_alpha 90.000000
_cell_angle_beta 90.000000
_cell_angle_gamma 90.000000
_cell_volume 2080.928898
_symmetry_space_group_name_H-M "P C C N"
_symmetry_group_IT_number 56
_symmetry_cell_setting 'orthorhombic'
loop_
_space_group_symop_operation_xyz
x,y,z
1/2-x,1/2-y,z
1/2+x,-y,1/2-z
-x,1/2+y,1/2-z
-x,-y,-z
1/2+x,1/2+y,-z
1/2-x,y,1/2+z
x,1/2-y,1/2+z
loop_
_atom_site_type_symbol
_atom_site_label
_atom_site_fract_x
_atom_site_fract_y
_atom_site_fract_z
Si Si1 0.462861 0.636538 0.702003
Si Si2 0.920421 0.275351 0.551609
Si Si3 0.064211 0.295438 0.192208
Si Si4 0.318998 0.470285 0.773880
Si Si5 0.123108 0.501066 0.432122
Si Si6 0.874021 0.825649 0.566325
O O1 0.485509 0.735011 0.743804
O O2 0.318049 0.575166 0.739118
O O3 0.635150 0.575411 0.715410
O O4 0.469673 0.651229 0.617949
O O5 0.750000 0.250000 0.511733
O O6 0.880522 0.383557 0.575931
O O7 0.953402 0.215894 0.622720
O O8 0.066823 0.240618 0.499099
O O9 0.250000 0.250000 0.176578
O O10 0.091508 0.402845 0.216873
O O11 0.411043 0.469080 0.850587
O O12 0.277526 0.426490 0.450784
O O13 0.000000 0.500000 0.500000
O O14 0.750000 0.750000 0.606996
#
# Coordination Sequence:
#
# PCOD9431783 Si02
#       6
#     8   8   8   8   8   8
#     4  10  21  42  65  98 124 171 220 271 338 401
#     4  12  27  44  65 102 138 179 226 288 348 402
#     4  10  22  41  66  92 131 173 221 272 337 413
#     4  10  22  39  66  98 128 169 220 276 336 402
#     4  11  23  43  72  99 134 181 234 272 340 427
#     4  11  23  45  70  95 139 183 225 283 338 413
#
# _framework density 23.066621000000001
#
# number of rings (size 3 to 8) (size 9 to 14) (size 15 to 20)
#    0.000    1.333    3.333    3.000    4.667    0.667 
#    3.000    0.833    0.000    0.000    0.000    0.000 
#    0.000    0.000    0.000    0.000    0.000    0.000 
#
# Total GULP energy -267498.359813 kJ/mol
# GULP energy per Si atom -5572.882496 kJ/mol
# Density = 2.301412 g / cm^3
# Si number density = 23.066621 Si / 1000 Ang^3
#
#
#
# Elastic Constant Matrix: (Units=GPa)
#
#
# Indices 1 2 3 4 5 6 
#
# 1 50.7125 16.6751 23.2338 0.0000 0.0000 0.0000
# 2 16.6751 77.3727 26.6070 0.0000 0.0000 0.0000
# 3 23.2338 26.6070 81.7636 0.0000 0.0000 0.0000
# 4 0.0000 0.0000 0.0000 41.4367 0.0000 0.0000
# 5 0.0000 0.0000 0.0000 0.0000 -22.1858 0.0000
# 6 0.0000 0.0000 0.0000 0.0000 0.0000 18.7855
#
#
#
# Elastic Compliance Matrix: (Units=1/GPa)
#
#
# Indices 1 2 3 4 5 6 
#
# 1 0.023309 -0.003092 -0.005617 0.000000 0.000000 0.000000
# 2 -0.003092 0.014963 -0.003991 0.000000 0.000000 0.000000
# 3 -0.005617 -0.003991 0.015125 0.000000 0.000000 0.000000
# 4 0.000000 0.000000 0.000000 0.024133 0.000000 0.000000
# 5 0.000000 0.000000 0.000000 0.000000 -0.045074 0.000000
# 6 0.000000 0.000000 0.000000 0.000000 0.000000 0.053233
#
#
# Mechanical properties :
#
#
# Convention : Reuss Voigt Hill
#
# Bulk Modulus (GPa) = 35.71702 38.09785 36.90743
# Shear Modulus (GPa) = 41.52074 17.16281 29.34177
#
# Velocity S-wave (km/s) = 4.24729 2.73069 3.57044
# Velocity P-wave (km/s) = 6.29051 5.14729 5.74739
#
# Compressibility (1/GPa) = 0.02799786
#
# Stress axis : x y z
#
# Youngs Moduli (GPa) = 42.90145 66.83115 66.11469
#
# Poissons Ratio (x) = 0.20663 0.37139
# Poissons Ratio (y) = 0.13264 0.26384
# Poissons Ratio (z) = 0.24100 0.26670
#
# Static dielectric constant tensor:
#      x y z
#    x 1.957830 0.000000 0.000000 
#    y 0.000000 1.908080 0.000000 
#    z 0.000000 0.000000 1.813950 
# 
# From -- ./inp_files/14797.got.cif
#   From: 2010.05.17/outbox.cif.g08.bks.cpg/sg56_8_cif.got.tgz:14797.got - 2010.06.03 13:42:01.
