data_PCOD9431567
_publ_section_title
;
Structure prediction by ZEFSAII (Michael W. Deem and Ramdas Pophale) SiO2 
 PCOD9431567
Probable space group: P C C N
;
_chemical_formula_sum "Si O2"
_cell_formula_units_Z 56
_cell_length_a 10.695073
_cell_length_b 19.648971
_cell_length_c 12.250326
_cell_angle_alpha 90.000000
_cell_angle_beta 90.000000
_cell_angle_gamma 90.000000
_cell_volume 2574.371453
_symmetry_space_group_name_H-M "P C C N"
_symmetry_group_IT_number 56
_symmetry_cell_setting 'orthorhombic'
loop_
_space_group_symop_operation_xyz
x,y,z
1/2-x,1/2-y,z
1/2+x,-y,1/2-z
-x,1/2+y,1/2-z
-x,-y,-z
1/2+x,1/2+y,-z
1/2-x,y,1/2+z
x,1/2-y,1/2+z
loop_
_atom_site_type_symbol
_atom_site_label
_atom_site_fract_x
_atom_site_fract_y
_atom_site_fract_z
Si Si1 0.451437 0.562557 0.927207
Si Si2 0.546720 0.429670 0.549464
Si Si3 0.975914 0.703742 0.040288
Si Si4 0.782198 0.491835 0.211655
Si Si5 0.780277 0.106338 0.899955
Si Si6 0.750000 0.250000 0.393953
Si Si7 0.864818 0.637595 0.257862
Si Si8 0.250000 0.250000 0.594541
O O1 0.337818 0.533455 0.854318
O O2 0.543034 0.601345 0.845240
O O3 0.500000 0.500000 0.000000
O O4 0.396827 0.611979 0.019770
O O5 0.500000 0.500000 0.500000
O O6 0.461124 0.364485 0.535171
O O7 0.596799 0.451782 0.666107
O O8 0.662787 0.403475 0.478373
O O9 0.938157 0.679388 0.163126
O O10 0.117181 0.735210 0.043339
O O11 0.870627 0.750278 0.985204
O O12 0.776166 0.462812 0.332514
O O13 0.797635 0.572347 0.203333
O O14 0.768883 0.177228 0.834126
O O15 0.772325 0.686513 0.323908
#
# Coordination Sequence:
#
# PCOD9431567 Si02
#       8
#     8   8   8   8   8   4   8   4
#     4  11  23  41  67 103 139 183 243 306 361 435
#     4  10  21  39  67  98 128 181 233 294 354 420
#     4  11  25  48  74 100 151 193 248 308 361 458
#     4  11  24  39  70 103 137 182 245 305 368 424
#     4  10  22  40  63 102 135 177 235 299 356 424
#     4  10  22  46  72  94 140 190 234 288 354 430
#     4  12  26  46  69 105 146 192 247 306 377 451
#     4  12  30  46  72 108 152 198 244 300 386 452
#
# _framework density 21.752882
#
# number of rings (size 3 to 8) (size 9 to 14) (size 15 to 20)
#    0.000    1.143    2.857    3.000    4.000    1.143 
#    2.571   10.714    0.000    0.000    0.000    0.000 
#    0.000    0.000    0.000    0.000    0.000    0.000 
#
# Total GULP energy -312047.771309 kJ/mol
# GULP energy per Si atom -5572.281631 kJ/mol
# Density = 2.170337 g / cm^3
# Si number density = 21.752882 Si / 1000 Ang^3
#
#
#
# Elastic Constant Matrix: (Units=GPa)
#
#
# Indices 1 2 3 4 5 6 
#
# 1 76.7921 26.2873 23.4485 0.0000 0.0000 0.0000
# 2 26.2873 97.6702 18.6651 0.0000 0.0000 0.0000
# 3 23.4485 18.6651 67.0851 0.0000 0.0000 0.0000
# 4 0.0000 0.0000 0.0000 28.8823 0.0000 0.0000
# 5 0.0000 0.0000 0.0000 0.0000 24.2127 0.0000
# 6 0.0000 0.0000 0.0000 0.0000 0.0000 29.8653
#
#
#
# Elastic Compliance Matrix: (Units=1/GPa)
#
#
# Indices 1 2 3 4 5 6 
#
# 1 0.015535 -0.003320 -0.004506 0.000000 0.000000 0.000000
# 2 -0.003320 0.011523 -0.002046 0.000000 0.000000 0.000000
# 3 -0.004506 -0.002046 0.017051 0.000000 0.000000 0.000000
# 4 0.000000 0.000000 0.000000 0.034623 0.000000 0.000000
# 5 0.000000 0.000000 0.000000 0.000000 0.041301 0.000000
# 6 0.000000 0.000000 0.000000 0.000000 0.000000 0.033484
#
#
# Mechanical properties :
#
#
# Convention : Reuss Voigt Hill
#
# Bulk Modulus (GPa) = 41.04272 42.03879 41.54075
# Shear Modulus (GPa) = 27.56631 28.13515 27.85073
#
# Velocity S-wave (km/s) = 3.56371 3.60029 3.58204
# Velocity P-wave (km/s) = 5.98682 6.05395 6.02048
#
# Compressibility (1/GPa) = 0.02436486
#
# Stress axis : x y z
#
# Youngs Moduli (GPa) = 64.37247 86.78306 58.64876
#
# Poissons Ratio (x) = 0.28811 0.26428
# Poissons Ratio (y) = 0.21371 0.11997
# Poissons Ratio (z) = 0.29007 0.17753
#
# Static dielectric constant tensor:
#      x y z
#    x 1.891630 0.000000 0.000000 
#    y 0.000000 1.871430 0.000000 
#    z 0.000000 0.000000 1.790510 
# 
# From -- ./inp_files/7300.got.cif
#   From: 2010.05.17/outbox.cif.g08.bks.cpg/sg56_4_cif.got.tgz:7300.got - 2010.06.03 13:42:01.
