data_PCOD9431979
_publ_section_title
;
Structure prediction by ZEFSAII (Michael W. Deem and Ramdas Pophale) SiO2 
 PCOD9431979
Probable space group: P C C N
;
_chemical_formula_sum "Si O2"
_cell_formula_units_Z 64
_cell_length_a 13.480083
_cell_length_b 8.092790
_cell_length_c 25.773389
_cell_angle_alpha 90.000000
_cell_angle_beta 90.000000
_cell_angle_gamma 90.000000
_cell_volume 2811.657174
_symmetry_space_group_name_H-M "P C C N"
_symmetry_group_IT_number 56
_symmetry_cell_setting 'orthorhombic'
loop_
_space_group_symop_operation_xyz
x,y,z
1/2-x,1/2-y,z
1/2+x,-y,1/2-z
-x,1/2+y,1/2-z
-x,-y,-z
1/2+x,1/2+y,-z
1/2-x,y,1/2+z
x,1/2-y,1/2+z
loop_
_atom_site_type_symbol
_atom_site_label
_atom_site_fract_x
_atom_site_fract_y
_atom_site_fract_z
Si Si1 0.545786 0.109452 0.914882
Si Si2 0.056818 0.800759 0.383199
Si Si3 0.491769 0.241398 0.306768
Si Si4 0.687517 0.920280 0.238570
Si Si5 0.918237 0.137949 0.007424
Si Si6 0.379452 0.614100 0.787530
Si Si7 0.647428 0.848631 0.350386
Si Si8 0.759447 0.437227 0.432758
O O1 0.541364 0.221378 0.862651
O O2 0.548575 0.219511 0.966687
O O3 0.647572 0.002707 0.923887
O O4 0.455169 0.984062 0.906304
O O5 0.080341 0.693359 0.433627
O O6 0.124152 0.735705 0.336719
O O7 0.949050 0.760938 0.357664
O O8 0.403019 0.377567 0.299304
O O9 0.566056 0.291155 0.259887
O O10 0.440244 0.059152 0.300927
O O11 0.750000 0.750000 0.239645
O O12 0.769597 0.055714 0.227124
O O13 0.644019 0.944263 0.296154
O O14 0.808880 0.077492 0.989174
O O15 0.000000 0.000000 0.000000
O O16 0.750000 0.750000 0.348534
O O17 0.661511 0.965109 0.399331
O O18 0.750000 0.250000 0.413019
#
# Coordination Sequence:
#
# PCOD9431979 Si02
#       8
#     8   8   8   8   8   8   8   8
#     4  11  24  42  66 100 137 180 235 297 355 429
#     4  12  23  41  66  97 137 181 230 287 367 425
#     4  11  22  40  66  98 136 177 232 288 349 423
#     4   9  21  39  62  94 136 179 228 279 348 419
#     4  11  23  42  65  95 133 176 235 297 358 427
#     4  11  23  41  66 100 140 187 230 288 349 426
#     4  11  19  37  67  97 130 176 228 283 344 423
#     4  10  22  38  62  96 128 168 226 292 346 409
#
# _framework density 22.762377999999998
#
# number of rings (size 3 to 8) (size 9 to 14) (size 15 to 20)
#    0.000    1.250    3.750    2.625    3.500    0.000 
#    0.000    7.500    0.000    0.000    0.000    0.000 
#    0.000    0.000    0.000    0.000    0.000    0.000 
#
# Total GULP energy -357405.929869 kJ/mol
# GULP energy per Si atom -5584.467654 kJ/mol
# Density = 2.271057 g / cm^3
# Si number density = 22.762378 Si / 1000 Ang^3
#
#
#
# Elastic Constant Matrix: (Units=GPa)
#
#
# Indices 1 2 3 4 5 6 
#
# 1 94.2447 17.8777 51.4979 0.0000 0.0000 0.0000
# 2 17.8777 60.2580 12.5260 0.0000 0.0000 0.0000
# 3 51.4979 12.5260 120.8366 0.0000 0.0000 0.0000
# 4 0.0000 0.0000 0.0000 35.2561 0.0000 0.0000
# 5 0.0000 0.0000 0.0000 0.0000 40.9964 0.0000
# 6 0.0000 0.0000 0.0000 0.0000 0.0000 42.2184
#
#
#
# Elastic Compliance Matrix: (Units=1/GPa)
#
#
# Indices 1 2 3 4 5 6 
#
# 1 0.014361 -0.003054 -0.005804 0.000000 0.000000 0.000000
# 2 -0.003054 0.017610 -0.000524 0.000000 0.000000 0.000000
# 3 -0.005804 -0.000524 0.010803 0.000000 0.000000 0.000000
# 4 0.000000 0.000000 0.000000 0.028364 0.000000 0.000000
# 5 0.000000 0.000000 0.000000 0.000000 0.024392 0.000000
# 6 0.000000 0.000000 0.000000 0.000000 0.000000 0.023686
#
#
# Mechanical properties :
#
#
# Convention : Reuss Voigt Hill
#
# Bulk Modulus (GPa) = 41.64736 48.79359 45.22048
# Shear Modulus (GPa) = 34.24987 36.59001 35.41994
#
# Velocity S-wave (km/s) = 3.88322 4.01369 3.94899
# Velocity P-wave (km/s) = 6.20017 6.55455 6.37982
#
# Compressibility (1/GPa) = 0.02401112
#
# Stress axis : x y z
#
# Youngs Moduli (GPa) = 69.63063 56.78465 92.56309
#
# Poissons Ratio (x) = 0.17344 0.53723
# Poissons Ratio (y) = 0.21268 0.04848
# Poissons Ratio (z) = 0.40413 0.02974
#
# Static dielectric constant tensor:
#      x y z
#    x 1.910890 0.000000 0.000000 
#    y 0.000000 1.926400 0.000000 
#    z 0.000000 0.000000 1.825350 
# 
# From -- ./inp_files/21167.got.cif
#   From: 2010.05.17/outbox.cif.g08.bks.cpg/sg56_11_cif.got.tgz:21167.got - 2010.06.03 13:42:01.
