data_PCOD9431053
_publ_section_title
;
Structure prediction by ZEFSAII (Michael W. Deem and Ramdas Pophale) SiO2 
 PCOD9431053
Probable space group: P C C N
;
_chemical_formula_sum "Si O2"
_cell_formula_units_Z 48
_cell_length_a 8.306008
_cell_length_b 15.486107
_cell_length_c 18.220393
_cell_angle_alpha 90.000000
_cell_angle_beta 90.000000
_cell_angle_gamma 90.000000
_cell_volume 2343.647766
_symmetry_space_group_name_H-M "P C C N"
_symmetry_group_IT_number 56
_symmetry_cell_setting 'orthorhombic'
loop_
_space_group_symop_operation_xyz
x,y,z
1/2-x,1/2-y,z
1/2+x,-y,1/2-z
-x,1/2+y,1/2-z
-x,-y,-z
1/2+x,1/2+y,-z
1/2-x,y,1/2+z
x,1/2-y,1/2+z
loop_
_atom_site_type_symbol
_atom_site_label
_atom_site_fract_x
_atom_site_fract_y
_atom_site_fract_z
Si Si1 0.646226 0.326873 0.924159
Si Si2 0.940106 0.412156 0.694190
Si Si3 0.623834 0.497226 0.432225
Si Si4 0.559354 0.441267 0.710392
Si Si5 0.434688 0.089773 0.533993
Si Si6 0.067752 0.762622 0.239808
O O1 0.750000 0.250000 0.958306
O O2 0.765781 0.410455 0.923137
O O3 0.592160 0.293987 0.843805
O O4 0.489183 0.343620 0.972537
O O5 0.750746 0.431340 0.702362
O O6 0.000037 0.332417 0.745104
O O7 0.028248 0.499589 0.718757
O O8 0.976717 0.391333 0.610159
O O9 0.500000 0.500000 0.500000
O O10 0.524849 0.513086 0.358073
O O11 0.749674 0.574198 0.447814
O O12 0.490564 0.344440 0.720137
O O13 0.500000 0.000000 0.500000
O O14 0.250000 0.750000 0.269685
#
# Coordination Sequence:
#
# PCOD9431053 Si02
#       6
#     8   8   8   8   8   8
#     4  10  20  40  64  86 119 163 205 255 317 390
#     4  11  22  38  63  93 121 162 212 256 310 386
#     4  11  23  39  60  90 122 162 212 261 316 381
#     4  11  20  37  61  85 123 162 199 258 312 363
#     4  10  21  39  62  89 121 161 206 253 315 382
#     4   9  20  37  60  87 116 158 204 241 305 386
#
# _framework density 20.480893999999999
#
# number of rings (size 3 to 8) (size 9 to 14) (size 15 to 20)
#    0.000    1.667    0.000    8.000    0.000    3.333 
#    0.000    5.833    0.000   16.000    0.000    0.000 
#    0.000    0.000    0.000    0.000    0.000    0.000 
#
# Total GULP energy -267775.790473 kJ/mol
# GULP energy per Si atom -5578.662302 kJ/mol
# Density = 2.043428 g / cm^3
# Si number density = 20.480894 Si / 1000 Ang^3
#
#
#
# Elastic Constant Matrix: (Units=GPa)
#
#
# Indices 1 2 3 4 5 6 
#
# 1 64.2189 28.9981 28.0820 0.0000 0.0000 0.0000
# 2 28.9981 112.7572 35.5508 0.0000 0.0000 0.0000
# 3 28.0820 35.5508 86.0880 0.0000 0.0000 0.0000
# 4 0.0000 0.0000 0.0000 35.7113 0.0000 0.0000
# 5 0.0000 0.0000 0.0000 0.0000 26.9322 0.0000
# 6 0.0000 0.0000 0.0000 0.0000 0.0000 27.5483
#
#
#
# Elastic Compliance Matrix: (Units=1/GPa)
#
#
# Indices 1 2 3 4 5 6 
#
# 1 0.019241 -0.003414 -0.004867 0.000000 0.000000 0.000000
# 2 -0.003414 0.010802 -0.003347 0.000000 0.000000 0.000000
# 3 -0.004867 -0.003347 0.014586 0.000000 0.000000 0.000000
# 4 0.000000 0.000000 0.000000 0.028002 0.000000 0.000000
# 5 0.000000 0.000000 0.000000 0.000000 0.037130 0.000000
# 6 0.000000 0.000000 0.000000 0.000000 0.000000 0.036300
#
#
# Mechanical properties :
#
#
# Convention : Reuss Voigt Hill
#
# Bulk Modulus (GPa) = 46.78693 49.81398 48.30046
# Shear Modulus (GPa) = 28.33798 29.40059 28.86928
#
# Velocity S-wave (km/s) = 3.72375 3.79293 3.75850
# Velocity P-wave (km/s) = 6.43290 6.59975 6.51686
#
# Compressibility (1/GPa) = 0.02137349
#
# Stress axis : x y z
#
# Youngs Moduli (GPa) = 51.97108 92.57646 68.55989
#
# Poissons Ratio (x) = 0.31605 0.33367
# Poissons Ratio (y) = 0.17743 0.22948
# Poissons Ratio (z) = 0.25293 0.30986
#
# Static dielectric constant tensor:
#      x y z
#    x 1.689260 0.000000 0.000000 
#    y 0.000000 1.789850 0.000000 
#    z 0.000000 0.000000 1.745400 
# 
# From -- ./inp_files/14827.got.cif
#   From: 2010.05.17/outbox.cif.g08.bks.cpg/sg56_8_cif.got.tgz:14827.got - 2010.06.03 13:42:01.
