data_PCOD9431443
_publ_section_title
;
Structure prediction by ZEFSAII (Michael W. Deem and Ramdas Pophale) SiO2 
 PCOD9431443
Probable space group: P C C N
;
_chemical_formula_sum "Si O2"
_cell_formula_units_Z 52
_cell_length_a 8.882091
_cell_length_b 14.956137
_cell_length_c 15.522675
_cell_angle_alpha 90.000000
_cell_angle_beta 90.000000
_cell_angle_gamma 90.000000
_cell_volume 2062.059620
_symmetry_space_group_name_H-M "P C C N"
_symmetry_group_IT_number 56
_symmetry_cell_setting 'orthorhombic'
loop_
_space_group_symop_operation_xyz
x,y,z
1/2-x,1/2-y,z
1/2+x,-y,1/2-z
-x,1/2+y,1/2-z
-x,-y,-z
1/2+x,1/2+y,-z
1/2-x,y,1/2+z
x,1/2-y,1/2+z
loop_
_atom_site_type_symbol
_atom_site_label
_atom_site_fract_x
_atom_site_fract_y
_atom_site_fract_z
Si Si1 0.845903 0.664601 0.052464
Si Si2 0.416159 0.655772 0.855736
Si Si3 0.897135 0.354026 0.066380
Si Si4 0.258692 0.575678 0.702616
Si Si5 0.354397 0.468781 0.051613
Si Si6 0.250000 0.250000 0.280646
Si Si7 0.062563 0.405542 0.216621
O O1 0.750000 0.750000 0.016161
O O2 0.755160 0.581684 0.014383
O O3 0.018666 0.660819 0.023342
O O4 0.833941 0.682522 0.153728
O O5 0.274621 0.620467 0.914668
O O6 0.419169 0.758043 0.886396
O O7 0.361424 0.646039 0.756127
O O8 0.568261 0.601534 0.879251
O O9 0.002674 0.421000 0.120231
O O10 0.233495 0.546782 0.603163
O O11 0.327083 0.484568 0.742720
O O12 0.087963 0.595857 0.728305
O O13 0.500000 0.500000 0.000000
O O14 0.144894 0.312141 0.225632
#
# Coordination Sequence:
#
# PCOD9431443 Si02
#       7
#     8   8   8   8   8   4   8
#     4  10  21  38  62  93 119 171 218 249 320 388
#     4  10  22  40  62  91 127 162 214 272 315 380
#     4  10  21  40  64  90 119 168 218 259 319 387
#     4  11  23  39  63  94 130 166 212 267 326 379
#     4  12  23  40  66  93 131 173 211 261 326 391
#     4  10  24  36  62  96 130 158 216 274 306 380
#     4  11  23  39  63  94 125 165 210 267 318 378
#
# _framework density 25.217506
#
# number of rings (size 3 to 8) (size 9 to 14) (size 15 to 20)
#    0.462    0.923    4.615    0.923    3.231    0.000 
#    0.000    3.846    0.000    7.385    0.000    0.000 
#    0.000    0.000    0.000    0.000    0.000    0.000 
#
# Total GULP energy -290326.489920 kJ/mol
# GULP energy per Si atom -5583.201729 kJ/mol
# Density = 2.516011 g / cm^3
# Si number density = 25.217506 Si / 1000 Ang^3
#
#
#
# Elastic Constant Matrix: (Units=GPa)
#
#
# Indices 1 2 3 4 5 6 
#
# 1 136.0065 38.9960 36.0436 0.0000 0.0000 0.0000
# 2 38.9960 50.0798 -2.0158 0.0000 0.0000 0.0000
# 3 36.0436 -2.0158 50.4667 0.0000 0.0000 0.0000
# 4 0.0000 0.0000 0.0000 17.8865 0.0000 0.0000
# 5 0.0000 0.0000 0.0000 0.0000 39.5290 0.0000
# 6 0.0000 0.0000 0.0000 0.0000 0.0000 43.8707
#
#
#
# Elastic Compliance Matrix: (Units=1/GPa)
#
#
# Indices 1 2 3 4 5 6 
#
# 1 0.012893 -0.010427 -0.009625 0.000000 0.000000 0.000000
# 2 -0.010427 0.028433 0.008583 0.000000 0.000000 0.000000
# 3 -0.009625 0.008583 0.027032 0.000000 0.000000 0.000000
# 4 0.000000 0.000000 0.000000 0.055908 0.000000 0.000000
# 5 0.000000 0.000000 0.000000 0.000000 0.025298 0.000000
# 6 0.000000 0.000000 0.000000 0.000000 0.000000 0.022794
#
#
# Mechanical properties :
#
#
# Convention : Reuss Voigt Hill
#
# Bulk Modulus (GPa) = 22.01691 42.51119 32.26405
# Shear Modulus (GPa) = 23.76029 31.15917 27.45973
#
# Velocity S-wave (km/s) = 3.07288 3.51895 3.30345
# Velocity P-wave (km/s) = 4.61951 5.77971 5.23187
#
# Compressibility (1/GPa) = 0.04541963
#
# Stress axis : x y z
#
# Youngs Moduli (GPa) = 77.56259 35.17082 36.99350
#
# Poissons Ratio (x) = 0.36672 0.35605
# Poissons Ratio (y) = 0.80873 -0.31750
# Poissons Ratio (z) = 0.74651 -0.30185
#
# Static dielectric constant tensor:
#      x y z
#    x 1.978960 0.000000 0.000000 
#    y 0.000000 2.020420 0.000000 
#    z 0.000000 0.000000 2.097250 
# 
# From -- ./inp_files/15027.got.cif
#   From: 2010.05.17/outbox.cif.g08.bks.cpg/sg56_8_cif.got.tgz:15027.got - 2010.06.03 13:42:01.
