data_PCOD9431071
_publ_section_title
;
Structure prediction by ZEFSAII (Michael W. Deem and Ramdas Pophale) SiO2 
 PCOD9431071
Probable space group: P C C N
;
_chemical_formula_sum "Si O2"
_cell_formula_units_Z 44
_cell_length_a 8.959836
_cell_length_b 10.439287
_cell_length_c 22.232708
_cell_angle_alpha 90.000000
_cell_angle_beta 90.000000
_cell_angle_gamma 90.000000
_cell_volume 2079.520768
_symmetry_space_group_name_H-M "P C C N"
_symmetry_group_IT_number 56
_symmetry_cell_setting 'orthorhombic'
loop_
_space_group_symop_operation_xyz
x,y,z
1/2-x,1/2-y,z
1/2+x,-y,1/2-z
-x,1/2+y,1/2-z
-x,-y,-z
1/2+x,1/2+y,-z
1/2-x,y,1/2+z
x,1/2-y,1/2+z
loop_
_atom_site_type_symbol
_atom_site_label
_atom_site_fract_x
_atom_site_fract_y
_atom_site_fract_z
Si Si1 0.651792 0.413152 0.740985
Si Si2 0.975229 0.152371 0.433695
Si Si3 0.750000 0.250000 0.634006
Si Si4 0.039381 0.659990 0.462209
Si Si5 0.246932 0.045968 0.507502
Si Si6 0.542153 0.153519 0.792944
O O1 0.726160 0.370992 0.677485
O O2 0.547225 0.291882 0.759790
O O3 0.791142 0.405854 0.786343
O O4 0.569000 0.547781 0.734942
O O5 0.930505 0.274597 0.473399
O O6 0.988045 0.173647 0.363285
O O7 0.132541 0.115731 0.463695
O O8 0.856080 0.041755 0.450030
O O9 0.893254 0.256070 0.590945
O O10 0.142402 0.535166 0.464838
O O11 0.865497 0.630433 0.455952
#
# Coordination Sequence:
#
# PCOD9431071 Si02
#       6
#     8   8   4   8   8   8
#     4  10  25  45  66  98 125 181 228 279 331 386
#     4  11  22  41  63  95 135 167 212 282 318 406
#     4  10  20  40  66  88 140 166 216 278 324 396
#     4  11  21  39  60  95 128 172 205 258 332 404
#     4  10  23  36  60  97 128 167 213 248 342 390
#     4  10  24  46  68  93 134 171 230 279 331 387
#
# _framework density 21.158722000000001
#
# number of rings (size 3 to 8) (size 9 to 14) (size 15 to 20)
#    0.000    1.818    1.818    1.636    7.636    3.636 
#   13.091    0.000    0.000    0.000    0.000    0.000 
#    0.000    0.000    0.000    0.000    0.000    0.000 
#
# Total GULP energy -245670.913887 kJ/mol
# GULP energy per Si atom -5583.429861 kJ/mol
# Density = 2.111056 g / cm^3
# Si number density = 21.158722 Si / 1000 Ang^3
#
#
#
# Elastic Constant Matrix: (Units=GPa)
#
#
# Indices 1 2 3 4 5 6 
#
# 1 114.9980 23.5187 11.8832 0.0000 0.0000 0.0000
# 2 23.5187 41.6847 11.7683 0.0000 0.0000 0.0000
# 3 11.8832 11.7683 63.2060 0.0000 0.0000 0.0000
# 4 0.0000 0.0000 0.0000 -49.8015 0.0000 0.0000
# 5 0.0000 0.0000 0.0000 0.0000 9.1624 0.0000
# 6 0.0000 0.0000 0.0000 0.0000 0.0000 51.8394
#
#
#
# Elastic Compliance Matrix: (Units=1/GPa)
#
#
# Indices 1 2 3 4 5 6 
#
# 1 0.009875 -0.005327 -0.000865 0.000000 0.000000 0.000000
# 2 -0.005327 0.028195 -0.004248 0.000000 0.000000 0.000000
# 3 -0.000865 -0.004248 0.016775 0.000000 0.000000 0.000000
# 4 0.000000 0.000000 0.000000 -0.020080 0.000000 0.000000
# 5 0.000000 0.000000 0.000000 0.000000 0.109141 0.000000
# 6 0.000000 0.000000 0.000000 0.000000 0.000000 0.019290
#
#
# Mechanical properties :
#
#
# Convention : Reuss Voigt Hill
#
# Bulk Modulus (GPa) = 29.44265 34.91432 32.17849
# Shear Modulus (GPa) = 25.58895 13.75463 19.67179
#
# Velocity S-wave (km/s) = 3.48139 2.55241 3.05245
# Velocity P-wave (km/s) = 5.48684 5.02229 5.25970
#
# Compressibility (1/GPa) = 0.03396433
#
# Stress axis : x y z
#
# Youngs Moduli (GPa) = 101.26956 35.46784 59.61332
#
# Poissons Ratio (x) = 0.18894 0.05154
# Poissons Ratio (y) = 0.53948 0.25324
# Poissons Ratio (z) = 0.08756 0.15067
#
# Static dielectric constant tensor:
#      x y z
#    x 1.782030 0.000000 0.000000 
#    y 0.000000 1.851950 0.000000 
#    z 0.000000 0.000000 1.742580 
# 
# From -- ./inp_files/20444.got.cif
#   From: 2010.05.17/outbox.cif.g08.bks.cpg/sg56_11_cif.got.tgz:20444.got - 2010.06.03 13:42:01.
