data_PCOD9431502
_publ_section_title
;
Structure prediction by ZEFSAII (Michael W. Deem and Ramdas Pophale) SiO2 
 PCOD9431502
Probable space group: P C C N
;
_chemical_formula_sum "Si O2"
_cell_formula_units_Z 60
_cell_length_a 11.572197
_cell_length_b 26.211807
_cell_length_c 8.750138
_cell_angle_alpha 90.000000
_cell_angle_beta 90.000000
_cell_angle_gamma 90.000000
_cell_volume 2654.163560
_symmetry_space_group_name_H-M "P C C N"
_symmetry_group_IT_number 56
_symmetry_cell_setting 'orthorhombic'
loop_
_space_group_symop_operation_xyz
x,y,z
1/2-x,1/2-y,z
1/2+x,-y,1/2-z
-x,1/2+y,1/2-z
-x,-y,-z
1/2+x,1/2+y,-z
1/2-x,y,1/2+z
x,1/2-y,1/2+z
loop_
_atom_site_type_symbol
_atom_site_label
_atom_site_fract_x
_atom_site_fract_y
_atom_site_fract_z
Si Si1 0.869345 0.935424 0.052715
Si Si2 0.092088 0.161762 0.446919
Si Si3 0.236420 0.374129 0.703106
Si Si4 0.750000 0.250000 0.839387
Si Si5 0.920442 0.079499 0.291940
Si Si6 0.920434 0.485694 0.310376
Si Si7 0.880297 0.194608 0.588779
Si Si8 0.285841 0.914748 0.905568
O O1 0.776867 0.919510 0.181801
O O2 0.857327 0.893276 0.919986
O O3 0.857641 0.987509 0.954730
O O4 0.992759 0.941983 0.130798
O O5 0.156662 0.140479 0.596400
O O6 0.187356 0.169572 0.314974
O O7 0.008316 0.120413 0.364790
O O8 0.005058 0.203179 0.513818
O O9 0.851079 0.231446 0.727979
O O10 0.709204 0.205475 0.951397
O O11 0.820218 0.075549 0.419737
O O12 0.847163 0.093735 0.141357
O O13 0.993701 0.028448 0.261599
O O14 0.836002 0.462660 0.186620
O O15 0.856161 0.136707 0.639056
#
# Coordination Sequence:
#
# PCOD9431502 Si02
#       8
#     8   8   8   4   8   8   8   8
#     4  10  22  36  53  77 118 172 231 254 315 353
#     4  10  21  41  64  94 127 164 222 258 316 385
#     4  10  21  39  61  83 121 173 213 270 306 377
#     4  10  22  44  76  98 130 160 194 260 350 414
#     4  11  24  39  57  87 128 177 219 272 318 373
#     4  11  24  37  54  84 126 181 229 272 313 369
#     4  10  21  44  68 102 125 161 205 264 333 403
#     4  11  25  39  61  90 132 164 222 276 318 384
#
# _framework density 22.605992000000001
#
# number of rings (size 3 to 8) (size 9 to 14) (size 15 to 20)
#    0.000    1.600    1.333    3.600    5.600    0.000 
#    2.400    5.333    0.000    2.400    0.000    0.000 
#    0.000    0.000    0.000    0.000    0.000    0.000 
#
# Total GULP energy -334911.019634 kJ/mol
# GULP energy per Si atom -5581.850327 kJ/mol
# Density = 2.255454 g / cm^3
# Si number density = 22.605992 Si / 1000 Ang^3
#
#
#
# Elastic Constant Matrix: (Units=GPa)
#
#
# Indices 1 2 3 4 5 6 
#
# 1 69.4266 -2.7596 30.5845 0.0000 0.0000 0.0000
# 2 -2.7596 10.3524 6.8878 0.0000 0.0000 0.0000
# 3 30.5845 6.8878 106.5843 0.0000 0.0000 0.0000
# 4 0.0000 0.0000 0.0000 12.2587 0.0000 0.0000
# 5 0.0000 0.0000 0.0000 0.0000 48.8933 0.0000
# 6 0.0000 0.0000 0.0000 0.0000 0.0000 28.1538
#
#
#
# Elastic Compliance Matrix: (Units=1/GPa)
#
#
# Indices 1 2 3 4 5 6 
#
# 1 0.017127 0.008187 -0.005444 0.000000 0.000000 0.000000
# 2 0.008187 0.104849 -0.009125 0.000000 0.000000 0.000000
# 3 -0.005444 -0.009125 0.011534 0.000000 0.000000 0.000000
# 4 0.000000 0.000000 0.000000 0.081575 0.000000 0.000000
# 5 0.000000 0.000000 0.000000 0.000000 0.020453 0.000000
# 6 0.000000 0.000000 0.000000 0.000000 0.000000 0.035519
#
#
# Mechanical properties :
#
#
# Convention : Reuss Voigt Hill
#
# Bulk Modulus (GPa) = 8.28172 28.42098 18.35135
# Shear Modulus (GPa) = 15.42878 27.97118 21.69998
#
# Velocity S-wave (km/s) = 2.61532 3.52139 3.10162
# Velocity P-wave (km/s) = 3.57650 5.39752 4.57846
#
# Compressibility (1/GPa) = 0.12074779
#
# Stress axis : x y z
#
# Youngs Moduli (GPa) = 58.38635 9.53749 86.69979
#
# Poissons Ratio (x) = -0.07809 0.47198
# Poissons Ratio (y) = -0.47804 0.79115
# Poissons Ratio (z) = 0.31784 0.08703
#
# Static dielectric constant tensor:
#      x y z
#    x 1.911630 0.000000 0.000000 
#    y 0.000000 1.871040 0.000000 
#    z 0.000000 0.000000 1.867090 
# 
# From -- ./inp_files/2894.got.cif
#   From: 2010.05.17/outbox.cif.g08.bks.cpg/sg56_2_cif.got.tgz:2894.got - 2010.06.03 13:42:01.
