data_PCOD9431591
_publ_section_title
;
Structure prediction by ZEFSAII (Michael W. Deem and Ramdas Pophale) SiO2 
 PCOD9431591
Probable space group: P C C N
;
_chemical_formula_sum "Si O2"
_cell_formula_units_Z 36
_cell_length_a 12.307451
_cell_length_b 5.956910
_cell_length_c 19.081825
_cell_angle_alpha 90.000000
_cell_angle_beta 90.000000
_cell_angle_gamma 90.000000
_cell_volume 1398.972130
_symmetry_space_group_name_H-M "P C C N"
_symmetry_group_IT_number 56
_symmetry_cell_setting 'orthorhombic'
loop_
_space_group_symop_operation_xyz
x,y,z
1/2-x,1/2-y,z
1/2+x,-y,1/2-z
-x,1/2+y,1/2-z
-x,-y,-z
1/2+x,1/2+y,-z
1/2-x,y,1/2+z
x,1/2-y,1/2+z
loop_
_atom_site_type_symbol
_atom_site_label
_atom_site_fract_x
_atom_site_fract_y
_atom_site_fract_z
Si Si1 0.562445 0.068288 0.427874
Si Si2 0.593193 0.127896 0.184143
Si Si3 0.139846 0.886898 0.468542
Si Si4 0.594387 0.621847 0.205027
Si Si5 0.750000 0.750000 0.459960
O O1 0.603627 0.306784 0.455444
O O2 0.487955 0.098667 0.361043
O O3 0.500000 0.000000 0.500000
O O4 0.670613 0.915937 0.417778
O O5 0.571360 0.140631 0.100853
O O6 0.647567 0.370501 0.203937
O O7 0.479981 0.127495 0.225806
O O8 0.643251 0.876326 0.197909
O O9 0.250000 0.750000 0.452654
O O10 0.169005 0.138437 0.484072
#
# Coordination Sequence:
#
# PCOD9431591 Si02
#       5
#     8   8   8   8   4
#     4  11  21  38  65  90 121 168 208 264 323 369
#     4  10  21  40  60  91 123 157 212 256 307 383
#     4  10  22  38  59  88 123 162 210 257 310 378
#     4  10  22  37  64  92 119 159 208 261 309 377
#     4  10  24  38  56  94 128 156 220 266 306 394
#
# _framework density 25.733176
#
# number of rings (size 3 to 8) (size 9 to 14) (size 15 to 20)
#    0.000    1.778    2.222    1.333    6.222    1.778 
#    0.000    4.444    0.000    0.000    0.000    0.000 
#    0.000    0.000    0.000    0.000    0.000    0.000 
#
# Total GULP energy -200724.124234 kJ/mol
# GULP energy per Si atom -5575.670118 kJ/mol
# Density = 2.567461 g / cm^3
# Si number density = 25.733176 Si / 1000 Ang^3
#
#
#
# Elastic Constant Matrix: (Units=GPa)
#
#
# Indices 1 2 3 4 5 6 
#
# 1 79.4947 51.1777 44.1670 0.0000 0.0000 0.0000
# 2 51.1777 222.8612 27.1057 0.0000 0.0000 0.0000
# 3 44.1670 27.1057 111.8815 0.0000 0.0000 0.0000
# 4 0.0000 0.0000 0.0000 21.0715 0.0000 0.0000
# 5 0.0000 0.0000 0.0000 0.0000 -22.2325 0.0000
# 6 0.0000 0.0000 0.0000 0.0000 0.0000 52.6324
#
#
#
# Elastic Compliance Matrix: (Units=1/GPa)
#
#
# Indices 1 2 3 4 5 6 
#
# 1 0.018354 -0.003435 -0.006413 0.000000 0.000000 0.000000
# 2 -0.003435 0.005266 0.000080 0.000000 0.000000 0.000000
# 3 -0.006413 0.000080 0.011450 0.000000 0.000000 0.000000
# 4 0.000000 0.000000 0.000000 0.047457 0.000000 0.000000
# 5 0.000000 0.000000 0.000000 0.000000 -0.044979 0.000000
# 6 0.000000 0.000000 0.000000 0.000000 0.000000 0.019000
#
#
# Mechanical properties :
#
#
# Convention : Reuss Voigt Hill
#
# Bulk Modulus (GPa) = 64.37323 73.23756 68.80540
# Shear Modulus (GPa) = 61.52888 29.74675 45.63782
#
# Velocity S-wave (km/s) = 4.89512 3.40364 4.21586
# Velocity P-wave (km/s) = 7.55113 6.63088 7.10592
#
# Compressibility (1/GPa) = 0.01553441
#
# Stress axis : x y z
#
# Youngs Moduli (GPa) = 54.48416 189.89351 87.33318
#
# Poissons Ratio (x) = 0.65224 0.56010
# Poissons Ratio (y) = 0.18714 -0.00700
# Poissons Ratio (z) = 0.34943 -0.01521
#
# Static dielectric constant tensor:
#      x y z
#    x 2.710430 0.000000 0.000000 
#    y 0.000000 2.410170 0.000000 
#    z 0.000000 0.000000 1.915980 
# 
# From -- ./inp_files/17354.got.cif
#   From: 2010.05.17/outbox.cif.g08.bks.cpg/sg56_9_cif.got.tgz:17354.got - 2010.06.03 13:42:01.
