data_PCOD9431062
_publ_section_title
;
Structure prediction by ZEFSAII (Michael W. Deem and Ramdas Pophale) SiO2 
 PCOD9431062
Probable space group: P C C N
;
_chemical_formula_sum "Si O2"
_cell_formula_units_Z 60
_cell_length_a 8.617054
_cell_length_b 11.464933
_cell_length_c 29.205261
_cell_angle_alpha 90.000000
_cell_angle_beta 90.000000
_cell_angle_gamma 90.000000
_cell_volume 2885.303001
_symmetry_space_group_name_H-M "P C C N"
_symmetry_group_IT_number 56
_symmetry_cell_setting 'orthorhombic'
loop_
_space_group_symop_operation_xyz
x,y,z
1/2-x,1/2-y,z
1/2+x,-y,1/2-z
-x,1/2+y,1/2-z
-x,-y,-z
1/2+x,1/2+y,-z
1/2-x,y,1/2+z
x,1/2-y,1/2+z
loop_
_atom_site_type_symbol
_atom_site_label
_atom_site_fract_x
_atom_site_fract_y
_atom_site_fract_z
Si Si1 0.779819 0.025163 0.837117
Si Si2 0.397258 0.178523 0.193207
Si Si3 0.807070 0.117998 0.737516
Si Si4 0.948509 0.385508 0.551384
Si Si5 0.590551 0.106889 0.653776
Si Si6 0.750000 0.250000 0.398969
Si Si7 0.544053 0.316512 0.478320
Si Si8 0.250480 0.452493 0.508628
O O1 0.764791 0.048481 0.782802
O O2 0.740339 0.136423 0.867224
O O3 0.669056 0.913276 0.843476
O O4 0.957306 0.990400 0.845466
O O5 0.250000 0.250000 0.212411
O O6 0.508535 0.117847 0.229884
O O7 0.508170 0.274644 0.170670
O O8 0.750000 0.250000 0.745923
O O9 0.724864 0.079364 0.690186
O O10 0.873339 0.372586 0.600966
O O11 0.921845 0.272493 0.519717
O O12 0.866924 0.498258 0.529362
O O13 0.135701 0.407066 0.548719
O O14 0.599542 0.250786 0.432410
O O15 0.368659 0.359268 0.487072
O O16 0.647021 0.434830 0.477731
#
# Coordination Sequence:
#
# PCOD9431062 Si02
#       8
#     8   8   8   8   8   4   8   8
#     4  11  22  40  63  89 130 172 214 263 332 398
#     4   9  21  39  63  92 121 162 213 263 323 390
#     4  10  20  40  64  95 125 161 210 275 332 390
#     4  11  22  42  63  93 129 168 211 279 320 385
#     4  10  23  38  66  95 126 162 219 271 325 388
#     4  12  24  40  64  92 134 178 220 268 334 408
#     4  11  23  41  61  93 126 172 217 266 321 398
#     4  10  23  39  65  88 128 171 216 260 334 380
#
# _framework density 20.795041000000001
#
# number of rings (size 3 to 8) (size 9 to 14) (size 15 to 20)
#    0.000    1.600    2.000    2.000    1.867    9.600 
#    0.000    0.000    2.933    0.000    0.000    0.000 
#    0.000    0.000    0.000    0.000    0.000    0.000 
#
# Total GULP energy -334873.694112 kJ/mol
# GULP energy per Si atom -5581.228235 kJ/mol
# Density = 2.074771 g / cm^3
# Si number density = 20.795041 Si / 1000 Ang^3
#
#
#
# Elastic Constant Matrix: (Units=GPa)
#
#
# Indices 1 2 3 4 5 6 
#
# 1 99.4872 31.1992 33.8595 0.0000 0.0000 0.0000
# 2 31.1992 61.6260 25.4761 0.0000 0.0000 0.0000
# 3 33.8595 25.4761 122.8452 0.0000 0.0000 0.0000
# 4 0.0000 0.0000 0.0000 16.4575 0.0000 0.0000
# 5 0.0000 0.0000 0.0000 0.0000 21.4746 0.0000
# 6 0.0000 0.0000 0.0000 0.0000 0.0000 40.4259
#
#
#
# Elastic Compliance Matrix: (Units=1/GPa)
#
#
# Indices 1 2 3 4 5 6 
#
# 1 0.012534 -0.005379 -0.002339 0.000000 0.000000 0.000000
# 2 -0.005379 0.020057 -0.002677 0.000000 0.000000 0.000000
# 3 -0.002339 -0.002677 0.009340 0.000000 0.000000 0.000000
# 4 0.000000 0.000000 0.000000 0.060762 0.000000 0.000000
# 5 0.000000 0.000000 0.000000 0.000000 0.046567 0.000000
# 6 0.000000 0.000000 0.000000 0.000000 0.000000 0.024737
#
#
# Mechanical properties :
#
#
# Convention : Reuss Voigt Hill
#
# Bulk Modulus (GPa) = 47.30060 51.66979 49.48520
# Shear Modulus (GPa) = 24.77281 28.56652 26.66966
#
# Velocity S-wave (km/s) = 3.45524 3.71039 3.58509
# Velocity P-wave (km/s) = 6.22204 6.57701 6.40199
#
# Compressibility (1/GPa) = 0.02114138
#
# Stress axis : x y z
#
# Youngs Moduli (GPa) = 79.77987 49.85888 107.06328
#
# Poissons Ratio (x) = 0.26818 0.25046
# Poissons Ratio (y) = 0.42911 0.28660
# Poissons Ratio (z) = 0.18664 0.13347
#
# Static dielectric constant tensor:
#      x y z
#    x 1.795750 0.000000 0.000000 
#    y 0.000000 1.765760 0.000000 
#    z 0.000000 0.000000 1.761800 
# 
# From -- ./inp_files/22120.got.cif
#   From: 2010.05.17/outbox.cif.g08.bks.cpg/sg56_12_cif.got.tgz:22120.got - 2010.06.03 13:42:01.
