data_PCOD9431738
_publ_section_title
;
Structure prediction by ZEFSAII (Michael W. Deem and Ramdas Pophale) SiO2 
 PCOD9431738
Probable space group: P C C N
;
_chemical_formula_sum "Si O2"
_cell_formula_units_Z 60
_cell_length_a 13.746341
_cell_length_b 17.389998
_cell_length_c 10.214706
_cell_angle_alpha 90.000000
_cell_angle_beta 90.000000
_cell_angle_gamma 90.000000
_cell_volume 2441.813646
_symmetry_space_group_name_H-M "P C C N"
_symmetry_group_IT_number 56
_symmetry_cell_setting 'orthorhombic'
loop_
_space_group_symop_operation_xyz
x,y,z
1/2-x,1/2-y,z
1/2+x,-y,1/2-z
-x,1/2+y,1/2-z
-x,-y,-z
1/2+x,1/2+y,-z
1/2-x,y,1/2+z
x,1/2-y,1/2+z
loop_
_atom_site_type_symbol
_atom_site_label
_atom_site_fract_x
_atom_site_fract_y
_atom_site_fract_z
Si Si1 0.247116 0.158320 0.827013
Si Si2 0.149062 0.958260 0.620172
Si Si3 0.518368 0.143528 0.427741
Si Si4 0.697046 0.087265 0.606338
Si Si5 0.184391 0.170851 0.078368
Si Si6 0.561260 0.194983 0.951062
Si Si7 0.444657 0.390139 0.669421
Si Si8 0.250000 0.750000 0.392442
O O1 0.250000 0.250000 0.853150
O O2 0.247731 0.123822 0.971356
O O3 0.328916 0.138717 0.723544
O O4 0.150081 0.141017 0.745366
O O5 0.189853 0.968277 0.768729
O O6 0.226384 0.940475 0.504486
O O7 0.082844 0.882110 0.625777
O O8 0.083983 0.032488 0.596371
O O9 0.598587 0.107452 0.525070
O O10 0.420264 0.162098 0.510075
O O11 0.534123 0.229915 0.369693
O O12 0.512777 0.093340 0.295743
O O13 0.727687 0.169058 0.674182
O O14 0.250000 0.250000 0.096630
O O15 0.487674 0.170674 0.067015
O O16 0.658733 0.226596 0.019472
#
# Coordination Sequence:
#
# PCOD9431738 Si02
#       8
#     8   8   8   8   8   8   8   4
#     4   9  18  34  57  84 120 168 219 269 330 396
#     4  11  26  45  68 100 145 193 236 290 385 436
#     4  10  23  40  72 101 138 181 244 309 351 427
#     4  10  24  45  70 102 139 186 249 302 367 441
#     4   9  17  34  56  90 129 164 212 280 343 400
#     4  10  21  41  67 104 138 176 239 297 359 427
#     4  11  24  42  67 100 144 188 236 294 363 438
#     4   8  20  38  72 100 128 178 232 302 358 408
#
# _framework density 24.571898999999998
#
# number of rings (size 3 to 8) (size 9 to 14) (size 15 to 20)
#    0.000    2.133    0.000    2.000    7.467    4.800 
#    2.400    0.000    0.000    0.000    0.000    0.000 
#    0.000    0.000    0.000    0.000    0.000    0.000 
#
# Total GULP energy -334252.433094 kJ/mol
# GULP energy per Si atom -5570.873885 kJ/mol
# Density = 2.451597 g / cm^3
# Si number density = 24.571899 Si / 1000 Ang^3
#
#
#
# Elastic Constant Matrix: (Units=GPa)
#
#
# Indices 1 2 3 4 5 6 
#
# 1 41.7440 35.7245 -0.9985 0.0000 0.0000 0.0000
# 2 35.7245 81.1806 22.1627 0.0000 0.0000 0.0000
# 3 -0.9985 22.1627 109.4640 0.0000 0.0000 0.0000
# 4 0.0000 0.0000 0.0000 30.5088 0.0000 0.0000
# 5 0.0000 0.0000 0.0000 0.0000 -9.9450 0.0000
# 6 0.0000 0.0000 0.0000 0.0000 0.0000 30.5610
#
#
#
# Elastic Compliance Matrix: (Units=1/GPa)
#
#
# Indices 1 2 3 4 5 6 
#
# 1 0.040152 -0.018809 0.004174 0.000000 0.000000 0.000000
# 2 -0.018809 0.021850 -0.004595 0.000000 0.000000 0.000000
# 3 0.004174 -0.004595 0.010104 0.000000 0.000000 0.000000
# 4 0.000000 0.000000 0.000000 0.032777 0.000000 0.000000
# 5 0.000000 0.000000 0.000000 0.000000 -0.100553 0.000000
# 6 0.000000 0.000000 0.000000 0.000000 0.000000 0.032721
#
#
# Mechanical properties :
#
#
# Convention : Reuss Voigt Hill
#
# Bulk Modulus (GPa) = 29.72126 38.46289 34.09208
# Shear Modulus (GPa) = 57.65181 21.92494 39.78838
#
# Velocity S-wave (km/s) = 4.84907 2.99034 4.02837
# Velocity P-wave (km/s) = 6.59342 5.25453 5.96168
#
# Compressibility (1/GPa) = 0.03364594
#
# Stress axis : x y z
#
# Youngs Moduli (GPa) = 24.90518 45.76659 98.97144
#
# Poissons Ratio (x) = 0.86083 -0.41315
# Poissons Ratio (y) = 0.46845 0.45482
# Poissons Ratio (z) = -0.10397 0.21032
#
# Static dielectric constant tensor:
#      x y z
#    x 2.098860 0.000000 0.000000 
#    y 0.000000 1.932640 0.000000 
#    z 0.000000 0.000000 2.009430 
# 
# From -- ./inp_files/8026.got.cif
#   From: 2010.05.17/outbox.cif.g08.bks.cpg/sg56_5_cif.got.tgz:8026.got - 2010.06.03 13:42:01.
