data_PCOD9431164
_publ_section_title
;
Structure prediction by ZEFSAII (Michael W. Deem and Ramdas Pophale) SiO2 
 PCOD9431164
Probable space group: P C C N
;
_chemical_formula_sum "Si O2"
_cell_formula_units_Z 64
_cell_length_a 8.983696
_cell_length_b 22.907148
_cell_length_c 14.346451
_cell_angle_alpha 90.000000
_cell_angle_beta 90.000000
_cell_angle_gamma 90.000000
_cell_volume 2952.368401
_symmetry_space_group_name_H-M "P C C N"
_symmetry_group_IT_number 56
_symmetry_cell_setting 'orthorhombic'
loop_
_space_group_symop_operation_xyz
x,y,z
1/2-x,1/2-y,z
1/2+x,-y,1/2-z
-x,1/2+y,1/2-z
-x,-y,-z
1/2+x,1/2+y,-z
1/2-x,y,1/2+z
x,1/2-y,1/2+z
loop_
_atom_site_type_symbol
_atom_site_label
_atom_site_fract_x
_atom_site_fract_y
_atom_site_fract_z
Si Si1 0.096700 0.730720 0.835068
Si Si2 0.643550 0.389872 0.583004
Si Si3 0.838446 0.025193 0.972877
Si Si4 0.131285 0.198743 0.822785
Si Si5 0.730285 0.574538 0.231224
Si Si6 0.811098 0.591059 0.951542
Si Si7 0.886263 0.795583 0.972147
Si Si8 0.587456 0.469906 0.762481
O O1 0.250000 0.750000 0.787772
O O2 0.150287 0.679126 0.903086
O O3 0.984339 0.702627 0.761123
O O4 0.006295 0.779739 0.893330
O O5 0.780462 0.419204 0.529302
O O6 0.484863 0.398294 0.531231
O O7 0.629131 0.422623 0.683601
O O8 0.831028 0.037501 0.861864
O O9 0.730991 0.970796 0.994813
O O10 0.000000 0.000000 0.000000
O O11 0.250000 0.250000 0.809326
O O12 0.215084 0.136314 0.819549
O O13 0.054737 0.209957 0.922435
O O14 0.711578 0.587096 0.340499
O O15 0.584766 0.536200 0.210040
O O16 0.872940 0.533528 0.221499
O O17 0.694409 0.641904 0.973521
O O18 0.750000 0.750000 0.959002
#
# Coordination Sequence:
#
# PCOD9431164 Si02
#       8
#     8   8   8   8   8   8   8   8
#     4  12  26  45  68  98 140 180 222 291 346 408
#     4  11  23  45  66  94 137 178 220 281 344 407
#     4  11  25  39  64 103 132 174 225 275 343 417
#     4  11  24  45  71  98 130 181 231 284 336 410
#     4  10  20  42  64  91 135 171 216 279 327 404
#     4  10  21  41  69  91 132 176 220 282 331 400
#     4  11  23  44  73 100 128 179 237 279 339 412
#     4  10  22  40  64  95 128 176 211 270 337 396
#
# _framework density 21.677512
#
# number of rings (size 3 to 8) (size 9 to 14) (size 15 to 20)
#    0.000    1.250    3.750    2.250    5.250    0.500 
#    4.500    0.000    0.000    0.000    0.000    0.000 
#    0.000    0.000    0.000    0.000    0.000    0.000 
#
# Total GULP energy -357440.199210 kJ/mol
# GULP energy per Si atom -5585.003113 kJ/mol
# Density = 2.162817 g / cm^3
# Si number density = 21.677512 Si / 1000 Ang^3
#
#
#
# Elastic Constant Matrix: (Units=GPa)
#
#
# Indices 1 2 3 4 5 6 
#
# 1 68.8263 38.9279 14.5589 0.0000 0.0000 0.0000
# 2 38.9279 78.3215 7.8365 0.0000 0.0000 0.0000
# 3 14.5589 7.8365 79.7868 0.0000 0.0000 0.0000
# 4 0.0000 0.0000 0.0000 23.3685 0.0000 0.0000
# 5 0.0000 0.0000 0.0000 0.0000 -15.0400 0.0000
# 6 0.0000 0.0000 0.0000 0.0000 0.0000 38.3696
#
#
#
# Elastic Compliance Matrix: (Units=1/GPa)
#
#
# Indices 1 2 3 4 5 6 
#
# 1 0.020817 -0.010065 -0.002810 0.000000 0.000000 0.000000
# 2 -0.010065 0.017761 0.000092 0.000000 0.000000 0.000000
# 3 -0.002810 0.000092 0.013037 0.000000 0.000000 0.000000
# 4 0.000000 0.000000 0.000000 0.042793 0.000000 0.000000
# 5 0.000000 0.000000 0.000000 0.000000 -0.066489 0.000000
# 6 0.000000 0.000000 0.000000 0.000000 0.000000 0.026062
#
#
# Mechanical properties :
#
#
# Convention : Reuss Voigt Hill
#
# Bulk Modulus (GPa) = 38.38905 38.84232 38.61569
# Shear Modulus (GPa) = 56.67026 20.38037 38.52531
#
# Velocity S-wave (km/s) = 5.11851 3.06953 4.22026
# Velocity P-wave (km/s) = 7.25809 5.52448 6.44979
#
# Compressibility (1/GPa) = 0.02604909
#
# Stress axis : x y z
#
# Youngs Moduli (GPa) = 48.03868 56.30198 76.70431
#
# Poissons Ratio (x) = 0.56669 0.21553
# Poissons Ratio (y) = 0.48352 -0.00707
# Poissons Ratio (z) = 0.13498 -0.00519
#
# Static dielectric constant tensor:
#      x y z
#    x 1.819030 0.000000 0.000000 
#    y 0.000000 1.872410 0.000000 
#    z 0.000000 0.000000 1.823930 
# 
# From -- ./inp_files/11057.got.cif
#   From: 2010.05.17/outbox.cif.g08.bks.cpg/sg56_6_cif.got.tgz:11057.got - 2010.06.03 13:42:01.
