data_PCOD9431442
_publ_section_title
;
Structure prediction by ZEFSAII (Michael W. Deem and Ramdas Pophale) SiO2 
 PCOD9431442
Probable space group: P C C N
;
_chemical_formula_sum "Si O2"
_cell_formula_units_Z 48
_cell_length_a 8.343185
_cell_length_b 29.105412
_cell_length_c 9.042200
_cell_angle_alpha 90.000000
_cell_angle_beta 90.000000
_cell_angle_gamma 90.000000
_cell_volume 2195.734035
_symmetry_space_group_name_H-M "P C C N"
_symmetry_group_IT_number 56
_symmetry_cell_setting 'orthorhombic'
loop_
_space_group_symop_operation_xyz
x,y,z
1/2-x,1/2-y,z
1/2+x,-y,1/2-z
-x,1/2+y,1/2-z
-x,-y,-z
1/2+x,1/2+y,-z
1/2-x,y,1/2+z
x,1/2-y,1/2+z
loop_
_atom_site_type_symbol
_atom_site_label
_atom_site_fract_x
_atom_site_fract_y
_atom_site_fract_z
Si Si1 0.919673 0.277120 0.942812
Si Si2 0.922434 0.046243 0.937515
Si Si3 0.118410 0.284272 0.656220
Si Si4 0.881181 0.856227 0.445751
Si Si5 0.857639 0.012863 0.612311
Si Si6 0.703249 0.913006 0.665541
O O1 0.750000 0.250000 0.940710
O O2 0.981159 0.290324 0.779076
O O3 0.037949 0.240358 0.017171
O O4 0.961570 0.323651 0.038637
O O5 0.053977 0.085815 0.950171
O O6 0.900933 0.036860 0.764777
O O7 0.757144 0.047737 0.023426
O O8 0.000000 0.000000 0.000000
O O9 0.250000 0.250000 0.726145
O O10 0.228518 0.324878 0.596326
O O11 0.840388 0.880467 0.600738
O O12 0.869610 0.894667 0.318399
O O13 0.772508 0.964888 0.663153
O O14 0.000000 0.000000 0.500000
#
# Coordination Sequence:
#
# PCOD9431442 Si02
#       6
#     8   8   8   8   8   8
#     4  11  23  41  66  96 128 167 213 272 334 407
#     4  10  21  38  62  92 128 183 228 269 323 410
#     4  10  21  40  67  91 123 172 220 250 326 423
#     4  11  22  40  66  97 125 173 219 278 332 404
#     4  11  21  39  65  94 133 181 229 271 335 406
#     4  11  22  40  65  96 133 166 226 276 330 384
#
# _framework density 21.860571
#
# number of rings (size 3 to 8) (size 9 to 14) (size 15 to 20)
#    0.000    1.333    1.667    7.000    2.333    0.000 
#    0.000    5.000    0.000    0.000    0.000    0.000 
#    0.000    0.000    0.000    0.000    0.000    0.000 
#
# Total GULP energy -267577.518360 kJ/mol
# GULP energy per Si atom -5574.531633 kJ/mol
# Density = 2.181082 g / cm^3
# Si number density = 21.860571 Si / 1000 Ang^3
#
#
#
# Elastic Constant Matrix: (Units=GPa)
#
#
# Indices 1 2 3 4 5 6 
#
# 1 101.9088 30.3894 15.5850 0.0000 0.0000 0.0000
# 2 30.3894 78.6525 15.6966 0.0000 0.0000 0.0000
# 3 15.5850 15.6966 76.2900 0.0000 0.0000 0.0000
# 4 0.0000 0.0000 0.0000 22.2843 0.0000 0.0000
# 5 0.0000 0.0000 0.0000 0.0000 34.0144 0.0000
# 6 0.0000 0.0000 0.0000 0.0000 0.0000 43.0398
#
#
#
# Elastic Compliance Matrix: (Units=1/GPa)
#
#
# Indices 1 2 3 4 5 6 
#
# 1 0.011245 -0.004053 -0.001463 0.000000 0.000000 0.000000
# 2 -0.004053 0.014719 -0.002201 0.000000 0.000000 0.000000
# 3 -0.001463 -0.002201 0.013860 0.000000 0.000000 0.000000
# 4 0.000000 0.000000 0.000000 0.044875 0.000000 0.000000
# 5 0.000000 0.000000 0.000000 0.000000 0.029399 0.000000
# 6 0.000000 0.000000 0.000000 0.000000 0.000000 0.023234
#
#
# Mechanical properties :
#
#
# Convention : Reuss Voigt Hill
#
# Bulk Modulus (GPa) = 40.99956 42.24369 41.62162
# Shear Modulus (GPa) = 31.07604 32.87970 31.97787
#
# Velocity S-wave (km/s) = 3.77444 3.88243 3.82882
# Velocity P-wave (km/s) = 6.14744 6.28202 6.21509
#
# Compressibility (1/GPa) = 0.02439050
#
# Stress axis : x y z
#
# Youngs Moduli (GPa) = 88.92820 67.93850 72.15223
#
# Poissons Ratio (x) = 0.27534 0.10558
# Poissons Ratio (y) = 0.36040 0.15877
# Poissons Ratio (z) = 0.13013 0.14950
#
# Static dielectric constant tensor:
#      x y z
#    x 1.890590 0.000000 0.000000 
#    y 0.000000 1.823650 0.000000 
#    z 0.000000 0.000000 1.797480 
# 
# From -- ./inp_files/2237.got.cif
#   From: 2010.05.17/outbox.cif.g08.bks.cpg/sg56_2_cif.got.tgz:2237.got - 2010.06.03 13:42:01.
