data_PCOD9431395
_publ_section_title
;
Structure prediction by ZEFSAII (Michael W. Deem and Ramdas Pophale) SiO2 
 PCOD9431395
Probable space group: P C C N
;
_chemical_formula_sum "Si O2"
_cell_formula_units_Z 44
_cell_length_a 26.684700
_cell_length_b 6.067204
_cell_length_c 12.217236
_cell_angle_alpha 90.000000
_cell_angle_beta 90.000000
_cell_angle_gamma 90.000000
_cell_volume 1977.989061
_symmetry_space_group_name_H-M "P C C N"
_symmetry_group_IT_number 56
_symmetry_cell_setting 'orthorhombic'
loop_
_space_group_symop_operation_xyz
x,y,z
1/2-x,1/2-y,z
1/2+x,-y,1/2-z
-x,1/2+y,1/2-z
-x,-y,-z
1/2+x,1/2+y,-z
1/2-x,y,1/2+z
x,1/2-y,1/2+z
loop_
_atom_site_type_symbol
_atom_site_label
_atom_site_fract_x
_atom_site_fract_y
_atom_site_fract_z
Si Si1 0.842940 0.815977 0.388304
Si Si2 0.880188 0.069013 0.042858
Si Si3 0.937480 0.436757 0.902405
Si Si4 0.204808 0.619680 0.927659
Si Si5 0.250000 0.250000 0.770388
Si Si6 0.527164 0.811139 0.570139
O O1 0.856567 0.585589 0.447685
O O2 0.798467 0.799630 0.302634
O O3 0.892271 0.938555 0.341900
O O4 0.822711 0.963017 0.487793
O O5 0.911476 0.253598 0.978305
O O6 0.836793 0.199407 0.108034
O O7 0.920692 0.920430 0.107969
O O8 0.985994 0.309485 0.851867
O O9 0.957284 0.626131 0.982990
O O10 0.250000 0.750000 0.984710
O O11 0.231973 0.461571 0.840528
O O12 0.500000 0.000000 0.500000
#
# Coordination Sequence:
#
# PCOD9431395 Si02
#       6
#     8   8   8   8   4   8
#     4  10  21  38  56  80 120 156 193 254 299 355
#     4   9  17  32  54  79 117 145 188 242 302 348
#     4   8  15  27  50  82 117 139 187 234 297 351
#     4  11  23  38  55  79 117 156 203 243 301 365
#     4  12  24  36  54  80 118 160 208 244 296 362
#     4   8  13  25  48  82 119 136 180 237 289 357
#
# _framework density 22.244816
#
# number of rings (size 3 to 8) (size 9 to 14) (size 15 to 20)
#    0.000    2.545    0.000    2.727    0.000    3.636 
#    0.000    0.000    0.000    0.000    0.000    0.000 
# 1620.000    0.000    0.000    0.727    0.000   20.182 
#
# Total GULP energy -245113.824101 kJ/mol
# GULP energy per Si atom -5570.768730 kJ/mol
# Density = 2.219419 g / cm^3
# Si number density = 22.244816 Si / 1000 Ang^3
#
#
#
# Elastic Constant Matrix: (Units=GPa)
#
#
# Indices 1 2 3 4 5 6 
#
# 1 150.0603 84.0043 46.2114 0.0000 0.0000 0.0000
# 2 84.0043 151.3206 35.5391 0.0000 0.0000 0.0000
# 3 46.2114 35.5391 55.3580 0.0000 0.0000 0.0000
# 4 0.0000 0.0000 0.0000 -35.3876 0.0000 0.0000
# 5 0.0000 0.0000 0.0000 0.0000 -16.4231 0.0000
# 6 0.0000 0.0000 0.0000 0.0000 0.0000 82.7542
#
#
#
# Elastic Compliance Matrix: (Units=1/GPa)
#
#
# Indices 1 2 3 4 5 6 
#
# 1 0.011298 -0.004777 -0.006365 0.000000 0.000000 0.000000
# 2 -0.004777 0.009802 -0.002305 0.000000 0.000000 0.000000
# 3 -0.006365 -0.002305 0.024857 0.000000 0.000000 0.000000
# 4 0.000000 0.000000 0.000000 -0.028258 0.000000 0.000000
# 5 0.000000 0.000000 0.000000 0.000000 -0.060890 0.000000
# 6 0.000000 0.000000 0.000000 0.000000 0.000000 0.012084
#
#
# Mechanical properties :
#
#
# Convention : Reuss Voigt Hill
#
# Bulk Modulus (GPa) = 52.45539 76.47207 64.46373
# Shear Modulus (GPa) = 2336.10760 18.92098 1177.51429
#
# Velocity S-wave (km/s) = 32.44165 2.91963 23.03242
# Velocity P-wave (km/s) = 37.77450 6.76888 27.13605
#
# Compressibility (1/GPa) = 0.01906382
#
# Stress axis : x y z
#
# Youngs Moduli (GPa) = 88.50827 102.02117 40.23057
#
# Poissons Ratio (x) = 0.48740 0.25605
# Poissons Ratio (y) = 0.42284 0.09272
# Poissons Ratio (z) = 0.56332 0.23512
#
# Static dielectric constant tensor:
#      x y z
#    x 1.893530 0.000000 0.000000 
#    y 0.000000 1.841150 0.000000 
#    z 0.000000 0.000000 1.757530 
# 
# From -- ./inp_files/13346.got.cif
#   From: 2010.05.17/outbox.cif.g08.bks.cpg/sg56_7_cif.got.tgz:13346.got - 2010.06.03 13:42:01.
