data_PCOD9431995
_publ_section_title
;
Structure prediction by ZEFSAII (Michael W. Deem and Ramdas Pophale) SiO2 
 PCOD9431995
Probable space group: P C C N
;
_chemical_formula_sum "Si O2"
_cell_formula_units_Z 28
_cell_length_a 11.356895
_cell_length_b 7.151412
_cell_length_c 17.421459
_cell_angle_alpha 90.000000
_cell_angle_beta 90.000000
_cell_angle_gamma 90.000000
_cell_volume 1414.933186
_symmetry_space_group_name_H-M "P C C N"
_symmetry_group_IT_number 56
_symmetry_cell_setting 'orthorhombic'
loop_
_space_group_symop_operation_xyz
x,y,z
1/2-x,1/2-y,z
1/2+x,-y,1/2-z
-x,1/2+y,1/2-z
-x,-y,-z
1/2+x,1/2+y,-z
1/2-x,y,1/2+z
x,1/2-y,1/2+z
loop_
_atom_site_type_symbol
_atom_site_label
_atom_site_fract_x
_atom_site_fract_y
_atom_site_fract_z
Si Si1 0.750000 0.750000 0.523400
Si Si2 0.388396 0.085604 0.198147
Si Si3 0.451255 0.257887 0.355933
Si Si4 0.845489 0.531339 0.384797
O O1 0.640591 0.700073 0.577280
O O2 0.790737 0.582592 0.467273
O O3 0.389943 0.144748 0.286613
O O4 0.399922 0.274785 0.147873
O O5 0.264549 0.995574 0.172033
O O6 0.492710 0.944284 0.179535
O O7 0.558620 0.129591 0.385820
#
# Coordination Sequence:
#
# PCOD9431995 Si02
#       4
#     4   8   8   8
#     4  10  24  40  66  92 134 164 206 262 314 378
#     4  10  22  38  66  90 124 162 214 261 302 372
#     4  12  21  41  66  92 125 169 210 259 316 365
#     4  10  23  43  59  94 129 163 209 259 315 371
#
# _framework density 19.788921999999999
#
# number of rings (size 3 to 8) (size 9 to 14) (size 15 to 20)
#    0.000    1.714    2.857    3.429    0.000    4.571 
#    0.000    7.143    0.000    0.000    0.000    0.000 
#    0.000    0.000    0.000    0.000    0.000    0.000 
#
# Total GULP energy -156444.847084 kJ/mol
# GULP energy per Si atom -5587.315967 kJ/mol
# Density = 1.974388 g / cm^3
# Si number density = 19.788922 Si / 1000 Ang^3
#
#
#
# Elastic Constant Matrix: (Units=GPa)
#
#
# Indices 1 2 3 4 5 6 
#
# 1 97.0764 25.6506 65.2256 0.0000 0.0000 0.0000
# 2 25.6506 44.9761 28.0642 0.0000 0.0000 0.0000
# 3 65.2256 28.0642 145.7963 0.0000 0.0000 0.0000
# 4 0.0000 0.0000 0.0000 14.3347 0.0000 0.0000
# 5 0.0000 0.0000 0.0000 0.0000 41.4593 0.0000
# 6 0.0000 0.0000 0.0000 0.0000 0.0000 22.1722
#
#
#
# Elastic Compliance Matrix: (Units=1/GPa)
#
#
# Indices 1 2 3 4 5 6 
#
# 1 0.015732 -0.005206 -0.006036 0.000000 0.000000 0.000000
# 2 -0.005206 0.026992 -0.002867 0.000000 0.000000 0.000000
# 3 -0.006036 -0.002867 0.010111 0.000000 0.000000 0.000000
# 4 0.000000 0.000000 0.000000 0.069761 0.000000 0.000000
# 5 0.000000 0.000000 0.000000 0.000000 0.024120 0.000000
# 6 0.000000 0.000000 0.000000 0.000000 0.000000 0.045102
#
#
# Mechanical properties :
#
#
# Convention : Reuss Voigt Hill
#
# Bulk Modulus (GPa) = 40.62106 58.41441 49.51773
# Shear Modulus (GPa) = 21.90662 26.85379 24.38020
#
# Velocity S-wave (km/s) = 3.33079 3.68776 3.51381
# Velocity P-wave (km/s) = 5.94676 6.90765 6.44514
#
# Compressibility (1/GPa) = 0.02461777
#
# Stress axis : x y z
#
# Youngs Moduli (GPa) = 63.56279 37.04827 98.90102
#
# Poissons Ratio (x) = 0.19287 0.59699
# Poissons Ratio (y) = 0.33091 0.28351
# Poissons Ratio (z) = 0.38368 0.10620
#
# Static dielectric constant tensor:
#      x y z
#    x 1.702170 0.000000 0.000000 
#    y 0.000000 1.701100 0.000000 
#    z 0.000000 0.000000 1.692550 
# 
# From -- ./inp_files/9975.got.cif
#   From: 2010.05.17/outbox.cif.g08.bks.cpg/sg56_5_cif.got.tgz:9975.got - 2010.06.03 13:42:01.
