data_PCOD9431363
_publ_section_title
;
Structure prediction by ZEFSAII (Michael W. Deem and Ramdas Pophale) SiO2 
 PCOD9431363
Probable space group: P C C N
;
_chemical_formula_sum "Si O2"
_cell_formula_units_Z 48
_cell_length_a 11.967675
_cell_length_b 16.815716
_cell_length_c 11.985303
_cell_angle_alpha 90.000000
_cell_angle_beta 90.000000
_cell_angle_gamma 90.000000
_cell_volume 2411.982590
_symmetry_space_group_name_H-M "P C C N"
_symmetry_group_IT_number 56
_symmetry_cell_setting 'orthorhombic'
loop_
_space_group_symop_operation_xyz
x,y,z
1/2-x,1/2-y,z
1/2+x,-y,1/2-z
-x,1/2+y,1/2-z
-x,-y,-z
1/2+x,1/2+y,-z
1/2-x,y,1/2+z
x,1/2-y,1/2+z
loop_
_atom_site_type_symbol
_atom_site_label
_atom_site_fract_x
_atom_site_fract_y
_atom_site_fract_z
Si Si1 0.637393 0.275800 0.828524
Si Si2 0.513022 0.375146 0.230733
Si Si3 0.832077 0.402369 0.154657
Si Si4 0.194354 0.459542 0.665450
Si Si5 0.364625 0.592216 0.001855
Si Si6 0.444665 0.027479 0.115240
O O1 0.750000 0.250000 0.892321
O O2 0.556556 0.205367 0.789325
O O3 0.689853 0.323313 0.723768
O O4 0.590162 0.342944 0.910550
O O5 0.381038 0.386315 0.206416
O O6 0.573511 0.390925 0.113340
O O7 0.546612 0.450044 0.307044
O O8 0.796607 0.478447 0.230223
O O9 0.766038 0.403118 0.038335
O O10 0.966076 0.406569 0.151276
O O11 0.130120 0.508608 0.567626
O O12 0.318182 0.442535 0.620415
O O13 0.500000 0.000000 0.000000
#
# Coordination Sequence:
#
# PCOD9431363 Si02
#       6
#     8   8   8   8   8   8
#     4  11  23  36  58  91 124 165 204 263 322 371
#     4  11  23  39  60  93 128 163 210 266 319 381
#     4  10  21  37  60  90 125 157 209 268 311 375
#     4  10  21  39  61  91 125 167 208 262 323 377
#     4  11  20  37  61  90 125 161 210 261 323 380
#     4  11  21  37  63  92 124 162 213 262 316 379
#
# _framework density 19.900641
#
# number of rings (size 3 to 8) (size 9 to 14) (size 15 to 20)
#    0.000    1.333    5.000    1.500    2.333    0.000 
#    0.000    0.833    0.000    0.000    0.000    0.000 
#    0.000    0.000    0.000    0.000    0.000    0.000 
#
# Total GULP energy -267461.860892 kJ/mol
# GULP energy per Si atom -5572.122102 kJ/mol
# Density = 1.985535 g / cm^3
# Si number density = 19.900641 Si / 1000 Ang^3
#
#
#
# Elastic Constant Matrix: (Units=GPa)
#
#
# Indices 1 2 3 4 5 6 
#
# 1 136.3551 30.5053 18.3676 0.0000 0.0000 0.0000
# 2 30.5053 61.4511 24.6373 0.0000 0.0000 0.0000
# 3 18.3676 24.6373 88.0721 0.0000 0.0000 0.0000
# 4 0.0000 0.0000 0.0000 12.8266 0.0000 0.0000
# 5 0.0000 0.0000 0.0000 0.0000 25.0038 0.0000
# 6 0.0000 0.0000 0.0000 0.0000 0.0000 31.7156
#
#
#
# Elastic Compliance Matrix: (Units=1/GPa)
#
#
# Indices 1 2 3 4 5 6 
#
# 1 0.008283 -0.003851 -0.000650 0.000000 0.000000 0.000000
# 2 -0.003851 0.020119 -0.004825 0.000000 0.000000 0.000000
# 3 -0.000650 -0.004825 0.012840 0.000000 0.000000 0.000000
# 4 0.000000 0.000000 0.000000 0.077963 0.000000 0.000000
# 5 0.000000 0.000000 0.000000 0.000000 0.039994 0.000000
# 6 0.000000 0.000000 0.000000 0.000000 0.000000 0.031530
#
#
# Mechanical properties :
#
#
# Convention : Reuss Voigt Hill
#
# Bulk Modulus (GPa) = 44.26851 48.09984 46.18418
# Shear Modulus (GPa) = 23.05085 28.06706 25.55896
#
# Velocity S-wave (km/s) = 3.40707 3.75955 3.58764
# Velocity P-wave (km/s) = 6.14577 6.56263 6.35762
#
# Compressibility (1/GPa) = 0.02258942
#
# Stress axis : x y z
#
# Youngs Moduli (GPa) = 120.73011 49.70343 77.88364
#
# Poissons Ratio (x) = 0.19141 0.05063
# Poissons Ratio (y) = 0.46495 0.37579
# Poissons Ratio (z) = 0.07849 0.23982
#
# Static dielectric constant tensor:
#      x y z
#    x 1.885150 0.000000 0.000000 
#    y 0.000000 1.788650 0.000000 
#    z 0.000000 0.000000 1.766150 
# 
# From -- ./inp_files/7151.got.cif
#   From: 2010.05.17/outbox.cif.g08.bks.cpg/sg56_4_cif.got.tgz:7151.got - 2010.06.03 13:42:01.
