data_PCOD9431446
_publ_section_title
;
Structure prediction by ZEFSAII (Michael W. Deem and Ramdas Pophale) SiO2 
 PCOD9431446
Probable space group: P C C N
;
_chemical_formula_sum "Si O2"
_cell_formula_units_Z 44
_cell_length_a 5.129881
_cell_length_b 18.703619
_cell_length_c 22.098061
_cell_angle_alpha 90.000000
_cell_angle_beta 90.000000
_cell_angle_gamma 90.000000
_cell_volume 2120.250166
_symmetry_space_group_name_H-M "P C C N"
_symmetry_group_IT_number 56
_symmetry_cell_setting 'orthorhombic'
loop_
_space_group_symop_operation_xyz
x,y,z
1/2-x,1/2-y,z
1/2+x,-y,1/2-z
-x,1/2+y,1/2-z
-x,-y,-z
1/2+x,1/2+y,-z
1/2-x,y,1/2+z
x,1/2-y,1/2+z
loop_
_atom_site_type_symbol
_atom_site_label
_atom_site_fract_x
_atom_site_fract_y
_atom_site_fract_z
Si Si1 0.562805 0.884820 0.645171
Si Si2 0.750000 0.250000 0.858459
Si Si3 0.101084 0.456024 0.621388
Si Si4 0.408188 0.934497 0.957493
Si Si5 0.138130 0.451305 0.749972
Si Si6 0.120963 0.318630 0.957869
O O1 0.399792 0.817339 0.670857
O O2 0.793990 0.902618 0.692535
O O3 0.666606 0.865780 0.578051
O O4 0.408697 0.958893 0.636091
O O5 0.542862 0.213038 0.902554
O O6 0.376938 0.433655 0.595116
O O7 0.052929 0.417784 0.685925
O O8 0.874451 0.442731 0.572303
O O9 0.444019 0.864623 0.998260
O O10 0.500000 0.000000 0.000000
O O11 0.410967 0.492036 0.736253
O O12 0.250000 0.250000 0.989375
#
# Coordination Sequence:
#
# PCOD9431446 Si02
#       6
#     8   4   8   8   8   8
#     4  10  21  38  62  94 128 159 216 266 325 371
#     4  10  22  38  62  90 124 170 214 262 320 380
#     4  11  23  38  62  97 127 162 206 262 329 378
#     4  12  23  37  63  93 130 162 208 264 317 391
#     4  10  22  38  63  92 130 164 203 269 324 383
#     4  10  23  38  60  92 126 167 212 263 321 380
#
# _framework density 20.752267
#
# number of rings (size 3 to 8) (size 9 to 14) (size 15 to 20)
#    0.000    1.455    1.818    3.818   10.182    0.000 
#    0.000    0.000    0.000    4.364    0.000    0.000 
#    0.000    0.000    0.000    0.000    0.000    0.000 
#
# Total GULP energy -245613.678292 kJ/mol
# GULP energy per Si atom -5582.129052 kJ/mol
# Density = 2.070503 g / cm^3
# Si number density = 20.752267 Si / 1000 Ang^3
#
#
#
# Elastic Constant Matrix: (Units=GPa)
#
#
# Indices 1 2 3 4 5 6 
#
# 1 68.4554 22.5403 -0.7091 0.0000 0.0000 0.0000
# 2 22.5403 91.6314 24.6964 0.0000 0.0000 0.0000
# 3 -0.7091 24.6964 69.3293 0.0000 0.0000 0.0000
# 4 0.0000 0.0000 0.0000 4.5123 0.0000 0.0000
# 5 0.0000 0.0000 0.0000 0.0000 -3.8480 0.0000
# 6 0.0000 0.0000 0.0000 0.0000 0.0000 37.1964
#
#
#
# Elastic Compliance Matrix: (Units=1/GPa)
#
#
# Indices 1 2 3 4 5 6 
#
# 1 0.016083 -0.004426 0.001741 0.000000 0.000000 0.000000
# 2 -0.004426 0.013290 -0.004779 0.000000 0.000000 0.000000
# 3 0.001741 -0.004779 0.016144 0.000000 0.000000 0.000000
# 4 0.000000 0.000000 0.000000 0.221614 0.000000 0.000000
# 5 0.000000 0.000000 0.000000 0.000000 -0.259876 0.000000
# 6 0.000000 0.000000 0.000000 0.000000 0.000000 0.026884
#
#
# Mechanical properties :
#
#
# Convention : Reuss Voigt Hill
#
# Bulk Modulus (GPa) = 32.69088 35.83016 34.26052
# Shear Modulus (GPa) = 84.36747 19.76472 52.06610
#
# Velocity S-wave (km/s) = 6.38301 3.08947 5.01436
# Velocity P-wave (km/s) = 8.37323 5.47992 7.07603
#
# Compressibility (1/GPa) = 0.03058957
#
# Stress axis : x y z
#
# Youngs Moduli (GPa) = 62.17639 75.24411 61.94153
#
# Poissons Ratio (x) = 0.33300 -0.10784
# Poissons Ratio (y) = 0.27516 0.29605
# Poissons Ratio (z) = -0.10825 0.35963
#
# Static dielectric constant tensor:
#      x y z
#    x 1.821210 0.000000 0.000000 
#    y 0.000000 1.804200 0.000000 
#    z 0.000000 0.000000 1.809950 
# 
# From -- ./inp_files/20030.got.cif
#   From: 2010.05.17/outbox.cif.g08.bks.cpg/sg56_11_cif.got.tgz:20030.got - 2010.06.03 13:42:01.
