data_PCOD9431879
_publ_section_title
;
Structure prediction by ZEFSAII (Michael W. Deem and Ramdas Pophale) SiO2 
 PCOD9431879
Probable space group: P C C N
;
_chemical_formula_sum "Si O2"
_cell_formula_units_Z 48
_cell_length_a 7.892934
_cell_length_b 7.882341
_cell_length_c 32.465086
_cell_angle_alpha 90.000000
_cell_angle_beta 90.000000
_cell_angle_gamma 90.000000
_cell_volume 2019.808744
_symmetry_space_group_name_H-M "P C C N"
_symmetry_group_IT_number 56
_symmetry_cell_setting 'orthorhombic'
loop_
_space_group_symop_operation_xyz
x,y,z
1/2-x,1/2-y,z
1/2+x,-y,1/2-z
-x,1/2+y,1/2-z
-x,-y,-z
1/2+x,1/2+y,-z
1/2-x,y,1/2+z
x,1/2-y,1/2+z
loop_
_atom_site_type_symbol
_atom_site_label
_atom_site_fract_x
_atom_site_fract_y
_atom_site_fract_z
Si Si1 0.750000 0.250000 0.043575
Si Si2 0.296371 0.935919 0.813003
Si Si3 0.419694 0.645469 0.585411
Si Si4 0.719445 0.549106 0.849395
Si Si5 0.133203 0.043283 0.892198
Si Si6 0.000000 0.000000 0.500000
Si Si7 0.661874 0.567145 0.267873
O O1 0.809423 0.092916 0.073144
O O2 0.894629 0.324051 0.013518
O O3 0.250000 0.750000 0.828745
O O4 0.261053 0.049212 0.853204
O O5 0.478758 0.932029 0.790194
O O6 0.167494 0.977701 0.775863
O O7 0.250000 0.750000 0.578202
O O8 0.371244 0.538748 0.625803
O O9 0.448017 0.522915 0.547761
O O10 0.574621 0.776942 0.588683
O O11 0.750000 0.750000 0.847344
O O12 0.543662 0.518442 0.871907
O O13 0.722105 0.479849 0.802921
O O14 0.750000 0.750000 0.260330
#
# Coordination Sequence:
#
# PCOD9431879 Si02
#       7
#     4   8   8   8   8   4   8
#     4  12  28  50  80 114 158 200 262 324 412 476
#     4  12  24  44  70 104 157 198 268 320 392 458
#     4  10  24  47  73 110 146 198 258 322 397 475
#     4  10  21  44  72 102 152 202 260 317 396 459
#     4  11  25  46  75 112 152 206 258 329 392 478
#     4  12  26  52  74 114 150 198 258 324 402 486
#     4  11  25  42  70 108 148 211 260 327 386 459
#
# _framework density 23.764626
#
# number of rings (size 3 to 8) (size 9 to 14) (size 15 to 20)
#    0.000    1.000    1.667    5.000    2.333    6.000 
#    9.000    0.000    0.000    0.000    0.000    0.000 
#    0.000    0.000    0.000    0.000    0.000    0.000 
#
# Total GULP energy -267379.995379 kJ/mol
# GULP energy per Si atom -5570.416570 kJ/mol
# Density = 2.371054 g / cm^3
# Si number density = 23.764626 Si / 1000 Ang^3
#
#
#
# Elastic Constant Matrix: (Units=GPa)
#
#
# Indices 1 2 3 4 5 6 
#
# 1 137.1413 13.5816 7.9785 0.0000 0.0000 0.0000
# 2 13.5816 64.8854 11.5934 0.0000 0.0000 0.0000
# 3 7.9785 11.5934 98.6934 0.0000 0.0000 0.0000
# 4 0.0000 0.0000 0.0000 -61.3869 0.0000 0.0000
# 5 0.0000 0.0000 0.0000 0.0000 -19.9560 0.0000
# 6 0.0000 0.0000 0.0000 0.0000 0.0000 36.7358
#
#
#
# Elastic Compliance Matrix: (Units=1/GPa)
#
#
# Indices 1 2 3 4 5 6 
#
# 1 0.007464 -0.001486 -0.000429 0.000000 0.000000 0.000000
# 2 -0.001486 0.016038 -0.001764 0.000000 0.000000 0.000000
# 3 -0.000429 -0.001764 0.010374 0.000000 0.000000 0.000000
# 4 0.000000 0.000000 0.000000 -0.016290 0.000000 0.000000
# 5 0.000000 0.000000 0.000000 0.000000 -0.050110 0.000000
# 6 0.000000 0.000000 0.000000 0.000000 0.000000 0.027221
#
#
# Mechanical properties :
#
#
# Convention : Reuss Voigt Hill
#
# Bulk Modulus (GPa) = 37.70850 40.78079 39.24465
# Shear Modulus (GPa) = 458.98078 8.91634 233.94856
#
# Velocity S-wave (km/s) = 13.91242 1.93909 9.93266
# Velocity P-wave (km/s) = 16.55221 4.71285 12.16936
#
# Compressibility (1/GPa) = 0.02651922
#
# Stress axis : x y z
#
# Youngs Moduli (GPa) = 133.97946 62.35220 96.39238
#
# Poissons Ratio (x) = 0.09264 0.04134
# Poissons Ratio (y) = 0.19905 0.17002
# Poissons Ratio (z) = 0.05746 0.10998
#
# Static dielectric constant tensor:
#      x y z
#    x 2.071940 0.000000 0.000000 
#    y 0.000000 1.908020 0.000000 
#    z 0.000000 0.000000 1.833820 
# 
# From -- ./inp_files/23302.got.cif
#   From: 2010.05.17/outbox.cif.g08.bks.cpg/sg56_12_cif.got.tgz:23302.got - 2010.06.03 13:42:01.
