data_PCOD9431298
_publ_section_title
;
Structure prediction by ZEFSAII (Michael W. Deem and Ramdas Pophale) SiO2 
 PCOD9431298
Probable space group: P C C N
;
_chemical_formula_sum "Si O2"
_cell_formula_units_Z 64
_cell_length_a 5.228972
_cell_length_b 28.458724
_cell_length_c 21.030548
_cell_angle_alpha 90.000000
_cell_angle_beta 90.000000
_cell_angle_gamma 90.000000
_cell_volume 3129.553134
_symmetry_space_group_name_H-M "P C C N"
_symmetry_group_IT_number 56
_symmetry_cell_setting 'orthorhombic'
loop_
_space_group_symop_operation_xyz
x,y,z
1/2-x,1/2-y,z
1/2+x,-y,1/2-z
-x,1/2+y,1/2-z
-x,-y,-z
1/2+x,1/2+y,-z
1/2-x,y,1/2+z
x,1/2-y,1/2+z
loop_
_atom_site_type_symbol
_atom_site_label
_atom_site_fract_x
_atom_site_fract_y
_atom_site_fract_z
Si Si1 0.344655 0.982221 0.438769
Si Si2 0.067744 0.911410 0.371930
Si Si3 0.271531 0.352411 0.540254
Si Si4 0.215562 0.805541 0.015080
Si Si5 0.172998 0.918894 0.745648
Si Si6 0.364284 0.621925 0.121160
Si Si7 0.691756 0.981042 0.312958
Si Si8 0.860877 0.578274 0.067425
O O1 0.227011 0.929963 0.433158
O O2 0.503362 0.985342 0.373125
O O3 0.500000 0.000000 0.500000
O O4 0.134674 0.022818 0.435252
O O5 0.239442 0.897167 0.312658
O O6 0.862117 0.872787 0.392361
O O7 0.939615 0.958546 0.344439
O O8 0.513155 0.325031 0.510085
O O9 0.252090 0.399072 0.496986
O O10 0.013722 0.322647 0.531796
O O11 0.250000 0.750000 0.019344
O O12 0.139475 0.828753 0.083243
O O13 0.246548 0.881816 0.691524
O O14 0.896666 0.940955 0.762643
O O15 0.295488 0.968429 0.720307
O O16 0.645913 0.598540 0.116507
O O17 0.147647 0.593373 0.082519
#
# Coordination Sequence:
#
# PCOD9431298 Si02
#       8
#     8   8   8   8   8   8   8   8
#     4  11  24  34  55  81 126 170 220 264 302 348
#     4  11  25  37  55  86 126 176 221 259 304 369
#     4  10  23  39  64  92 128 153 196 263 324 397
#     4  10  22  44  71  98 117 149 195 266 353 412
#     4  11  22  35  55  82 126 178 224 254 291 352
#     4  10  22  37  62  89 120 154 206 263 311 373
#     4  11  22  36  54  80 123 180 225 253 291 347
#     4  10  21  36  55  85 120 163 204 248 314 347
#
# _framework density 20.450205
#
# number of rings (size 3 to 8) (size 9 to 14) (size 15 to 20)
#    0.000    1.500    2.500    1.875   12.250    1.000 
#    0.000    0.000    0.000    0.750    0.000    0.000 
#    0.000    0.000    0.000    0.000    0.000    0.000 
#
# Total GULP energy -356889.996512 kJ/mol
# GULP energy per Si atom -5576.406195 kJ/mol
# Density = 2.040366 g / cm^3
# Si number density = 20.450205 Si / 1000 Ang^3
#
#
#
# Elastic Constant Matrix: (Units=GPa)
#
#
# Indices 1 2 3 4 5 6 
#
# 1 75.8444 15.6639 18.6363 0.0000 0.0000 0.0000
# 2 15.6639 77.1019 29.3552 0.0000 0.0000 0.0000
# 3 18.6363 29.3552 85.9292 0.0000 0.0000 0.0000
# 4 0.0000 0.0000 0.0000 12.7403 0.0000 0.0000
# 5 0.0000 0.0000 0.0000 0.0000 32.5526 0.0000
# 6 0.0000 0.0000 0.0000 0.0000 0.0000 24.2097
#
#
#
# Elastic Compliance Matrix: (Units=1/GPa)
#
#
# Indices 1 2 3 4 5 6 
#
# 1 0.014182 -0.001966 -0.002404 0.000000 0.000000 0.000000
# 2 -0.001966 0.015181 -0.004760 0.000000 0.000000 0.000000
# 3 -0.002404 -0.004760 0.013785 0.000000 0.000000 0.000000
# 4 0.000000 0.000000 0.000000 0.078491 0.000000 0.000000
# 5 0.000000 0.000000 0.000000 0.000000 0.030720 0.000000
# 6 0.000000 0.000000 0.000000 0.000000 0.000000 0.041306
#
#
# Mechanical properties :
#
#
# Convention : Reuss Voigt Hill
#
# Bulk Modulus (GPa) = 40.17951 40.68736 40.43344
# Shear Modulus (GPa) = 22.70454 25.58187 24.14321
#
# Velocity S-wave (km/s) = 3.33563 3.54069 3.43969
# Velocity P-wave (km/s) = 5.87583 6.05428 5.96573
#
# Compressibility (1/GPa) = 0.02488831
#
# Stress axis : x y z
#
# Youngs Moduli (GPa) = 70.51382 65.86969 72.54260
#
# Poissons Ratio (x) = 0.12948 0.17440
# Poissons Ratio (y) = 0.13861 0.34530
# Poissons Ratio (z) = 0.16953 0.31354
#
# Static dielectric constant tensor:
#      x y z
#    x 1.855120 0.000000 0.000000 
#    y 0.000000 1.705750 0.000000 
#    z 0.000000 0.000000 1.833220 
# 
# From -- ./inp_files/17699.got.cif
#   From: 2010.05.17/outbox.cif.g08.bks.cpg/sg56_9_cif.got.tgz:17699.got - 2010.06.03 13:42:01.
