data_PCOD9431449
_publ_section_title
;
Structure prediction by ZEFSAII (Michael W. Deem and Ramdas Pophale) SiO2 
 PCOD9431449
Probable space group: P C C N
;
_chemical_formula_sum "Si O2"
_cell_formula_units_Z 64
_cell_length_a 20.024260
_cell_length_b 5.227343
_cell_length_c 27.068117
_cell_angle_alpha 90.000000
_cell_angle_beta 90.000000
_cell_angle_gamma 90.000000
_cell_volume 2833.319291
_symmetry_space_group_name_H-M "P C C N"
_symmetry_group_IT_number 56
_symmetry_cell_setting 'orthorhombic'
loop_
_space_group_symop_operation_xyz
x,y,z
1/2-x,1/2-y,z
1/2+x,-y,1/2-z
-x,1/2+y,1/2-z
-x,-y,-z
1/2+x,1/2+y,-z
1/2-x,y,1/2+z
x,1/2-y,1/2+z
loop_
_atom_site_type_symbol
_atom_site_label
_atom_site_fract_x
_atom_site_fract_y
_atom_site_fract_z
Si Si1 0.898668 0.672395 0.636564
Si Si2 0.421583 0.839572 0.923988
Si Si3 0.320003 0.827002 0.010873
Si Si4 0.052834 0.101417 0.623588
Si Si5 0.399209 0.692493 0.711249
Si Si6 0.708916 0.497416 0.216814
Si Si7 0.001436 0.044897 0.203659
Si Si8 0.819256 0.672849 0.422830
O O1 0.911972 0.445384 0.597675
O O2 0.840452 0.584887 0.673152
O O3 0.964465 0.673393 0.671387
O O4 0.886962 0.941339 0.609916
O O5 0.499714 0.928951 0.920988
O O6 0.384205 0.827183 0.976026
O O7 0.250000 0.750000 0.983933
O O8 0.321635 0.609296 0.053505
O O9 0.317556 0.108757 0.034441
O O10 0.091456 0.883978 0.654442
O O11 0.112499 0.283330 0.606285
O O12 0.005381 0.226487 0.665218
O O13 0.331690 0.605284 0.735794
O O14 0.456405 0.583540 0.748695
O O15 0.421348 0.987236 0.715623
O O16 0.750000 0.250000 0.199378
O O17 0.750000 0.750000 0.229926
O O18 0.750000 0.750000 0.394954
#
# Coordination Sequence:
#
# PCOD9431449 Si02
#       8
#     8   8   8   8   8   8   8   8
#     4  10  22  39  63  92 130 160 208 264 325 384
#     4  11  22  39  67 101 123 161 213 271 331 393
#     4  10  23  44  66  89 127 169 211 255 332 408
#     4  11  24  38  65  96 128 162 221 274 319 382
#     4  11  22  39  66  87 130 175 215 266 325 385
#     4  11  26  42  59  90 133 176 219 268 319 384
#     4  10  21  38  63  91 123 168 212 257 324 376
#     4  10  24  45  65  91 128 173 211 261 323 392
#
# _framework density 22.588349000000001
#
# number of rings (size 3 to 8) (size 9 to 14) (size 15 to 20)
#    0.000    1.500    2.500    1.500    3.500    3.000 
#    0.000    0.000    0.000    0.000    0.000    0.000 
#    0.000    0.000    0.000    0.000    0.000    0.000 
#
# Total GULP energy -356825.073860 kJ/mol
# GULP energy per Si atom -5575.391779 kJ/mol
# Density = 2.253694 g / cm^3
# Si number density = 22.588349 Si / 1000 Ang^3
#
#
#
# Elastic Constant Matrix: (Units=GPa)
#
#
# Indices 1 2 3 4 5 6 
#
# 1 92.5594 14.8584 21.1537 0.0000 0.0000 0.0000
# 2 14.8584 94.6755 10.3800 0.0000 0.0000 0.0000
# 3 21.1537 10.3800 33.6906 0.0000 0.0000 0.0000
# 4 0.0000 0.0000 0.0000 24.1893 0.0000 0.0000
# 5 0.0000 0.0000 0.0000 0.0000 -22.1619 0.0000
# 6 0.0000 0.0000 0.0000 0.0000 0.0000 35.4334
#
#
#
# Elastic Compliance Matrix: (Units=1/GPa)
#
#
# Indices 1 2 3 4 5 6 
#
# 1 0.012736 -0.001161 -0.007639 0.000000 0.000000 0.000000
# 2 -0.001161 0.011038 -0.002671 0.000000 0.000000 0.000000
# 3 -0.007639 -0.002671 0.035301 0.000000 0.000000 0.000000
# 4 0.000000 0.000000 0.000000 0.041341 0.000000 0.000000
# 5 0.000000 0.000000 0.000000 0.000000 -0.045122 0.000000
# 6 0.000000 0.000000 0.000000 0.000000 0.000000 0.028222
#
#
# Mechanical properties :
#
#
# Convention : Reuss Voigt Hill
#
# Bulk Modulus (GPa) = 27.67671 34.85662 31.26666
# Shear Modulus (GPa) = 42.19322 19.12771 30.66047
#
# Velocity S-wave (km/s) = 4.32663 2.91313 3.68823
# Velocity P-wave (km/s) = 6.10237 5.17493 5.65768
#
# Compressibility (1/GPa) = 0.03613147
#
# Stress axis : x y z
#
# Youngs Moduli (GPa) = 78.51679 90.59992 28.32756
#
# Poissons Ratio (x) = 0.10521 0.21639
# Poissons Ratio (y) = 0.09118 0.07568
# Poissons Ratio (z) = 0.59979 0.24203
#
# Static dielectric constant tensor:
#      x y z
#    x 1.946200 0.000000 0.000000 
#    y 0.000000 1.759770 0.000000 
#    z 0.000000 0.000000 1.870430 
# 
# From -- ./inp_files/22593.got.cif
#   From: 2010.05.17/outbox.cif.g08.bks.cpg/sg56_12_cif.got.tgz:22593.got - 2010.06.03 13:42:01.
