data_PCOD9431277
_publ_section_title
;
Structure prediction by ZEFSAII (Michael W. Deem and Ramdas Pophale) SiO2 
 PCOD9431277
Probable space group: P C C N
;
_chemical_formula_sum "Si O2"
_cell_formula_units_Z 64
_cell_length_a 18.781751
_cell_length_b 13.705881
_cell_length_c 12.046674
_cell_angle_alpha 90.000000
_cell_angle_beta 90.000000
_cell_angle_gamma 90.000000
_cell_volume 3101.060172
_symmetry_space_group_name_H-M "P C C N"
_symmetry_group_IT_number 56
_symmetry_cell_setting 'orthorhombic'
loop_
_space_group_symop_operation_xyz
x,y,z
1/2-x,1/2-y,z
1/2+x,-y,1/2-z
-x,1/2+y,1/2-z
-x,-y,-z
1/2+x,1/2+y,-z
1/2-x,y,1/2+z
x,1/2-y,1/2+z
loop_
_atom_site_type_symbol
_atom_site_label
_atom_site_fract_x
_atom_site_fract_y
_atom_site_fract_z
Si Si1 0.043089 0.916314 0.934392
Si Si2 0.096587 0.235759 0.655412
Si Si3 0.959463 0.603550 0.201159
Si Si4 0.310211 0.444685 0.629844
Si Si5 0.856802 0.453235 0.088539
Si Si6 0.197057 0.341515 0.501451
Si Si7 0.804572 0.022247 0.144619
Si Si8 0.968146 0.304986 0.015221
O O1 0.008684 0.912662 0.810024
O O2 0.127227 0.935353 0.918384
O O3 0.036758 0.811865 0.995665
O O4 0.000000 0.000000 0.000000
O O5 0.154129 0.153552 0.672282
O O6 0.124178 0.300874 0.551339
O O7 0.087608 0.303881 0.760998
O O8 0.024547 0.184274 0.615938
O O9 0.907514 0.513372 0.172708
O O10 0.003329 0.637494 0.092742
O O11 0.350780 0.478040 0.519855
O O12 0.231045 0.413784 0.594153
O O13 0.315194 0.524991 0.723829
O O14 0.895254 0.353960 0.054419
O O15 0.774653 0.438316 0.122173
O O16 0.250000 0.250000 0.486274
O O17 0.195664 0.409051 0.394536
#
# Coordination Sequence:
#
# PCOD9431277 Si02
#       8
#     8   8   8   8   8   8   8   8
#     4  11  27  45  67 100 135 169 229 284 338 405
#     4  10  21  35  60  94 129 167 219 271 330 403
#     4  11  23  41  69  97 132 179 219 277 346 395
#     4  10  21  36  63  96 128 169 218 275 332 412
#     4  11  24  43  66  94 134 176 230 274 332 411
#     4   9  20  37  55  92 134 163 212 264 340 407
#     4  11  23  39  65  91 130 176 214 278 340 382
#     4  11  24  42  64  95 128 181 227 274 331 408
#
# _framework density 20.638102
#
# number of rings (size 3 to 8) (size 9 to 14) (size 15 to 20)
#    0.000    1.500    1.250    3.375    5.250    4.000 
#    0.000    0.000    0.000    6.000    0.000    0.000 
#    0.000    0.000    0.000    0.000    0.000    0.000 
#
# Total GULP energy -357242.057341 kJ/mol
# GULP energy per Si atom -5581.907146 kJ/mol
# Density = 2.059113 g / cm^3
# Si number density = 20.638102 Si / 1000 Ang^3
#
#
#
# Elastic Constant Matrix: (Units=GPa)
#
#
# Indices 1 2 3 4 5 6 
#
# 1 112.9069 44.0360 21.6378 0.0000 0.0000 0.0000
# 2 44.0360 64.9712 15.1544 0.0000 0.0000 0.0000
# 3 21.6378 15.1544 50.1356 0.0000 0.0000 0.0000
# 4 0.0000 0.0000 0.0000 24.6735 0.0000 0.0000
# 5 0.0000 0.0000 0.0000 0.0000 18.3907 0.0000
# 6 0.0000 0.0000 0.0000 0.0000 0.0000 28.2514
#
#
#
# Elastic Compliance Matrix: (Units=1/GPa)
#
#
# Indices 1 2 3 4 5 6 
#
# 1 0.012455 -0.007733 -0.003038 0.000000 0.000000 0.000000
# 2 -0.007733 0.021360 -0.003119 0.000000 0.000000 0.000000
# 3 -0.003038 -0.003119 0.022200 0.000000 0.000000 0.000000
# 4 0.000000 0.000000 0.000000 0.040529 0.000000 0.000000
# 5 0.000000 0.000000 0.000000 0.000000 0.054375 0.000000
# 6 0.000000 0.000000 0.000000 0.000000 0.000000 0.035396
#
#
# Mechanical properties :
#
#
# Convention : Reuss Voigt Hill
#
# Bulk Modulus (GPa) = 35.41712 43.29668 39.35690
# Shear Modulus (GPa) = 22.37054 24.07551 23.22303
#
# Velocity S-wave (km/s) = 3.29590 3.41919 3.35811
# Velocity P-wave (km/s) = 5.62870 6.05082 5.84357
#
# Compressibility (1/GPa) = 0.02823493
#
# Stress axis : x y z
#
# Youngs Moduli (GPa) = 80.28787 46.81574 45.04544
#
# Poissons Ratio (x) = 0.36204 0.13685
# Poissons Ratio (y) = 0.62088 0.14050
# Poissons Ratio (z) = 0.24391 0.14602
#
# Static dielectric constant tensor:
#      x y z
#    x 1.756420 0.000000 0.000000 
#    y 0.000000 1.753190 0.000000 
#    z 0.000000 0.000000 1.772580 
# 
# From -- ./inp_files/8420.got.cif
#   From: 2010.05.17/outbox.cif.g08.bks.cpg/sg56_5_cif.got.tgz:8420.got - 2010.06.03 13:42:01.
