data_PCOD9431796
_publ_section_title
;
Structure prediction by ZEFSAII (Michael W. Deem and Ramdas Pophale) SiO2 
 PCOD9431796
Probable space group: P C C N
;
_chemical_formula_sum "Si O2"
_cell_formula_units_Z 60
_cell_length_a 27.953592
_cell_length_b 5.297618
_cell_length_c 16.993576
_cell_angle_alpha 90.000000
_cell_angle_beta 90.000000
_cell_angle_gamma 90.000000
_cell_volume 2516.535373
_symmetry_space_group_name_H-M "P C C N"
_symmetry_group_IT_number 56
_symmetry_cell_setting 'orthorhombic'
loop_
_space_group_symop_operation_xyz
x,y,z
1/2-x,1/2-y,z
1/2+x,-y,1/2-z
-x,1/2+y,1/2-z
-x,-y,-z
1/2+x,1/2+y,-z
1/2-x,y,1/2+z
x,1/2-y,1/2+z
loop_
_atom_site_type_symbol
_atom_site_label
_atom_site_fract_x
_atom_site_fract_y
_atom_site_fract_z
Si Si1 0.106209 0.484687 0.299791
Si Si2 0.250000 0.750000 0.348007
Si Si3 0.382923 0.099755 0.474637
Si Si4 0.026194 0.405303 0.578397
Si Si5 0.164897 0.984402 0.253542
Si Si6 0.452804 0.917184 0.155572
Si Si7 0.207945 0.437751 0.996392
Si Si8 0.149880 0.744090 0.093240
O O1 0.093533 0.439904 0.390409
O O2 0.132051 0.755827 0.289570
O O3 0.060366 0.495120 0.243194
O O4 0.142952 0.257346 0.276764
O O5 0.217073 0.903290 0.282987
O O6 0.273205 0.575864 0.418972
O O7 0.420883 0.140388 0.543205
O O8 0.341403 0.302456 0.471567
O O9 0.357203 0.848768 0.505133
O O10 0.027422 0.636466 0.639879
O O11 0.000000 0.500000 0.500000
O O12 0.014581 0.132711 0.615200
O O13 0.159512 0.950944 0.159604
O O14 0.399067 0.892992 0.118358
O O15 0.250000 0.250000 0.016316
O O16 0.195472 0.574421 0.078255
#
# Coordination Sequence:
#
# PCOD9431796 Si02
#       8
#     8   4   8   8   8   8   8   8
#     4  11  22  42  66  96 128 177 222 275 341 415
#     4  12  26  42  56  94 134 182 230 294 346 406
#     4  11  23  41  68  95 132 183 224 283 353 417
#     4  11  23  43  70 102 137 177 227 283 349 425
#     4  11  25  41  65  90 132 175 225 279 341 404
#     4  10  21  42  67  98 135 174 224 279 342 416
#     4  12  23  40  63  92 134 174 238 287 342 413
#     4  10  23  42  64  96 128 176 232 277 347 408
#
# _framework density 23.842305
#
# number of rings (size 3 to 8) (size 9 to 14) (size 15 to 20)
#    0.000    1.067    2.667    5.200    1.867    1.600 
#    0.000    1.333    0.000    0.000    0.000    0.000 
#    0.000    0.000    0.000    0.000    0.000    0.000 
#
# Total GULP energy -334151.596711 kJ/mol
# GULP energy per Si atom -5569.193279 kJ/mol
# Density = 2.378804 g / cm^3
# Si number density = 23.842305 Si / 1000 Ang^3
#
#
#
# Elastic Constant Matrix: (Units=GPa)
#
#
# Indices 1 2 3 4 5 6 
#
# 1 49.7989 26.0815 8.5665 0.0000 0.0000 0.0000
# 2 26.0815 96.0755 38.4008 0.0000 0.0000 0.0000
# 3 8.5665 38.4008 119.9811 0.0000 0.0000 0.0000
# 4 0.0000 0.0000 0.0000 18.9571 0.0000 0.0000
# 5 0.0000 0.0000 0.0000 0.0000 0.2451 0.0000
# 6 0.0000 0.0000 0.0000 0.0000 0.0000 24.0760
#
#
#
# Elastic Compliance Matrix: (Units=1/GPa)
#
#
# Indices 1 2 3 4 5 6 
#
# 1 0.023427 -0.006526 0.000416 0.000000 0.000000 0.000000
# 2 -0.006526 0.013753 -0.003936 0.000000 0.000000 0.000000
# 3 0.000416 -0.003936 0.009565 0.000000 0.000000 0.000000
# 4 0.000000 0.000000 0.000000 0.052751 0.000000 0.000000
# 5 0.000000 0.000000 0.000000 0.000000 4.079266 0.000000
# 6 0.000000 0.000000 0.000000 0.000000 0.000000 0.041535
#
#
# Mechanical properties :
#
#
# Convention : Reuss Voigt Hill
#
# Bulk Modulus (GPa) = 37.51884 45.77260 41.64572
# Shear Modulus (GPa) = 1.17667 21.50942 11.34305
#
# Velocity S-wave (km/s) = 0.70327 3.00685 2.18354
# Velocity P-wave (km/s) = 4.05338 5.59415 4.88490
#
# Compressibility (1/GPa) = 0.02665327
#
# Stress axis : x y z
#
# Youngs Moduli (GPa) = 42.68555 72.71019 104.55173
#
# Poissons Ratio (x) = 0.47451 -0.04350
# Poissons Ratio (y) = 0.27857 0.41150
# Poissons Ratio (z) = -0.01776 0.28618
#
# Static dielectric constant tensor:
#      x y z
#    x 1.928240 0.000000 0.000000 
#    y 0.000000 2.004910 0.000000 
#    z 0.000000 0.000000 1.904240 
# 
# From -- ./inp_files/17112.got.cif
#   From: 2010.05.17/outbox.cif.g08.bks.cpg/sg56_9_cif.got.tgz:17112.got - 2010.06.03 13:42:01.
