data_PCOD9431460
_publ_section_title
;
Structure prediction by ZEFSAII (Michael W. Deem and Ramdas Pophale) SiO2 
 PCOD9431460
Probable space group: P C C N
;
_chemical_formula_sum "Si O2"
_cell_formula_units_Z 48
_cell_length_a 30.513534
_cell_length_b 8.104216
_cell_length_c 9.722540
_cell_angle_alpha 90.000000
_cell_angle_beta 90.000000
_cell_angle_gamma 90.000000
_cell_volume 2404.270101
_symmetry_space_group_name_H-M "P C C N"
_symmetry_group_IT_number 56
_symmetry_cell_setting 'orthorhombic'
loop_
_space_group_symop_operation_xyz
x,y,z
1/2-x,1/2-y,z
1/2+x,-y,1/2-z
-x,1/2+y,1/2-z
-x,-y,-z
1/2+x,1/2+y,-z
1/2-x,y,1/2+z
x,1/2-y,1/2+z
loop_
_atom_site_type_symbol
_atom_site_label
_atom_site_fract_x
_atom_site_fract_y
_atom_site_fract_z
Si Si1 0.724328 0.425037 0.675656
Si Si2 0.351610 0.361623 0.223210
Si Si3 0.463164 0.544258 0.610865
Si Si4 0.781564 0.610295 0.895129
Si Si5 0.507350 0.633433 0.115588
Si Si6 0.403799 0.285059 0.496727
O O1 0.750000 0.250000 0.677260
O O2 0.678775 0.474906 0.756628
O O3 0.714777 0.477680 0.517580
O O4 0.758152 0.538553 0.760386
O O5 0.369497 0.314754 0.373920
O O6 0.322999 0.210271 0.161141
O O7 0.389837 0.354176 0.108370
O O8 0.500000 0.500000 0.500000
O O9 0.481690 0.459598 0.746009
O O10 0.466699 0.740659 0.627128
O O11 0.417502 0.457010 0.571260
O O12 0.750000 0.750000 0.958002
O O13 0.551508 0.729267 0.075676
O O14 0.500000 0.500000 0.000000
#
# Coordination Sequence:
#
# PCOD9431460 Si02
#       6
#     8   8   8   8   8   8
#     4  11  23  40  64  94 129 165 216 269 323 396
#     4  11  22  41  67  94 129 175 216 271 334 403
#     4  10  21  38  64  93 133 176 228 268 331 403
#     4  10  21  39  65  90 119 170 216 255 327 409
#     4  11  23  41  65  96 131 182 228 274 329 400
#     4  11  22  41  66  97 133 170 223 276 339 394
#
# _framework density 19.964476999999999
#
# number of rings (size 3 to 8) (size 9 to 14) (size 15 to 20)
#    0.000    1.333    3.333    4.000    4.667    0.000 
#    0.000    3.333    0.000    0.000    0.000    0.000 
#    0.000    0.000    0.000    0.000    0.000    0.000 
#
# Total GULP energy -267277.375355 kJ/mol
# GULP energy per Si atom -5568.278653 kJ/mol
# Density = 1.991904 g / cm^3
# Si number density = 19.964477 Si / 1000 Ang^3
#
#
#
# Elastic Constant Matrix: (Units=GPa)
#
#
# Indices 1 2 3 4 5 6 
#
# 1 59.2786 31.8783 32.1684 0.0000 0.0000 0.0000
# 2 31.8783 110.1943 40.7837 0.0000 0.0000 0.0000
# 3 32.1684 40.7837 136.7782 0.0000 0.0000 0.0000
# 4 0.0000 0.0000 0.0000 27.2773 0.0000 0.0000
# 5 0.0000 0.0000 0.0000 0.0000 18.9966 0.0000
# 6 0.0000 0.0000 0.0000 0.0000 0.0000 32.5774
#
#
#
# Elastic Compliance Matrix: (Units=1/GPa)
#
#
# Indices 1 2 3 4 5 6 
#
# 1 0.021438 -0.004874 -0.003589 0.000000 0.000000 0.000000
# 2 -0.004874 0.011309 -0.002226 0.000000 0.000000 0.000000
# 3 -0.003589 -0.002226 0.008819 0.000000 0.000000 0.000000
# 4 0.000000 0.000000 0.000000 0.036660 0.000000 0.000000
# 5 0.000000 0.000000 0.000000 0.000000 0.052641 0.000000
# 6 0.000000 0.000000 0.000000 0.000000 0.000000 0.030696
#
#
# Mechanical properties :
#
#
# Convention : Reuss Voigt Hill
#
# Bulk Modulus (GPa) = 49.53164 57.32355 53.42760
# Shear Modulus (GPa) = 26.36180 29.19832 27.78006
#
# Velocity S-wave (km/s) = 3.63772 3.82843 3.73429
# Velocity P-wave (km/s) = 6.51980 6.95109 6.73889
#
# Compressibility (1/GPa) = 0.02018912
#
# Stress axis : x y z
#
# Youngs Moduli (GPa) = 46.64657 88.42899 113.39447
#
# Poissons Ratio (x) = 0.43096 0.40694
# Poissons Ratio (y) = 0.22733 0.25238
# Poissons Ratio (z) = 0.16740 0.19682
#
# Static dielectric constant tensor:
#      x y z
#    x 1.798530 0.000000 0.000000 
#    y 0.000000 1.732340 0.000000 
#    z 0.000000 0.000000 1.706880 
# 
# From -- ./inp_files/5132.got.cif
#   From: 2010.05.17/outbox.cif.g08.bks.cpg/sg56_3_cif.got.tgz:5132.got - 2010.06.03 13:42:01.
