data_PCOD9431328
_publ_section_title
;
Structure prediction by ZEFSAII (Michael W. Deem and Ramdas Pophale) SiO2 
 PCOD9431328
Probable space group: P C C N
;
_chemical_formula_sum "Si O2"
_cell_formula_units_Z 60
_cell_length_a 18.550262
_cell_length_b 5.431783
_cell_length_c 27.449438
_cell_angle_alpha 90.000000
_cell_angle_beta 90.000000
_cell_angle_gamma 90.000000
_cell_volume 2765.832761
_symmetry_space_group_name_H-M "P C C N"
_symmetry_group_IT_number 56
_symmetry_cell_setting 'orthorhombic'
loop_
_space_group_symop_operation_xyz
x,y,z
1/2-x,1/2-y,z
1/2+x,-y,1/2-z
-x,1/2+y,1/2-z
-x,-y,-z
1/2+x,1/2+y,-z
1/2-x,y,1/2+z
x,1/2-y,1/2+z
loop_
_atom_site_type_symbol
_atom_site_label
_atom_site_fract_x
_atom_site_fract_y
_atom_site_fract_z
Si Si1 0.891228 0.360100 0.029130
Si Si2 0.662520 0.761288 0.690366
Si Si3 0.165178 0.651208 0.564655
Si Si4 0.958930 0.888419 0.264513
Si Si5 0.896673 0.531026 0.868731
Si Si6 0.836175 0.237958 0.636469
Si Si7 0.545845 0.738433 0.964221
Si Si8 0.750000 0.750000 0.890433
O O1 0.858098 0.335433 0.082000
O O2 0.962028 0.185814 0.029807
O O3 0.835890 0.300360 0.985904
O O4 0.924567 0.620139 0.011737
O O5 0.750000 0.750000 0.696946
O O6 0.617145 0.828918 0.738134
O O7 0.640192 0.490733 0.670706
O O8 0.642244 0.986596 0.653481
O O9 0.140684 0.778161 0.614886
O O10 0.099808 0.469102 0.552122
O O11 0.234711 0.486611 0.575885
O O12 0.005185 0.636210 0.258239
O O13 0.943133 0.951667 0.320673
O O14 0.945161 0.585185 0.916514
O O15 0.825443 0.704696 0.863567
O O16 0.750000 0.250000 0.638758
#
# Coordination Sequence:
#
# PCOD9431328 Si02
#       8
#     8   8   8   8   8   8   8   4
#     4  10  21  36  63  93 131 183 222 277 339 412
#     4  10  24  48  69 100 140 182 231 288 350 423
#     4  10  21  40  62  97 133 174 229 280 336 419
#     4  12  29  47  74 110 137 180 238 299 360 421
#     4  10  24  42  66  95 134 178 228 290 361 417
#     4  10  23  42  67  97 131 179 230 280 340 403
#     4   9  21  38  59  94 131 174 226 271 349 416
#     4  10  22  42  66  94 136 178 228 286 348 424
#
# _framework density 21.693286000000001
#
# number of rings (size 3 to 8) (size 9 to 14) (size 15 to 20)
#    0.000    1.867    0.000    1.600   10.267    3.200 
#    1.200    1.333    0.000    0.000    0.000    0.000 
#    0.000    0.000    0.000    0.000    0.000    0.000 
#
# Total GULP energy -334516.825378 kJ/mol
# GULP energy per Si atom -5575.280423 kJ/mol
# Density = 2.164391 g / cm^3
# Si number density = 21.693286 Si / 1000 Ang^3
#
#
#
# Elastic Constant Matrix: (Units=GPa)
#
#
# Indices 1 2 3 4 5 6 
#
# 1 70.5082 28.3371 37.3227 0.0000 0.0000 0.0000
# 2 28.3371 84.4865 35.3733 0.0000 0.0000 0.0000
# 3 37.3227 35.3733 102.1381 0.0000 0.0000 0.0000
# 4 0.0000 0.0000 0.0000 18.0861 0.0000 0.0000
# 5 0.0000 0.0000 0.0000 0.0000 36.8476 0.0000
# 6 0.0000 0.0000 0.0000 0.0000 0.0000 33.7433
#
#
#
# Elastic Compliance Matrix: (Units=1/GPa)
#
#
# Indices 1 2 3 4 5 6 
#
# 1 0.018663 -0.003982 -0.005441 0.000000 0.000000 0.000000
# 2 -0.003982 0.014693 -0.003634 0.000000 0.000000 0.000000
# 3 -0.005441 -0.003634 0.013037 0.000000 0.000000 0.000000
# 4 0.000000 0.000000 0.000000 0.055291 0.000000 0.000000
# 5 0.000000 0.000000 0.000000 0.000000 0.027139 0.000000
# 6 0.000000 0.000000 0.000000 0.000000 0.000000 0.029635
#
#
# Mechanical properties :
#
#
# Convention : Reuss Voigt Hill
#
# Bulk Modulus (GPa) = 49.30701 51.02211 50.16456
# Shear Modulus (GPa) = 26.13272 28.14206 27.13739
#
# Velocity S-wave (km/s) = 3.47457 3.60567 3.54073
# Velocity P-wave (km/s) = 6.23501 6.39573 6.31588
#
# Compressibility (1/GPa) = 0.02028109
#
# Stress axis : x y z
#
# Youngs Moduli (GPa) = 53.58209 68.05946 76.70348
#
# Poissons Ratio (x) = 0.27099 0.41732
# Poissons Ratio (y) = 0.21335 0.27871
# Poissons Ratio (z) = 0.29153 0.24730
#
# Static dielectric constant tensor:
#      x y z
#    x 1.850910 0.000000 0.000000 
#    y 0.000000 1.946380 0.000000 
#    z 0.000000 0.000000 1.757840 
# 
# From -- ./inp_files/22545.got.cif
#   From: 2010.05.17/outbox.cif.g08.bks.cpg/sg56_12_cif.got.tgz:22545.got - 2010.06.03 13:42:01.
