data_PCOD9431874
_publ_section_title
;
Structure prediction by ZEFSAII (Michael W. Deem and Ramdas Pophale) SiO2 
 PCOD9431874
Probable space group: P C C N
;
_chemical_formula_sum "Si O2"
_cell_formula_units_Z 64
_cell_length_a 11.409704
_cell_length_b 16.460132
_cell_length_c 14.176421
_cell_angle_alpha 90.000000
_cell_angle_beta 90.000000
_cell_angle_gamma 90.000000
_cell_volume 2662.406062
_symmetry_space_group_name_H-M "P C C N"
_symmetry_group_IT_number 56
_symmetry_cell_setting 'orthorhombic'
loop_
_space_group_symop_operation_xyz
x,y,z
1/2-x,1/2-y,z
1/2+x,-y,1/2-z
-x,1/2+y,1/2-z
-x,-y,-z
1/2+x,1/2+y,-z
1/2-x,y,1/2+z
x,1/2-y,1/2+z
loop_
_atom_site_type_symbol
_atom_site_label
_atom_site_fract_x
_atom_site_fract_y
_atom_site_fract_z
Si Si1 0.399076 0.516495 0.075258
Si Si2 0.641631 0.556571 0.728782
Si Si3 0.588063 0.351029 0.293217
Si Si4 0.086451 0.580176 0.903041
Si Si5 0.340194 0.183372 0.264861
Si Si6 0.349308 0.992273 0.096211
Si Si7 0.952887 0.195408 0.910404
Si Si8 0.524959 0.252946 0.122264
O O1 0.421963 0.482269 0.179825
O O2 0.273042 0.475531 0.056187
O O3 0.379122 0.613354 0.077410
O O4 0.500000 0.500000 0.000000
O O5 0.545489 0.618432 0.686478
O O6 0.660466 0.484890 0.654688
O O7 0.759535 0.604839 0.753777
O O8 0.665149 0.429542 0.317221
O O9 0.607637 0.271203 0.357288
O O10 0.585111 0.321854 0.185450
O O11 0.950708 0.556365 0.882898
O O12 0.104758 0.672463 0.875699
O O13 0.102360 0.565268 0.013011
O O14 0.250000 0.250000 0.303624
O O15 0.440252 0.168920 0.342291
O O16 0.405632 0.226368 0.176313
O O17 0.992994 0.221954 0.014582
#
# Coordination Sequence:
#
# PCOD9431874 Si02
#       8
#     8   8   8   8   8   8   8   8
#     4  12  28  45  68 104 147 192 234 306 364 430
#     4  11  22  45  67 106 145 179 247 295 366 441
#     4  10  21  44  69  95 139 180 230 298 350 433
#     4  10  22  43  77 101 133 191 242 291 364 429
#     4  11  23  40  69 105 142 194 235 307 372 421
#     4  10  23  46  70  99 139 186 239 295 357 434
#     4  11  24  44  68 102 149 182 249 296 362 443
#     4  11  21  42  70 104 143 188 241 301 365 439
#
# _framework density 24.038408
#
# number of rings (size 3 to 8) (size 9 to 14) (size 15 to 20)
#    0.000    1.250    3.750    3.000    1.750    2.000 
#    2.250    0.000    2.750    0.000    0.000    0.000 
#    0.000    0.000    0.000    0.000    0.000    0.000 
#
# Total GULP energy -357881.951786 kJ/mol
# GULP energy per Si atom -5591.905497 kJ/mol
# Density = 2.398370 g / cm^3
# Si number density = 24.038408 Si / 1000 Ang^3
#
#
#
# Elastic Constant Matrix: (Units=GPa)
#
#
# Indices 1 2 3 4 5 6 
#
# 1 78.7752 2.0997 23.2801 0.0000 0.0000 0.0000
# 2 2.0997 92.8326 23.2630 0.0000 0.0000 0.0000
# 3 23.2801 23.2630 121.3198 0.0000 0.0000 0.0000
# 4 0.0000 0.0000 0.0000 38.0864 0.0000 0.0000
# 5 0.0000 0.0000 0.0000 0.0000 33.6975 0.0000
# 6 0.0000 0.0000 0.0000 0.0000 0.0000 29.0849
#
#
#
# Elastic Compliance Matrix: (Units=1/GPa)
#
#
# Indices 1 2 3 4 5 6 
#
# 1 0.013469 0.000360 -0.002654 0.000000 0.000000 0.000000
# 2 0.000360 0.011325 -0.002241 0.000000 0.000000 0.000000
# 3 -0.002654 -0.002241 0.009182 0.000000 0.000000 0.000000
# 4 0.000000 0.000000 0.000000 0.026256 0.000000 0.000000
# 5 0.000000 0.000000 0.000000 0.000000 0.029676 0.000000
# 6 0.000000 0.000000 0.000000 0.000000 0.000000 0.034382
#
#
# Mechanical properties :
#
#
# Convention : Reuss Voigt Hill
#
# Bulk Modulus (GPa) = 40.14814 43.35702 41.75258
# Shear Modulus (GPa) = 35.29559 36.45942 35.87751
#
# Velocity S-wave (km/s) = 3.83600 3.89873 3.86749
# Velocity P-wave (km/s) = 6.02974 6.19213 6.11147
#
# Compressibility (1/GPa) = 0.02490776
#
# Stress axis : x y z
#
# Youngs Moduli (GPa) = 74.24467 88.29676 108.91393
#
# Poissons Ratio (x) = -0.03182 0.28902
# Poissons Ratio (y) = -0.02675 0.24405
# Poissons Ratio (z) = 0.19702 0.19785
#
# Static dielectric constant tensor:
#      x y z
#    x 1.932540 0.000000 0.000000 
#    y 0.000000 1.936030 0.000000 
#    z 0.000000 0.000000 1.925610 
# 
# From -- ./inp_files/11847.got.cif
#   From: 2010.05.17/outbox.cif.g08.bks.cpg/sg56_6_cif.got.tgz:11847.got - 2010.06.03 13:42:01.
