data_PCOD9431672
_publ_section_title
;
Structure prediction by ZEFSAII (Michael W. Deem and Ramdas Pophale) SiO2 
 PCOD9431672
Probable space group: P C C N
;
_chemical_formula_sum "Si O2"
_cell_formula_units_Z 48
_cell_length_a 29.113857
_cell_length_b 8.271092
_cell_length_c 8.813948
_cell_angle_alpha 90.000000
_cell_angle_beta 90.000000
_cell_angle_gamma 90.000000
_cell_volume 2122.428555
_symmetry_space_group_name_H-M "P C C N"
_symmetry_group_IT_number 56
_symmetry_cell_setting 'orthorhombic'
loop_
_space_group_symop_operation_xyz
x,y,z
1/2-x,1/2-y,z
1/2+x,-y,1/2-z
-x,1/2+y,1/2-z
-x,-y,-z
1/2+x,1/2+y,-z
1/2-x,y,1/2+z
x,1/2-y,1/2+z
loop_
_atom_site_type_symbol
_atom_site_label
_atom_site_fract_x
_atom_site_fract_y
_atom_site_fract_z
Si Si1 0.914196 0.228436 0.089676
Si Si2 0.277124 0.080451 0.565304
Si Si3 0.484433 0.289739 0.454167
Si Si4 0.285481 0.878626 0.275999
Si Si5 0.142799 0.605059 0.694079
Si Si6 0.541019 0.523243 0.274196
O O1 0.890497 0.388213 0.159627
O O2 0.920871 0.106339 0.231422
O O3 0.885609 0.139979 0.958821
O O4 0.965704 0.260302 0.030584
O O5 0.250000 0.250000 0.560312
O O6 0.292849 0.017320 0.400394
O O7 0.239323 0.959521 0.634083
O O8 0.322340 0.045676 0.670499
O O9 0.495990 0.422076 0.325011
O O10 0.467643 0.130164 0.372923
O O11 0.451324 0.360693 0.582416
O O12 0.250000 0.750000 0.346666
O O13 0.326703 0.765750 0.223674
#
# Coordination Sequence:
#
# PCOD9431672 Si02
#       6
#     8   8   8   8   8   8
#     4  12  22  42  69 103 137 182 241 294 352 416
#     4  11  23  41  69 100 133 172 222 288 348 414
#     4  11  23  41  69 102 136 193 248 292 356 425
#     4  10  21  40  68  98 126 180 229 265 334 448
#     4  11  23  41  70  96 134 183 237 283 351 436
#     4  11  23  41  69  99 140 189 247 293 349 437
#
# _framework density 22.615604000000001
#
# number of rings (size 3 to 8) (size 9 to 14) (size 15 to 20)
#    0.000    1.000    5.000    2.500    2.333    0.000 
#    0.000    1.667    3.667    0.000    0.000    0.000 
#    0.000    0.000    0.000    0.000    0.000    0.000 
#
# Total GULP energy -268017.255529 kJ/mol
# GULP energy per Si atom -5583.692824 kJ/mol
# Density = 2.256413 g / cm^3
# Si number density = 22.615604 Si / 1000 Ang^3
#
#
#
# Elastic Constant Matrix: (Units=GPa)
#
#
# Indices 1 2 3 4 5 6 
#
# 1 63.8231 32.3124 18.1190 0.0000 0.0000 0.0000
# 2 32.3124 105.1129 30.0643 0.0000 0.0000 0.0000
# 3 18.1190 30.0643 63.2673 0.0000 0.0000 0.0000
# 4 0.0000 0.0000 0.0000 51.9204 0.0000 0.0000
# 5 0.0000 0.0000 0.0000 0.0000 29.8016 0.0000
# 6 0.0000 0.0000 0.0000 0.0000 0.0000 38.1921
#
#
#
# Elastic Compliance Matrix: (Units=1/GPa)
#
#
# Indices 1 2 3 4 5 6 
#
# 1 0.019066 -0.004976 -0.003096 0.000000 0.000000 0.000000
# 2 -0.004976 0.012308 -0.004424 0.000000 0.000000 0.000000
# 3 -0.003096 -0.004424 0.018795 0.000000 0.000000 0.000000
# 4 0.000000 0.000000 0.000000 0.019260 0.000000 0.000000
# 5 0.000000 0.000000 0.000000 0.000000 0.033555 0.000000
# 6 0.000000 0.000000 0.000000 0.000000 0.000000 0.026183
#
#
# Mechanical properties :
#
#
# Convention : Reuss Voigt Hill
#
# Bulk Modulus (GPa) = 39.71637 43.68827 41.70232
# Shear Modulus (GPa) = 30.75930 34.09665 32.42797
#
# Velocity S-wave (km/s) = 3.69194 3.88707 3.79076
# Velocity P-wave (km/s) = 5.98110 6.28534 6.13510
#
# Compressibility (1/GPa) = 0.02517854
#
# Stress axis : x y z
#
# Youngs Moduli (GPa) = 52.44856 81.24499 53.20606
#
# Poissons Ratio (x) = 0.40424 0.16472
# Poissons Ratio (y) = 0.26096 0.23538
# Poissons Ratio (z) = 0.16238 0.35942
#
# Static dielectric constant tensor:
#      x y z
#    x 1.847140 0.000000 0.000000 
#    y 0.000000 1.890420 0.000000 
#    z 0.000000 0.000000 1.898420 
# 
# From -- ./inp_files/5144.got.cif
#   From: 2010.05.17/outbox.cif.g08.bks.cpg/sg56_3_cif.got.tgz:5144.got - 2010.06.03 13:42:01.
