data_PCOD9431588
_publ_section_title
;
Structure prediction by ZEFSAII (Michael W. Deem and Ramdas Pophale) SiO2 
 PCOD9431588
Probable space group: P C C N
;
_chemical_formula_sum "Si O2"
_cell_formula_units_Z 60
_cell_length_a 23.069648
_cell_length_b 8.247132
_cell_length_c 15.109801
_cell_angle_alpha 90.000000
_cell_angle_beta 90.000000
_cell_angle_gamma 90.000000
_cell_volume 2874.767050
_symmetry_space_group_name_H-M "P C C N"
_symmetry_group_IT_number 56
_symmetry_cell_setting 'orthorhombic'
loop_
_space_group_symop_operation_xyz
x,y,z
1/2-x,1/2-y,z
1/2+x,-y,1/2-z
-x,1/2+y,1/2-z
-x,-y,-z
1/2+x,1/2+y,-z
1/2-x,y,1/2+z
x,1/2-y,1/2+z
loop_
_atom_site_type_symbol
_atom_site_label
_atom_site_fract_x
_atom_site_fract_y
_atom_site_fract_z
Si Si1 0.117153 0.917928 0.894699
Si Si2 0.484309 0.793014 0.841213
Si Si3 0.279029 0.512555 0.009656
Si Si4 0.645746 0.460212 0.296690
Si Si5 0.974393 0.340082 0.852268
Si Si6 0.250000 0.750000 0.163804
Si Si7 0.166946 0.344047 0.033775
Si Si8 0.448322 0.192681 0.497717
O O1 0.080083 0.758734 0.872106
O O2 0.122973 0.008807 0.799826
O O3 0.079556 0.028471 0.961091
O O4 0.180600 0.902067 0.937145
O O5 0.491630 0.746345 0.739129
O O6 0.498846 0.980004 0.854660
O O7 0.528665 0.691212 0.902374
O O8 0.279157 0.619933 0.097676
O O9 0.211692 0.470562 0.989327
O O10 0.306816 0.335886 0.026315
O O11 0.594677 0.363614 0.347070
O O12 0.700664 0.343806 0.283488
O O13 0.662616 0.602800 0.363702
O O14 0.999083 0.244617 0.935209
O O15 0.102824 0.327580 0.994235
#
# Coordination Sequence:
#
# PCOD9431588 Si02
#       8
#     8   8   8   8   8   4   8   8
#     4  10  23  40  61  91 125 161 210 260 312 378
#     4  11  23  39  61  94 128 171 206 264 316 383
#     4   9  20  39  61  85 116 156 212 252 311 377
#     4  10  21  40  59  86 126 158 204 258 308 369
#     4  11  23  40  62  93 132 165 214 258 312 385
#     4  10  22  38  62  84 116 162 204 262 316 358
#     4   9  19  39  62  86 117 160 205 251 315 371
#     4  11  22  39  66  91 128 167 212 255 324 371
#
# _framework density 20.871255000000001
#
# number of rings (size 3 to 8) (size 9 to 14) (size 15 to 20)
#    0.000    1.867    1.333    2.400    1.867    1.600 
#    7.200   12.000    0.000    0.000    0.000    0.000 
#    0.000    0.000    0.000    0.000    0.000    0.000 
#
# Total GULP energy -334985.664693 kJ/mol
# GULP energy per Si atom -5583.094412 kJ/mol
# Density = 2.082375 g / cm^3
# Si number density = 20.871255 Si / 1000 Ang^3
#
#
#
# Elastic Constant Matrix: (Units=GPa)
#
#
# Indices 1 2 3 4 5 6 
#
# 1 85.3914 7.6884 17.5551 0.0000 0.0000 0.0000
# 2 7.6884 41.2602 -0.7275 0.0000 0.0000 0.0000
# 3 17.5551 -0.7275 43.6613 0.0000 0.0000 0.0000
# 4 0.0000 0.0000 0.0000 18.8599 0.0000 0.0000
# 5 0.0000 0.0000 0.0000 0.0000 29.4551 0.0000
# 6 0.0000 0.0000 0.0000 0.0000 0.0000 23.1853
#
#
#
# Elastic Compliance Matrix: (Units=1/GPa)
#
#
# Indices 1 2 3 4 5 6 
#
# 1 0.013023 -0.002520 -0.005278 0.000000 0.000000 0.000000
# 2 -0.002520 0.024731 0.001425 0.000000 0.000000 0.000000
# 3 -0.005278 0.001425 0.025050 0.000000 0.000000 0.000000
# 4 0.000000 0.000000 0.000000 0.053023 0.000000 0.000000
# 5 0.000000 0.000000 0.000000 0.000000 0.033950 0.000000
# 6 0.000000 0.000000 0.000000 0.000000 0.000000 0.043131
#
#
# Mechanical properties :
#
#
# Convention : Reuss Voigt Hill
#
# Bulk Modulus (GPa) = 19.97676 24.37164 22.17420
# Shear Modulus (GPa) = 22.48828 24.01984 23.25406
#
# Velocity S-wave (km/s) = 3.28605 3.39611 3.34154
# Velocity P-wave (km/s) = 4.89793 5.20390 5.05323
#
# Compressibility (1/GPa) = 0.05005816
#
# Stress axis : x y z
#
# Youngs Moduli (GPa) = 76.78871 40.43491 39.92090
#
# Poissons Ratio (x) = 0.10188 0.21071
# Poissons Ratio (y) = 0.19349 -0.05690
# Poissons Ratio (z) = 0.40530 -0.05763
#
# Static dielectric constant tensor:
#      x y z
#    x 1.803430 0.000000 0.000000 
#    y 0.000000 1.741740 0.000000 
#    z 0.000000 0.000000 1.714370 
# 
# From -- ./inp_files/13226.got.cif
#   From: 2010.05.17/outbox.cif.g08.bks.cpg/sg56_7_cif.got.tgz:13226.got - 2010.06.03 13:42:01.
