data_PCOD9431503
_publ_section_title
;
Structure prediction by ZEFSAII (Michael W. Deem and Ramdas Pophale) SiO2 
 PCOD9431503
Probable space group: P C C N
;
_chemical_formula_sum "Si O2"
_cell_formula_units_Z 60
_cell_length_a 6.425574
_cell_length_b 28.419650
_cell_length_c 16.730463
_cell_angle_alpha 90.000000
_cell_angle_beta 90.000000
_cell_angle_gamma 90.000000
_cell_volume 3055.192747
_symmetry_space_group_name_H-M "P C C N"
_symmetry_group_IT_number 56
_symmetry_cell_setting 'orthorhombic'
loop_
_space_group_symop_operation_xyz
x,y,z
1/2-x,1/2-y,z
1/2+x,-y,1/2-z
-x,1/2+y,1/2-z
-x,-y,-z
1/2+x,1/2+y,-z
1/2-x,y,1/2+z
x,1/2-y,1/2+z
loop_
_atom_site_type_symbol
_atom_site_label
_atom_site_fract_x
_atom_site_fract_y
_atom_site_fract_z
Si Si1 0.363248 0.200576 0.609912
Si Si2 0.750000 0.250000 0.665818
Si Si3 0.709261 0.963802 0.699290
Si Si4 0.123301 0.293363 0.269211
Si Si5 0.769973 0.605096 0.480864
Si Si6 0.917370 0.071414 0.409485
Si Si7 0.356281 0.484824 0.124391
Si Si8 0.029969 0.881707 0.140293
O O1 0.250000 0.250000 0.587459
O O2 0.608444 0.213464 0.615178
O O3 0.279586 0.189033 0.699444
O O4 0.296214 0.156777 0.556485
O O5 0.580885 0.275801 0.721547
O O6 0.758489 0.982353 0.786789
O O7 0.547076 0.920538 0.703886
O O8 0.913728 0.944880 0.655618
O O9 0.594361 0.000814 0.641444
O O10 0.250000 0.250000 0.307052
O O11 0.053234 0.332079 0.331131
O O12 0.542649 0.590890 0.514581
O O13 0.834642 0.564524 0.419357
O O14 0.920312 0.604472 0.557516
O O15 0.773926 0.112333 0.372806
O O16 0.766078 0.026372 0.422358
#
# Coordination Sequence:
#
# PCOD9431503 Si02
#       8
#     8   4   8   8   8   8   8   8
#     4   9  20  40  63  91 120 157 203 258 307 366
#     4   8  18  36  60  86 114 152 202 254 300 352
#     4  10  21  39  61  85 115 154 213 258 300 362
#     4   9  19  38  63  89 116 151 203 256 301 357
#     4  11  24  38  59  89 127 163 202 253 312 382
#     4  10  23  40  58  87 126 162 204 252 311 376
#     4  11  21  39  62  89 117 163 208 261 310 364
#     4  10  23  38  55  88 121 161 201 245 310 374
#
# _framework density 19.638694999999998
#
# number of rings (size 3 to 8) (size 9 to 14) (size 15 to 20)
#    0.000    2.400    1.333    1.200    0.000   13.867 
#    0.000    0.667    0.000    0.000    0.000    0.000 
#    0.000    0.000    0.000    0.000    0.000    0.000 
#
# Total GULP energy -334680.631024 kJ/mol
# GULP energy per Si atom -5578.010517 kJ/mol
# Density = 1.959400 g / cm^3
# Si number density = 19.638695 Si / 1000 Ang^3
#
#
#
# Elastic Constant Matrix: (Units=GPa)
#
#
# Indices 1 2 3 4 5 6 
#
# 1 112.6889 52.3939 39.4020 0.0000 0.0000 0.0000
# 2 52.3939 137.8632 57.4543 0.0000 0.0000 0.0000
# 3 39.4020 57.4543 55.1189 0.0000 0.0000 0.0000
# 4 0.0000 0.0000 0.0000 38.5631 0.0000 0.0000
# 5 0.0000 0.0000 0.0000 0.0000 16.4336 0.0000
# 6 0.0000 0.0000 0.0000 0.0000 0.0000 29.3137
#
#
#
# Elastic Compliance Matrix: (Units=1/GPa)
#
#
# Indices 1 2 3 4 5 6 
#
# 1 0.012066 -0.001752 -0.006799 0.000000 0.000000 0.000000
# 2 -0.001752 0.013079 -0.012381 0.000000 0.000000 0.000000
# 3 -0.006799 -0.012381 0.035908 0.000000 0.000000 0.000000
# 4 0.000000 0.000000 0.000000 0.025932 0.000000 0.000000
# 5 0.000000 0.000000 0.000000 0.000000 0.060851 0.000000
# 6 0.000000 0.000000 0.000000 0.000000 0.000000 0.034114
#
#
# Mechanical properties :
#
#
# Convention : Reuss Voigt Hill
#
# Bulk Modulus (GPa) = 52.11194 67.13015 59.62104
# Shear Modulus (GPa) = 21.71931 27.29012 24.50471
#
# Velocity S-wave (km/s) = 3.32918 3.73179 3.53622
# Velocity P-wave (km/s) = 6.43202 7.26809 6.86280
#
# Compressibility (1/GPa) = 0.01918946
#
# Stress axis : x y z
#
# Youngs Moduli (GPa) = 82.87809 76.45779 27.84869
#
# Poissons Ratio (x) = 0.13396 0.18935
# Poissons Ratio (y) = 0.14521 0.34479
# Poissons Ratio (z) = 0.56349 0.94661
#
# Static dielectric constant tensor:
#      x y z
#    x 1.733820 0.000000 0.000000 
#    y 0.000000 1.709510 0.000000 
#    z 0.000000 0.000000 1.681650 
# 
# From -- ./inp_files/14103.got.cif
#   From: 2010.05.17/outbox.cif.g08.bks.cpg/sg56_8_cif.got.tgz:14103.got - 2010.06.03 13:42:01.
