data_PCOD9431360
_publ_section_title
;
Structure prediction by ZEFSAII (Michael W. Deem and Ramdas Pophale) SiO2 
 PCOD9431360
Probable space group: P C C N
;
_chemical_formula_sum "Si O2"
_cell_formula_units_Z 64
_cell_length_a 6.003417
_cell_length_b 28.366170
_cell_length_c 18.056660
_cell_angle_alpha 90.000000
_cell_angle_beta 90.000000
_cell_angle_gamma 90.000000
_cell_volume 3074.939905
_symmetry_space_group_name_H-M "P C C N"
_symmetry_group_IT_number 56
_symmetry_cell_setting 'orthorhombic'
loop_
_space_group_symop_operation_xyz
x,y,z
1/2-x,1/2-y,z
1/2+x,-y,1/2-z
-x,1/2+y,1/2-z
-x,-y,-z
1/2+x,1/2+y,-z
1/2-x,y,1/2+z
x,1/2-y,1/2+z
loop_
_atom_site_type_symbol
_atom_site_label
_atom_site_fract_x
_atom_site_fract_y
_atom_site_fract_z
Si Si1 0.488512 0.479876 0.732569
Si Si2 0.237334 0.195617 0.687251
Si Si3 0.613057 0.011489 0.922482
Si Si4 0.285453 0.609330 0.054053
Si Si5 0.493963 0.142573 0.065981
Si Si6 0.480172 0.623654 0.204316
Si Si7 0.873770 0.127307 0.185399
Si Si8 0.405628 0.431181 0.074309
O O1 0.743603 0.494595 0.756575
O O2 0.510696 0.484866 0.643773
O O3 0.448530 0.428344 0.768474
O O4 0.250000 0.250000 0.707004
O O5 0.480544 0.173682 0.676525
O O6 0.118958 0.186790 0.607446
O O7 0.119188 0.163405 0.751006
O O8 0.638294 0.067039 0.911483
O O9 0.852046 0.985872 0.925747
O O10 0.500000 0.000000 0.000000
O O11 0.456159 0.627659 0.116104
O O12 0.126535 0.646258 0.011174
O O13 0.421028 0.583927 0.988011
O O14 0.669595 0.127529 0.128742
O O15 0.310977 0.101337 0.058617
O O16 0.226412 0.626568 0.233919
O O17 0.019440 0.083994 0.156591
#
# Coordination Sequence:
#
# PCOD9431360 Si02
#       8
#     8   8   8   8   8   8   8   8
#     4  12  29  46  66 102 148 194 247 303 366 441
#     4  10  22  42  72  99 124 171 233 298 359 441
#     4  12  24  37  60  90 129 187 243 285 340 421
#     4  11  23  38  59  90 131 181 218 288 352 425
#     4   9  19  39  61  93 120 160 219 280 353 411
#     4  11  25  40  64  97 134 185 227 294 370 429
#     4   9  20  39  66  88 124 161 222 284 342 417
#     4  10  21  37  60  87 124 172 232 276 329 411
#
# _framework density 20.813414999999999
#
# number of rings (size 3 to 8) (size 9 to 14) (size 15 to 20)
#    0.000    1.500    2.500    2.625    7.000    3.000 
#    0.000    0.000    0.000   18.000    0.000    0.000 
#    0.000    0.000    0.000    0.000    0.000    0.000 
#
# Total GULP energy -356774.798170 kJ/mol
# GULP energy per Si atom -5574.606221 kJ/mol
# Density = 2.076604 g / cm^3
# Si number density = 20.813415 Si / 1000 Ang^3
#
#
#
# Elastic Constant Matrix: (Units=GPa)
#
#
# Indices 1 2 3 4 5 6 
#
# 1 66.8859 25.2371 13.9778 0.0000 0.0000 0.0000
# 2 25.2371 97.3089 18.4501 0.0000 0.0000 0.0000
# 3 13.9778 18.4501 85.8472 0.0000 0.0000 0.0000
# 4 0.0000 0.0000 0.0000 20.0154 0.0000 0.0000
# 5 0.0000 0.0000 0.0000 0.0000 42.1659 0.0000
# 6 0.0000 0.0000 0.0000 0.0000 0.0000 12.1572
#
#
#
# Elastic Compliance Matrix: (Units=1/GPa)
#
#
# Indices 1 2 3 4 5 6 
#
# 1 0.016859 -0.004016 -0.001882 0.000000 0.000000 0.000000
# 2 -0.004016 0.011670 -0.001854 0.000000 0.000000 0.000000
# 3 -0.001882 -0.001854 0.012354 0.000000 0.000000 0.000000
# 4 0.000000 0.000000 0.000000 0.049961 0.000000 0.000000
# 5 0.000000 0.000000 0.000000 0.000000 0.023716 0.000000
# 6 0.000000 0.000000 0.000000 0.000000 0.000000 0.082256
#
#
# Mechanical properties :
#
#
# Convention : Reuss Voigt Hill
#
# Bulk Modulus (GPa) = 39.40305 40.59689 39.99997
# Shear Modulus (GPa) = 22.64709 27.69282 25.16996
#
# Velocity S-wave (km/s) = 3.30222 3.65160 3.48129
# Velocity P-wave (km/s) = 5.78897 6.10953 5.95141
#
# Compressibility (1/GPa) = 0.02537874
#
# Stress axis : x y z
#
# Youngs Moduli (GPa) = 59.31442 85.69298 80.94849
#
# Poissons Ratio (x) = 0.34411 0.15235
# Poissons Ratio (y) = 0.23818 0.15009
# Poissons Ratio (z) = 0.11163 0.15889
#
# Static dielectric constant tensor:
#      x y z
#    x 1.834500 0.000000 0.000000 
#    y 0.000000 1.736580 0.000000 
#    z 0.000000 0.000000 1.794630 
# 
# From -- ./inp_files/14184.got.cif
#   From: 2010.05.17/outbox.cif.g08.bks.cpg/sg56_8_cif.got.tgz:14184.got - 2010.06.03 13:42:01.
