data_PCOD9431032
_publ_section_title
;
Structure prediction by ZEFSAII (Michael W. Deem and Ramdas Pophale) SiO2 
 PCOD9431032
Probable space group: P C C N
;
_chemical_formula_sum "Si O2"
_cell_formula_units_Z 52
_cell_length_a 10.687524
_cell_length_b 13.365384
_cell_length_c 17.598143
_cell_angle_alpha 90.000000
_cell_angle_beta 90.000000
_cell_angle_gamma 90.000000
_cell_volume 2513.769117
_symmetry_space_group_name_H-M "P C C N"
_symmetry_group_IT_number 56
_symmetry_cell_setting 'orthorhombic'
loop_
_space_group_symop_operation_xyz
x,y,z
1/2-x,1/2-y,z
1/2+x,-y,1/2-z
-x,1/2+y,1/2-z
-x,-y,-z
1/2+x,1/2+y,-z
1/2-x,y,1/2+z
x,1/2-y,1/2+z
loop_
_atom_site_type_symbol
_atom_site_label
_atom_site_fract_x
_atom_site_fract_y
_atom_site_fract_z
Si Si1 0.808738 0.078272 0.005825
Si Si2 0.406912 0.142504 0.530806
Si Si3 0.807519 0.101381 0.669022
Si Si4 0.919574 0.280177 0.743563
Si Si5 0.320366 0.384792 0.275176
Si Si6 0.250000 0.250000 0.156474
Si Si7 0.250000 0.750000 0.113825
Si Si8 0.250000 0.250000 0.910678
O O1 0.759404 0.152329 0.939910
O O2 0.719004 0.083625 0.079836
O O3 0.834117 0.964320 0.977751
O O4 0.946226 0.119192 0.030495
O O5 0.587740 0.317484 0.690335
O O6 0.356038 0.204567 0.602180
O O7 0.365160 0.212587 0.461099
O O8 0.680423 0.146240 0.704636
O O9 0.833693 0.001371 0.715363
O O10 0.866713 0.253722 0.827578
O O11 0.050317 0.333548 0.752208
O O12 0.222065 0.342432 0.213598
O O13 0.283209 0.341364 0.356433
#
# Coordination Sequence:
#
# PCOD9431032 Si02
#       8
#     8   8   8   8   8   4   4   4
#     4  11  21  40  68  88 124 173 204 257 321 378
#     4  10  22  39  64  94 126 163 207 260 322 373
#     4  10  22  42  63  90 126 167 213 253 320 382
#     4  10  24  42  62  92 130 163 213 263 311 383
#     4  11  22  40  65  91 124 171 205 266 314 367
#     4  10  24  36  60  92 128 154 216 256 306 374
#     4  10  22  40  64  90 122 160 216 252 308 386
#     4  10  20  40  60  98 130 156 208 266 314 378
#
# _framework density 20.686067999999999
#
# number of rings (size 3 to 8) (size 9 to 14) (size 15 to 20)
#    0.000    1.846    1.538    2.769    4.308    2.462 
#    0.000    0.769    0.000    0.000    0.000    0.000 
#    0.000    0.000    0.000    0.000    0.000    0.000 
#
# Total GULP energy -290306.025368 kJ/mol
# GULP energy per Si atom -5582.808180 kJ/mol
# Density = 2.063899 g / cm^3
# Si number density = 20.686068 Si / 1000 Ang^3
#
#
#
# Elastic Constant Matrix: (Units=GPa)
#
#
# Indices 1 2 3 4 5 6 
#
# 1 59.9387 40.5438 31.1878 0.0000 0.0000 0.0000
# 2 40.5438 130.3148 48.6689 0.0000 0.0000 0.0000
# 3 31.1878 48.6689 129.1610 0.0000 0.0000 0.0000
# 4 0.0000 0.0000 0.0000 8.1651 0.0000 0.0000
# 5 0.0000 0.0000 0.0000 0.0000 16.2061 0.0000
# 6 0.0000 0.0000 0.0000 0.0000 0.0000 11.3068
#
#
#
# Elastic Compliance Matrix: (Units=1/GPa)
#
#
# Indices 1 2 3 4 5 6 
#
# 1 0.022220 -0.005713 -0.003212 0.000000 0.000000 0.000000
# 2 -0.005713 0.010400 -0.002539 0.000000 0.000000 0.000000
# 3 -0.003212 -0.002539 0.009475 0.000000 0.000000 0.000000
# 4 0.000000 0.000000 0.000000 0.122473 0.000000 0.000000
# 5 0.000000 0.000000 0.000000 0.000000 0.061705 0.000000
# 6 0.000000 0.000000 0.000000 0.000000 0.000000 0.088443
#
#
# Mechanical properties :
#
#
# Convention : Reuss Voigt Hill
#
# Bulk Modulus (GPa) = 52.18013 62.24617 57.21315
# Shear Modulus (GPa) = 14.53350 20.40318 17.46834
#
# Velocity S-wave (km/s) = 2.65349 3.14399 2.90909
# Velocity P-wave (km/s) = 5.88791 6.58299 6.24513
#
# Compressibility (1/GPa) = 0.01916438
#
# Stress axis : x y z
#
# Youngs Moduli (GPa) = 45.00476 96.15811 105.54409
#
# Poissons Ratio (x) = 0.54938 0.33906
# Poissons Ratio (y) = 0.25713 0.26798
# Poissons Ratio (z) = 0.14458 0.24415
#
# Static dielectric constant tensor:
#      x y z
#    x 1.770830 0.000000 0.000000 
#    y 0.000000 1.742360 0.000000 
#    z 0.000000 0.000000 1.767840 
# 
# From -- ./inp_files/15751.got.cif
#   From: 2010.05.17/outbox.cif.g08.bks.cpg/sg56_8_cif.got.tgz:15751.got - 2010.06.03 13:42:01.
