data_PCOD9431441
_publ_section_title
;
Structure prediction by ZEFSAII (Michael W. Deem and Ramdas Pophale) SiO2 
 PCOD9431441
Probable space group: P C C N
;
_chemical_formula_sum "Si O2"
_cell_formula_units_Z 56
_cell_length_a 16.842772
_cell_length_b 5.277791
_cell_length_c 29.843555
_cell_angle_alpha 90.000000
_cell_angle_beta 90.000000
_cell_angle_gamma 90.000000
_cell_volume 2652.872107
_symmetry_space_group_name_H-M "P C C N"
_symmetry_group_IT_number 56
_symmetry_cell_setting 'orthorhombic'
loop_
_space_group_symop_operation_xyz
x,y,z
1/2-x,1/2-y,z
1/2+x,-y,1/2-z
-x,1/2+y,1/2-z
-x,-y,-z
1/2+x,1/2+y,-z
1/2-x,y,1/2+z
x,1/2-y,1/2+z
loop_
_atom_site_type_symbol
_atom_site_label
_atom_site_fract_x
_atom_site_fract_y
_atom_site_fract_z
Si Si1 0.946370 0.401687 0.433131
Si Si2 0.155685 0.780750 0.389458
Si Si3 0.024983 0.643108 0.727889
Si Si4 0.435410 0.240840 0.364504
Si Si5 0.794003 0.999777 0.775397
Si Si6 0.436716 0.807269 0.977762
Si Si7 0.793313 0.996229 0.883342
O O1 0.899550 0.302126 0.476440
O O2 0.883955 0.509642 0.398214
O O3 0.002412 0.210326 0.405404
O O4 0.006760 0.605605 0.453046
O O5 0.250000 0.750000 0.385871
O O6 0.114908 0.512375 0.376158
O O7 0.129467 0.860935 0.440344
O O8 0.119616 0.011500 0.360014
O O9 0.112614 0.524484 0.731922
O O10 0.972615 0.423613 0.750920
O O11 0.989126 0.685184 0.678644
O O12 0.750000 0.250000 0.758288
O O13 0.750000 0.750000 0.757780
O O14 0.786669 0.995333 0.829552
O O15 0.500000 0.000000 0.000000
O O16 0.750000 0.750000 0.901464
O O17 0.750000 0.250000 0.899067
#
# Coordination Sequence:
#
# PCOD9431441 Si02
#       7
#     8   8   8   8   8   8   8
#     4  10  21  39  60  91 128 172 221 260 328 396
#     4  11  24  43  67  95 134 178 227 274 328 390
#     4  12  25  44  70 105 132 170 228 276 334 404
#     4  11  23  44  69  92 129 176 219 276 327 407
#     4  10  21  41  65  94 133 167 203 263 338 393
#     4  10  21  38  62  92 128 174 219 275 329 372
#     4  10  22  36  59  92 124 164 208 257 319 386
#
# _framework density 21.109199
#
# number of rings (size 3 to 8) (size 9 to 14) (size 15 to 20)
#    0.000    1.429    2.857    2.143    2.000    0.571 
#    0.000    7.143    0.000    0.000    0.000    0.000 
#    0.000    0.000    0.000    0.000    0.000    0.000 
#
# Total GULP energy -312391.136412 kJ/mol
# GULP energy per Si atom -5578.413150 kJ/mol
# Density = 2.106115 g / cm^3
# Si number density = 21.109199 Si / 1000 Ang^3
#
#
#
# Elastic Constant Matrix: (Units=GPa)
#
#
# Indices 1 2 3 4 5 6 
#
# 1 87.0309 10.3984 4.0043 0.0000 0.0000 0.0000
# 2 10.3984 83.6092 10.5591 0.0000 0.0000 0.0000
# 3 4.0043 10.5591 43.8288 0.0000 0.0000 0.0000
# 4 0.0000 0.0000 0.0000 18.1136 0.0000 0.0000
# 5 0.0000 0.0000 0.0000 0.0000 6.5184 0.0000
# 6 0.0000 0.0000 0.0000 0.0000 0.0000 33.9495
#
#
#
# Elastic Compliance Matrix: (Units=1/GPa)
#
#
# Indices 1 2 3 4 5 6 
#
# 1 0.011687 -0.001360 -0.000740 0.000000 0.000000 0.000000
# 2 -0.001360 0.012494 -0.002886 0.000000 0.000000 0.000000
# 3 -0.000740 -0.002886 0.023579 0.000000 0.000000 0.000000
# 4 0.000000 0.000000 0.000000 0.055207 0.000000 0.000000
# 5 0.000000 0.000000 0.000000 0.000000 0.153413 0.000000
# 6 0.000000 0.000000 0.000000 0.000000 0.000000 0.029455
#
#
# Mechanical properties :
#
#
# Convention : Reuss Voigt Hill
#
# Bulk Modulus (GPa) = 26.46350 29.37694 27.92022
# Shear Modulus (GPa) = 16.21258 24.35012 20.28135
#
# Velocity S-wave (km/s) = 2.77435 3.40005 3.10301
# Velocity P-wave (km/s) = 4.77770 5.41855 5.10818
#
# Compressibility (1/GPa) = 0.03778790
#
# Stress axis : x y z
#
# Youngs Moduli (GPa) = 85.56725 80.03847 42.41086
#
# Poissons Ratio (x) = 0.10885 0.03139
# Poissons Ratio (y) = 0.11637 0.12239
# Poissons Ratio (z) = 0.06333 0.23097
#
# Static dielectric constant tensor:
#      x y z
#    x 1.751970 0.000000 0.000000 
#    y 0.000000 1.921580 0.000000 
#    z 0.000000 0.000000 1.819870 
# 
# From -- ./inp_files/23596.got.cif
#   From: 2010.05.17/outbox.cif.g08.bks.cpg/sg56_12_cif.got.tgz:23596.got - 2010.06.03 13:42:01.
