data_PCOD9431408
_publ_section_title
;
Structure prediction by ZEFSAII (Michael W. Deem and Ramdas Pophale) SiO2 
 PCOD9431408
Probable space group: P C C N
;
_chemical_formula_sum "Si O2"
_cell_formula_units_Z 64
_cell_length_a 12.923687
_cell_length_b 28.881850
_cell_length_c 8.875494
_cell_angle_alpha 90.000000
_cell_angle_beta 90.000000
_cell_angle_gamma 90.000000
_cell_volume 3312.866796
_symmetry_space_group_name_H-M "P C C N"
_symmetry_group_IT_number 56
_symmetry_cell_setting 'orthorhombic'
loop_
_space_group_symop_operation_xyz
x,y,z
1/2-x,1/2-y,z
1/2+x,-y,1/2-z
-x,1/2+y,1/2-z
-x,-y,-z
1/2+x,1/2+y,-z
1/2-x,y,1/2+z
x,1/2-y,1/2+z
loop_
_atom_site_type_symbol
_atom_site_label
_atom_site_fract_x
_atom_site_fract_y
_atom_site_fract_z
Si Si1 0.847015 0.782052 0.770369
Si Si2 0.868406 0.338043 0.115764
Si Si3 0.028087 0.577223 0.032710
Si Si4 0.148393 0.388955 0.755265
Si Si5 0.690500 0.204917 0.411855
Si Si6 0.621512 0.514171 0.333158
Si Si7 0.196482 0.446426 0.469204
Si Si8 0.010295 0.259828 0.997026
O O1 0.750000 0.750000 0.728208
O O2 0.820234 0.836039 0.771898
O O3 0.946456 0.775868 0.662773
O O4 0.891719 0.764056 0.927111
O O5 0.839865 0.332953 0.289251
O O6 0.895781 0.388100 0.052580
O O7 0.771503 0.316557 0.026943
O O8 0.966381 0.304237 0.085493
O O9 0.082070 0.536875 0.128451
O O10 0.955578 0.605980 0.146903
O O11 0.957675 0.550953 0.908373
O O12 0.139085 0.415460 0.595198
O O13 0.234363 0.413534 0.860626
O O14 0.750000 0.250000 0.342007
O O15 0.585774 0.224908 0.483348
O O16 0.633976 0.524308 0.155458
O O17 0.727170 0.522536 0.427696
#
# Coordination Sequence:
#
# PCOD9431408 Si02
#       8
#     8   8   8   8   8   8   8   8
#     4  12  26  38  59  90 124 165 206 247 298 357
#     4  11  22  38  61  86 116 156 204 247 299 358
#     4  10  21  38  60  88 120 152 195 256 307 364
#     4  10  22  38  59  84 119 158 200 246 301 357
#     4  10  22  39  61  83 115 160 199 242 299 353
#     4   9  20  39  61  86 118 155 195 247 317 366
#     4   9  20  39  61  84 115 159 200 245 302 379
#     4  11  23  41  58  85 123 162 199 250 296 354
#
# _framework density 19.318615000000001
#
# number of rings (size 3 to 8) (size 9 to 14) (size 15 to 20)
#    0.000    1.750    2.500    1.500    5.250    3.500 
#    0.000    0.000    0.000    0.000    0.000    0.000 
#    0.000    0.000    0.000    0.000    0.000    0.000 
#
# Total GULP energy -357122.741744 kJ/mol
# GULP energy per Si atom -5580.042840 kJ/mol
# Density = 1.927464 g / cm^3
# Si number density = 19.318615 Si / 1000 Ang^3
#
#
#
# Elastic Constant Matrix: (Units=GPa)
#
#
# Indices 1 2 3 4 5 6 
#
# 1 54.8076 14.9641 -3.7260 0.0000 0.0000 0.0000
# 2 14.9641 66.2843 2.0798 0.0000 0.0000 0.0000
# 3 -3.7260 2.0798 58.2702 0.0000 0.0000 0.0000
# 4 0.0000 0.0000 0.0000 11.5077 0.0000 0.0000
# 5 0.0000 0.0000 0.0000 0.0000 10.5499 0.0000
# 6 0.0000 0.0000 0.0000 0.0000 0.0000 20.6486
#
#
#
# Elastic Compliance Matrix: (Units=1/GPa)
#
#
# Indices 1 2 3 4 5 6 
#
# 1 0.019559 -0.004460 0.001410 0.000000 0.000000 0.000000
# 2 -0.004460 0.016120 -0.000861 0.000000 0.000000 0.000000
# 3 0.001410 -0.000861 0.017282 0.000000 0.000000 0.000000
# 4 0.000000 0.000000 0.000000 0.086898 0.000000 0.000000
# 5 0.000000 0.000000 0.000000 0.000000 0.094788 0.000000
# 6 0.000000 0.000000 0.000000 0.000000 0.000000 0.048429
#
#
# Mechanical properties :
#
#
# Convention : Reuss Voigt Hill
#
# Bulk Modulus (GPa) = 22.15291 22.88864 22.52078
# Shear Modulus (GPa) = 16.34280 19.61086 17.97683
#
# Velocity S-wave (km/s) = 2.91170 3.18956 3.05379
# Velocity P-wave (km/s) = 4.77452 5.04362 4.91091
#
# Compressibility (1/GPa) = 0.04514079
#
# Stress axis : x y z
#
# Youngs Moduli (GPa) = 51.12689 62.03331 57.86270
#
# Poissons Ratio (x) = 0.27666 -0.08158
# Poissons Ratio (y) = 0.22802 0.04979
# Poissons Ratio (z) = -0.07208 0.05338
#
# Static dielectric constant tensor:
#      x y z
#    x 1.676260 0.000000 0.000000 
#    y 0.000000 1.658150 0.000000 
#    z 0.000000 0.000000 1.678650 
# 
# From -- ./inp_files/2955.got.cif
#   From: 2010.05.17/outbox.cif.g08.bks.cpg/sg56_2_cif.got.tgz:2955.got - 2010.06.03 13:42:01.
