data_PCOD9431734
_publ_section_title
;
Structure prediction by ZEFSAII (Michael W. Deem and Ramdas Pophale) SiO2 
 PCOD9431734
Probable space group: P C C N
;
_chemical_formula_sum "Si O2"
_cell_formula_units_Z 64
_cell_length_a 8.349125
_cell_length_b 22.647054
_cell_length_c 14.151321
_cell_angle_alpha 90.000000
_cell_angle_beta 90.000000
_cell_angle_gamma 90.000000
_cell_volume 2675.775428
_symmetry_space_group_name_H-M "P C C N"
_symmetry_group_IT_number 56
_symmetry_cell_setting 'orthorhombic'
loop_
_space_group_symop_operation_xyz
x,y,z
1/2-x,1/2-y,z
1/2+x,-y,1/2-z
-x,1/2+y,1/2-z
-x,-y,-z
1/2+x,1/2+y,-z
1/2-x,y,1/2+z
x,1/2-y,1/2+z
loop_
_atom_site_type_symbol
_atom_site_label
_atom_site_fract_x
_atom_site_fract_y
_atom_site_fract_z
Si Si1 0.904419 0.783526 0.022127
Si Si2 0.898908 0.175399 0.416925
Si Si3 0.228963 0.509564 0.479210
Si Si4 0.182192 0.644620 0.426750
Si Si5 0.318059 0.687457 0.254881
Si Si6 0.060005 0.983035 0.155759
Si Si7 0.083529 0.436311 0.832024
Si Si8 0.901682 0.631698 0.694160
O O1 0.750000 0.750000 0.979580
O O2 0.862481 0.835075 0.096571
O O3 0.986764 0.731714 0.084255
O O4 0.026251 0.817233 0.952202
O O5 0.835974 0.173959 0.523690
O O6 0.742476 0.184093 0.352702
O O7 0.980589 0.115824 0.379109
O O8 0.194285 0.579020 0.468152
O O9 0.212476 0.498325 0.591675
O O10 0.372603 0.481242 0.418501
O O11 0.081887 0.482153 0.420801
O O12 0.216048 0.641845 0.316669
O O13 0.250000 0.750000 0.290408
O O14 0.509035 0.678923 0.261227
O O15 0.047583 0.915906 0.189832
O O16 0.021959 0.025306 0.243517
O O17 0.240812 0.404170 0.786261
#
# Coordination Sequence:
#
# PCOD9431734 Si02
#       8
#     8   8   8   8   8   8   8   8
#     4  12  23  45  73  96 139 189 231 298 357 423
#     4  12  24  43  68 100 142 181 241 296 357 435
#     4  10  22  41  67  92 143 182 223 294 358 425
#     4  12  25  43  69 105 136 187 238 292 368 433
#     4  12  23  41  68  95 137 188 235 292 355 428
#     4  10  21  41  66  97 134 180 230 279 358 426
#     4  11  25  41  70 109 134 186 243 291 364 433
#     4  11  22  44  69  96 139 184 228 287 352 424
#
# _framework density 23.918301
#
# number of rings (size 3 to 8) (size 9 to 14) (size 15 to 20)
#    0.000    0.750    5.000    2.625    0.000    4.500 
#    0.000    4.375    0.000    0.000    0.000    0.000 
#    0.000    0.000    0.000    0.000    0.000    0.000 
#
# Total GULP energy -357081.920909 kJ/mol
# GULP energy per Si atom -5579.405014 kJ/mol
# Density = 2.386386 g / cm^3
# Si number density = 23.918301 Si / 1000 Ang^3
#
#
#
# Elastic Constant Matrix: (Units=GPa)
#
#
# Indices 1 2 3 4 5 6 
#
# 1 76.8363 37.4468 14.4287 0.0000 0.0000 0.0000
# 2 37.4468 104.9897 11.9645 0.0000 0.0000 0.0000
# 3 14.4287 11.9645 61.5724 0.0000 0.0000 0.0000
# 4 0.0000 0.0000 0.0000 28.6038 0.0000 0.0000
# 5 0.0000 0.0000 0.0000 0.0000 19.5528 0.0000
# 6 0.0000 0.0000 0.0000 0.0000 0.0000 47.1633
#
#
#
# Elastic Compliance Matrix: (Units=1/GPa)
#
#
# Indices 1 2 3 4 5 6 
#
# 1 0.016190 -0.005463 -0.002732 0.000000 0.000000 0.000000
# 2 -0.005463 0.011584 -0.000971 0.000000 0.000000 0.000000
# 3 -0.002732 -0.000971 0.017070 0.000000 0.000000 0.000000
# 4 0.000000 0.000000 0.000000 0.034960 0.000000 0.000000
# 5 0.000000 0.000000 0.000000 0.000000 0.051144 0.000000
# 6 0.000000 0.000000 0.000000 0.000000 0.000000 0.021203
#
#
# Mechanical properties :
#
#
# Convention : Reuss Voigt Hill
#
# Bulk Modulus (GPa) = 37.71942 41.23094 39.47518
# Shear Modulus (GPa) = 27.88295 31.03454 29.45874
#
# Velocity S-wave (km/s) = 3.41802 3.60602 3.51328
# Velocity P-wave (km/s) = 5.60192 5.88333 5.74435
#
# Compressibility (1/GPa) = 0.02651154
#
# Stress axis : x y z
#
# Youngs Moduli (GPa) = 61.76519 86.32635 58.58243
#
# Poissons Ratio (x) = 0.47162 0.16007
# Poissons Ratio (y) = 0.33744 0.05687
# Poissons Ratio (z) = 0.16877 0.08380
#
# Static dielectric constant tensor:
#      x y z
#    x 2.063510 0.000000 0.000000 
#    y 0.000000 2.024060 0.000000 
#    z 0.000000 0.000000 1.934560 
# 
# From -- ./inp_files/11065.got.cif
#   From: 2010.05.17/outbox.cif.g08.bks.cpg/sg56_6_cif.got.tgz:11065.got - 2010.06.03 13:42:01.
