data_PCOD9431935
_publ_section_title
;
Structure prediction by ZEFSAII (Michael W. Deem and Ramdas Pophale) SiO2 
 PCOD9431935
Probable space group: P C C N
;
_chemical_formula_sum "Si O2"
_cell_formula_units_Z 48
_cell_length_a 12.966564
_cell_length_b 11.589634
_cell_length_c 17.335780
_cell_angle_alpha 90.000000
_cell_angle_beta 90.000000
_cell_angle_gamma 90.000000
_cell_volume 2605.181683
_symmetry_space_group_name_H-M "P C C N"
_symmetry_group_IT_number 56
_symmetry_cell_setting 'orthorhombic'
loop_
_space_group_symop_operation_xyz
x,y,z
1/2-x,1/2-y,z
1/2+x,-y,1/2-z
-x,1/2+y,1/2-z
-x,-y,-z
1/2+x,1/2+y,-z
1/2-x,y,1/2+z
x,1/2-y,1/2+z
loop_
_atom_site_type_symbol
_atom_site_label
_atom_site_fract_x
_atom_site_fract_y
_atom_site_fract_z
Si Si1 0.147203 0.597203 0.681383
Si Si2 0.892880 0.544559 0.470799
Si Si3 0.637044 0.792332 0.915769
Si Si4 0.626388 0.145808 0.861194
Si Si5 0.821537 0.023587 0.514093
Si Si6 0.469133 0.558144 0.340267
O O1 0.127804 0.502355 0.615652
O O2 0.105516 0.720505 0.651734
O O3 0.270941 0.611651 0.686668
O O4 0.093041 0.570881 0.761556
O O5 0.895923 0.682396 0.465549
O O6 0.800689 0.493675 0.523389
O O7 0.000000 0.500000 0.500000
O O8 0.750000 0.750000 0.884536
O O9 0.551030 0.837415 0.855702
O O10 0.648704 0.903147 0.971660
O O11 0.535213 0.059538 0.839854
O O12 0.655867 0.121015 0.950161
O O13 0.889216 0.048736 0.588618
#
# Coordination Sequence:
#
# PCOD9431935 Si02
#       6
#     8   8   8   8   8   8
#     4  10  23  38  57  88 122 155 188 254 300 353
#     4  10  22  37  59  88 125 153 194 248 305 346
#     4   9  19  38  60  86 116 154 198 247 295 356
#     4   9  20  42  58  79 120 153 196 240 297 353
#     4   9  20  40  64  84 110 162 204 239 290 372
#     4  11  22  37  67  86 115 160 207 242 304 361
#
# _framework density 18.424818999999999
#
# number of rings (size 3 to 8) (size 9 to 14) (size 15 to 20)
#    0.000    2.333    0.000    3.000    7.000    1.333 
#    3.000    0.000    0.000    0.000    0.000    0.000 
#    0.000    0.000    0.000    0.000    0.000    0.000 
#
# Total GULP energy -267701.126650 kJ/mol
# GULP energy per Si atom -5577.106805 kJ/mol
# Density = 1.838288 g / cm^3
# Si number density = 18.424819 Si / 1000 Ang^3
#
#
#
# Elastic Constant Matrix: (Units=GPa)
#
#
# Indices 1 2 3 4 5 6 
#
# 1 108.8547 27.6306 47.3293 0.0000 0.0000 0.0000
# 2 27.6306 61.1309 21.8964 0.0000 0.0000 0.0000
# 3 47.3293 21.8964 60.6551 0.0000 0.0000 0.0000
# 4 0.0000 0.0000 0.0000 12.7047 0.0000 0.0000
# 5 0.0000 0.0000 0.0000 0.0000 28.1981 0.0000
# 6 0.0000 0.0000 0.0000 0.0000 0.0000 18.2905
#
#
#
# Elastic Compliance Matrix: (Units=1/GPa)
#
#
# Indices 1 2 3 4 5 6 
#
# 1 0.014320 -0.002837 -0.010150 0.000000 0.000000 0.000000
# 2 -0.002837 0.019350 -0.004772 0.000000 0.000000 0.000000
# 3 -0.010150 -0.004772 0.026129 0.000000 0.000000 0.000000
# 4 0.000000 0.000000 0.000000 0.078711 0.000000 0.000000
# 5 0.000000 0.000000 0.000000 0.000000 0.035463 0.000000
# 6 0.000000 0.000000 0.000000 0.000000 0.000000 0.054673
#
#
# Mechanical properties :
#
#
# Convention : Reuss Voigt Hill
#
# Bulk Modulus (GPa) = 41.18238 47.15037 44.16638
# Shear Modulus (GPa) = 18.36509 20.75763 19.56136
#
# Velocity S-wave (km/s) = 3.16057 3.36015 3.26189
# Velocity P-wave (km/s) = 5.97654 6.37968 6.18140
#
# Compressibility (1/GPa) = 0.02428223
#
# Stress axis : x y z
#
# Youngs Moduli (GPa) = 69.83443 51.68037 38.27180
#
# Poissons Ratio (x) = 0.14661 0.38844
# Poissons Ratio (y) = 0.19811 0.18262
# Poissons Ratio (z) = 0.70878 0.24660
#
# Static dielectric constant tensor:
#      x y z
#    x 1.675500 0.000000 0.000000 
#    y 0.000000 1.644280 0.000000 
#    z 0.000000 0.000000 1.596480 
# 
# From -- ./inp_files/15615.got.cif
#   From: 2010.05.17/outbox.cif.g08.bks.cpg/sg56_8_cif.got.tgz:15615.got - 2010.06.03 13:42:01.
