data_PCOD9431675
_publ_section_title
;
Structure prediction by ZEFSAII (Michael W. Deem and Ramdas Pophale) SiO2 
 PCOD9431675
Probable space group: P C C N
;
_chemical_formula_sum "Si O2"
_cell_formula_units_Z 64
_cell_length_a 12.897540
_cell_length_b 8.384981
_cell_length_c 27.505315
_cell_angle_alpha 90.000000
_cell_angle_beta 90.000000
_cell_angle_gamma 90.000000
_cell_volume 2974.579560
_symmetry_space_group_name_H-M "P C C N"
_symmetry_group_IT_number 56
_symmetry_cell_setting 'orthorhombic'
loop_
_space_group_symop_operation_xyz
x,y,z
1/2-x,1/2-y,z
1/2+x,-y,1/2-z
-x,1/2+y,1/2-z
-x,-y,-z
1/2+x,1/2+y,-z
1/2-x,y,1/2+z
x,1/2-y,1/2+z
loop_
_atom_site_type_symbol
_atom_site_label
_atom_site_fract_x
_atom_site_fract_y
_atom_site_fract_z
Si Si1 0.309113 0.396845 0.801805
Si Si2 0.486559 0.072735 0.092838
Si Si3 0.672562 0.547805 0.539590
Si Si4 0.898996 0.056363 0.694577
Si Si5 0.992341 0.393754 0.722115
Si Si6 0.779527 0.432252 0.934573
Si Si7 0.873777 0.617820 0.589242
Si Si8 0.422785 0.427950 0.113879
O O1 0.250000 0.250000 0.777787
O O2 0.223506 0.533958 0.809665
O O3 0.403568 0.472573 0.773837
O O4 0.349928 0.341093 0.854614
O O5 0.549508 0.042375 0.142104
O O6 0.436230 0.247112 0.095647
O O7 0.573155 0.061352 0.050875
O O8 0.393332 0.947171 0.088866
O O9 0.707693 0.531310 0.484334
O O10 0.776118 0.512298 0.571024
O O11 0.634343 0.723483 0.556575
O O12 0.935285 0.225238 0.716151
O O13 0.940358 0.918837 0.730257
O O14 0.055563 0.425060 0.672033
O O15 0.750000 0.250000 0.945514
O O16 0.688526 0.504327 0.901220
O O17 0.983818 0.530127 0.589522
#
# Coordination Sequence:
#
# PCOD9431675 Si02
#       8
#     8   8   8   8   8   8   8   8
#     4  11  19  38  65  96 125 166 209 270 322 384
#     4  11  24  44  68  94 133 169 221 276 325 384
#     4  11  23  42  65  98 126 171 221 265 323 386
#     4  11  22  42  65  98 130 168 217 269 325 389
#     4  10  24  40  66  98 128 171 215 267 328 392
#     4  12  28  45  64  94 134 179 220 265 332 395
#     4  10  21  40  69  94 128 166 217 263 325 379
#     4  10  25  44  67  96 133 171 215 275 330 387
#
# _framework density 21.515644000000002
#
# number of rings (size 3 to 8) (size 9 to 14) (size 15 to 20)
#    0.000    1.250    2.500    2.625    5.250    4.500 
#    0.000    1.250    0.000    0.000    0.000    0.000 
#    0.000    0.000    0.000    0.000    0.000    0.000 
#
# Total GULP energy -357800.076978 kJ/mol
# GULP energy per Si atom -5590.626203 kJ/mol
# Density = 2.146667 g / cm^3
# Si number density = 21.515644 Si / 1000 Ang^3
#
#
#
# Elastic Constant Matrix: (Units=GPa)
#
#
# Indices 1 2 3 4 5 6 
#
# 1 98.6020 12.0846 3.2979 0.0000 0.0000 0.0000
# 2 12.0846 61.7992 12.7698 0.0000 0.0000 0.0000
# 3 3.2979 12.7698 23.5229 0.0000 0.0000 0.0000
# 4 0.0000 0.0000 0.0000 86.9753 0.0000 0.0000
# 5 0.0000 0.0000 0.0000 0.0000 24.6099 0.0000
# 6 0.0000 0.0000 0.0000 0.0000 0.0000 41.5733
#
#
#
# Elastic Compliance Matrix: (Units=1/GPa)
#
#
# Indices 1 2 3 4 5 6 
#
# 1 0.010394 -0.001950 -0.000399 0.000000 0.000000 0.000000
# 2 -0.001950 0.018592 -0.009819 0.000000 0.000000 0.000000
# 3 -0.000399 -0.009819 0.047898 0.000000 0.000000 0.000000
# 4 0.000000 0.000000 0.000000 0.011498 0.000000 0.000000
# 5 0.000000 0.000000 0.000000 0.000000 0.040634 0.000000
# 6 0.000000 0.000000 0.000000 0.000000 0.000000 0.024054
#
#
# Mechanical properties :
#
#
# Convention : Reuss Voigt Hill
#
# Bulk Modulus (GPa) = 19.03032 26.69211 22.86121
# Shear Modulus (GPa) = 25.65129 41.01648 33.33388
#
# Velocity S-wave (km/s) = 3.45659 4.37092 3.94037
# Velocity P-wave (km/s) = 4.97944 6.15679 5.59915
#
# Compressibility (1/GPa) = 0.05254773
#
# Stress axis : x y z
#
# Youngs Moduli (GPa) = 96.20819 53.78712 20.87761
#
# Poissons Ratio (x) = 0.10489 0.00832
# Poissons Ratio (y) = 0.18762 0.20501
# Poissons Ratio (z) = 0.03835 0.52816
#
# Static dielectric constant tensor:
#      x y z
#    x 1.762590 0.000000 0.000000 
#    y 0.000000 1.820010 0.000000 
#    z 0.000000 0.000000 1.751220 
# 
# From -- ./inp_files/23512.got.cif
#   From: 2010.05.17/outbox.cif.g08.bks.cpg/sg56_12_cif.got.tgz:23512.got - 2010.06.03 13:42:01.
