data_PCOD9431780
_publ_section_title
;
Structure prediction by ZEFSAII (Michael W. Deem and Ramdas Pophale) SiO2 
 PCOD9431780
Probable space group: P C C N
;
_chemical_formula_sum "Si O2"
_cell_formula_units_Z 52
_cell_length_a 11.304008
_cell_length_b 15.482299
_cell_length_c 14.603653
_cell_angle_alpha 90.000000
_cell_angle_beta 90.000000
_cell_angle_gamma 90.000000
_cell_volume 2555.814983
_symmetry_space_group_name_H-M "P C C N"
_symmetry_group_IT_number 56
_symmetry_cell_setting 'orthorhombic'
loop_
_space_group_symop_operation_xyz
x,y,z
1/2-x,1/2-y,z
1/2+x,-y,1/2-z
-x,1/2+y,1/2-z
-x,-y,-z
1/2+x,1/2+y,-z
1/2-x,y,1/2+z
x,1/2-y,1/2+z
loop_
_atom_site_type_symbol
_atom_site_label
_atom_site_fract_x
_atom_site_fract_y
_atom_site_fract_z
Si Si1 0.503446 0.178320 0.308079
Si Si2 0.250000 0.750000 0.231659
Si Si3 0.621501 0.424167 0.226112
Si Si4 0.697122 0.847087 0.011497
Si Si5 0.401320 0.046826 0.443258
Si Si6 0.635138 0.914472 0.829649
Si Si7 0.629722 0.853348 0.223320
O O1 0.635539 0.212330 0.320164
O O2 0.454182 0.133357 0.398017
O O3 0.482117 0.107199 0.229960
O O4 0.418204 0.255597 0.276260
O O5 0.193556 0.665550 0.280988
O O6 0.642349 0.484159 0.137802
O O7 0.654091 0.482737 0.315016
O O8 0.481902 0.404910 0.236595
O O9 0.750000 0.750000 0.007214
O O10 0.797965 0.918360 0.993665
O O11 0.652902 0.866401 0.114439
O O12 0.612853 0.869575 0.927156
O O13 0.500000 0.000000 0.500000
O O14 0.751935 0.872949 0.780574
#
# Coordination Sequence:
#
# PCOD9431780 Si02
#       7
#     8   4   8   8   8   8   8
#     4  10  21  42  65  91 131 168 209 270 326 384
#     4  10  24  42  66  88 128 176 214 256 338 386
#     4  10  24  41  64  89 127 175 207 270 323 391
#     4  12  22  38  67  98 126 164 217 271 318 383
#     4  11  23  38  65  97 126 166 217 267 324 387
#     4  11  23  37  69  95 126 168 218 270 322 387
#     4  11  20  42  62  93 127 166 217 264 325 377
#
# _framework density 20.345759000000001
#
# number of rings (size 3 to 8) (size 9 to 14) (size 15 to 20)
#    0.000    1.231    4.615    2.308    6.462    1.846 
#    0.000    0.769    0.000    0.000    0.000    0.000 
#    0.000    0.000    0.000    0.000    0.000    0.000 
#
# Total GULP energy -289788.653274 kJ/mol
# GULP energy per Si atom -5572.858717 kJ/mol
# Density = 2.029945 g / cm^3
# Si number density = 20.345759 Si / 1000 Ang^3
#
#
#
# Elastic Constant Matrix: (Units=GPa)
#
#
# Indices 1 2 3 4 5 6 
#
# 1 64.7867 17.9357 -15.3786 0.0000 0.0000 0.0000
# 2 17.9357 104.2490 -2.1750 0.0000 0.0000 0.0000
# 3 -15.3786 -2.1750 52.0329 0.0000 0.0000 0.0000
# 4 0.0000 0.0000 0.0000 20.0827 0.0000 0.0000
# 5 0.0000 0.0000 0.0000 0.0000 14.0074 0.0000
# 6 0.0000 0.0000 0.0000 0.0000 0.0000 31.5229
#
#
#
# Elastic Compliance Matrix: (Units=1/GPa)
#
#
# Indices 1 2 3 4 5 6 
#
# 1 0.017431 -0.002894 0.005031 0.000000 0.000000 0.000000
# 2 -0.002894 0.010081 -0.000434 0.000000 0.000000 0.000000
# 3 0.005031 -0.000434 0.020687 0.000000 0.000000 0.000000
# 4 0.000000 0.000000 0.000000 0.049794 0.000000 0.000000
# 5 0.000000 0.000000 0.000000 0.000000 0.071391 0.000000
# 6 0.000000 0.000000 0.000000 0.000000 0.000000 0.031723
#
#
# Mechanical properties :
#
#
# Convention : Reuss Voigt Hill
#
# Bulk Modulus (GPa) = 19.37798 24.64810 22.01304
# Shear Modulus (GPa) = 23.26632 27.83503 25.55068
#
# Velocity S-wave (km/s) = 3.38531 3.70280 3.54760
# Velocity P-wave (km/s) = 4.98251 5.51560 5.25582
#
# Compressibility (1/GPa) = 0.05160497
#
# Stress axis : x y z
#
# Youngs Moduli (GPa) = 57.37046 99.19405 48.33876
#
# Poissons Ratio (x) = 0.28706 -0.24318
# Poissons Ratio (y) = 0.16603 0.02097
# Poissons Ratio (z) = -0.28861 0.04304
#
# Static dielectric constant tensor:
#      x y z
#    x 1.739940 0.000000 0.000000 
#    y 0.000000 2.171440 0.000000 
#    z 0.000000 0.000000 1.725490 
# 
# From -- ./inp_files/11782.got.cif
#   From: 2010.05.17/outbox.cif.g08.bks.cpg/sg56_6_cif.got.tgz:11782.got - 2010.06.03 13:42:01.
