data_PCOD9431226
_publ_section_title
;
Structure prediction by ZEFSAII (Michael W. Deem and Ramdas Pophale) SiO2 
 PCOD9431226
Probable space group: P C C N
;
_chemical_formula_sum "Si O2"
_cell_formula_units_Z 44
_cell_length_a 12.920876
_cell_length_b 9.819840
_cell_length_c 17.886065
_cell_angle_alpha 90.000000
_cell_angle_beta 90.000000
_cell_angle_gamma 90.000000
_cell_volume 2269.400650
_symmetry_space_group_name_H-M "P C C N"
_symmetry_group_IT_number 56
_symmetry_cell_setting 'orthorhombic'
loop_
_space_group_symop_operation_xyz
x,y,z
1/2-x,1/2-y,z
1/2+x,-y,1/2-z
-x,1/2+y,1/2-z
-x,-y,-z
1/2+x,1/2+y,-z
1/2-x,y,1/2+z
x,1/2-y,1/2+z
loop_
_atom_site_type_symbol
_atom_site_label
_atom_site_fract_x
_atom_site_fract_y
_atom_site_fract_z
Si Si1 0.063018 0.134412 0.973455
Si Si2 0.421324 0.606725 0.539477
Si Si3 0.885368 0.844549 0.861825
Si Si4 0.885531 0.456740 0.653628
Si Si5 0.250000 0.750000 0.940577
Si Si6 0.830660 0.955553 0.318212
O O1 0.984746 0.253481 0.952101
O O2 0.125776 0.086969 0.901166
O O3 0.123053 0.176994 0.048390
O O4 0.000000 0.000000 0.000000
O O5 0.500000 0.500000 0.500000
O O6 0.320779 0.648594 0.490330
O O7 0.383954 0.545655 0.617819
O O8 0.790256 0.936817 0.836317
O O9 0.877359 0.696900 0.824036
O O10 0.994003 0.914630 0.843608
O O11 0.825753 0.336526 0.611627
O O12 0.846266 0.485162 0.736193
#
# Coordination Sequence:
#
# PCOD9431226 Si02
#       6
#     8   8   8   8   4   8
#     4  10  20  45  70  93 137 180 213 283 335 393
#     4  12  24  44  73 103 133 182 238 276 331 423
#     4  10  22  47  62  94 143 173 232 279 338 412
#     4  11  25  43  67 100 136 178 222 294 338 400
#     4  12  24  46  70 100 136 180 244 272 342 414
#     4  11  25  40  68 102 133 184 222 286 351 397
#
# _framework density 19.388380000000002
#
# number of rings (size 3 to 8) (size 9 to 14) (size 15 to 20)
#    0.000    1.091    5.455    1.091    5.091    3.636 
#    3.273    0.000    0.000    0.000    0.000    0.000 
#    0.000    0.000    0.000    0.000    0.000    0.000 
#
# Total GULP energy -245839.483231 kJ/mol
# GULP energy per Si atom -5587.260983 kJ/mol
# Density = 1.934425 g / cm^3
# Si number density = 19.388380 Si / 1000 Ang^3
#
#
#
# Elastic Constant Matrix: (Units=GPa)
#
#
# Indices 1 2 3 4 5 6 
#
# 1 90.8094 22.0418 45.7702 0.0000 0.0000 0.0000
# 2 22.0418 76.7343 26.9668 0.0000 0.0000 0.0000
# 3 45.7702 26.9668 149.6343 0.0000 0.0000 0.0000
# 4 0.0000 0.0000 0.0000 23.4149 0.0000 0.0000
# 5 0.0000 0.0000 0.0000 0.0000 15.2766 0.0000
# 6 0.0000 0.0000 0.0000 0.0000 0.0000 39.9268
#
#
#
# Elastic Compliance Matrix: (Units=1/GPa)
#
#
# Indices 1 2 3 4 5 6 
#
# 1 0.013484 -0.002588 -0.003658 0.000000 0.000000 0.000000
# 2 -0.002588 0.014410 -0.001805 0.000000 0.000000 0.000000
# 3 -0.003658 -0.001805 0.008127 0.000000 0.000000 0.000000
# 4 0.000000 0.000000 0.000000 0.042708 0.000000 0.000000
# 5 0.000000 0.000000 0.000000 0.000000 0.065460 0.000000
# 6 0.000000 0.000000 0.000000 0.000000 0.000000 0.025046
#
#
# Mechanical properties :
#
#
# Convention : Reuss Voigt Hill
#
# Bulk Modulus (GPa) = 50.20428 56.30396 53.25412
# Shear Modulus (GPa) = 26.04492 30.55028 28.29760
#
# Velocity S-wave (km/s) = 3.66912 3.97382 3.82450
# Velocity P-wave (km/s) = 6.62572 7.08223 6.85778
#
# Compressibility (1/GPa) = 0.01991862
#
# Stress axis : x y z
#
# Youngs Moduli (GPa) = 74.16218 69.39746 123.04259
#
# Poissons Ratio (x) = 0.17958 0.45011
# Poissons Ratio (y) = 0.19191 0.22214
# Poissons Ratio (z) = 0.27129 0.12529
#
# Static dielectric constant tensor:
#      x y z
#    x 1.681840 0.000000 0.000000 
#    y 0.000000 1.675690 0.000000 
#    z 0.000000 0.000000 1.677710 
# 
# From -- ./inp_files/16098.got.cif
#   From: 2010.05.17/outbox.cif.g08.bks.cpg/sg56_9_cif.got.tgz:16098.got - 2010.06.03 13:42:01.
