data_PCOD9431440
_publ_section_title
;
Structure prediction by ZEFSAII (Michael W. Deem and Ramdas Pophale) SiO2 
 PCOD9431440
Probable space group: P C C N
;
_chemical_formula_sum "Si O2"
_cell_formula_units_Z 48
_cell_length_a 24.657809
_cell_length_b 8.625658
_cell_length_c 9.220949
_cell_angle_alpha 90.000000
_cell_angle_beta 90.000000
_cell_angle_gamma 90.000000
_cell_volume 1961.202052
_symmetry_space_group_name_H-M "P C C N"
_symmetry_group_IT_number 56
_symmetry_cell_setting 'orthorhombic'
loop_
_space_group_symop_operation_xyz
x,y,z
1/2-x,1/2-y,z
1/2+x,-y,1/2-z
-x,1/2+y,1/2-z
-x,-y,-z
1/2+x,1/2+y,-z
1/2-x,y,1/2+z
x,1/2-y,1/2+z
loop_
_atom_site_type_symbol
_atom_site_label
_atom_site_fract_x
_atom_site_fract_y
_atom_site_fract_z
Si Si1 0.475580 0.258973 0.943061
Si Si2 0.769946 0.043450 0.213842
Si Si3 0.856272 0.978583 0.656615
Si Si4 0.750000 0.250000 0.469755
Si Si5 0.750000 0.750000 0.376107
Si Si6 0.862177 0.779825 0.941987
Si Si7 0.033985 0.917105 0.302187
O O1 0.512390 0.378822 0.856352
O O2 0.473559 0.095973 0.852161
O O3 0.416241 0.333221 0.973709
O O4 0.500885 0.196125 0.091970
O O5 0.782346 0.144563 0.356325
O O6 0.704695 0.033314 0.183416
O O7 0.780025 0.871866 0.272885
O O8 0.786758 0.140768 0.072740
O O9 0.867843 0.846933 0.780103
O O10 0.862708 0.898112 0.499493
O O11 0.901708 0.107033 0.680341
O O12 0.798505 0.822358 0.970661
#
# Coordination Sequence:
#
# PCOD9431440 Si02
#       7
#     8   8   8   4   4   8   8
#     4  10  21  40  62  88 122 161 202 257 310 371
#     4  10  22  40  62  89 124 164 209 256 312 375
#     4  10  22  38  59  90 122 161 208 253 307 371
#     4  10  22  40  58  86 132 166 192 260 328 364
#     4  10  22  40  68  94 118 164 220 258 302 374
#     4  10  21  38  62  92 125 155 205 266 310 356
#     4  10  22  39  60  86 120 158 202 251 310 367
#
# _framework density 24.474788
#
# number of rings (size 3 to 8) (size 9 to 14) (size 15 to 20)
#    0.000    2.000    0.000    3.000    0.000   12.667 
#    0.000    6.667    0.000    0.000    0.000    0.000 
#    0.000    0.000    0.000    0.000    0.000    0.000 
#
# Total GULP energy -267415.476670 kJ/mol
# GULP energy per Si atom -5571.155764 kJ/mol
# Density = 2.441908 g / cm^3
# Si number density = 24.474788 Si / 1000 Ang^3
#
#
#
# Elastic Constant Matrix: (Units=GPa)
#
#
# Indices 1 2 3 4 5 6 
#
# 1 94.5575 -15.5774 10.4124 0.0000 0.0000 0.0000
# 2 -15.5774 77.6806 41.2506 0.0000 0.0000 0.0000
# 3 10.4124 41.2506 103.2030 0.0000 0.0000 0.0000
# 4 0.0000 0.0000 0.0000 30.4793 0.0000 0.0000
# 5 0.0000 0.0000 0.0000 0.0000 23.1492 0.0000
# 6 0.0000 0.0000 0.0000 0.0000 0.0000 26.8493
#
#
#
# Elastic Compliance Matrix: (Units=1/GPa)
#
#
# Indices 1 2 3 4 5 6 
#
# 1 0.011476 0.003702 -0.002637 0.000000 0.000000 0.000000
# 2 0.003702 0.017536 -0.007383 0.000000 0.000000 0.000000
# 3 -0.002637 -0.007383 0.012907 0.000000 0.000000 0.000000
# 4 0.000000 0.000000 0.000000 0.032809 0.000000 0.000000
# 5 0.000000 0.000000 0.000000 0.000000 0.043198 0.000000
# 6 0.000000 0.000000 0.000000 0.000000 0.000000 0.037245
#
#
# Mechanical properties :
#
#
# Convention : Reuss Voigt Hill
#
# Bulk Modulus (GPa) = 34.15087 38.62358 36.38722
# Shear Modulus (GPa) = 28.15827 32.05260 30.10544
#
# Velocity S-wave (km/s) = 3.39558 3.62279 3.51102
# Velocity P-wave (km/s) = 5.41822 5.77189 5.59785
#
# Compressibility (1/GPa) = 0.02928183
#
# Stress axis : x y z
#
# Youngs Moduli (GPa) = 87.13955 57.02567 77.47965
#
# Poissons Ratio (x) = -0.21110 0.20435
# Poissons Ratio (y) = -0.32258 0.57201
# Poissons Ratio (z) = 0.22983 0.42100
#
# Static dielectric constant tensor:
#      x y z
#    x 2.016380 0.000000 0.000000 
#    y 0.000000 2.060780 0.000000 
#    z 0.000000 0.000000 2.008250 
# 
# From -- ./inp_files/5151.got.cif
#   From: 2010.05.17/outbox.cif.g08.bks.cpg/sg56_3_cif.got.tgz:5151.got - 2010.06.03 13:42:01.
