data_PCOD9431963
_publ_section_title
;
Structure prediction by ZEFSAII (Michael W. Deem and Ramdas Pophale) SiO2 
 PCOD9431963
Probable space group: P C C N
;
_chemical_formula_sum "Si O2"
_cell_formula_units_Z 60
_cell_length_a 5.755722
_cell_length_b 20.810498
_cell_length_c 21.131382
_cell_angle_alpha 90.000000
_cell_angle_beta 90.000000
_cell_angle_gamma 90.000000
_cell_volume 2531.105127
_symmetry_space_group_name_H-M "P C C N"
_symmetry_group_IT_number 56
_symmetry_cell_setting 'orthorhombic'
loop_
_space_group_symop_operation_xyz
x,y,z
1/2-x,1/2-y,z
1/2+x,-y,1/2-z
-x,1/2+y,1/2-z
-x,-y,-z
1/2+x,1/2+y,-z
1/2-x,y,1/2+z
x,1/2-y,1/2+z
loop_
_atom_site_type_symbol
_atom_site_label
_atom_site_fract_x
_atom_site_fract_y
_atom_site_fract_z
Si Si1 0.743217 0.954653 0.430265
Si Si2 0.250000 0.750000 0.815459
Si Si3 0.072516 0.135774 0.672289
Si Si4 0.886531 0.935552 0.561349
Si Si5 0.190356 0.678974 0.088548
Si Si6 0.094158 0.187066 0.279607
Si Si7 0.008053 0.925267 0.131860
Si Si8 0.312318 0.964804 0.756218
O O1 0.773739 0.894854 0.383554
O O2 0.706264 0.936070 0.503090
O O3 0.571685 0.007498 0.401682
O O4 0.977938 0.997681 0.434415
O O5 0.444686 0.797327 0.845836
O O6 0.394255 0.702338 0.770977
O O7 0.227085 0.142376 0.737356
O O8 0.877038 0.081710 0.686543
O O9 0.767913 0.927709 0.630275
O O10 0.050940 0.874633 0.548471
O O11 0.250000 0.750000 0.064797
O O12 0.431597 0.642041 0.099827
O O13 0.040765 0.683009 0.153389
O O14 0.250000 0.250000 0.288377
O O15 0.168946 0.923831 0.192479
O O16 0.551283 0.007098 0.745028
#
# Coordination Sequence:
#
# PCOD9431963 Si02
#       8
#     8   4   8   8   8   8   8   8
#     4  10  22  44  65  96 125 170 223 284 343 410
#     4  10  22  40  60  88 128 182 220 264 348 424
#     4  11  23  39  65  93 135 175 227 280 346 429
#     4  10  23  42  68  90 128 171 225 280 346 405
#     4  11  24  39  62  97 127 171 225 279 338 402
#     4  10  22  38  60  90 127 173 214 269 338 411
#     4  11  23  39  65  95 130 171 221 276 343 409
#     4  12  26  40  65 106 142 174 223 290 355 418
#
# _framework density 23.705058999999999
#
# number of rings (size 3 to 8) (size 9 to 14) (size 15 to 20)
#    0.000    1.333    2.000    2.800    9.333    1.067 
#    1.200    0.000    5.867    0.000    0.000    0.000 
#    0.000    0.000    0.000    0.000    0.000    0.000 
#
# Total GULP energy -334197.790526 kJ/mol
# GULP energy per Si atom -5569.963175 kJ/mol
# Density = 2.365111 g / cm^3
# Si number density = 23.705059 Si / 1000 Ang^3
#
#
#
# Elastic Constant Matrix: (Units=GPa)
#
#
# Indices 1 2 3 4 5 6 
#
# 1 50.8498 -1.0961 -3.9127 0.0000 0.0000 0.0000
# 2 -1.0961 81.4756 13.8277 0.0000 0.0000 0.0000
# 3 -3.9127 13.8277 49.0025 0.0000 0.0000 0.0000
# 4 0.0000 0.0000 0.0000 17.4772 0.0000 0.0000
# 5 0.0000 0.0000 0.0000 0.0000 28.4809 0.0000
# 6 0.0000 0.0000 0.0000 0.0000 0.0000 43.6449
#
#
#
# Elastic Compliance Matrix: (Units=1/GPa)
#
#
# Indices 1 2 3 4 5 6 
#
# 1 0.019787 -0.000002 0.001581 0.000000 0.000000 0.000000
# 2 -0.000002 0.012891 -0.003638 0.000000 0.000000 0.000000
# 3 0.001581 -0.003638 0.021560 0.000000 0.000000 0.000000
# 4 0.000000 0.000000 0.000000 0.057217 0.000000 0.000000
# 5 0.000000 0.000000 0.000000 0.000000 0.035111 0.000000
# 6 0.000000 0.000000 0.000000 0.000000 0.000000 0.022912
#
#
# Mechanical properties :
#
#
# Convention : Reuss Voigt Hill
#
# Bulk Modulus (GPa) = 19.95231 22.10733 21.02982
# Shear Modulus (GPa) = 26.27376 29.42122 27.84749
#
# Velocity S-wave (km/s) = 3.33282 3.52680 3.43118
# Velocity P-wave (km/s) = 4.82135 5.09222 4.95863
#
# Compressibility (1/GPa) = 0.05011951
#
# Stress axis : x y z
#
# Youngs Moduli (GPa) = 50.53739 77.57364 46.38254
#
# Poissons Ratio (x) = 0.00016 -0.07331
# Poissons Ratio (y) = 0.00010 0.16873
# Poissons Ratio (z) = -0.07988 0.28220
#
# Static dielectric constant tensor:
#      x y z
#    x 1.972060 0.000000 0.000000 
#    y 0.000000 1.933470 0.000000 
#    z 0.000000 0.000000 1.973390 
# 
# From -- ./inp_files/20163.got.cif
#   From: 2010.05.17/outbox.cif.g08.bks.cpg/sg56_11_cif.got.tgz:20163.got - 2010.06.03 13:42:01.
