data_PCOD9431695
_publ_section_title
;
Structure prediction by ZEFSAII (Michael W. Deem and Ramdas Pophale) SiO2 
 PCOD9431695
Probable space group: P C C N
;
_chemical_formula_sum "Si O2"
_cell_formula_units_Z 64
_cell_length_a 25.784903
_cell_length_b 7.953672
_cell_length_c 13.436192
_cell_angle_alpha 90.000000
_cell_angle_beta 90.000000
_cell_angle_gamma 90.000000
_cell_volume 2755.556882
_symmetry_space_group_name_H-M "P C C N"
_symmetry_group_IT_number 56
_symmetry_cell_setting 'orthorhombic'
loop_
_space_group_symop_operation_xyz
x,y,z
1/2-x,1/2-y,z
1/2+x,-y,1/2-z
-x,1/2+y,1/2-z
-x,-y,-z
1/2+x,1/2+y,-z
1/2-x,y,1/2+z
x,1/2-y,1/2+z
loop_
_atom_site_type_symbol
_atom_site_label
_atom_site_fract_x
_atom_site_fract_y
_atom_site_fract_z
Si Si1 0.739200 0.422565 0.870602
Si Si2 0.938064 0.297842 0.847137
Si Si3 0.848169 0.337425 0.209241
Si Si4 0.031950 0.443828 0.311795
Si Si5 0.848181 0.643787 0.439997
Si Si6 0.122744 0.202157 0.370676
Si Si7 0.806115 0.662539 0.768080
Si Si8 0.403855 0.836905 0.460921
O O1 0.750000 0.250000 0.926218
O O2 0.703872 0.377038 0.772886
O O3 0.709516 0.559793 0.937380
O O4 0.792275 0.497094 0.827712
O O5 0.886177 0.250801 0.787649
O O6 0.960623 0.465431 0.794700
O O7 0.925853 0.303587 0.964381
O O8 0.976486 0.139686 0.828313
O O9 0.867892 0.518584 0.171365
O O10 0.856770 0.225219 0.109803
O O11 0.070438 0.288046 0.333756
O O12 0.050894 0.585957 0.390889
O O13 0.867112 0.790402 0.512269
O O14 0.846401 0.728128 0.332134
O O15 0.884286 0.487157 0.467457
O O16 0.166982 0.338099 0.337019
O O17 0.750000 0.750000 0.758617
#
# Coordination Sequence:
#
# PCOD9431695 Si02
#       8
#     8   8   8   8   8   8   8   8
#     4  11  24  42  62  91 130 173 218 273 325 382
#     4  11  21  44  66  96 134 168 216 269 330 395
#     4  11  23  43  66  95 131 174 216 275 329 387
#     4  10  24  38  69  97 128 177 211 269 331 390
#     4  10  22  41  61  93 125 168 209 267 324 385
#     4  11  22  41  64  94 130 166 220 263 325 394
#     4  10  21  41  62  89 126 172 213 269 318 380
#     4  10  22  41  67  97 131 166 220 267 331 394
#
# _framework density 23.225795000000002
#
# number of rings (size 3 to 8) (size 9 to 14) (size 15 to 20)
#    0.000    1.500    3.750    1.125    5.250    3.500 
#    2.250    8.125    0.000    0.000    0.000    0.000 
#    0.000    0.000    0.000    0.000    0.000    0.000 
#
# Total GULP energy -356964.884415 kJ/mol
# GULP energy per Si atom -5577.576319 kJ/mol
# Density = 2.317293 g / cm^3
# Si number density = 23.225795 Si / 1000 Ang^3
#
#
#
# Elastic Constant Matrix: (Units=GPa)
#
#
# Indices 1 2 3 4 5 6 
#
# 1 69.2931 10.3673 27.4267 0.0000 0.0000 0.0000
# 2 10.3673 77.3064 5.2703 0.0000 0.0000 0.0000
# 3 27.4267 5.2703 54.6610 0.0000 0.0000 0.0000
# 4 0.0000 0.0000 0.0000 9.7144 0.0000 0.0000
# 5 0.0000 0.0000 0.0000 0.0000 13.8426 0.0000
# 6 0.0000 0.0000 0.0000 0.0000 0.0000 29.0243
#
#
#
# Elastic Compliance Matrix: (Units=1/GPa)
#
#
# Indices 1 2 3 4 5 6 
#
# 1 0.018263 -0.001837 -0.008987 0.000000 0.000000 0.000000
# 2 -0.001837 0.013206 -0.000352 0.000000 0.000000 0.000000
# 3 -0.008987 -0.000352 0.022838 0.000000 0.000000 0.000000
# 4 0.000000 0.000000 0.000000 0.102940 0.000000 0.000000
# 5 0.000000 0.000000 0.000000 0.000000 0.072241 0.000000
# 6 0.000000 0.000000 0.000000 0.000000 0.000000 0.034454
#
#
# Mechanical properties :
#
#
# Convention : Reuss Voigt Hill
#
# Bulk Modulus (GPa) = 31.29235 31.93212 31.61223
# Shear Modulus (GPa) = 16.83819 21.06266 18.95043
#
# Velocity S-wave (km/s) = 2.69546 3.01469 2.85953
# Velocity P-wave (km/s) = 4.81557 5.08883 4.95408
#
# Compressibility (1/GPa) = 0.03195669
#
# Stress axis : x y z
#
# Youngs Moduli (GPa) = 54.75485 75.72417 43.78734
#
# Poissons Ratio (x) = 0.13907 0.39350
# Poissons Ratio (y) = 0.10056 0.01540
# Poissons Ratio (z) = 0.49206 0.02664
#
# Static dielectric constant tensor:
#      x y z
#    x 1.860020 0.000000 0.000000 
#    y 0.000000 1.925620 0.000000 
#    z 0.000000 0.000000 1.886300 
# 
# From -- ./inp_files/9175.got.cif
#   From: 2010.05.17/outbox.cif.g08.bks.cpg/sg56_5_cif.got.tgz:9175.got - 2010.06.03 13:42:01.
