data_PCOD9431230
_publ_section_title
;
Structure prediction by ZEFSAII (Michael W. Deem and Ramdas Pophale) SiO2 
 PCOD9431230
Probable space group: P C C N
;
_chemical_formula_sum "Si O2"
_cell_formula_units_Z 40
_cell_length_a 13.720295
_cell_length_b 14.213184
_cell_length_c 8.489026
_cell_angle_alpha 90.000000
_cell_angle_beta 90.000000
_cell_angle_gamma 90.000000
_cell_volume 1655.437128
_symmetry_space_group_name_H-M "P C C N"
_symmetry_group_IT_number 56
_symmetry_cell_setting 'orthorhombic'
loop_
_space_group_symop_operation_xyz
x,y,z
1/2-x,1/2-y,z
1/2+x,-y,1/2-z
-x,1/2+y,1/2-z
-x,-y,-z
1/2+x,1/2+y,-z
1/2-x,y,1/2+z
x,1/2-y,1/2+z
loop_
_atom_site_type_symbol
_atom_site_label
_atom_site_fract_x
_atom_site_fract_y
_atom_site_fract_z
Si Si1 0.467325 0.889801 0.150498
Si Si2 0.509034 0.708057 0.980452
Si Si3 0.292539 0.482939 0.607780
Si Si4 0.208359 0.152827 0.880989
Si Si5 0.433956 0.960700 0.646402
O O1 0.500843 0.818015 0.016269
O O2 0.471629 0.828826 0.312626
O O3 0.361348 0.927703 0.103804
O O4 0.528109 0.983414 0.199938
O O5 0.622576 0.680189 0.999755
O O6 0.452336 0.649705 0.117780
O O7 0.329326 0.418076 0.750500
O O8 0.289678 0.409469 0.465316
O O9 0.180038 0.515356 0.626534
O O10 0.250000 0.250000 0.814760
O O11 0.500000 0.000000 0.500000
#
# Coordination Sequence:
#
# PCOD9431230 Si02
#       5
#     8   8   8   8   8
#     4  11  24  44  75 107 146 196 245 305 374 447
#     4  11  24  47  72 104 154 198 242 313 377 436
#     4  12  24  45  74 107 143 199 245 305 384 441
#     4  12  25  42  75 110 142 193 260 310 365 447
#     4  10  20  46  69  96 151 195 235 306 368 434
#
# _framework density 24.162803
#
# number of rings (size 3 to 8) (size 9 to 14) (size 15 to 20)
#    0.000    0.800    6.000    3.000    2.800    2.400 
#    0.000    7.000    0.000    0.000    0.000    0.000 
#    0.000    0.000    0.000    0.000    0.000    0.000 
#
# Total GULP energy -223757.738517 kJ/mol
# GULP energy per Si atom -5593.943463 kJ/mol
# Density = 2.410781 g / cm^3
# Si number density = 24.162803 Si / 1000 Ang^3
#
#
#
# Elastic Constant Matrix: (Units=GPa)
#
#
# Indices 1 2 3 4 5 6 
#
# 1 151.7323 51.6820 18.3828 0.0000 0.0000 0.0000
# 2 51.6820 123.4984 37.3816 0.0000 0.0000 0.0000
# 3 18.3828 37.3816 71.4049 0.0000 0.0000 0.0000
# 4 0.0000 0.0000 0.0000 48.2430 0.0000 0.0000
# 5 0.0000 0.0000 0.0000 0.0000 25.8427 0.0000
# 6 0.0000 0.0000 0.0000 0.0000 0.0000 39.1365
#
#
#
# Elastic Compliance Matrix: (Units=1/GPa)
#
#
# Indices 1 2 3 4 5 6 
#
# 1 0.007694 -0.003113 -0.000351 0.000000 0.000000 0.000000
# 2 -0.003113 0.010882 -0.004895 0.000000 0.000000 0.000000
# 3 -0.000351 -0.004895 0.016658 0.000000 0.000000 0.000000
# 4 0.000000 0.000000 0.000000 0.020728 0.000000 0.000000
# 5 0.000000 0.000000 0.000000 0.000000 0.038696 0.000000
# 6 0.000000 0.000000 0.000000 0.000000 0.000000 0.025552
#
#
# Mechanical properties :
#
#
# Convention : Reuss Voigt Hill
#
# Bulk Modulus (GPa) = 54.01262 62.39205 58.20234
# Shear Modulus (GPa) = 34.94076 38.59037 36.76556
#
# Velocity S-wave (km/s) = 3.80683 4.00071 3.90497
# Velocity P-wave (km/s) = 6.45947 6.87157 6.66870
#
# Compressibility (1/GPa) = 0.01851419
#
# Stress axis : x y z
#
# Youngs Moduli (GPa) = 129.97942 91.89522 60.03225
#
# Poissons Ratio (x) = 0.28611 0.02105
# Poissons Ratio (y) = 0.40468 0.29388
# Poissons Ratio (z) = 0.04559 0.44986
#
# Static dielectric constant tensor:
#      x y z
#    x 1.911390 0.000000 0.000000 
#    y 0.000000 1.935530 0.000000 
#    z 0.000000 0.000000 2.028710 
# 
# From -- ./inp_files/3237.got.cif
#   From: 2010.05.17/outbox.cif.g08.bks.cpg/sg56_2_cif.got.tgz:3237.got - 2010.06.03 13:42:01.
