data_PCOD9431976
_publ_section_title
;
Structure prediction by ZEFSAII (Michael W. Deem and Ramdas Pophale) SiO2 
 PCOD9431976
Probable space group: P C C N
;
_chemical_formula_sum "Si O2"
_cell_formula_units_Z 32
_cell_length_a 13.845781
_cell_length_b 9.352800
_cell_length_c 9.072953
_cell_angle_alpha 90.000000
_cell_angle_beta 90.000000
_cell_angle_gamma 90.000000
_cell_volume 1174.918566
_symmetry_space_group_name_H-M "P C C N"
_symmetry_group_IT_number 56
_symmetry_cell_setting 'orthorhombic'
loop_
_space_group_symop_operation_xyz
x,y,z
1/2-x,1/2-y,z
1/2+x,-y,1/2-z
-x,1/2+y,1/2-z
-x,-y,-z
1/2+x,1/2+y,-z
1/2-x,y,1/2+z
x,1/2-y,1/2+z
loop_
_atom_site_type_symbol
_atom_site_label
_atom_site_fract_x
_atom_site_fract_y
_atom_site_fract_z
Si Si1 0.273296 0.554411 0.740867
Si Si2 0.958203 0.070857 0.733851
Si Si3 0.250000 0.250000 0.853941
Si Si4 0.539774 0.708771 0.560693
Si Si5 0.250000 0.750000 0.489743
O O1 0.307924 0.643216 0.882841
O O2 0.284868 0.386704 0.759979
O O3 0.505496 0.860485 0.622454
O O4 0.156836 0.574787 0.744109
O O5 0.805784 0.138832 0.404331
O O6 0.994229 0.159885 0.592039
O O7 0.983652 0.909527 0.686929
O O8 0.156359 0.292051 0.947599
#
# Coordination Sequence:
#
# PCOD9431976 Si02
#       5
#     8   8   4   8   4
#     4  10  22  40  62  91 126 166 210 258 311 370
#     4  10  22  40  61  89 124 163 206 252 305 367
#     4  10  24  40  64  96 128 164 210 262 312 368
#     4  10  23  40  62  90 125 162 205 255 307 366
#     4  10  22  38  62  90 126 166 208 258 314 372
#
# _framework density 27.235928999999999
#
# number of rings (size 3 to 8) (size 9 to 14) (size 15 to 20)
#    0.000    2.000    0.000    1.500    0.000   17.000 
#    0.000    0.000    0.000    0.000    0.000    0.000 
#    0.000    0.000    0.000    0.000    0.000    0.000 
#
# Total GULP energy -179416.086078 kJ/mol
# GULP energy per Si atom -5606.752690 kJ/mol
# Density = 2.717394 g / cm^3
# Si number density = 27.235929 Si / 1000 Ang^3
#
#
#
# Elastic Constant Matrix: (Units=GPa)
#
#
# Indices 1 2 3 4 5 6 
#
# 1 123.1318 9.7952 15.4168 0.0000 0.0000 0.0000
# 2 9.7952 184.9897 62.7581 0.0000 0.0000 0.0000
# 3 15.4168 62.7581 117.2960 0.0000 0.0000 0.0000
# 4 0.0000 0.0000 0.0000 38.1961 0.0000 0.0000
# 5 0.0000 0.0000 0.0000 0.0000 18.6728 0.0000
# 6 0.0000 0.0000 0.0000 0.0000 0.0000 36.4286
#
#
#
# Elastic Compliance Matrix: (Units=1/GPa)
#
#
# Indices 1 2 3 4 5 6 
#
# 1 0.008258 -0.000084 -0.001040 0.000000 0.000000 0.000000
# 2 -0.000084 0.006605 -0.003523 0.000000 0.000000 0.000000
# 3 -0.001040 -0.003523 0.010547 0.000000 0.000000 0.000000
# 4 0.000000 0.000000 0.000000 0.026181 0.000000 0.000000
# 5 0.000000 0.000000 0.000000 0.000000 0.053554 0.000000
# 6 0.000000 0.000000 0.000000 0.000000 0.000000 0.027451
#
#
# Mechanical properties :
#
#
# Convention : Reuss Voigt Hill
#
# Bulk Modulus (GPa) = 62.05228 66.81753 64.43491
# Shear Modulus (GPa) = 33.95272 41.15599 37.55435
#
# Velocity S-wave (km/s) = 3.53457 3.89149 3.71732
# Velocity P-wave (km/s) = 6.28413 6.69162 6.49107
#
# Compressibility (1/GPa) = 0.01611544
#
# Stress axis : x y z
#
# Youngs Moduli (GPa) = 121.08970 151.39181 94.81228
#
# Poissons Ratio (x) = 0.01277 0.09863
# Poissons Ratio (y) = 0.01021 0.33403
# Poissons Ratio (z) = 0.12597 0.53336
#
# Static dielectric constant tensor:
#      x y z
#    x 2.176990 0.000000 0.000000 
#    y 0.000000 2.085620 0.000000 
#    z 0.000000 0.000000 2.072790 
# 
# From -- ./inp_files/7577.got.cif
#   From: 2010.05.17/outbox.cif.g08.bks.cpg/sg56_4_cif.got.tgz:7577.got - 2010.06.03 13:42:01.
