data_PCOD9431086
_publ_section_title
;
Structure prediction by ZEFSAII (Michael W. Deem and Ramdas Pophale) SiO2 
 PCOD9431086
Probable space group: P C C N
;
_chemical_formula_sum "Si O2"
_cell_formula_units_Z 40
_cell_length_a 7.334035
_cell_length_b 15.871122
_cell_length_c 17.208990
_cell_angle_alpha 90.000000
_cell_angle_beta 90.000000
_cell_angle_gamma 90.000000
_cell_volume 2003.115495
_symmetry_space_group_name_H-M "P C C N"
_symmetry_group_IT_number 56
_symmetry_cell_setting 'orthorhombic'
loop_
_space_group_symop_operation_xyz
x,y,z
1/2-x,1/2-y,z
1/2+x,-y,1/2-z
-x,1/2+y,1/2-z
-x,-y,-z
1/2+x,1/2+y,-z
1/2-x,y,1/2+z
x,1/2-y,1/2+z
loop_
_atom_site_type_symbol
_atom_site_label
_atom_site_fract_x
_atom_site_fract_y
_atom_site_fract_z
Si Si1 0.411099 0.682897 0.336764
Si Si2 0.759678 0.909912 0.539242
Si Si3 0.086043 0.186553 0.821674
Si Si4 0.750000 0.250000 0.416408
Si Si5 0.825530 0.088207 0.510450
Si Si6 0.750000 0.750000 0.930074
O O1 0.250000 0.750000 0.323893
O O2 0.489048 0.650607 0.254989
O O3 0.357914 0.611304 0.399064
O O4 0.574465 0.732395 0.378730
O O5 0.669817 0.883725 0.620707
O O6 0.717350 0.831568 0.483305
O O7 0.981397 0.917345 0.535760
O O8 0.712791 0.002277 0.507071
O O9 0.250000 0.250000 0.800962
O O10 0.931803 0.242522 0.865056
O O11 0.736503 0.168847 0.471097
#
# Coordination Sequence:
#
# PCOD9431086 Si02
#       6
#     8   8   8   4   8   4
#     4  11  22  39  62  93 127 164 208 256 315 378
#     4  10  21  41  66  94 124 163 210 262 313 367
#     4  12  22  40  63  93 127 169 207 258 319 373
#     4  12  22  40  70  92 122 166 216 260 308 368
#     4  10  22  41  67  95 125 161 217 263 306 375
#     4  10  20  40  68  88 120 168 204 258 318 358
#
# _framework density 19.968893000000001
#
# number of rings (size 3 to 8) (size 9 to 14) (size 15 to 20)
#    0.000    1.200    6.000    1.200    0.000    0.800 
#    0.000    8.000    0.000    0.000    0.000    0.000 
#    0.000    0.000    0.000    0.000    0.000    0.000 
#
# Total GULP energy -223274.650299 kJ/mol
# GULP energy per Si atom -5581.866257 kJ/mol
# Density = 1.992344 g / cm^3
# Si number density = 19.968893 Si / 1000 Ang^3
#
#
#
# Elastic Constant Matrix: (Units=GPa)
#
#
# Indices 1 2 3 4 5 6 
#
# 1 87.0199 22.1374 40.8992 0.0000 0.0000 0.0000
# 2 22.1374 124.9528 44.1095 0.0000 0.0000 0.0000
# 3 40.8992 44.1095 131.4360 0.0000 0.0000 0.0000
# 4 0.0000 0.0000 0.0000 12.0437 0.0000 0.0000
# 5 0.0000 0.0000 0.0000 0.0000 96.2440 0.0000
# 6 0.0000 0.0000 0.0000 0.0000 0.0000 19.4216
#
#
#
# Elastic Compliance Matrix: (Units=1/GPa)
#
#
# Indices 1 2 3 4 5 6 
#
# 1 0.013578 -0.001037 -0.003877 0.000000 0.000000 0.000000
# 2 -0.001037 0.009158 -0.002751 0.000000 0.000000 0.000000
# 3 -0.003877 -0.002751 0.009738 0.000000 0.000000 0.000000
# 4 0.000000 0.000000 0.000000 0.083031 0.000000 0.000000
# 5 0.000000 0.000000 0.000000 0.000000 0.010390 0.000000
# 6 0.000000 0.000000 0.000000 0.000000 0.000000 0.051489
#
#
# Mechanical properties :
#
#
# Convention : Reuss Voigt Hill
#
# Bulk Modulus (GPa) = 58.32926 61.96677 60.14801
# Shear Modulus (GPa) = 25.19819 41.29270 33.24545
#
# Velocity S-wave (km/s) = 3.55614 4.55230 4.08470
# Velocity P-wave (km/s) = 6.79227 7.66356 7.24104
#
# Compressibility (1/GPa) = 0.01714405
#
# Stress axis : x y z
#
# Youngs Moduli (GPa) = 73.65085 109.19734 102.69272
#
# Poissons Ratio (x) = 0.11322 0.39814
# Poissons Ratio (y) = 0.07637 0.28247
# Poissons Ratio (z) = 0.28554 0.30037
#
# Static dielectric constant tensor:
#      x y z
#    x 1.747440 0.000000 0.000000 
#    y 0.000000 1.715850 0.000000 
#    z 0.000000 0.000000 1.716880 
# 
# From -- ./inp_files/14644.got.cif
#   From: 2010.05.17/outbox.cif.g08.bks.cpg/sg56_8_cif.got.tgz:14644.got - 2010.06.03 13:42:01.
