data_PCOD9431427
_publ_section_title
;
Structure prediction by ZEFSAII (Michael W. Deem and Ramdas Pophale) SiO2 
 PCOD9431427
Probable space group: P C C N
;
_chemical_formula_sum "Si O2"
_cell_formula_units_Z 64
_cell_length_a 5.633333
_cell_length_b 20.007319
_cell_length_c 22.884404
_cell_angle_alpha 90.000000
_cell_angle_beta 90.000000
_cell_angle_gamma 90.000000
_cell_volume 2579.252897
_symmetry_space_group_name_H-M "P C C N"
_symmetry_group_IT_number 56
_symmetry_cell_setting 'orthorhombic'
loop_
_space_group_symop_operation_xyz
x,y,z
1/2-x,1/2-y,z
1/2+x,-y,1/2-z
-x,1/2+y,1/2-z
-x,-y,-z
1/2+x,1/2+y,-z
1/2-x,y,1/2+z
x,1/2-y,1/2+z
loop_
_atom_site_type_symbol
_atom_site_label
_atom_site_fract_x
_atom_site_fract_y
_atom_site_fract_z
Si Si1 0.472975 0.523001 0.181696
Si Si2 0.500004 0.710995 0.576377
Si Si3 0.499109 0.292615 0.295123
Si Si4 0.244532 0.897442 0.274759
Si Si5 0.231100 0.487325 0.435099
Si Si6 0.998098 0.250891 0.547722
Si Si7 0.403820 0.070681 0.134753
Si Si8 0.100666 0.395190 0.528533
O O1 0.422730 0.588474 0.219000
O O2 0.663197 0.471110 0.207372
O O3 0.555788 0.537922 0.115934
O O4 0.241378 0.476280 0.178053
O O5 0.750000 0.750000 0.581702
O O6 0.506020 0.672870 0.639586
O O7 0.499487 0.697447 0.505687
O O8 0.250000 0.750000 0.582402
O O9 0.750000 0.250000 0.291819
O O10 0.546769 0.348387 0.245216
O O11 0.250000 0.250000 0.287644
O O12 0.082534 0.880780 0.330880
O O13 0.459840 0.517577 0.405436
O O14 0.266709 0.427700 0.479639
O O15 0.109584 0.550936 0.465914
O O16 0.250000 0.250000 0.579575
O O17 0.002805 0.322811 0.515569
O O18 0.750000 0.250000 0.580905
O O19 0.223042 0.106710 0.091724
#
# Coordination Sequence:
#
# PCOD9431427 Si02
#       8
#     8   8   8   8   8   8   8   8
#     4  10  21  38  62 100 129 174 227 285 352 416
#     4   8  16  35  53  85 124 163 206 265 324 392
#     4  10  23  40  64  93 134 182 227 280 344 414
#     4  11  22  39  67  93 137 179 231 293 353 423
#     4   9  21  39  64 100 130 170 222 280 350 421
#     4  10  22  39  63  93 132 173 220 274 335 407
#     4  10  21  40  64  95 133 172 227 289 342 423
#     4  10  21  40  67  94 135 173 220 283 353 416
#
# _framework density 24.813388
#
# number of rings (size 3 to 8) (size 9 to 14) (size 15 to 20)
#    0.000    2.250    1.250    0.375    3.500    3.000 
#    6.750    0.000    8.250    0.000    0.000    0.000 
#    0.000    0.000    0.000    0.000    0.000    0.000 
#
# Total GULP energy -356700.799362 kJ/mol
# GULP energy per Si atom -5573.449990 kJ/mol
# Density = 2.475691 g / cm^3
# Si number density = 24.813388 Si / 1000 Ang^3
#
#
#
# Elastic Constant Matrix: (Units=GPa)
#
#
# Indices 1 2 3 4 5 6 
#
# 1 136.2458 16.8408 6.3587 0.0000 0.0000 0.0000
# 2 16.8408 82.4174 18.3890 0.0000 0.0000 0.0000
# 3 6.3587 18.3890 51.3248 0.0000 0.0000 0.0000
# 4 0.0000 0.0000 0.0000 12.6122 0.0000 0.0000
# 5 0.0000 0.0000 0.0000 0.0000 2.0852 0.0000
# 6 0.0000 0.0000 0.0000 0.0000 0.0000 21.8771
#
#
#
# Elastic Compliance Matrix: (Units=1/GPa)
#
#
# Indices 1 2 3 4 5 6 
#
# 1 0.007538 -0.001448 -0.000415 0.000000 0.000000 0.000000
# 2 -0.001448 0.013466 -0.004645 0.000000 0.000000 0.000000
# 3 -0.000415 -0.004645 0.021200 0.000000 0.000000 0.000000
# 4 0.000000 0.000000 0.000000 0.079288 0.000000 0.000000
# 5 0.000000 0.000000 0.000000 0.000000 0.479559 0.000000
# 6 0.000000 0.000000 0.000000 0.000000 0.000000 0.045710
#
#
# Mechanical properties :
#
#
# Convention : Reuss Voigt Hill
#
# Bulk Modulus (GPa) = 34.26184 39.24056 36.75120
# Shear Modulus (GPa) = 7.46820 22.54155 15.00488
#
# Velocity S-wave (km/s) = 1.73674 3.01731 2.46175
# Velocity P-wave (km/s) = 4.22605 5.29032 4.78785
#
# Compressibility (1/GPa) = 0.02918699
#
# Stress axis : x y z
#
# Youngs Moduli (GPa) = 132.66140 74.26326 47.17092
#
# Poissons Ratio (x) = 0.10751 0.01959
# Poissons Ratio (y) = 0.19205 0.21912
# Poissons Ratio (z) = 0.05508 0.34497
#
# Static dielectric constant tensor:
#      x y z
#    x 2.065020 0.000000 0.000000 
#    y 0.000000 2.043300 0.000000 
#    z 0.000000 0.000000 2.050560 
# 
# From -- ./inp_files/21841.got.cif
#   From: 2010.05.17/outbox.cif.g08.bks.cpg/sg56_11_cif.got.tgz:21841.got - 2010.06.03 13:42:01.
