data_PCOD9431821
_publ_section_title
;
Structure prediction by ZEFSAII (Michael W. Deem and Ramdas Pophale) SiO2 
 PCOD9431821
Probable space group: P C C N
;
_chemical_formula_sum "Si O2"
_cell_formula_units_Z 32
_cell_length_a 5.109523
_cell_length_b 8.512160
_cell_length_c 28.980245
_cell_angle_alpha 90.000000
_cell_angle_beta 90.000000
_cell_angle_gamma 90.000000
_cell_volume 1260.440036
_symmetry_space_group_name_H-M "P C C N"
_symmetry_group_IT_number 56
_symmetry_cell_setting 'orthorhombic'
loop_
_space_group_symop_operation_xyz
x,y,z
1/2-x,1/2-y,z
1/2+x,-y,1/2-z
-x,1/2+y,1/2-z
-x,-y,-z
1/2+x,1/2+y,-z
1/2-x,y,1/2+z
x,1/2-y,1/2+z
loop_
_atom_site_type_symbol
_atom_site_label
_atom_site_fract_x
_atom_site_fract_y
_atom_site_fract_z
Si Si1 0.588635 0.986697 0.870261
Si Si2 0.750000 0.750000 0.109596
Si Si3 0.250000 0.250000 0.258793
Si Si4 0.897202 0.427001 0.688937
Si Si5 0.124052 0.921152 0.044476
O O1 0.352126 0.897119 0.844833
O O2 0.849882 0.950793 0.843062
O O3 0.485650 0.165523 0.864840
O O4 0.670141 0.978082 0.924610
O O5 0.616830 0.618625 0.078207
O O6 0.164215 0.406567 0.286005
O O7 0.493296 0.308525 0.227610
O O8 0.250000 0.750000 0.033710
O O9 0.000000 0.000000 0.000000
#
# Coordination Sequence:
#
# PCOD9431821 Si02
#       5
#     8   4   4   8   8
#     4  11  24  43  77 110 149 208 258 328 378 498
#     4  10  21  42  75 108 144 220 254 309 398 471
#     4  12  31  50  81 118 158 216 258 357 388 495
#     4  12  28  50  78 113 160 204 281 319 420 462
#     4  10  23  44  76 117 154 204 265 320 401 473
#
# _framework density 25.38796
#
# number of rings (size 3 to 8) (size 9 to 14) (size 15 to 20)
#    0.000    1.000    2.500    2.250    7.000   14.000 
#    0.000    3.750    0.000    0.000    0.000    0.000 
#    0.000    0.000    0.000    0.000    0.000    0.000 
#
# Total GULP energy -178960.330111 kJ/mol
# GULP energy per Si atom -5592.510316 kJ/mol
# Density = 2.533018 g / cm^3
# Si number density = 25.387960 Si / 1000 Ang^3
#
#
#
# Elastic Constant Matrix: (Units=GPa)
#
#
# Indices 1 2 3 4 5 6 
#
# 1 235.5539 60.8361 90.4175 0.0000 0.0000 0.0000
# 2 60.8361 97.5750 81.4224 0.0000 0.0000 0.0000
# 3 90.4175 81.4224 146.6253 0.0000 0.0000 0.0000
# 4 0.0000 0.0000 0.0000 38.9304 0.0000 0.0000
# 5 0.0000 0.0000 0.0000 0.0000 37.8554 0.0000
# 6 0.0000 0.0000 0.0000 0.0000 0.0000 52.9080
#
#
#
# Elastic Compliance Matrix: (Units=1/GPa)
#
#
# Indices 1 2 3 4 5 6 
#
# 1 0.005629 -0.001142 -0.002837 0.000000 0.000000 0.000000
# 2 -0.001142 0.019330 -0.010030 0.000000 0.000000 0.000000
# 3 -0.002837 -0.010030 0.014139 0.000000 0.000000 0.000000
# 4 0.000000 0.000000 0.000000 0.025687 0.000000 0.000000
# 5 0.000000 0.000000 0.000000 0.000000 0.026416 0.000000
# 6 0.000000 0.000000 0.000000 0.000000 0.000000 0.018901
#
#
# Mechanical properties :
#
#
# Convention : Reuss Voigt Hill
#
# Bulk Modulus (GPa) = 90.24948 105.01179 97.63064
# Shear Modulus (GPa) = 35.25735 42.41065 38.83400
#
# Velocity S-wave (km/s) = 3.73063 4.09161 3.91528
# Velocity P-wave (km/s) = 7.36085 7.98588 7.67973
#
# Compressibility (1/GPa) = 0.01108040
#
# Stress axis : x y z
#
# Youngs Moduli (GPa) = 177.64071 51.73241 70.72565
#
# Poissons Ratio (x) = 0.05910 0.20065
# Poissons Ratio (y) = 0.20295 0.70936
# Poissons Ratio (z) = 0.50396 0.51886
#
# Static dielectric constant tensor:
#      x y z
#    x 2.034350 0.000000 0.000000 
#    y 0.000000 2.201540 0.000000 
#    z 0.000000 0.000000 2.054260 
# 
# From -- ./inp_files/22673.got.cif
#   From: 2010.05.17/outbox.cif.g08.bks.cpg/sg56_12_cif.got.tgz:22673.got - 2010.06.03 13:42:01.
