data_PCOD9431085
_publ_section_title
;
Structure prediction by ZEFSAII (Michael W. Deem and Ramdas Pophale) SiO2 
 PCOD9431085
Probable space group: P C C N
;
_chemical_formula_sum "Si O2"
_cell_formula_units_Z 60
_cell_length_a 29.086244
_cell_length_b 5.710050
_cell_length_c 17.994683
_cell_angle_alpha 90.000000
_cell_angle_beta 90.000000
_cell_angle_gamma 90.000000
_cell_volume 2988.627268
_symmetry_space_group_name_H-M "P C C N"
_symmetry_group_IT_number 56
_symmetry_cell_setting 'orthorhombic'
loop_
_space_group_symop_operation_xyz
x,y,z
1/2-x,1/2-y,z
1/2+x,-y,1/2-z
-x,1/2+y,1/2-z
-x,-y,-z
1/2+x,1/2+y,-z
1/2-x,y,1/2+z
x,1/2-y,1/2+z
loop_
_atom_site_type_symbol
_atom_site_label
_atom_site_fract_x
_atom_site_fract_y
_atom_site_fract_z
Si Si1 0.909533 0.298671 0.834226
Si Si2 0.832356 0.535496 0.259534
Si Si3 0.472727 0.027440 0.577791
Si Si4 0.115148 0.346520 0.043148
Si Si5 0.300656 0.144465 0.117491
Si Si6 0.750000 0.250000 0.818334
Si Si7 0.441283 0.572570 0.824967
Si Si8 0.896195 0.929330 0.627611
O O1 0.883254 0.460823 0.892167
O O2 0.932452 0.426302 0.763459
O O3 0.874245 0.104682 0.801003
O O4 0.950196 0.200941 0.886159
O O5 0.822663 0.771412 0.304579
O O6 0.783910 0.402204 0.266855
O O7 0.850334 0.583143 0.177264
O O8 0.428854 0.189699 0.561593
O O9 0.507764 0.106902 0.641981
O O10 0.500000 0.000000 0.500000
O O11 0.166233 0.247312 0.054953
O O12 0.110358 0.434627 0.960216
O O13 0.250000 0.250000 0.109361
O O14 0.286493 0.876731 0.128064
O O15 0.423585 0.315984 0.854021
O O16 0.417383 0.815711 0.851805
#
# Coordination Sequence:
#
# PCOD9431085 Si02
#       8
#     8   8   8   8   8   4   8   8
#     4  11  25  40  73  95 136 187 241 285 348 419
#     4  10  21  42  69 100 130 181 234 288 352 418
#     4  12  26  44  66 101 144 187 235 291 353 414
#     4  12  24  43  70  99 139 188 228 289 359 417
#     4  10  21  40  69  99 131 172 231 289 346 424
#     4  10  20  40  68 104 130 172 236 298 346 422
#     4  11  27  46  67 103 138 187 241 289 334 417
#     4  11  26  45  71  99 146 182 227 289 355 418
#
# _framework density 20.076107
#
# number of rings (size 3 to 8) (size 9 to 14) (size 15 to 20)
#    0.000    1.067    4.000    1.600    7.467    1.067 
#    0.000    2.667    0.000    0.000    0.000    0.000 
#    0.000    0.000    0.000    0.000    0.000    0.000 
#
# Total GULP energy -334125.201239 kJ/mol
# GULP energy per Si atom -5568.753354 kJ/mol
# Density = 2.003041 g / cm^3
# Si number density = 20.076107 Si / 1000 Ang^3
#
#
#
# Elastic Constant Matrix: (Units=GPa)
#
#
# Indices 1 2 3 4 5 6 
#
# 1 115.8980 24.6165 38.5454 0.0000 0.0000 0.0000
# 2 24.6165 65.7384 30.3610 0.0000 0.0000 0.0000
# 3 38.5454 30.3610 121.7259 0.0000 0.0000 0.0000
# 4 0.0000 0.0000 0.0000 19.5340 0.0000 0.0000
# 5 0.0000 0.0000 0.0000 0.0000 10.1978 0.0000
# 6 0.0000 0.0000 0.0000 0.0000 0.0000 34.1876
#
#
#
# Elastic Compliance Matrix: (Units=1/GPa)
#
#
# Indices 1 2 3 4 5 6 
#
# 1 0.010018 -0.002584 -0.002528 0.000000 0.000000 0.000000
# 2 -0.002584 0.017859 -0.003636 0.000000 0.000000 0.000000
# 3 -0.002528 -0.003636 0.009923 0.000000 0.000000 0.000000
# 4 0.000000 0.000000 0.000000 0.051193 0.000000 0.000000
# 5 0.000000 0.000000 0.000000 0.000000 0.098060 0.000000
# 6 0.000000 0.000000 0.000000 0.000000 0.000000 0.029250
#
#
# Mechanical properties :
#
#
# Convention : Reuss Voigt Hill
#
# Bulk Modulus (GPa) = 49.25243 54.48977 51.87110
# Shear Modulus (GPa) = 20.78437 26.77319 23.77878
#
# Velocity S-wave (km/s) = 3.22107 3.65579 3.44529
# Velocity P-wave (km/s) = 6.19837 6.70971 6.45910
#
# Compressibility (1/GPa) = 0.02030357
#
# Stress axis : x y z
#
# Youngs Moduli (GPa) = 99.82276 55.99511 100.78073
#
# Poissons Ratio (x) = 0.14468 0.25475
# Poissons Ratio (y) = 0.25793 0.36645
# Poissons Ratio (z) = 0.25233 0.20361
#
# Static dielectric constant tensor:
#      x y z
#    x 1.900620 0.000000 0.000000 
#    y 0.000000 1.860600 0.000000 
#    z 0.000000 0.000000 1.682970 
# 
# From -- ./inp_files/17033.got.cif
#   From: 2010.05.17/outbox.cif.g08.bks.cpg/sg56_9_cif.got.tgz:17033.got - 2010.06.03 13:42:01.
