data_PCOD9431515
_publ_section_title
;
Structure prediction by ZEFSAII (Michael W. Deem and Ramdas Pophale) SiO2 
 PCOD9431515
Probable space group: P C C N
;
_chemical_formula_sum "Si O2"
_cell_formula_units_Z 40
_cell_length_a 11.333579
_cell_length_b 16.326472
_cell_length_c 10.919593
_cell_angle_alpha 90.000000
_cell_angle_beta 90.000000
_cell_angle_gamma 90.000000
_cell_volume 2020.532663
_symmetry_space_group_name_H-M "P C C N"
_symmetry_group_IT_number 56
_symmetry_cell_setting 'orthorhombic'
loop_
_space_group_symop_operation_xyz
x,y,z
1/2-x,1/2-y,z
1/2+x,-y,1/2-z
-x,1/2+y,1/2-z
-x,-y,-z
1/2+x,1/2+y,-z
1/2-x,y,1/2+z
x,1/2-y,1/2+z
loop_
_atom_site_type_symbol
_atom_site_label
_atom_site_fract_x
_atom_site_fract_y
_atom_site_fract_z
Si Si1 0.478865 0.253511 0.549509
Si Si2 0.361417 0.412317 0.046977
Si Si3 0.516245 0.042758 0.311994
Si Si4 0.882163 0.216740 0.796839
Si Si5 0.095959 0.058760 0.561935
O O1 0.375942 0.185315 0.558902
O O2 0.554682 0.247364 0.675134
O O3 0.552982 0.238003 0.425055
O O4 0.434845 0.346220 0.542546
O O5 0.414709 0.458893 0.164682
O O6 0.231664 0.447752 0.024134
O O7 0.445011 0.434954 0.933874
O O8 0.605266 0.118008 0.285200
O O9 0.421483 0.039572 0.204670
O O10 0.750000 0.250000 0.801740
O O11 0.000000 0.000000 0.500000
#
# Coordination Sequence:
#
# PCOD9431515 Si02
#       5
#     8   8   8   8   8
#     4  10  23  40  61  93 122 168 211 250 325 370
#     4  10  22  43  65  84 130 166 200 262 311 379
#     4   9  23  41  60  95 120 164 208 248 325 367
#     4  10  21  39  62  91 128 162 210 261 306 378
#     4  11  25  39  63  97 120 161 217 258 310 376
#
# _framework density 19.796759999999999
#
# number of rings (size 3 to 8) (size 9 to 14) (size 15 to 20)
#    0.000    2.000    0.000    1.200    8.400    0.000 
#    7.200    6.000    0.000    0.000    0.000    0.000 
#    0.000    0.000    0.000    0.000    0.000    0.000 
#
# Total GULP energy -223104.946218 kJ/mol
# GULP energy per Si atom -5577.623655 kJ/mol
# Density = 1.975170 g / cm^3
# Si number density = 19.796760 Si / 1000 Ang^3
#
#
#
# Elastic Constant Matrix: (Units=GPa)
#
#
# Indices 1 2 3 4 5 6 
#
# 1 96.0029 33.5064 -6.4175 0.0000 0.0000 0.0000
# 2 33.5064 90.8287 7.6603 0.0000 0.0000 0.0000
# 3 -6.4175 7.6603 68.5950 0.0000 0.0000 0.0000
# 4 0.0000 0.0000 0.0000 15.4560 0.0000 0.0000
# 5 0.0000 0.0000 0.0000 0.0000 -7.6280 0.0000
# 6 0.0000 0.0000 0.0000 0.0000 0.0000 18.9290
#
#
#
# Elastic Compliance Matrix: (Units=1/GPa)
#
#
# Indices 1 2 3 4 5 6 
#
# 1 0.012138 -0.004617 0.001651 0.000000 0.000000 0.000000
# 2 -0.004617 0.012871 -0.001869 0.000000 0.000000 0.000000
# 3 0.001651 -0.001869 0.014942 0.000000 0.000000 0.000000
# 4 0.000000 0.000000 0.000000 0.064700 0.000000 0.000000
# 5 0.000000 0.000000 0.000000 0.000000 -0.131096 0.000000
# 6 0.000000 0.000000 0.000000 0.000000 0.000000 0.052829
#
#
# Mechanical properties :
#
#
# Convention : Reuss Voigt Hill
#
# Bulk Modulus (GPa) = 33.02492 36.10279 34.56385
# Shear Modulus (GPa) = 108.35138 20.06322 64.20730
#
# Velocity S-wave (km/s) = 7.40613 3.18694 5.70120
# Velocity P-wave (km/s) = 9.47905 5.64078 7.79971
#
# Compressibility (1/GPa) = 0.03028017
#
# Stress axis : x y z
#
# Youngs Moduli (GPa) = 82.38504 77.69657 66.92744
#
# Poissons Ratio (x) = 0.35872 -0.11051
# Poissons Ratio (y) = 0.38037 0.12511
# Poissons Ratio (z) = -0.13603 0.14524
#
# Static dielectric constant tensor:
#      x y z
#    x 1.669050 0.000000 0.000000 
#    y 0.000000 1.721010 0.000000 
#    z 0.000000 0.000000 1.734920 
# 
# From -- ./inp_files/7008.got.cif
#   From: 2010.05.17/outbox.cif.g08.bks.cpg/sg56_4_cif.got.tgz:7008.got - 2010.06.03 13:42:01.
