data_PCOD9431805
_publ_section_title
;
Structure prediction by ZEFSAII (Michael W. Deem and Ramdas Pophale) SiO2 
 PCOD9431805
Probable space group: P C C N
;
_chemical_formula_sum "Si O2"
_cell_formula_units_Z 28
_cell_length_a 4.977936
_cell_length_b 10.553241
_cell_length_c 19.860616
_cell_angle_alpha 90.000000
_cell_angle_beta 90.000000
_cell_angle_gamma 90.000000
_cell_volume 1043.344856
_symmetry_space_group_name_H-M "P C C N"
_symmetry_group_IT_number 56
_symmetry_cell_setting 'orthorhombic'
loop_
_space_group_symop_operation_xyz
x,y,z
1/2-x,1/2-y,z
1/2+x,-y,1/2-z
-x,1/2+y,1/2-z
-x,-y,-z
1/2+x,1/2+y,-z
1/2-x,y,1/2+z
x,1/2-y,1/2+z
loop_
_atom_site_type_symbol
_atom_site_label
_atom_site_fract_x
_atom_site_fract_y
_atom_site_fract_z
Si Si1 0.470739 0.360371 0.591974
Si Si2 0.750000 0.250000 0.846991
Si Si3 0.092813 0.484295 0.792247
Si Si4 0.810755 0.404564 0.461205
O O1 0.250000 0.250000 0.600429
O O2 0.659249 0.400154 0.654110
O O3 0.613809 0.350475 0.519265
O O4 0.339205 0.497409 0.586522
O O5 0.934854 0.351720 0.809138
O O6 0.558409 0.314887 0.905333
O O7 0.875329 0.547860 0.742004
O O8 0.000000 0.500000 0.500000
#
# Coordination Sequence:
#
# PCOD9431805 Si02
#       4
#     8   4   8   8
#     4  10  23  41  68 103 143 188 244 306 371 449
#     4  10  24  46  74 106 150 194 244 326 376 448
#     4  11  28  49  72 106 148 203 256 302 373 459
#     4  10  21  42  69 108 140 183 241 309 384 444
#
# _framework density 26.836763000000001
#
# number of rings (size 3 to 8) (size 9 to 14) (size 15 to 20)
#    0.000    1.714    0.000    1.714   12.000    0.000 
#   15.429    0.000    0.000    0.000    0.000    0.000 
#    0.000    0.000    0.000    0.000    0.000    0.000 
#
# Total GULP energy -155879.683594 kJ/mol
# GULP energy per Si atom -5567.131557 kJ/mol
# Density = 2.677568 g / cm^3
# Si number density = 26.836763 Si / 1000 Ang^3
#
#
#
# Elastic Constant Matrix: (Units=GPa)
#
#
# Indices 1 2 3 4 5 6 
#
# 1 64.6455 8.9059 -3.6800 0.0000 0.0000 0.0000
# 2 8.9059 101.7202 31.9487 0.0000 0.0000 0.0000
# 3 -3.6800 31.9487 63.4158 0.0000 0.0000 0.0000
# 4 0.0000 0.0000 0.0000 53.4078 0.0000 0.0000
# 5 0.0000 0.0000 0.0000 0.0000 37.6439 0.0000
# 6 0.0000 0.0000 0.0000 0.0000 0.0000 31.1762
#
#
#
# Elastic Compliance Matrix: (Units=1/GPa)
#
#
# Indices 1 2 3 4 5 6 
#
# 1 0.015853 -0.001992 0.001924 0.000000 0.000000 0.000000
# 2 -0.001992 0.011929 -0.006126 0.000000 0.000000 0.000000
# 3 0.001924 -0.006126 0.018967 0.000000 0.000000 0.000000
# 4 0.000000 0.000000 0.000000 0.018724 0.000000 0.000000
# 5 0.000000 0.000000 0.000000 0.000000 0.026565 0.000000
# 6 0.000000 0.000000 0.000000 0.000000 0.000000 0.032076
#
#
# Mechanical properties :
#
#
# Convention : Reuss Voigt Hill
#
# Bulk Modulus (GPa) = 29.10310 33.79230 31.44770
# Shear Modulus (GPa) = 33.79410 37.28604 35.54007
#
# Velocity S-wave (km/s) = 3.55244 3.73146 3.64305
# Velocity P-wave (km/s) = 5.26255 5.58428 5.42580
#
# Compressibility (1/GPa) = 0.03436060
#
# Stress axis : x y z
#
# Youngs Moduli (GPa) = 63.07977 83.82760 52.72426
#
# Poissons Ratio (x) = 0.16700 -0.10142
# Poissons Ratio (y) = 0.12566 0.32296
# Poissons Ratio (z) = -0.12134 0.51349
#
# Static dielectric constant tensor:
#      x y z
#    x 2.253650 0.000000 0.000000 
#    y 0.000000 1.840330 0.000000 
#    z 0.000000 0.000000 1.275780 
# 
# From -- ./inp_files/17182.got.cif
#   From: 2010.05.17/outbox.cif.g08.bks.cpg/sg56_9_cif.got.tgz:17182.got - 2010.06.03 13:42:01.
