data_PCOD9431318
_publ_section_title
;
Structure prediction by ZEFSAII (Michael W. Deem and Ramdas Pophale) SiO2 
 PCOD9431318
Probable space group: P C C N
;
_chemical_formula_sum "Si O2"
_cell_formula_units_Z 48
_cell_length_a 12.774279
_cell_length_b 21.495305
_cell_length_c 9.137540
_cell_angle_alpha 90.000000
_cell_angle_beta 90.000000
_cell_angle_gamma 90.000000
_cell_volume 2509.049909
_symmetry_space_group_name_H-M "P C C N"
_symmetry_group_IT_number 56
_symmetry_cell_setting 'orthorhombic'
loop_
_space_group_symop_operation_xyz
x,y,z
1/2-x,1/2-y,z
1/2+x,-y,1/2-z
-x,1/2+y,1/2-z
-x,-y,-z
1/2+x,1/2+y,-z
1/2-x,y,1/2+z
x,1/2-y,1/2+z
loop_
_atom_site_type_symbol
_atom_site_label
_atom_site_fract_x
_atom_site_fract_y
_atom_site_fract_z
Si Si1 0.161759 0.319702 0.511726
Si Si2 0.985600 0.087651 0.574401
Si Si3 0.939829 0.034638 0.284426
Si Si4 0.637148 0.542776 0.888403
Si Si5 0.881797 0.798698 0.329763
Si Si6 0.734648 0.023173 0.138333
O O1 0.129031 0.390007 0.540654
O O2 0.148988 0.302139 0.341240
O O3 0.097774 0.271133 0.613157
O O4 0.281215 0.316803 0.570507
O O5 0.986494 0.083768 0.398936
O O6 0.026718 0.152047 0.637558
O O7 0.867539 0.065729 0.615892
O O8 0.060807 0.031853 0.631667
O O9 0.019624 0.023413 0.152589
O O10 0.826530 0.054619 0.231747
O O11 0.696404 0.536607 0.732123
O O12 0.705275 0.499533 0.994522
#
# Coordination Sequence:
#
# PCOD9431318 Si02
#       6
#     8   8   8   8   8   8
#     4  11  23  38  61  89 123 166 205 261 301 371
#     4  10  22  38  60  92 127 162 198 262 315 380
#     4  10  21  36  60  89 124 163 200 252 320 365
#     4  11  22  34  61  89 124 158 208 250 317 370
#     4  11  24  39  60  90 124 162 211 248 319 365
#     4  11  21  39  59  94 127 159 202 260 313 382
#
# _framework density 19.130747
#
# number of rings (size 3 to 8) (size 9 to 14) (size 15 to 20)
#    0.000    1.333    1.667    5.500    9.333    1.333 
#    0.000    0.000    0.000    1.000    0.000    0.000 
#    0.000    0.000    0.000    0.000    0.000    0.000 
#
# Total GULP energy -267800.329944 kJ/mol
# GULP energy per Si atom -5579.173540 kJ/mol
# Density = 1.908720 g / cm^3
# Si number density = 19.130747 Si / 1000 Ang^3
#
#
#
# Elastic Constant Matrix: (Units=GPa)
#
#
# Indices 1 2 3 4 5 6 
#
# 1 106.0864 29.9828 49.8588 0.0000 0.0000 0.0000
# 2 29.9828 71.7939 35.8615 0.0000 0.0000 0.0000
# 3 49.8588 35.8615 144.9972 0.0000 0.0000 0.0000
# 4 0.0000 0.0000 0.0000 24.1023 0.0000 0.0000
# 5 0.0000 0.0000 0.0000 0.0000 28.6267 0.0000
# 6 0.0000 0.0000 0.0000 0.0000 0.0000 24.9359
#
#
#
# Elastic Compliance Matrix: (Units=1/GPa)
#
#
# Indices 1 2 3 4 5 6 
#
# 1 0.011906 -0.003340 -0.003268 0.000000 0.000000 0.000000
# 2 -0.003340 0.016829 -0.003014 0.000000 0.000000 0.000000
# 3 -0.003268 -0.003014 0.008766 0.000000 0.000000 0.000000
# 4 0.000000 0.000000 0.000000 0.041490 0.000000 0.000000
# 5 0.000000 0.000000 0.000000 0.000000 0.034932 0.000000
# 6 0.000000 0.000000 0.000000 0.000000 0.000000 0.040103
#
#
# Mechanical properties :
#
#
# Convention : Reuss Voigt Hill
#
# Bulk Modulus (GPa) = 54.77183 61.58710 58.17946
# Shear Modulus (GPa) = 27.87764 29.34460 28.61112
#
# Velocity S-wave (km/s) = 3.82149 3.92075 3.87144
# Velocity P-wave (km/s) = 6.94004 7.26354 7.10363
#
# Compressibility (1/GPa) = 0.01825756
#
# Stress axis : x y z
#
# Youngs Moduli (GPa) = 83.99034 59.42129 114.07961
#
# Poissons Ratio (x) = 0.19846 0.37281
# Poissons Ratio (y) = 0.28052 0.34381
# Poissons Ratio (z) = 0.27448 0.17908
#
# Static dielectric constant tensor:
#      x y z
#    x 1.693500 0.000000 0.000000 
#    y 0.000000 1.694740 0.000000 
#    z 0.000000 0.000000 1.743490 
# 
# From -- ./inp_files/2782.got.cif
#   From: 2010.05.17/outbox.cif.g08.bks.cpg/sg56_2_cif.got.tgz:2782.got - 2010.06.03 13:42:01.
