data_PCOD9431877
_publ_section_title
;
Structure prediction by ZEFSAII (Michael W. Deem and Ramdas Pophale) SiO2 
 PCOD9431877
Probable space group: P C C N
;
_chemical_formula_sum "Si O2"
_cell_formula_units_Z 56
_cell_length_a 14.821611
_cell_length_b 10.315823
_cell_length_c 17.031698
_cell_angle_alpha 90.000000
_cell_angle_beta 90.000000
_cell_angle_gamma 90.000000
_cell_volume 2604.097499
_symmetry_space_group_name_H-M "P C C N"
_symmetry_group_IT_number 56
_symmetry_cell_setting 'orthorhombic'
loop_
_space_group_symop_operation_xyz
x,y,z
1/2-x,1/2-y,z
1/2+x,-y,1/2-z
-x,1/2+y,1/2-z
-x,-y,-z
1/2+x,1/2+y,-z
1/2-x,y,1/2+z
x,1/2-y,1/2+z
loop_
_atom_site_type_symbol
_atom_site_label
_atom_site_fract_x
_atom_site_fract_y
_atom_site_fract_z
Si Si1 0.075287 0.706416 0.970419
Si Si2 0.315012 0.586318 0.870792
Si Si3 0.750000 0.750000 0.882344
Si Si4 0.781811 0.493337 0.982217
Si Si5 0.874105 0.354105 0.385323
Si Si6 0.250000 0.750000 0.236225
Si Si7 0.053784 0.207223 0.674509
Si Si8 0.008696 0.979245 0.789343
O O1 0.149224 0.783703 0.916291
O O2 0.121621 0.575455 0.003579
O O3 0.990019 0.699812 0.912915
O O4 0.062560 0.792774 0.048160
O O5 0.259038 0.502717 0.931074
O O6 0.260423 0.628214 0.793745
O O7 0.403693 0.512443 0.844016
O O8 0.658854 0.754858 0.830929
O O9 0.769541 0.627568 0.938251
O O10 0.715621 0.400963 0.931057
O O11 0.836954 0.258686 0.318695
O O12 0.924975 0.467115 0.339585
O O13 0.007756 0.326242 0.721807
O O14 0.029094 0.071907 0.716078
#
# Coordination Sequence:
#
# PCOD9431877 Si02
#       8
#     8   8   4   8   8   4   8   8
#     4  10  21  44  71 102 133 181 250 290 337 429
#     4  10  22  39  68  99 133 173 233 302 346 425
#     4  12  28  46  68 100 150 194 230 296 382 418
#     4  11  22  44  64 102 135 185 237 292 356 426
#     4  11  21  37  74 103 133 184 238 295 353 418
#     4  12  20  38  70 106 132 178 238 300 354 418
#     4  11  27  49  73 103 150 192 239 304 357 439
#     4  11  25  44  69 105 141 190 238 293 371 423
#
# _framework density 21.504570000000001
#
# number of rings (size 3 to 8) (size 9 to 14) (size 15 to 20)
#    0.000    1.143    4.286    2.571    4.000    3.429 
#    2.571    0.000    0.000    0.000    0.000    0.000 
#    0.000    0.000    0.000    0.000    0.000    0.000 
#
# Total GULP energy -312572.018416 kJ/mol
# GULP energy per Si atom -5581.643186 kJ/mol
# Density = 2.145562 g / cm^3
# Si number density = 21.504570 Si / 1000 Ang^3
#
#
#
# Elastic Constant Matrix: (Units=GPa)
#
#
# Indices 1 2 3 4 5 6 
#
# 1 92.0049 13.5530 30.3125 0.0000 0.0000 0.0000
# 2 13.5530 84.5771 34.6666 0.0000 0.0000 0.0000
# 3 30.3125 34.6666 104.7945 0.0000 0.0000 0.0000
# 4 0.0000 0.0000 0.0000 32.6030 0.0000 0.0000
# 5 0.0000 0.0000 0.0000 0.0000 3.1702 0.0000
# 6 0.0000 0.0000 0.0000 0.0000 0.0000 28.5827
#
#
#
# Elastic Compliance Matrix: (Units=1/GPa)
#
#
# Indices 1 2 3 4 5 6 
#
# 1 0.012038 -0.000581 -0.003290 0.000000 0.000000 0.000000
# 2 -0.000581 0.013706 -0.004366 0.000000 0.000000 0.000000
# 3 -0.003290 -0.004366 0.011939 0.000000 0.000000 0.000000
# 4 0.000000 0.000000 0.000000 0.030672 0.000000 0.000000
# 5 0.000000 0.000000 0.000000 0.000000 0.315438 0.000000
# 6 0.000000 0.000000 0.000000 0.000000 0.000000 0.034986
#
#
# Mechanical properties :
#
#
# Convention : Reuss Voigt Hill
#
# Bulk Modulus (GPa) = 47.14867 48.71562 47.93214
# Shear Modulus (GPa) = 11.30396 26.39415 18.84906
#
# Velocity S-wave (km/s) = 2.29520 3.50719 2.96381
# Velocity P-wave (km/s) = 5.38484 6.25326 5.83523
#
# Compressibility (1/GPa) = 0.02120951
#
# Stress axis : x y z
#
# Youngs Moduli (GPa) = 83.06685 72.95986 83.76240
#
# Poissons Ratio (x) = 0.04235 0.27559
# Poissons Ratio (y) = 0.04822 0.36572
# Poissons Ratio (z) = 0.27330 0.31855
#
# Static dielectric constant tensor:
#      x y z
#    x 1.813500 0.000000 0.000000 
#    y 0.000000 1.842620 0.000000 
#    z 0.000000 0.000000 1.773440 
# 
# From -- ./inp_files/12322.got.cif
#   From: 2010.05.17/outbox.cif.g08.bks.cpg/sg56_7_cif.got.tgz:12322.got - 2010.06.03 13:42:01.
