data_PCOD9431692
_publ_section_title
;
Structure prediction by ZEFSAII (Michael W. Deem and Ramdas Pophale) SiO2 
 PCOD9431692
Probable space group: P C C N
;
_chemical_formula_sum "Si O2"
_cell_formula_units_Z 32
_cell_length_a 11.036789
_cell_length_b 13.166554
_cell_length_c 7.475530
_cell_angle_alpha 90.000000
_cell_angle_beta 90.000000
_cell_angle_gamma 90.000000
_cell_volume 1086.317693
_symmetry_space_group_name_H-M "P C C N"
_symmetry_group_IT_number 56
_symmetry_cell_setting 'orthorhombic'
loop_
_space_group_symop_operation_xyz
x,y,z
1/2-x,1/2-y,z
1/2+x,-y,1/2-z
-x,1/2+y,1/2-z
-x,-y,-z
1/2+x,1/2+y,-z
1/2-x,y,1/2+z
x,1/2-y,1/2+z
loop_
_atom_site_type_symbol
_atom_site_label
_atom_site_fract_x
_atom_site_fract_y
_atom_site_fract_z
Si Si1 0.634567 0.594529 0.590129
Si Si2 0.100175 0.092607 0.829001
Si Si3 0.593216 0.354962 0.177638
Si Si4 0.641023 0.135762 0.237387
O O1 0.772240 0.634000 0.604702
O O2 0.600870 0.603210 0.384231
O O3 0.536735 0.645539 0.719871
O O4 0.631387 0.475517 0.648151
O O5 0.969679 0.138727 0.884752
O O6 0.102695 0.974620 0.878154
O O7 0.616107 0.236742 0.124958
O O8 0.720498 0.361147 0.302502
#
# Coordination Sequence:
#
# PCOD9431692 Si02
#       4
#     8   8   8   8
#     4  10  21  41  62  87 123 163 201 248 302 362
#     4  10  21  41  62  87 123 163 201 248 302 362
#     4   9  18  36  61  89 117 152 198 251 302 352
#     4   9  18  36  61  89 117 152 198 251 302 352
#
# _framework density 29.457315000000001
#
# number of rings (size 3 to 8) (size 9 to 14) (size 15 to 20)
#    0.000    2.500    0.000    3.000    0.000    1.000 
#    0.000   77.500    0.000    0.000    0.000    0.000 
#    0.000    0.000    0.000    0.000    0.000    0.000 
#
# Total GULP energy -178710.869890 kJ/mol
# GULP energy per Si atom -5584.714684 kJ/mol
# Density = 2.939027 g / cm^3
# Si number density = 29.457315 Si / 1000 Ang^3
#
#
#
# Elastic Constant Matrix: (Units=GPa)
#
#
# Indices 1 2 3 4 5 6 
#
# 1 19.7210 30.6085 -304.3978 0.0000 0.0000 0.0000
# 2 30.6085 199.7390 -2.1912 0.0000 0.0000 0.0000
# 3 -304.3978 -2.1912 -315.1899 0.0000 0.0000 0.0000
# 4 0.0000 0.0000 0.0000 56.2480 0.0000 0.0000
# 5 0.0000 0.0000 0.0000 0.0000 8.2615 0.0000
# 6 0.0000 0.0000 0.0000 0.0000 0.0000 41.5088
#
#
#
# Elastic Compliance Matrix: (Units=1/GPa)
#
#
# Indices 1 2 3 4 5 6 
#
# 1 0.003243 -0.000531 -0.003128 0.000000 0.000000 0.000000
# 2 -0.000531 0.005093 0.000478 0.000000 0.000000 0.000000
# 3 -0.003128 0.000478 -0.000155 0.000000 0.000000 0.000000
# 4 0.000000 0.000000 0.000000 0.017778 0.000000 0.000000
# 5 0.000000 0.000000 0.000000 0.000000 0.121044 0.000000
# 6 0.000000 0.000000 0.000000 0.000000 0.000000 0.024091
#
#
# Mechanical properties :
#
#
# Convention : Reuss Voigt Hill
#
# Bulk Modulus (GPa) = 550.17459 -71.96566 239.10447
# Shear Modulus (GPa) = 28.07956 33.22036 30.64996
#
# Velocity S-wave (km/s) = 3.09079 3.36184 3.22916
# Velocity P-wave (km/s) = 14.13906 3.06827 9.75957
#
# Compressibility (1/GPa) = 0.00181760
#
# Stress axis : x y z
#
# Youngs Moduli (GPa) = 308.33513 196.34038 -6466.31533
#
# Poissons Ratio (x) = 0.10432 -20.22976
# Poissons Ratio (y) = 0.16383 3.08909
# Poissons Ratio (z) = 0.96462 -0.09380
#
# Static dielectric constant tensor:
#      x y z
#    x -5.415970 0.000000 0.000000 
#    y 0.000000 2.136480 0.000000 
#    z 0.000000 0.000000 2.897550 
# 
# From -- ./inp_files/2482.got.cif
#   From: 2010.05.17/outbox.cif.g08.bks.cpg/sg56_2_cif.got.tgz:2482.got - 2010.06.03 13:42:01.
