data_PCOD9431382
_publ_section_title
;
Structure prediction by ZEFSAII (Michael W. Deem and Ramdas Pophale) SiO2 
 PCOD9431382
Probable space group: P C C N
;
_chemical_formula_sum "Si O2"
_cell_formula_units_Z 52
_cell_length_a 15.656323
_cell_length_b 7.212294
_cell_length_c 21.263369
_cell_angle_alpha 90.000000
_cell_angle_beta 90.000000
_cell_angle_gamma 90.000000
_cell_volume 2401.017195
_symmetry_space_group_name_H-M "P C C N"
_symmetry_group_IT_number 56
_symmetry_cell_setting 'orthorhombic'
loop_
_space_group_symop_operation_xyz
x,y,z
1/2-x,1/2-y,z
1/2+x,-y,1/2-z
-x,1/2+y,1/2-z
-x,-y,-z
1/2+x,1/2+y,-z
1/2-x,y,1/2+z
x,1/2-y,1/2+z
loop_
_atom_site_type_symbol
_atom_site_label
_atom_site_fract_x
_atom_site_fract_y
_atom_site_fract_z
Si Si1 0.425386 0.074091 0.821407
Si Si2 0.750000 0.250000 0.908002
Si Si3 0.831240 0.615974 0.444512
Si Si4 0.872623 0.164098 0.170944
Si Si5 0.342698 0.154581 0.417866
Si Si6 0.382331 0.860032 0.190982
Si Si7 0.071771 0.075877 0.182845
O O1 0.403377 0.223511 0.873643
O O2 0.527897 0.034479 0.819241
O O3 0.402719 0.150659 0.751731
O O4 0.373245 0.885980 0.834577
O O5 0.697490 0.400836 0.946258
O O6 0.687538 0.128797 0.863349
O O7 0.750000 0.750000 0.443242
O O8 0.877262 0.650633 0.510921
O O9 0.880786 0.643609 0.379337
O O10 0.840946 0.106906 0.240654
O O11 0.972425 0.111063 0.173702
O O12 0.834002 0.046381 0.114559
O O13 0.250000 0.250000 0.418490
O O14 0.410669 0.643767 0.189777
#
# Coordination Sequence:
#
# PCOD9431382 Si02
#       7
#     8   4   8   8   8   8   8
#     4  10  21  38  64  96 123 159 208 265 310 368
#     4  10  22  40  62  88 122 168 202 266 302 368
#     4  10  24  41  61  87 126 167 213 250 306 378
#     4  10  21  37  64  91 123 161 200 258 319 369
#     4  11  25  42  59  87 130 165 205 257 306 376
#     4   9  19  38  63  94 127 152 211 261 309 372
#     4   9  19  39  63  91 125 161 204 262 311 362
#
# _framework density 21.657485000000001
#
# number of rings (size 3 to 8) (size 9 to 14) (size 15 to 20)
#    0.000    2.154    1.538    0.000    4.308    8.000 
#    0.000    0.769    0.000    0.000    0.000    0.000 
#    0.000    0.000    0.000    0.000    0.000    0.000 
#
# Total GULP energy -290469.189009 kJ/mol
# GULP energy per Si atom -5585.945942 kJ/mol
# Density = 2.160819 g / cm^3
# Si number density = 21.657485 Si / 1000 Ang^3
#
#
#
# Elastic Constant Matrix: (Units=GPa)
#
#
# Indices 1 2 3 4 5 6 
#
# 1 32.8123 5.9859 33.0513 0.0000 0.0000 0.0000
# 2 5.9859 70.9046 52.4951 0.0000 0.0000 0.0000
# 3 33.0513 52.4951 173.9394 0.0000 0.0000 0.0000
# 4 0.0000 0.0000 0.0000 25.0080 0.0000 0.0000
# 5 0.0000 0.0000 0.0000 0.0000 15.1193 0.0000
# 6 0.0000 0.0000 0.0000 0.0000 0.0000 32.9362
#
#
#
# Elastic Compliance Matrix: (Units=1/GPa)
#
#
# Indices 1 2 3 4 5 6 
#
# 1 0.038105 0.002761 -0.008074 0.000000 0.000000 0.000000
# 2 0.002761 0.018362 -0.006066 0.000000 0.000000 0.000000
# 3 -0.008074 -0.006066 0.009114 0.000000 0.000000 0.000000
# 4 0.000000 0.000000 0.000000 0.039987 0.000000 0.000000
# 5 0.000000 0.000000 0.000000 0.000000 0.066141 0.000000
# 6 0.000000 0.000000 0.000000 0.000000 0.000000 0.030362
#
#
# Mechanical properties :
#
#
# Convention : Reuss Voigt Hill
#
# Bulk Modulus (GPa) = 23.35228 51.19121 37.27174
# Shear Modulus (GPa) = 20.91148 27.02097 23.96622
#
# Velocity S-wave (km/s) = 3.11071 3.53604 3.33017
# Velocity P-wave (km/s) = 4.86908 6.35291 5.65983
#
# Compressibility (1/GPa) = 0.04282237
#
# Stress axis : x y z
#
# Youngs Moduli (GPa) = 26.24302 54.46175 109.72097
#
# Poissons Ratio (x) = -0.15035 0.88586
# Poissons Ratio (y) = -0.07245 0.66558
# Poissons Ratio (z) = 0.21188 0.33037
#
# Static dielectric constant tensor:
#      x y z
#    x 1.791070 0.000000 0.000000 
#    y 0.000000 1.818710 0.000000 
#    z 0.000000 0.000000 1.800630 
# 
# From -- ./inp_files/19057.got.cif
#   From: 2010.05.17/outbox.cif.g08.bks.cpg/sg56_10_cif.got.tgz:19057.got - 2010.06.03 13:42:01.
