data_PCOD9431173
_publ_section_title
;
Structure prediction by ZEFSAII (Michael W. Deem and Ramdas Pophale) SiO2 
 PCOD9431173
Probable space group: P C C N
;
_chemical_formula_sum "Si O2"
_cell_formula_units_Z 48
_cell_length_a 14.246288
_cell_length_b 16.472277
_cell_length_c 9.918492
_cell_angle_alpha 90.000000
_cell_angle_beta 90.000000
_cell_angle_gamma 90.000000
_cell_volume 2327.560637
_symmetry_space_group_name_H-M "P C C N"
_symmetry_group_IT_number 56
_symmetry_cell_setting 'orthorhombic'
loop_
_space_group_symop_operation_xyz
x,y,z
1/2-x,1/2-y,z
1/2+x,-y,1/2-z
-x,1/2+y,1/2-z
-x,-y,-z
1/2+x,1/2+y,-z
1/2-x,y,1/2+z
x,1/2-y,1/2+z
loop_
_atom_site_type_symbol
_atom_site_label
_atom_site_fract_x
_atom_site_fract_y
_atom_site_fract_z
Si Si1 0.625662 0.500248 0.636057
Si Si2 0.857764 0.087598 0.371966
Si Si3 0.356015 0.602849 0.096529
Si Si4 0.659582 0.530832 0.124038
Si Si5 0.969180 0.834510 0.726484
Si Si6 0.456511 0.312027 0.958802
O O1 0.595186 0.448977 0.506067
O O2 0.631405 0.436259 0.757064
O O3 0.728745 0.536268 0.601136
O O4 0.567658 0.575977 0.690508
O O5 0.754953 0.121076 0.412157
O O6 0.919435 0.154975 0.297524
O O7 0.849589 0.011777 0.269144
O O8 0.433623 0.670405 0.070944
O O9 0.376977 0.533248 0.986187
O O10 0.603751 0.613653 0.102814
O O11 0.930843 0.769802 0.619467
O O12 0.945004 0.810919 0.879605
#
# Coordination Sequence:
#
# PCOD9431173 Si02
#       6
#     8   8   8   8   8   8
#     4  10  22  39  68  94 119 151 213 255 301 354
#     4  10  22  39  68  94 119 151 213 255 301 354
#     4  10  20  42  67  91 115 162 204 257 298 357
#     4  10  20  42  67  91 115 162 204 257 298 357
#     4  12  26  42  58  93 127 167 197 249 307 370
#     4  12  26  41  62  87 131 166 201 243 313 364
#
# _framework density 20.622449
#
# number of rings (size 3 to 8) (size 9 to 14) (size 15 to 20)
#    0.000    1.333    3.333    2.000    4.667    1.333 
#    0.000    3.333    0.000    0.000    0.000    0.000 
#    0.000    0.000    0.000    0.000    0.000    0.000 
#
# Total GULP energy -268093.657917 kJ/mol
# GULP energy per Si atom -5585.284540 kJ/mol
# Density = 2.057551 g / cm^3
# Si number density = 20.622449 Si / 1000 Ang^3
#
#
#
# Elastic Constant Matrix: (Units=GPa)
#
#
# Indices 1 2 3 4 5 6 
#
# 1 34.3155 -8.2665 -2.3298 0.0000 0.0000 0.0000
# 2 -8.2665 17.5260 4.9508 0.0000 0.0000 0.0000
# 3 -2.3298 4.9508 123.2538 0.0000 0.0000 0.0000
# 4 0.0000 0.0000 0.0000 25.4361 0.0000 0.0000
# 5 0.0000 0.0000 0.0000 0.0000 21.7067 0.0000
# 6 0.0000 0.0000 0.0000 0.0000 0.0000 1.8392
#
#
#
# Elastic Compliance Matrix: (Units=1/GPa)
#
#
# Indices 1 2 3 4 5 6 
#
# 1 0.032877 0.015508 -0.000001 0.000000 0.000000 0.000000
# 2 0.015508 0.065028 -0.002319 0.000000 0.000000 0.000000
# 3 -0.000001 -0.002319 0.008206 0.000000 0.000000 0.000000
# 4 0.000000 0.000000 0.000000 0.039314 0.000000 0.000000
# 5 0.000000 0.000000 0.000000 0.000000 0.046069 0.000000
# 6 0.000000 0.000000 0.000000 0.000000 0.000000 0.543711
#
#
# Mechanical properties :
#
#
# Convention : Reuss Voigt Hill
#
# Bulk Modulus (GPa) = 7.54797 18.20047 12.87422
# Shear Modulus (GPa) = 6.64017 21.84578 14.24298
#
# Velocity S-wave (km/s) = 1.79635 3.25825 2.63088
# Velocity P-wave (km/s) = 2.82321 4.79580 3.93511
#
# Compressibility (1/GPa) = 0.13248592
#
# Stress axis : x y z
#
# Youngs Moduli (GPa) = 30.41635 15.37805 121.85525
#
# Poissons Ratio (x) = -0.23848 0.00018
# Poissons Ratio (y) = -0.47169 0.28257
# Poissons Ratio (z) = 0.00004 0.03566
#
# Static dielectric constant tensor:
#      x y z
#    x 1.804060 0.000000 0.000000 
#    y 0.000000 1.712780 0.000000 
#    z 0.000000 0.000000 1.723150 
# 
# From -- ./inp_files/3371.got.cif
#   From: 2010.05.17/outbox.cif.g08.bks.cpg/sg56_2_cif.got.tgz:3371.got - 2010.06.03 13:42:01.
