data_PCOD9431093
_publ_section_title
;
Structure prediction by ZEFSAII (Michael W. Deem and Ramdas Pophale) SiO2 
 PCOD9431093
Probable space group: P C C N
;
_chemical_formula_sum "Si O2"
_cell_formula_units_Z 40
_cell_length_a 7.213806
_cell_length_b 9.902269
_cell_length_c 24.276087
_cell_angle_alpha 90.000000
_cell_angle_beta 90.000000
_cell_angle_gamma 90.000000
_cell_volume 1734.114876
_symmetry_space_group_name_H-M "P C C N"
_symmetry_group_IT_number 56
_symmetry_cell_setting 'orthorhombic'
loop_
_space_group_symop_operation_xyz
x,y,z
1/2-x,1/2-y,z
1/2+x,-y,1/2-z
-x,1/2+y,1/2-z
-x,-y,-z
1/2+x,1/2+y,-z
1/2-x,y,1/2+z
x,1/2-y,1/2+z
loop_
_atom_site_type_symbol
_atom_site_label
_atom_site_fract_x
_atom_site_fract_y
_atom_site_fract_z
Si Si1 0.032311 0.287462 0.872623
Si Si2 0.556195 0.550317 0.302037
Si Si3 0.975802 0.731661 0.386378
Si Si4 0.462119 0.513902 0.176400
Si Si5 0.547074 0.663675 0.503332
O O1 0.250000 0.250000 0.870665
O O2 0.973594 0.306564 0.935579
O O3 0.008342 0.417267 0.834224
O O4 0.927479 0.159899 0.847980
O O5 0.465937 0.675218 0.334376
O O6 0.544189 0.535474 0.236652
O O7 0.773333 0.562760 0.311706
O O8 0.750000 0.750000 0.391522
O O9 0.046343 0.582146 0.370636
O O10 0.038794 0.779563 0.446651
O O11 0.750000 0.750000 0.505275
O O12 0.500000 0.500000 0.500000
#
# Coordination Sequence:
#
# PCOD9431093 Si02
#       5
#     8   8   8   8   8
#     4  11  23  39  63  91 130 170 221 274 337 405
#     4  11  21  40  63  90 130 169 216 273 339 409
#     4   9  20  38  62  88 122 164 216 270 337 399
#     4  11  23  38  64  95 125 170 217 273 336 408
#     4  10  20  40  69  94 128 178 228 281 347 417
#
# _framework density 23.066523
#
# number of rings (size 3 to 8) (size 9 to 14) (size 15 to 20)
#    0.000    1.600    2.000    3.000    0.000    2.400 
#    0.000    3.000    0.000    0.000    0.000    0.000 
#    0.000    0.000    0.000    0.000    0.000    0.000 
#
# Total GULP energy -222711.336655 kJ/mol
# GULP energy per Si atom -5567.783416 kJ/mol
# Density = 2.301402 g / cm^3
# Si number density = 23.066523 Si / 1000 Ang^3
#
#
#
# Elastic Constant Matrix: (Units=GPa)
#
#
# Indices 1 2 3 4 5 6 
#
# 1 45.8524 -12.8401 -11.6011 0.0000 0.0000 0.0000
# 2 -12.8401 143.4814 74.5536 0.0000 0.0000 0.0000
# 3 -11.6011 74.5536 219.4292 0.0000 0.0000 0.0000
# 4 0.0000 0.0000 0.0000 89.0437 0.0000 0.0000
# 5 0.0000 0.0000 0.0000 0.0000 29.9097 0.0000
# 6 0.0000 0.0000 0.0000 0.0000 0.0000 11.7853
#
#
#
# Elastic Compliance Matrix: (Units=1/GPa)
#
#
# Indices 1 2 3 4 5 6 
#
# 1 0.022437 0.001690 0.000612 0.000000 0.000000 0.000000
# 2 0.001690 0.008591 -0.002830 0.000000 0.000000 0.000000
# 3 0.000612 -0.002830 0.005551 0.000000 0.000000 0.000000
# 4 0.000000 0.000000 0.000000 0.011230 0.000000 0.000000
# 5 0.000000 0.000000 0.000000 0.000000 0.033434 0.000000
# 6 0.000000 0.000000 0.000000 0.000000 0.000000 0.084852
#
#
# Mechanical properties :
#
#
# Convention : Reuss Voigt Hill
#
# Bulk Modulus (GPa) = 28.14995 56.55419 42.35207
# Shear Modulus (GPa) = 27.93423 50.05778 38.99600
#
# Velocity S-wave (km/s) = 3.48376 4.66354 4.11614
# Velocity P-wave (km/s) = 5.33033 7.31910 6.40241
#
# Compressibility (1/GPa) = 0.03552404
#
# Stress axis : x y z
#
# Youngs Moduli (GPa) = 44.56881 116.40054 180.14721
#
# Poissons Ratio (x) = -0.19670 -0.11027
# Poissons Ratio (y) = -0.07531 0.50974
# Poissons Ratio (z) = -0.02728 0.32936
#
# Static dielectric constant tensor:
#      x y z
#    x 2.079860 0.000000 0.000000 
#    y 0.000000 2.049320 0.000000 
#    z 0.000000 0.000000 1.881390 
# 
# From -- ./inp_files/20287.got.cif
#   From: 2010.05.17/outbox.cif.g08.bks.cpg/sg56_11_cif.got.tgz:20287.got - 2010.06.03 13:42:01.
