data_PCOD9431766
_publ_section_title
;
Structure prediction by ZEFSAII (Michael W. Deem and Ramdas Pophale) SiO2 
 PCOD9431766
Probable space group: P C C N
;
_chemical_formula_sum "Si O2"
_cell_formula_units_Z 32
_cell_length_a 17.218141
_cell_length_b 5.360093
_cell_length_c 14.199793
_cell_angle_alpha 90.000000
_cell_angle_beta 90.000000
_cell_angle_gamma 90.000000
_cell_volume 1310.510782
_symmetry_space_group_name_H-M "P C C N"
_symmetry_group_IT_number 56
_symmetry_cell_setting 'orthorhombic'
loop_
_space_group_symop_operation_xyz
x,y,z
1/2-x,1/2-y,z
1/2+x,-y,1/2-z
-x,1/2+y,1/2-z
-x,-y,-z
1/2+x,1/2+y,-z
1/2-x,y,1/2+z
x,1/2-y,1/2+z
loop_
_atom_site_type_symbol
_atom_site_label
_atom_site_fract_x
_atom_site_fract_y
_atom_site_fract_z
Si Si1 0.663060 0.169017 0.703015
Si Si2 0.527150 0.998329 0.200402
Si Si3 0.093997 0.477574 0.484135
Si Si4 0.386451 0.528101 0.588132
O O1 0.750000 0.250000 0.683489
O O2 0.615548 0.428645 0.698229
O O3 0.621643 0.996728 0.624149
O O4 0.651705 0.054942 0.807949
O O5 0.490188 0.256751 0.238725
O O6 0.479902 0.957458 0.105879
O O7 0.126082 0.230356 0.534860
O O8 0.000000 0.500000 0.500000
O O9 0.132021 0.723426 0.530875
#
# Coordination Sequence:
#
# PCOD9431766 Si02
#       4
#     8   8   8   8
#     4  11  27  48  76 113 160 199 255 322 400 454
#     4  10  21  41  73 102 136 193 253 298 366 459
#     4  12  26  45  80 112 143 201 266 317 375 469
#     4  11  25  47  77 106 150 197 261 315 380 460
#
# _framework density 24.417961999999999
#
# number of rings (size 3 to 8) (size 9 to 14) (size 15 to 20)
#    0.000    1.000    2.500    3.750    7.000    3.000 
#    0.000   25.000    0.000    0.000    0.000    0.000 
#    0.000    0.000    0.000    0.000    0.000    0.000 
#
# Total GULP energy -179085.520225 kJ/mol
# GULP energy per Si atom -5596.422507 kJ/mol
# Density = 2.436239 g / cm^3
# Si number density = 24.417962 Si / 1000 Ang^3
#
#
#
# Elastic Constant Matrix: (Units=GPa)
#
#
# Indices 1 2 3 4 5 6 
#
# 1 136.9864 21.5206 28.6904 0.0000 0.0000 0.0000
# 2 21.5206 206.7509 86.5906 0.0000 0.0000 0.0000
# 3 28.6904 86.5906 187.1273 0.0000 0.0000 0.0000
# 4 0.0000 0.0000 0.0000 51.2117 0.0000 0.0000
# 5 0.0000 0.0000 0.0000 0.0000 18.6487 0.0000
# 6 0.0000 0.0000 0.0000 0.0000 0.0000 18.3554
#
#
#
# Elastic Compliance Matrix: (Units=1/GPa)
#
#
# Indices 1 2 3 4 5 6 
#
# 1 0.007565 -0.000374 -0.000987 0.000000 0.000000 0.000000
# 2 -0.000374 0.006018 -0.002727 0.000000 0.000000 0.000000
# 3 -0.000987 -0.002727 0.006757 0.000000 0.000000 0.000000
# 4 0.000000 0.000000 0.000000 0.019527 0.000000 0.000000
# 5 0.000000 0.000000 0.000000 0.000000 0.053623 0.000000
# 6 0.000000 0.000000 0.000000 0.000000 0.000000 0.054480
#
#
# Mechanical properties :
#
#
# Convention : Reuss Voigt Hill
#
# Bulk Modulus (GPa) = 82.20962 89.38532 85.79747
# Shear Modulus (GPa) = 31.21061 43.91402 37.56231
#
# Velocity S-wave (km/s) = 3.57905 4.24539 3.92638
# Velocity P-wave (km/s) = 7.12883 7.79211 7.46784
#
# Compressibility (1/GPa) = 0.01216403
#
# Stress axis : x y z
#
# Youngs Moduli (GPa) = 132.17976 166.16960 147.98822
#
# Poissons Ratio (x) = 0.06218 0.14603
# Poissons Ratio (y) = 0.04946 0.40362
# Poissons Ratio (z) = 0.13043 0.45320
#
# Static dielectric constant tensor:
#      x y z
#    x 1.959330 0.000000 0.000000 
#    y 0.000000 1.986870 0.000000 
#    z 0.000000 0.000000 2.027580 
# 
# From -- ./inp_files/12481.got.cif
#   From: 2010.05.17/outbox.cif.g08.bks.cpg/sg56_7_cif.got.tgz:12481.got - 2010.06.03 13:42:01.
