data_PCOD9431876
_publ_section_title
;
Structure prediction by ZEFSAII (Michael W. Deem and Ramdas Pophale) SiO2 
 PCOD9431876
Probable space group: P C C N
;
_chemical_formula_sum "Si O2"
_cell_formula_units_Z 48
_cell_length_a 8.751181
_cell_length_b 7.848187
_cell_length_c 26.716635
_cell_angle_alpha 90.000000
_cell_angle_beta 90.000000
_cell_angle_gamma 90.000000
_cell_volume 1834.922669
_symmetry_space_group_name_H-M "P C C N"
_symmetry_group_IT_number 56
_symmetry_cell_setting 'orthorhombic'
loop_
_space_group_symop_operation_xyz
x,y,z
1/2-x,1/2-y,z
1/2+x,-y,1/2-z
-x,1/2+y,1/2-z
-x,-y,-z
1/2+x,1/2+y,-z
1/2-x,y,1/2+z
x,1/2-y,1/2+z
loop_
_atom_site_type_symbol
_atom_site_label
_atom_site_fract_x
_atom_site_fract_y
_atom_site_fract_z
Si Si1 0.282735 0.530234 0.852508
Si Si2 0.750000 0.250000 0.484050
Si Si3 0.947373 0.079660 0.568530
Si Si4 0.250000 0.250000 0.602788
Si Si5 0.982156 0.202809 0.906131
Si Si6 0.750000 0.750000 0.221772
Si Si7 0.750000 0.250000 0.816452
Si Si8 0.094886 0.410694 0.696923
O O1 0.148864 0.628938 0.881357
O O2 0.385354 0.430935 0.894168
O O3 0.201107 0.394140 0.816906
O O4 0.416162 0.583212 0.814091
O O5 0.855690 0.141759 0.520714
O O6 0.642314 0.141373 0.446769
O O7 0.114070 0.162488 0.572453
O O8 0.954283 0.876919 0.571153
O O9 0.170309 0.376981 0.642585
O O10 0.892838 0.261154 0.855607
O O11 0.883537 0.740636 0.263156
O O12 0.691790 0.419314 0.786947
#
# Coordination Sequence:
#
# PCOD9431876 Si02
#       8
#     8   4   8   4   8   4   4   8
#     4  11  24  45  73  98 144 199 230 292 371 433
#     4  11  26  42  71 110 134 184 251 302 360 429
#     4  12  23  46  69 101 147 188 237 302 361 438
#     4  11  24  44  69 104 142 186 231 302 364 419
#     4  10  21  44  70  97 141 189 237 295 359 438
#     4  11  24  42  69 112 136 180 243 290 354 423
#     4   9  18  40  69  98 140 198 221 278 376 423
#     4  10  23  41  70 102 140 182 241 293 345 440
#
# _framework density 26.159141000000002
#
# number of rings (size 3 to 8) (size 9 to 14) (size 15 to 20)
#    0.000    1.333    3.333    1.500    0.000    6.000 
#    6.000    0.833    0.000    0.000    0.000    0.000 
#    0.000    0.000    0.000    0.000    0.000    0.000 
#
# Total GULP energy -268103.687839 kJ/mol
# GULP energy per Si atom -5585.493497 kJ/mol
# Density = 2.609960 g / cm^3
# Si number density = 26.159141 Si / 1000 Ang^3
#
#
#
# Elastic Constant Matrix: (Units=GPa)
#
#
# Indices 1 2 3 4 5 6 
#
# 1 162.8277 30.2713 48.0885 0.0000 0.0000 0.0000
# 2 30.2713 45.6357 8.1875 0.0000 0.0000 0.0000
# 3 48.0885 8.1875 121.3327 0.0000 0.0000 0.0000
# 4 0.0000 0.0000 0.0000 30.8755 0.0000 0.0000
# 5 0.0000 0.0000 0.0000 0.0000 24.0662 0.0000
# 6 0.0000 0.0000 0.0000 0.0000 0.0000 41.6396
#
#
#
# Elastic Compliance Matrix: (Units=1/GPa)
#
#
# Indices 1 2 3 4 5 6 
#
# 1 0.007839 -0.004699 -0.002790 0.000000 0.000000 0.000000
# 2 -0.004699 0.024998 0.000176 0.000000 0.000000 0.000000
# 3 -0.002790 0.000176 0.009336 0.000000 0.000000 0.000000
# 4 0.000000 0.000000 0.000000 0.032388 0.000000 0.000000
# 5 0.000000 0.000000 0.000000 0.000000 0.041552 0.000000
# 6 0.000000 0.000000 0.000000 0.000000 0.000000 0.024016
#
#
# Mechanical properties :
#
#
# Convention : Reuss Voigt Hill
#
# Bulk Modulus (GPa) = 36.30281 55.87674 46.08978
# Shear Modulus (GPa) = 30.49937 35.53284 33.01610
#
# Velocity S-wave (km/s) = 3.41826 3.68956 3.55649
# Velocity P-wave (km/s) = 5.43020 6.28944 5.87555
#
# Compressibility (1/GPa) = 0.02754607
#
# Stress axis : x y z
#
# Youngs Moduli (GPa) = 127.56697 40.00266 107.11638
#
# Poissons Ratio (x) = 0.18798 0.29883
# Poissons Ratio (y) = 0.59948 -0.01881
# Poissons Ratio (z) = 0.35588 -0.00703
#
# Static dielectric constant tensor:
#      x y z
#    x 2.141950 0.000000 0.000000 
#    y 0.000000 2.506910 0.000000 
#    z 0.000000 0.000000 1.992940 
# 
# From -- ./inp_files/23317.got.cif
#   From: 2010.05.17/outbox.cif.g08.bks.cpg/sg56_12_cif.got.tgz:23317.got - 2010.06.03 13:42:01.
