data_PCOD9431721
_publ_section_title
;
Structure prediction by ZEFSAII (Michael W. Deem and Ramdas Pophale) SiO2 
 PCOD9431721
Probable space group: P C C N
;
_chemical_formula_sum "Si O2"
_cell_formula_units_Z 32
_cell_length_a 8.286523
_cell_length_b 15.933341
_cell_length_c 8.513210
_cell_angle_alpha 90.000000
_cell_angle_beta 90.000000
_cell_angle_gamma 90.000000
_cell_volume 1124.016114
_symmetry_space_group_name_H-M "P C C N"
_symmetry_group_IT_number 56
_symmetry_cell_setting 'orthorhombic'
loop_
_space_group_symop_operation_xyz
x,y,z
1/2-x,1/2-y,z
1/2+x,-y,1/2-z
-x,1/2+y,1/2-z
-x,-y,-z
1/2+x,1/2+y,-z
1/2-x,y,1/2+z
x,1/2-y,1/2+z
loop_
_atom_site_type_symbol
_atom_site_label
_atom_site_fract_x
_atom_site_fract_y
_atom_site_fract_z
Si Si1 0.567419 0.835557 0.133039
Si Si2 0.752531 0.341223 0.581520
Si Si3 0.553952 0.014302 0.180891
Si Si4 0.583095 0.847952 0.610405
O O1 0.401969 0.836493 0.034986
O O2 0.736864 0.846194 0.038453
O O3 0.575638 0.741686 0.201918
O O4 0.570909 0.919143 0.239035
O O5 0.750000 0.250000 0.664346
O O6 0.710181 0.424487 0.679323
O O7 0.922551 0.348929 0.494608
O O8 0.433163 0.071465 0.279551
O O9 0.500000 0.000000 0.000000
#
# Coordination Sequence:
#
# PCOD9431721 Si02
#       4
#     8   8   8   8
#     4   9  21  40  61  91 126 166 209 256 317 391
#     4   9  20  40  62  93 130 162 211 265 317 380
#     4  10  22  39  63  97 128 161 218 270 311 391
#     4  10  21  41  65  88 130 171 205 265 330 373
#
# _framework density 28.469342000000001
#
# number of rings (size 3 to 8) (size 9 to 14) (size 15 to 20)
#    0.000    2.500    0.000    0.000    7.000    4.000 
#    0.000   35.000    0.000    0.000    0.000    0.000 
#    0.000    0.000    0.000    0.000    0.000    0.000 
#
# Total GULP energy -178884.255403 kJ/mol
# GULP energy per Si atom -5590.132981 kJ/mol
# Density = 2.840454 g / cm^3
# Si number density = 28.469342 Si / 1000 Ang^3
#
#
#
# Elastic Constant Matrix: (Units=GPa)
#
#
# Indices 1 2 3 4 5 6 
#
# 1 280.0260 41.7668 63.2781 0.0000 0.0000 0.0000
# 2 41.7668 307.0480 40.8782 0.0000 0.0000 0.0000
# 3 63.2781 40.8782 50.9222 0.0000 0.0000 0.0000
# 4 0.0000 0.0000 0.0000 17.0782 0.0000 0.0000
# 5 0.0000 0.0000 0.0000 0.0000 49.0552 0.0000
# 6 0.0000 0.0000 0.0000 0.0000 0.0000 48.1086
#
#
#
# Elastic Compliance Matrix: (Units=1/GPa)
#
#
# Indices 1 2 3 4 5 6 
#
# 1 0.004973 0.000164 -0.006311 0.000000 0.000000 0.000000
# 2 0.000164 0.003652 -0.003135 0.000000 0.000000 0.000000
# 3 -0.006311 -0.003135 0.029997 0.000000 0.000000 0.000000
# 4 0.000000 0.000000 0.000000 0.058554 0.000000 0.000000
# 5 0.000000 0.000000 0.000000 0.000000 0.020385 0.000000
# 6 0.000000 0.000000 0.000000 0.000000 0.000000 0.020786
#
#
# Mechanical properties :
#
#
# Convention : Reuss Voigt Hill
#
# Bulk Modulus (GPa) = 49.85800 103.31582 76.58691
# Shear Modulus (GPa) = 30.56295 55.65328 43.10812
#
# Velocity S-wave (km/s) = 3.28005 4.42616 3.89549
# Velocity P-wave (km/s) = 5.64764 7.90508 6.86972
#
# Compressibility (1/GPa) = 0.02005696
#
# Stress axis : x y z
#
# Youngs Moduli (GPa) = 201.09671 273.82793 33.33719
#
# Poissons Ratio (x) = -0.04484 0.21038
# Poissons Ratio (y) = -0.03293 0.10451
# Poissons Ratio (z) = 1.26908 0.85847
#
# Static dielectric constant tensor:
#      x y z
#    x 2.236970 0.000000 0.000000 
#    y 0.000000 2.256400 0.000000 
#    z 0.000000 0.000000 2.233100 
# 
# From -- ./inp_files/6057.got.cif
#   From: 2010.05.17/outbox.cif.g08.bks.cpg/sg56_4_cif.got.tgz:6057.got - 2010.06.03 13:42:01.
