data_PCOD9431584
_publ_section_title
;
Structure prediction by ZEFSAII (Michael W. Deem and Ramdas Pophale) SiO2 
 PCOD9431584
Probable space group: P C C N
;
_chemical_formula_sum "Si O2"
_cell_formula_units_Z 44
_cell_length_a 14.240847
_cell_length_b 5.491263
_cell_length_c 25.617382
_cell_angle_alpha 90.000000
_cell_angle_beta 90.000000
_cell_angle_gamma 90.000000
_cell_volume 2003.285324
_symmetry_space_group_name_H-M "P C C N"
_symmetry_group_IT_number 56
_symmetry_cell_setting 'orthorhombic'
loop_
_space_group_symop_operation_xyz
x,y,z
1/2-x,1/2-y,z
1/2+x,-y,1/2-z
-x,1/2+y,1/2-z
-x,-y,-z
1/2+x,1/2+y,-z
1/2-x,y,1/2+z
x,1/2-y,1/2+z
loop_
_atom_site_type_symbol
_atom_site_label
_atom_site_fract_x
_atom_site_fract_y
_atom_site_fract_z
Si Si1 0.554898 0.750448 0.757802
Si Si2 0.889596 0.999238 0.020308
Si Si3 0.102358 0.018830 0.633958
Si Si4 0.750000 0.750000 0.944424
Si Si5 0.250000 0.250000 0.755880
Si Si6 0.061970 0.497026 0.945967
Si Si7 0.750000 0.250000 0.809845
O O1 0.507629 0.487815 0.753939
O O2 0.587193 0.802032 0.817296
O O3 0.646379 0.760062 0.720180
O O4 0.881534 0.752813 0.053474
O O5 0.879960 0.254008 0.049872
O O6 0.810681 0.949107 0.976653
O O7 0.000000 0.000000 0.000000
O O8 0.174529 0.122791 0.592119
O O9 0.006571 0.986983 0.603135
O O10 0.155362 0.781972 0.656497
O O11 0.244435 0.504401 0.723719
O O12 0.000000 0.500000 0.000000
#
# Coordination Sequence:
#
# PCOD9431584 Si02
#       7
#     8   8   8   4   4   8   4
#     4  11  24  43  66 101 133 175 217 288 354 396
#     4  10  22  39  55  91 132 172 202 265 328 383
#     4  11  23  37  68  97 132 172 221 273 332 392
#     4  12  23  38  70  97 130 172 225 280 328 377
#     4  10  21  44  64  97 136 160 223 278 340 417
#     4  10  21  40  55  87 133 170 205 258 317 397
#     4  10  22  34  60 104 126 154 218 288 324 376
#
# _framework density 21.963922
#
# number of rings (size 3 to 8) (size 9 to 14) (size 15 to 20)
#    0.000    1.455    3.636    4.364    5.091    5.091 
#    0.000    0.000    0.000    6.545    0.000    0.000 
#    0.000    0.000    0.000    0.000    0.000    0.000 
#
# Total GULP energy -245394.537436 kJ/mol
# GULP energy per Si atom -5577.148578 kJ/mol
# Density = 2.191393 g / cm^3
# Si number density = 21.963922 Si / 1000 Ang^3
#
#
#
# Elastic Constant Matrix: (Units=GPa)
#
#
# Indices 1 2 3 4 5 6 
#
# 1 101.5538 33.0090 17.4175 0.0000 0.0000 0.0000
# 2 33.0090 174.4381 16.1499 0.0000 0.0000 0.0000
# 3 17.4175 16.1499 16.9319 0.0000 0.0000 0.0000
# 4 0.0000 0.0000 0.0000 22.3293 0.0000 0.0000
# 5 0.0000 0.0000 0.0000 0.0000 28.0091 0.0000
# 6 0.0000 0.0000 0.0000 0.0000 0.0000 40.0415
#
#
#
# Elastic Compliance Matrix: (Units=1/GPa)
#
#
# Indices 1 2 3 4 5 6 
#
# 1 0.012203 -0.001258 -0.011353 0.000000 0.000000 0.000000
# 2 -0.001258 0.006418 -0.004827 0.000000 0.000000 0.000000
# 3 -0.011353 -0.004827 0.075343 0.000000 0.000000 0.000000
# 4 0.000000 0.000000 0.000000 0.044784 0.000000 0.000000
# 5 0.000000 0.000000 0.000000 0.000000 0.035703 0.000000
# 6 0.000000 0.000000 0.000000 0.000000 0.000000 0.024974
#
#
# Mechanical properties :
#
#
# Convention : Reuss Voigt Hill
#
# Bulk Modulus (GPa) = 16.92417 47.34183 32.13300
# Shear Modulus (GPa) = 19.68530 33.16581 26.42555
#
# Velocity S-wave (km/s) = 2.99700 3.89010 3.47239
# Velocity P-wave (km/s) = 4.43826 6.46362 5.54421
#
# Compressibility (1/GPa) = 0.05908708
#
# Stress axis : x y z
#
# Youngs Moduli (GPa) = 81.94641 155.81988 13.27267
#
# Poissons Ratio (x) = 0.19604 0.15069
# Poissons Ratio (y) = 0.10310 0.06407
# Poissons Ratio (z) = 0.93034 0.75215
#
# Static dielectric constant tensor:
#      x y z
#    x 1.918260 0.000000 0.000000 
#    y 0.000000 1.818440 0.000000 
#    z 0.000000 0.000000 1.836190 
# 
# From -- ./inp_files/22412.got.cif
#   From: 2010.05.17/outbox.cif.g08.bks.cpg/sg56_12_cif.got.tgz:22412.got - 2010.06.03 13:42:01.
