data_PCOD9431321
_publ_section_title
;
Structure prediction by ZEFSAII (Michael W. Deem and Ramdas Pophale) SiO2 
 PCOD9431321
Probable space group: P C C N
;
_chemical_formula_sum "Si O2"
_cell_formula_units_Z 44
_cell_length_a 20.522456
_cell_length_b 5.710686
_cell_length_c 17.827098
_cell_angle_alpha 90.000000
_cell_angle_beta 90.000000
_cell_angle_gamma 90.000000
_cell_volume 2089.287791
_symmetry_space_group_name_H-M "P C C N"
_symmetry_group_IT_number 56
_symmetry_cell_setting 'orthorhombic'
loop_
_space_group_symop_operation_xyz
x,y,z
1/2-x,1/2-y,z
1/2+x,-y,1/2-z
-x,1/2+y,1/2-z
-x,-y,-z
1/2+x,1/2+y,-z
1/2-x,y,1/2+z
x,1/2-y,1/2+z
loop_
_atom_site_type_symbol
_atom_site_label
_atom_site_fract_x
_atom_site_fract_y
_atom_site_fract_z
Si Si1 0.186015 0.890452 0.503071
Si Si2 0.574050 0.953232 0.914410
Si Si3 0.366270 0.573963 0.870333
Si Si4 0.024807 0.301715 0.444343
Si Si5 0.250000 0.250000 0.389830
Si Si6 0.013919 0.756598 0.289700
O O1 0.250000 0.750000 0.526718
O O2 0.149634 0.992323 0.576032
O O3 0.146868 0.708626 0.449109
O O4 0.206289 0.093909 0.445428
O O5 0.536132 0.194392 0.901778
O O6 0.538056 0.775974 0.859075
O O7 0.557732 0.883328 0.000001
O O8 0.420195 0.380163 0.888111
O O9 0.299145 0.436588 0.849093
O O10 0.409659 0.739949 0.816123
O O11 0.000000 0.500000 0.500000
O O12 0.997509 0.508063 0.250372
#
# Coordination Sequence:
#
# PCOD9431321 Si02
#       6
#     8   8   8   8   4   8
#     4  10  21  36  62 104 128 166 206 274 358 423
#     4  11  21  36  62  94 137 165 212 283 349 398
#     4  11  21  39  65  98 138 162 224 274 352 403
#     4  11  18  32  64 101 123 159 200 283 368 402
#     4  10  22  36  64 102 134 168 200 278 348 432
#     4  12  28  43  65  98 133 189 241 285 322 395
#
# _framework density 21.059806999999999
#
# number of rings (size 3 to 8) (size 9 to 14) (size 15 to 20)
#    0.000    1.091    5.455    2.182    2.545    0.000 
#    0.000    0.000    0.000    4.364    0.000    0.000 
#    0.000    0.000    0.000    0.000    0.000    0.000 
#
# Total GULP energy -244953.474302 kJ/mol
# GULP energy per Si atom -5567.124416 kJ/mol
# Density = 2.101187 g / cm^3
# Si number density = 21.059807 Si / 1000 Ang^3
#
#
#
# Elastic Constant Matrix: (Units=GPa)
#
#
# Indices 1 2 3 4 5 6 
#
# 1 127.9232 35.7699 31.7582 0.0000 0.0000 0.0000
# 2 35.7699 84.5121 26.6605 0.0000 0.0000 0.0000
# 3 31.7582 26.6605 51.1899 0.0000 0.0000 0.0000
# 4 0.0000 0.0000 0.0000 41.8128 0.0000 0.0000
# 5 0.0000 0.0000 0.0000 0.0000 21.8897 0.0000
# 6 0.0000 0.0000 0.0000 0.0000 0.0000 39.2978
#
#
#
# Elastic Compliance Matrix: (Units=1/GPa)
#
#
# Indices 1 2 3 4 5 6 
#
# 1 0.009710 -0.002644 -0.004647 0.000000 0.000000 0.000000
# 2 -0.002644 0.014879 -0.006109 0.000000 0.000000 0.000000
# 3 -0.004647 -0.006109 0.025600 0.000000 0.000000 0.000000
# 4 0.000000 0.000000 0.000000 0.023916 0.000000 0.000000
# 5 0.000000 0.000000 0.000000 0.000000 0.045684 0.000000
# 6 0.000000 0.000000 0.000000 0.000000 0.000000 0.025447
#
#
# Mechanical properties :
#
#
# Convention : Reuss Voigt Hill
#
# Bulk Modulus (GPa) = 42.75528 50.22248 46.48888
# Shear Modulus (GPa) = 27.80382 31.89583 29.84983
#
# Velocity S-wave (km/s) = 3.63744 3.89593 3.76890
# Velocity P-wave (km/s) = 6.16338 6.64357 6.40797
#
# Compressibility (1/GPa) = 0.02338893
#
# Stress axis : x y z
#
# Youngs Moduli (GPa) = 102.98464 67.21000 39.06270
#
# Poissons Ratio (x) = 0.17769 0.18154
# Poissons Ratio (y) = 0.27227 0.23863
# Poissons Ratio (z) = 0.47860 0.41058
#
# Static dielectric constant tensor:
#      x y z
#    x 1.894480 0.000000 0.000000 
#    y 0.000000 1.872450 0.000000 
#    z 0.000000 0.000000 1.820630 
# 
# From -- ./inp_files/19405.got.cif
#   From: 2010.05.17/outbox.cif.g08.bks.cpg/sg56_10_cif.got.tgz:19405.got - 2010.06.03 13:42:01.
