data_PCOD9431465
_publ_section_title
;
Structure prediction by ZEFSAII (Michael W. Deem and Ramdas Pophale) SiO2 
 PCOD9431465
Probable space group: P C C N
;
_chemical_formula_sum "Si O2"
_cell_formula_units_Z 36
_cell_length_a 9.567859
_cell_length_b 10.359689
_cell_length_c 15.431525
_cell_angle_alpha 90.000000
_cell_angle_beta 90.000000
_cell_angle_gamma 90.000000
_cell_volume 1529.573431
_symmetry_space_group_name_H-M "P C C N"
_symmetry_group_IT_number 56
_symmetry_cell_setting 'orthorhombic'
loop_
_space_group_symop_operation_xyz
x,y,z
1/2-x,1/2-y,z
1/2+x,-y,1/2-z
-x,1/2+y,1/2-z
-x,-y,-z
1/2+x,1/2+y,-z
1/2-x,y,1/2+z
x,1/2-y,1/2+z
loop_
_atom_site_type_symbol
_atom_site_label
_atom_site_fract_x
_atom_site_fract_y
_atom_site_fract_z
Si Si1 0.226926 0.095784 0.878448
Si Si2 0.220783 0.020876 0.677893
Si Si3 0.066981 0.632653 0.885569
Si Si4 0.892976 0.660737 0.456996
Si Si5 0.750000 0.250000 0.266906
O O1 0.250000 0.250000 0.868900
O O2 0.209952 0.052277 0.779713
O O3 0.342928 0.992272 0.912369
O O4 0.108717 0.085638 0.952027
O O5 0.209506 0.868157 0.673298
O O6 0.356513 0.078471 0.629306
O O7 0.084867 0.080531 0.636101
O O8 0.132574 0.696552 0.799106
O O9 0.030802 0.751687 0.948621
O O10 0.750000 0.750000 0.463212
#
# Coordination Sequence:
#
# PCOD9431465 Si02
#       5
#     8   8   8   8   4
#     4  10  21  38  65 100 126 177 223 261 343 392
#     4  10  22  40  64  94 130 172 221 273 336 393
#     4  10  22  41  63  93 138 164 221 283 312 400
#     4   9  20  39  66  96 129 171 220 275 326 393
#     4  10  24  38  64  96 124 174 218 264 336 390
#
# _framework density 23.535972999999998
#
# number of rings (size 3 to 8) (size 9 to 14) (size 15 to 20)
#    0.000    2.222    0.000    2.000    9.333    8.000 
#    0.000    8.889    0.000    0.000    0.000    0.000 
#    0.000    0.000    0.000    0.000    0.000    0.000 
#
# Total GULP energy -200754.495693 kJ/mol
# GULP energy per Si atom -5576.513769 kJ/mol
# Density = 2.348240 g / cm^3
# Si number density = 23.535973 Si / 1000 Ang^3
#
#
#
# Elastic Constant Matrix: (Units=GPa)
#
#
# Indices 1 2 3 4 5 6 
#
# 1 47.7621 40.6994 5.6790 0.0000 0.0000 0.0000
# 2 40.6994 146.1509 36.4550 0.0000 0.0000 0.0000
# 3 5.6790 36.4550 101.9304 0.0000 0.0000 0.0000
# 4 0.0000 0.0000 0.0000 12.7136 0.0000 0.0000
# 5 0.0000 0.0000 0.0000 0.0000 13.6164 0.0000
# 6 0.0000 0.0000 0.0000 0.0000 0.0000 32.7821
#
#
#
# Elastic Compliance Matrix: (Units=1/GPa)
#
#
# Indices 1 2 3 4 5 6 
#
# 1 0.027615 -0.008022 0.001330 0.000000 0.000000 0.000000
# 2 -0.008022 0.009843 -0.003073 0.000000 0.000000 0.000000
# 3 0.001330 -0.003073 0.010836 0.000000 0.000000 0.000000
# 4 0.000000 0.000000 0.000000 0.078656 0.000000 0.000000
# 5 0.000000 0.000000 0.000000 0.000000 0.073441 0.000000
# 6 0.000000 0.000000 0.000000 0.000000 0.000000 0.030504
#
#
# Mechanical properties :
#
#
# Convention : Reuss Voigt Hill
#
# Bulk Modulus (GPa) = 34.76621 51.27892 43.02256
# Shear Modulus (GPa) = 19.22996 26.02310 22.62653
#
# Velocity S-wave (km/s) = 2.86150 3.32877 3.10394
# Velocity P-wave (km/s) = 5.07161 6.05054 5.58257
#
# Compressibility (1/GPa) = 0.02876356
#
# Stress axis : x y z
#
# Youngs Moduli (GPa) = 36.21285 101.59818 92.28812
#
# Poissons Ratio (x) = 0.81500 -0.12278
# Poissons Ratio (y) = 0.29049 0.28363
# Poissons Ratio (z) = -0.04818 0.31224
#
# Static dielectric constant tensor:
#      x y z
#    x 1.866380 0.000000 0.000000 
#    y 0.000000 2.116650 0.000000 
#    z 0.000000 0.000000 1.928300 
# 
# From -- ./inp_files/11370.got.cif
#   From: 2010.05.17/outbox.cif.g08.bks.cpg/sg56_6_cif.got.tgz:11370.got - 2010.06.03 13:42:01.
