data_PCOD9431572
_publ_section_title
;
Structure prediction by ZEFSAII (Michael W. Deem and Ramdas Pophale) SiO2 
 PCOD9431572
Probable space group: P C C N
;
_chemical_formula_sum "Si O2"
_cell_formula_units_Z 60
_cell_length_a 10.767814
_cell_length_b 28.759920
_cell_length_c 8.762916
_cell_angle_alpha 90.000000
_cell_angle_beta 90.000000
_cell_angle_gamma 90.000000
_cell_volume 2713.712701
_symmetry_space_group_name_H-M "P C C N"
_symmetry_group_IT_number 56
_symmetry_cell_setting 'orthorhombic'
loop_
_space_group_symop_operation_xyz
x,y,z
1/2-x,1/2-y,z
1/2+x,-y,1/2-z
-x,1/2+y,1/2-z
-x,-y,-z
1/2+x,1/2+y,-z
1/2-x,y,1/2+z
x,1/2-y,1/2+z
loop_
_atom_site_type_symbol
_atom_site_label
_atom_site_fract_x
_atom_site_fract_y
_atom_site_fract_z
Si Si1 0.712762 0.832101 0.807163
Si Si2 0.721403 0.929212 0.646545
Si Si3 0.538505 0.881668 0.034517
Si Si4 0.699337 0.994104 0.391828
Si Si5 0.250000 0.750000 0.859345
Si Si6 0.091558 0.533964 0.905276
Si Si7 0.087338 0.708249 0.097885
Si Si8 0.130327 0.220499 0.987838
O O1 0.691215 0.879596 0.712605
O O2 0.628816 0.844728 0.951597
O O3 0.660728 0.796526 0.683323
O O4 0.848524 0.819389 0.880327
O O5 0.868227 0.918948 0.612222
O O6 0.655398 0.950988 0.498869
O O7 0.707335 0.967105 0.778004
O O8 0.455246 0.913555 0.925343
O O9 0.455296 0.844721 0.124844
O O10 0.776562 0.026877 0.505833
O O11 0.608895 0.019151 0.271846
O O12 0.355692 0.729635 0.750375
O O13 0.193951 0.710455 0.968792
O O14 0.000000 0.500000 0.000000
O O15 0.985930 0.745438 0.032387
O O16 0.250000 0.250000 0.035138
#
# Coordination Sequence:
#
# PCOD9431572 Si02
#       8
#     8   8   8   8   4   8   8   8
#     4  12  22  38  63 108 145 166 213 278 355 416
#     4  11  19  39  62  98 135 169 207 279 348 405
#     4  12  23  38  70  94 134 173 223 283 344 397
#     4  10  21  39  68  90 131 173 222 267 336 413
#     4  10  26  50  66  84 142 196 238 264 322 396
#     4  11  22  43  66  93 131 180 217 276 347 405
#     4  11  25  45  68  95 132 189 233 281 328 406
#     4  12  24  38  68 107 140 175 218 283 360 410
#
# _framework density 22.109929999999999
#
# number of rings (size 3 to 8) (size 9 to 14) (size 15 to 20)
#    0.000    0.800    6.667    1.200    3.733    1.067 
#    0.000    6.000    0.000    0.000    0.000    0.000 
#    0.000    0.000    0.000    0.000    0.000    0.000 
#
# Total GULP energy -334026.836539 kJ/mol
# GULP energy per Si atom -5567.113942 kJ/mol
# Density = 2.205961 g / cm^3
# Si number density = 22.109930 Si / 1000 Ang^3
#
#
#
# Elastic Constant Matrix: (Units=GPa)
#
#
# Indices 1 2 3 4 5 6 
#
# 1 52.3788 21.9751 18.8608 0.0000 0.0000 0.0000
# 2 21.9751 79.1338 17.0373 0.0000 0.0000 0.0000
# 3 18.8608 17.0373 92.2455 0.0000 0.0000 0.0000
# 4 0.0000 0.0000 0.0000 30.5742 0.0000 0.0000
# 5 0.0000 0.0000 0.0000 0.0000 32.0599 0.0000
# 6 0.0000 0.0000 0.0000 0.0000 0.0000 30.7201
#
#
#
# Elastic Compliance Matrix: (Units=1/GPa)
#
#
# Indices 1 2 3 4 5 6 
#
# 1 0.022716 -0.005528 -0.003624 0.000000 0.000000 0.000000
# 2 -0.005528 0.014505 -0.001549 0.000000 0.000000 0.000000
# 3 -0.003624 -0.001549 0.011868 0.000000 0.000000 0.000000
# 4 0.000000 0.000000 0.000000 0.032707 0.000000 0.000000
# 5 0.000000 0.000000 0.000000 0.000000 0.031192 0.000000
# 6 0.000000 0.000000 0.000000 0.000000 0.000000 0.032552
#
#
# Mechanical properties :
#
#
# Convention : Reuss Voigt Hill
#
# Bulk Modulus (GPa) = 36.11662 37.72271 36.91966
# Shear Modulus (GPa) = 28.38179 29.72984 29.05582
#
# Velocity S-wave (km/s) = 3.58672 3.67091 3.62906
# Velocity P-wave (km/s) = 5.78992 5.92165 5.85615
#
# Compressibility (1/GPa) = 0.02768809
#
# Stress axis : x y z
#
# Youngs Moduli (GPa) = 44.02255 68.94006 84.26324
#
# Poissons Ratio (x) = 0.38109 0.30533
# Poissons Ratio (y) = 0.24335 0.13051
# Poissons Ratio (z) = 0.15952 0.10678
#
# Static dielectric constant tensor:
#      x y z
#    x 1.929390 0.000000 0.000000 
#    y 0.000000 1.926040 0.000000 
#    z 0.000000 0.000000 1.851350 
# 
# From -- ./inp_files/2943.got.cif
#   From: 2010.05.17/outbox.cif.g08.bks.cpg/sg56_2_cif.got.tgz:2943.got - 2010.06.03 13:42:01.
