data_PCOD9431476
_publ_section_title
;
Structure prediction by ZEFSAII (Michael W. Deem and Ramdas Pophale) SiO2 
 PCOD9431476
Probable space group: P C C N
;
_chemical_formula_sum "Si O2"
_cell_formula_units_Z 60
_cell_length_a 21.691734
_cell_length_b 8.352874
_cell_length_c 14.008954
_cell_angle_alpha 90.000000
_cell_angle_beta 90.000000
_cell_angle_gamma 90.000000
_cell_volume 2538.258853
_symmetry_space_group_name_H-M "P C C N"
_symmetry_group_IT_number 56
_symmetry_cell_setting 'orthorhombic'
loop_
_space_group_symop_operation_xyz
x,y,z
1/2-x,1/2-y,z
1/2+x,-y,1/2-z
-x,1/2+y,1/2-z
-x,-y,-z
1/2+x,1/2+y,-z
1/2-x,y,1/2+z
x,1/2-y,1/2+z
loop_
_atom_site_type_symbol
_atom_site_label
_atom_site_fract_x
_atom_site_fract_y
_atom_site_fract_z
Si Si1 0.516620 0.635751 0.144128
Si Si2 0.250000 0.750000 0.019192
Si Si3 0.457212 0.820270 0.453705
Si Si4 0.630552 0.830378 0.113181
Si Si5 0.793341 0.909585 0.015019
Si Si6 0.680922 0.824592 0.306881
Si Si7 0.871113 0.403244 0.962346
Si Si8 0.943564 0.624026 0.846419
O O1 0.549924 0.471358 0.112862
O O2 0.558919 0.792783 0.129759
O O3 0.510100 0.620903 0.256979
O O4 0.462915 0.631961 0.065543
O O5 0.268680 0.587212 0.963066
O O6 0.190033 0.682795 0.074855
O O7 0.400049 0.703251 0.454031
O O8 0.519786 0.728540 0.424076
O O9 0.663695 0.904072 0.205646
O O10 0.659129 0.655309 0.092582
O O11 0.641560 0.931608 0.017951
O O12 0.750000 0.750000 0.011749
O O13 0.818170 0.921778 0.905995
O O14 0.750000 0.750000 0.297662
O O15 0.622405 0.703444 0.318355
O O16 0.922902 0.452526 0.886298
#
# Coordination Sequence:
#
# PCOD9431476 Si02
#       8
#     8   4   8   8   8   8   8   8
#     4  10  24  42  68 101 137 182 231 298 361 430
#     4  12  26  42  74 104 138 196 240 290 368 440
#     4  11  24  44  69 102 142 181 245 303 362 437
#     4  11  21  41  68  97 137 186 227 291 365 422
#     4  11  20  42  67  93 137 181 228 289 349 418
#     4  10  21  38  67  98 131 189 235 280 364 432
#     4  12  24  43  68 103 137 187 242 299 361 438
#     4  11  23  42  72 101 141 187 240 296 368 430
#
# _framework density 23.638252000000001
#
# number of rings (size 3 to 8) (size 9 to 14) (size 15 to 20)
#    0.000    1.067    4.000    2.400    1.867    2.133 
#    2.400    0.667    0.000    0.000    0.000    0.000 
#    0.000    0.000    0.000    0.000    0.000    0.000 
#
# Total GULP energy -334441.123904 kJ/mol
# GULP energy per Si atom -5574.018732 kJ/mol
# Density = 2.358445 g / cm^3
# Si number density = 23.638252 Si / 1000 Ang^3
#
#
#
# Elastic Constant Matrix: (Units=GPa)
#
#
# Indices 1 2 3 4 5 6 
#
# 1 67.2108 7.9382 21.4644 0.0000 0.0000 0.0000
# 2 7.9382 90.7810 10.6267 0.0000 0.0000 0.0000
# 3 21.4644 10.6267 79.3682 0.0000 0.0000 0.0000
# 4 0.0000 0.0000 0.0000 12.1342 0.0000 0.0000
# 5 0.0000 0.0000 0.0000 0.0000 5.9383 0.0000
# 6 0.0000 0.0000 0.0000 0.0000 0.0000 42.8799
#
#
#
# Elastic Compliance Matrix: (Units=1/GPa)
#
#
# Indices 1 2 3 4 5 6 
#
# 1 0.016362 -0.000927 -0.004301 0.000000 0.000000 0.000000
# 2 -0.000927 0.011243 -0.001255 0.000000 0.000000 0.000000
# 3 -0.004301 -0.001255 0.013931 0.000000 0.000000 0.000000
# 4 0.000000 0.000000 0.000000 0.082411 0.000000 0.000000
# 5 0.000000 0.000000 0.000000 0.000000 0.168398 0.000000
# 6 0.000000 0.000000 0.000000 0.000000 0.000000 0.023321
#
#
# Mechanical properties :
#
#
# Convention : Reuss Voigt Hill
#
# Bulk Modulus (GPa) = 35.00124 35.26873 35.13499
# Shear Modulus (GPa) = 14.78614 25.34587 20.06601
#
# Velocity S-wave (km/s) = 2.50375 3.27806 2.91671
# Velocity P-wave (km/s) = 4.81638 5.41111 5.12239
#
# Compressibility (1/GPa) = 0.02857042
#
# Stress axis : x y z
#
# Youngs Moduli (GPa) = 61.11894 88.94053 71.78463
#
# Poissons Ratio (x) = 0.08247 0.30872
# Poissons Ratio (y) = 0.05667 0.09006
# Poissons Ratio (z) = 0.26285 0.11159
#
# Static dielectric constant tensor:
#      x y z
#    x 2.121710 0.000000 0.000000 
#    y 0.000000 1.961670 0.000000 
#    z 0.000000 0.000000 1.883840 
# 
# From -- ./inp_files/13254.got.cif
#   From: 2010.05.17/outbox.cif.g08.bks.cpg/sg56_7_cif.got.tgz:13254.got - 2010.06.03 13:42:01.
