data_PCOD9431383
_publ_section_title
;
Structure prediction by ZEFSAII (Michael W. Deem and Ramdas Pophale) SiO2 
 PCOD9431383
Probable space group: P C C N
;
_chemical_formula_sum "Si O2"
_cell_formula_units_Z 64
_cell_length_a 12.329840
_cell_length_b 24.482530
_cell_length_c 10.228098
_cell_angle_alpha 90.000000
_cell_angle_beta 90.000000
_cell_angle_gamma 90.000000
_cell_volume 3087.511734
_symmetry_space_group_name_H-M "P C C N"
_symmetry_group_IT_number 56
_symmetry_cell_setting 'orthorhombic'
loop_
_space_group_symop_operation_xyz
x,y,z
1/2-x,1/2-y,z
1/2+x,-y,1/2-z
-x,1/2+y,1/2-z
-x,-y,-z
1/2+x,1/2+y,-z
1/2-x,y,1/2+z
x,1/2-y,1/2+z
loop_
_atom_site_type_symbol
_atom_site_label
_atom_site_fract_x
_atom_site_fract_y
_atom_site_fract_z
Si Si1 0.994757 0.686561 0.381526
Si Si2 0.432172 0.310315 0.620476
Si Si3 0.024589 0.623679 0.129555
Si Si4 0.283829 0.687875 0.034167
Si Si5 0.604561 0.036989 0.042948
Si Si6 0.777525 0.621254 0.415138
Si Si7 0.801139 0.563254 0.164632
Si Si8 0.137643 0.859263 0.294053
O O1 0.938747 0.745587 0.379963
O O2 0.897695 0.645048 0.411214
O O3 0.046112 0.665558 0.245144
O O4 0.094933 0.688645 0.478243
O O5 0.479898 0.339398 0.489798
O O6 0.311596 0.334181 0.630810
O O7 0.522718 0.328530 0.724612
O O8 0.924061 0.585450 0.171231
O O9 0.111894 0.579688 0.077388
O O10 0.250000 0.750000 0.066975
O O11 0.292270 0.651460 0.164880
O O12 0.205131 0.666116 0.917590
O O13 0.600917 0.079480 0.165027
O O14 0.695018 0.994839 0.092368
O O15 0.500000 0.000000 0.000000
O O16 0.759864 0.571389 0.311923
O O17 0.756228 0.603159 0.562546
#
# Coordination Sequence:
#
# PCOD9431383 Si02
#       8
#     8   8   8   8   8   8   8   8
#     4  11  23  38  64  94 139 174 216 283 334 400
#     4  10  21  37  64  94 131 177 215 264 349 413
#     4   8  19  37  61  92 121 169 218 259 324 408
#     4  12  27  44  65  96 137 184 232 283 332 396
#     4   9  19  42  70  91 120 170 222 271 344 405
#     4  10  22  39  62 100 132 165 218 275 337 419
#     4   9  19  38  62  88 125 165 208 265 333 392
#     4  11  26  42  67  98 129 177 237 278 335 403
#
# _framework density 20.728666
#
# number of rings (size 3 to 8) (size 9 to 14) (size 15 to 20)
#    0.000    2.000    1.250    1.500    7.000    1.000 
#    0.000    3.750    0.000    3.000    0.000    0.000 
#    0.000    0.000    0.000    0.000    0.000    0.000 
#
# Total GULP energy -356326.861044 kJ/mol
# GULP energy per Si atom -5567.607204 kJ/mol
# Density = 2.068149 g / cm^3
# Si number density = 20.728666 Si / 1000 Ang^3
#
#
#
# Elastic Constant Matrix: (Units=GPa)
#
#
# Indices 1 2 3 4 5 6 
#
# 1 87.9223 10.9083 16.3526 0.0000 0.0000 0.0000
# 2 10.9083 87.8365 22.7266 0.0000 0.0000 0.0000
# 3 16.3526 22.7266 75.0757 0.0000 0.0000 0.0000
# 4 0.0000 0.0000 0.0000 13.2646 0.0000 0.0000
# 5 0.0000 0.0000 0.0000 0.0000 15.5166 0.0000
# 6 0.0000 0.0000 0.0000 0.0000 0.0000 31.6647
#
#
#
# Elastic Compliance Matrix: (Units=1/GPa)
#
#
# Indices 1 2 3 4 5 6 
#
# 1 0.011916 -0.000877 -0.002330 0.000000 0.000000 0.000000
# 2 -0.000877 0.012417 -0.003568 0.000000 0.000000 0.000000
# 3 -0.002330 -0.003568 0.014907 0.000000 0.000000 0.000000
# 4 0.000000 0.000000 0.000000 0.075389 0.000000 0.000000
# 5 0.000000 0.000000 0.000000 0.000000 0.064447 0.000000
# 6 0.000000 0.000000 0.000000 0.000000 0.000000 0.031581
#
#
# Mechanical properties :
#
#
# Convention : Reuss Voigt Hill
#
# Bulk Modulus (GPa) = 38.92463 38.97884 38.95173
# Shear Modulus (GPa) = 21.48044 25.47897 23.47970
#
# Velocity S-wave (km/s) = 3.22260 3.50975 3.36924
# Velocity P-wave (km/s) = 5.71540 5.93882 5.82818
#
# Compressibility (1/GPa) = 0.02569068
#
# Stress axis : x y z
#
# Youngs Moduli (GPa) = 83.92195 80.53602 67.08075
#
# Poissons Ratio (x) = 0.07063 0.15630
# Poissons Ratio (y) = 0.07360 0.23933
# Poissons Ratio (z) = 0.19554 0.28733
#
# Static dielectric constant tensor:
#      x y z
#    x 1.766940 0.000000 0.000000 
#    y 0.000000 1.771640 0.000000 
#    z 0.000000 0.000000 1.776440 
# 
# From -- ./inp_files/7396.got.cif
#   From: 2010.05.17/outbox.cif.g08.bks.cpg/sg56_4_cif.got.tgz:7396.got - 2010.06.03 13:42:01.
