data_PCOD9431799
_publ_section_title
;
Structure prediction by ZEFSAII (Michael W. Deem and Ramdas Pophale) SiO2 
 PCOD9431799
Probable space group: P C C N
;
_chemical_formula_sum "Si O2"
_cell_formula_units_Z 32
_cell_length_a 6.854745
_cell_length_b 34.613486
_cell_length_c 5.317998
_cell_angle_alpha 90.000000
_cell_angle_beta 90.000000
_cell_angle_gamma 90.000000
_cell_volume 1261.783411
_symmetry_space_group_name_H-M "P C C N"
_symmetry_group_IT_number 56
_symmetry_cell_setting 'orthorhombic'
loop_
_space_group_symop_operation_xyz
x,y,z
1/2-x,1/2-y,z
1/2+x,-y,1/2-z
-x,1/2+y,1/2-z
-x,-y,-z
1/2+x,1/2+y,-z
1/2-x,y,1/2+z
x,1/2-y,1/2+z
loop_
_atom_site_type_symbol
_atom_site_label
_atom_site_fract_x
_atom_site_fract_y
_atom_site_fract_z
Si Si1 0.029927 0.734802 0.396382
Si Si2 0.965521 0.427527 0.609080
Si Si3 0.119402 0.153109 0.965686
Si Si4 0.523479 0.457458 0.609835
O O1 0.250000 0.750000 0.358376
O O2 0.944503 0.762101 0.615662
O O3 0.007710 0.691724 0.498095
O O4 0.747128 0.443652 0.647654
O O5 0.057635 0.454457 0.392043
O O6 0.985037 0.384576 0.503262
O O7 0.053443 0.429505 0.888991
O O8 0.276123 0.152731 0.194682
O O9 0.500000 0.500000 0.500000
#
# Coordination Sequence:
#
# PCOD9431799 Si02
#       4
#     8   8   8   8
#     4  10  23  42  70 104 133 181 236 277 337 406
#     4  10  23  43  65  96 132 178 225 273 349 410
#     4  12  26  45  66  99 146 184 224 284 344 417
#     4  10  21  42  68  96 125 168 227 294 334 399
#
# _framework density 25.36093
#
# number of rings (size 3 to 8) (size 9 to 14) (size 15 to 20)
#    0.000    1.500    0.000    3.750    0.000   11.000 
#   27.000    0.000    0.000    0.000    0.000    0.000 
#    0.000    0.000    0.000    0.000    0.000    0.000 
#
# Total GULP energy -178927.666762 kJ/mol
# GULP energy per Si atom -5591.489586 kJ/mol
# Density = 2.530321 g / cm^3
# Si number density = 25.360930 Si / 1000 Ang^3
#
#
#
# Elastic Constant Matrix: (Units=GPa)
#
#
# Indices 1 2 3 4 5 6 
#
# 1 132.2810 4.2654 -24.5061 0.0000 0.0000 0.0000
# 2 4.2654 132.5280 -17.2432 0.0000 0.0000 0.0000
# 3 -24.5061 -17.2432 192.2582 0.0000 0.0000 0.0000
# 4 0.0000 0.0000 0.0000 47.5145 0.0000 0.0000
# 5 0.0000 0.0000 0.0000 0.0000 13.0733 0.0000
# 6 0.0000 0.0000 0.0000 0.0000 0.0000 45.2819
#
#
#
# Elastic Compliance Matrix: (Units=1/GPa)
#
#
# Indices 1 2 3 4 5 6 
#
# 1 0.007744 -0.000122 0.000976 0.000000 0.000000 0.000000
# 2 -0.000122 0.007637 0.000669 0.000000 0.000000 0.000000
# 3 0.000976 0.000669 0.005386 0.000000 0.000000 0.000000
# 4 0.000000 0.000000 0.000000 0.021046 0.000000 0.000000
# 5 0.000000 0.000000 0.000000 0.000000 0.076492 0.000000
# 6 0.000000 0.000000 0.000000 0.000000 0.000000 0.022084
#
#
# Mechanical properties :
#
#
# Convention : Reuss Voigt Hill
#
# Bulk Modulus (GPa) = 41.99323 42.45550 42.22437
# Shear Modulus (GPa) = 34.41632 54.14400 44.28016
#
# Velocity S-wave (km/s) = 3.68783 4.62555 4.18305
# Velocity P-wave (km/s) = 5.89301 6.73086 6.32582
#
# Compressibility (1/GPa) = 0.02381336
#
# Stress axis : x y z
#
# Youngs Moduli (GPa) = 129.12467 130.94842 185.67357
#
# Poissons Ratio (x) = 0.01601 -0.18125
# Poissons Ratio (y) = 0.01578 -0.12428
# Poissons Ratio (z) = -0.12605 -0.08765
#
# Static dielectric constant tensor:
#      x y z
#    x 2.162630 0.000000 0.000000 
#    y 0.000000 1.953970 0.000000 
#    z 0.000000 0.000000 2.124530 
# 
# From -- ./inp_files/124.got.cif
#   From: 2010.05.17/outbox.cif.g08.bks.cpg/sg56_1_cif.got.tgz:124.got - 2010.06.03 13:42:01.
