data_PCOD9431414
_publ_section_title
;
Structure prediction by ZEFSAII (Michael W. Deem and Ramdas Pophale) SiO2 
 PCOD9431414
Probable space group: P C C N
;
_chemical_formula_sum "Si O2"
_cell_formula_units_Z 40
_cell_length_a 7.205774
_cell_length_b 16.674355
_cell_length_c 14.873949
_cell_angle_alpha 90.000000
_cell_angle_beta 90.000000
_cell_angle_gamma 90.000000
_cell_volume 1787.129272
_symmetry_space_group_name_H-M "P C C N"
_symmetry_group_IT_number 56
_symmetry_cell_setting 'orthorhombic'
loop_
_space_group_symop_operation_xyz
x,y,z
1/2-x,1/2-y,z
1/2+x,-y,1/2-z
-x,1/2+y,1/2-z
-x,-y,-z
1/2+x,1/2+y,-z
1/2-x,y,1/2+z
x,1/2-y,1/2+z
loop_
_atom_site_type_symbol
_atom_site_label
_atom_site_fract_x
_atom_site_fract_y
_atom_site_fract_z
Si Si1 0.312016 0.478247 0.883400
Si Si2 0.859219 0.576068 0.413086
Si Si3 0.526507 0.735593 0.990600
Si Si4 0.586978 0.690259 0.187340
Si Si5 0.045270 0.872993 0.360254
O O1 0.515306 0.513232 0.860794
O O2 0.305010 0.391641 0.838967
O O3 0.165074 0.546794 0.862064
O O4 0.306124 0.462001 0.990527
O O5 0.988676 0.652981 0.435301
O O6 0.670824 0.601372 0.366625
O O7 0.750000 0.750000 0.987959
O O8 0.490206 0.721288 0.095703
O O9 0.428902 0.810662 0.943015
O O10 0.750000 0.750000 0.217208
O O11 0.443114 0.673965 0.266601
#
# Coordination Sequence:
#
# PCOD9431414 Si02
#       5
#     8   8   8   8   8
#     4  10  22  37  62  94 124 163 213 261 316 378
#     4   9  19  38  60  86 126 165 205 259 311 371
#     4   8  17  36  60  86 124 171 206 252 322 378
#     4  10  21  38  60  93 129 164 212 265 316 381
#     4  11  21  37  67  90 122 173 211 253 321 380
#
# _framework density 22.382263999999999
#
# number of rings (size 3 to 8) (size 9 to 14) (size 15 to 20)
#    0.000    2.400    0.000    3.600    2.800    0.800 
#    0.000    0.000    0.000   22.800    0.000    0.000 
#    0.000    0.000    0.000    0.000    0.000    0.000 
#
# Total GULP energy -223529.010620 kJ/mol
# GULP energy per Si atom -5588.225265 kJ/mol
# Density = 2.233132 g / cm^3
# Si number density = 22.382264 Si / 1000 Ang^3
#
#
#
# Elastic Constant Matrix: (Units=GPa)
#
#
# Indices 1 2 3 4 5 6 
#
# 1 53.7907 39.7118 23.2800 0.0000 0.0000 0.0000
# 2 39.7118 144.8917 52.4955 0.0000 0.0000 0.0000
# 3 23.2800 52.4955 99.3526 0.0000 0.0000 0.0000
# 4 0.0000 0.0000 0.0000 49.0590 0.0000 0.0000
# 5 0.0000 0.0000 0.0000 0.0000 2.9593 0.0000
# 6 0.0000 0.0000 0.0000 0.0000 0.0000 42.9243
#
#
#
# Elastic Compliance Matrix: (Units=1/GPa)
#
#
# Indices 1 2 3 4 5 6 
#
# 1 0.023854 -0.005581 -0.002640 0.000000 0.000000 0.000000
# 2 -0.005581 0.009842 -0.003892 0.000000 0.000000 0.000000
# 3 -0.002640 -0.003892 0.012740 0.000000 0.000000 0.000000
# 4 0.000000 0.000000 0.000000 0.020384 0.000000 0.000000
# 5 0.000000 0.000000 0.000000 0.000000 0.337917 0.000000
# 6 0.000000 0.000000 0.000000 0.000000 0.000000 0.023297
#
#
# Mechanical properties :
#
#
# Convention : Reuss Voigt Hill
#
# Bulk Modulus (GPa) = 45.02870 58.77882 51.90376
# Shear Modulus (GPa) = 10.87751 31.15838 21.01795
#
# Velocity S-wave (km/s) = 2.20691 3.73514 3.06771
# Velocity P-wave (km/s) = 5.16291 6.70224 5.98229
#
# Compressibility (1/GPa) = 0.02220806
#
# Stress axis : x y z
#
# Youngs Moduli (GPa) = 41.92226 101.60948 78.49022
#
# Poissons Ratio (x) = 0.56710 0.20724
# Poissons Ratio (y) = 0.23398 0.30551
# Poissons Ratio (z) = 0.11069 0.39549
#
# Static dielectric constant tensor:
#      x y z
#    x 1.823480 0.000000 0.000000 
#    y 0.000000 1.843370 0.000000 
#    z 0.000000 0.000000 1.856810 
# 
# From -- ./inp_files/10348.got.cif
#   From: 2010.05.17/outbox.cif.g08.bks.cpg/sg56_6_cif.got.tgz:10348.got - 2010.06.03 13:42:01.
