data_PCOD9431602
_publ_section_title
;
Structure prediction by ZEFSAII (Michael W. Deem and Ramdas Pophale) SiO2 
 PCOD9431602
Probable space group: P C C N
;
_chemical_formula_sum "Si O2"
_cell_formula_units_Z 28
_cell_length_a 23.869499
_cell_length_b 5.204448
_cell_length_c 9.194084
_cell_angle_alpha 90.000000
_cell_angle_beta 90.000000
_cell_angle_gamma 90.000000
_cell_volume 1142.158680
_symmetry_space_group_name_H-M "P C C N"
_symmetry_group_IT_number 56
_symmetry_cell_setting 'orthorhombic'
loop_
_space_group_symop_operation_xyz
x,y,z
1/2-x,1/2-y,z
1/2+x,-y,1/2-z
-x,1/2+y,1/2-z
-x,-y,-z
1/2+x,1/2+y,-z
1/2-x,y,1/2+z
x,1/2-y,1/2+z
loop_
_atom_site_type_symbol
_atom_site_label
_atom_site_fract_x
_atom_site_fract_y
_atom_site_fract_z
Si Si1 0.192612 0.317012 0.364274
Si Si2 0.018585 0.914485 0.162819
Si Si3 0.250000 0.750000 0.661863
Si Si4 0.142994 0.966452 0.112431
O O1 0.250000 0.250000 0.451786
O O2 0.218438 0.541167 0.263426
O O3 0.140308 0.353469 0.472017
O O4 0.169176 0.108693 0.250639
O O5 0.011130 0.165058 0.266827
O O6 0.084491 0.844405 0.150557
O O7 0.000000 0.000000 0.000000
O O8 0.303761 0.802658 0.560712
#
# Coordination Sequence:
#
# PCOD9431602 Si02
#       4
#     8   8   4   8
#     4  10  21  40  62 102 135 181 226 296 374 441
#     4  12  29  53  78 112 150 206 261 315 376 449
#     4  10  22  38  68 104 136 178 232 296 376 430
#     4  11  24  41  71  94 145 177 245 296 369 441
#
# _framework density 24.514980000000001
#
# number of rings (size 3 to 8) (size 9 to 14) (size 15 to 20)
#    0.000    1.143    0.000    6.000    8.000    2.286 
#    0.000    0.000    0.000    0.000    0.000    0.000 
#    0.000    0.000    0.000    0.000    0.000    0.000 
#
# Total GULP energy -156031.178481 kJ/mol
# GULP energy per Si atom -5572.542089 kJ/mol
# Density = 2.445918 g / cm^3
# Si number density = 24.514980 Si / 1000 Ang^3
#
#
#
# Elastic Constant Matrix: (Units=GPa)
#
#
# Indices 1 2 3 4 5 6 
#
# 1 127.9106 11.9380 5.8823 0.0000 0.0000 0.0000
# 2 11.9380 38.7812 -6.2718 0.0000 0.0000 0.0000
# 3 5.8823 -6.2718 84.0014 0.0000 0.0000 0.0000
# 4 0.0000 0.0000 0.0000 28.6557 0.0000 0.0000
# 5 0.0000 0.0000 0.0000 0.0000 12.6821 0.0000
# 6 0.0000 0.0000 0.0000 0.0000 0.0000 29.4901
#
#
#
# Elastic Compliance Matrix: (Units=1/GPa)
#
#
# Indices 1 2 3 4 5 6 
#
# 1 0.008097 -0.002616 -0.000762 0.000000 0.000000 0.000000
# 2 -0.002616 0.026946 0.002195 0.000000 0.000000 0.000000
# 3 -0.000762 0.002195 0.012122 0.000000 0.000000 0.000000
# 4 0.000000 0.000000 0.000000 0.034897 0.000000 0.000000
# 5 0.000000 0.000000 0.000000 0.000000 0.078852 0.000000
# 6 0.000000 0.000000 0.000000 0.000000 0.000000 0.033910
#
#
# Mechanical properties :
#
#
# Convention : Reuss Voigt Hill
#
# Bulk Modulus (GPa) = 22.32211 30.42116 26.37163
# Shear Modulus (GPa) = 23.57132 30.10857 26.83994
#
# Velocity S-wave (km/s) = 3.10418 3.50833 3.31242
# Velocity P-wave (km/s) = 4.68756 5.37097 5.04086
#
# Compressibility (1/GPa) = 0.04479863
#
# Stress axis : x y z
#
# Youngs Moduli (GPa) = 123.50017 37.11141 82.49583
#
# Poissons Ratio (x) = 0.09708 0.06289
# Poissons Ratio (y) = 0.32305 -0.18108
# Poissons Ratio (z) = 0.09415 -0.08146
#
# Static dielectric constant tensor:
#      x y z
#    x 2.076490 0.000000 0.000000 
#    y 0.000000 2.735380 0.000000 
#    z 0.000000 0.000000 2.236740 
# 
# From -- ./inp_files/1522.got.cif
#   From: 2010.05.17/outbox.cif.g08.bks.cpg/sg56_1_cif.got.tgz:1522.got - 2010.06.03 13:42:01.
