data_PCOD9431242
_publ_section_title
;
Structure prediction by ZEFSAII (Michael W. Deem and Ramdas Pophale) SiO2 
 PCOD9431242
Probable space group: P C C N
;
_chemical_formula_sum "Si O2"
_cell_formula_units_Z 48
_cell_length_a 23.954353
_cell_length_b 12.185237
_cell_length_c 9.707980
_cell_angle_alpha 90.000000
_cell_angle_beta 90.000000
_cell_angle_gamma 90.000000
_cell_volume 2833.657122
_symmetry_space_group_name_H-M "P C C N"
_symmetry_group_IT_number 56
_symmetry_cell_setting 'orthorhombic'
loop_
_space_group_symop_operation_xyz
x,y,z
1/2-x,1/2-y,z
1/2+x,-y,1/2-z
-x,1/2+y,1/2-z
-x,-y,-z
1/2+x,1/2+y,-z
1/2-x,y,1/2+z
x,1/2-y,1/2+z
loop_
_atom_site_type_symbol
_atom_site_label
_atom_site_fract_x
_atom_site_fract_y
_atom_site_fract_z
Si Si1 0.975488 0.664690 0.589647
Si Si2 0.875271 0.823589 0.311547
Si Si3 0.321936 0.418196 0.136387
Si Si4 0.457781 0.095959 0.959151
Si Si5 0.564189 0.991040 0.341329
Si Si6 0.733095 0.877831 0.648494
O O1 0.922898 0.677134 0.693044
O O2 0.989369 0.787367 0.543419
O O3 0.959060 0.591956 0.457450
O O4 0.026032 0.598870 0.659026
O O5 0.852457 0.702528 0.354934
O O6 0.905192 0.883500 0.439655
O O7 0.821507 0.882110 0.245810
O O8 0.370999 0.506318 0.124588
O O9 0.284561 0.431760 0.271869
O O10 0.283326 0.418813 0.001908
O O11 0.438228 0.066213 0.806443
O O12 0.500000 0.000000 0.000000
O O13 0.750000 0.750000 0.633756
#
# Coordination Sequence:
#
# PCOD9431242 Si02
#       6
#     8   8   8   8   8   8
#     4  11  21  38  55  80 113 158 189 226 292 350
#     4  11  19  35  52  78 118 147 186 232 282 345
#     4  11  21  34  53  79 118 154 188 232 291 341
#     4  12  22  35  57  85 114 150 190 233 279 343
#     4  11  23  35  56  77 118 155 185 233 290 337
#     4  10  21  32  50  79 112 153 188 228 287 350
#
# _framework density 16.939240999999999
#
# number of rings (size 3 to 8) (size 9 to 14) (size 15 to 20)
#    0.000    1.000    6.667    1.500    4.667    0.000 
#    0.000    0.000    0.000    0.000    0.000    1.167 
#    0.000    0.000    0.000    0.000    0.000    0.000 
#
# Total GULP energy -267848.830644 kJ/mol
# GULP energy per Si atom -5580.183972 kJ/mol
# Density = 1.690069 g / cm^3
# Si number density = 16.939241 Si / 1000 Ang^3
#
#
#
# Elastic Constant Matrix: (Units=GPa)
#
#
# Indices 1 2 3 4 5 6 
#
# 1 98.3176 38.0778 35.3857 0.0000 0.0000 0.0000
# 2 38.0778 61.9420 16.7200 0.0000 0.0000 0.0000
# 3 35.3857 16.7200 102.4884 0.0000 0.0000 0.0000
# 4 0.0000 0.0000 0.0000 14.3858 0.0000 0.0000
# 5 0.0000 0.0000 0.0000 0.0000 42.9597 0.0000
# 6 0.0000 0.0000 0.0000 0.0000 0.0000 22.5753
#
#
#
# Elastic Compliance Matrix: (Units=1/GPa)
#
#
# Indices 1 2 3 4 5 6 
#
# 1 0.014604 -0.007967 -0.003742 0.000000 0.000000 0.000000
# 2 -0.007967 0.021234 -0.000713 0.000000 0.000000 0.000000
# 3 -0.003742 -0.000713 0.011166 0.000000 0.000000 0.000000
# 4 0.000000 0.000000 0.000000 0.069513 0.000000 0.000000
# 5 0.000000 0.000000 0.000000 0.000000 0.023278 0.000000
# 6 0.000000 0.000000 0.000000 0.000000 0.000000 0.044296
#
#
# Mechanical properties :
#
#
# Convention : Reuss Voigt Hill
#
# Bulk Modulus (GPa) = 45.13074 49.23501 47.18287
# Shear Modulus (GPa) = 23.11363 27.48845 25.30104
#
# Velocity S-wave (km/s) = 3.69792 4.03273 3.86895
# Velocity P-wave (km/s) = 6.70324 7.12830 6.91903
#
# Compressibility (1/GPa) = 0.02215785
#
# Stress axis : x y z
#
# Youngs Moduli (GPa) = 68.47582 47.09343 89.55995
#
# Poissons Ratio (x) = 0.37520 0.33517
# Poissons Ratio (y) = 0.54556 0.06389
# Poissons Ratio (z) = 0.25626 0.03360
#
# Static dielectric constant tensor:
#      x y z
#    x 1.606380 0.000000 0.000000 
#    y 0.000000 1.551830 0.000000 
#    z 0.000000 0.000000 1.617550 
# 
# From -- ./inp_files/2765.got.cif
#   From: 2010.05.17/outbox.cif.g08.bks.cpg/sg56_2_cif.got.tgz:2765.got - 2010.06.03 13:42:01.
