data_PCOD9431832
_publ_section_title
;
Structure prediction by ZEFSAII (Michael W. Deem and Ramdas Pophale) SiO2 
 PCOD9431832
Probable space group: P C C N
;
_chemical_formula_sum "Si O2"
_cell_formula_units_Z 60
_cell_length_a 8.587922
_cell_length_b 23.725824
_cell_length_c 14.575263
_cell_angle_alpha 90.000000
_cell_angle_beta 90.000000
_cell_angle_gamma 90.000000
_cell_volume 2969.790378
_symmetry_space_group_name_H-M "P C C N"
_symmetry_group_IT_number 56
_symmetry_cell_setting 'orthorhombic'
loop_
_space_group_symop_operation_xyz
x,y,z
1/2-x,1/2-y,z
1/2+x,-y,1/2-z
-x,1/2+y,1/2-z
-x,-y,-z
1/2+x,1/2+y,-z
1/2-x,y,1/2+z
x,1/2-y,1/2+z
loop_
_atom_site_type_symbol
_atom_site_label
_atom_site_fract_x
_atom_site_fract_y
_atom_site_fract_z
Si Si1 0.130897 0.354718 0.820260
Si Si2 0.935494 0.568509 0.909975
Si Si3 0.301514 0.346492 0.001395
Si Si4 0.045912 0.345886 0.238986
Si Si5 0.944518 0.772473 0.842757
Si Si6 0.362238 0.648220 0.086002
Si Si7 0.607713 0.057225 0.900274
Si Si8 0.750000 0.250000 0.035879
O O1 0.297722 0.373928 0.780238
O O2 0.049967 0.314953 0.744456
O O3 0.017930 0.406005 0.844373
O O4 0.187696 0.326990 0.917653
O O5 0.786628 0.601470 0.951221
O O6 0.011618 0.611260 0.837801
O O7 0.889539 0.507692 0.870599
O O8 0.051627 0.558598 0.994157
O O9 0.341307 0.300860 0.078005
O O10 0.472657 0.361932 0.964003
O O11 0.104351 0.286800 0.200010
O O12 0.916779 0.331377 0.314004
O O13 0.103051 0.756668 0.896918
O O14 0.267758 0.591191 0.101090
O O15 0.261768 0.694786 0.030286
#
# Coordination Sequence:
#
# PCOD9431832 Si02
#       8
#     8   8   8   8   8   8   8   4
#     4  10  22  40  63  95 125 169 216 267 326 390
#     4  10  21  43  65  92 122 170 225 270 327 399
#     4   9  21  43  65  92 130 162 223 270 325 399
#     4  11  23  39  62  94 128 164 223 263 321 397
#     4  11  22  41  65  95 133 172 216 273 331 400
#     4  10  23  42  60  96 128 172 211 273 334 392
#     4  10  23  41  65  89 129 170 214 276 336 390
#     4  10  24  40  64  94 134 172 212 270 340 402
#
# _framework density 20.203444999999999
#
# number of rings (size 3 to 8) (size 9 to 14) (size 15 to 20)
#    0.000    1.867    1.333    1.200    3.733    1.600 
#   16.800    0.000    0.000    0.000    0.000    0.000 
#    0.000    0.000    0.000    0.000    0.000    0.000 
#
# Total GULP energy -334691.860127 kJ/mol
# GULP energy per Si atom -5578.197669 kJ/mol
# Density = 2.015746 g / cm^3
# Si number density = 20.203445 Si / 1000 Ang^3
#
#
#
# Elastic Constant Matrix: (Units=GPa)
#
#
# Indices 1 2 3 4 5 6 
#
# 1 43.3064 26.7507 25.1072 0.0000 0.0000 0.0000
# 2 26.7507 93.2224 50.5379 0.0000 0.0000 0.0000
# 3 25.1072 50.5379 105.7159 0.0000 0.0000 0.0000
# 4 0.0000 0.0000 0.0000 16.0296 0.0000 0.0000
# 5 0.0000 0.0000 0.0000 0.0000 29.4503 0.0000
# 6 0.0000 0.0000 0.0000 0.0000 0.0000 21.8693
#
#
#
# Elastic Compliance Matrix: (Units=1/GPa)
#
#
# Indices 1 2 3 4 5 6 
#
# 1 0.029245 -0.006245 -0.003960 0.000000 0.000000 0.000000
# 2 -0.006245 0.015813 -0.006076 0.000000 0.000000 0.000000
# 3 -0.003960 -0.006076 0.013305 0.000000 0.000000 0.000000
# 4 0.000000 0.000000 0.000000 0.062385 0.000000 0.000000
# 5 0.000000 0.000000 0.000000 0.000000 0.033956 0.000000
# 6 0.000000 0.000000 0.000000 0.000000 0.000000 0.045726
#
#
# Mechanical properties :
#
#
# Convention : Reuss Voigt Hill
#
# Bulk Modulus (GPa) = 38.76034 49.67071 44.21552
# Shear Modulus (GPa) = 20.69605 22.79310 21.74457
#
# Velocity S-wave (km/s) = 3.20407 3.36248 3.28423
# Velocity P-wave (km/s) = 5.73714 6.30188 6.02613
#
# Compressibility (1/GPa) = 0.02579957
#
# Stress axis : x y z
#
# Youngs Moduli (GPa) = 34.19415 63.23807 75.16163
#
# Poissons Ratio (x) = 0.39493 0.29764
# Poissons Ratio (y) = 0.21355 0.45671
# Poissons Ratio (z) = 0.13541 0.38426
#
# Static dielectric constant tensor:
#      x y z
#    x 1.743350 0.000000 0.000000 
#    y 0.000000 1.696390 0.000000 
#    z 0.000000 0.000000 1.780220 
# 
# From -- ./inp_files/10984.got.cif
#   From: 2010.05.17/outbox.cif.g08.bks.cpg/sg56_6_cif.got.tgz:10984.got - 2010.06.03 13:42:01.
