data_PCOD9431108
_publ_section_title
;
Structure prediction by ZEFSAII (Michael W. Deem and Ramdas Pophale) SiO2 
 PCOD9431108
Probable space group: P C C N
;
_chemical_formula_sum "Si O2"
_cell_formula_units_Z 32
_cell_length_a 12.749273
_cell_length_b 9.767587
_cell_length_c 9.312186
_cell_angle_alpha 90.000000
_cell_angle_beta 90.000000
_cell_angle_gamma 90.000000
_cell_volume 1159.643107
_symmetry_space_group_name_H-M "P C C N"
_symmetry_group_IT_number 56
_symmetry_cell_setting 'orthorhombic'
loop_
_space_group_symop_operation_xyz
x,y,z
1/2-x,1/2-y,z
1/2+x,-y,1/2-z
-x,1/2+y,1/2-z
-x,-y,-z
1/2+x,1/2+y,-z
1/2-x,y,1/2+z
x,1/2-y,1/2+z
loop_
_atom_site_type_symbol
_atom_site_label
_atom_site_fract_x
_atom_site_fract_y
_atom_site_fract_z
Si Si1 0.750000 0.250000 0.411981
Si Si2 0.000000 0.500000 0.000000
Si Si3 0.454590 0.814845 0.749296
Si Si4 0.766676 0.962103 0.548345
Si Si5 0.118169 0.096834 0.172611
O O1 0.648021 0.259866 0.310105
O O2 0.732786 0.115719 0.506971
O O3 0.787834 0.559706 0.216333
O O4 0.050359 0.630966 0.911938
O O5 0.549109 0.709307 0.747240
O O6 0.456532 0.961831 0.668390
O O7 0.880307 0.941156 0.475602
O O8 0.674074 0.873770 0.476766
#
# Coordination Sequence:
#
# PCOD9431108 Si02
#       5
#     4   4   8   8   8
#     4  10  20  40  74 108 146 208 258 304 380 478
#     4  10  22  42  68 100 144 194 248 308 374 452
#     4  10  22  44  74 106 146 196 254 312 380 459
#     4  10  22  43  74 108 150 196 253 314 382 457
#     4  10  23  46  77 111 151 200 254 317 385 459
#
# _framework density 27.594697
#
# number of rings (size 3 to 8) (size 9 to 14) (size 15 to 20)
#    0.000    2.000    0.000    3.000    0.000   10.000 
#    0.000   20.000    0.000   66.000    0.000    0.000 
#    0.000    0.000    0.000    0.000    0.000    0.000 
#
# Total GULP energy -178259.661013 kJ/mol
# GULP energy per Si atom -5570.614407 kJ/mol
# Density = 2.753189 g / cm^3
# Si number density = 27.594697 Si / 1000 Ang^3
#
#
#
# Elastic Constant Matrix: (Units=GPa)
#
#
# Indices 1 2 3 4 5 6 
#
# 1 104.7243 54.2708 54.7949 0.0000 0.0000 0.0000
# 2 54.2708 136.3996 43.0995 0.0000 0.0000 0.0000
# 3 54.7949 43.0995 84.9293 0.0000 0.0000 0.0000
# 4 0.0000 0.0000 0.0000 33.2039 0.0000 0.0000
# 5 0.0000 0.0000 0.0000 0.0000 38.4999 0.0000
# 6 0.0000 0.0000 0.0000 0.0000 0.0000 50.1865
#
#
#
# Elastic Compliance Matrix: (Units=1/GPa)
#
#
# Indices 1 2 3 4 5 6 
#
# 1 0.015809 -0.003653 -0.008346 0.000000 0.000000 0.000000
# 2 -0.003653 0.009576 -0.002503 0.000000 0.000000 0.000000
# 3 -0.008346 -0.002503 0.018429 0.000000 0.000000 0.000000
# 4 0.000000 0.000000 0.000000 0.030117 0.000000 0.000000
# 5 0.000000 0.000000 0.000000 0.000000 0.025974 0.000000
# 6 0.000000 0.000000 0.000000 0.000000 0.000000 0.019926
#
#
# Mechanical properties :
#
#
# Convention : Reuss Voigt Hill
#
# Bulk Modulus (GPa) = 67.51804 70.04262 68.78033
# Shear Modulus (GPa) = 32.51626 35.97058 34.24342
#
# Velocity S-wave (km/s) = 3.43644 3.61436 3.52652
# Velocity P-wave (km/s) = 6.34558 6.54644 6.44679
#
# Compressibility (1/GPa) = 0.01481086
#
# Stress axis : x y z
#
# Youngs Moduli (GPa) = 63.25665 104.43233 54.26235
#
# Poissons Ratio (x) = 0.38148 0.45286
# Poissons Ratio (y) = 0.23107 0.13580
# Poissons Ratio (z) = 0.52792 0.26135
#
# Static dielectric constant tensor:
#      x y z
#    x 2.033810 0.000000 0.000000 
#    y 0.000000 2.311070 0.000000 
#    z 0.000000 0.000000 2.277240 
# 
# From -- ./inp_files/11320.got.cif
#   From: 2010.05.17/outbox.cif.g08.bks.cpg/sg56_6_cif.got.tgz:11320.got - 2010.06.03 13:42:01.
