data_PCOD9431973
_publ_section_title
;
Structure prediction by ZEFSAII (Michael W. Deem and Ramdas Pophale) SiO2 
 PCOD9431973
Probable space group: P C C N
;
_chemical_formula_sum "Si O2"
_cell_formula_units_Z 60
_cell_length_a 8.463568
_cell_length_b 11.152248
_cell_length_c 28.311529
_cell_angle_alpha 90.000000
_cell_angle_beta 90.000000
_cell_angle_gamma 90.000000
_cell_volume 2672.263200
_symmetry_space_group_name_H-M "P C C N"
_symmetry_group_IT_number 56
_symmetry_cell_setting 'orthorhombic'
loop_
_space_group_symop_operation_xyz
x,y,z
1/2-x,1/2-y,z
1/2+x,-y,1/2-z
-x,1/2+y,1/2-z
-x,-y,-z
1/2+x,1/2+y,-z
1/2-x,y,1/2+z
x,1/2-y,1/2+z
loop_
_atom_site_type_symbol
_atom_site_label
_atom_site_fract_x
_atom_site_fract_y
_atom_site_fract_z
Si Si1 0.191766 0.385135 0.031429
Si Si2 0.890918 0.986742 0.567422
Si Si3 0.880115 0.522854 0.637412
Si Si4 0.200735 0.065621 0.129896
Si Si5 0.141775 0.894268 0.698010
Si Si6 0.250000 0.250000 0.196794
Si Si7 0.812549 0.535927 0.230612
Si Si8 0.431067 0.743626 0.614774
O O1 0.250000 0.250000 0.025679
O O2 0.295953 0.436087 0.074073
O O3 0.016994 0.411809 0.052677
O O4 0.193554 0.448337 0.981094
O O5 0.762300 0.024407 0.605557
O O6 0.980434 0.869041 0.589554
O O7 0.805699 0.559434 0.687514
O O8 0.018344 0.425639 0.644867
O O9 0.961762 0.636917 0.611172
O O10 0.316345 0.160752 0.155617
O O11 0.263022 0.946200 0.153718
O O12 0.076643 0.776357 0.672435
O O13 0.988859 0.971757 0.711403
O O14 0.255908 0.915763 0.742252
O O15 0.313075 0.352062 0.232651
O O16 0.250000 0.750000 0.595724
#
# Coordination Sequence:
#
# PCOD9431973 Si02
#       8
#     8   8   8   8   8   4   8   8
#     4  11  22  45  74  95 135 182 220 273 351 415
#     4  11  25  43  70 105 133 172 225 285 339 413
#     4  12  23  40  66  97 139 173 228 292 337 397
#     4  11  22  42  65  92 135 182 224 280 341 408
#     4  11  22  39  61  96 129 181 226 281 336 402
#     4  10  22  38  62  88 122 188 226 268 344 398
#     4  11  22  38  62  89 131 174 232 283 337 407
#     4  12  22  40  66  97 134 175 224 280 347 401
#
# _framework density 22.452878999999999
#
# number of rings (size 3 to 8) (size 9 to 14) (size 15 to 20)
#    0.000    0.800    4.667    3.600    0.000    0.533 
#    0.000    3.333    0.000    0.000    0.000    0.000 
#    0.000    0.000    0.000    0.000    0.000    0.000 
#
# Total GULP energy -334130.513063 kJ/mol
# GULP energy per Si atom -5568.841884 kJ/mol
# Density = 2.240178 g / cm^3
# Si number density = 22.452879 Si / 1000 Ang^3
#
#
#
# Elastic Constant Matrix: (Units=GPa)
#
#
# Indices 1 2 3 4 5 6 
#
# 1 67.2733 7.4287 36.7781 0.0000 0.0000 0.0000
# 2 7.4287 59.0155 18.2823 0.0000 0.0000 0.0000
# 3 36.7781 18.2823 124.8538 0.0000 0.0000 0.0000
# 4 0.0000 0.0000 0.0000 16.0616 0.0000 0.0000
# 5 0.0000 0.0000 0.0000 0.0000 37.6163 0.0000
# 6 0.0000 0.0000 0.0000 0.0000 0.0000 21.8135
#
#
#
# Elastic Compliance Matrix: (Units=1/GPa)
#
#
# Indices 1 2 3 4 5 6 
#
# 1 0.017741 -0.000643 -0.005132 0.000000 0.000000 0.000000
# 2 -0.000643 0.017773 -0.002413 0.000000 0.000000 0.000000
# 3 -0.005132 -0.002413 0.009874 0.000000 0.000000 0.000000
# 4 0.000000 0.000000 0.000000 0.062260 0.000000 0.000000
# 5 0.000000 0.000000 0.000000 0.000000 0.026584 0.000000
# 6 0.000000 0.000000 0.000000 0.000000 0.000000 0.045843
#
#
# Mechanical properties :
#
#
# Convention : Reuss Voigt Hill
#
# Bulk Modulus (GPa) = 34.46802 41.79121 38.12961
# Shear Modulus (GPa) = 24.25725 27.67519 25.96622
#
# Velocity S-wave (km/s) = 3.29045 3.51463 3.40439
# Velocity P-wave (km/s) = 5.46083 5.92651 5.69843
#
# Compressibility (1/GPa) = 0.02901240
#
# Stress axis : x y z
#
# Youngs Moduli (GPa) = 56.36548 56.26443 101.27215
#
# Poissons Ratio (x) = 0.03620 0.51971
# Poissons Ratio (y) = 0.03627 0.24437
# Poissons Ratio (z) = 0.28926 0.13577
#
# Static dielectric constant tensor:
#      x y z
#    x 1.890810 0.000000 0.000000 
#    y 0.000000 2.020900 0.000000 
#    z 0.000000 0.000000 1.831030 
# 
# From -- ./inp_files/22107.got.cif
#   From: 2010.05.17/outbox.cif.g08.bks.cpg/sg56_12_cif.got.tgz:22107.got - 2010.06.03 13:42:01.
