data_PCOD9431203
_publ_section_title
;
Structure prediction by ZEFSAII (Michael W. Deem and Ramdas Pophale) SiO2 
 PCOD9431203
Probable space group: P C C N
;
_chemical_formula_sum "Si O2"
_cell_formula_units_Z 48
_cell_length_a 8.442130
_cell_length_b 24.467139
_cell_length_c 12.158053
_cell_angle_alpha 90.000000
_cell_angle_beta 90.000000
_cell_angle_gamma 90.000000
_cell_volume 2511.303819
_symmetry_space_group_name_H-M "P C C N"
_symmetry_group_IT_number 56
_symmetry_cell_setting 'orthorhombic'
loop_
_space_group_symop_operation_xyz
x,y,z
1/2-x,1/2-y,z
1/2+x,-y,1/2-z
-x,1/2+y,1/2-z
-x,-y,-z
1/2+x,1/2+y,-z
1/2-x,y,1/2+z
x,1/2-y,1/2+z
loop_
_atom_site_type_symbol
_atom_site_label
_atom_site_fract_x
_atom_site_fract_y
_atom_site_fract_z
Si Si1 0.979172 0.984742 0.374031
Si Si2 0.132099 0.868590 0.330563
Si Si3 0.511510 0.343635 0.119170
Si Si4 0.802549 0.931270 0.752174
Si Si5 0.414472 0.271037 0.676271
Si Si6 0.064859 0.350234 0.364389
O O1 0.067416 0.927337 0.360123
O O2 0.804165 0.970831 0.328743
O O3 0.064696 0.032077 0.305099
O O4 0.000000 0.000000 0.500000
O O5 0.310335 0.864385 0.368459
O O6 0.016055 0.820408 0.377322
O O7 0.101260 0.862395 0.199120
O O8 0.387744 0.383767 0.178450
O O9 0.513762 0.284146 0.175804
O O10 0.461100 0.340782 0.991780
O O11 0.684468 0.899780 0.667036
O O12 0.250000 0.250000 0.624430
O O13 0.377130 0.297122 0.795803
#
# Coordination Sequence:
#
# PCOD9431203 Si02
#       6
#     8   8   8   8   8   8
#     4  11  23  43  64  92 126 170 209 271 321 370
#     4   9  23  42  58  97 128 158 225 255 310 397
#     4  12  21  42  68  90 130 176 200 271 327 373
#     4  11  23  41  64  96 126 161 226 259 313 399
#     4  10  20  44  62  93 130 159 217 261 308 397
#     4   9  23  42  59  92 130 163 209 260 326 369
#
# _framework density 19.113578
#
# number of rings (size 3 to 8) (size 9 to 14) (size 15 to 20)
#    1.000    0.667    1.667    2.500    0.000    4.667 
#    9.000    5.833    0.000    0.000    0.000    0.000 
#    0.000    0.000    0.000    0.000    0.000    0.000 
#
# Total GULP energy -267346.951666 kJ/mol
# GULP energy per Si atom -5569.728160 kJ/mol
# Density = 1.907007 g / cm^3
# Si number density = 19.113578 Si / 1000 Ang^3
#
#
#
# Elastic Constant Matrix: (Units=GPa)
#
#
# Indices 1 2 3 4 5 6 
#
# 1 50.8969 1.5326 27.2889 0.0000 0.0000 0.0000
# 2 1.5326 101.4765 57.9280 0.0000 0.0000 0.0000
# 3 27.2889 57.9280 83.6990 0.0000 0.0000 0.0000
# 4 0.0000 0.0000 0.0000 10.0712 0.0000 0.0000
# 5 0.0000 0.0000 0.0000 0.0000 6.3908 0.0000
# 6 0.0000 0.0000 0.0000 0.0000 0.0000 38.6631
#
#
#
# Elastic Compliance Matrix: (Units=1/GPa)
#
#
# Indices 1 2 3 4 5 6 
#
# 1 0.026959 0.007622 -0.014064 0.000000 0.000000 0.000000
# 2 0.007622 0.018445 -0.015251 0.000000 0.000000 0.000000
# 3 -0.014064 -0.015251 0.027088 0.000000 0.000000 0.000000
# 4 0.000000 0.000000 0.000000 0.099293 0.000000 0.000000
# 5 0.000000 0.000000 0.000000 0.000000 0.156476 0.000000
# 6 0.000000 0.000000 0.000000 0.000000 0.000000 0.025864
#
#
# Mechanical properties :
#
#
# Convention : Reuss Voigt Hill
#
# Bulk Modulus (GPa) = 34.35855 45.50793 39.93324
# Shear Modulus (GPa) = 12.27852 20.97987 16.62919
#
# Velocity S-wave (km/s) = 2.53731 3.31666 2.95281
# Velocity P-wave (km/s) = 5.15741 6.20708 5.70644
#
# Compressibility (1/GPa) = 0.02910484
#
# Stress axis : x y z
#
# Youngs Moduli (GPa) = 37.09359 54.21409 36.91643
#
# Poissons Ratio (x) = -0.41319 0.51921
# Poissons Ratio (y) = -0.28271 0.56301
# Poissons Ratio (z) = 0.52170 0.82681
#
# Static dielectric constant tensor:
#      x y z
#    x 1.792310 0.000000 0.000000 
#    y 0.000000 1.699990 0.000000 
#    z 0.000000 0.000000 1.442310 
# 
# From -- ./inp_files/6416.got.cif
#   From: 2010.05.17/outbox.cif.g08.bks.cpg/sg56_4_cif.got.tgz:6416.got - 2010.06.03 13:42:01.
