data_PCOD9431717
_publ_section_title
;
Structure prediction by ZEFSAII (Michael W. Deem and Ramdas Pophale) SiO2 
 PCOD9431717
Probable space group: P C C N
;
_chemical_formula_sum "Si O2"
_cell_formula_units_Z 60
_cell_length_a 9.069426
_cell_length_b 11.649275
_cell_length_c 27.176785
_cell_angle_alpha 90.000000
_cell_angle_beta 90.000000
_cell_angle_gamma 90.000000
_cell_volume 2871.288145
_symmetry_space_group_name_H-M "P C C N"
_symmetry_group_IT_number 56
_symmetry_cell_setting 'orthorhombic'
loop_
_space_group_symop_operation_xyz
x,y,z
1/2-x,1/2-y,z
1/2+x,-y,1/2-z
-x,1/2+y,1/2-z
-x,-y,-z
1/2+x,1/2+y,-z
1/2-x,y,1/2+z
x,1/2-y,1/2+z
loop_
_atom_site_type_symbol
_atom_site_label
_atom_site_fract_x
_atom_site_fract_y
_atom_site_fract_z
Si Si1 0.820277 0.360023 0.509154
Si Si2 0.072500 0.068848 0.736005
Si Si3 0.536802 0.459728 0.554541
Si Si4 0.466487 0.484349 0.073222
Si Si5 0.250000 0.250000 0.296922
Si Si6 0.740964 0.942207 0.122666
Si Si7 0.290886 0.383227 0.630637
Si Si8 0.749403 0.386689 0.206473
O O1 0.750000 0.250000 0.482563
O O2 0.682691 0.384714 0.545218
O O3 0.866328 0.450252 0.467081
O O4 0.961301 0.373875 0.545378
O O5 0.132344 0.184266 0.762804
O O6 0.137820 0.071232 0.680932
O O7 0.898275 0.073425 0.732864
O O8 0.121120 0.955394 0.765528
O O9 0.500000 0.500000 0.500000
O O10 0.604344 0.563892 0.585814
O O11 0.406589 0.403243 0.585794
O O12 0.603567 0.561554 0.093167
O O13 0.359911 0.447939 0.116970
O O14 0.209422 0.148919 0.334712
O O15 0.745784 0.063662 0.151310
O O16 0.250000 0.250000 0.635743
O O17 0.750000 0.250000 0.206899
#
# Coordination Sequence:
#
# PCOD9431717 Si02
#       8
#     8   8   8   8   4   8   8   8
#     4  10  21  41  64  91 135 180 222 280 336 402
#     4  11  26  45  71 105 137 182 235 292 356 432
#     4  11  22  42  63  97 137 179 228 283 336 415
#     4  10  23  40  63  99 130 175 231 277 338 410
#     4  10  24  46  70  94 140 178 230 290 356 412
#     4  10  24  43  69  96 140 180 230 285 348 421
#     4  12  24  40  67  99 134 177 228 286 340 413
#     4  11  27  45  74 102 141 184 234 292 362 422
#
# _framework density 20.896543999999999
#
# number of rings (size 3 to 8) (size 9 to 14) (size 15 to 20)
#    0.000    1.333    3.333    0.800    9.333    3.200 
#    1.200    0.667    0.000    0.000    0.000    0.000 
#    0.000    0.000    0.000    0.000    0.000    0.000 
#
# Total GULP energy -334519.839701 kJ/mol
# GULP energy per Si atom -5575.330662 kJ/mol
# Density = 2.084898 g / cm^3
# Si number density = 20.896544 Si / 1000 Ang^3
#
#
#
# Elastic Constant Matrix: (Units=GPa)
#
#
# Indices 1 2 3 4 5 6 
#
# 1 70.9382 28.6787 19.3666 0.0000 0.0000 0.0000
# 2 28.6787 86.2507 29.0645 0.0000 0.0000 0.0000
# 3 19.3666 29.0645 112.9207 0.0000 0.0000 0.0000
# 4 0.0000 0.0000 0.0000 9.8713 0.0000 0.0000
# 5 0.0000 0.0000 0.0000 0.0000 49.1458 0.0000
# 6 0.0000 0.0000 0.0000 0.0000 0.0000 23.9598
#
#
#
# Elastic Compliance Matrix: (Units=1/GPa)
#
#
# Indices 1 2 3 4 5 6 
#
# 1 0.016532 -0.004973 -0.001555 0.000000 0.000000 0.000000
# 2 -0.004973 0.014191 -0.002800 0.000000 0.000000 0.000000
# 3 -0.001555 -0.002800 0.009843 0.000000 0.000000 0.000000
# 4 0.000000 0.000000 0.000000 0.101303 0.000000 0.000000
# 5 0.000000 0.000000 0.000000 0.000000 0.020348 0.000000
# 6 0.000000 0.000000 0.000000 0.000000 0.000000 0.041737
#
#
# Mechanical properties :
#
#
# Convention : Reuss Voigt Hill
#
# Bulk Modulus (GPa) = 45.64085 47.14769 46.39427
# Shear Modulus (GPa) = 21.74739 29.46204 25.60472
#
# Velocity S-wave (km/s) = 3.22951 3.75894 3.50424
# Velocity P-wave (km/s) = 5.98290 6.43824 6.21474
#
# Compressibility (1/GPa) = 0.02191019
#
# Stress axis : x y z
#
# Youngs Moduli (GPa) = 60.48960 70.46708 101.59352
#
# Poissons Ratio (x) = 0.35042 0.15802
# Poissons Ratio (y) = 0.30080 0.28444
# Poissons Ratio (z) = 0.09408 0.19729
#
# Static dielectric constant tensor:
#      x y z
#    x 1.789190 0.000000 0.000000 
#    y 0.000000 1.782560 0.000000 
#    z 0.000000 0.000000 1.800830 
# 
# From -- ./inp_files/22091.got.cif
#   From: 2010.05.17/outbox.cif.g08.bks.cpg/sg56_12_cif.got.tgz:22091.got - 2010.06.03 13:42:01.
