data_PCOD9431667
_publ_section_title
;
Structure prediction by ZEFSAII (Michael W. Deem and Ramdas Pophale) SiO2 
 PCOD9431667
Probable space group: P C C N
;
_chemical_formula_sum "Si O2"
_cell_formula_units_Z 60
_cell_length_a 8.127882
_cell_length_b 12.118398
_cell_length_c 28.320164
_cell_angle_alpha 90.000000
_cell_angle_beta 90.000000
_cell_angle_gamma 90.000000
_cell_volume 2789.448616
_symmetry_space_group_name_H-M "P C C N"
_symmetry_group_IT_number 56
_symmetry_cell_setting 'orthorhombic'
loop_
_space_group_symop_operation_xyz
x,y,z
1/2-x,1/2-y,z
1/2+x,-y,1/2-z
-x,1/2+y,1/2-z
-x,-y,-z
1/2+x,1/2+y,-z
1/2-x,y,1/2+z
x,1/2-y,1/2+z
loop_
_atom_site_type_symbol
_atom_site_label
_atom_site_fract_x
_atom_site_fract_y
_atom_site_fract_z
Si Si1 0.989739 0.183237 0.924091
Si Si2 0.169944 0.473021 0.607719
Si Si3 0.573969 0.693415 0.971746
Si Si4 0.226175 0.380632 0.788743
Si Si5 0.469244 0.872888 0.897537
Si Si6 0.750000 0.250000 0.679558
Si Si7 0.852501 0.900024 0.604911
Si Si8 0.486716 0.937428 0.295204
O O1 0.169080 0.138669 0.907751
O O2 0.011490 0.312366 0.911967
O O3 0.977597 0.172260 0.980335
O O4 0.857833 0.104095 0.898917
O O5 0.106530 0.414166 0.559908
O O6 0.352303 0.424126 0.615234
O O7 0.062592 0.434586 0.652373
O O8 0.750000 0.750000 0.984884
O O9 0.488670 0.780893 0.937288
O O10 0.250000 0.250000 0.787288
O O11 0.138916 0.408707 0.838403
O O12 0.396871 0.446162 0.788938
O O13 0.122677 0.419711 0.744199
O O14 0.375264 0.818172 0.853779
O O15 0.372753 0.979067 0.916228
O O16 0.646828 0.160425 0.708464
#
# Coordination Sequence:
#
# PCOD9431667 Si02
#       8
#     8   8   8   8   8   4   8   8
#     4  11  21  45  71  94 143 190 231 281 362 424
#     4  11  23  44  70 102 139 184 233 296 356 418
#     4  10  21  40  68 105 135 186 236 285 350 431
#     4  12  27  47  71 109 140 188 243 293 363 438
#     4  11  25  41  71 102 140 177 243 291 351 424
#     4  12  24  50  70 102 138 192 228 306 368 420
#     4  11  22  45  70  94 141 193 226 289 357 430
#     4  12  28  44  77 102 141 185 241 294 369 426
#
# _framework density 21.509626999999998
#
# number of rings (size 3 to 8) (size 9 to 14) (size 15 to 20)
#    0.000    0.800    6.667    0.400    5.600    1.067 
#    0.000    0.000    0.000    0.000    0.000    0.000 
#    0.000    0.000    0.000    0.000    0.000    0.000 
#
# Total GULP energy -335614.862671 kJ/mol
# GULP energy per Si atom -5593.581045 kJ/mol
# Density = 2.146067 g / cm^3
# Si number density = 21.509627 Si / 1000 Ang^3
#
#
#
# Elastic Constant Matrix: (Units=GPa)
#
#
# Indices 1 2 3 4 5 6 
#
# 1 60.2881 20.8689 11.8238 0.0000 0.0000 0.0000
# 2 20.8689 96.9372 -13.9030 0.0000 0.0000 0.0000
# 3 11.8238 -13.9030 59.6478 0.0000 0.0000 0.0000
# 4 0.0000 0.0000 0.0000 26.2589 0.0000 0.0000
# 5 0.0000 0.0000 0.0000 0.0000 32.6086 0.0000
# 6 0.0000 0.0000 0.0000 0.0000 0.0000 33.3689
#
#
#
# Elastic Compliance Matrix: (Units=1/GPa)
#
#
# Indices 1 2 3 4 5 6 
#
# 1 0.019235 -0.004850 -0.004943 0.000000 0.000000 0.000000
# 2 -0.004850 0.011896 0.003734 0.000000 0.000000 0.000000
# 3 -0.004943 0.003734 0.018615 0.000000 0.000000 0.000000
# 4 0.000000 0.000000 0.000000 0.038082 0.000000 0.000000
# 5 0.000000 0.000000 0.000000 0.000000 0.030667 0.000000
# 6 0.000000 0.000000 0.000000 0.000000 0.000000 0.029968
#
#
# Mechanical properties :
#
#
# Convention : Reuss Voigt Hill
#
# Bulk Modulus (GPa) = 26.57621 28.27249 27.42435
# Shear Modulus (GPa) = 28.88089 31.65284 30.26686
#
# Velocity S-wave (km/s) = 3.66826 3.84026 3.75524
# Velocity P-wave (km/s) = 5.50670 5.73028 5.61960
#
# Compressibility (1/GPa) = 0.03762764
#
# Stress axis : x y z
#
# Youngs Moduli (GPa) = 51.98744 84.06437 53.71902
#
# Poissons Ratio (x) = 0.40772 0.26556
# Poissons Ratio (y) = 0.25214 -0.20059
# Poissons Ratio (z) = 0.25700 -0.31391
#
# Static dielectric constant tensor:
#      x y z
#    x 1.800690 0.000000 0.000000 
#    y 0.000000 1.800500 0.000000 
#    z 0.000000 0.000000 1.736190 
# 
# From -- ./inp_files/22090.got.cif
#   From: 2010.05.17/outbox.cif.g08.bks.cpg/sg56_12_cif.got.tgz:22090.got - 2010.06.03 13:42:01.
