data_PCOD9431517
_publ_section_title
;
Structure prediction by ZEFSAII (Michael W. Deem and Ramdas Pophale) SiO2 
 PCOD9431517
Probable space group: P C C N
;
_chemical_formula_sum "Si O2"
_cell_formula_units_Z 56
_cell_length_a 8.651552
_cell_length_b 13.444701
_cell_length_c 17.567308
_cell_angle_alpha 90.000000
_cell_angle_beta 90.000000
_cell_angle_gamma 90.000000
_cell_volume 2043.385872
_symmetry_space_group_name_H-M "P C C N"
_symmetry_group_IT_number 56
_symmetry_cell_setting 'orthorhombic'
loop_
_space_group_symop_operation_xyz
x,y,z
1/2-x,1/2-y,z
1/2+x,-y,1/2-z
-x,1/2+y,1/2-z
-x,-y,-z
1/2+x,1/2+y,-z
1/2-x,y,1/2+z
x,1/2-y,1/2+z
loop_
_atom_site_type_symbol
_atom_site_label
_atom_site_fract_x
_atom_site_fract_y
_atom_site_fract_z
Si Si1 0.409126 0.287102 0.691968
Si Si2 0.611994 0.535971 0.683275
Si Si3 0.342099 0.598259 0.468652
Si Si4 0.831558 0.892554 0.452533
Si Si5 0.069629 0.743936 0.160160
Si Si6 0.503600 0.139950 0.559048
Si Si7 0.032435 0.052758 0.839618
O O1 0.250000 0.250000 0.729114
O O2 0.345872 0.374052 0.637575
O O3 0.538619 0.288527 0.755046
O O4 0.480253 0.210342 0.632020
O O5 0.624935 0.454707 0.613899
O O6 0.509111 0.634370 0.661618
O O7 0.555808 0.491373 0.764321
O O8 0.791937 0.562923 0.688888
O O9 0.506875 0.650557 0.486525
O O10 0.330604 0.507610 0.527003
O O11 0.179167 0.653103 0.469247
O O12 0.666832 0.851487 0.478621
O O13 0.250000 0.750000 0.143683
O O14 0.002622 0.841643 0.119838
O O15 0.510831 0.028372 0.594275
#
# Coordination Sequence:
#
# PCOD9431517 Si02
#       7
#     8   8   8   8   8   8   8
#     4  10  21  39  62  93 121 163 214 267 313 384
#     4  11  23  41  62  92 133 161 216 258 327 391
#     4  10  23  40  63  92 125 173 207 265 321 381
#     4  10  22  40  65  89 127 167 217 262 317 374
#     4  12  25  37  61  96 129 166 209 264 329 390
#     4  10  22  40  65  94 124 165 219 260 323 380
#     4  11  23  38  62  93 126 174 200 269 324 382
#
# _framework density 27.405491999999999
#
# number of rings (size 3 to 8) (size 9 to 14) (size 15 to 20)
#    0.000    1.429    1.429    3.429   10.000    0.000 
#    0.000   10.000    0.000    0.000    0.000    0.000 
#    0.000    0.000    0.000    0.000    0.000    0.000 
#
# Total GULP energy -312803.542151 kJ/mol
# GULP energy per Si atom -5585.777538 kJ/mol
# Density = 2.734312 g / cm^3
# Si number density = 27.405492 Si / 1000 Ang^3
#
#
#
# Elastic Constant Matrix: (Units=GPa)
#
#
# Indices 1 2 3 4 5 6 
#
# 1 292.9760 75.4944 45.3961 0.0000 0.0000 0.0000
# 2 75.4944 109.2312 16.9757 0.0000 0.0000 0.0000
# 3 45.3961 16.9757 88.7690 0.0000 0.0000 0.0000
# 4 0.0000 0.0000 0.0000 44.4169 0.0000 0.0000
# 5 0.0000 0.0000 0.0000 0.0000 33.0978 0.0000
# 6 0.0000 0.0000 0.0000 0.0000 0.0000 50.2749
#
#
#
# Elastic Compliance Matrix: (Units=1/GPa)
#
#
# Indices 1 2 3 4 5 6 
#
# 1 0.004393 -0.002769 -0.001717 0.000000 0.000000 0.000000
# 2 -0.002769 0.011181 -0.000722 0.000000 0.000000 0.000000
# 3 -0.001717 -0.000722 0.012281 0.000000 0.000000 0.000000
# 4 0.000000 0.000000 0.000000 0.022514 0.000000 0.000000
# 5 0.000000 0.000000 0.000000 0.000000 0.030213 0.000000
# 6 0.000000 0.000000 0.000000 0.000000 0.000000 0.019891
#
#
# Mechanical properties :
#
#
# Convention : Reuss Voigt Hill
#
# Bulk Modulus (GPa) = 57.34334 85.18987 71.26660
# Shear Modulus (GPa) = 42.84394 49.09860 45.97127
#
# Velocity S-wave (km/s) = 3.95819 4.23727 4.10011
# Velocity P-wave (km/s) = 6.46987 7.42238 6.96243
#
# Compressibility (1/GPa) = 0.01743882
#
# Stress axis : x y z
#
# Youngs Moduli (GPa) = 227.64150 89.43692 81.42470
#
# Poissons Ratio (x) = 0.24768 0.13980
# Poissons Ratio (y) = 0.63040 0.05879
# Poissons Ratio (z) = 0.39084 0.06457
#
# Static dielectric constant tensor:
#      x y z
#    x 2.173850 0.000000 0.000000 
#    y 0.000000 2.378350 0.000000 
#    z 0.000000 0.000000 2.211720 
# 
# From -- ./inp_files/18201.got.cif
#   From: 2010.05.17/outbox.cif.g08.bks.cpg/sg56_10_cif.got.tgz:18201.got - 2010.06.03 13:42:01.
