data_PCOD9431566
_publ_section_title
;
Structure prediction by ZEFSAII (Michael W. Deem and Ramdas Pophale) SiO2 
 PCOD9431566
Probable space group: P C C N
;
_chemical_formula_sum "Si O2"
_cell_formula_units_Z 40
_cell_length_a 22.610831
_cell_length_b 5.499974
_cell_length_c 13.224354
_cell_angle_alpha 90.000000
_cell_angle_beta 90.000000
_cell_angle_gamma 90.000000
_cell_volume 1644.567209
_symmetry_space_group_name_H-M "P C C N"
_symmetry_group_IT_number 56
_symmetry_cell_setting 'orthorhombic'
loop_
_space_group_symop_operation_xyz
x,y,z
1/2-x,1/2-y,z
1/2+x,-y,1/2-z
-x,1/2+y,1/2-z
-x,-y,-z
1/2+x,1/2+y,-z
1/2-x,y,1/2+z
x,1/2-y,1/2+z
loop_
_atom_site_type_symbol
_atom_site_label
_atom_site_fract_x
_atom_site_fract_y
_atom_site_fract_z
Si Si1 0.932470 0.875236 0.618015
Si Si2 0.844016 0.618241 0.478247
Si Si3 0.116771 0.367186 0.200697
Si Si4 0.947395 0.264509 0.949707
Si Si5 0.717355 0.005984 0.662759
O O1 0.872674 0.808029 0.557855
O O2 0.918636 0.836647 0.735241
O O3 0.986938 0.698794 0.587341
O O4 0.951090 0.123745 0.563131
O O5 0.834107 0.754418 0.374031
O O6 0.896798 0.434297 0.452248
O O7 0.792683 0.493846 0.541224
O O8 0.074744 0.529772 0.130551
O O9 0.153259 0.516561 0.283643
O O10 0.750000 0.750000 0.684902
O O11 0.750000 0.250000 0.694090
#
# Coordination Sequence:
#
# PCOD9431566 Si02
#       5
#     8   8   8   8   8
#     4   9  21  40  62 100 142 176 217 269 348 406
#     4  10  23  42  69  95 135 175 231 282 339 418
#     4  10  24  41  66 105 130 175 233 282 335 426
#     4  10  21  39  67  97 139 181 215 277 338 420
#     4  11  28  50  73  97 137 182 232 300 359 398
#
# _framework density 24.322510000000001
#
# number of rings (size 3 to 8) (size 9 to 14) (size 15 to 20)
#    0.000    2.000    0.000    0.600   14.000    2.400 
#    3.600    0.000    0.000    0.000    0.000    0.000 
#    0.000    0.000    0.000    0.000    0.000    0.000 
#
# Total GULP energy -223350.429679 kJ/mol
# GULP energy per Si atom -5583.760742 kJ/mol
# Density = 2.426715 g / cm^3
# Si number density = 24.322510 Si / 1000 Ang^3
#
#
#
# Elastic Constant Matrix: (Units=GPa)
#
#
# Indices 1 2 3 4 5 6 
#
# 1 55.9104 8.8060 8.7929 0.0000 0.0000 0.0000
# 2 8.8060 56.2537 20.0989 0.0000 0.0000 0.0000
# 3 8.7929 20.0989 107.9148 0.0000 0.0000 0.0000
# 4 0.0000 0.0000 0.0000 13.5573 0.0000 0.0000
# 5 0.0000 0.0000 0.0000 0.0000 35.9119 0.0000
# 6 0.0000 0.0000 0.0000 0.0000 0.0000 35.9476
#
#
#
# Elastic Compliance Matrix: (Units=1/GPa)
#
#
# Indices 1 2 3 4 5 6 
#
# 1 0.018445 -0.002518 -0.001034 0.000000 0.000000 0.000000
# 2 -0.002518 0.019388 -0.003406 0.000000 0.000000 0.000000
# 3 -0.001034 -0.003406 0.009985 0.000000 0.000000 0.000000
# 4 0.000000 0.000000 0.000000 0.073761 0.000000 0.000000
# 5 0.000000 0.000000 0.000000 0.000000 0.027846 0.000000
# 6 0.000000 0.000000 0.000000 0.000000 0.000000 0.027818
#
#
# Mechanical properties :
#
#
# Convention : Reuss Voigt Hill
#
# Bulk Modulus (GPa) = 29.49641 32.83048 31.16345
# Shear Modulus (GPa) = 24.69638 29.24210 26.96924
#
# Velocity S-wave (km/s) = 3.18995 3.47113 3.33350
# Velocity P-wave (km/s) = 5.07161 5.43988 5.25897
#
# Compressibility (1/GPa) = 0.03390243
#
# Stress axis : x y z
#
# Youngs Moduli (GPa) = 54.21535 51.57938 100.14896
#
# Poissons Ratio (x) = 0.12987 0.10355
# Poissons Ratio (y) = 0.13651 0.34108
# Poissons Ratio (z) = 0.05606 0.17567
#
# Static dielectric constant tensor:
#      x y z
#    x 1.996790 0.000000 0.000000 
#    y 0.000000 2.043070 0.000000 
#    z 0.000000 0.000000 1.926340 
# 
# From -- ./inp_files/5618.got.cif
#   From: 2010.05.17/outbox.cif.g08.bks.cpg/sg56_3_cif.got.tgz:5618.got - 2010.06.03 13:42:01.
