data_PCOD9431856
_publ_section_title
;
Structure prediction by ZEFSAII (Michael W. Deem and Ramdas Pophale) SiO2 
 PCOD9431856
Probable space group: P C C N
;
_chemical_formula_sum "Si O2"
_cell_formula_units_Z 64
_cell_length_a 8.264788
_cell_length_b 20.934802
_cell_length_c 14.667012
_cell_angle_alpha 90.000000
_cell_angle_beta 90.000000
_cell_angle_gamma 90.000000
_cell_volume 2537.711355
_symmetry_space_group_name_H-M "P C C N"
_symmetry_group_IT_number 56
_symmetry_cell_setting 'orthorhombic'
loop_
_space_group_symop_operation_xyz
x,y,z
1/2-x,1/2-y,z
1/2+x,-y,1/2-z
-x,1/2+y,1/2-z
-x,-y,-z
1/2+x,1/2+y,-z
1/2-x,y,1/2+z
x,1/2-y,1/2+z
loop_
_atom_site_type_symbol
_atom_site_label
_atom_site_fract_x
_atom_site_fract_y
_atom_site_fract_z
Si Si1 0.314531 0.575208 0.079649
Si Si2 0.851710 0.888473 0.985092
Si Si3 0.382502 0.406997 0.234242
Si Si4 0.504499 0.898472 0.963053
Si Si5 0.483111 0.253536 0.021697
Si Si6 0.878167 0.204940 0.835781
Si Si7 0.615310 0.517000 0.302204
Si Si8 0.075518 0.270322 0.708889
O O1 0.320466 0.634487 0.148526
O O2 0.260906 0.515046 0.138812
O O3 0.489070 0.579007 0.029515
O O4 0.162585 0.586153 0.012657
O O5 0.864866 0.894493 0.875037
O O6 0.675996 0.916549 0.012370
O O7 0.856857 0.811610 0.003893
O O8 0.517021 0.458542 0.260360
O O9 0.210889 0.436279 0.265819
O O10 0.419191 0.335265 0.267173
O O11 0.523907 0.822039 0.958076
O O12 0.510399 0.938269 0.869082
O O13 0.538965 0.278131 0.121189
O O14 0.590500 0.261936 0.932737
O O15 0.750000 0.250000 0.786601
O O16 0.033798 0.211838 0.773813
O O17 0.250000 0.250000 0.668747
#
# Coordination Sequence:
#
# PCOD9431856 Si02
#       8
#     8   8   8   8   8   8   8   8
#     4  11  24  43  67 101 139 176 240 291 365 438
#     4   9  22  42  69 100 128 181 235 298 364 434
#     4  10  24  45  66  96 143 182 241 301 352 443
#     4  11  22  41  69  96 135 182 235 292 359 434
#     4  10  21  43  71  97 139 183 237 301 370 434
#     4  11  23  43  65 105 142 179 232 304 372 438
#     4  11  25  44  65  99 137 193 235 287 360 433
#     4  11  24  44  72 105 139 183 244 306 378 438
#
# _framework density 25.219576
#
# number of rings (size 3 to 8) (size 9 to 14) (size 15 to 20)
#    0.000    1.500    1.250    3.750    1.750    7.000 
#    4.500    0.000    0.000    0.000    0.000    0.000 
#    0.000    0.000    0.000    0.000    0.000    0.000 
#
# Total GULP energy -357139.882545 kJ/mol
# GULP energy per Si atom -5580.310665 kJ/mol
# Density = 2.516217 g / cm^3
# Si number density = 25.219576 Si / 1000 Ang^3
#
#
#
# Elastic Constant Matrix: (Units=GPa)
#
#
# Indices 1 2 3 4 5 6 
#
# 1 96.9426 2.8926 19.4785 0.0000 0.0000 0.0000
# 2 2.8926 101.2517 9.6100 0.0000 0.0000 0.0000
# 3 19.4785 9.6100 49.7598 0.0000 0.0000 0.0000
# 4 0.0000 0.0000 0.0000 21.1408 0.0000 0.0000
# 5 0.0000 0.0000 0.0000 0.0000 27.3088 0.0000
# 6 0.0000 0.0000 0.0000 0.0000 0.0000 39.4482
#
#
#
# Elastic Compliance Matrix: (Units=1/GPa)
#
#
# Indices 1 2 3 4 5 6 
#
# 1 0.011197 0.000098 -0.004402 0.000000 0.000000 0.000000
# 2 0.000098 0.010062 -0.001982 0.000000 0.000000 0.000000
# 3 -0.004402 -0.001982 0.022202 0.000000 0.000000 0.000000
# 4 0.000000 0.000000 0.000000 0.047302 0.000000 0.000000
# 5 0.000000 0.000000 0.000000 0.000000 0.036618 0.000000
# 6 0.000000 0.000000 0.000000 0.000000 0.000000 0.025350
#
#
# Mechanical properties :
#
#
# Convention : Reuss Voigt Hill
#
# Bulk Modulus (GPa) = 32.37307 34.65735 33.51521
# Shear Modulus (GPa) = 28.47403 31.97775 30.22589
#
# Velocity S-wave (km/s) = 3.36377 3.56472 3.46570
# Velocity P-wave (km/s) = 5.28687 5.54212 5.41600
#
# Compressibility (1/GPa) = 0.03088987
#
# Stress axis : x y z
#
# Youngs Moduli (GPa) = 89.31010 99.38728 45.04021
#
# Poissons Ratio (x) = -0.00973 0.19827
# Poissons Ratio (y) = -0.00875 0.08925
# Poissons Ratio (z) = 0.39314 0.19694
#
# Static dielectric constant tensor:
#      x y z
#    x 2.091070 0.000000 0.000000 
#    y 0.000000 2.011950 0.000000 
#    z 0.000000 0.000000 1.959860 
# 
# From -- ./inp_files/15215.got.cif
#   From: 2010.05.17/outbox.cif.g08.bks.cpg/sg56_8_cif.got.tgz:15215.got - 2010.06.03 13:42:01.
