data_PCOD9431315
_publ_section_title
;
Structure prediction by ZEFSAII (Michael W. Deem and Ramdas Pophale) SiO2 
 PCOD9431315
Probable space group: P C C N
;
_chemical_formula_sum "Si O2"
_cell_formula_units_Z 32
_cell_length_a 17.416378
_cell_length_b 18.117701
_cell_length_c 5.046560
_cell_angle_alpha 90.000000
_cell_angle_beta 90.000000
_cell_angle_gamma 90.000000
_cell_volume 1592.415408
_symmetry_space_group_name_H-M "P C C N"
_symmetry_group_IT_number 56
_symmetry_cell_setting 'orthorhombic'
loop_
_space_group_symop_operation_xyz
x,y,z
1/2-x,1/2-y,z
1/2+x,-y,1/2-z
-x,1/2+y,1/2-z
-x,-y,-z
1/2+x,1/2+y,-z
1/2-x,y,1/2+z
x,1/2-y,1/2+z
loop_
_atom_site_type_symbol
_atom_site_label
_atom_site_fract_x
_atom_site_fract_y
_atom_site_fract_z
Si Si1 0.463073 0.296420 0.393674
Si Si2 0.203849 0.523579 0.094294
Si Si3 0.204540 0.345769 0.051956
Si Si4 0.968778 0.045818 0.252529
O O1 0.483624 0.268205 0.687078
O O2 0.372559 0.313479 0.428624
O O3 0.499225 0.371629 0.283403
O O4 0.270502 0.546414 0.300523
O O5 0.197456 0.434639 0.066754
O O6 0.123034 0.548529 0.214239
O O7 0.226151 0.326394 0.352597
O O8 0.000000 0.000000 0.500000
O O9 0.000000 0.000000 0.000000
#
# Coordination Sequence:
#
# PCOD9431315 Si02
#       4
#     8   8   8   8
#     4  12  26  41  60  91 132 170 210 261 323 383
#     4  10  21  38  64  95 123 158 214 272 317 373
#     4  10  21  36  59  88 127 169 206 246 306 387
#     4  12  24  42  69  94 125 172 221 270 321 380
#
# _framework density 20.09526
#
# number of rings (size 3 to 8) (size 9 to 14) (size 15 to 20)
#    0.000    1.000    2.500    4.500    7.000    3.000 
#    0.000    0.000    0.000    4.500    0.000    0.000 
#    0.000    0.000    0.000    0.000    0.000    0.000 
#
# Total GULP energy -178688.239912 kJ/mol
# GULP energy per Si atom -5584.007497 kJ/mol
# Density = 2.004952 g / cm^3
# Si number density = 20.095260 Si / 1000 Ang^3
#
#
#
# Elastic Constant Matrix: (Units=GPa)
#
#
# Indices 1 2 3 4 5 6 
#
# 1 99.2499 34.7788 22.3055 0.0000 0.0000 0.0000
# 2 34.7788 87.1087 21.2530 0.0000 0.0000 0.0000
# 3 22.3055 21.2530 134.6515 0.0000 0.0000 0.0000
# 4 0.0000 0.0000 0.0000 26.8051 0.0000 0.0000
# 5 0.0000 0.0000 0.0000 0.0000 26.4601 0.0000
# 6 0.0000 0.0000 0.0000 0.0000 0.0000 32.2569
#
#
#
# Elastic Compliance Matrix: (Units=1/GPa)
#
#
# Indices 1 2 3 4 5 6 
#
# 1 0.011921 -0.004449 -0.001272 0.000000 0.000000 0.000000
# 2 -0.004449 0.013600 -0.001410 0.000000 0.000000 0.000000
# 3 -0.001272 -0.001410 0.007860 0.000000 0.000000 0.000000
# 4 0.000000 0.000000 0.000000 0.037306 0.000000 0.000000
# 5 0.000000 0.000000 0.000000 0.000000 0.037793 0.000000
# 6 0.000000 0.000000 0.000000 0.000000 0.000000 0.031001
#
#
# Mechanical properties :
#
#
# Convention : Reuss Voigt Hill
#
# Bulk Modulus (GPa) = 52.30543 53.07610 52.69077
# Shear Modulus (GPa) = 31.22746 33.28260 32.25503
#
# Velocity S-wave (km/s) = 3.94632 4.07411 4.01072
# Velocity P-wave (km/s) = 6.84469 6.97142 6.90835
#
# Compressibility (1/GPa) = 0.01911847
#
# Stress axis : x y z
#
# Youngs Moduli (GPa) = 83.88892 73.52891 127.22872
#
# Poissons Ratio (x) = 0.32712 0.16190
# Poissons Ratio (y) = 0.37321 0.17935
# Poissons Ratio (z) = 0.10675 0.10365
#
# Static dielectric constant tensor:
#      x y z
#    x 1.760040 0.000000 0.000000 
#    y 0.000000 1.699960 0.000000 
#    z 0.000000 0.000000 1.691530 
# 
# From -- ./inp_files/405.got.cif
#   From: 2010.05.17/outbox.cif.g08.bks.cpg/sg56_1_cif.got.tgz:405.got - 2010.06.03 13:42:01.
