data_PCOD9431702
_publ_section_title
;
Structure prediction by ZEFSAII (Michael W. Deem and Ramdas Pophale) SiO2 
 PCOD9431702
Probable space group: P C C N
;
_chemical_formula_sum "Si O2"
_cell_formula_units_Z 40
_cell_length_a 9.325490
_cell_length_b 20.716923
_cell_length_c 9.169771
_cell_angle_alpha 90.000000
_cell_angle_beta 90.000000
_cell_angle_gamma 90.000000
_cell_volume 1771.558111
_symmetry_space_group_name_H-M "P C C N"
_symmetry_group_IT_number 56
_symmetry_cell_setting 'orthorhombic'
loop_
_space_group_symop_operation_xyz
x,y,z
1/2-x,1/2-y,z
1/2+x,-y,1/2-z
-x,1/2+y,1/2-z
-x,-y,-z
1/2+x,1/2+y,-z
1/2-x,y,1/2+z
x,1/2-y,1/2+z
loop_
_atom_site_type_symbol
_atom_site_label
_atom_site_fract_x
_atom_site_fract_y
_atom_site_fract_z
Si Si1 0.867524 0.869637 0.323890
Si Si2 0.940920 0.023696 0.844342
Si Si3 0.902986 0.603944 0.156738
Si Si4 0.142508 0.806609 0.303538
Si Si5 0.215995 0.622675 0.075314
O O1 0.714110 0.858824 0.251853
O O2 0.854361 0.896274 0.488181
O O3 0.951452 0.923300 0.225867
O O4 0.972357 0.807081 0.326753
O O5 0.788116 0.055851 0.882732
O O6 0.918834 0.966146 0.730150
O O7 0.000000 0.000000 0.000000
O O8 0.062965 0.632853 0.151843
O O9 0.250000 0.750000 0.344570
O O10 0.176154 0.823988 0.137462
O O11 0.191477 0.866982 0.405031
#
# Coordination Sequence:
#
# PCOD9431702 Si02
#       5
#     8   8   8   8   8
#     4  10  23  37  57  88 123 165 211 248 303 375
#     4  11  21  36  59  90 129 171 205 248 308 372
#     4  11  21  37  56  86 129 162 200 254 306 377
#     4  10  21  41  63  84 111 151 205 264 312 360
#     4  10  22  37  60  90 117 157 207 250 307 376
#
# _framework density 22.578994000000002
#
# number of rings (size 3 to 8) (size 9 to 14) (size 15 to 20)
#    0.000    1.600    0.000    4.800    0.000    8.000 
#    0.000    1.000    0.000    4.800    0.000    0.000 
#    0.000    0.000    0.000    0.000    0.000    0.000 
#
# Total GULP energy -223385.442244 kJ/mol
# GULP energy per Si atom -5584.636056 kJ/mol
# Density = 2.252760 g / cm^3
# Si number density = 22.578994 Si / 1000 Ang^3
#
#
#
# Elastic Constant Matrix: (Units=GPa)
#
#
# Indices 1 2 3 4 5 6 
#
# 1 130.9227 22.0085 42.3605 0.0000 0.0000 0.0000
# 2 22.0085 37.8232 6.8082 0.0000 0.0000 0.0000
# 3 42.3605 6.8082 122.0854 0.0000 0.0000 0.0000
# 4 0.0000 0.0000 0.0000 19.8117 0.0000 0.0000
# 5 0.0000 0.0000 0.0000 0.0000 41.8498 0.0000
# 6 0.0000 0.0000 0.0000 0.0000 0.0000 33.4306
#
#
#
# Elastic Compliance Matrix: (Units=1/GPa)
#
#
# Indices 1 2 3 4 5 6 
#
# 1 0.009441 -0.004954 -0.003000 0.000000 0.000000 0.000000
# 2 -0.004954 0.029306 0.000085 0.000000 0.000000 0.000000
# 3 -0.003000 0.000085 0.009227 0.000000 0.000000 0.000000
# 4 0.000000 0.000000 0.000000 0.050475 0.000000 0.000000
# 5 0.000000 0.000000 0.000000 0.000000 0.023895 0.000000
# 6 0.000000 0.000000 0.000000 0.000000 0.000000 0.029913
#
#
# Mechanical properties :
#
#
# Convention : Reuss Voigt Hill
#
# Bulk Modulus (GPa) = 31.02050 48.13174 39.57612
# Shear Modulus (GPa) = 27.97345 33.66201 30.81773
#
# Velocity S-wave (km/s) = 3.52364 3.86535 3.69844
# Velocity P-wave (km/s) = 5.50665 6.42531 5.98363
#
# Compressibility (1/GPa) = 0.03223674
#
# Stress axis : x y z
#
# Youngs Moduli (GPa) = 105.91650 34.12263 108.37660
#
# Poissons Ratio (x) = 0.16904 0.32509
# Poissons Ratio (y) = 0.52469 -0.00916
# Poissons Ratio (z) = 0.31771 -0.00289
#
# Static dielectric constant tensor:
#      x y z
#    x 1.854070 0.000000 0.000000 
#    y 0.000000 1.875730 0.000000 
#    z 0.000000 0.000000 1.798950 
# 
# From -- ./inp_files/2033.got.cif
#   From: 2010.05.17/outbox.cif.g08.bks.cpg/sg56_2_cif.got.tgz:2033.got - 2010.06.03 13:42:01.
