data_PCOD9431294
_publ_section_title
;
Structure prediction by ZEFSAII (Michael W. Deem and Ramdas Pophale) SiO2 
 PCOD9431294
Probable space group: P C C N
;
_chemical_formula_sum "Si O2"
_cell_formula_units_Z 60
_cell_length_a 27.081996
_cell_length_b 10.706432
_cell_length_c 9.188447
_cell_angle_alpha 90.000000
_cell_angle_beta 90.000000
_cell_angle_gamma 90.000000
_cell_volume 2664.204437
_symmetry_space_group_name_H-M "P C C N"
_symmetry_group_IT_number 56
_symmetry_cell_setting 'orthorhombic'
loop_
_space_group_symop_operation_xyz
x,y,z
1/2-x,1/2-y,z
1/2+x,-y,1/2-z
-x,1/2+y,1/2-z
-x,-y,-z
1/2+x,1/2+y,-z
1/2-x,y,1/2+z
x,1/2-y,1/2+z
loop_
_atom_site_type_symbol
_atom_site_label
_atom_site_fract_x
_atom_site_fract_y
_atom_site_fract_z
Si Si1 0.574614 0.154384 0.204041
Si Si2 0.526533 0.858767 0.622669
Si Si3 0.297857 0.382529 0.329710
Si Si4 0.390864 0.568678 0.822813
Si Si5 0.109453 0.041414 0.522747
Si Si6 0.430142 0.297719 0.151811
Si Si7 0.151101 0.984758 0.112999
Si Si8 0.250000 0.250000 0.584357
O O1 0.524592 0.133313 0.293654
O O2 0.586033 0.294798 0.157067
O O3 0.619407 0.122373 0.312153
O O4 0.577129 0.054282 0.073223
O O5 0.525474 0.845980 0.449355
O O6 0.551746 0.732294 0.687260
O O7 0.564275 0.971573 0.650405
O O8 0.347747 0.403505 0.420025
O O9 0.300301 0.494835 0.211674
O O10 0.260373 0.358364 0.464324
O O11 0.292800 0.272437 0.205957
O O12 0.372136 0.540156 0.660314
O O13 0.348563 0.540585 0.942063
O O14 0.084104 0.161764 0.592470
O O15 0.384914 0.392911 0.132465
#
# Coordination Sequence:
#
# PCOD9431294 Si02
#       8
#     8   8   8   8   8   8   8   4
#     4  11  23  36  56  83 119 165 230 269 319 357
#     4  10  23  33  53  77 117 157 218 282 316 355
#     4  10  21  38  62  96 134 152 192 236 304 397
#     4  10  23  37  57  86 117 176 225 263 316 363
#     4  10  22  39  59  86 123 168 207 259 317 381
#     4  10  21  36  54  81 114 166 210 263 324 356
#     4  10  22  39  59  86 123 168 207 259 317 381
#     4  10  22  38  68 106 126 162 180 242 328 380
#
# _framework density 22.520796000000001
#
# number of rings (size 3 to 8) (size 9 to 14) (size 15 to 20)
#    0.000    1.867    0.000    3.200    7.467    8.533 
#    0.000    0.000    0.000    0.000    0.000   44.800 
#    0.000    0.000    0.000    0.000    0.000    0.000 
#
# Total GULP energy -334216.608835 kJ/mol
# GULP energy per Si atom -5570.276814 kJ/mol
# Density = 2.246954 g / cm^3
# Si number density = 22.520796 Si / 1000 Ang^3
#
#
#
# Elastic Constant Matrix: (Units=GPa)
#
#
# Indices 1 2 3 4 5 6 
#
# 1 30.0700 13.3319 19.6038 0.0000 0.0000 0.0000
# 2 13.3319 78.0693 37.8811 0.0000 0.0000 0.0000
# 3 19.6038 37.8811 124.3391 0.0000 0.0000 0.0000
# 4 0.0000 0.0000 0.0000 28.7046 0.0000 0.0000
# 5 0.0000 0.0000 0.0000 0.0000 25.4546 0.0000
# 6 0.0000 0.0000 0.0000 0.0000 0.0000 18.3694
#
#
#
# Elastic Compliance Matrix: (Units=1/GPa)
#
#
# Indices 1 2 3 4 5 6 
#
# 1 0.038219 -0.004228 -0.004738 0.000000 0.000000 0.000000
# 2 -0.004228 0.015499 -0.004055 0.000000 0.000000 0.000000
# 3 -0.004738 -0.004055 0.010025 0.000000 0.000000 0.000000
# 4 0.000000 0.000000 0.000000 0.034838 0.000000 0.000000
# 5 0.000000 0.000000 0.000000 0.000000 0.039286 0.000000
# 6 0.000000 0.000000 0.000000 0.000000 0.000000 0.054438
#
#
# Mechanical properties :
#
#
# Convention : Reuss Voigt Hill
#
# Bulk Modulus (GPa) = 26.52442 41.56800 34.04621
# Shear Modulus (GPa) = 21.65318 25.28316 23.46817
#
# Velocity S-wave (km/s) = 3.10413 3.35424 3.23161
# Velocity P-wave (km/s) = 4.96496 5.78783 5.39211
#
# Compressibility (1/GPa) = 0.03770110
#
# Stress axis : x y z
#
# Youngs Moduli (GPa) = 26.16509 64.52096 99.75094
#
# Poissons Ratio (x) = 0.27278 0.47259
# Poissons Ratio (y) = 0.11062 0.40452
# Poissons Ratio (z) = 0.12396 0.26165
#
# Static dielectric constant tensor:
#      x y z
#    x 1.895100 0.000000 0.000000 
#    y 0.000000 1.870390 0.000000 
#    z 0.000000 0.000000 1.903690 
# 
# From -- ./inp_files/4984.got.cif
#   From: 2010.05.17/outbox.cif.g08.bks.cpg/sg56_3_cif.got.tgz:4984.got - 2010.06.03 13:42:01.
