data_PCOD9431972
_publ_section_title
;
Structure prediction by ZEFSAII (Michael W. Deem and Ramdas Pophale) SiO2 
 PCOD9431972
Probable space group: P C C N
;
_chemical_formula_sum "Si O2"
_cell_formula_units_Z 48
_cell_length_a 7.772443
_cell_length_b 25.286294
_cell_length_c 13.360268
_cell_angle_alpha 90.000000
_cell_angle_beta 90.000000
_cell_angle_gamma 90.000000
_cell_volume 2625.777356
_symmetry_space_group_name_H-M "P C C N"
_symmetry_group_IT_number 56
_symmetry_cell_setting 'orthorhombic'
loop_
_space_group_symop_operation_xyz
x,y,z
1/2-x,1/2-y,z
1/2+x,-y,1/2-z
-x,1/2+y,1/2-z
-x,-y,-z
1/2+x,1/2+y,-z
1/2-x,y,1/2+z
x,1/2-y,1/2+z
loop_
_atom_site_type_symbol
_atom_site_label
_atom_site_fract_x
_atom_site_fract_y
_atom_site_fract_z
Si Si1 0.367867 0.569601 0.044178
Si Si2 0.983457 0.315751 0.512001
Si Si3 0.250000 0.250000 0.377074
Si Si4 0.514839 0.683941 0.753811
Si Si5 0.541491 0.065406 0.816928
Si Si6 0.750000 0.250000 0.379674
Si Si7 0.825925 0.990434 0.142130
O O1 0.182987 0.577150 0.097195
O O2 0.507861 0.546374 0.121983
O O3 0.463522 0.621616 0.002462
O O4 0.329855 0.529594 0.953168
O O5 0.816078 0.293859 0.456528
O O6 0.125937 0.282886 0.450625
O O7 0.003668 0.304378 0.628904
O O8 0.315748 0.295244 0.301371
O O9 0.492188 0.621635 0.736054
O O10 0.377041 0.719155 0.693827
O O11 0.356956 0.040338 0.850142
O O12 0.632965 0.024464 0.740975
#
# Coordination Sequence:
#
# PCOD9431972 Si02
#       7
#     8   8   4   8   8   4   8
#     4  11  23  42  64  90 128 166 209 263 316 376
#     4  11  21  40  63  90 123 162 207 255 317 375
#     4  10  24  40  62  94 126 160 210 264 314 376
#     4  11  22  40  63  89 123 163 204 258 317 376
#     4  12  22  41  65  92 125 167 212 256 322 382
#     4  10  22  38  62  88 120 158 206 252 306 376
#     4  11  24  40  63  93 125 165 210 265 314 378
#
# _framework density 18.280301999999999
#
# number of rings (size 3 to 8) (size 9 to 14) (size 15 to 20)
#    0.000    1.000    5.000    2.500    0.000    0.000 
#    0.000    0.000    0.000    0.000    0.000    0.000 
#    0.000    0.000    0.000    0.000    0.000    0.000 
#
# Total GULP energy -267342.504443 kJ/mol
# GULP energy per Si atom -5569.635509 kJ/mol
# Density = 1.823869 g / cm^3
# Si number density = 18.280302 Si / 1000 Ang^3
#
#
#
# Elastic Constant Matrix: (Units=GPa)
#
#
# Indices 1 2 3 4 5 6 
#
# 1 43.2516 2.9934 24.0097 0.0000 0.0000 0.0000
# 2 2.9934 69.6321 25.9836 0.0000 0.0000 0.0000
# 3 24.0097 25.9836 128.9351 0.0000 0.0000 0.0000
# 4 0.0000 0.0000 0.0000 30.8655 0.0000 0.0000
# 5 0.0000 0.0000 0.0000 0.0000 654.3624 0.0000
# 6 0.0000 0.0000 0.0000 0.0000 0.0000 25.4429
#
#
#
# Elastic Compliance Matrix: (Units=1/GPa)
#
#
# Indices 1 2 3 4 5 6 
#
# 1 0.025821 0.000740 -0.004957 0.000000 0.000000 0.000000
# 2 0.000740 0.015550 -0.003272 0.000000 0.000000 0.000000
# 3 -0.004957 -0.003272 0.009338 0.000000 0.000000 0.000000
# 4 0.000000 0.000000 0.000000 0.032399 0.000000 0.000000
# 5 0.000000 0.000000 0.000000 0.000000 0.001528 0.000000
# 6 0.000000 0.000000 0.000000 0.000000 0.000000 0.039304
#
#
# Mechanical properties :
#
#
# Convention : Reuss Voigt Hill
#
# Bulk Modulus (GPa) = 27.98646 38.64358 33.31502
# Shear Modulus (GPa) = 33.15013 154.72297 93.93655
#
# Velocity S-wave (km/s) = 4.26306 9.20994 7.17623
# Velocity P-wave (km/s) = 6.29083 11.58804 9.32355
#
# Compressibility (1/GPa) = 0.03573157
#
# Stress axis : x y z
#
# Youngs Moduli (GPa) = 38.72774 64.30796 107.08609
#
# Poissons Ratio (x) = -0.04758 0.53087
# Poissons Ratio (y) = -0.02865 0.35033
# Poissons Ratio (z) = 0.19199 0.21038
#
# Static dielectric constant tensor:
#      x y z
#    x 1.634070 0.000000 0.000000 
#    y 0.000000 1.642930 0.000000 
#    z 0.000000 0.000000 1.589930 
# 
# From -- ./inp_files/6435.got.cif
#   From: 2010.05.17/outbox.cif.g08.bks.cpg/sg56_4_cif.got.tgz:6435.got - 2010.06.03 13:42:01.
