data_PCOD9431691
_publ_section_title
;
Structure prediction by ZEFSAII (Michael W. Deem and Ramdas Pophale) SiO2 
 PCOD9431691
Probable space group: P C C N
;
_chemical_formula_sum "Si O2"
_cell_formula_units_Z 40
_cell_length_a 4.829641
_cell_length_b 12.063163
_cell_length_c 30.174587
_cell_angle_alpha 90.000000
_cell_angle_beta 90.000000
_cell_angle_gamma 90.000000
_cell_volume 1757.993967
_symmetry_space_group_name_H-M "P C C N"
_symmetry_group_IT_number 56
_symmetry_cell_setting 'orthorhombic'
loop_
_space_group_symop_operation_xyz
x,y,z
1/2-x,1/2-y,z
1/2+x,-y,1/2-z
-x,1/2+y,1/2-z
-x,-y,-z
1/2+x,1/2+y,-z
1/2-x,y,1/2+z
x,1/2-y,1/2+z
loop_
_atom_site_type_symbol
_atom_site_label
_atom_site_fract_x
_atom_site_fract_y
_atom_site_fract_z
Si Si1 0.294400 0.516329 0.808387
Si Si2 0.799673 0.375915 0.783572
Si Si3 0.813363 0.003031 0.595831
Si Si4 0.502293 0.167662 0.529258
Si Si5 0.861599 0.373910 0.432179
O O1 0.604950 0.467924 0.807161
O O2 0.257930 0.604791 0.769078
O O3 0.178556 0.555796 0.855604
O O4 0.109637 0.411249 0.794549
O O5 0.750000 0.250000 0.796611
O O6 0.609763 0.898007 0.601406
O O7 0.103106 0.959618 0.575075
O O8 0.628516 0.083867 0.565075
O O9 0.750000 0.250000 0.521477
O O10 0.481327 0.115829 0.480082
O O11 0.250000 0.250000 0.541576
O O12 0.750000 0.250000 0.426879
#
# Coordination Sequence:
#
# PCOD9431691 Si02
#       5
#     8   8   8   8   8
#     4  10  23  38  59  92 115 147 202 237 288 369
#     4  10  21  41  62  82 119 157 185 237 300 355
#     4  12  23  39  62  89 122 155 198 259 302 345
#     4  11  23  41  61  86 120 163 208 246 299 363
#     4  11  23  39  59  87 121 160 202 245 302 362
#
# _framework density 22.753207
#
# number of rings (size 3 to 8) (size 9 to 14) (size 15 to 20)
#    0.000    1.200    0.000    7.200    0.000    5.600 
#    0.000    4.000    0.000    0.000    0.000    0.000 
#    0.000    0.000    0.000    0.000    0.000    0.000 
#
# Total GULP energy -223112.833603 kJ/mol
# GULP energy per Si atom -5577.820840 kJ/mol
# Density = 2.270142 g / cm^3
# Si number density = 22.753207 Si / 1000 Ang^3
#
#
#
# Elastic Constant Matrix: (Units=GPa)
#
#
# Indices 1 2 3 4 5 6 
#
# 1 86.2421 -5.4179 -7.4950 0.0000 0.0000 0.0000
# 2 -5.4179 40.3390 -0.6931 0.0000 0.0000 0.0000
# 3 -7.4950 -0.6931 110.4334 0.0000 0.0000 0.0000
# 4 0.0000 0.0000 0.0000 8.7623 0.0000 0.0000
# 5 0.0000 0.0000 0.0000 0.0000 17.2404 0.0000
# 6 0.0000 0.0000 0.0000 0.0000 0.0000 35.6408
#
#
#
# Elastic Compliance Matrix: (Units=1/GPa)
#
#
# Indices 1 2 3 4 5 6 
#
# 1 0.011766 0.001594 0.000809 0.000000 0.000000 0.000000
# 2 0.001594 0.025009 0.000265 0.000000 0.000000 0.000000
# 3 0.000809 0.000265 0.009112 0.000000 0.000000 0.000000
# 4 0.000000 0.000000 0.000000 0.114125 0.000000 0.000000
# 5 0.000000 0.000000 0.000000 0.000000 0.058003 0.000000
# 6 0.000000 0.000000 0.000000 0.000000 0.000000 0.028058
#
#
# Mechanical properties :
#
#
# Convention : Reuss Voigt Hill
#
# Bulk Modulus (GPa) = 19.52300 23.31139 21.41719
# Shear Modulus (GPa) = 19.39409 29.03673 24.21541
#
# Velocity S-wave (km/s) = 2.92270 3.57621 3.26584
# Velocity P-wave (km/s) = 4.47085 5.22685 4.86356
#
# Compressibility (1/GPa) = 0.05122165
#
# Stress axis : x y z
#
# Youngs Moduli (GPa) = 84.99297 39.98629 109.74816
#
# Poissons Ratio (x) = -0.06374 -0.08873
# Poissons Ratio (y) = -0.13549 -0.02910
# Poissons Ratio (z) = -0.06872 -0.01060
#
# Static dielectric constant tensor:
#      x y z
#    x 1.820440 0.000000 0.000000 
#    y 0.000000 1.865730 0.000000 
#    z 0.000000 0.000000 1.962260 
# 
# From -- ./inp_files/21515.got.cif
#   From: 2010.05.17/outbox.cif.g08.bks.cpg/sg56_11_cif.got.tgz:21515.got - 2010.06.03 13:42:01.
