data_PCOD9431072
_publ_section_title
;
Structure prediction by ZEFSAII (Michael W. Deem and Ramdas Pophale) SiO2 
 PCOD9431072
Probable space group: P C C N
;
_chemical_formula_sum "Si O2"
_cell_formula_units_Z 24
_cell_length_a 7.287539
_cell_length_b 13.507896
_cell_length_c 9.687098
_cell_angle_alpha 90.000000
_cell_angle_beta 90.000000
_cell_angle_gamma 90.000000
_cell_volume 953.591329
_symmetry_space_group_name_H-M "P C C N"
_symmetry_group_IT_number 56
_symmetry_cell_setting 'orthorhombic'
loop_
_space_group_symop_operation_xyz
x,y,z
1/2-x,1/2-y,z
1/2+x,-y,1/2-z
-x,1/2+y,1/2-z
-x,-y,-z
1/2+x,1/2+y,-z
1/2-x,y,1/2+z
x,1/2-y,1/2+z
loop_
_atom_site_type_symbol
_atom_site_label
_atom_site_fract_x
_atom_site_fract_y
_atom_site_fract_z
Si Si1 0.380091 0.656649 0.772842
Si Si2 0.239111 0.936499 0.514219
Si Si3 0.145674 0.152182 0.459448
O O1 0.250000 0.750000 0.752440
O O2 0.276988 0.573068 0.678710
O O3 0.572202 0.671031 0.696318
O O4 0.387427 0.625994 0.931073
O O5 0.047488 0.881256 0.467854
O O6 0.251719 0.049014 0.468184
O O7 0.250000 0.250000 0.506676
#
# Coordination Sequence:
#
# PCOD9431072 Si02
#       3
#     8   8   8
#     4  10  20  40  66  89 130 170 214 266 332 387
#     4   9  21  42  64  96 129 168 218 269 328 394
#     4   9  21  44  65  93 129 176 218 261 334 405
#
# _framework density 25.168015
#
# number of rings (size 3 to 8) (size 9 to 14) (size 15 to 20)
#    2.000    0.667    0.000    1.000    0.000    2.667 
#    6.000    3.333    0.000    2.000    0.000    0.000 
#    0.000    0.000    0.000    0.000    0.000    0.000 
#
# Total GULP energy -133829.108233 kJ/mol
# GULP energy per Si atom -5576.212843 kJ/mol
# Density = 2.511073 g / cm^3
# Si number density = 25.168015 Si / 1000 Ang^3
#
#
#
# Elastic Constant Matrix: (Units=GPa)
#
#
# Indices 1 2 3 4 5 6 
#
# 1 69.9287 62.1271 21.5625 0.0000 0.0000 0.0000
# 2 62.1271 171.6727 6.0989 0.0000 0.0000 0.0000
# 3 21.5625 6.0989 63.0765 0.0000 0.0000 0.0000
# 4 0.0000 0.0000 0.0000 -16.1202 0.0000 0.0000
# 5 0.0000 0.0000 0.0000 0.0000 -22.5440 0.0000
# 6 0.0000 0.0000 0.0000 0.0000 0.0000 34.1160
#
#
#
# Elastic Compliance Matrix: (Units=1/GPa)
#
#
# Indices 1 2 3 4 5 6 
#
# 1 0.024105 -0.008460 -0.007422 0.000000 0.000000 0.000000
# 2 -0.008460 0.008814 0.002040 0.000000 0.000000 0.000000
# 3 -0.007422 0.002040 0.018194 0.000000 0.000000 0.000000
# 4 0.000000 0.000000 0.000000 -0.062034 0.000000 0.000000
# 5 0.000000 0.000000 0.000000 0.000000 -0.044358 0.000000
# 6 0.000000 0.000000 0.000000 0.000000 0.000000 0.029312
#
#
# Mechanical properties :
#
#
# Convention : Reuss Voigt Hill
#
# Bulk Modulus (GPa) = 42.68341 53.80611 48.24476
# Shear Modulus (GPa) = 524.85373 13.41632 269.13503
#
# Velocity S-wave (km/s) = 14.45658 2.31134 10.35217
# Velocity P-wave (km/s) = 17.19457 5.34305 12.73188
#
# Compressibility (1/GPa) = 0.02342830
#
# Stress axis : x y z
#
# Youngs Moduli (GPa) = 41.48558 113.45501 54.96376
#
# Poissons Ratio (x) = 0.95979 0.40795
# Poissons Ratio (y) = 0.35095 -0.11211
# Poissons Ratio (z) = 0.30791 -0.23141
#
# Static dielectric constant tensor:
#      x y z
#    x 2.104960 0.000000 0.000000 
#    y 0.000000 1.953980 0.000000 
#    z 0.000000 0.000000 1.999200 
# 
# From -- ./inp_files/5806.got.cif
#   From: 2010.05.17/outbox.cif.g08.bks.cpg/sg56_3_cif.got.tgz:5806.got - 2010.06.03 13:42:01.
