data_PCOD9431174
_publ_section_title
;
Structure prediction by ZEFSAII (Michael W. Deem and Ramdas Pophale) SiO2 
 PCOD9431174
Probable space group: P C C N
;
_chemical_formula_sum "Si O2"
_cell_formula_units_Z 40
_cell_length_a 8.481443
_cell_length_b 15.351369
_cell_length_c 13.797605
_cell_angle_alpha 90.000000
_cell_angle_beta 90.000000
_cell_angle_gamma 90.000000
_cell_volume 1796.472471
_symmetry_space_group_name_H-M "P C C N"
_symmetry_group_IT_number 56
_symmetry_cell_setting 'orthorhombic'
loop_
_space_group_symop_operation_xyz
x,y,z
1/2-x,1/2-y,z
1/2+x,-y,1/2-z
-x,1/2+y,1/2-z
-x,-y,-z
1/2+x,1/2+y,-z
1/2-x,y,1/2+z
x,1/2-y,1/2+z
loop_
_atom_site_type_symbol
_atom_site_label
_atom_site_fract_x
_atom_site_fract_y
_atom_site_fract_z
Si Si1 0.076974 0.291203 0.534954
Si Si2 0.084244 0.882649 0.415705
Si Si3 0.849924 0.467378 0.881997
Si Si4 0.892051 0.396823 0.694949
Si Si5 0.494334 0.054865 0.400987
O O1 0.250000 0.250000 0.542788
O O2 0.964849 0.208177 0.537987
O O3 0.021428 0.349413 0.627598
O O4 0.053929 0.350199 0.438767
O O5 0.146795 0.939732 0.505690
O O6 0.220965 0.863561 0.338364
O O7 0.936754 0.939286 0.376129
O O8 0.931205 0.399191 0.808329
O O9 0.666681 0.457476 0.855270
O O10 0.880712 0.500036 0.667598
O O11 0.500000 0.000000 0.500000
#
# Coordination Sequence:
#
# PCOD9431174 Si02
#       5
#     8   8   8   8   8
#     4  11  24  43  67  94 138 177 224 283 335 393
#     4  11  23  42  67  99 132 177 221 280 338 395
#     4  11  23  41  70  94 135 174 226 270 345 407
#     4  11  23  43  67 101 129 179 228 274 338 404
#     4  10  20  42  67  91 129 178 215 273 337 401
#
# _framework density 22.265858000000001
#
# number of rings (size 3 to 8) (size 9 to 14) (size 15 to 20)
#    0.000    1.200    4.000    4.200    2.800    0.000 
#   10.800    1.000    0.000    0.000    0.000    0.000 
#    0.000    0.000    0.000    0.000    0.000    0.000 
#
# Total GULP energy -223050.744686 kJ/mol
# GULP energy per Si atom -5576.268617 kJ/mol
# Density = 2.221518 g / cm^3
# Si number density = 22.265858 Si / 1000 Ang^3
#
#
#
# Elastic Constant Matrix: (Units=GPa)
#
#
# Indices 1 2 3 4 5 6 
#
# 1 92.9032 42.9688 9.1078 0.0000 0.0000 0.0000
# 2 42.9688 102.8204 0.3819 0.0000 0.0000 0.0000
# 3 9.1078 0.3819 51.3530 0.0000 0.0000 0.0000
# 4 0.0000 0.0000 0.0000 25.0355 0.0000 0.0000
# 5 0.0000 0.0000 0.0000 0.0000 19.2892 0.0000
# 6 0.0000 0.0000 0.0000 0.0000 0.0000 31.0555
#
#
#
# Elastic Compliance Matrix: (Units=1/GPa)
#
#
# Indices 1 2 3 4 5 6 
#
# 1 0.013626 -0.005686 -0.002374 0.000000 0.000000 0.000000
# 2 -0.005686 0.012098 0.000918 0.000000 0.000000 0.000000
# 3 -0.002374 0.000918 0.019887 0.000000 0.000000 0.000000
# 4 0.000000 0.000000 0.000000 0.039943 0.000000 0.000000
# 5 0.000000 0.000000 0.000000 0.000000 0.051842 0.000000
# 6 0.000000 0.000000 0.000000 0.000000 0.000000 0.032200
#
#
# Mechanical properties :
#
#
# Convention : Reuss Voigt Hill
#
# Bulk Modulus (GPa) = 31.91965 39.11039 35.51502
# Shear Modulus (GPa) = 25.73018 28.05060 26.89039
#
# Velocity S-wave (km/s) = 3.40308 3.55322 3.47896
# Velocity P-wave (km/s) = 5.45968 5.86832 5.66768
#
# Compressibility (1/GPa) = 0.03132867
#
# Stress axis : x y z
#
# Youngs Moduli (GPa) = 73.38729 82.65608 50.28325
#
# Poissons Ratio (x) = 0.46995 0.11939
# Poissons Ratio (y) = 0.41725 -0.04618
# Poissons Ratio (z) = 0.17425 -0.07591
#
# Static dielectric constant tensor:
#      x y z
#    x 1.914310 0.000000 0.000000 
#    y 0.000000 1.840950 0.000000 
#    z 0.000000 0.000000 1.882570 
# 
# From -- ./inp_files/10390.got.cif
#   From: 2010.05.17/outbox.cif.g08.bks.cpg/sg56_6_cif.got.tgz:10390.got - 2010.06.03 13:42:01.
