data_PCOD9431078
_publ_section_title
;
Structure prediction by ZEFSAII (Michael W. Deem and Ramdas Pophale) SiO2 
 PCOD9431078
Probable space group: P C C N
;
_chemical_formula_sum "Si O2"
_cell_formula_units_Z 56
_cell_length_a 8.810777
_cell_length_b 15.105545
_cell_length_c 21.716227
_cell_angle_alpha 90.000000
_cell_angle_beta 90.000000
_cell_angle_gamma 90.000000
_cell_volume 2890.247147
_symmetry_space_group_name_H-M "P C C N"
_symmetry_group_IT_number 56
_symmetry_cell_setting 'orthorhombic'
loop_
_space_group_symop_operation_xyz
x,y,z
1/2-x,1/2-y,z
1/2+x,-y,1/2-z
-x,1/2+y,1/2-z
-x,-y,-z
1/2+x,1/2+y,-z
1/2-x,y,1/2+z
x,1/2-y,1/2+z
loop_
_atom_site_type_symbol
_atom_site_label
_atom_site_fract_x
_atom_site_fract_y
_atom_site_fract_z
Si Si1 0.870484 0.977651 0.816597
Si Si2 0.250000 0.750000 0.205147
Si Si3 0.720162 0.854657 0.909115
Si Si4 0.250000 0.750000 0.503609
Si Si5 0.791074 0.419238 0.711294
Si Si6 0.648998 0.550704 0.027572
Si Si7 0.628595 0.098276 0.081723
Si Si8 0.571497 0.353702 0.892423
O O1 0.797005 0.893195 0.847905
O O2 0.046509 0.958289 0.806161
O O3 0.796974 0.009695 0.753224
O O4 0.850900 0.057238 0.866122
O O5 0.197680 0.668879 0.247383
O O6 0.389116 0.716313 0.161674
O O7 0.750000 0.750000 0.908448
O O8 0.551879 0.897220 0.910346
O O9 0.796196 0.890029 0.971403
O O10 0.160930 0.816423 0.460022
O O11 0.146662 0.689754 0.547664
O O12 0.702406 0.396175 0.649117
O O13 0.782462 0.483892 0.049274
O O14 0.592006 0.611686 0.084649
O O15 0.500000 0.500000 0.000000
#
# Coordination Sequence:
#
# PCOD9431078 Si02
#       8
#     8   4   8   4   8   8   8   8
#     4  11  23  45  66  92 131 179 226 275 332 405
#     4   9  23  38  68 100 135 173 230 278 332 407
#     4  12  27  41  63 103 139 170 227 289 334 402
#     4  11  21  36  68  98 129 169 214 272 342 401
#     4  11  23  43  70  96 131 182 231 273 337 404
#     4  12  21  43  68  94 134 178 219 274 347 414
#     4  12  24  38  68  99 132 176 226 273 345 401
#     4  10  20  40  67  93 128 175 216 272 334 409
#
# _framework density 19.375506000000001
#
# number of rings (size 3 to 8) (size 9 to 14) (size 15 to 20)
#    0.000    0.857    4.286    2.571    4.000    0.000 
#    0.000    4.286    0.000    0.000    0.000    0.000 
#    0.000    0.000    0.000    0.000    0.000    0.000 
#
# Total GULP energy -312512.888509 kJ/mol
# GULP energy per Si atom -5580.587295 kJ/mol
# Density = 1.933141 g / cm^3
# Si number density = 19.375506 Si / 1000 Ang^3
#
#
#
# Elastic Constant Matrix: (Units=GPa)
#
#
# Indices 1 2 3 4 5 6 
#
# 1 117.8381 56.9814 43.8983 0.0000 0.0000 0.0000
# 2 56.9814 106.0220 64.4348 0.0000 0.0000 0.0000
# 3 43.8983 64.4348 127.9044 0.0000 0.0000 0.0000
# 4 0.0000 0.0000 0.0000 47.9396 0.0000 0.0000
# 5 0.0000 0.0000 0.0000 0.0000 54.4339 0.0000
# 6 0.0000 0.0000 0.0000 0.0000 0.0000 23.6437
#
#
#
# Elastic Compliance Matrix: (Units=1/GPa)
#
#
# Indices 1 2 3 4 5 6 
#
# 1 0.011595 -0.005496 -0.001211 0.000000 0.000000 0.000000
# 2 -0.005496 0.016199 -0.006274 0.000000 0.000000 0.000000
# 3 -0.001211 -0.006274 0.011395 0.000000 0.000000 0.000000
# 4 0.000000 0.000000 0.000000 0.020860 0.000000 0.000000
# 5 0.000000 0.000000 0.000000 0.000000 0.018371 0.000000
# 6 0.000000 0.000000 0.000000 0.000000 0.000000 0.042295
#
#
# Mechanical properties :
#
#
# Convention : Reuss Voigt Hill
#
# Bulk Modulus (GPa) = 75.60544 75.82152 75.71348
# Shear Modulus (GPa) = 33.09407 37.63341 35.36374
#
# Velocity S-wave (km/s) = 4.13732 4.41196 4.27684
# Velocity P-wave (km/s) = 7.86951 8.07288 7.97184
#
# Compressibility (1/GPa) = 0.01322656
#
# Stress axis : x y z
#
# Youngs Moduli (GPa) = 86.24556 61.73248 87.75930
#
# Poissons Ratio (x) = 0.33926 0.10627
# Poissons Ratio (y) = 0.47398 0.55064
# Poissons Ratio (z) = 0.10443 0.38733
#
# Static dielectric constant tensor:
#      x y z
#    x 1.698730 0.000000 0.000000 
#    y 0.000000 1.683710 0.000000 
#    z 0.000000 0.000000 1.680210 
# 
# From -- ./inp_files/18267.got.cif
#   From: 2010.05.17/outbox.cif.g08.bks.cpg/sg56_10_cif.got.tgz:18267.got - 2010.06.03 13:42:01.
