data_PCOD9431206
_publ_section_title
;
Structure prediction by ZEFSAII (Michael W. Deem and Ramdas Pophale) SiO2 
 PCOD9431206
Probable space group: P C C N
;
_chemical_formula_sum "Si O2"
_cell_formula_units_Z 44
_cell_length_a 9.069317
_cell_length_b 7.370565
_cell_length_c 29.136108
_cell_angle_alpha 90.000000
_cell_angle_beta 90.000000
_cell_angle_gamma 90.000000
_cell_volume 1947.631997
_symmetry_space_group_name_H-M "P C C N"
_symmetry_group_IT_number 56
_symmetry_cell_setting 'orthorhombic'
loop_
_space_group_symop_operation_xyz
x,y,z
1/2-x,1/2-y,z
1/2+x,-y,1/2-z
-x,1/2+y,1/2-z
-x,-y,-z
1/2+x,1/2+y,-z
1/2-x,y,1/2+z
x,1/2-y,1/2+z
loop_
_atom_site_type_symbol
_atom_site_label
_atom_site_fract_x
_atom_site_fract_y
_atom_site_fract_z
Si Si1 0.237649 0.964502 0.583196
Si Si2 0.596538 0.038807 0.111631
Si Si3 0.022641 0.372770 0.650389
Si Si4 0.750000 0.750000 0.780702
Si Si5 0.237919 0.968779 0.798404
Si Si6 0.825030 0.454352 0.013446
O O1 0.250000 0.750000 0.580661
O O2 0.256005 0.037021 0.531100
O O3 0.358010 0.040659 0.617484
O O4 0.074443 0.999497 0.601847
O O5 0.589038 0.256875 0.119287
O O6 0.655860 0.969302 0.160118
O O7 0.683518 0.979787 0.065994
O O8 0.108875 0.245215 0.686271
O O9 0.925175 0.504377 0.681386
O O10 0.737785 0.576732 0.747933
O O11 0.250000 0.750000 0.791529
O O12 0.750000 0.250000 0.015598
O O13 0.000000 0.500000 0.000000
#
# Coordination Sequence:
#
# PCOD9431206 Si02
#       6
#     8   8   8   4   8   8
#     4  10  21  37  65  98 130 167 214 271 329 401
#     4  10  20  44  65  90 133 174 214 273 335 402
#     4  11  23  42  63  92 125 173 216 272 336 400
#     4  12  26  42  66  94 128 168 232 270 344 400
#     4  10  26  43  66  93 128 173 221 279 334 394
#     4   9  18  35  63  93 128 174 215 267 338 410
#
# _framework density 22.591536999999999
#
# number of rings (size 3 to 8) (size 9 to 14) (size 15 to 20)
#    0.000    1.818    1.818    1.636    7.636    0.727 
#    0.000    8.182    4.000    0.000    0.000    0.000 
#    0.000    0.000    0.000    0.000    0.000    0.000 
#
# Total GULP energy -245228.388398 kJ/mol
# GULP energy per Si atom -5573.372464 kJ/mol
# Density = 2.254012 g / cm^3
# Si number density = 22.591537 Si / 1000 Ang^3
#
#
#
# Elastic Constant Matrix: (Units=GPa)
#
#
# Indices 1 2 3 4 5 6 
#
# 1 91.4918 15.1267 51.2657 0.0000 0.0000 0.0000
# 2 15.1267 76.9261 48.2362 0.0000 0.0000 0.0000
# 3 51.2657 48.2362 188.3661 0.0000 0.0000 0.0000
# 4 0.0000 0.0000 0.0000 35.8044 0.0000 0.0000
# 5 0.0000 0.0000 0.0000 0.0000 95.7049 0.0000
# 6 0.0000 0.0000 0.0000 0.0000 0.0000 6.6543
#
#
#
# Elastic Compliance Matrix: (Units=1/GPa)
#
#
# Indices 1 2 3 4 5 6 
#
# 1 0.012907 -0.000400 -0.003410 0.000000 0.000000 0.000000
# 2 -0.000400 0.015499 -0.003860 0.000000 0.000000 0.000000
# 3 -0.003410 -0.003860 0.007225 0.000000 0.000000 0.000000
# 4 0.000000 0.000000 0.000000 0.027930 0.000000 0.000000
# 5 0.000000 0.000000 0.000000 0.000000 0.010449 0.000000
# 6 0.000000 0.000000 0.000000 0.000000 0.000000 0.150279
#
#
# Mechanical properties :
#
#
# Convention : Reuss Voigt Hill
#
# Bulk Modulus (GPa) = 49.28325 65.11570 57.19947
# Shear Modulus (GPa) = 20.29288 43.77642 32.03465
#
# Velocity S-wave (km/s) = 3.00034 4.40675 3.76971
# Velocity P-wave (km/s) = 5.81936 7.40123 6.65744
#
# Compressibility (1/GPa) = 0.02029087
#
# Stress axis : x y z
#
# Youngs Moduli (GPa) = 77.47745 64.52234 138.39909
#
# Poissons Ratio (x) = 0.02578 0.47200
# Poissons Ratio (y) = 0.03095 0.53423
# Poissons Ratio (z) = 0.26423 0.24906
#
# Static dielectric constant tensor:
#      x y z
#    x 1.788280 0.000000 0.000000 
#    y 0.000000 1.822410 0.000000 
#    z 0.000000 0.000000 1.818430 
# 
# From -- ./inp_files/23162.got.cif
#   From: 2010.05.17/outbox.cif.g08.bks.cpg/sg56_12_cif.got.tgz:23162.got - 2010.06.03 13:42:01.
