data_PCOD9431423
_publ_section_title
;
Structure prediction by ZEFSAII (Michael W. Deem and Ramdas Pophale) SiO2 
 PCOD9431423
Probable space group: P C C N
;
_chemical_formula_sum "Si O2"
_cell_formula_units_Z 48
_cell_length_a 4.875198
_cell_length_b 26.669109
_cell_length_c 16.114977
_cell_angle_alpha 90.000000
_cell_angle_beta 90.000000
_cell_angle_gamma 90.000000
_cell_volume 2095.223976
_symmetry_space_group_name_H-M "P C C N"
_symmetry_group_IT_number 56
_symmetry_cell_setting 'orthorhombic'
loop_
_space_group_symop_operation_xyz
x,y,z
1/2-x,1/2-y,z
1/2+x,-y,1/2-z
-x,1/2+y,1/2-z
-x,-y,-z
1/2+x,1/2+y,-z
1/2-x,y,1/2+z
x,1/2-y,1/2+z
loop_
_atom_site_type_symbol
_atom_site_label
_atom_site_fract_x
_atom_site_fract_y
_atom_site_fract_z
Si Si1 0.648707 0.694954 0.067544
Si Si2 0.839519 0.364743 0.878120
Si Si3 0.711371 0.527111 0.226175
Si Si4 0.939714 0.946041 0.041834
Si Si5 0.867680 0.385622 0.195768
Si Si6 0.342416 0.365566 0.088930
O O1 0.750000 0.750000 0.086881
O O2 0.343535 0.682695 0.095571
O O3 0.850108 0.652923 0.108037
O O4 0.646077 0.682272 0.970375
O O5 0.704532 0.411822 0.929385
O O6 0.772933 0.372653 0.782293
O O7 0.513628 0.479050 0.237640
O O8 0.710043 0.543106 0.130139
O O9 0.541906 0.564506 0.284632
O O10 0.779642 0.912642 0.973320
O O11 0.000000 0.000000 0.000000
O O12 0.630199 0.381872 0.128125
O O13 0.116628 0.353576 0.157897
#
# Coordination Sequence:
#
# PCOD9431423 Si02
#       6
#     8   8   8   8   8   8
#     4  11  23  44  67  91 121 162 209 261 319 381
#     4  10  23  41  65  92 124 166 208 254 313 381
#     4  11  23  37  57  85 122 170 217 256 303 367
#     4  10  21  38  61  91 126 167 210 253 310 374
#     4  11  22  40  60  89 128 161 202 260 313 368
#     4  11  23  40  64  92 126 162 206 260 314 371
#
# _framework density 22.909243
#
# number of rings (size 3 to 8) (size 9 to 14) (size 15 to 20)
#    0.000    1.333    0.000    6.500    0.000    8.000 
#    0.000   15.000    0.000    0.000    0.000    0.000 
#    0.000    0.000    0.000    0.000    0.000    0.000 
#
# Total GULP energy -268129.239578 kJ/mol
# GULP energy per Si atom -5586.025825 kJ/mol
# Density = 2.285710 g / cm^3
# Si number density = 22.909243 Si / 1000 Ang^3
#
#
#
# Elastic Constant Matrix: (Units=GPa)
#
#
# Indices 1 2 3 4 5 6 
#
# 1 71.4540 -12.6212 19.8822 0.0000 0.0000 0.0000
# 2 -12.6212 70.6688 0.3789 0.0000 0.0000 0.0000
# 3 19.8822 0.3789 72.3922 0.0000 0.0000 0.0000
# 4 0.0000 0.0000 0.0000 2.2194 0.0000 0.0000
# 5 0.0000 0.0000 0.0000 0.0000 33.7115 0.0000
# 6 0.0000 0.0000 0.0000 0.0000 0.0000 19.2475
#
#
#
# Elastic Compliance Matrix: (Units=1/GPa)
#
#
# Indices 1 2 3 4 5 6 
#
# 1 0.015698 0.002827 -0.004326 0.000000 0.000000 0.000000
# 2 0.002827 0.014660 -0.000853 0.000000 0.000000 0.000000
# 3 -0.004326 -0.000853 0.015006 0.000000 0.000000 0.000000
# 4 0.000000 0.000000 0.000000 0.450567 0.000000 0.000000
# 5 0.000000 0.000000 0.000000 0.000000 0.029663 0.000000
# 6 0.000000 0.000000 0.000000 0.000000 0.000000 0.051955
#
#
# Mechanical properties :
#
#
# Convention : Reuss Voigt Hill
#
# Bulk Modulus (GPa) = 24.59458 25.53274 25.06366
# Shear Modulus (GPa) = 8.39196 24.82736 16.60966
#
# Velocity S-wave (km/s) = 1.91601 3.29557 2.69554
# Velocity P-wave (km/s) = 3.95648 5.06463 4.54446
#
# Compressibility (1/GPa) = 0.04065937
#
# Stress axis : x y z
#
# Youngs Moduli (GPa) = 63.70190 68.21309 66.63871
#
# Poissons Ratio (x) = -0.19283 0.28829
# Poissons Ratio (y) = -0.18007 0.05685
# Poissons Ratio (z) = 0.27559 0.05819
#
# Static dielectric constant tensor:
#      x y z
#    x 1.884680 0.000000 0.000000 
#    y 0.000000 1.957940 0.000000 
#    z 0.000000 0.000000 1.858600 
# 
# From -- ./inp_files/9695.got.cif
#   From: 2010.05.17/outbox.cif.g08.bks.cpg/sg56_5_cif.got.tgz:9695.got - 2010.06.03 13:42:01.
