data_PCOD9431130
_publ_section_title
;
Structure prediction by ZEFSAII (Michael W. Deem and Ramdas Pophale) SiO2 
 PCOD9431130
Probable space group: P C C N
;
_chemical_formula_sum "Si O2"
_cell_formula_units_Z 56
_cell_length_a 11.008840
_cell_length_b 15.061712
_cell_length_c 15.016174
_cell_angle_alpha 90.000000
_cell_angle_beta 90.000000
_cell_angle_gamma 90.000000
_cell_volume 2489.861506
_symmetry_space_group_name_H-M "P C C N"
_symmetry_group_IT_number 56
_symmetry_cell_setting 'orthorhombic'
loop_
_space_group_symop_operation_xyz
x,y,z
1/2-x,1/2-y,z
1/2+x,-y,1/2-z
-x,1/2+y,1/2-z
-x,-y,-z
1/2+x,1/2+y,-z
1/2-x,y,1/2+z
x,1/2-y,1/2+z
loop_
_atom_site_type_symbol
_atom_site_label
_atom_site_fract_x
_atom_site_fract_y
_atom_site_fract_z
Si Si1 0.250000 0.750000 0.464135
Si Si2 0.615447 0.564747 0.704230
Si Si3 0.063159 0.870090 0.351424
Si Si4 0.985286 0.474604 0.636184
Si Si5 0.366855 0.349823 0.795472
Si Si6 0.873520 0.581288 0.001742
Si Si7 0.250000 0.250000 0.447246
Si Si8 0.178394 0.568921 0.525755
O O1 0.152313 0.799209 0.398529
O O2 0.209940 0.671334 0.530521
O O3 0.629410 0.456165 0.694374
O O4 0.510151 0.580199 0.775486
O O5 0.730716 0.623442 0.736115
O O6 0.583316 0.590645 0.603604
O O7 0.967765 0.830573 0.278836
O O8 0.976893 0.910450 0.428820
O O9 0.903237 0.557476 0.660443
O O10 0.918979 0.429007 0.554943
O O11 0.111787 0.517537 0.604653
O O12 0.353485 0.282547 0.877736
O O13 0.786068 0.666709 0.993268
O O14 0.794335 0.492168 0.995153
#
# Coordination Sequence:
#
# PCOD9431130 Si02
#       8
#     4   8   8   8   8   8   4   8
#     4  12  26  40  60 100 136 166 224 272 336 414
#     4  10  20  41  65  96 126 169 226 276 333 404
#     4  11  24  40  67  94 136 176 219 276 345 405
#     4  10  21  39  67  89 125 172 217 275 338 391
#     4  10  21  41  62  93 127 168 223 278 328 400
#     4  11  22  41  66  95 131 176 225 279 336 406
#     4  10  22  38  64  94 132 164 234 282 318 406
#     4  11  23  42  64  93 130 175 223 275 334 410
#
# _framework density 22.491209000000001
#
# number of rings (size 3 to 8) (size 9 to 14) (size 15 to 20)
#    0.000    1.429    4.286    1.286    2.000    2.857 
#    0.000    2.857    0.000    0.000    0.000    0.000 
#    0.000    0.000    0.000    0.000    0.000    0.000 
#
# Total GULP energy -312421.621680 kJ/mol
# GULP energy per Si atom -5578.957530 kJ/mol
# Density = 2.244002 g / cm^3
# Si number density = 22.491209 Si / 1000 Ang^3
#
#
#
# Elastic Constant Matrix: (Units=GPa)
#
#
# Indices 1 2 3 4 5 6 
#
# 1 58.4042 31.7455 4.5457 0.0000 0.0000 0.0000
# 2 31.7455 105.8381 -7.7790 0.0000 0.0000 0.0000
# 3 4.5457 -7.7790 29.5700 0.0000 0.0000 0.0000
# 4 0.0000 0.0000 0.0000 10.0883 0.0000 0.0000
# 5 0.0000 0.0000 0.0000 0.0000 4.9334 0.0000
# 6 0.0000 0.0000 0.0000 0.0000 0.0000 26.0491
#
#
#
# Elastic Compliance Matrix: (Units=1/GPa)
#
#
# Indices 1 2 3 4 5 6 
#
# 1 0.021164 -0.006717 -0.005020 0.000000 0.000000 0.000000
# 2 -0.006717 0.011767 0.004128 0.000000 0.000000 0.000000
# 3 -0.005020 0.004128 0.035676 0.000000 0.000000 0.000000
# 4 0.000000 0.000000 0.000000 0.099125 0.000000 0.000000
# 5 0.000000 0.000000 0.000000 0.000000 0.202701 0.000000
# 6 0.000000 0.000000 0.000000 0.000000 0.000000 0.038389
#
#
# Mechanical properties :
#
#
# Convention : Reuss Voigt Hill
#
# Bulk Modulus (GPa) = 18.73104 27.87071 23.30088
# Shear Modulus (GPa) = 11.31642 19.23416 15.27529
#
# Velocity S-wave (km/s) = 2.24553 2.92753 2.60891
# Velocity P-wave (km/s) = 3.88194 4.88323 4.41109
#
# Compressibility (1/GPa) = 0.05338732
#
# Stress axis : x y z
#
# Youngs Moduli (GPa) = 47.25048 84.98696 28.03018
#
# Poissons Ratio (x) = 0.57085 0.14072
# Poissons Ratio (y) = 0.31738 -0.11571
# Poissons Ratio (z) = 0.23722 -0.35083
#
# Static dielectric constant tensor:
#      x y z
#    x 1.968700 0.000000 0.000000 
#    y 0.000000 1.890640 0.000000 
#    z 0.000000 0.000000 1.842690 
# 
# From -- ./inp_files/11728.got.cif
#   From: 2010.05.17/outbox.cif.g08.bks.cpg/sg56_6_cif.got.tgz:11728.got - 2010.06.03 13:42:01.
