data_PCOD9431103
_publ_section_title
;
Structure prediction by ZEFSAII (Michael W. Deem and Ramdas Pophale) SiO2 
 PCOD9431103
Probable space group: P C C N
;
_chemical_formula_sum "Si O2"
_cell_formula_units_Z 48
_cell_length_a 16.917732
_cell_length_b 9.043625
_cell_length_c 12.708124
_cell_angle_alpha 90.000000
_cell_angle_beta 90.000000
_cell_angle_gamma 90.000000
_cell_volume 1944.312778
_symmetry_space_group_name_H-M "P C C N"
_symmetry_group_IT_number 56
_symmetry_cell_setting 'orthorhombic'
loop_
_space_group_symop_operation_xyz
x,y,z
1/2-x,1/2-y,z
1/2+x,-y,1/2-z
-x,1/2+y,1/2-z
-x,-y,-z
1/2+x,1/2+y,-z
1/2-x,y,1/2+z
x,1/2-y,1/2+z
loop_
_atom_site_type_symbol
_atom_site_label
_atom_site_fract_x
_atom_site_fract_y
_atom_site_fract_z
Si Si1 0.932639 0.327982 0.981586
Si Si2 0.479164 0.764058 0.306937
Si Si3 0.285126 0.398155 0.243509
Si Si4 0.093466 0.020811 0.067854
Si Si5 0.677499 0.135641 0.812313
Si Si6 0.910939 0.750339 0.620068
O O1 0.859625 0.409736 0.925683
O O2 0.916555 0.150609 0.961602
O O3 0.019256 0.348266 0.931571
O O4 0.945570 0.344028 0.104784
O O5 0.521098 0.900760 0.368364
O O6 0.401673 0.805590 0.242275
O O7 0.546198 0.699795 0.229267
O O8 0.250000 0.250000 0.195075
O O9 0.212840 0.507545 0.260670
O O10 0.336065 0.345209 0.342801
O O11 0.338010 0.470041 0.153469
O O12 0.106856 0.123051 0.965092
O O13 0.750000 0.250000 0.824219
#
# Coordination Sequence:
#
# PCOD9431103 Si02
#       6
#     8   8   8   8   8   8
#     4  10  20  40  71  97 131 182 242 292 338 413
#     4   9  20  37  67 100 131 177 232 295 347 408
#     4  11  25  41  64  99 146 183 228 289 359 429
#     4  10  20  41  68  98 132 181 238 292 348 408
#     4  11  23  43  64 100 141 183 235 285 352 424
#     4   9  20  39  66  99 130 179 232 287 351 410
#
# _framework density 24.687386
#
# number of rings (size 3 to 8) (size 9 to 14) (size 15 to 20)
#    0.000    2.000    1.667    2.000    4.667    1.333 
#    0.000    0.000    0.000    6.000    0.000    0.000 
#    0.000    0.000    0.000    0.000    0.000    0.000 
#
# Total GULP energy -268351.643911 kJ/mol
# GULP energy per Si atom -5590.659248 kJ/mol
# Density = 2.463120 g / cm^3
# Si number density = 24.687386 Si / 1000 Ang^3
#
#
#
# Elastic Constant Matrix: (Units=GPa)
#
#
# Indices 1 2 3 4 5 6 
#
# 1 122.9200 25.1727 32.6997 0.0000 0.0000 0.0000
# 2 25.1727 70.0794 5.2582 0.0000 0.0000 0.0000
# 3 32.6997 5.2582 110.8084 0.0000 0.0000 0.0000
# 4 0.0000 0.0000 0.0000 22.2949 0.0000 0.0000
# 5 0.0000 0.0000 0.0000 0.0000 -41.7266 0.0000
# 6 0.0000 0.0000 0.0000 0.0000 0.0000 36.9499
#
#
#
# Elastic Compliance Matrix: (Units=1/GPa)
#
#
# Indices 1 2 3 4 5 6 
#
# 1 0.009498 -0.003213 -0.002651 0.000000 0.000000 0.000000
# 2 -0.003213 0.015407 0.000217 0.000000 0.000000 0.000000
# 3 -0.002651 0.000217 0.009796 0.000000 0.000000 0.000000
# 4 0.000000 0.000000 0.000000 0.044853 0.000000 0.000000
# 5 0.000000 0.000000 0.000000 0.000000 -0.023966 0.000000
# 6 0.000000 0.000000 0.000000 0.000000 0.000000 0.027064
#
#
# Mechanical properties :
#
#
# Convention : Reuss Voigt Hill
#
# Bulk Modulus (GPa) = 42.71811 47.78544 45.25177
# Shear Modulus (GPa) = 49.14012 19.54880 34.34446
#
# Velocity S-wave (km/s) = 4.46634 2.81704 3.73389
# Velocity P-wave (km/s) = 6.62863 5.47533 6.07939
#
# Compressibility (1/GPa) = 0.02340928
#
# Stress axis : x y z
#
# Youngs Moduli (GPa) = 105.28010 64.90406 102.07760
#
# Poissons Ratio (x) = 0.20854 0.27056
# Poissons Ratio (y) = 0.33826 -0.02215
# Poissons Ratio (z) = 0.27905 -0.01409
#
# Static dielectric constant tensor:
#      x y z
#    x 1.970930 0.000000 0.000000 
#    y 0.000000 2.032180 0.000000 
#    z 0.000000 0.000000 2.042050 
# 
# From -- ./inp_files/12228.got.cif
#   From: 2010.05.17/outbox.cif.g08.bks.cpg/sg56_7_cif.got.tgz:12228.got - 2010.06.03 13:42:01.
