data_PCOD9431243
_publ_section_title
;
Structure prediction by ZEFSAII (Michael W. Deem and Ramdas Pophale) SiO2 
 PCOD9431243
Probable space group: P C C N
;
_chemical_formula_sum "Si O2"
_cell_formula_units_Z 48
_cell_length_a 16.282718
_cell_length_b 5.524878
_cell_length_c 23.709054
_cell_angle_alpha 90.000000
_cell_angle_beta 90.000000
_cell_angle_gamma 90.000000
_cell_volume 2132.867220
_symmetry_space_group_name_H-M "P C C N"
_symmetry_group_IT_number 56
_symmetry_cell_setting 'orthorhombic'
loop_
_space_group_symop_operation_xyz
x,y,z
1/2-x,1/2-y,z
1/2+x,-y,1/2-z
-x,1/2+y,1/2-z
-x,-y,-z
1/2+x,1/2+y,-z
1/2-x,y,1/2+z
x,1/2-y,1/2+z
loop_
_atom_site_type_symbol
_atom_site_label
_atom_site_fract_x
_atom_site_fract_y
_atom_site_fract_z
Si Si1 0.068342 0.500000 0.949664
Si Si2 0.661008 0.000000 0.838133
Si Si3 0.601667 0.500002 0.228233
Si Si4 0.098894 1.000000 0.989711
Si Si5 0.951811 0.499998 0.180040
Si Si6 0.655939 0.500000 0.883509
O O1 0.032110 0.500000 0.886948
O O2 0.117468 0.749331 0.958440
O O3 0.000000 0.500000 0.000000
O O4 0.117468 0.250669 0.958440
O O5 0.677506 1.000000 0.771504
O O6 0.621065 0.255292 0.856027
O O7 0.621066 0.744708 0.856027
O O8 0.747544 0.000000 0.870545
O O9 0.594646 0.748082 0.193980
O O10 0.527791 0.500002 0.275450
O O11 0.594645 0.251922 0.193980
O O12 0.139563 0.000000 0.050710
O O13 0.000000 0.000000 0.000000
#
# Coordination Sequence:
#
# PCOD9431243 Si02
#       6
#     8   8   8   8   8   8
#     4  10  21  35  53  85 118 168 187 235 302 370
#     4  10  21  36  59  83 116 158 196 262 298 343
#     4  10  21  35  57  82 118 160 186 257 300 358
#     4  10  21  32  53  86 119 162 190 247 314 350
#     4  10  21  36  53  86 123 151 199 232 310 371
#     4  10  21  36  55  90 118 151 208 259 292 362
#
# _framework density 22.504916999999999
#
# number of rings (size 3 to 8) (size 9 to 14) (size 15 to 20)
#    0.000    2.000    0.000    3.000    9.333    0.000 
#    0.000    0.000    0.000    0.000    0.000   93.333 
#    0.000    0.000    0.000    0.000    0.000    0.000 
#
# Total GULP energy -267858.389271 kJ/mol
# GULP energy per Si atom -5580.383110 kJ/mol
# Density = 2.245369 g / cm^3
# Si number density = 22.504917 Si / 1000 Ang^3
#
#
#
# Elastic Constant Matrix: (Units=GPa)
#
#
# Indices 1 2 3 4 5 6 
#
# 1 28.8580 11.9368 26.4304 0.0000 0.0000 0.0000
# 2 11.9368 281.7766 73.1846 0.0000 0.0000 0.0000
# 3 26.4304 73.1846 164.8972 0.0000 0.0000 0.0000
# 4 0.0000 0.0000 0.0000 46.8629 0.0000 0.0000
# 5 0.0000 0.0000 0.0000 0.0000 89.0598 0.0000
# 6 0.0000 0.0000 0.0000 0.0000 0.0000 8.7322
#
#
#
# Elastic Compliance Matrix: (Units=1/GPa)
#
#
# Indices 1 2 3 4 5 6 
#
# 1 0.040615 -0.000034 -0.006495 0.000000 0.000000 0.000000
# 2 -0.000034 0.004011 -0.001775 0.000000 0.000000 0.000000
# 3 -0.006495 -0.001775 0.007893 0.000000 0.000000 0.000000
# 4 0.000000 0.000000 0.000000 0.021339 0.000000 0.000000
# 5 0.000000 0.000000 0.000000 0.000000 0.011228 0.000000
# 6 0.000000 0.000000 0.000000 0.000000 0.000000 0.114518
#
#
# Mechanical properties :
#
#
# Convention : Reuss Voigt Hill
#
# Bulk Modulus (GPa) = 27.84557 77.62616 52.73586
# Shear Modulus (GPa) = 21.91226 53.19632 37.55429
#
# Velocity S-wave (km/s) = 3.12375 4.86713 4.08942
# Velocity P-wave (km/s) = 5.04087 8.13346 6.76622
#
# Compressibility (1/GPa) = 0.03591236
#
# Stress axis : x y z
#
# Youngs Moduli (GPa) = 24.62147 249.29408 126.69180
#
# Poissons Ratio (x) = 0.00839 0.82286
# Poissons Ratio (y) = 0.00083 0.22487
# Poissons Ratio (z) = 0.15992 0.44248
#
# Static dielectric constant tensor:
#      x y z
#    x 1.961610 0.000000 0.000000 
#    y 0.000000 0.719530 0.000000 
#    z 0.000000 0.000000 1.832870 
# 
# From -- ./inp_files/19430.got.cif
#   From: 2010.05.17/outbox.cif.g08.bks.cpg/sg56_10_cif.got.tgz:19430.got - 2010.06.03 13:42:01.
