data_PCOD9431945
_publ_section_title
;
Structure prediction by ZEFSAII (Michael W. Deem and Ramdas Pophale) SiO2 
 PCOD9431945
Probable space group: P C C N
;
_chemical_formula_sum "Si O2"
_cell_formula_units_Z 60
_cell_length_a 5.437751
_cell_length_b 16.177916
_cell_length_c 31.151366
_cell_angle_alpha 90.000000
_cell_angle_beta 90.000000
_cell_angle_gamma 90.000000
_cell_volume 2740.431737
_symmetry_space_group_name_H-M "P C C N"
_symmetry_group_IT_number 56
_symmetry_cell_setting 'orthorhombic'
loop_
_space_group_symop_operation_xyz
x,y,z
1/2-x,1/2-y,z
1/2+x,-y,1/2-z
-x,1/2+y,1/2-z
-x,-y,-z
1/2+x,1/2+y,-z
1/2-x,y,1/2+z
x,1/2-y,1/2+z
loop_
_atom_site_type_symbol
_atom_site_label
_atom_site_fract_x
_atom_site_fract_y
_atom_site_fract_z
Si Si1 0.979087 0.398427 0.900663
Si Si2 0.745234 0.450442 0.640780
Si Si3 0.750000 0.250000 0.848196
Si Si4 0.003633 0.700186 0.825449
Si Si5 0.587778 0.534256 0.932170
Si Si6 0.437748 0.177285 0.275318
Si Si7 0.195965 0.430433 0.986435
Si Si8 0.412847 0.003165 0.271837
O O1 0.905652 0.313725 0.877316
O O2 0.765915 0.467289 0.909424
O O3 0.164415 0.456748 0.873109
O O4 0.077916 0.376301 0.948608
O O5 0.521746 0.387871 0.650274
O O6 0.897193 0.451321 0.685128
O O7 0.919270 0.421169 0.602542
O O8 0.620074 0.311829 0.814657
O O9 0.250000 0.750000 0.837937
O O10 0.750000 0.750000 0.832406
O O11 0.025936 0.684118 0.773973
O O12 0.411873 0.476569 0.960951
O O13 0.711793 0.596464 0.966560
O O14 0.250000 0.250000 0.280961
O O15 0.294246 0.092518 0.280137
O O16 0.000000 0.500000 0.000000
O O17 0.696723 0.025976 0.260668
#
# Coordination Sequence:
#
# PCOD9431945 Si02
#       8
#     8   8   4   8   8   8   8   8
#     4  10  22  37  63 103 135 180 224 285 351 425
#     4  11  24  39  65  96 131 174 242 287 344 420
#     4  12  24  40  62  98 146 180 230 284 350 432
#     4  11  26  43  64  92 130 185 236 298 359 404
#     4   9  18  35  67  99 125 168 220 276 337 420
#     4  11  25  41  62  84 136 188 235 280 356 413
#     4   8  16  36  61  99 126 164 217 262 343 422
#     4  12  28  42  66  96 137 183 236 295 340 408
#
# _framework density 21.894359000000001
#
# number of rings (size 3 to 8) (size 9 to 14) (size 15 to 20)
#    0.000    1.600    2.000    1.600   11.200    1.067 
#    0.000    0.000    0.000    0.000   79.733    0.000 
#    0.000    0.000    0.000    0.000    0.000    0.000 
#
# Total GULP energy -334128.607581 kJ/mol
# GULP energy per Si atom -5568.810126 kJ/mol
# Density = 2.184453 g / cm^3
# Si number density = 21.894359 Si / 1000 Ang^3
#
#
#
# Elastic Constant Matrix: (Units=GPa)
#
#
# Indices 1 2 3 4 5 6 
#
# 1 57.4204 -2.6062 41.1522 0.0000 0.0000 0.0000
# 2 -2.6062 62.6596 26.1676 0.0000 0.0000 0.0000
# 3 41.1522 26.1676 143.0804 0.0000 0.0000 0.0000
# 4 0.0000 0.0000 0.0000 54.2789 0.0000 0.0000
# 5 0.0000 0.0000 0.0000 0.0000 39.7963 0.0000
# 6 0.0000 0.0000 0.0000 0.0000 0.0000 28.7336
#
#
#
# Elastic Compliance Matrix: (Units=1/GPa)
#
#
# Indices 1 2 3 4 5 6 
#
# 1 0.022826 0.003996 -0.007296 0.000000 0.000000 0.000000
# 2 0.003996 0.017979 -0.004437 0.000000 0.000000 0.000000
# 3 -0.007296 -0.004437 0.009899 0.000000 0.000000 0.000000
# 4 0.000000 0.000000 0.000000 0.018423 0.000000 0.000000
# 5 0.000000 0.000000 0.000000 0.000000 0.025128 0.000000
# 6 0.000000 0.000000 0.000000 0.000000 0.000000 0.034802
#
#
# Mechanical properties :
#
#
# Convention : Reuss Voigt Hill
#
# Bulk Modulus (GPa) = 28.38560 43.62083 36.00322
# Shear Modulus (GPa) = 31.99504 37.79154 34.89329
#
# Velocity S-wave (km/s) = 3.82689 4.15913 3.99646
# Velocity P-wave (km/s) = 5.70261 6.55980 6.14617
#
# Compressibility (1/GPa) = 0.03522913
#
# Stress axis : x y z
#
# Youngs Moduli (GPa) = 43.81044 55.62170 101.01996
#
# Poissons Ratio (x) = -0.22228 0.73703
# Poissons Ratio (y) = -0.17508 0.44827
# Poissons Ratio (z) = 0.31964 0.24682
#
# Static dielectric constant tensor:
#      x y z
#    x 1.824330 0.000000 0.000000 
#    y 0.000000 1.736850 0.000000 
#    z 0.000000 0.000000 1.885310 
# 
# From -- ./inp_files/22959.got.cif
#   From: 2010.05.17/outbox.cif.g08.bks.cpg/sg56_12_cif.got.tgz:22959.got - 2010.06.03 13:42:01.
