data_PCOD9431138
_publ_section_title
;
Structure prediction by ZEFSAII (Michael W. Deem and Ramdas Pophale) SiO2 
 PCOD9431138
Probable space group: P C C N
;
_chemical_formula_sum "Si O2"
_cell_formula_units_Z 60
_cell_length_a 11.406460
_cell_length_b 14.362047
_cell_length_c 15.764238
_cell_angle_alpha 90.000000
_cell_angle_beta 90.000000
_cell_angle_gamma 90.000000
_cell_volume 2582.499276
_symmetry_space_group_name_H-M "P C C N"
_symmetry_group_IT_number 56
_symmetry_cell_setting 'orthorhombic'
loop_
_space_group_symop_operation_xyz
x,y,z
1/2-x,1/2-y,z
1/2+x,-y,1/2-z
-x,1/2+y,1/2-z
-x,-y,-z
1/2+x,1/2+y,-z
1/2-x,y,1/2+z
x,1/2-y,1/2+z
loop_
_atom_site_type_symbol
_atom_site_label
_atom_site_fract_x
_atom_site_fract_y
_atom_site_fract_z
Si Si1 0.358787 0.965288 0.727368
Si Si2 0.750000 0.750000 0.159290
Si Si3 0.990287 0.801205 0.249565
Si Si4 0.394615 0.935045 0.024691
Si Si5 0.522248 0.058286 0.619108
Si Si6 0.371264 0.867983 0.204419
Si Si7 0.108674 0.747883 0.425144
Si Si8 0.256237 0.449824 0.898554
O O1 0.478548 0.909341 0.742541
O O2 0.266731 0.881783 0.713904
O O3 0.390194 0.029172 0.645632
O O4 0.306414 0.017684 0.809556
O O5 0.640165 0.723903 0.219701
O O6 0.770742 0.659440 0.100887
O O7 0.071997 0.732702 0.193147
O O8 0.029712 0.779502 0.345547
O O9 0.403484 0.827986 0.994907
O O10 0.291457 0.984507 0.972892
O O11 0.394778 0.933010 0.125182
O O12 0.500000 0.000000 0.000000
O O13 0.571534 0.095966 0.709222
O O14 0.557602 0.144265 0.557180
O O15 0.605136 0.971336 0.597365
O O16 0.250000 0.750000 0.403564
#
# Coordination Sequence:
#
# PCOD9431138 Si02
#       8
#     8   4   8   8   8   8   8   8
#     4  11  20  40  68  96 131 168 232 286 325 396
#     4  12  24  38  68 102 140 172 230 288 336 416
#     4  11  21  40  66 101 132 177 227 283 336 396
#     4  12  24  42  66  98 137 179 221 272 346 420
#     4  10  20  41  66  97 129 172 223 282 338 393
#     4  10  24  40  66 101 129 169 234 277 331 406
#     4  11  21  40  69  97 134 179 223 277 342 404
#     4  11  22  41  65  94 134 182 219 274 354 402
#
# _framework density 23.233307
#
# number of rings (size 3 to 8) (size 9 to 14) (size 15 to 20)
#    0.000    1.067    4.000    5.200    0.000    1.067 
#    0.000    3.333    0.000    1.600    0.000    0.000 
#    0.000    0.000    0.000    0.000    0.000    0.000 
#
# Total GULP energy -334652.150027 kJ/mol
# GULP energy per Si atom -5577.535834 kJ/mol
# Density = 2.318043 g / cm^3
# Si number density = 23.233307 Si / 1000 Ang^3
#
#
#
# Elastic Constant Matrix: (Units=GPa)
#
#
# Indices 1 2 3 4 5 6 
#
# 1 66.5876 33.1808 9.0892 0.0000 0.0000 0.0000
# 2 33.1808 115.5151 -1.4780 0.0000 0.0000 0.0000
# 3 9.0892 -1.4780 30.9245 0.0000 0.0000 0.0000
# 4 0.0000 0.0000 0.0000 21.3624 0.0000 0.0000
# 5 0.0000 0.0000 0.0000 0.0000 15.4825 0.0000
# 6 0.0000 0.0000 0.0000 0.0000 0.0000 35.3091
#
#
#
# Elastic Compliance Matrix: (Units=1/GPa)
#
#
# Indices 1 2 3 4 5 6 
#
# 1 0.018475 -0.005379 -0.005687 0.000000 0.000000 0.000000
# 2 -0.005379 0.010229 0.002070 0.000000 0.000000 0.000000
# 3 -0.005687 0.002070 0.034107 0.000000 0.000000 0.000000
# 4 0.000000 0.000000 0.000000 0.046811 0.000000 0.000000
# 5 0.000000 0.000000 0.000000 0.000000 0.064589 0.000000
# 6 0.000000 0.000000 0.000000 0.000000 0.000000 0.028321
#
#
# Mechanical properties :
#
#
# Convention : Reuss Voigt Hill
#
# Bulk Modulus (GPa) = 22.31280 32.73458 27.52369
# Shear Modulus (GPa) = 21.23464 25.91315 23.57389
#
# Velocity S-wave (km/s) = 3.02648 3.34330 3.18883
# Velocity P-wave (km/s) = 4.67305 5.38736 5.04287
#
# Compressibility (1/GPa) = 0.04481733
#
# Stress axis : x y z
#
# Youngs Moduli (GPa) = 54.12803 97.76531 29.31927
#
# Poissons Ratio (x) = 0.52593 0.16674
# Poissons Ratio (y) = 0.29118 -0.06069
# Poissons Ratio (z) = 0.30783 -0.20237
#
# Static dielectric constant tensor:
#      x y z
#    x 1.734150 0.000000 0.000000 
#    y 0.000000 1.909340 0.000000 
#    z 0.000000 0.000000 1.939440 
# 
# From -- ./inp_files/15760.got.cif
#   From: 2010.05.17/outbox.cif.g08.bks.cpg/sg56_8_cif.got.tgz:15760.got - 2010.06.03 13:42:01.
