data_PCOD9431525
_publ_section_title
;
Structure prediction by ZEFSAII (Michael W. Deem and Ramdas Pophale) SiO2 
 PCOD9431525
Probable space group: P C C N
;
_chemical_formula_sum "Si O2"
_cell_formula_units_Z 48
_cell_length_a 9.312212
_cell_length_b 27.430339
_cell_length_c 8.982717
_cell_angle_alpha 90.000000
_cell_angle_beta 90.000000
_cell_angle_gamma 90.000000
_cell_volume 2294.519468
_symmetry_space_group_name_H-M "P C C N"
_symmetry_group_IT_number 56
_symmetry_cell_setting 'orthorhombic'
loop_
_space_group_symop_operation_xyz
x,y,z
1/2-x,1/2-y,z
1/2+x,-y,1/2-z
-x,1/2+y,1/2-z
-x,-y,-z
1/2+x,1/2+y,-z
1/2-x,y,1/2+z
x,1/2-y,1/2+z
loop_
_atom_site_type_symbol
_atom_site_label
_atom_site_fract_x
_atom_site_fract_y
_atom_site_fract_z
Si Si1 0.673252 0.057186 0.390574
Si Si2 0.305629 0.695587 0.868028
Si Si3 0.356086 0.003479 0.900926
Si Si4 0.949109 0.863595 0.003622
Si Si5 0.610212 0.142692 0.924832
Si Si6 0.814921 0.615250 0.184265
O O1 0.723330 0.014625 0.499914
O O2 0.628344 0.033912 0.235368
O O3 0.551321 0.090530 0.462288
O O4 0.811904 0.092706 0.374507
O O5 0.250000 0.750000 0.883476
O O6 0.442355 0.681138 0.971077
O O7 0.347988 0.682379 0.700001
O O8 0.178704 0.659473 0.920972
O O9 0.320264 0.057215 0.841852
O O10 0.500000 0.000000 0.000000
O O11 0.861811 0.873154 0.851970
O O12 0.835173 0.861281 0.136220
O O13 0.441337 0.135799 0.921274
#
# Coordination Sequence:
#
# PCOD9431525 Si02
#       6
#     8   8   8   8   8   8
#     4  11  24  42  59  90 125 176 227 259 311 370
#     4  10  21  41  67  93 116 158 206 259 322 399
#     4  12  25  37  62  89 129 180 227 269 301 372
#     4  10  25  41  64  90 132 166 212 271 322 389
#     4  10  21  39  63  89 124 157 207 259 316 384
#     4  11  23  39  58  93 128 171 210 262 326 362
#
# _framework density 20.919414
#
# number of rings (size 3 to 8) (size 9 to 14) (size 15 to 20)
#    0.000    1.333    1.667    4.500    4.667    2.667 
#    0.000    0.833    0.000    4.000    0.000    0.000 
#    0.000    0.000    0.000    0.000    0.000    0.000 
#
# Total GULP energy -268528.115464 kJ/mol
# GULP energy per Si atom -5594.335739 kJ/mol
# Density = 2.087180 g / cm^3
# Si number density = 20.919414 Si / 1000 Ang^3
#
#
#
# Elastic Constant Matrix: (Units=GPa)
#
#
# Indices 1 2 3 4 5 6 
#
# 1 101.2427 23.1969 24.5288 0.0000 0.0000 0.0000
# 2 23.1969 102.6405 19.7901 0.0000 0.0000 0.0000
# 3 24.5288 19.7901 48.1967 0.0000 0.0000 0.0000
# 4 0.0000 0.0000 0.0000 24.3516 0.0000 0.0000
# 5 0.0000 0.0000 0.0000 0.0000 37.0583 0.0000
# 6 0.0000 0.0000 0.0000 0.0000 0.0000 13.0071
#
#
#
# Elastic Compliance Matrix: (Units=1/GPa)
#
#
# Indices 1 2 3 4 5 6 
#
# 1 0.011503 -0.001597 -0.005198 0.000000 0.000000 0.000000
# 2 -0.001597 0.010802 -0.003623 0.000000 0.000000 0.000000
# 3 -0.005198 -0.003623 0.024881 0.000000 0.000000 0.000000
# 4 0.000000 0.000000 0.000000 0.041065 0.000000 0.000000
# 5 0.000000 0.000000 0.000000 0.000000 0.026984 0.000000
# 6 0.000000 0.000000 0.000000 0.000000 0.000000 0.076881
#
#
# Mechanical properties :
#
#
# Convention : Reuss Voigt Hill
#
# Bulk Modulus (GPa) = 37.95071 43.01239 40.48155
# Shear Modulus (GPa) = 22.54931 27.18768 24.86850
#
# Velocity S-wave (km/s) = 3.28672 3.60896 3.45160
# Velocity P-wave (km/s) = 5.70825 6.16212 5.93952
#
# Compressibility (1/GPa) = 0.02634997
#
# Stress axis : x y z
#
# Youngs Moduli (GPa) = 86.93654 92.57358 40.19084
#
# Poissons Ratio (x) = 0.14787 0.20892
# Poissons Ratio (y) = 0.13887 0.14559
# Poissons Ratio (z) = 0.45191 0.33535
#
# Static dielectric constant tensor:
#      x y z
#    x 1.753630 0.000000 0.000000 
#    y 0.000000 1.741660 0.000000 
#    z 0.000000 0.000000 1.762260 
# 
# From -- ./inp_files/2254.got.cif
#   From: 2010.05.17/outbox.cif.g08.bks.cpg/sg56_2_cif.got.tgz:2254.got - 2010.06.03 13:42:01.
