data_PCOD9431582
_publ_section_title
;
Structure prediction by ZEFSAII (Michael W. Deem and Ramdas Pophale) SiO2 
 PCOD9431582
Probable space group: P C C N
;
_chemical_formula_sum "Si O2"
_cell_formula_units_Z 60
_cell_length_a 8.340543
_cell_length_b 16.472064
_cell_length_c 17.421728
_cell_angle_alpha 90.000000
_cell_angle_beta 90.000000
_cell_angle_gamma 90.000000
_cell_volume 2393.500793
_symmetry_space_group_name_H-M "P C C N"
_symmetry_group_IT_number 56
_symmetry_cell_setting 'orthorhombic'
loop_
_space_group_symop_operation_xyz
x,y,z
1/2-x,1/2-y,z
1/2+x,-y,1/2-z
-x,1/2+y,1/2-z
-x,-y,-z
1/2+x,1/2+y,-z
1/2-x,y,1/2+z
x,1/2-y,1/2+z
loop_
_atom_site_type_symbol
_atom_site_label
_atom_site_fract_x
_atom_site_fract_y
_atom_site_fract_z
Si Si1 0.250000 0.250000 0.799020
Si Si2 0.435024 0.572602 0.583531
Si Si3 0.085934 0.795862 0.705932
Si Si4 0.281673 0.096566 0.197031
Si Si5 0.519364 0.519702 0.176805
Si Si6 0.570631 0.414543 0.972372
Si Si7 0.005571 0.383153 0.069619
Si Si8 0.159999 0.644691 0.374208
O O1 0.432823 0.252073 0.827946
O O2 0.274486 0.167796 0.751231
O O3 0.421032 0.616723 0.664391
O O4 0.258950 0.573504 0.545074
O O5 0.531895 0.625462 0.521013
O O6 0.502016 0.481601 0.583393
O O7 0.250000 0.750000 0.683244
O O8 0.099882 0.807705 0.798741
O O9 0.429621 0.057601 0.243107
O O10 0.341476 0.138194 0.119631
O O11 0.148019 0.028938 0.182404
O O12 0.509279 0.588315 0.111301
O O13 0.644210 0.449834 0.151876
O O14 0.500000 0.500000 0.000000
O O15 0.562267 0.352922 0.044632
O O16 0.845247 0.341481 0.102292
#
# Coordination Sequence:
#
# PCOD9431582 Si02
#       8
#     4   8   8   8   8   8   8   8
#     4  12  30  46  66 108 152 192 240 300 372 446
#     4  10  22  42  67 106 139 173 241 306 363 425
#     4  12  27  49  71  96 148 201 244 289 365 456
#     4  12  24  42  69 104 141 185 238 298 362 443
#     4  11  22  38  72 103 134 179 242 294 358 421
#     4   9  20  38  64 107 139 167 225 309 361 421
#     4  10  21  39  72 102 132 174 226 306 363 415
#     4  10  21  41  67 100 130 177 230 297 354 420
#
# _framework density 25.067883999999999
#
# number of rings (size 3 to 8) (size 9 to 14) (size 15 to 20)
#    0.000    1.333    2.667    2.400    5.600    0.000 
#    0.000    6.000    0.000    0.000    0.000    0.000 
#    0.000    0.000    0.000    0.000    0.000    0.000 
#
# Total GULP energy -334980.639990 kJ/mol
# GULP energy per Si atom -5583.010667 kJ/mol
# Density = 2.501083 g / cm^3
# Si number density = 25.067884 Si / 1000 Ang^3
#
#
#
# Elastic Constant Matrix: (Units=GPa)
#
#
# Indices 1 2 3 4 5 6 
#
# 1 87.5265 5.4246 12.5468 0.0000 0.0000 0.0000
# 2 5.4246 60.5313 24.5415 0.0000 0.0000 0.0000
# 3 12.5468 24.5415 117.6876 0.0000 0.0000 0.0000
# 4 0.0000 0.0000 0.0000 20.4551 0.0000 0.0000
# 5 0.0000 0.0000 0.0000 0.0000 18.0466 0.0000
# 6 0.0000 0.0000 0.0000 0.0000 0.0000 23.6484
#
#
#
# Elastic Compliance Matrix: (Units=1/GPa)
#
#
# Indices 1 2 3 4 5 6 
#
# 1 0.011622 -0.000589 -0.001116 0.000000 0.000000 0.000000
# 2 -0.000589 0.018076 -0.003707 0.000000 0.000000 0.000000
# 3 -0.001116 -0.003707 0.009389 0.000000 0.000000 0.000000
# 4 0.000000 0.000000 0.000000 0.048888 0.000000 0.000000
# 5 0.000000 0.000000 0.000000 0.000000 0.055412 0.000000
# 6 0.000000 0.000000 0.000000 0.000000 0.000000 0.042286
#
#
# Mechanical properties :
#
#
# Convention : Reuss Voigt Hill
#
# Bulk Modulus (GPa) = 35.38180 38.97457 37.17819
# Shear Modulus (GPa) = 24.28162 27.31217 25.79690
#
# Velocity S-wave (km/s) = 3.11567 3.30438 3.21141
# Velocity P-wave (km/s) = 5.20463 5.48999 5.34921
#
# Compressibility (1/GPa) = 0.02826311
#
# Stress axis : x y z
#
# Youngs Moduli (GPa) = 86.04658 55.32210 106.50750
#
# Poissons Ratio (x) = 0.03258 0.11888
# Poissons Ratio (y) = 0.05068 0.39478
# Poissons Ratio (z) = 0.09604 0.20506
#
# Static dielectric constant tensor:
#      x y z
#    x 2.199240 0.000000 0.000000 
#    y 0.000000 1.955240 0.000000 
#    z 0.000000 0.000000 2.047670 
# 
# From -- ./inp_files/15116.got.cif
#   From: 2010.05.17/outbox.cif.g08.bks.cpg/sg56_8_cif.got.tgz:15116.got - 2010.06.03 13:42:01.
