data_PCOD9431637
_publ_section_title
;
Structure prediction by ZEFSAII (Michael W. Deem and Ramdas Pophale) SiO2 
 PCOD9431637
Probable space group: P C C N
;
_chemical_formula_sum "Si O2"
_cell_formula_units_Z 52
_cell_length_a 8.771410
_cell_length_b 15.878097
_cell_length_c 15.630850
_cell_angle_alpha 90.000000
_cell_angle_beta 90.000000
_cell_angle_gamma 90.000000
_cell_volume 2176.960043
_symmetry_space_group_name_H-M "P C C N"
_symmetry_group_IT_number 56
_symmetry_cell_setting 'orthorhombic'
loop_
_space_group_symop_operation_xyz
x,y,z
1/2-x,1/2-y,z
1/2+x,-y,1/2-z
-x,1/2+y,1/2-z
-x,-y,-z
1/2+x,1/2+y,-z
1/2-x,y,1/2+z
x,1/2-y,1/2+z
loop_
_atom_site_type_symbol
_atom_site_label
_atom_site_fract_x
_atom_site_fract_y
_atom_site_fract_z
Si Si1 0.163136 0.142535 0.013708
Si Si2 0.935072 0.534220 0.252903
Si Si3 0.080178 0.221356 0.177349
Si Si4 0.152860 0.063232 0.854719
Si Si5 0.250000 0.750000 0.354829
Si Si6 0.115915 0.500048 0.078976
Si Si7 0.677047 0.093810 0.524800
O O1 0.199045 0.145148 0.911845
O O2 0.110494 0.219465 0.074135
O O3 0.000075 0.097213 0.004551
O O4 0.282842 0.085616 0.067847
O O5 0.963515 0.625989 0.294468
O O6 0.761108 0.545662 0.225765
O O7 0.986601 0.460971 0.318032
O O8 0.025096 0.515269 0.165508
O O9 0.250000 0.250000 0.211753
O O10 0.914938 0.265876 0.192260
O O11 0.199015 0.988739 0.918678
O O12 0.272928 0.828950 0.417373
O O13 0.224057 0.579537 0.059238
O O14 0.000000 0.500000 0.000000
#
# Coordination Sequence:
#
# PCOD9431637 Si02
#       7
#     8   8   8   8   4   8   8
#     4  10  21  43  63  97 130 175 220 270 340 405
#     4  12  24  39  62 107 130 169 224 283 351 395
#     4  11  26  45  69  93 140 186 225 271 339 412
#     4  11  22  38  66  98 133 161 220 291 335 396
#     4  10  22  44  66  96 128 182 230 254 334 420
#     4  11  21  37  66  95 131 161 218 281 333 394
#     4  10  21  40  65  91 130 174 221 266 328 411
#
# _framework density 23.886519
#
# number of rings (size 3 to 8) (size 9 to 14) (size 15 to 20)
#    0.000    1.231    6.154    2.769    4.308    1.231 
#    0.000    4.615    0.000    0.000    0.000    0.000 
#    0.000    0.000    0.000    0.000    0.000    0.000 
#
# Total GULP energy -289470.832149 kJ/mol
# GULP energy per Si atom -5566.746772 kJ/mol
# Density = 2.383215 g / cm^3
# Si number density = 23.886519 Si / 1000 Ang^3
#
#
#
# Elastic Constant Matrix: (Units=GPa)
#
#
# Indices 1 2 3 4 5 6 
#
# 1 160.2351 15.6998 29.5619 0.0000 0.0000 0.0000
# 2 15.6998 44.0561 6.5336 0.0000 0.0000 0.0000
# 3 29.5619 6.5336 99.8743 0.0000 0.0000 0.0000
# 4 0.0000 0.0000 0.0000 15.4608 0.0000 0.0000
# 5 0.0000 0.0000 0.0000 0.0000 35.6741 0.0000
# 6 0.0000 0.0000 0.0000 0.0000 0.0000 30.3755
#
#
#
# Elastic Compliance Matrix: (Units=1/GPa)
#
#
# Indices 1 2 3 4 5 6 
#
# 1 0.006796 -0.002144 -0.001871 0.000000 0.000000 0.000000
# 2 -0.002144 0.023597 -0.000909 0.000000 0.000000 0.000000
# 3 -0.001871 -0.000909 0.010626 0.000000 0.000000 0.000000
# 4 0.000000 0.000000 0.000000 0.064680 0.000000 0.000000
# 5 0.000000 0.000000 0.000000 0.000000 0.028032 0.000000
# 6 0.000000 0.000000 0.000000 0.000000 0.000000 0.032921
#
#
# Mechanical properties :
#
#
# Convention : Reuss Voigt Hill
#
# Bulk Modulus (GPa) = 32.08202 45.30623 38.69413
# Shear Modulus (GPa) = 26.75350 33.12676 29.94013
#
# Velocity S-wave (km/s) = 3.35031 3.72807 3.54423
# Velocity P-wave (km/s) = 5.33163 6.12697 5.74308
#
# Compressibility (1/GPa) = 0.03117010
#
# Stress axis : x y z
#
# Youngs Moduli (GPa) = 147.14161 42.37771 94.10929
#
# Poissons Ratio (x) = 0.09087 0.17611
# Poissons Ratio (y) = 0.31552 0.08554
# Poissons Ratio (z) = 0.27535 0.03852
#
# Static dielectric constant tensor:
#      x y z
#    x 2.038080 0.000000 0.000000 
#    y 0.000000 2.031640 0.000000 
#    z 0.000000 0.000000 2.057020 
# 
# From -- ./inp_files/10816.got.cif
#   From: 2010.05.17/outbox.cif.g08.bks.cpg/sg56_6_cif.got.tgz:10816.got - 2010.06.03 13:42:01.
