data_PCOD9431188
_publ_section_title
;
Structure prediction by ZEFSAII (Michael W. Deem and Ramdas Pophale) SiO2 
 PCOD9431188
Probable space group: P C C N
;
_chemical_formula_sum "Si O2"
_cell_formula_units_Z 48
_cell_length_a 8.880860
_cell_length_b 9.785086
_cell_length_c 26.455605
_cell_angle_alpha 90.000000
_cell_angle_beta 90.000000
_cell_angle_gamma 90.000000
_cell_volume 2298.991515
_symmetry_space_group_name_H-M "P C C N"
_symmetry_group_IT_number 56
_symmetry_cell_setting 'orthorhombic'
loop_
_space_group_symop_operation_xyz
x,y,z
1/2-x,1/2-y,z
1/2+x,-y,1/2-z
-x,1/2+y,1/2-z
-x,-y,-z
1/2+x,1/2+y,-z
1/2-x,y,1/2+z
x,1/2-y,1/2+z
loop_
_atom_site_type_symbol
_atom_site_label
_atom_site_fract_x
_atom_site_fract_y
_atom_site_fract_z
Si Si1 0.530995 0.183902 0.351532
Si Si2 0.250000 0.750000 0.393116
Si Si3 0.875166 0.064375 0.196729
Si Si4 0.827104 0.458596 0.857486
Si Si5 0.571287 0.013465 0.054922
Si Si6 0.250000 0.250000 0.421148
Si Si7 0.814426 0.890442 0.764214
O O1 0.593115 0.327551 0.331413
O O2 0.670505 0.105092 0.377663
O O3 0.395381 0.213464 0.388577
O O4 0.464027 0.076760 0.312861
O O5 0.332931 0.854790 0.354174
O O6 0.147648 0.844152 0.428938
O O7 0.010658 0.139645 0.225066
O O8 0.726723 0.017380 0.227232
O O9 0.776608 0.570610 0.816190
O O10 0.941284 0.496837 0.902019
O O11 0.695473 0.891691 0.054360
O O12 0.500000 0.000000 0.000000
O O13 0.750000 0.750000 0.742830
#
# Coordination Sequence:
#
# PCOD9431188 Si02
#       7
#     8   4   8   8   8   4   8
#     4   9  19  39  66  93 127 182 230 284 351 415
#     4  12  26  48  74 104 150 174 252 310 366 436
#     4  11  26  40  67 101 138 194 231 294 360 418
#     4   9  21  42  66  93 140 179 236 294 348 422
#     4  11  25  46  73 104 138 188 234 306 368 430
#     4  10  20  42  70  98 130 182 228 280 360 420
#     4  11  26  40  64  99 142 193 240 282 355 436
#
# _framework density 20.878720000000001
#
# number of rings (size 3 to 8) (size 9 to 14) (size 15 to 20)
#    0.000    1.667    1.667    1.000    8.167    4.000 
#    7.500    1.667    0.000    0.000    0.000    0.000 
#    0.000    0.000    0.000    0.000    0.000    0.000 
#
# Total GULP energy -267491.089350 kJ/mol
# GULP energy per Si atom -5572.731028 kJ/mol
# Density = 2.083120 g / cm^3
# Si number density = 20.878720 Si / 1000 Ang^3
#
#
#
# Elastic Constant Matrix: (Units=GPa)
#
#
# Indices 1 2 3 4 5 6 
#
# 1 105.1936 44.5399 42.8637 0.0000 0.0000 0.0000
# 2 44.5399 77.3806 39.8744 0.0000 0.0000 0.0000
# 3 42.8637 39.8744 90.3766 0.0000 0.0000 0.0000
# 4 0.0000 0.0000 0.0000 19.0846 0.0000 0.0000
# 5 0.0000 0.0000 0.0000 0.0000 31.6752 0.0000
# 6 0.0000 0.0000 0.0000 0.0000 0.0000 31.8851
#
#
#
# Elastic Compliance Matrix: (Units=1/GPa)
#
#
# Indices 1 2 3 4 5 6 
#
# 1 0.013536 -0.005802 -0.003860 0.000000 0.000000 0.000000
# 2 -0.005802 0.019213 -0.005725 0.000000 0.000000 0.000000
# 3 -0.003860 -0.005725 0.015421 0.000000 0.000000 0.000000
# 4 0.000000 0.000000 0.000000 0.052398 0.000000 0.000000
# 5 0.000000 0.000000 0.000000 0.000000 0.031570 0.000000
# 6 0.000000 0.000000 0.000000 0.000000 0.000000 0.031363
#
#
# Mechanical properties :
#
#
# Convention : Reuss Voigt Hill
#
# Bulk Modulus (GPa) = 57.48395 58.61186 58.04790
# Shear Modulus (GPa) = 24.99077 26.24048 25.61563
#
# Velocity S-wave (km/s) = 3.46345 3.54899 3.50648
# Velocity P-wave (km/s) = 6.60197 6.70278 6.65257
#
# Compressibility (1/GPa) = 0.01739616
#
# Stress axis : x y z
#
# Youngs Moduli (GPa) = 73.87857 52.04832 64.84536
#
# Poissons Ratio (x) = 0.30199 0.25029
# Poissons Ratio (y) = 0.42865 0.37124
# Poissons Ratio (z) = 0.28516 0.29797
#
# Static dielectric constant tensor:
#      x y z
#    x 0.817910 0.000000 0.000000 
#    y 0.000000 1.797410 0.000000 
#    z 0.000000 0.000000 1.726600 
# 
# From -- ./inp_files/23301.got.cif
#   From: 2010.05.17/outbox.cif.g08.bks.cpg/sg56_12_cif.got.tgz:23301.got - 2010.06.03 13:42:01.
