data_PCOD9431195
_publ_section_title
;
Structure prediction by ZEFSAII (Michael W. Deem and Ramdas Pophale) SiO2 
 PCOD9431195
Probable space group: P C C N
;
_chemical_formula_sum "Si O2"
_cell_formula_units_Z 40
_cell_length_a 10.459112
_cell_length_b 9.675652
_cell_length_c 19.996443
_cell_angle_alpha 90.000000
_cell_angle_beta 90.000000
_cell_angle_gamma 90.000000
_cell_volume 2023.614595
_symmetry_space_group_name_H-M "P C C N"
_symmetry_group_IT_number 56
_symmetry_cell_setting 'orthorhombic'
loop_
_space_group_symop_operation_xyz
x,y,z
1/2-x,1/2-y,z
1/2+x,-y,1/2-z
-x,1/2+y,1/2-z
-x,-y,-z
1/2+x,1/2+y,-z
1/2-x,y,1/2+z
x,1/2-y,1/2+z
loop_
_atom_site_type_symbol
_atom_site_label
_atom_site_fract_x
_atom_site_fract_y
_atom_site_fract_z
Si Si1 0.126753 0.843827 0.430728
Si Si2 0.980989 0.013366 0.324013
Si Si3 0.881116 0.831806 0.911108
Si Si4 0.730762 0.413424 0.430309
Si Si5 0.603567 0.749883 0.755973
O O1 0.250000 0.750000 0.414561
O O2 0.089640 0.945590 0.370682
O O3 0.159704 0.924661 0.498541
O O4 0.004689 0.743216 0.441495
O O5 0.948639 0.903764 0.266227
O O6 0.020994 0.157617 0.293080
O O7 0.858050 0.029239 0.371287
O O8 0.750000 0.750000 0.929136
O O9 0.897304 0.815410 0.830874
O O10 0.856156 0.990600 0.930162
O O11 0.750000 0.250000 0.420502
O O12 0.750000 0.750000 0.733329
#
# Coordination Sequence:
#
# PCOD9431195 Si02
#       5
#     8   8   8   8   8
#     4  10  23  42  65  97 130 165 213 272 318 369
#     4  11  23  41  64  94 127 165 215 265 313 383
#     4  10  20  43  66  85 133 173 201 259 323 375
#     4  11  23  41  68  94 125 172 218 251 328 387
#     4  10  22  40  60  90 127 166 207 260 322 370
#
# _framework density 19.766608999999999
#
# number of rings (size 3 to 8) (size 9 to 14) (size 15 to 20)
#    0.000    1.600    6.000    0.600    2.800    6.400 
#    3.600    0.000    0.000    0.000    0.000    0.000 
#    0.000    0.000    0.000    0.000    0.000    0.000 
#
# Total GULP energy -223397.833570 kJ/mol
# GULP energy per Si atom -5584.945839 kJ/mol
# Density = 1.972162 g / cm^3
# Si number density = 19.766609 Si / 1000 Ang^3
#
#
#
# Elastic Constant Matrix: (Units=GPa)
#
#
# Indices 1 2 3 4 5 6 
#
# 1 60.9087 -3.4863 5.1487 0.0000 0.0000 0.0000
# 2 -3.4863 57.4088 -0.1936 0.0000 0.0000 0.0000
# 3 5.1487 -0.1936 19.3708 0.0000 0.0000 0.0000
# 4 0.0000 0.0000 0.0000 -90.9039 0.0000 0.0000
# 5 0.0000 0.0000 0.0000 0.0000 -6.9312 0.0000
# 6 0.0000 0.0000 0.0000 0.0000 0.0000 33.3760
#
#
#
# Elastic Compliance Matrix: (Units=1/GPa)
#
#
# Indices 1 2 3 4 5 6 
#
# 1 0.016854 0.001008 -0.004470 0.000000 0.000000 0.000000
# 2 0.001008 0.017480 -0.000093 0.000000 0.000000 0.000000
# 3 -0.004470 -0.000093 0.052811 0.000000 0.000000 0.000000
# 4 0.000000 0.000000 0.000000 -0.011001 0.000000 0.000000
# 5 0.000000 0.000000 0.000000 0.000000 -0.144275 0.000000
# 6 0.000000 0.000000 0.000000 0.000000 0.000000 0.029962
#
#
# Mechanical properties :
#
#
# Convention : Reuss Voigt Hill
#
# Bulk Modulus (GPa) = 12.49443 15.62511 14.05977
# Shear Modulus (GPa) = -1140.99964 -3.81052 -572.40508
#
# Velocity S-wave (km/s) = -24.05180 -1.38994 -17.03557
# Velocity P-wave (km/s) = 27.65834 2.31215 19.48895
#
# Compressibility (1/GPa) = 0.08003564
#
# Stress axis : x y z
#
# Youngs Moduli (GPa) = 59.33468 57.20875 18.93538
#
# Poissons Ratio (x) = -0.05769 0.08463
# Poissons Ratio (y) = -0.05983 0.00177
# Poissons Ratio (z) = 0.26520 0.00534
#
# Static dielectric constant tensor:
#      x y z
#    x 1.692910 0.000000 0.000000 
#    y 0.000000 1.723430 0.000000 
#    z 0.000000 0.000000 1.674040 
# 
# From -- ./inp_files/18588.got.cif
#   From: 2010.05.17/outbox.cif.g08.bks.cpg/sg56_10_cif.got.tgz:18588.got - 2010.06.03 13:42:01.
