data_PCOD9431246
_publ_section_title
;
Structure prediction by ZEFSAII (Michael W. Deem and Ramdas Pophale) SiO2 
 PCOD9431246
Probable space group: P C C N
;
_chemical_formula_sum "Si O2"
_cell_formula_units_Z 64
_cell_length_a 22.834699
_cell_length_b 6.708980
_cell_length_c 25.195669
_cell_angle_alpha 90.000000
_cell_angle_beta 90.000000
_cell_angle_gamma 90.000000
_cell_volume 3859.914482
_symmetry_space_group_name_H-M "P C C N"
_symmetry_group_IT_number 56
_symmetry_cell_setting 'orthorhombic'
loop_
_space_group_symop_operation_xyz
x,y,z
1/2-x,1/2-y,z
1/2+x,-y,1/2-z
-x,1/2+y,1/2-z
-x,-y,-z
1/2+x,1/2+y,-z
1/2-x,y,1/2+z
x,1/2-y,1/2+z
loop_
_atom_site_type_symbol
_atom_site_label
_atom_site_fract_x
_atom_site_fract_y
_atom_site_fract_z
Si Si1 0.690631 0.705297 0.428446
Si Si2 0.122727 0.599485 0.583344
Si Si3 0.526003 0.497603 0.587866
Si Si4 0.029463 0.138474 0.137883
Si Si5 0.414407 0.437596 0.716442
Si Si6 0.809353 0.118721 0.337293
Si Si7 0.407634 0.945532 0.018703
Si Si8 0.016915 0.245254 0.808787
O O1 0.750000 0.750000 0.459473
O O2 0.704241 0.563277 0.377881
O O3 0.640740 0.599336 0.461966
O O4 0.667819 0.921551 0.413943
O O5 0.992180 0.473677 0.321306
O O6 0.143326 0.747803 0.630005
O O7 0.118885 0.727315 0.529987
O O8 0.520129 0.279546 0.614132
O O9 0.572084 0.491230 0.540429
O O10 0.463681 0.539419 0.558444
O O11 0.535958 0.652272 0.635705
O O12 0.074153 0.292697 0.165869
O O13 0.061300 0.008046 0.093530
O O14 0.349244 0.529421 0.710642
O O15 0.431614 0.299359 0.766629
O O16 0.464160 0.611899 0.712187
O O17 0.750000 0.250000 0.326738
#
# Coordination Sequence:
#
# PCOD9431246 Si02
#       8
#     8   8   8   8   8   8   8   8
#     4  11  20  33  54  79 106 142 175 214 273 330
#     4  11  18  32  52  77 113 141 173 218 268 327
#     4  10  21  34  49  77 112 138 177 222 268 323
#     4  11  18  32  52  75 107 142 175 218 273 319
#     4  11  21  32  52  80 107 145 188 222 271 335
#     4  11  21  32  50  81 115 138 176 227 276 336
#     4  10  21  33  50  80 108 137 179 222 262 325
#     4  11  20  33  52  76 108 143 183 227 267 320
#
# _framework density 16.580679
#
# number of rings (size 3 to 8) (size 9 to 14) (size 15 to 20)
#    0.000    1.250    7.500    1.500    0.000    1.500 
#    0.000    0.000    0.000    0.000    3.250    0.000 
#    0.000    0.000    0.000    0.000    0.000    0.000 
#
# Total GULP energy -356351.292071 kJ/mol
# GULP energy per Si atom -5567.988939 kJ/mol
# Density = 1.654294 g / cm^3
# Si number density = 16.580679 Si / 1000 Ang^3
#
#
#
# Elastic Constant Matrix: (Units=GPa)
#
#
# Indices 1 2 3 4 5 6 
#
# 1 79.2216 27.5719 41.5313 0.0000 0.0000 0.0000
# 2 27.5719 97.3625 30.3188 0.0000 0.0000 0.0000
# 3 41.5313 30.3188 80.0810 0.0000 0.0000 0.0000
# 4 0.0000 0.0000 0.0000 11.6870 0.0000 0.0000
# 5 0.0000 0.0000 0.0000 0.0000 17.9647 0.0000
# 6 0.0000 0.0000 0.0000 0.0000 0.0000 22.3172
#
#
#
# Elastic Compliance Matrix: (Units=1/GPa)
#
#
# Indices 1 2 3 4 5 6 
#
# 1 0.017842 -0.002461 -0.008321 0.000000 0.000000 0.000000
# 2 -0.002461 0.011983 -0.003260 0.000000 0.000000 0.000000
# 3 -0.008321 -0.003260 0.018037 0.000000 0.000000 0.000000
# 4 0.000000 0.000000 0.000000 0.085565 0.000000 0.000000
# 5 0.000000 0.000000 0.000000 0.000000 0.055665 0.000000
# 6 0.000000 0.000000 0.000000 0.000000 0.000000 0.044809
#
#
# Mechanical properties :
#
#
# Convention : Reuss Voigt Hill
#
# Bulk Modulus (GPa) = 50.56522 50.61212 50.58867
# Shear Modulus (GPa) = 18.61654 20.87666 19.74660
#
# Velocity S-wave (km/s) = 3.35443 3.55222 3.45474
# Velocity P-wave (km/s) = 6.75023 6.88588 6.81840
#
# Compressibility (1/GPa) = 0.01977644
#
# Stress axis : x y z
#
# Youngs Moduli (GPa) = 56.04832 83.45015 55.44094
#
# Poissons Ratio (x) = 0.20540 0.46133
# Poissons Ratio (y) = 0.13795 0.18076
# Poissons Ratio (z) = 0.46639 0.27208
#
# Static dielectric constant tensor:
#      x y z
#    x 1.617680 0.000000 0.000000 
#    y 0.000000 1.595890 0.000000 
#    z 0.000000 0.000000 1.563210 
# 
# From -- ./inp_files/21390.got.cif
#   From: 2010.05.17/outbox.cif.g08.bks.cpg/sg56_11_cif.got.tgz:21390.got - 2010.06.03 13:42:01.
