data_PCOD9431705
_publ_section_title
;
Structure prediction by ZEFSAII (Michael W. Deem and Ramdas Pophale) SiO2 
 PCOD9431705
Probable space group: P C C N
;
_chemical_formula_sum "Si O2"
_cell_formula_units_Z 48
_cell_length_a 15.484060
_cell_length_b 13.112515
_cell_length_c 9.924336
_cell_angle_alpha 90.000000
_cell_angle_beta 90.000000
_cell_angle_gamma 90.000000
_cell_volume 2014.987252
_symmetry_space_group_name_H-M "P C C N"
_symmetry_group_IT_number 56
_symmetry_cell_setting 'orthorhombic'
loop_
_space_group_symop_operation_xyz
x,y,z
1/2-x,1/2-y,z
1/2+x,-y,1/2-z
-x,1/2+y,1/2-z
-x,-y,-z
1/2+x,1/2+y,-z
1/2-x,y,1/2+z
x,1/2-y,1/2+z
loop_
_atom_site_type_symbol
_atom_site_label
_atom_site_fract_x
_atom_site_fract_y
_atom_site_fract_z
Si Si1 0.983607 0.342120 0.737856
Si Si2 0.880602 0.973575 0.185501
Si Si3 0.116293 0.774115 0.028236
Si Si4 0.822683 0.621138 0.940467
Si Si5 0.620978 0.828761 0.452044
Si Si6 0.762102 0.090093 0.533364
O O1 0.952477 0.457895 0.756985
O O2 0.945165 0.312792 0.590142
O O3 0.938223 0.270614 0.847786
O O4 0.083408 0.338678 0.698121
O O5 0.848385 0.886977 0.284912
O O6 0.913290 0.916304 0.052219
O O7 0.798873 0.047997 0.153590
O O8 0.185703 0.863544 0.064233
O O9 0.173067 0.684479 0.959153
O O10 0.882851 0.710398 0.998545
O O11 0.722707 0.649127 0.951575
O O12 0.821081 0.505752 0.993493
#
# Coordination Sequence:
#
# PCOD9431705 Si02
#       6
#     8   8   8   8   8   8
#     4  11  23  42  65  98 133 172 215 286 339 395
#     4  10  21  41  68  88 128 171 225 277 337 396
#     4  10  22  38  67  95 133 168 219 273 334 393
#     4  10  21  41  63  88 124 173 224 265 319 407
#     4  10  24  40  62  93 126 176 222 269 334 398
#     4   9  20  38  62  96 123 169 220 263 329 390
#
# _framework density 23.821491999999999
#
# number of rings (size 3 to 8) (size 9 to 14) (size 15 to 20)
#    0.000    2.000    1.667    0.500    4.667    6.667 
#    0.000    0.833    0.000    0.000    0.000    0.000 
#    0.000    0.000    0.000    0.000    0.000    0.000 
#
# Total GULP energy -267622.490366 kJ/mol
# GULP energy per Si atom -5575.468549 kJ/mol
# Density = 2.376727 g / cm^3
# Si number density = 23.821492 Si / 1000 Ang^3
#
#
#
# Elastic Constant Matrix: (Units=GPa)
#
#
# Indices 1 2 3 4 5 6 
#
# 1 20.8987 -0.4529 -13.7679 0.0000 0.0000 0.0000
# 2 -0.4529 92.8739 -6.1791 0.0000 0.0000 0.0000
# 3 -13.7679 -6.1791 44.3748 0.0000 0.0000 0.0000
# 4 0.0000 0.0000 0.0000 25.8921 0.0000 0.0000
# 5 0.0000 0.0000 0.0000 0.0000 -142.0196 0.0000
# 6 0.0000 0.0000 0.0000 0.0000 0.0000 18.0079
#
#
#
# Elastic Compliance Matrix: (Units=1/GPa)
#
#
# Indices 1 2 3 4 5 6 
#
# 1 0.060365 0.001555 0.018946 0.000000 0.000000 0.000000
# 2 0.001555 0.010908 0.002001 0.000000 0.000000 0.000000
# 3 0.018946 0.002001 0.028692 0.000000 0.000000 0.000000
# 4 0.000000 0.000000 0.000000 0.038622 0.000000 0.000000
# 5 0.000000 0.000000 0.000000 0.000000 -0.007041 0.000000
# 6 0.000000 0.000000 0.000000 0.000000 0.000000 0.055531
#
#
# Mechanical properties :
#
#
# Convention : Reuss Voigt Hill
#
# Bulk Modulus (GPa) = 6.89806 13.03863 9.96834
# Shear Modulus (GPa) = 26.26105 -7.72076 9.27015
#
# Velocity S-wave (km/s) = 3.32386 -1.80226 1.97483
# Velocity P-wave (km/s) = 4.19913 1.07449 3.06490
#
# Compressibility (1/GPa) = 0.14496834
#
# Stress axis : x y z
#
# Youngs Moduli (GPa) = 16.56593 91.67562 34.85282
#
# Poissons Ratio (x) = -0.14254 -0.66031
# Poissons Ratio (y) = -0.02576 -0.06975
# Poissons Ratio (z) = -0.31385 -0.18347
#
# Static dielectric constant tensor:
#      x y z
#    x 2.017150 0.000000 0.000000 
#    y 0.000000 2.046690 0.000000 
#    z 0.000000 0.000000 1.907200 
# 
# From -- ./inp_files/8283.got.cif
#   From: 2010.05.17/outbox.cif.g08.bks.cpg/sg56_5_cif.got.tgz:8283.got - 2010.06.03 13:42:01.
