data_PCOD9431690
_publ_section_title
;
Structure prediction by ZEFSAII (Michael W. Deem and Ramdas Pophale) SiO2 
 PCOD9431690
Probable space group: P C C N
;
_chemical_formula_sum "Si O2"
_cell_formula_units_Z 52
_cell_length_a 5.438260
_cell_length_b 15.710163
_cell_length_c 27.797503
_cell_angle_alpha 90.000000
_cell_angle_beta 90.000000
_cell_angle_gamma 90.000000
_cell_volume 2374.906105
_symmetry_space_group_name_H-M "P C C N"
_symmetry_group_IT_number 56
_symmetry_cell_setting 'orthorhombic'
loop_
_space_group_symop_operation_xyz
x,y,z
1/2-x,1/2-y,z
1/2+x,-y,1/2-z
-x,1/2+y,1/2-z
-x,-y,-z
1/2+x,1/2+y,-z
1/2-x,y,1/2+z
x,1/2-y,1/2+z
loop_
_atom_site_type_symbol
_atom_site_label
_atom_site_fract_x
_atom_site_fract_y
_atom_site_fract_z
Si Si1 0.787616 0.464582 0.310117
Si Si2 0.545950 0.402840 0.641074
Si Si3 0.250000 0.250000 0.683840
Si Si4 0.420143 0.070415 0.039205
Si Si5 0.135196 0.340618 0.948402
Si Si6 0.621525 0.430266 0.914229
Si Si7 0.085569 0.623649 0.276010
O O1 0.554136 0.509422 0.335816
O O2 0.929052 0.433188 0.357199
O O3 0.735383 0.390990 0.272295
O O4 0.910068 0.540827 0.279796
O O5 0.349666 0.327514 0.651520
O O6 0.593121 0.412409 0.584802
O O7 0.771250 0.379002 0.673947
O O8 0.448573 0.211791 0.720078
O O9 0.191735 0.023964 0.065558
O O10 0.394028 0.153097 0.006273
O O11 0.500000 0.000000 0.000000
O O12 0.250000 0.250000 0.933144
O O13 0.367316 0.401685 0.937723
O O14 0.869453 0.371737 0.925946
#
# Coordination Sequence:
#
# PCOD9431690 Si02
#       7
#     8   8   4   8   8   8   8
#     4  10  22  37  70  92 122 173 226 272 330 395
#     4  10  21  41  61  94 132 167 217 276 333 404
#     4  10  24  40  58  96 136 174 214 276 348 410
#     4   9  21  40  67  96 121 171 220 270 336 397
#     4  11  23  43  64  95 134 171 221 275 338 402
#     4  10  23  42  66  95 132 171 223 275 333 403
#     4  11  21  41  66  96 132 174 227 280 339 406
#
# _framework density 21.895603999999999
#
# number of rings (size 3 to 8) (size 9 to 14) (size 15 to 20)
#    0.000    1.846    1.538    1.385    7.538    0.000 
#    9.692    4.615    0.000    0.000    0.000    0.000 
#    0.000    0.000    0.000    0.000    0.000    0.000 
#
# Total GULP energy -289826.658855 kJ/mol
# GULP energy per Si atom -5573.589593 kJ/mol
# Density = 2.184577 g / cm^3
# Si number density = 21.895604 Si / 1000 Ang^3
#
#
#
# Elastic Constant Matrix: (Units=GPa)
#
#
# Indices 1 2 3 4 5 6 
#
# 1 62.7620 1.5665 9.6842 0.0000 0.0000 0.0000
# 2 1.5665 47.1051 8.6376 0.0000 0.0000 0.0000
# 3 9.6842 8.6376 136.9035 0.0000 0.0000 0.0000
# 4 0.0000 0.0000 0.0000 17.7288 0.0000 0.0000
# 5 0.0000 0.0000 0.0000 0.0000 12.0857 0.0000
# 6 0.0000 0.0000 0.0000 0.0000 0.0000 32.4445
#
#
#
# Elastic Compliance Matrix: (Units=1/GPa)
#
#
# Indices 1 2 3 4 5 6 
#
# 1 0.016114 -0.000331 -0.001119 0.000000 0.000000 0.000000
# 2 -0.000331 0.021484 -0.001332 0.000000 0.000000 0.000000
# 3 -0.001119 -0.001332 0.007468 0.000000 0.000000 0.000000
# 4 0.000000 0.000000 0.000000 0.056405 0.000000 0.000000
# 5 0.000000 0.000000 0.000000 0.000000 0.082743 0.000000
# 6 0.000000 0.000000 0.000000 0.000000 0.000000 0.030822
#
#
# Mechanical properties :
#
#
# Convention : Reuss Voigt Hill
#
# Bulk Modulus (GPa) = 25.31484 31.83856 28.57670
# Shear Modulus (GPa) = 21.38882 27.57729 24.48305
#
# Velocity S-wave (km/s) = 3.12886 3.55278 3.34754
# Velocity P-wave (km/s) = 4.96384 5.60378 5.29349
#
# Compressibility (1/GPa) = 0.03950253
#
# Stress axis : x y z
#
# Youngs Moduli (GPa) = 62.05732 46.54544 133.91155
#
# Poissons Ratio (x) = 0.01539 0.14985
# Poissons Ratio (y) = 0.02052 0.17838
# Poissons Ratio (z) = 0.06944 0.06200
#
# Static dielectric constant tensor:
#      x y z
#    x 1.876250 0.000000 0.000000 
#    y 0.000000 1.888300 0.000000 
#    z 0.000000 0.000000 1.952030 
# 
# From -- ./inp_files/21769.got.cif
#   From: 2010.05.17/outbox.cif.g08.bks.cpg/sg56_11_cif.got.tgz:21769.got - 2010.06.03 13:42:01.
