data_PCOD9431059
_publ_section_title
;
Structure prediction by ZEFSAII (Michael W. Deem and Ramdas Pophale) SiO2 
 PCOD9431059
Probable space group: P C C N
;
_chemical_formula_sum "Si O2"
_cell_formula_units_Z 48
_cell_length_a 11.306348
_cell_length_b 10.759440
_cell_length_c 20.051865
_cell_angle_alpha 90.000000
_cell_angle_beta 90.000000
_cell_angle_gamma 90.000000
_cell_volume 2439.308834
_symmetry_space_group_name_H-M "P C C N"
_symmetry_group_IT_number 56
_symmetry_cell_setting 'orthorhombic'
loop_
_space_group_symop_operation_xyz
x,y,z
1/2-x,1/2-y,z
1/2+x,-y,1/2-z
-x,1/2+y,1/2-z
-x,-y,-z
1/2+x,1/2+y,-z
1/2-x,y,1/2+z
x,1/2-y,1/2+z
loop_
_atom_site_type_symbol
_atom_site_label
_atom_site_fract_x
_atom_site_fract_y
_atom_site_fract_z
Si Si1 0.725360 0.107826 0.652393
Si Si2 0.912792 0.646758 0.974796
Si Si3 0.164704 0.868750 0.695769
Si Si4 0.557324 0.944785 0.113474
Si Si5 0.988307 0.088950 0.062693
Si Si6 0.723796 0.614610 0.865242
O O1 0.750000 0.250000 0.632316
O O2 0.663398 0.120962 0.724344
O O3 0.842523 0.022134 0.652875
O O4 0.635299 0.060332 0.597264
O O5 0.788947 0.630639 0.936546
O O6 0.986780 0.543077 0.933436
O O7 0.988493 0.770690 0.962011
O O8 0.891357 0.638189 0.053660
O O9 0.250000 0.750000 0.678884
O O10 0.221296 0.998308 0.672002
O O11 0.035800 0.871365 0.660323
O O12 0.089291 0.081173 0.119339
O O13 0.000000 0.000000 0.000000
O O14 0.750000 0.750000 0.832310
#
# Coordination Sequence:
#
# PCOD9431059 Si02
#       6
#     8   8   8   8   8   8
#     4  11  23  42  64  93 132 175 212 262 332 397
#     4   9  19  38  61  89 123 165 205 270 320 375
#     4  10  24  41  65  95 126 171 219 268 316 397
#     4  10  20  40  64  91 124 162 219 262 319 383
#     4  11  22  36  62  94 125 163 212 266 324 387
#     4   9  20  40  61  89 127 170 213 260 331 383
#
# _framework density 19.677706000000001
#
# number of rings (size 3 to 8) (size 9 to 14) (size 15 to 20)
#    0.000    2.000    1.667    1.000    4.667    0.000 
#    0.000    1.667    0.000    0.000    0.000    0.000 
#    0.000    0.000    0.000    0.000    0.000    0.000 
#
# Total GULP energy -267209.528402 kJ/mol
# GULP energy per Si atom -5566.865175 kJ/mol
# Density = 1.963292 g / cm^3
# Si number density = 19.677706 Si / 1000 Ang^3
#
#
#
# Elastic Constant Matrix: (Units=GPa)
#
#
# Indices 1 2 3 4 5 6 
#
# 1 88.7894 26.6349 35.4315 0.0000 0.0000 0.0000
# 2 26.6349 60.4910 14.6243 0.0000 0.0000 0.0000
# 3 35.4315 14.6243 69.6140 0.0000 0.0000 0.0000
# 4 0.0000 0.0000 0.0000 24.9710 0.0000 0.0000
# 5 0.0000 0.0000 0.0000 0.0000 -57.5459 0.0000
# 6 0.0000 0.0000 0.0000 0.0000 0.0000 32.0997
#
#
#
# Elastic Compliance Matrix: (Units=1/GPa)
#
#
# Indices 1 2 3 4 5 6 
#
# 1 0.015542 -0.005195 -0.006819 0.000000 0.000000 0.000000
# 2 -0.005195 0.019152 -0.001379 0.000000 0.000000 0.000000
# 3 -0.006819 -0.001379 0.018125 0.000000 0.000000 0.000000
# 4 0.000000 0.000000 0.000000 0.040046 0.000000 0.000000
# 5 0.000000 0.000000 0.000000 0.000000 -0.017377 0.000000
# 6 0.000000 0.000000 0.000000 0.000000 0.000000 0.031153
#
#
# Mechanical properties :
#
#
# Convention : Reuss Voigt Hill
#
# Bulk Modulus (GPa) = 38.41278 41.36397 39.88837
# Shear Modulus (GPa) = 35.18493 9.38522 22.28507
#
# Velocity S-wave (km/s) = 4.23313 2.18628 3.36892
# Velocity P-wave (km/s) = 6.59211 5.23827 5.95380
#
# Compressibility (1/GPa) = 0.02603300
#
# Stress axis : x y z
#
# Youngs Moduli (GPa) = 64.34118 52.21330 55.17090
#
# Poissons Ratio (x) = 0.27124 0.37622
# Poissons Ratio (y) = 0.33424 0.07610
# Poissons Ratio (z) = 0.43876 0.07202
#
# Static dielectric constant tensor:
#      x y z
#    x 1.929880 0.000000 0.000000 
#    y 0.000000 1.767940 0.000000 
#    z 0.000000 0.000000 1.689420 
# 
# From -- ./inp_files/15619.got.cif
#   From: 2010.05.17/outbox.cif.g08.bks.cpg/sg56_8_cif.got.tgz:15619.got - 2010.06.03 13:42:01.
