data_PCOD9431668
_publ_section_title
;
Structure prediction by ZEFSAII (Michael W. Deem and Ramdas Pophale) SiO2 
 PCOD9431668
Probable space group: P C C N
;
_chemical_formula_sum "Si O2"
_cell_formula_units_Z 56
_cell_length_a 14.718257
_cell_length_b 9.475298
_cell_length_c 18.430369
_cell_angle_alpha 90.000000
_cell_angle_beta 90.000000
_cell_angle_gamma 90.000000
_cell_volume 2570.296885
_symmetry_space_group_name_H-M "P C C N"
_symmetry_group_IT_number 56
_symmetry_cell_setting 'orthorhombic'
loop_
_space_group_symop_operation_xyz
x,y,z
1/2-x,1/2-y,z
1/2+x,-y,1/2-z
-x,1/2+y,1/2-z
-x,-y,-z
1/2+x,1/2+y,-z
1/2-x,y,1/2+z
x,1/2-y,1/2+z
loop_
_atom_site_type_symbol
_atom_site_label
_atom_site_fract_x
_atom_site_fract_y
_atom_site_fract_z
Si Si1 0.010757 0.398709 0.069338
Si Si2 0.796114 0.102034 0.208538
Si Si3 0.908745 0.134603 0.078305
Si Si4 0.426639 0.588443 0.090750
Si Si5 0.658284 0.808484 0.397078
Si Si6 0.329252 0.158831 0.767775
Si Si7 0.038201 0.865223 0.684261
O O1 0.928230 0.299986 0.097978
O O2 0.081552 0.271114 0.057475
O O3 0.046821 0.502587 0.130689
O O4 0.000000 0.500000 0.000000
O O5 0.750000 0.250000 0.222528
O O6 0.820680 0.088111 0.123200
O O7 0.894136 0.103621 0.249099
O O8 0.723803 0.988385 0.236115
O O9 0.910581 0.138165 0.991328
O O10 0.985202 0.015206 0.097311
O O11 0.347014 0.476254 0.103227
O O12 0.433904 0.719706 0.144393
O O13 0.750000 0.750000 0.427938
O O14 0.653375 0.772513 0.311584
O O15 0.250000 0.250000 0.806722
O O16 0.430287 0.146109 0.799174
#
# Coordination Sequence:
#
# PCOD9431668 Si02
#       7
#     8   8   8   8   8   8   8
#     4  11  22  41  66  95 130 175 227 278 352 419
#     4  12  26  44  68 103 140 180 235 298 363 423
#     4  10  22  43  62  94 140 173 221 292 344 417
#     4  10  21  40  68  94 127 182 228 272 352 422
#     4  10  22  42  64  93 133 174 222 286 344 419
#     4  11  24  43  67 101 136 182 239 292 360 429
#     4  12  23  42  73  99 134 183 236 294 346 435
#
# _framework density 21.787367
#
# number of rings (size 3 to 8) (size 9 to 14) (size 15 to 20)
#    0.000    1.143    1.429    6.000    0.000    3.429 
#    5.143    0.714    0.000    0.000    0.000    0.000 
#    0.000    0.000    0.000    0.000    0.000    0.000 
#
# Total GULP energy -312284.848241 kJ/mol
# GULP energy per Si atom -5576.515147 kJ/mol
# Density = 2.173778 g / cm^3
# Si number density = 21.787367 Si / 1000 Ang^3
#
#
#
# Elastic Constant Matrix: (Units=GPa)
#
#
# Indices 1 2 3 4 5 6 
#
# 1 96.7603 38.0639 31.7164 0.0000 0.0000 0.0000
# 2 38.0639 141.8704 26.7021 0.0000 0.0000 0.0000
# 3 31.7164 26.7021 67.9944 0.0000 0.0000 0.0000
# 4 0.0000 0.0000 0.0000 31.9092 0.0000 0.0000
# 5 0.0000 0.0000 0.0000 0.0000 14.8241 0.0000
# 6 0.0000 0.0000 0.0000 0.0000 0.0000 28.6194
#
#
#
# Elastic Compliance Matrix: (Units=1/GPa)
#
#
# Indices 1 2 3 4 5 6 
#
# 1 0.012991 -0.002532 -0.005065 0.000000 0.000000 0.000000
# 2 -0.002532 0.008105 -0.002002 0.000000 0.000000 0.000000
# 3 -0.005065 -0.002002 0.017856 0.000000 0.000000 0.000000
# 4 0.000000 0.000000 0.000000 0.031339 0.000000 0.000000
# 5 0.000000 0.000000 0.000000 0.000000 0.067458 0.000000
# 6 0.000000 0.000000 0.000000 0.000000 0.000000 0.034941
#
#
# Mechanical properties :
#
#
# Convention : Reuss Voigt Hill
#
# Bulk Modulus (GPa) = 50.62405 55.50998 53.06702
# Shear Modulus (GPa) = 25.19231 29.08004 27.13617
#
# Velocity S-wave (km/s) = 3.40410 3.65735 3.53299
# Velocity P-wave (km/s) = 6.22386 6.58546 6.40721
#
# Compressibility (1/GPa) = 0.01975346
#
# Stress axis : x y z
#
# Youngs Moduli (GPa) = 76.97446 123.38335 56.00356
#
# Poissons Ratio (x) = 0.31243 0.28368
# Poissons Ratio (y) = 0.19491 0.11210
# Poissons Ratio (z) = 0.38991 0.24697
#
# Static dielectric constant tensor:
#      x y z
#    x 1.971710 0.000000 0.000000 
#    y 0.000000 1.944960 0.000000 
#    z 0.000000 0.000000 1.813410 
# 
# From -- ./inp_files/19120.got.cif
#   From: 2010.05.17/outbox.cif.g08.bks.cpg/sg56_10_cif.got.tgz:19120.got - 2010.06.03 13:42:01.
