data_PCOD9431035
_publ_section_title
;
Structure prediction by ZEFSAII (Michael W. Deem and Ramdas Pophale) SiO2 
 PCOD9431035
Probable space group: P C C N
;
_chemical_formula_sum "Si O2"
_cell_formula_units_Z 64
_cell_length_a 12.327098
_cell_length_b 15.721561
_cell_length_c 13.424379
_cell_angle_alpha 90.000000
_cell_angle_beta 90.000000
_cell_angle_gamma 90.000000
_cell_volume 2601.661070
_symmetry_space_group_name_H-M "P C C N"
_symmetry_group_IT_number 56
_symmetry_cell_setting 'orthorhombic'
loop_
_space_group_symop_operation_xyz
x,y,z
1/2-x,1/2-y,z
1/2+x,-y,1/2-z
-x,1/2+y,1/2-z
-x,-y,-z
1/2+x,1/2+y,-z
1/2-x,y,1/2+z
x,1/2-y,1/2+z
loop_
_atom_site_type_symbol
_atom_site_label
_atom_site_fract_x
_atom_site_fract_y
_atom_site_fract_z
Si Si1 0.876376 0.059168 0.278167
Si Si2 0.307589 0.380476 0.086711
Si Si3 0.633577 0.253659 0.193802
Si Si4 0.345080 0.898142 0.676573
Si Si5 0.136300 0.278063 0.881144
Si Si6 0.116649 0.044559 0.287835
Si Si7 0.419279 0.299665 0.587878
Si Si8 0.410460 0.404928 0.870158
O O1 0.890875 0.147625 0.217062
O O2 0.777110 0.075527 0.354070
O O3 0.993600 0.043274 0.324937
O O4 0.866276 0.978439 0.202653
O O5 0.360868 0.439883 0.170063
O O6 0.176288 0.370967 0.096553
O O7 0.359340 0.289041 0.112345
O O8 0.351509 0.407651 0.977539
O O9 0.750000 0.250000 0.139192
O O10 0.652016 0.200854 0.295405
O O11 0.532880 0.206971 0.142551
O O12 0.459012 0.913635 0.620674
O O13 0.346620 0.946944 0.785903
O O14 0.250000 0.250000 0.930172
O O15 0.160880 0.367589 0.831234
O O16 0.105571 0.191180 0.825069
O O17 0.054586 0.293952 0.970086
#
# Coordination Sequence:
#
# PCOD9431035 Si02
#       8
#     8   8   8   8   8   8   8   8
#     4  10  21  39  62  90 129 169 219 263 311 390
#     4  10  21  38  63 100 128 161 212 277 337 389
#     4  10  21  41  65  89 131 181 217 261 317 397
#     4  10  23  38  61  93 125 175 220 258 322 388
#     4  11  21  38  63  95 131 162 202 277 334 383
#     4  11  23  37  65  94 130 169 216 272 330 389
#     4  10  20  40  61  96 129 164 215 265 336 390
#     4  10  21  39  63  97 131 165 213 277 329 383
#
# _framework density 24.599668000000001
#
# number of rings (size 3 to 8) (size 9 to 14) (size 15 to 20)
#    0.000    1.750    3.750    1.500    1.750    4.000 
#    0.000    3.125    2.750    0.000    0.000    0.000 
#    0.000    0.000    0.000    0.000    0.000    0.000 
#
# Total GULP energy -356501.982903 kJ/mol
# GULP energy per Si atom -5570.343483 kJ/mol
# Density = 2.454368 g / cm^3
# Si number density = 24.599668 Si / 1000 Ang^3
#
#
#
# Elastic Constant Matrix: (Units=GPa)
#
#
# Indices 1 2 3 4 5 6 
#
# 1 152.6405 -0.3411 18.9859 0.0000 0.0000 0.0000
# 2 -0.3411 107.1854 6.5544 0.0000 0.0000 0.0000
# 3 18.9859 6.5544 45.8262 0.0000 0.0000 0.0000
# 4 0.0000 0.0000 0.0000 15.3480 0.0000 0.0000
# 5 0.0000 0.0000 0.0000 0.0000 23.5723 0.0000
# 6 0.0000 0.0000 0.0000 0.0000 0.0000 41.3391
#
#
#
# Elastic Compliance Matrix: (Units=1/GPa)
#
#
# Indices 1 2 3 4 5 6 
#
# 1 0.006911 0.000199 -0.002892 0.000000 0.000000 0.000000
# 2 0.000199 0.009418 -0.001429 0.000000 0.000000 0.000000
# 3 -0.002892 -0.001429 0.023224 0.000000 0.000000 0.000000
# 4 0.000000 0.000000 0.000000 0.065155 0.000000 0.000000
# 5 0.000000 0.000000 0.000000 0.000000 0.042423 0.000000
# 6 0.000000 0.000000 0.000000 0.000000 0.000000 0.024190
#
#
# Mechanical properties :
#
#
# Convention : Reuss Voigt Hill
#
# Bulk Modulus (GPa) = 31.94023 39.56115 35.75069
# Shear Modulus (GPa) = 26.31551 34.74874 30.53212
#
# Velocity S-wave (km/s) = 3.27425 3.76249 3.52683
# Velocity P-wave (km/s) = 5.22556 5.91541 5.58115
#
# Compressibility (1/GPa) = 0.03130848
#
# Stress axis : x y z
#
# Youngs Moduli (GPa) = 144.68666 106.18340 43.05866
#
# Poissons Ratio (x) = -0.02111 0.12452
# Poissons Ratio (y) = -0.02877 0.06155
# Poissons Ratio (z) = 0.41842 0.15177
#
# Static dielectric constant tensor:
#      x y z
#    x 2.080420 0.000000 0.000000 
#    y 0.000000 2.109780 0.000000 
#    z 0.000000 0.000000 1.990470 
# 
# From -- ./inp_files/15798.got.cif
#   From: 2010.05.17/outbox.cif.g08.bks.cpg/sg56_8_cif.got.tgz:15798.got - 2010.06.03 13:42:01.
