data_PCOD9431289
_publ_section_title
;
Structure prediction by ZEFSAII (Michael W. Deem and Ramdas Pophale) SiO2 
 PCOD9431289
Probable space group: P C C N
;
_chemical_formula_sum "Si O2"
_cell_formula_units_Z 40
_cell_length_a 18.353106
_cell_length_b 5.173691
_cell_length_c 17.904138
_cell_angle_alpha 90.000000
_cell_angle_beta 90.000000
_cell_angle_gamma 90.000000
_cell_volume 1700.056975
_symmetry_space_group_name_H-M "P C C N"
_symmetry_group_IT_number 56
_symmetry_cell_setting 'orthorhombic'
loop_
_space_group_symop_operation_xyz
x,y,z
1/2-x,1/2-y,z
1/2+x,-y,1/2-z
-x,1/2+y,1/2-z
-x,-y,-z
1/2+x,1/2+y,-z
1/2-x,y,1/2+z
x,1/2-y,1/2+z
loop_
_atom_site_type_symbol
_atom_site_label
_atom_site_fract_x
_atom_site_fract_y
_atom_site_fract_z
Si Si1 0.089455 0.750833 0.014514
Si Si2 0.437427 0.256758 0.921439
Si Si3 0.705549 0.504772 0.806816
Si Si4 0.768861 0.499169 0.970117
Si Si5 0.049182 0.381233 0.758071
O O1 0.069263 0.532848 0.953681
O O2 0.102135 0.020153 0.970040
O O3 0.150948 0.578166 0.056214
O O4 0.023281 0.816907 0.068959
O O5 0.419666 0.236942 0.835237
O O6 0.750000 0.250000 0.782779
O O7 0.717343 0.516205 0.897378
O O8 0.620508 0.530993 0.788363
O O9 0.750000 0.750000 0.776948
O O10 0.750000 0.750000 0.014966
O O11 0.750000 0.250000 0.018026
O O12 0.999739 0.639704 0.772490
#
# Coordination Sequence:
#
# PCOD9431289 Si02
#       5
#     8   8   8   8   8
#     4  10  21  41  63  93 134 178 234 290 358 422
#     4  10  23  40  64  96 136 179 228 296 358 421
#     4  10  23  42  64 100 138 187 232 297 350 428
#     4  10  21  35  64  95 130 170 237 285 343 412
#     4  12  26  42  71 106 146 190 240 295 368 430
#
# _framework density 23.528624000000001
#
# number of rings (size 3 to 8) (size 9 to 14) (size 15 to 20)
#    0.000    1.600    0.000    3.600   11.200    0.000 
#    0.000    4.000    0.000    0.000    0.000    0.000 
#    0.000    0.000    0.000    0.000    0.000    0.000 
#
# Total GULP energy -222738.906148 kJ/mol
# GULP energy per Si atom -5568.472654 kJ/mol
# Density = 2.347507 g / cm^3
# Si number density = 23.528624 Si / 1000 Ang^3
#
#
#
# Elastic Constant Matrix: (Units=GPa)
#
#
# Indices 1 2 3 4 5 6 
#
# 1 136.9086 62.5446 24.0800 0.0000 0.0000 0.0000
# 2 62.5446 212.1222 5.1827 0.0000 0.0000 0.0000
# 3 24.0800 5.1827 63.7049 0.0000 0.0000 0.0000
# 4 0.0000 0.0000 0.0000 44.5337 0.0000 0.0000
# 5 0.0000 0.0000 0.0000 0.0000 27.2002 0.0000
# 6 0.0000 0.0000 0.0000 0.0000 0.0000 44.3730
#
#
#
# Elastic Compliance Matrix: (Units=1/GPa)
#
#
# Indices 1 2 3 4 5 6 
#
# 1 0.009052 -0.002591 -0.003211 0.000000 0.000000 0.000000
# 2 -0.002591 0.005465 0.000535 0.000000 0.000000 0.000000
# 3 -0.003211 0.000535 0.016868 0.000000 0.000000 0.000000
# 4 0.000000 0.000000 0.000000 0.022455 0.000000 0.000000
# 5 0.000000 0.000000 0.000000 0.000000 0.036764 0.000000
# 6 0.000000 0.000000 0.000000 0.000000 0.000000 0.022536
#
#
# Mechanical properties :
#
#
# Convention : Reuss Voigt Hill
#
# Bulk Modulus (GPa) = 47.95914 66.26112 57.11013
# Shear Modulus (GPa) = 38.27752 44.61662 41.44707
#
# Velocity S-wave (km/s) = 4.03780 4.35934 4.20165
# Velocity P-wave (km/s) = 6.49353 7.31858 6.91836
#
# Compressibility (1/GPa) = 0.02085108
#
# Stress axis : x y z
#
# Youngs Moduli (GPa) = 110.46782 182.98047 59.28523
#
# Poissons Ratio (x) = 0.47404 0.19036
# Poissons Ratio (y) = 0.28619 -0.03170
# Poissons Ratio (z) = 0.35471 -0.09783
#
# Static dielectric constant tensor:
#      x y z
#    x 2.129870 0.000000 0.000000 
#    y 0.000000 2.162970 0.000000 
#    z 0.000000 0.000000 1.862810 
# 
# From -- ./inp_files/13823.got.cif
#   From: 2010.05.17/outbox.cif.g08.bks.cpg/sg56_7_cif.got.tgz:13823.got - 2010.06.03 13:42:01.
