data_PCOD9431290
_publ_section_title
;
Structure prediction by ZEFSAII (Michael W. Deem and Ramdas Pophale) SiO2 
 PCOD9431290
Probable space group: P C C N
;
_chemical_formula_sum "Si O2"
_cell_formula_units_Z 56
_cell_length_a 14.454847
_cell_length_b 29.117394
_cell_length_c 5.192312
_cell_angle_alpha 90.000000
_cell_angle_beta 90.000000
_cell_angle_gamma 90.000000
_cell_volume 2185.379089
_symmetry_space_group_name_H-M "P C C N"
_symmetry_group_IT_number 56
_symmetry_cell_setting 'orthorhombic'
loop_
_space_group_symop_operation_xyz
x,y,z
1/2-x,1/2-y,z
1/2+x,-y,1/2-z
-x,1/2+y,1/2-z
-x,-y,-z
1/2+x,1/2+y,-z
1/2-x,y,1/2+z
x,1/2-y,1/2+z
loop_
_atom_site_type_symbol
_atom_site_label
_atom_site_fract_x
_atom_site_fract_y
_atom_site_fract_z
Si Si1 0.493338 0.223228 0.891092
Si Si2 0.852578 0.093130 0.341555
Si Si3 0.195275 0.424260 0.724286
Si Si4 0.507550 0.938307 0.777858
Si Si5 0.302285 0.688446 0.481127
Si Si6 0.640253 0.009706 0.568944
Si Si7 0.023423 0.368498 0.604054
O O1 0.470002 0.263842 0.686727
O O2 0.602103 0.210932 0.927075
O O3 0.453056 0.179326 0.737953
O O4 0.933124 0.066526 0.498767
O O5 0.807153 0.132380 0.514144
O O6 0.802794 0.051647 0.194938
O O7 0.914242 0.124306 0.148535
O O8 0.248789 0.408302 0.470102
O O9 0.185075 0.478240 0.653670
O O10 0.092378 0.404740 0.738881
O O11 0.445015 0.962487 0.556786
O O12 0.534226 0.886401 0.689330
O O13 0.597422 0.971642 0.770950
O O14 0.274538 0.700895 0.192530
#
# Coordination Sequence:
#
# PCOD9431290 Si02
#       7
#     8   8   8   8   8   8   8
#     4  11  25  43  73 100 120 159 211 265 317 380
#     4  10  21  35  67  84 126 177 225 266 308 364
#     4  11  26  41  61  91 130 173 207 262 330 379
#     4   9  18  35  61  85 121 170 215 273 315 353
#     4  11  26  42  61  93 137 173 204 249 321 388
#     4   9  20  35  54  90 119 167 227 269 307 356
#     4   9  23  41  64  94 124 163 218 265 317 393
#
# _framework density 25.624845000000001
#
# number of rings (size 3 to 8) (size 9 to 14) (size 15 to 20)
#    0.000    2.000    0.000    2.143   16.000    2.857 
#    0.000    0.000    0.000    2.571    0.000    0.000 
#    0.000    0.000    0.000    0.000    0.000    0.000 
#
# Total GULP energy -312578.654111 kJ/mol
# GULP energy per Si atom -5581.761681 kJ/mol
# Density = 2.556652 g / cm^3
# Si number density = 25.624845 Si / 1000 Ang^3
#
#
#
# Elastic Constant Matrix: (Units=GPa)
#
#
# Indices 1 2 3 4 5 6 
#
# 1 41.7754 5.1633 11.9878 0.0000 0.0000 0.0000
# 2 5.1633 82.9026 8.8142 0.0000 0.0000 0.0000
# 3 11.9878 8.8142 115.7468 0.0000 0.0000 0.0000
# 4 0.0000 0.0000 0.0000 24.9247 0.0000 0.0000
# 5 0.0000 0.0000 0.0000 0.0000 34.1748 0.0000
# 6 0.0000 0.0000 0.0000 0.0000 0.0000 25.8346
#
#
#
# Elastic Compliance Matrix: (Units=1/GPa)
#
#
# Indices 1 2 3 4 5 6 
#
# 1 0.024805 -0.001282 -0.002471 0.000000 0.000000 0.000000
# 2 -0.001282 0.012227 -0.000798 0.000000 0.000000 0.000000
# 3 -0.002471 -0.000798 0.008956 0.000000 0.000000 0.000000
# 4 0.000000 0.000000 0.000000 0.040121 0.000000 0.000000
# 5 0.000000 0.000000 0.000000 0.000000 0.029261 0.000000
# 6 0.000000 0.000000 0.000000 0.000000 0.000000 0.038708
#
#
# Mechanical properties :
#
#
# Convention : Reuss Voigt Hill
#
# Bulk Modulus (GPa) = 27.11139 32.48391 29.79765
# Shear Modulus (GPa) = 28.49373 31.28412 29.88892
#
# Velocity S-wave (km/s) = 3.33822 3.49786 3.41897
# Velocity P-wave (km/s) = 5.04593 5.38680 5.21915
#
# Compressibility (1/GPa) = 0.03688486
#
# Stress axis : x y z
#
# Youngs Moduli (GPa) = 40.31412 81.78566 111.65329
#
# Poissons Ratio (x) = 0.10486 0.27594
# Poissons Ratio (y) = 0.05169 0.08913
# Poissons Ratio (z) = 0.09963 0.06529
#
# Static dielectric constant tensor:
#      x y z
#    x 2.028400 0.000000 0.000000 
#    y 0.000000 2.103630 0.000000 
#    z 0.000000 0.000000 2.149440 
# 
# From -- ./inp_files/586.got.cif
#   From: 2010.05.17/outbox.cif.g08.bks.cpg/sg56_1_cif.got.tgz:586.got - 2010.06.03 13:42:01.
