data_PCOD9431464
_publ_section_title
;
Structure prediction by ZEFSAII (Michael W. Deem and Ramdas Pophale) SiO2 
 PCOD9431464
Probable space group: P C C N
;
_chemical_formula_sum "Si O2"
_cell_formula_units_Z 32
_cell_length_a 17.341063
_cell_length_b 4.959892
_cell_length_c 17.494931
_cell_angle_alpha 90.000000
_cell_angle_beta 90.000000
_cell_angle_gamma 90.000000
_cell_volume 1504.735510
_symmetry_space_group_name_H-M "P C C N"
_symmetry_group_IT_number 56
_symmetry_cell_setting 'orthorhombic'
loop_
_space_group_symop_operation_xyz
x,y,z
1/2-x,1/2-y,z
1/2+x,-y,1/2-z
-x,1/2+y,1/2-z
-x,-y,-z
1/2+x,1/2+y,-z
1/2-x,y,1/2+z
x,1/2-y,1/2+z
loop_
_atom_site_type_symbol
_atom_site_label
_atom_site_fract_x
_atom_site_fract_y
_atom_site_fract_z
Si Si1 0.804414 0.496635 0.981688
Si Si2 0.030335 0.603407 0.789114
Si Si3 0.031818 0.257142 0.048721
Si Si4 0.196605 0.987405 0.342419
O O1 0.750000 0.250000 0.950386
O O2 0.825587 0.415638 0.069267
O O3 0.750000 0.750000 0.990199
O O4 0.879013 0.639793 0.943359
O O5 0.117241 0.496281 0.797090
O O6 0.978825 0.340482 0.772627
O O7 0.004068 0.745513 0.867402
O O8 0.000000 0.500000 0.000000
O O9 0.000000 0.000000 0.000000
O O10 0.250000 0.750000 0.311824
O O11 0.250000 0.250000 0.340929
#
# Coordination Sequence:
#
# PCOD9431464 Si02
#       4
#     8   8   8   8
#     4  10  21  38  64  99 131 165 227 289 335 391
#     4  12  26  44  66 102 141 180 225 278 342 410
#     4  12  24  42  70  98 133 176 231 282 342 402
#     4  10  21  39  66  94 129 174 227 276 331 406
#
# _framework density 21.266193999999999
#
# number of rings (size 3 to 8) (size 9 to 14) (size 15 to 20)
#    0.000    1.000    2.500    4.500    7.000    0.000 
#    0.000    7.500    0.000    0.000    0.000    0.000 
#    0.000    0.000    0.000    0.000    0.000    0.000 
#
# Total GULP energy -178241.203788 kJ/mol
# GULP energy per Si atom -5570.037618 kJ/mol
# Density = 2.121779 g / cm^3
# Si number density = 21.266194 Si / 1000 Ang^3
#
#
#
# Elastic Constant Matrix: (Units=GPa)
#
#
# Indices 1 2 3 4 5 6 
#
# 1 141.3369 38.9222 30.6686 0.0000 0.0000 0.0000
# 2 38.9222 149.1790 22.4930 0.0000 0.0000 0.0000
# 3 30.6686 22.4930 39.6992 0.0000 0.0000 0.0000
# 4 0.0000 0.0000 0.0000 28.1176 0.0000 0.0000
# 5 0.0000 0.0000 0.0000 0.0000 5.3043 0.0000
# 6 0.0000 0.0000 0.0000 0.0000 0.0000 37.6200
#
#
#
# Elastic Compliance Matrix: (Units=1/GPa)
#
#
# Indices 1 2 3 4 5 6 
#
# 1 0.008753 -0.001382 -0.005979 0.000000 0.000000 0.000000
# 2 -0.001382 0.007548 -0.003209 0.000000 0.000000 0.000000
# 3 -0.005979 -0.003209 0.031626 0.000000 0.000000 0.000000
# 4 0.000000 0.000000 0.000000 0.035565 0.000000 0.000000
# 5 0.000000 0.000000 0.000000 0.000000 0.188528 0.000000
# 6 0.000000 0.000000 0.000000 0.000000 0.000000 0.026582
#
#
# Mechanical properties :
#
#
# Convention : Reuss Voigt Hill
#
# Bulk Modulus (GPa) = 37.33066 57.15365 47.24215
# Shear Modulus (GPa) = 15.21279 30.08378 22.64829
#
# Velocity S-wave (km/s) = 2.67751 3.76524 3.26696
# Velocity P-wave (km/s) = 5.21064 6.77026 6.04099
#
# Compressibility (1/GPa) = 0.02678764
#
# Stress axis : x y z
#
# Youngs Moduli (GPa) = 114.24208 132.48879 31.61927
#
# Poissons Ratio (x) = 0.18314 0.18905
# Poissons Ratio (y) = 0.15792 0.10145
# Poissons Ratio (z) = 0.68305 0.42510
#
# Static dielectric constant tensor:
#      x y z
#    x 1.367930 0.000000 0.000000 
#    y 0.000000 1.783280 0.000000 
#    z 0.000000 0.000000 1.797400 
# 
# From -- ./inp_files/13699.got.cif
#   From: 2010.05.17/outbox.cif.g08.bks.cpg/sg56_7_cif.got.tgz:13699.got - 2010.06.03 13:42:01.
