data_PCOD9431651
_publ_section_title
;
Structure prediction by ZEFSAII (Michael W. Deem and Ramdas Pophale) SiO2 
 PCOD9431651
Probable space group: P C C N
;
_chemical_formula_sum "Si O2"
_cell_formula_units_Z 40
_cell_length_a 15.114857
_cell_length_b 8.337313
_cell_length_c 13.383381
_cell_angle_alpha 90.000000
_cell_angle_beta 90.000000
_cell_angle_gamma 90.000000
_cell_volume 1686.537455
_symmetry_space_group_name_H-M "P C C N"
_symmetry_group_IT_number 56
_symmetry_cell_setting 'orthorhombic'
loop_
_space_group_symop_operation_xyz
x,y,z
1/2-x,1/2-y,z
1/2+x,-y,1/2-z
-x,1/2+y,1/2-z
-x,-y,-z
1/2+x,1/2+y,-z
1/2-x,y,1/2+z
x,1/2-y,1/2+z
loop_
_atom_site_type_symbol
_atom_site_label
_atom_site_fract_x
_atom_site_fract_y
_atom_site_fract_z
Si Si1 0.902450 0.950340 0.706574
Si Si2 0.845391 0.889913 0.182440
Si Si3 0.712142 0.420448 0.559175
Si Si4 0.602326 0.424892 0.373850
Si Si5 0.961427 0.427049 0.398849
O O1 0.835693 0.801952 0.688994
O O2 0.998478 0.957311 0.652166
O O3 0.848691 0.097683 0.658462
O O4 0.914450 0.949029 0.825251
O O5 0.950076 0.885703 0.160898
O O6 0.795287 0.971710 0.090543
O O7 0.841195 0.001535 0.281695
O O8 0.750000 0.250000 0.528818
O O9 0.647810 0.492808 0.474362
O O10 0.597113 0.233717 0.396788
O O11 0.000000 0.500000 0.500000
#
# Coordination Sequence:
#
# PCOD9431651 Si02
#       5
#     8   8   8   8   8
#     4  10  23  44  67  93 132 173 217 267 326 398
#     4  10  23  41  64  94 128 167 216 271 326 381
#     4  12  24  40  65  97 130 170 218 274 328 383
#     4  10  23  43  68  96 130 175 219 266 327 399
#     4  10  21  40  66  96 128 171 216 262 323 395
#
# _framework density 23.717234000000001
#
# number of rings (size 3 to 8) (size 9 to 14) (size 15 to 20)
#    0.000    1.600    0.000    3.600    0.000   13.600 
#    0.000    4.000    0.000    0.000    0.000    0.000 
#    0.000    0.000    0.000    0.000    0.000    0.000 
#
# Total GULP energy -222828.806990 kJ/mol
# GULP energy per Si atom -5570.720175 kJ/mol
# Density = 2.366325 g / cm^3
# Si number density = 23.717234 Si / 1000 Ang^3
#
#
#
# Elastic Constant Matrix: (Units=GPa)
#
#
# Indices 1 2 3 4 5 6 
#
# 1 92.4992 28.0138 37.2766 0.0000 0.0000 0.0000
# 2 28.0138 34.4901 9.7834 0.0000 0.0000 0.0000
# 3 37.2766 9.7834 115.3838 0.0000 0.0000 0.0000
# 4 0.0000 0.0000 0.0000 14.9951 0.0000 0.0000
# 5 0.0000 0.0000 0.0000 0.0000 34.5236 0.0000
# 6 0.0000 0.0000 0.0000 0.0000 0.0000 29.7002
#
#
#
# Elastic Compliance Matrix: (Units=1/GPa)
#
#
# Indices 1 2 3 4 5 6 
#
# 1 0.016101 -0.011888 -0.004194 0.000000 0.000000 0.000000
# 2 -0.011888 0.038486 0.000577 0.000000 0.000000 0.000000
# 3 -0.004194 0.000577 0.009973 0.000000 0.000000 0.000000
# 4 0.000000 0.000000 0.000000 0.066689 0.000000 0.000000
# 5 0.000000 0.000000 0.000000 0.000000 0.028966 0.000000
# 6 0.000000 0.000000 0.000000 0.000000 0.000000 0.033670
#
#
# Mechanical properties :
#
#
# Convention : Reuss Voigt Hill
#
# Bulk Modulus (GPa) = 29.80558 43.61341 36.70949
# Shear Modulus (GPa) = 21.17950 26.99706 24.08828
#
# Velocity S-wave (km/s) = 2.99155 3.37751 3.19038
# Velocity P-wave (km/s) = 4.95246 5.79991 5.39286
#
# Compressibility (1/GPa) = 0.03355077
#
# Stress axis : x y z
#
# Youngs Moduli (GPa) = 62.10625 25.98336 100.27439
#
# Poissons Ratio (x) = 0.30890 0.42053
# Poissons Ratio (y) = 0.73835 -0.05791
# Poissons Ratio (z) = 0.26046 -0.01501
#
# Static dielectric constant tensor:
#      x y z
#    x 1.919180 0.000000 0.000000 
#    y 0.000000 2.172090 0.000000 
#    z 0.000000 0.000000 1.939580 
# 
# From -- ./inp_files/6178.got.cif
#   From: 2010.05.17/outbox.cif.g08.bks.cpg/sg56_4_cif.got.tgz:6178.got - 2010.06.03 13:42:01.
