data_PCOD9431581
_publ_section_title
;
Structure prediction by ZEFSAII (Michael W. Deem and Ramdas Pophale) SiO2 
 PCOD9431581
Probable space group: P C C N
;
_chemical_formula_sum "Si O2"
_cell_formula_units_Z 64
_cell_length_a 9.078930
_cell_length_b 22.120786
_cell_length_c 13.326843
_cell_angle_alpha 90.000000
_cell_angle_beta 90.000000
_cell_angle_gamma 90.000000
_cell_volume 2676.470762
_symmetry_space_group_name_H-M "P C C N"
_symmetry_group_IT_number 56
_symmetry_cell_setting 'orthorhombic'
loop_
_space_group_symop_operation_xyz
x,y,z
1/2-x,1/2-y,z
1/2+x,-y,1/2-z
-x,1/2+y,1/2-z
-x,-y,-z
1/2+x,1/2+y,-z
1/2-x,y,1/2+z
x,1/2-y,1/2+z
loop_
_atom_site_type_symbol
_atom_site_label
_atom_site_fract_x
_atom_site_fract_y
_atom_site_fract_z
Si Si1 0.603661 0.310012 0.999609
Si Si2 0.733950 0.123209 0.666563
Si Si3 0.165448 0.368916 0.424798
Si Si4 0.457622 0.185560 0.995986
Si Si5 0.578338 0.632250 0.307493
Si Si6 0.130410 0.502488 0.374911
Si Si7 0.780330 0.520518 0.338271
Si Si8 0.323089 0.606854 0.610997
O O1 0.448012 0.343352 0.005581
O O2 0.558865 0.242522 0.969206
O O3 0.690277 0.347744 0.915491
O O4 0.693845 0.317821 0.102480
O O5 0.644957 0.119674 0.771044
O O6 0.905657 0.113902 0.691009
O O7 0.682548 0.068708 0.594001
O O8 0.308956 0.327958 0.437646
O O9 0.117723 0.359320 0.308627
O O10 0.161561 0.442101 0.438468
O O11 0.551322 0.126609 0.965486
O O12 0.420984 0.187385 0.114079
O O13 0.693307 0.583479 0.354871
O O14 0.230909 0.491093 0.276937
O O15 0.956322 0.511185 0.350763
O O16 0.709953 0.463761 0.395372
#
# Coordination Sequence:
#
# PCOD9431581 Si02
#       8
#     8   8   8   8   8   8   8   8
#     4  12  25  50  67 101 143 185 248 286 340 426
#     4  11  25  43  75 104 145 185 235 301 360 423
#     4  11  25  47  72 100 149 183 232 300 359 421
#     4  12  29  44  72 102 141 190 245 290 342 435
#     4  11  25  46  70 107 145 183 236 300 364 418
#     4  10  21  40  70 105 140 182 230 295 363 433
#     4  10  21  39  70 104 144 178 235 293 361 439
#     4  11  23  45  70 106 137 187 235 291 358 414
#
# _framework density 23.912087
#
# number of rings (size 3 to 8) (size 9 to 14) (size 15 to 20)
#    0.000    1.000    3.750    3.000   10.500    3.000 
#    2.250    1.250    0.000    0.000    0.000    0.000 
#    0.000    0.000    0.000    0.000    0.000    0.000 
#
# Total GULP energy -357368.462596 kJ/mol
# GULP energy per Si atom -5583.882228 kJ/mol
# Density = 2.385766 g / cm^3
# Si number density = 23.912087 Si / 1000 Ang^3
#
#
#
# Elastic Constant Matrix: (Units=GPa)
#
#
# Indices 1 2 3 4 5 6 
#
# 1 78.3210 -0.4125 7.4134 0.0000 0.0000 0.0000
# 2 -0.4125 60.3984 -1.2536 0.0000 0.0000 0.0000
# 3 7.4134 -1.2536 84.3324 0.0000 0.0000 0.0000
# 4 0.0000 0.0000 0.0000 25.2710 0.0000 0.0000
# 5 0.0000 0.0000 0.0000 0.0000 37.8072 0.0000
# 6 0.0000 0.0000 0.0000 0.0000 0.0000 38.2167
#
#
#
# Elastic Compliance Matrix: (Units=1/GPa)
#
#
# Indices 1 2 3 4 5 6 
#
# 1 0.012875 0.000064 -0.001131 0.000000 0.000000 0.000000
# 2 0.000064 0.016562 0.000241 0.000000 0.000000 0.000000
# 3 -0.001131 0.000241 0.011961 0.000000 0.000000 0.000000
# 4 0.000000 0.000000 0.000000 0.039571 0.000000 0.000000
# 5 0.000000 0.000000 0.000000 0.000000 0.026450 0.000000
# 6 0.000000 0.000000 0.000000 0.000000 0.000000 0.026167
#
#
# Mechanical properties :
#
#
# Convention : Reuss Voigt Hill
#
# Bulk Modulus (GPa) = 25.15939 26.06070 25.61005
# Shear Modulus (GPa) = 33.67308 34.74595 34.20951
#
# Velocity S-wave (km/s) = 3.75667 3.81605 3.78648
# Velocity P-wave (km/s) = 5.41860 5.50804 5.46351
#
# Compressibility (1/GPa) = 0.03974659
#
# Stress axis : x y z
#
# Youngs Moduli (GPa) = 77.66778 60.37861 83.60626
#
# Poissons Ratio (x) = -0.00389 0.09455
# Poissons Ratio (y) = -0.00501 -0.02011
# Poissons Ratio (z) = 0.08783 -0.01452
#
# Static dielectric constant tensor:
#      x y z
#    x 1.978110 0.000000 0.000000 
#    y 0.000000 1.995510 0.000000 
#    z 0.000000 0.000000 1.953390 
# 
# From -- ./inp_files/11032.got.cif
#   From: 2010.05.17/outbox.cif.g08.bks.cpg/sg56_6_cif.got.tgz:11032.got - 2010.06.03 13:42:01.
