data_PCOD9431064
_publ_section_title
;
Structure prediction by ZEFSAII (Michael W. Deem and Ramdas Pophale) SiO2 
 PCOD9431064
Probable space group: P C C N
;
_chemical_formula_sum "Si O2"
_cell_formula_units_Z 60
_cell_length_a 11.667811
_cell_length_b 20.321913
_cell_length_c 12.865108
_cell_angle_alpha 90.000000
_cell_angle_beta 90.000000
_cell_angle_gamma 90.000000
_cell_volume 3050.474576
_symmetry_space_group_name_H-M "P C C N"
_symmetry_group_IT_number 56
_symmetry_cell_setting 'orthorhombic'
loop_
_space_group_symop_operation_xyz
x,y,z
1/2-x,1/2-y,z
1/2+x,-y,1/2-z
-x,1/2+y,1/2-z
-x,-y,-z
1/2+x,1/2+y,-z
1/2-x,y,1/2+z
x,1/2-y,1/2+z
loop_
_atom_site_type_symbol
_atom_site_label
_atom_site_fract_x
_atom_site_fract_y
_atom_site_fract_z
Si Si1 0.602074 0.017377 0.420893
Si Si2 0.587514 0.158405 0.100988
Si Si3 0.754273 0.934554 0.775828
Si Si4 0.867890 0.602469 0.974670
Si Si5 0.750000 0.250000 0.465698
Si Si6 0.062394 0.664191 0.658699
Si Si7 0.703323 0.676801 0.116075
Si Si8 0.198399 0.517077 0.911774
O O1 0.581930 0.086380 0.362854
O O2 0.713580 0.025096 0.493755
O O3 0.500000 0.000000 0.500000
O O4 0.633824 0.959637 0.338870
O O5 0.676868 0.202537 0.039693
O O6 0.565743 0.180261 0.218818
O O7 0.634946 0.084297 0.107828
O O8 0.470990 0.152940 0.035076
O O9 0.752710 0.866355 0.712545
O O10 0.734781 0.990407 0.689094
O O11 0.655377 0.927025 0.861061
O O12 0.754380 0.639421 0.015518
O O13 0.885949 0.542307 0.054070
O O14 0.839369 0.293220 0.398020
O O15 0.933784 0.677268 0.618380
O O16 0.750000 0.750000 0.120360
#
# Coordination Sequence:
#
# PCOD9431064 Si02
#       8
#     8   8   8   8   4   8   8   8
#     4  11  22  40  67 101 135 172 220 282 340 397
#     4  12  23  45  66  96 135 181 218 273 339 403
#     4  10  20  40  65 100 133 166 228 270 341 397
#     4  10  22  40  68  99 131 169 225 281 333 392
#     4  12  28  46  64 100 138 184 228 270 340 414
#     4  12  24  47  71  93 140 179 226 280 336 414
#     4  11  24  45  68  99 134 179 228 281 336 400
#     4  10  21  38  66  98 132 171 214 275 335 397
#
# _framework density 19.669070999999999
#
# number of rings (size 3 to 8) (size 9 to 14) (size 15 to 20)
#    0.000    1.067    4.000    4.000    0.000    0.533 
#    4.800    2.667    0.000    0.000    0.000    0.000 
#    0.000    0.000    0.000    0.000    0.000    0.000 
#
# Total GULP energy -335022.813689 kJ/mol
# GULP energy per Si atom -5583.713561 kJ/mol
# Density = 1.962430 g / cm^3
# Si number density = 19.669071 Si / 1000 Ang^3
#
#
#
# Elastic Constant Matrix: (Units=GPa)
#
#
# Indices 1 2 3 4 5 6 
#
# 1 121.1241 44.5189 48.1409 0.0000 0.0000 0.0000
# 2 44.5189 92.2214 27.7272 0.0000 0.0000 0.0000
# 3 48.1409 27.7272 77.1692 0.0000 0.0000 0.0000
# 4 0.0000 0.0000 0.0000 16.5705 0.0000 0.0000
# 5 0.0000 0.0000 0.0000 0.0000 33.6508 0.0000
# 6 0.0000 0.0000 0.0000 0.0000 0.0000 33.4363
#
#
#
# Elastic Compliance Matrix: (Units=1/GPa)
#
#
# Indices 1 2 3 4 5 6 
#
# 1 0.012183 -0.004032 -0.006151 0.000000 0.000000 0.000000
# 2 -0.004032 0.013491 -0.002332 0.000000 0.000000 0.000000
# 3 -0.006151 -0.002332 0.017634 0.000000 0.000000 0.000000
# 4 0.000000 0.000000 0.000000 0.060348 0.000000 0.000000
# 5 0.000000 0.000000 0.000000 0.000000 0.029717 0.000000
# 6 0.000000 0.000000 0.000000 0.000000 0.000000 0.029908
#
#
# Mechanical properties :
#
#
# Convention : Reuss Voigt Hill
#
# Bulk Modulus (GPa) = 54.71355 59.03207 56.87281
# Shear Modulus (GPa) = 25.71973 28.07336 26.89654
#
# Velocity S-wave (km/s) = 3.62003 3.78204 3.70192
# Velocity P-wave (km/s) = 6.73426 7.01068 6.87386
#
# Compressibility (1/GPa) = 0.01827701
#
# Stress axis : x y z
#
# Youngs Moduli (GPa) = 82.08371 74.12405 56.70858
#
# Poissons Ratio (x) = 0.29884 0.34884
# Poissons Ratio (y) = 0.33093 0.13226
# Poissons Ratio (z) = 0.50493 0.17288
#
# Static dielectric constant tensor:
#      x y z
#    x 1.703570 0.000000 0.000000 
#    y 0.000000 1.677820 0.000000 
#    z 0.000000 0.000000 1.702620 
# 
# From -- ./inp_files/7333.got.cif
#   From: 2010.05.17/outbox.cif.g08.bks.cpg/sg56_4_cif.got.tgz:7333.got - 2010.06.03 13:42:01.
