data_PCOD9431905
_publ_section_title
;
Structure prediction by ZEFSAII (Michael W. Deem and Ramdas Pophale) SiO2 
 PCOD9431905
Probable space group: P C C N
;
_chemical_formula_sum "Si O2"
_cell_formula_units_Z 60
_cell_length_a 21.872659
_cell_length_b 5.270581
_cell_length_c 26.858321
_cell_angle_alpha 90.000000
_cell_angle_beta 90.000000
_cell_angle_gamma 90.000000
_cell_volume 3096.270781
_symmetry_space_group_name_H-M "P C C N"
_symmetry_group_IT_number 56
_symmetry_cell_setting 'orthorhombic'
loop_
_space_group_symop_operation_xyz
x,y,z
1/2-x,1/2-y,z
1/2+x,-y,1/2-z
-x,1/2+y,1/2-z
-x,-y,-z
1/2+x,1/2+y,-z
1/2-x,y,1/2+z
x,1/2-y,1/2+z
loop_
_atom_site_type_symbol
_atom_site_label
_atom_site_fract_x
_atom_site_fract_y
_atom_site_fract_z
Si Si1 0.817488 0.141378 0.929217
Si Si2 0.884895 0.932453 0.093484
Si Si3 0.618829 0.842890 0.900332
Si Si4 0.668854 0.169672 0.032530
Si Si5 0.059283 0.180161 0.500432
Si Si6 0.250000 0.250000 0.429652
Si Si7 0.543242 0.690280 0.302955
Si Si8 0.461616 0.188568 0.309065
O O1 0.750000 0.250000 0.921698
O O2 0.861821 0.365379 0.909660
O O3 0.827965 0.865018 0.906839
O O4 0.828350 0.123182 0.988654
O O5 0.932521 0.867628 0.047313
O O6 0.816397 0.806689 0.094616
O O7 0.917683 0.863820 0.144515
O O8 0.863579 0.218874 0.081413
O O9 0.593227 0.829493 0.845273
O O10 0.569212 0.743435 0.941782
O O11 0.620615 0.976593 0.009463
O O12 0.729464 0.005588 0.042019
O O13 0.000000 0.000000 0.500000
O O14 0.495130 0.460729 0.311977
O O15 0.567216 0.672659 0.246284
O O16 0.510599 0.961058 0.309085
#
# Coordination Sequence:
#
# PCOD9431905 Si02
#       8
#     8   8   8   8   8   4   8   8
#     4  11  22  37  58  84 118 162 207 240 291 359
#     4  11  21  37  58  88 118 163 202 258 308 373
#     4  11  22  37  59  86 120 160 193 252 300 355
#     4  10  22  36  55  85 120 165 205 246 304 365
#     4  10  22  34  51  87 125 156 192 244 312 368
#     4  10  22  36  58  82 124 158 214 254 302 368
#     4  10  22  44  61  93 117 157 204 250 307 377
#     4  10  23  39  69  87 118 158 202 253 308 370
#
# _framework density 19.378149000000001
#
# number of rings (size 3 to 8) (size 9 to 14) (size 15 to 20)
#    0.000    1.600    1.333    3.200    9.333    1.600 
#    0.000    0.000    2.933    0.000    0.000    0.000 
#    0.000    0.000    0.000    0.000    0.000    0.000 
#
# Total GULP energy -334013.920981 kJ/mol
# GULP energy per Si atom -5566.898683 kJ/mol
# Density = 1.933404 g / cm^3
# Si number density = 19.378149 Si / 1000 Ang^3
#
#
#
# Elastic Constant Matrix: (Units=GPa)
#
#
# Indices 1 2 3 4 5 6 
#
# 1 46.3585 -3.7790 24.4417 0.0000 0.0000 0.0000
# 2 -3.7790 54.5049 -4.4546 0.0000 0.0000 0.0000
# 3 24.4417 -4.4546 80.9988 0.0000 0.0000 0.0000
# 4 0.0000 0.0000 0.0000 23.3034 0.0000 0.0000
# 5 0.0000 0.0000 0.0000 0.0000 29.7287 0.0000
# 6 0.0000 0.0000 0.0000 0.0000 0.0000 30.6101
#
#
#
# Elastic Compliance Matrix: (Units=1/GPa)
#
#
# Indices 1 2 3 4 5 6 
#
# 1 0.025724 0.001154 -0.007699 0.000000 0.000000 0.000000
# 2 0.001154 0.018482 0.000668 0.000000 0.000000 0.000000
# 3 -0.007699 0.000668 0.014706 0.000000 0.000000 0.000000
# 4 0.000000 0.000000 0.000000 0.042912 0.000000 0.000000
# 5 0.000000 0.000000 0.000000 0.000000 0.033637 0.000000
# 6 0.000000 0.000000 0.000000 0.000000 0.000000 0.032669
#
#
# Mechanical properties :
#
#
# Convention : Reuss Voigt Hill
#
# Bulk Modulus (GPa) = 21.20501 23.80871 22.50686
# Shear Modulus (GPa) = 25.56202 27.77207 26.66704
#
# Velocity S-wave (km/s) = 3.63590 3.78982 3.71366
# Velocity P-wave (km/s) = 5.34723 5.60922 5.47979
#
# Compressibility (1/GPa) = 0.04715867
#
# Stress axis : x y z
#
# Youngs Moduli (GPa) = 38.87382 54.10785 68.00048
#
# Poissons Ratio (x) = -0.06246 0.52353
# Poissons Ratio (y) = -0.04487 -0.04543
# Poissons Ratio (z) = 0.29929 -0.03615
#
# Static dielectric constant tensor:
#      x y z
#    x 1.703390 0.000000 0.000000 
#    y 0.000000 1.727610 0.000000 
#    z 0.000000 0.000000 1.687310 
# 
# From -- ./inp_files/21331.got.cif
#   From: 2010.05.17/outbox.cif.g08.bks.cpg/sg56_11_cif.got.tgz:21331.got - 2010.06.03 13:42:01.
