data_PCOD9431930
_publ_section_title
;
Structure prediction by ZEFSAII (Michael W. Deem and Ramdas Pophale) SiO2 
 PCOD9431930
Probable space group: P C C N
;
_chemical_formula_sum "Si O2"
_cell_formula_units_Z 48
_cell_length_a 7.823945
_cell_length_b 28.204730
_cell_length_c 8.585023
_cell_angle_alpha 90.000000
_cell_angle_beta 90.000000
_cell_angle_gamma 90.000000
_cell_volume 1894.476395
_symmetry_space_group_name_H-M "P C C N"
_symmetry_group_IT_number 56
_symmetry_cell_setting 'orthorhombic'
loop_
_space_group_symop_operation_xyz
x,y,z
1/2-x,1/2-y,z
1/2+x,-y,1/2-z
-x,1/2+y,1/2-z
-x,-y,-z
1/2+x,1/2+y,-z
1/2-x,y,1/2+z
x,1/2-y,1/2+z
loop_
_atom_site_type_symbol
_atom_site_label
_atom_site_fract_x
_atom_site_fract_y
_atom_site_fract_z
Si Si1 0.408790 0.950801 0.198626
Si Si2 0.902010 0.636516 0.871589
Si Si3 0.774098 0.920331 0.093037
Si Si4 0.750000 0.250000 0.592808
Si Si5 0.224387 0.605231 0.474613
Si Si6 0.500000 0.500000 0.000000
Si Si7 0.073032 0.693335 0.654609
O O1 0.590220 0.945134 0.115833
O O2 0.357623 0.906484 0.308915
O O3 0.420118 0.994294 0.316406
O O4 0.255039 0.945697 0.068471
O O5 0.858394 0.593844 0.754695
O O6 0.087377 0.626060 0.945660
O O7 0.911234 0.683307 0.765561
O O8 0.766983 0.629854 0.007209
O O9 0.894292 0.950961 0.983131
O O10 0.709567 0.292046 0.712201
O O11 0.903051 0.267067 0.478766
O O12 0.122145 0.643596 0.573636
#
# Coordination Sequence:
#
# PCOD9431930 Si02
#       7
#     8   8   8   4   8   4   8
#     4  11  25  41  67  99 132 181 237 286 357 403
#     4  11  23  44  69 101 134 187 235 277 342 430
#     4  11  26  45  67  98 135 191 237 285 355 403
#     4  10  22  36  68 114 140 172 218 280 360 398
#     4  11  22  41  70  98 131 179 234 286 338 418
#     4  12  26  44  62  92 140 180 232 308 334 414
#     4  11  20  40  68 107 137 173 220 288 331 423
#
# _framework density 25.336818000000001
#
# number of rings (size 3 to 8) (size 9 to 14) (size 15 to 20)
#    0.000    1.000    5.000    1.000    2.333    0.000 
#    0.000    3.333    0.000    3.000    0.000    0.000 
#    0.000    0.000    0.000    0.000    0.000    0.000 
#
# Total GULP energy -267267.010032 kJ/mol
# GULP energy per Si atom -5568.062709 kJ/mol
# Density = 2.527915 g / cm^3
# Si number density = 25.336818 Si / 1000 Ang^3
#
#
#
# Elastic Constant Matrix: (Units=GPa)
#
#
# Indices 1 2 3 4 5 6 
#
# 1 89.5075 -11.4191 24.5457 0.0000 0.0000 0.0000
# 2 -11.4191 20.1974 9.2358 0.0000 0.0000 0.0000
# 3 24.5457 9.2358 114.3616 0.0000 0.0000 0.0000
# 4 0.0000 0.0000 0.0000 27.1204 0.0000 0.0000
# 5 0.0000 0.0000 0.0000 0.0000 49.7908 0.0000
# 6 0.0000 0.0000 0.0000 0.0000 0.0000 20.3899
#
#
#
# Elastic Compliance Matrix: (Units=1/GPa)
#
#
# Indices 1 2 3 4 5 6 
#
# 1 0.013332 0.009185 -0.003603 0.000000 0.000000 0.000000
# 2 0.009185 0.057738 -0.006634 0.000000 0.000000 0.000000
# 3 -0.003603 -0.006634 0.010053 0.000000 0.000000 0.000000
# 4 0.000000 0.000000 0.000000 0.036873 0.000000 0.000000
# 5 0.000000 0.000000 0.000000 0.000000 0.020084 0.000000
# 6 0.000000 0.000000 0.000000 0.000000 0.000000 0.049044
#
#
# Mechanical properties :
#
#
# Convention : Reuss Voigt Hill
#
# Bulk Modulus (GPa) = 12.65515 29.86569 21.26042
# Shear Modulus (GPa) = 23.19446 32.90717 28.05081
#
# Velocity S-wave (km/s) = 3.02891 3.60778 3.33095
# Velocity P-wave (km/s) = 4.15187 5.40073 4.81694
#
# Compressibility (1/GPa) = 0.07901918
#
# Stress axis : x y z
#
# Youngs Moduli (GPa) = 75.00612 17.31957 99.46907
#
# Poissons Ratio (x) = -0.15909 0.35842
# Poissons Ratio (y) = -0.68896 0.65992
# Poissons Ratio (z) = 0.27027 0.11490
#
# Static dielectric constant tensor:
#      x y z
#    x 1.920050 0.000000 0.000000 
#    y 0.000000 2.613890 0.000000 
#    z 0.000000 0.000000 1.984420 
# 
# From -- ./inp_files/2256.got.cif
#   From: 2010.05.17/outbox.cif.g08.bks.cpg/sg56_2_cif.got.tgz:2256.got - 2010.06.03 13:42:01.
