data_PCOD9431381
_publ_section_title
;
Structure prediction by ZEFSAII (Michael W. Deem and Ramdas Pophale) SiO2 
 PCOD9431381
Probable space group: P C C N
;
_chemical_formula_sum "Si O2"
_cell_formula_units_Z 48
_cell_length_a 6.952706
_cell_length_b 17.118864
_cell_length_c 20.231317
_cell_angle_alpha 90.000000
_cell_angle_beta 90.000000
_cell_angle_gamma 90.000000
_cell_volume 2407.980480
_symmetry_space_group_name_H-M "P C C N"
_symmetry_group_IT_number 56
_symmetry_cell_setting 'orthorhombic'
loop_
_space_group_symop_operation_xyz
x,y,z
1/2-x,1/2-y,z
1/2+x,-y,1/2-z
-x,1/2+y,1/2-z
-x,-y,-z
1/2+x,1/2+y,-z
1/2-x,y,1/2+z
x,1/2-y,1/2+z
loop_
_atom_site_type_symbol
_atom_site_label
_atom_site_fract_x
_atom_site_fract_y
_atom_site_fract_z
Si Si1 0.692203 0.498687 0.660243
Si Si2 0.750000 0.750000 0.730094
Si Si3 0.547255 0.626934 0.027792
Si Si4 0.250000 0.750000 0.032684
Si Si5 0.923543 0.976538 0.905029
Si Si6 0.924760 0.840331 0.611801
Si Si7 0.844426 0.912541 0.288302
O O1 0.563775 0.567371 0.627796
O O2 0.556573 0.432865 0.688377
O O3 0.802663 0.542094 0.719926
O O4 0.850900 0.464905 0.611387
O O5 0.898349 0.791710 0.679559
O O6 0.676386 0.821098 0.774290
O O7 0.402304 0.691640 0.999023
O O8 0.426571 0.568185 0.075457
O O9 0.723908 0.662649 0.069852
O O10 0.629939 0.573622 0.969247
O O11 0.394222 0.804415 0.074875
O O12 0.800710 0.947031 0.843202
#
# Coordination Sequence:
#
# PCOD9431381 Si02
#       7
#     8   4   8   4   8   8   8
#     4  10  21  37  64  88 118 160 210 242 303 369
#     4  10  22  40  54  88 130 154 196 260 318 352
#     4  10  22  40  63  87 124 157 206 259 305 363
#     4  12  20  36  64  92 112 160 200 252 310 364
#     4  10  22  42  61  89 121 163 205 252 305 370
#     4  10  21  39  60  90 118 155 204 257 303 366
#     4  11  21  39  60  89 122 163 198 253 305 367
#
# _framework density 19.933717999999999
#
# number of rings (size 3 to 8) (size 9 to 14) (size 15 to 20)
#    0.000    1.667    3.333    1.000    0.000    2.667 
#    6.000    5.000    0.000    0.000    0.000    0.000 
#    0.000    0.000    0.000    0.000    0.000    0.000 
#
# Total GULP energy -267715.761156 kJ/mol
# GULP energy per Si atom -5577.411691 kJ/mol
# Density = 1.988835 g / cm^3
# Si number density = 19.933718 Si / 1000 Ang^3
#
#
#
# Elastic Constant Matrix: (Units=GPa)
#
#
# Indices 1 2 3 4 5 6 
#
# 1 56.2565 35.3757 5.1511 0.0000 0.0000 0.0000
# 2 35.3757 99.3769 26.6244 0.0000 0.0000 0.0000
# 3 5.1511 26.6244 50.6390 0.0000 0.0000 0.0000
# 4 0.0000 0.0000 0.0000 23.9039 0.0000 0.0000
# 5 0.0000 0.0000 0.0000 0.0000 -419.5771 0.0000
# 6 0.0000 0.0000 0.0000 0.0000 0.0000 30.9433
#
#
#
# Elastic Compliance Matrix: (Units=1/GPa)
#
#
# Indices 1 2 3 4 5 6 
#
# 1 0.023130 -0.008850 0.002300 0.000000 0.000000 0.000000
# 2 -0.008850 0.015099 -0.007038 0.000000 0.000000 0.000000
# 3 0.002300 -0.007038 0.023214 0.000000 0.000000 0.000000
# 4 0.000000 0.000000 0.000000 0.041834 0.000000 0.000000
# 5 0.000000 0.000000 0.000000 0.000000 -0.002383 0.000000
# 6 0.000000 0.000000 0.000000 0.000000 0.000000 0.032317
#
#
# Mechanical properties :
#
#
# Convention : Reuss Voigt Hill
#
# Bulk Modulus (GPa) = 29.18254 37.84166 33.51210
# Shear Modulus (GPa) = 29.10197 -63.67125 -17.28464
#
# Velocity S-wave (km/s) = 3.82506 -5.65781 -2.94786
# Velocity P-wave (km/s) = 5.84634 4.86376 2.29385
#
# Compressibility (1/GPa) = 0.03426707
#
# Stress axis : x y z
#
# Youngs Moduli (GPa) = 43.23332 66.23067 43.07720
#
# Poissons Ratio (x) = 0.58615 -0.09909
# Poissons Ratio (y) = 0.38262 0.30319
# Poissons Ratio (z) = -0.09945 0.46615
#
# Static dielectric constant tensor:
#      x y z
#    x 1.685140 0.000000 0.000000 
#    y 0.000000 1.723690 0.000000 
#    z 0.000000 0.000000 1.701030 
# 
# From -- ./inp_files/20090.got.cif
#   From: 2010.05.17/outbox.cif.g08.bks.cpg/sg56_11_cif.got.tgz:20090.got - 2010.06.03 13:42:01.
