data_PCOD9431755
_publ_section_title
;
Structure prediction by ZEFSAII (Michael W. Deem and Ramdas Pophale) SiO2 
 PCOD9431755
Probable space group: P C C N
;
_chemical_formula_sum "Si O2"
_cell_formula_units_Z 40
_cell_length_a 12.193126
_cell_length_b 9.731082
_cell_length_c 13.932863
_cell_angle_alpha 90.000000
_cell_angle_beta 90.000000
_cell_angle_gamma 90.000000
_cell_volume 1653.166365
_symmetry_space_group_name_H-M "P C C N"
_symmetry_group_IT_number 56
_symmetry_cell_setting 'orthorhombic'
loop_
_space_group_symop_operation_xyz
x,y,z
1/2-x,1/2-y,z
1/2+x,-y,1/2-z
-x,1/2+y,1/2-z
-x,-y,-z
1/2+x,1/2+y,-z
1/2-x,y,1/2+z
x,1/2-y,1/2+z
loop_
_atom_site_type_symbol
_atom_site_label
_atom_site_fract_x
_atom_site_fract_y
_atom_site_fract_z
Si Si1 0.367084 0.210994 0.420267
Si Si2 0.979556 0.446279 0.893155
Si Si3 0.400245 0.818098 0.552839
Si Si4 0.911155 0.153253 0.730483
Si Si5 0.825204 0.418456 0.646584
O O1 0.250000 0.250000 0.464397
O O2 0.420346 0.341883 0.366890
O O3 0.472717 0.175827 0.485432
O O4 0.348534 0.079767 0.353814
O O5 0.990775 0.574826 0.823451
O O6 0.879410 0.340450 0.913398
O O7 0.000000 0.500000 0.000000
O O8 0.403144 0.886015 0.657544
O O9 0.332514 0.874635 0.465331
O O10 0.905924 0.317491 0.706729
O O11 0.796894 0.107247 0.683029
#
# Coordination Sequence:
#
# PCOD9431755 Si02
#       5
#     8   8   8   8   8
#     4  10  21  41  69  93 135 174 223 280 338 414
#     4  10  21  43  67  92 139 178 219 278 347 399
#     4  10  24  38  69  98 135 176 225 277 347 399
#     4  11  23  40  68  98 135 174 229 278 340 409
#     4  11  22  42  66  96 134 172 226 280 337 405
#
# _framework density 24.195989999999998
#
# number of rings (size 3 to 8) (size 9 to 14) (size 15 to 20)
#    1.200    0.400    4.000    0.600    2.800    3.200 
#    0.000    0.000    4.400    0.000    0.000    0.000 
#    0.000    0.000    0.000    0.000    0.000    0.000 
#
# Total GULP energy -222801.320408 kJ/mol
# GULP energy per Si atom -5570.033010 kJ/mol
# Density = 2.414092 g / cm^3
# Si number density = 24.195990 Si / 1000 Ang^3
#
#
#
# Elastic Constant Matrix: (Units=GPa)
#
#
# Indices 1 2 3 4 5 6 
#
# 1 93.0691 8.2499 35.7123 0.0000 0.0000 0.0000
# 2 8.2499 118.5176 17.9859 0.0000 0.0000 0.0000
# 3 35.7123 17.9859 178.5905 0.0000 0.0000 0.0000
# 4 0.0000 0.0000 0.0000 13.7212 0.0000 0.0000
# 5 0.0000 0.0000 0.0000 0.0000 21.5509 0.0000
# 6 0.0000 0.0000 0.0000 0.0000 0.0000 25.6120
#
#
#
# Elastic Compliance Matrix: (Units=1/GPa)
#
#
# Indices 1 2 3 4 5 6 
#
# 1 0.011663 -0.000465 -0.002285 0.000000 0.000000 0.000000
# 2 -0.000465 0.008587 -0.000772 0.000000 0.000000 0.000000
# 3 -0.002285 -0.000772 0.006134 0.000000 0.000000 0.000000
# 4 0.000000 0.000000 0.000000 0.072880 0.000000 0.000000
# 5 0.000000 0.000000 0.000000 0.000000 0.046402 0.000000
# 6 0.000000 0.000000 0.000000 0.000000 0.000000 0.039044
#
#
# Mechanical properties :
#
#
# Convention : Reuss Voigt Hill
#
# Bulk Modulus (GPa) = 51.70721 57.11926 54.41323
# Shear Modulus (GPa) = 25.22694 34.05876 29.64285
#
# Velocity S-wave (km/s) = 3.23245 3.75590 3.50396
# Velocity P-wave (km/s) = 5.94543 6.51668 6.23760
#
# Compressibility (1/GPa) = 0.01933966
#
# Stress axis : x y z
#
# Youngs Moduli (GPa) = 85.74228 116.45419 163.02228
#
# Poissons Ratio (x) = 0.05415 0.37256
# Poissons Ratio (y) = 0.03987 0.12582
# Poissons Ratio (z) = 0.19595 0.08988
#
# Static dielectric constant tensor:
#      x y z
#    x 1.995300 0.000000 0.000000 
#    y 0.000000 2.056130 0.000000 
#    z 0.000000 0.000000 1.916770 
# 
# From -- ./inp_files/12128.got.cif
#   From: 2010.05.17/outbox.cif.g08.bks.cpg/sg56_7_cif.got.tgz:12128.got - 2010.06.03 13:42:01.
