data_PCOD9431984
_publ_section_title
;
Structure prediction by ZEFSAII (Michael W. Deem and Ramdas Pophale) SiO2 
 PCOD9431984
Probable space group: P C C N
;
_chemical_formula_sum "Si O2"
_cell_formula_units_Z 48
_cell_length_a 27.429756
_cell_length_b 8.890158
_cell_length_c 10.100049
_cell_angle_alpha 90.000000
_cell_angle_beta 90.000000
_cell_angle_gamma 90.000000
_cell_volume 2462.946083
_symmetry_space_group_name_H-M "P C C N"
_symmetry_group_IT_number 56
_symmetry_cell_setting 'orthorhombic'
loop_
_space_group_symop_operation_xyz
x,y,z
1/2-x,1/2-y,z
1/2+x,-y,1/2-z
-x,1/2+y,1/2-z
-x,-y,-z
1/2+x,1/2+y,-z
1/2-x,y,1/2+z
x,1/2-y,1/2+z
loop_
_atom_site_type_symbol
_atom_site_label
_atom_site_fract_x
_atom_site_fract_y
_atom_site_fract_z
Si Si1 0.876455 0.276643 0.152081
Si Si2 0.778942 0.091250 0.557791
Si Si3 0.530733 0.574632 0.882605
Si Si4 0.762561 0.924935 0.821878
Si Si5 0.135442 0.936775 0.081229
Si Si6 0.014174 0.894292 0.379581
O O1 0.835078 0.384827 0.093420
O O2 0.869831 0.298290 0.311290
O O3 0.930795 0.328741 0.115136
O O4 0.865613 0.124539 0.069465
O O5 0.750000 0.250000 0.563955
O O6 0.758719 0.981345 0.671321
O O7 0.773043 0.021460 0.414114
O O8 0.587459 0.536087 0.898044
O O9 0.511683 0.494929 0.750649
O O10 0.520769 0.750833 0.875998
O O11 0.500000 0.500000 0.000000
O O12 0.750000 0.750000 0.832665
O O13 0.815887 0.972654 0.879521
O O14 0.000000 0.000000 0.500000
#
# Coordination Sequence:
#
# PCOD9431984 Si02
#       6
#     8   8   8   8   8   8
#     4  10  22  38  63  93 123 157 215 258 302 380
#     4  11  22  40  65  92 118 168 213 251 309 377
#     4  11  22  40  64  91 127 164 207 259 312 371
#     4  11  24  41  61  93 131 160 204 265 316 365
#     4  10  22  40  63  93 124 163 210 259 316 367
#     4  11  24  41  62  94 125 166 206 257 315 369
#
# _framework density 19.488855999999998
#
# number of rings (size 3 to 8) (size 9 to 14) (size 15 to 20)
#    0.000    1.333    3.333    2.000    4.667    1.333 
#    0.000    6.667    0.000    0.000    0.000    0.000 
#    0.000    0.000    0.000    0.000    0.000    0.000 
#
# Total GULP energy -268033.009372 kJ/mol
# GULP energy per Si atom -5584.021029 kJ/mol
# Density = 1.944450 g / cm^3
# Si number density = 19.488856 Si / 1000 Ang^3
#
#
#
# Elastic Constant Matrix: (Units=GPa)
#
#
# Indices 1 2 3 4 5 6 
#
# 1 39.6856 16.6492 13.9152 0.0000 0.0000 0.0000
# 2 16.6492 125.2600 34.4098 0.0000 0.0000 0.0000
# 3 13.9152 34.4098 67.7791 0.0000 0.0000 0.0000
# 4 0.0000 0.0000 0.0000 33.7383 0.0000 0.0000
# 5 0.0000 0.0000 0.0000 0.0000 20.0278 0.0000
# 6 0.0000 0.0000 0.0000 0.0000 0.0000 20.0353
#
#
#
# Elastic Compliance Matrix: (Units=1/GPa)
#
#
# Indices 1 2 3 4 5 6 
#
# 1 0.027796 -0.002472 -0.004452 0.000000 0.000000 0.000000
# 2 -0.002472 0.009497 -0.004314 0.000000 0.000000 0.000000
# 3 -0.004452 -0.004314 0.017858 0.000000 0.000000 0.000000
# 4 0.000000 0.000000 0.000000 0.029640 0.000000 0.000000
# 5 0.000000 0.000000 0.000000 0.000000 0.049931 0.000000
# 6 0.000000 0.000000 0.000000 0.000000 0.000000 0.049912
#
#
# Mechanical properties :
#
#
# Convention : Reuss Voigt Hill
#
# Bulk Modulus (GPa) = 30.60343 40.29700 35.45022
# Shear Modulus (GPa) = 22.93578 25.94364 24.43971
#
# Velocity S-wave (km/s) = 3.43427 3.65252 3.54508
# Velocity P-wave (km/s) = 5.60917 6.20562 5.91492
#
# Compressibility (1/GPa) = 0.03267607
#
# Stress axis : x y z
#
# Youngs Moduli (GPa) = 35.97646 105.29657 55.99775
#
# Poissons Ratio (x) = 0.26025 0.24929
# Poissons Ratio (y) = 0.08892 0.24157
# Poissons Ratio (z) = 0.16016 0.45424
#
# Static dielectric constant tensor:
#      x y z
#    x 1.699990 0.000000 0.000000 
#    y 0.000000 1.670770 0.000000 
#    z 0.000000 0.000000 1.702890 
# 
# From -- ./inp_files/2229.got.cif
#   From: 2010.05.17/outbox.cif.g08.bks.cpg/sg56_2_cif.got.tgz:2229.got - 2010.06.03 13:42:01.
