data_PCOD9431279
_publ_section_title
;
Structure prediction by ZEFSAII (Michael W. Deem and Ramdas Pophale) SiO2 
 PCOD9431279
Probable space group: P C C N
;
_chemical_formula_sum "Si O2"
_cell_formula_units_Z 24
_cell_length_a 20.935933
_cell_length_b 7.456426
_cell_length_c 6.049622
_cell_angle_alpha 90.000000
_cell_angle_beta 90.000000
_cell_angle_gamma 90.000000
_cell_volume 944.389764
_symmetry_space_group_name_H-M "P C C N"
_symmetry_group_IT_number 56
_symmetry_cell_setting 'orthorhombic'
loop_
_space_group_symop_operation_xyz
x,y,z
1/2-x,1/2-y,z
1/2+x,-y,1/2-z
-x,1/2+y,1/2-z
-x,-y,-z
1/2+x,1/2+y,-z
1/2-x,y,1/2+z
x,1/2-y,1/2+z
loop_
_atom_site_type_symbol
_atom_site_label
_atom_site_fract_x
_atom_site_fract_y
_atom_site_fract_z
Si Si1 0.968679 0.388401 0.306357
Si Si2 0.088901 0.501399 0.085626
Si Si3 0.229455 0.962315 0.742200
O O1 0.032473 0.369945 0.157017
O O2 0.000000 0.500000 0.500000
O O3 0.936640 0.203184 0.369137
O O4 0.912848 0.498583 0.179886
O O5 0.154734 0.493453 0.210307
O O6 0.250000 0.750000 0.746786
O O7 0.254684 0.025648 0.495688
#
# Coordination Sequence:
#
# PCOD9431279 Si02
#       3
#     8   8   8
#     4  11  22  36  60  84 134 156 198 258 307 378
#     4  11  23  38  59  97 121 162 204 251 323 370
#     4  10  21  35  61  87 124 156 207 266 304 356
#
# _framework density 25.413235
#
# number of rings (size 3 to 8) (size 9 to 14) (size 15 to 20)
#    0.000    1.333    3.333    4.000    4.667    0.000 
#    0.000    0.000    0.000    0.000    0.000   53.667 
#    0.000    0.000    0.000    0.000    0.000    0.000 
#
# Total GULP energy -133723.687279 kJ/mol
# GULP energy per Si atom -5571.820303 kJ/mol
# Density = 2.535539 g / cm^3
# Si number density = 25.413235 Si / 1000 Ang^3
#
#
#
# Elastic Constant Matrix: (Units=GPa)
#
#
# Indices 1 2 3 4 5 6 
#
# 1 74.8965 -23.3087 17.0782 0.0000 0.0000 0.0000
# 2 -23.3087 44.2200 12.7282 0.0000 0.0000 0.0000
# 3 17.0782 12.7282 155.6764 0.0000 0.0000 0.0000
# 4 0.0000 0.0000 0.0000 25.1322 0.0000 0.0000
# 5 0.0000 0.0000 0.0000 0.0000 30.5061 0.0000
# 6 0.0000 0.0000 0.0000 0.0000 0.0000 22.3629
#
#
#
# Elastic Compliance Matrix: (Units=1/GPa)
#
#
# Indices 1 2 3 4 5 6 
#
# 1 0.016981 0.009716 -0.002657 0.000000 0.000000 0.000000
# 2 0.009716 0.028718 -0.003414 0.000000 0.000000 0.000000
# 3 -0.002657 -0.003414 0.006994 0.000000 0.000000 0.000000
# 4 0.000000 0.000000 0.000000 0.039790 0.000000 0.000000
# 5 0.000000 0.000000 0.000000 0.000000 0.032780 0.000000
# 6 0.000000 0.000000 0.000000 0.000000 0.000000 0.044717
#
#
# Mechanical properties :
#
#
# Convention : Reuss Voigt Hill
#
# Bulk Modulus (GPa) = 16.67135 31.97649 24.32392
# Shear Modulus (GPa) = 27.36943 33.48658 30.42800
#
# Velocity S-wave (km/s) = 3.28529 3.63393 3.46400
# Velocity P-wave (km/s) = 4.57878 5.49701 5.05877
#
# Compressibility (1/GPa) = 0.05998315
#
# Stress axis : x y z
#
# Youngs Moduli (GPa) = 58.88802 34.82120 142.97525
#
# Poissons Ratio (x) = -0.33832 0.37993
# Poissons Ratio (y) = -0.57215 0.48810
# Poissons Ratio (z) = 0.15648 0.11888
#
# Static dielectric constant tensor:
#      x y z
#    x 1.956970 0.000000 0.000000 
#    y 0.000000 1.968210 0.000000 
#    z 0.000000 0.000000 2.516120 
# 
# From -- ./inp_files/596.got.cif
#   From: 2010.05.17/outbox.cif.g08.bks.cpg/sg56_1_cif.got.tgz:596.got - 2010.06.03 13:42:01.
