data_PCOD9431299
_publ_section_title
;
Structure prediction by ZEFSAII (Michael W. Deem and Ramdas Pophale) SiO2 
 PCOD9431299
Probable space group: P C C N
;
_chemical_formula_sum "Si O2"
_cell_formula_units_Z 32
_cell_length_a 5.848279
_cell_length_b 6.965222
_cell_length_c 27.364545
_cell_angle_alpha 90.000000
_cell_angle_beta 90.000000
_cell_angle_gamma 90.000000
_cell_volume 1114.682743
_symmetry_space_group_name_H-M "P C C N"
_symmetry_group_IT_number 56
_symmetry_cell_setting 'orthorhombic'
loop_
_space_group_symop_operation_xyz
x,y,z
1/2-x,1/2-y,z
1/2+x,-y,1/2-z
-x,1/2+y,1/2-z
-x,-y,-z
1/2+x,1/2+y,-z
1/2-x,y,1/2+z
x,1/2-y,1/2+z
loop_
_atom_site_type_symbol
_atom_site_label
_atom_site_fract_x
_atom_site_fract_y
_atom_site_fract_z
Si Si1 0.250000 0.750000 0.145858
Si Si2 0.995901 0.086171 0.187377
Si Si3 0.250000 0.250000 0.772763
Si Si4 0.250000 0.750000 0.478405
Si Si5 0.750000 0.750000 0.396190
Si Si6 0.483987 0.086090 0.936773
O O1 0.297585 0.565729 0.178421
O O2 0.470618 0.785555 0.111012
O O3 0.043101 0.210303 0.235228
O O4 0.032511 0.213624 0.139341
O O5 0.789128 0.942130 0.196401
O O6 0.040814 0.785302 0.516114
O O7 0.270536 0.555102 0.446534
O O8 0.689833 0.567640 0.428449
#
# Coordination Sequence:
#
# PCOD9431299 Si02
#       6
#     4   8   4   4   4   8
#     4   9  18  36  54  75 110 146 180 235 292 346
#     4  10  21  36  56  80 109 145 186 231 290 345
#     4  11  22  38  58  83 112 146 192 237 284 348
#     4   9  18  32  52  77 102 148 192 231 288 346
#     4   9  20  36  52  79 112 144 182 237 290 346
#     4   9  18  33  52  75 109 143 187 236 287 342
#
# _framework density 28.707718
#
# number of rings (size 3 to 8) (size 9 to 14) (size 15 to 20)
#    0.000    2.500    0.000    1.500    0.000    3.000 
#    0.000    0.000    0.000    0.000    0.000    0.000 
#    0.000    0.000    0.000    0.000    0.000    0.000 
#
# Total GULP energy -178859.579491 kJ/mol
# GULP energy per Si atom -5589.361859 kJ/mol
# Density = 2.864238 g / cm^3
# Si number density = 28.707718 Si / 1000 Ang^3
#
#
#
# Elastic Constant Matrix: (Units=GPa)
#
#
# Indices 1 2 3 4 5 6 
#
# 1 86.3671 65.4093 65.4678 0.0000 0.0000 0.0000
# 2 65.4093 138.4550 38.5053 0.0000 0.0000 0.0000
# 3 65.4678 38.5053 123.7987 0.0000 0.0000 0.0000
# 4 0.0000 0.0000 0.0000 10.3775 0.0000 0.0000
# 5 0.0000 0.0000 0.0000 0.0000 17.8604 0.0000
# 6 0.0000 0.0000 0.0000 0.0000 0.0000 70.0673
#
#
#
# Elastic Compliance Matrix: (Units=1/GPa)
#
#
# Indices 1 2 3 4 5 6 
#
# 1 0.028009 -0.009976 -0.011709 0.000000 0.000000 0.000000
# 2 -0.009976 0.011460 0.001711 0.000000 0.000000 0.000000
# 3 -0.011709 0.001711 0.013738 0.000000 0.000000 0.000000
# 4 0.000000 0.000000 0.000000 0.096362 0.000000 0.000000
# 5 0.000000 0.000000 0.000000 0.000000 0.055990 0.000000
# 6 0.000000 0.000000 0.000000 0.000000 0.000000 0.014272
#
#
# Mechanical properties :
#
#
# Convention : Reuss Voigt Hill
#
# Bulk Modulus (GPa) = 75.42256 76.37616 75.89936
# Shear Modulus (GPa) = 18.92518 31.61025 25.26772
#
# Velocity S-wave (km/s) = 2.57035 3.32189 2.96999
# Velocity P-wave (km/s) = 5.92777 6.43240 6.18524
#
# Compressibility (1/GPa) = 0.01325863
#
# Stress axis : x y z
#
# Youngs Moduli (GPa) = 35.70219 87.26384 72.79320
#
# Poissons Ratio (x) = 0.87053 0.85236
# Poissons Ratio (y) = 0.35616 -0.12457
# Poissons Ratio (z) = 0.41805 -0.14933
#
# Static dielectric constant tensor:
#      x y z
#    x 2.259120 0.000000 0.000000 
#    y 0.000000 2.155180 0.000000 
#    z 0.000000 0.000000 2.195440 
# 
# From -- ./inp_files/22754.got.cif
#   From: 2010.05.17/outbox.cif.g08.bks.cpg/sg56_12_cif.got.tgz:22754.got - 2010.06.03 13:42:01.
