data_PCOD9431793
_publ_section_title
;
Structure prediction by ZEFSAII (Michael W. Deem and Ramdas Pophale) SiO2 
 PCOD9431793
Probable space group: P C C N
;
_chemical_formula_sum "Si O2"
_cell_formula_units_Z 32
_cell_length_a 10.064390
_cell_length_b 11.841087
_cell_length_c 13.227789
_cell_angle_alpha 90.000000
_cell_angle_beta 90.000000
_cell_angle_gamma 90.000000
_cell_volume 1576.399500
_symmetry_space_group_name_H-M "P C C N"
_symmetry_group_IT_number 56
_symmetry_cell_setting 'orthorhombic'
loop_
_space_group_symop_operation_xyz
x,y,z
1/2-x,1/2-y,z
1/2+x,-y,1/2-z
-x,1/2+y,1/2-z
-x,-y,-z
1/2+x,1/2+y,-z
1/2-x,y,1/2+z
x,1/2-y,1/2+z
loop_
_atom_site_type_symbol
_atom_site_label
_atom_site_fract_x
_atom_site_fract_y
_atom_site_fract_z
Si Si1 0.607330 0.808755 0.905532
Si Si2 0.625600 0.331982 0.191914
Si Si3 0.673313 0.587924 0.196373
Si Si4 0.947750 0.685034 0.127120
O O1 0.750000 0.750000 0.922243
O O2 0.499223 0.718600 0.867940
O O3 0.626910 0.894375 0.812294
O O4 0.556668 0.855084 0.012180
O O5 0.750000 0.250000 0.176532
O O6 0.653969 0.460451 0.162558
O O7 0.580815 0.330842 0.309573
O O8 0.827174 0.622890 0.185522
O O9 0.591914 0.681826 0.132909
#
# Coordination Sequence:
#
# PCOD9431793 Si02
#       4
#     8   8   8   8
#     4  11  21  43  68  96 127 173 223 259 328 399
#     4  11  26  42  64  98 136 168 216 277 326 383
#     4  10  21  42  67  90 131 171 211 267 327 380
#     4  10  22  42  66  95 125 175 217 260 327 396
#
# _framework density 20.299423000000001
#
# number of rings (size 3 to 8) (size 9 to 14) (size 15 to 20)
#    0.000    1.500    7.500    0.000    7.000    3.000 
#    4.500    0.000    0.000    0.000    0.000    0.000 
#    0.000    0.000    0.000    0.000    0.000    0.000 
#
# Total GULP energy -178705.917947 kJ/mol
# GULP energy per Si atom -5584.559936 kJ/mol
# Density = 2.025322 g / cm^3
# Si number density = 20.299423 Si / 1000 Ang^3
#
#
#
# Elastic Constant Matrix: (Units=GPa)
#
#
# Indices 1 2 3 4 5 6 
#
# 1 78.2312 57.8414 15.8722 0.0000 0.0000 0.0000
# 2 57.8414 137.1434 3.9654 0.0000 0.0000 0.0000
# 3 15.8722 3.9654 106.0155 0.0000 0.0000 0.0000
# 4 0.0000 0.0000 0.0000 -2.7749 0.0000 0.0000
# 5 0.0000 0.0000 0.0000 0.0000 22.9741 0.0000
# 6 0.0000 0.0000 0.0000 0.0000 0.0000 7.3479
#
#
#
# Elastic Compliance Matrix: (Units=1/GPa)
#
#
# Indices 1 2 3 4 5 6 
#
# 1 0.019256 -0.008047 -0.002582 0.000000 0.000000 0.000000
# 2 -0.008047 0.010662 0.000806 0.000000 0.000000 0.000000
# 3 -0.002582 0.000806 0.009789 0.000000 0.000000 0.000000
# 4 0.000000 0.000000 0.000000 -0.360370 0.000000 0.000000
# 5 0.000000 0.000000 0.000000 0.000000 0.043527 0.000000
# 6 0.000000 0.000000 0.000000 0.000000 0.000000 0.136094
#
#
# Mechanical properties :
#
#
# Convention : Reuss Voigt Hill
#
# Bulk Modulus (GPa) = 49.84656 52.97203 51.40929
# Shear Modulus (GPa) = -43.58873 21.75681 -10.91596
#
# Velocity S-wave (km/s) = -4.63891 3.27738 -2.32145
# Velocity P-wave (km/s) = 2.02082 6.36189 4.26555
#
# Compressibility (1/GPa) = 0.02006156
#
# Stress axis : x y z
#
# Youngs Moduli (GPa) = 51.93209 93.79017 102.15552
#
# Poissons Ratio (x) = 0.75470 0.26376
# Poissons Ratio (y) = 0.41788 -0.08233
# Poissons Ratio (z) = 0.13409 -0.07559
#
# Static dielectric constant tensor:
#      x y z
#    x 1.690920 0.000000 0.000000 
#    y 0.000000 1.701430 0.000000 
#    z 0.000000 0.000000 1.749970 
# 
# From -- ./inp_files/10169.got.cif
#   From: 2010.05.17/outbox.cif.g08.bks.cpg/sg56_6_cif.got.tgz:10169.got - 2010.06.03 13:42:01.
