data_PCOD9431068
_publ_section_title
;
Structure prediction by ZEFSAII (Michael W. Deem and Ramdas Pophale) SiO2 
 PCOD9431068
Probable space group: P C C N
;
_chemical_formula_sum "Si O2"
_cell_formula_units_Z 56
_cell_length_a 10.579110
_cell_length_b 11.003595
_cell_length_c 23.288934
_cell_angle_alpha 90.000000
_cell_angle_beta 90.000000
_cell_angle_gamma 90.000000
_cell_volume 2711.023863
_symmetry_space_group_name_H-M "P C C N"
_symmetry_group_IT_number 56
_symmetry_cell_setting 'orthorhombic'
loop_
_space_group_symop_operation_xyz
x,y,z
1/2-x,1/2-y,z
1/2+x,-y,1/2-z
-x,1/2+y,1/2-z
-x,-y,-z
1/2+x,1/2+y,-z
1/2-x,y,1/2+z
x,1/2-y,1/2+z
loop_
_atom_site_type_symbol
_atom_site_label
_atom_site_fract_x
_atom_site_fract_y
_atom_site_fract_z
Si Si1 0.464441 0.572278 0.733315
Si Si2 0.893234 0.620986 0.849130
Si Si3 0.908367 0.899394 0.854780
Si Si4 0.921293 0.462753 0.055828
Si Si5 0.750000 0.250000 0.807494
Si Si6 0.250000 0.750000 0.491881
Si Si7 0.916533 0.138088 0.908506
Si Si8 0.127795 0.323048 0.871072
O O1 0.428422 0.437499 0.711821
O O2 0.529093 0.564651 0.794582
O O3 0.342546 0.661984 0.728674
O O4 0.561360 0.625158 0.686010
O O5 0.938369 0.757486 0.859736
O O6 0.744056 0.603268 0.855130
O O7 0.968280 0.548534 0.897112
O O8 0.951281 0.996578 0.902214
O O9 0.839078 0.571086 0.083405
O O10 0.837795 0.343275 0.043718
O O11 0.000000 0.500000 0.000000
O O12 0.831558 0.167661 0.851674
O O13 0.337024 0.829847 0.535041
O O14 0.031783 0.231090 0.902604
O O15 0.250000 0.250000 0.853141
#
# Coordination Sequence:
#
# PCOD9431068 Si02
#       8
#     8   8   8   8   4   4   8   8
#     4  10  22  38  67  92 132 181 219 263 337 393
#     4  10  24  42  57  98 136 168 217 282 322 395
#     4  11  23  38  65  95 136 173 219 264 335 396
#     4  11  22  46  68  94 131 178 220 282 343 392
#     4   9  18  38  61  88 124 169 224 250 313 394
#     4  11  22  42  79  92 124 179 228 272 355 400
#     4  10  20  40  65  95 124 169 222 269 315 411
#     4  10  23  41  63  98 136 169 226 276 322 397
#
# _framework density 20.656403000000001
#
# number of rings (size 3 to 8) (size 9 to 14) (size 15 to 20)
#    0.000    1.714    2.857    0.857    6.000    1.143 
#    5.143    3.571    0.000    0.000    0.000    0.000 
#    0.000    0.000    0.000    0.000    0.000    0.000 
#
# Total GULP energy -312631.016806 kJ/mol
# GULP energy per Si atom -5582.696729 kJ/mol
# Density = 2.060939 g / cm^3
# Si number density = 20.656403 Si / 1000 Ang^3
#
#
#
# Elastic Constant Matrix: (Units=GPa)
#
#
# Indices 1 2 3 4 5 6 
#
# 1 65.3220 12.7446 22.3334 0.0000 0.0000 0.0000
# 2 12.7446 108.2572 14.9560 0.0000 0.0000 0.0000
# 3 22.3334 14.9560 46.4252 0.0000 0.0000 0.0000
# 4 0.0000 0.0000 0.0000 25.5098 0.0000 0.0000
# 5 0.0000 0.0000 0.0000 0.0000 28.7372 0.0000
# 6 0.0000 0.0000 0.0000 0.0000 0.0000 24.1838
#
#
#
# Elastic Compliance Matrix: (Units=1/GPa)
#
#
# Indices 1 2 3 4 5 6 
#
# 1 0.018423 -0.000988 -0.008544 0.000000 0.000000 0.000000
# 2 -0.000988 0.009721 -0.002656 0.000000 0.000000 0.000000
# 3 -0.008544 -0.002656 0.026506 0.000000 0.000000 0.000000
# 4 0.000000 0.000000 0.000000 0.039201 0.000000 0.000000
# 5 0.000000 0.000000 0.000000 0.000000 0.034798 0.000000
# 6 0.000000 0.000000 0.000000 0.000000 0.000000 0.041350
#
#
# Mechanical properties :
#
#
# Convention : Reuss Voigt Hill
#
# Bulk Modulus (GPa) = 33.03358 35.56359 34.29859
# Shear Modulus (GPa) = 24.45396 27.01751 25.73574
#
# Velocity S-wave (km/s) = 3.44444 3.62048 3.53356
# Velocity P-wave (km/s) = 5.64318 5.89333 5.76961
#
# Compressibility (1/GPa) = 0.03027222
#
# Stress axis : x y z
#
# Youngs Moduli (GPa) = 54.28051 102.87475 37.72750
#
# Poissons Ratio (x) = 0.10169 0.32235
# Poissons Ratio (y) = 0.05365 0.10020
# Poissons Ratio (z) = 0.46378 0.27324
#
# Static dielectric constant tensor:
#      x y z
#    x 1.723120 0.000000 0.000000 
#    y 0.000000 1.858670 0.000000 
#    z 0.000000 0.000000 1.722880 
# 
# From -- ./inp_files/18774.got.cif
#   From: 2010.05.17/outbox.cif.g08.bks.cpg/sg56_10_cif.got.tgz:18774.got - 2010.06.03 13:42:01.
