data_PCOD9431087
_publ_section_title
;
Structure prediction by ZEFSAII (Michael W. Deem and Ramdas Pophale) SiO2 
 PCOD9431087
Probable space group: P C C N
;
_chemical_formula_sum "Si O2"
_cell_formula_units_Z 64
_cell_length_a 7.804146
_cell_length_b 22.897780
_cell_length_c 14.843438
_cell_angle_alpha 90.000000
_cell_angle_beta 90.000000
_cell_angle_gamma 90.000000
_cell_volume 2652.487016
_symmetry_space_group_name_H-M "P C C N"
_symmetry_group_IT_number 56
_symmetry_cell_setting 'orthorhombic'
loop_
_space_group_symop_operation_xyz
x,y,z
1/2-x,1/2-y,z
1/2+x,-y,1/2-z
-x,1/2+y,1/2-z
-x,-y,-z
1/2+x,1/2+y,-z
1/2-x,y,1/2+z
x,1/2-y,1/2+z
loop_
_atom_site_type_symbol
_atom_site_label
_atom_site_fract_x
_atom_site_fract_y
_atom_site_fract_z
Si Si1 0.543893 0.759683 0.521096
Si Si2 0.391367 0.116608 0.551131
Si Si3 0.826579 0.068432 0.839992
Si Si4 0.481075 0.184710 0.307353
Si Si5 0.987873 0.841002 0.394276
Si Si6 0.908836 0.062989 0.494873
Si Si7 0.290174 0.098326 0.874613
Si Si8 0.996352 0.542046 0.279837
O O1 0.750000 0.750000 0.514641
O O2 0.513170 0.823922 0.478564
O O3 0.493467 0.761935 0.625621
O O4 0.460382 0.708009 0.465862
O O5 0.208402 0.137877 0.592097
O O6 0.338143 0.083358 0.458205
O O7 0.478306 0.079189 0.628803
O O8 0.884486 0.134314 0.831324
O O9 0.766329 0.055577 0.941649
O O10 0.666793 0.055207 0.775111
O O11 0.973654 0.025082 0.806631
O O12 0.495604 0.190329 0.201535
O O13 0.295930 0.156516 0.334100
O O14 0.094271 0.900570 0.412766
O O15 0.031200 0.102116 0.429603
O O16 0.000000 0.000000 0.500000
O O17 0.343395 0.058830 0.790139
#
# Coordination Sequence:
#
# PCOD9431087 Si02
#       8
#     8   8   8   8   8   8   8   8
#     4   9  21  41  67 102 126 168 228 281 329 396
#     4   9  18  37  63 101 131 166 226 273 330 392
#     4  11  25  40  63  98 136 181 222 276 332 407
#     4  11  22  42  66  99 132 169 229 278 334 399
#     4  10  20  40  68  93 131 174 218 275 341 399
#     4  10  22  41  65  97 139 183 220 267 344 405
#     4   9  19  35  64  93 128 172 211 273 318 394
#     4  11  21  40  64  95 143 175 222 272 338 402
#
# _framework density 24.128301
#
# number of rings (size 3 to 8) (size 9 to 14) (size 15 to 20)
#    0.000    2.000    1.250    3.000    3.500    1.500 
#   11.250    4.375    0.000    0.000    0.000    0.000 
#    0.000    0.000    0.000    0.000    0.000    0.000 
#
# Total GULP energy -357675.290564 kJ/mol
# GULP energy per Si atom -5588.676415 kJ/mol
# Density = 2.407338 g / cm^3
# Si number density = 24.128301 Si / 1000 Ang^3
#
#
#
# Elastic Constant Matrix: (Units=GPa)
#
#
# Indices 1 2 3 4 5 6 
#
# 1 67.5782 20.7836 12.7211 0.0000 0.0000 0.0000
# 2 20.7836 78.2374 52.7929 0.0000 0.0000 0.0000
# 3 12.7211 52.7929 165.0935 0.0000 0.0000 0.0000
# 4 0.0000 0.0000 0.0000 36.3403 0.0000 0.0000
# 5 0.0000 0.0000 0.0000 0.0000 32.2856 0.0000
# 6 0.0000 0.0000 0.0000 0.0000 0.0000 18.3642
#
#
#
# Elastic Compliance Matrix: (Units=1/GPa)
#
#
# Indices 1 2 3 4 5 6 
#
# 1 0.016118 -0.004391 0.000162 0.000000 0.000000 0.000000
# 2 -0.004391 0.017495 -0.005256 0.000000 0.000000 0.000000
# 3 0.000162 -0.005256 0.007725 0.000000 0.000000 0.000000
# 4 0.000000 0.000000 0.000000 0.027518 0.000000 0.000000
# 5 0.000000 0.000000 0.000000 0.000000 0.030974 0.000000
# 6 0.000000 0.000000 0.000000 0.000000 0.000000 0.054454
#
#
# Mechanical properties :
#
#
# Convention : Reuss Voigt Hill
#
# Bulk Modulus (GPa) = 44.70670 53.72270 49.21470
# Shear Modulus (GPa) = 27.66884 32.37212 30.02048
#
# Velocity S-wave (km/s) = 3.39003 3.66685 3.53115
# Velocity P-wave (km/s) = 5.82168 6.34362 6.08825
#
# Compressibility (1/GPa) = 0.02236801
#
# Stress axis : x y z
#
# Youngs Moduli (GPa) = 62.04400 57.15994 129.44262
#
# Poissons Ratio (x) = 0.25099 -0.02100
# Poissons Ratio (y) = 0.27244 0.68036
# Poissons Ratio (z) = -0.01007 0.30044
#
# Static dielectric constant tensor:
#      x y z
#    x 1.977410 0.000000 0.000000 
#    y 0.000000 1.937010 0.000000 
#    z 0.000000 0.000000 1.973500 
# 
# From -- ./inp_files/11045.got.cif
#   From: 2010.05.17/outbox.cif.g08.bks.cpg/sg56_6_cif.got.tgz:11045.got - 2010.06.03 13:42:01.
