data_PCOD9431545
_publ_section_title
;
Structure prediction by ZEFSAII (Michael W. Deem and Ramdas Pophale) SiO2 
 PCOD9431545
Probable space group: P C C N
;
_chemical_formula_sum "Si O2"
_cell_formula_units_Z 48
_cell_length_a 11.412321
_cell_length_b 9.343034
_cell_length_c 21.492063
_cell_angle_alpha 90.000000
_cell_angle_beta 90.000000
_cell_angle_gamma 90.000000
_cell_volume 2291.606329
_symmetry_space_group_name_H-M "P C C N"
_symmetry_group_IT_number 56
_symmetry_cell_setting 'orthorhombic'
loop_
_space_group_symop_operation_xyz
x,y,z
1/2-x,1/2-y,z
1/2+x,-y,1/2-z
-x,1/2+y,1/2-z
-x,-y,-z
1/2+x,1/2+y,-z
1/2-x,y,1/2+z
x,1/2-y,1/2+z
loop_
_atom_site_type_symbol
_atom_site_label
_atom_site_fract_x
_atom_site_fract_y
_atom_site_fract_z
Si Si1 0.456704 0.975141 0.138888
Si Si2 0.380940 0.199341 0.043456
Si Si3 0.118304 0.228972 0.899369
Si Si4 0.284698 0.604699 0.172125
Si Si5 0.624363 0.289695 0.695217
Si Si6 0.501131 0.565818 0.877695
O O1 0.518786 0.821565 0.134867
O O2 0.340186 0.971944 0.181285
O O3 0.411701 0.046391 0.074108
O O4 0.555015 0.081682 0.163975
O O5 0.250000 0.250000 0.062853
O O6 0.473971 0.313868 0.070590
O O7 0.382555 0.208002 0.969262
O O8 0.250000 0.250000 0.873953
O O9 0.084366 0.062176 0.897723
O O10 0.250000 0.750000 0.135691
O O11 0.345281 0.658648 0.235439
O O12 0.375150 0.506486 0.137037
O O13 0.750000 0.250000 0.665569
O O14 0.546117 0.149357 0.683116
#
# Coordination Sequence:
#
# PCOD9431545 Si02
#       6
#     8   8   8   8   8   8
#     4  11  22  43  67  92 131 169 213 270 315 383
#     4  10  21  39  64  99 125 164 214 263 322 386
#     4  11  23  39  65  94 130 168 211 262 325 383
#     4  11  23  40  65  93 122 169 218 259 315 377
#     4  10  25  41  63  93 128 163 214 263 318 379
#     4  11  22  41  65  90 131 166 209 268 317 377
#
# _framework density 20.946005
#
# number of rings (size 3 to 8) (size 9 to 14) (size 15 to 20)
#    0.000    1.333    3.333    2.000    4.667    0.000 
#    0.000    0.000   11.000    0.000    0.000    0.000 
#    0.000    0.000    0.000    0.000    0.000    0.000 
#
# Total GULP energy -267881.401098 kJ/mol
# GULP energy per Si atom -5580.862523 kJ/mol
# Density = 2.089833 g / cm^3
# Si number density = 20.946005 Si / 1000 Ang^3
#
#
#
# Elastic Constant Matrix: (Units=GPa)
#
#
# Indices 1 2 3 4 5 6 
#
# 1 116.3410 17.1744 3.9521 0.0000 0.0000 0.0000
# 2 17.1744 67.7199 -7.4639 0.0000 0.0000 0.0000
# 3 3.9521 -7.4639 36.6026 0.0000 0.0000 0.0000
# 4 0.0000 0.0000 0.0000 26.0992 0.0000 0.0000
# 5 0.0000 0.0000 0.0000 0.0000 27.3741 0.0000
# 6 0.0000 0.0000 0.0000 0.0000 0.0000 50.9649
#
#
#
# Elastic Compliance Matrix: (Units=1/GPa)
#
#
# Indices 1 2 3 4 5 6 
#
# 1 0.009007 -0.002446 -0.001471 0.000000 0.000000 0.000000
# 2 -0.002446 0.015771 0.003480 0.000000 0.000000 0.000000
# 3 -0.001471 0.003480 0.028189 0.000000 0.000000 0.000000
# 4 0.000000 0.000000 0.000000 0.038315 0.000000 0.000000
# 5 0.000000 0.000000 0.000000 0.000000 0.036531 0.000000
# 6 0.000000 0.000000 0.000000 0.000000 0.000000 0.019621
#
#
# Mechanical properties :
#
#
# Convention : Reuss Voigt Hill
#
# Bulk Modulus (GPa) = 19.19716 27.55431 23.37574
# Shear Modulus (GPa) = 30.18001 34.68769 32.43385
#
# Velocity S-wave (km/s) = 3.79997 4.07388 3.93930
# Velocity P-wave (km/s) = 5.33273 5.94240 5.64580
#
# Compressibility (1/GPa) = 0.05209103
#
# Stress axis : x y z
#
# Youngs Moduli (GPa) = 111.03059 63.40880 35.47489
#
# Poissons Ratio (x) = 0.15512 0.05219
# Poissons Ratio (y) = 0.27161 -0.12345
# Poissons Ratio (z) = 0.16336 -0.22067
#
# Static dielectric constant tensor:
#      x y z
#    x 1.781220 0.000000 0.000000 
#    y 0.000000 1.769220 0.000000 
#    z 0.000000 0.000000 1.759250 
# 
# From -- ./inp_files/20908.got.cif
#   From: 2010.05.17/outbox.cif.g08.bks.cpg/sg56_11_cif.got.tgz:20908.got - 2010.06.03 13:42:01.
