data_PCOD9431421
_publ_section_title
;
Structure prediction by ZEFSAII (Michael W. Deem and Ramdas Pophale) SiO2 
 PCOD9431421
Probable space group: P C C N
;
_chemical_formula_sum "Si O2"
_cell_formula_units_Z 56
_cell_length_a 22.590365
_cell_length_b 22.819786
_cell_length_c 5.332803
_cell_angle_alpha 90.000000
_cell_angle_beta 90.000000
_cell_angle_gamma 90.000000
_cell_volume 2749.098849
_symmetry_space_group_name_H-M "P C C N"
_symmetry_group_IT_number 56
_symmetry_cell_setting 'orthorhombic'
loop_
_space_group_symop_operation_xyz
x,y,z
1/2-x,1/2-y,z
1/2+x,-y,1/2-z
-x,1/2+y,1/2-z
-x,-y,-z
1/2+x,1/2+y,-z
1/2-x,y,1/2+z
x,1/2-y,1/2+z
loop_
_atom_site_type_symbol
_atom_site_label
_atom_site_fract_x
_atom_site_fract_y
_atom_site_fract_z
Si Si1 0.183745 0.225220 0.887461
Si Si2 0.527254 0.783274 0.427739
Si Si3 0.274782 0.816623 0.576772
Si Si4 0.918031 0.944748 0.517126
Si Si5 0.591273 0.348447 0.002004
Si Si6 0.443253 0.582156 0.503464
Si Si7 0.878727 0.614586 0.512691
O O1 0.250000 0.250000 0.860743
O O2 0.155989 0.238665 0.617574
O O3 0.177670 0.157377 0.955412
O O4 0.538111 0.764755 0.142440
O O5 0.458744 0.800009 0.457321
O O6 0.567143 0.839076 0.497286
O O7 0.250000 0.750000 0.599074
O O8 0.240160 0.844746 0.343966
O O9 0.343949 0.820460 0.519878
O O10 0.888898 0.924380 0.257233
O O11 0.985061 0.918691 0.528338
O O12 0.924299 0.014646 0.524745
O O13 0.881906 0.921302 0.756202
O O14 0.575729 0.382552 0.744793
O O15 0.584663 0.390326 0.244974
#
# Coordination Sequence:
#
# PCOD9431421 Si02
#       7
#     8   8   8   8   8   8   8
#     4  10  21  38  61  90 122 163 211 251 304 370
#     4  12  24  34  54  87 132 167 192 249 308 375
#     4  10  23  40  59  88 117 160 215 254 300 369
#     4  11  22  38  63  92 132 162 211 254 313 383
#     4  12  23  40  64  88 128 165 212 255 320 367
#     4  11  22  41  61  95 124 167 209 259 316 373
#     4  12  21  39  57  94 128 166 204 251 310 370
#
# _framework density 20.37031
#
# number of rings (size 3 to 8) (size 9 to 14) (size 15 to 20)
#    0.000    0.857    2.857    5.143    4.000    2.286 
#    0.000    0.000    0.000    0.000   74.286    0.000 
#    0.000    0.000    0.000    0.000    0.000    0.000 
#
# Total GULP energy -312998.958797 kJ/mol
# GULP energy per Si atom -5589.267121 kJ/mol
# Density = 2.032395 g / cm^3
# Si number density = 20.370310 Si / 1000 Ang^3
#
#
#
# Elastic Constant Matrix: (Units=GPa)
#
#
# Indices 1 2 3 4 5 6 
#
# 1 84.9512 24.9466 7.3266 0.0000 0.0000 0.0000
# 2 24.9466 62.8451 45.2742 0.0000 0.0000 0.0000
# 3 7.3266 45.2742 170.5730 0.0000 0.0000 0.0000
# 4 0.0000 0.0000 0.0000 33.2634 0.0000 0.0000
# 5 0.0000 0.0000 0.0000 0.0000 81.2641 0.0000
# 6 0.0000 0.0000 0.0000 0.0000 0.0000 31.7781
#
#
#
# Elastic Compliance Matrix: (Units=1/GPa)
#
#
# Indices 1 2 3 4 5 6 
#
# 1 0.013472 -0.006097 0.001040 0.000000 0.000000 0.000000
# 2 -0.006097 0.022433 -0.005692 0.000000 0.000000 0.000000
# 3 0.001040 -0.005692 0.007329 0.000000 0.000000 0.000000
# 4 0.000000 0.000000 0.000000 0.030063 0.000000 0.000000
# 5 0.000000 0.000000 0.000000 0.000000 0.012306 0.000000
# 6 0.000000 0.000000 0.000000 0.000000 0.000000 0.031468
#
#
# Mechanical properties :
#
#
# Convention : Reuss Voigt Hill
#
# Bulk Modulus (GPa) = 46.00887 52.60711 49.30799
# Shear Modulus (GPa) = 34.28998 45.31593 39.80296
#
# Velocity S-wave (km/s) = 4.10729 4.72169 4.42517
# Velocity P-wave (km/s) = 6.71777 7.45703 7.09703
#
# Compressibility (1/GPa) = 0.02173494
#
# Stress axis : x y z
#
# Youngs Moduli (GPa) = 74.22709 44.57689 136.44702
#
# Poissons Ratio (x) = 0.27177 -0.14184
# Poissons Ratio (y) = 0.45254 0.77672
# Poissons Ratio (z) = -0.07716 0.25375
#
# Static dielectric constant tensor:
#      x y z
#    x 1.852790 0.000000 0.000000 
#    y 0.000000 1.686120 0.000000 
#    z 0.000000 0.000000 1.771460 
# 
# From -- ./inp_files/1078.got.cif
#   From: 2010.05.17/outbox.cif.g08.bks.cpg/sg56_1_cif.got.tgz:1078.got - 2010.06.03 13:42:01.
