data_PCOD9431539
_publ_section_title
;
Structure prediction by ZEFSAII (Michael W. Deem and Ramdas Pophale) SiO2 
 PCOD9431539
Probable space group: P C C N
;
_chemical_formula_sum "Si O2"
_cell_formula_units_Z 48
_cell_length_a 26.594907
_cell_length_b 8.095099
_cell_length_c 9.649435
_cell_angle_alpha 90.000000
_cell_angle_beta 90.000000
_cell_angle_gamma 90.000000
_cell_volume 2077.411471
_symmetry_space_group_name_H-M "P C C N"
_symmetry_group_IT_number 56
_symmetry_cell_setting 'orthorhombic'
loop_
_space_group_symop_operation_xyz
x,y,z
1/2-x,1/2-y,z
1/2+x,-y,1/2-z
-x,1/2+y,1/2-z
-x,-y,-z
1/2+x,1/2+y,-z
1/2-x,y,1/2+z
x,1/2-y,1/2+z
loop_
_atom_site_type_symbol
_atom_site_label
_atom_site_fract_x
_atom_site_fract_y
_atom_site_fract_z
Si Si1 0.358433 0.453680 0.769471
Si Si2 0.489674 0.310718 0.451332
Si Si3 0.857359 0.409784 0.155797
Si Si4 0.873349 0.741649 0.993024
Si Si5 0.449211 0.697373 0.811715
Si Si6 0.192033 0.741394 0.104195
O O1 0.362233 0.297134 0.666346
O O2 0.349393 0.394580 0.925626
O O3 0.412050 0.549448 0.768918
O O4 0.319623 0.580280 0.700055
O O5 0.500000 0.500000 0.500000
O O6 0.433369 0.257205 0.484750
O O7 0.528950 0.196724 0.534795
O O8 0.504195 0.296293 0.291624
O O9 0.854924 0.581450 0.078056
O O10 0.913746 0.358972 0.198085
O O11 0.824231 0.387308 0.292352
O O12 0.840673 0.280907 0.034641
O O13 0.250000 0.750000 0.065936
#
# Coordination Sequence:
#
# PCOD9431539 Si02
#       6
#     8   8   8   8   8   8
#     4  10  23  39  59  90 125 162 201 254 319 370
#     4  12  22  38  59  87 128 172 225 265 289 365
#     4  10  21  39  64  88 127 159 204 261 312 374
#     4  11  22  39  57  90 130 166 203 258 314 358
#     4  11  22  40  59  88 123 173 222 253 304 359
#     4  10  21  41  68  94 115 155 207 255 317 391
#
# _framework density 23.105678999999999
#
# number of rings (size 3 to 8) (size 9 to 14) (size 15 to 20)
#    0.000    1.333    3.333    3.500    0.000    4.667 
#    0.000    0.833    0.000    4.000    0.000    0.000 
#    0.000    0.000    0.000    0.000    0.000    0.000 
#
# Total GULP energy -268477.074791 kJ/mol
# GULP energy per Si atom -5593.272391 kJ/mol
# Density = 2.305309 g / cm^3
# Si number density = 23.105679 Si / 1000 Ang^3
#
#
#
# Elastic Constant Matrix: (Units=GPa)
#
#
# Indices 1 2 3 4 5 6 
#
# 1 56.4480 3.0207 1.4399 0.0000 0.0000 0.0000
# 2 3.0207 47.1119 19.9926 0.0000 0.0000 0.0000
# 3 1.4399 19.9926 98.5267 0.0000 0.0000 0.0000
# 4 0.0000 0.0000 0.0000 42.0855 0.0000 0.0000
# 5 0.0000 0.0000 0.0000 0.0000 21.3096 0.0000
# 6 0.0000 0.0000 0.0000 0.0000 0.0000 11.5061
#
#
#
# Elastic Compliance Matrix: (Units=1/GPa)
#
#
# Indices 1 2 3 4 5 6 
#
# 1 0.017777 -0.001127 -0.000031 0.000000 0.000000 0.000000
# 2 -0.001127 0.023297 -0.004711 0.000000 0.000000 0.000000
# 3 -0.000031 -0.004711 0.011106 0.000000 0.000000 0.000000
# 4 0.000000 0.000000 0.000000 0.023761 0.000000 0.000000
# 5 0.000000 0.000000 0.000000 0.000000 0.046927 0.000000
# 6 0.000000 0.000000 0.000000 0.000000 0.000000 0.086910
#
#
# Mechanical properties :
#
#
# Convention : Reuss Voigt Hill
#
# Bulk Modulus (GPa) = 24.72645 27.88809 26.30727
# Shear Modulus (GPa) = 21.27688 26.82246 24.04967
#
# Velocity S-wave (km/s) = 3.03784 3.41084 3.22973
# Velocity P-wave (km/s) = 4.79889 5.25431 5.03175
#
# Compressibility (1/GPa) = 0.04044252
#
# Stress axis : x y z
#
# Youngs Moduli (GPa) = 56.25400 42.92316 90.04208
#
# Poissons Ratio (x) = 0.04835 0.00281
# Poissons Ratio (y) = 0.06337 0.42418
# Poissons Ratio (z) = 0.00176 0.20221
#
# Static dielectric constant tensor:
#      x y z
#    x 1.838570 0.000000 0.000000 
#    y 0.000000 1.934560 0.000000 
#    z 0.000000 0.000000 1.851350 
# 
# From -- ./inp_files/2209.got.cif
#   From: 2010.05.17/outbox.cif.g08.bks.cpg/sg56_2_cif.got.tgz:2209.got - 2010.06.03 13:42:01.
