data_PCOD9431655
_publ_section_title
;
Structure prediction by ZEFSAII (Michael W. Deem and Ramdas Pophale) SiO2 
 PCOD9431655
Probable space group: P C C N
;
_chemical_formula_sum "Si O2"
_cell_formula_units_Z 48
_cell_length_a 7.200728
_cell_length_b 7.708313
_cell_length_c 29.367248
_cell_angle_alpha 90.000000
_cell_angle_beta 90.000000
_cell_angle_gamma 90.000000
_cell_volume 1630.042763
_symmetry_space_group_name_H-M "P C C N"
_symmetry_group_IT_number 56
_symmetry_cell_setting 'orthorhombic'
loop_
_space_group_symop_operation_xyz
x,y,z
1/2-x,1/2-y,z
1/2+x,-y,1/2-z
-x,1/2+y,1/2-z
-x,-y,-z
1/2+x,1/2+y,-z
1/2-x,y,1/2+z
x,1/2-y,1/2+z
loop_
_atom_site_type_symbol
_atom_site_label
_atom_site_fract_x
_atom_site_fract_y
_atom_site_fract_z
Si Si1 0.533259 0.817401 0.733121
Si Si2 0.542208 0.994913 0.413136
Si Si3 0.530901 0.236486 0.487492
Si Si4 0.026905 0.438021 0.070906
Si Si5 0.958828 0.823015 0.645854
Si Si6 0.037880 0.178785 0.178201
O O1 0.750000 0.750000 0.738359
O O2 0.455491 0.680512 0.695973
O O3 0.454404 0.810012 0.784106
O O4 0.493422 0.998789 0.707356
O O5 0.452627 0.072871 0.459691
O O6 0.468293 0.869872 0.372673
O O7 0.753492 0.947697 0.423964
O O8 0.557635 0.179308 0.385176
O O9 0.750000 0.250000 0.480554
O O10 0.453493 0.407057 0.461898
O O11 0.508504 0.265045 0.541726
O O12 0.954733 0.495135 0.120076
O O13 0.750000 0.750000 0.648360
O O14 0.250000 0.250000 0.170365
#
# Coordination Sequence:
#
# PCOD9431655 Si02
#       6
#     8   8   8   8   8   8
#     4   9  20  39  62  96 142 186 238 302 374 449
#     4   9  18  34  59  87 122 172 233 293 355 433
#     4   8  15  30  55  85 117 163 231 296 354 422
#     4   9  16  30  57  86 118 169 233 289 351 432
#     4   9  17  31  53  83 125 173 221 288 366 432
#     4  10  21  40  67 101 139 185 243 305 373 450
#
# _framework density 29.447078000000001
#
# number of rings (size 3 to 8) (size 9 to 14) (size 15 to 20)
#    0.000    3.000    0.000    1.500    0.000    2.667 
#    0.000   11.667    0.000   57.000    0.000    0.000 
#    0.000    0.000    0.000    0.000    0.000    5.000 
#
# Total GULP energy -268190.073530 kJ/mol
# GULP energy per Si atom -5587.293199 kJ/mol
# Density = 2.938005 g / cm^3
# Si number density = 29.447078 Si / 1000 Ang^3
#
#
#
# Elastic Constant Matrix: (Units=GPa)
#
#
# Indices 1 2 3 4 5 6 
#
# 1 149.5682 17.8083 -4.6176 0.0000 0.0000 0.0000
# 2 17.8083 192.0754 44.7119 0.0000 0.0000 0.0000
# 3 -4.6176 44.7119 280.4244 0.0000 0.0000 0.0000
# 4 0.0000 0.0000 0.0000 47.8322 0.0000 0.0000
# 5 0.0000 0.0000 0.0000 0.0000 21.8454 0.0000
# 6 0.0000 0.0000 0.0000 0.0000 0.0000 33.9185
#
#
#
# Elastic Compliance Matrix: (Units=1/GPa)
#
#
# Indices 1 2 3 4 5 6 
#
# 1 0.006774 -0.000679 0.000220 0.000000 0.000000 0.000000
# 2 -0.000679 0.005475 -0.000884 0.000000 0.000000 0.000000
# 3 0.000220 -0.000884 0.003711 0.000000 0.000000 0.000000
# 4 0.000000 0.000000 0.000000 0.020906 0.000000 0.000000
# 5 0.000000 0.000000 0.000000 0.000000 0.045776 0.000000
# 6 0.000000 0.000000 0.000000 0.000000 0.000000 0.029482
#
#
# Mechanical properties :
#
#
# Convention : Reuss Voigt Hill
#
# Bulk Modulus (GPa) = 75.34522 81.98593 78.66557
# Shear Modulus (GPa) = 41.93389 58.33027 50.13208
#
# Velocity S-wave (km/s) = 3.77774 4.45550 4.13055
# Velocity P-wave (km/s) = 6.68361 7.37366 7.03710
#
# Compressibility (1/GPa) = 0.01327224
#
# Stress axis : x y z
#
# Youngs Moduli (GPa) = 147.63268 182.64596 269.49713
#
# Poissons Ratio (x) = 0.12405 -0.05924
# Poissons Ratio (y) = 0.10027 0.23828
# Poissons Ratio (z) = -0.03245 0.16149
#
# Static dielectric constant tensor:
#      x y z
#    x 2.245930 0.000000 0.000000 
#    y 0.000000 2.496110 0.000000 
#    z 0.000000 0.000000 2.410190 
# 
# From -- ./inp_files/23196.got.cif
#   From: 2010.05.17/outbox.cif.g08.bks.cpg/sg56_12_cif.got.tgz:23196.got - 2010.06.03 13:42:01.
