data_PCOD9431185
_publ_section_title
;
Structure prediction by ZEFSAII (Michael W. Deem and Ramdas Pophale) SiO2 
 PCOD9431185
Probable space group: P C C N
;
_chemical_formula_sum "Si O2"
_cell_formula_units_Z 36
_cell_length_a 24.735990
_cell_length_b 7.408439
_cell_length_c 8.735870
_cell_angle_alpha 90.000000
_cell_angle_beta 90.000000
_cell_angle_gamma 90.000000
_cell_volume 1600.892495
_symmetry_space_group_name_H-M "P C C N"
_symmetry_group_IT_number 56
_symmetry_cell_setting 'orthorhombic'
loop_
_space_group_symop_operation_xyz
x,y,z
1/2-x,1/2-y,z
1/2+x,-y,1/2-z
-x,1/2+y,1/2-z
-x,-y,-z
1/2+x,1/2+y,-z
1/2-x,y,1/2+z
x,1/2-y,1/2+z
loop_
_atom_site_type_symbol
_atom_site_label
_atom_site_fract_x
_atom_site_fract_y
_atom_site_fract_z
Si Si1 0.923909 0.666896 0.256299
Si Si2 0.750000 0.750000 0.142759
Si Si3 0.411845 0.866193 0.005452
Si Si4 0.537259 0.052079 0.677195
Si Si5 0.173860 0.102859 0.614971
O O1 0.913042 0.514188 0.130272
O O2 0.871814 0.743380 0.347451
O O3 0.974534 0.593104 0.354440
O O4 0.945506 0.846283 0.173760
O O5 0.782866 0.887608 0.249508
O O6 0.706189 0.845437 0.036396
O O7 0.424449 0.678735 0.924156
O O8 0.454770 0.898480 0.141399
O O9 0.355989 0.912487 0.091661
#
# Coordination Sequence:
#
# PCOD9431185 Si02
#       5
#     8   4   8   8   8
#     4  11  22  41  67 101 138 187 224 280 332 416
#     4  10  20  42  70 102 118 174 226 294 342 406
#     4  11  24  44  60 103 135 186 226 273 338 409
#     4  11  25  39  67  96 148 180 228 271 339 411
#     4  10  22  39  69 100 128 165 237 274 344 403
#
# _framework density 22.487458
#
# number of rings (size 3 to 8) (size 9 to 14) (size 15 to 20)
#    0.000    1.333    4.444    0.667    3.111    4.444 
#    0.000    0.000    0.000   16.000    0.000    0.000 
#    0.000    0.000    0.000    0.000    0.000    0.000 
#
# Total GULP energy -201323.054040 kJ/mol
# GULP energy per Si atom -5592.307057 kJ/mol
# Density = 2.243628 g / cm^3
# Si number density = 22.487458 Si / 1000 Ang^3
#
#
#
# Elastic Constant Matrix: (Units=GPa)
#
#
# Indices 1 2 3 4 5 6 
#
# 1 150.8267 42.5935 54.3525 0.0000 0.0000 0.0000
# 2 42.5935 121.9856 23.2518 0.0000 0.0000 0.0000
# 3 54.3525 23.2518 96.8747 0.0000 0.0000 0.0000
# 4 0.0000 0.0000 0.0000 30.4041 0.0000 0.0000
# 5 0.0000 0.0000 0.0000 0.0000 44.5836 0.0000
# 6 0.0000 0.0000 0.0000 0.0000 0.0000 33.0491
#
#
#
# Elastic Compliance Matrix: (Units=1/GPa)
#
#
# Indices 1 2 3 4 5 6 
#
# 1 0.008863 -0.002250 -0.004433 0.000000 0.000000 0.000000
# 2 -0.002250 0.009162 -0.000937 0.000000 0.000000 0.000000
# 3 -0.004433 -0.000937 0.013034 0.000000 0.000000 0.000000
# 4 0.000000 0.000000 0.000000 0.032890 0.000000 0.000000
# 5 0.000000 0.000000 0.000000 0.000000 0.022430 0.000000
# 6 0.000000 0.000000 0.000000 0.000000 0.000000 0.030258
#
#
# Mechanical properties :
#
#
# Convention : Reuss Voigt Hill
#
# Bulk Modulus (GPa) = 63.20783 67.78696 65.49740
# Shear Modulus (GPa) = 36.45675 38.23997 37.34836
#
# Velocity S-wave (km/s) = 4.03079 4.12819 4.07978
# Velocity P-wave (km/s) = 7.05918 7.27546 7.16814
#
# Compressibility (1/GPa) = 0.01582082
#
# Stress axis : x y z
#
# Youngs Moduli (GPa) = 112.83137 109.14909 76.72007
#
# Poissons Ratio (x) = 0.24555 0.34007
# Poissons Ratio (y) = 0.25384 0.07187
# Poissons Ratio (z) = 0.50013 0.10225
#
# Static dielectric constant tensor:
#      x y z
#    x 1.872430 0.000000 0.000000 
#    y 0.000000 1.795460 0.000000 
#    z 0.000000 0.000000 1.908280 
# 
# From -- ./inp_files/4894.got.cif
#   From: 2010.05.17/outbox.cif.g08.bks.cpg/sg56_3_cif.got.tgz:4894.got - 2010.06.03 13:42:01.
