data_PCOD9431878
_publ_section_title
;
Structure prediction by ZEFSAII (Michael W. Deem and Ramdas Pophale) SiO2 
 PCOD9431878
Probable space group: P C C N
;
_chemical_formula_sum "Si O2"
_cell_formula_units_Z 36
_cell_length_a 11.514754
_cell_length_b 10.967689
_cell_length_c 14.969271
_cell_angle_alpha 90.000000
_cell_angle_beta 90.000000
_cell_angle_gamma 90.000000
_cell_volume 1890.472839
_symmetry_space_group_name_H-M "P C C N"
_symmetry_group_IT_number 56
_symmetry_cell_setting 'orthorhombic'
loop_
_space_group_symop_operation_xyz
x,y,z
1/2-x,1/2-y,z
1/2+x,-y,1/2-z
-x,1/2+y,1/2-z
-x,-y,-z
1/2+x,1/2+y,-z
1/2-x,y,1/2+z
x,1/2-y,1/2+z
loop_
_atom_site_type_symbol
_atom_site_label
_atom_site_fract_x
_atom_site_fract_y
_atom_site_fract_z
Si Si1 0.660165 0.146025 0.799044
Si Si2 0.636953 0.516610 0.474755
Si Si3 0.750000 0.750000 0.388850
Si Si4 0.765734 0.960890 0.146152
Si Si5 0.904478 0.727866 0.217909
O O1 0.750000 0.250000 0.820706
O O2 0.540375 0.213928 0.778013
O O3 0.649340 0.058935 0.883989
O O4 0.702208 0.064857 0.715980
O O5 0.500000 0.500000 0.500000
O O6 0.684081 0.651701 0.449499
O O7 0.732093 0.481049 0.550738
O O8 0.848980 0.713665 0.316585
O O9 0.859150 0.850875 0.167257
O O10 0.646902 0.888289 0.166499
#
# Coordination Sequence:
#
# PCOD9431878 Si02
#       5
#     8   8   4   8   8
#     4  12  27  42  67 100 140 171 233 284 340 402
#     4  12  24  43  71 101 139 176 231 282 340 418
#     4  10  22  44  72  98 132 190 226 266 348 406
#     4  10  23  44  67  97 131 179 223 276 343 403
#     4  10  21  44  71  92 132 184 221 272 345 406
#
# _framework density 19.042856
#
# number of rings (size 3 to 8) (size 9 to 14) (size 15 to 20)
#    0.000    1.333    6.667    1.333    6.222    0.889 
#    0.000    2.222    0.000    0.000    0.000    0.000 
#    0.000    0.000    0.000    0.000    0.000    0.000 
#
# Total GULP energy -200405.902552 kJ/mol
# GULP energy per Si atom -5566.830626 kJ/mol
# Density = 1.899951 g / cm^3
# Si number density = 19.042856 Si / 1000 Ang^3
#
#
#
# Elastic Constant Matrix: (Units=GPa)
#
#
# Indices 1 2 3 4 5 6 
#
# 1 105.0244 46.6236 37.1689 0.0000 0.0000 0.0000
# 2 46.6236 54.5235 14.4060 0.0000 0.0000 0.0000
# 3 37.1689 14.4060 116.9536 0.0000 0.0000 0.0000
# 4 0.0000 0.0000 0.0000 -621.0617 0.0000 0.0000
# 5 0.0000 0.0000 0.0000 0.0000 -113.7379 0.0000
# 6 0.0000 0.0000 0.0000 0.0000 0.0000 10.2169
#
#
#
# Elastic Compliance Matrix: (Units=1/GPa)
#
#
# Indices 1 2 3 4 5 6 
#
# 1 0.016751 -0.013352 -0.003679 0.000000 0.000000 0.000000
# 2 -0.013352 0.029600 0.000597 0.000000 0.000000 0.000000
# 3 -0.003679 0.000597 0.009646 0.000000 0.000000 0.000000
# 4 0.000000 0.000000 0.000000 -0.001610 0.000000 0.000000
# 5 0.000000 0.000000 0.000000 0.000000 -0.008792 0.000000
# 6 0.000000 0.000000 0.000000 0.000000 0.000000 0.097877
#
#
# Mechanical properties :
#
#
# Convention : Reuss Voigt Hill
#
# Bulk Modulus (GPa) = 43.23369 52.54426 47.88898
# Shear Modulus (GPa) = 27.16672 -133.02968 -52.93148
#
# Velocity S-wave (km/s) = 3.78115 -8.36718 -5.27791
# Velocity P-wave (km/s) = 6.46648 8.10517 3.45531
#
# Compressibility (1/GPa) = 0.02313011
#
# Stress axis : x y z
#
# Youngs Moduli (GPa) = 59.69829 33.78355 103.66954
#
# Poissons Ratio (x) = 0.45107 0.38139
# Poissons Ratio (y) = 0.79708 -0.06192
# Poissons Ratio (z) = 0.21963 -0.02018
#
# Static dielectric constant tensor:
#      x y z
#    x 1.675680 0.000000 0.000000 
#    y 0.000000 1.668800 0.000000 
#    z 0.000000 0.000000 1.779370 
# 
# From -- ./inp_files/11345.got.cif
#   From: 2010.05.17/outbox.cif.g08.bks.cpg/sg56_6_cif.got.tgz:11345.got - 2010.06.03 13:42:01.
