data_PCOD9431654
_publ_section_title
;
Structure prediction by ZEFSAII (Michael W. Deem and Ramdas Pophale) SiO2 
 PCOD9431654
Probable space group: P C C N
;
_chemical_formula_sum "Si O2"
_cell_formula_units_Z 48
_cell_length_a 27.959345
_cell_length_b 8.302011
_cell_length_c 9.245214
_cell_angle_alpha 90.000000
_cell_angle_beta 90.000000
_cell_angle_gamma 90.000000
_cell_volume 2145.987885
_symmetry_space_group_name_H-M "P C C N"
_symmetry_group_IT_number 56
_symmetry_cell_setting 'orthorhombic'
loop_
_space_group_symop_operation_xyz
x,y,z
1/2-x,1/2-y,z
1/2+x,-y,1/2-z
-x,1/2+y,1/2-z
-x,-y,-z
1/2+x,1/2+y,-z
1/2-x,y,1/2+z
x,1/2-y,1/2+z
loop_
_atom_site_type_symbol
_atom_site_label
_atom_site_fract_x
_atom_site_fract_y
_atom_site_fract_z
Si Si1 0.016350 0.355438 0.397285
Si Si2 0.907882 0.257139 0.393858
Si Si3 0.250000 0.250000 0.255939
Si Si4 0.047873 0.069973 0.575238
Si Si5 0.780387 0.972578 0.481596
Si Si6 0.157206 0.763386 0.372410
Si Si7 0.250000 0.750000 0.188533
O O1 0.963470 0.287002 0.362947
O O2 0.000000 0.500000 0.500000
O O3 0.051247 0.236998 0.487101
O O4 0.038945 0.398937 0.244214
O O5 0.878103 0.310583 0.255992
O O6 0.879043 0.338119 0.526599
O O7 0.911664 0.065876 0.432029
O O8 0.231212 0.116462 0.368445
O O9 0.286379 0.162115 0.143555
O O10 0.000000 0.000000 0.500000
O O11 0.820956 0.099201 0.524538
O O12 0.740583 0.094076 0.412302
O O13 0.204639 0.703960 0.287525
#
# Coordination Sequence:
#
# PCOD9431654 Si02
#       7
#     8   8   4   8   8   8   4
#     4  11  21  41  72  97 133 184 223 277 358 442
#     4  11  24  41  65 104 136 174 231 299 341 404
#     4  10  24  42  68  96 136 176 246 290 368 432
#     4  10  21  40  66  97 135 174 226 279 356 428
#     4  11  23  43  68  99 133 186 240 292 357 426
#     4  12  24  40  69  99 141 173 245 299 338 418
#     4  12  24  42  76 100 128 198 252 282 356 414
#
# _framework density 22.367319999999999
#
# number of rings (size 3 to 8) (size 9 to 14) (size 15 to 20)
#    0.000    1.000    3.333    5.500    0.000    0.000 
#    0.000    3.333    0.000    0.000    0.000    0.000 
#    0.000    0.000    0.000    0.000    0.000    0.000 
#
# Total GULP energy -267265.496543 kJ/mol
# GULP energy per Si atom -5568.031178 kJ/mol
# Density = 2.231641 g / cm^3
# Si number density = 22.367320 Si / 1000 Ang^3
#
#
#
# Elastic Constant Matrix: (Units=GPa)
#
#
# Indices 1 2 3 4 5 6 
#
# 1 63.4991 3.2493 13.5751 0.0000 0.0000 0.0000
# 2 3.2493 70.6345 24.6795 0.0000 0.0000 0.0000
# 3 13.5751 24.6795 159.7563 0.0000 0.0000 0.0000
# 4 0.0000 0.0000 0.0000 50.2580 0.0000 0.0000
# 5 0.0000 0.0000 0.0000 0.0000 29.5134 0.0000
# 6 0.0000 0.0000 0.0000 0.0000 0.0000 15.3709
#
#
#
# Elastic Compliance Matrix: (Units=1/GPa)
#
#
# Indices 1 2 3 4 5 6 
#
# 1 0.016045 -0.000277 -0.001321 0.000000 0.000000 0.000000
# 2 -0.000277 0.014970 -0.002289 0.000000 0.000000 0.000000
# 3 -0.001321 -0.002289 0.006725 0.000000 0.000000 0.000000
# 4 0.000000 0.000000 0.000000 0.019897 0.000000 0.000000
# 5 0.000000 0.000000 0.000000 0.000000 0.033883 0.000000
# 6 0.000000 0.000000 0.000000 0.000000 0.000000 0.065058
#
#
# Mechanical properties :
#
#
# Convention : Reuss Voigt Hill
#
# Bulk Modulus (GPa) = 33.36973 41.87754 37.62364
# Shear Modulus (GPa) = 28.67960 35.85420 32.26690
#
# Velocity S-wave (km/s) = 3.58468 4.00806 3.80227
# Velocity P-wave (km/s) = 5.66433 6.33898 6.01113
#
# Compressibility (1/GPa) = 0.02996728
#
# Stress axis : x y z
#
# Youngs Moduli (GPa) = 62.32572 66.80070 148.69058
#
# Poissons Ratio (x) = 0.01848 0.19637
# Poissons Ratio (y) = 0.01724 0.34036
# Poissons Ratio (z) = 0.08231 0.15291
#
# Static dielectric constant tensor:
#      x y z
#    x 1.797860 0.000000 0.000000 
#    y 0.000000 1.997350 0.000000 
#    z 0.000000 0.000000 1.850290 
# 
# From -- ./inp_files/2277.got.cif
#   From: 2010.05.17/outbox.cif.g08.bks.cpg/sg56_2_cif.got.tgz:2277.got - 2010.06.03 13:42:01.
