data_PCOD9431535
_publ_section_title
;
Structure prediction by ZEFSAII (Michael W. Deem and Ramdas Pophale) SiO2 
 PCOD9431535
Probable space group: P C C N
;
_chemical_formula_sum "Si O2"
_cell_formula_units_Z 36
_cell_length_a 6.693978
_cell_length_b 18.979761
_cell_length_c 12.109178
_cell_angle_alpha 90.000000
_cell_angle_beta 90.000000
_cell_angle_gamma 90.000000
_cell_volume 1538.472307
_symmetry_space_group_name_H-M "P C C N"
_symmetry_group_IT_number 56
_symmetry_cell_setting 'orthorhombic'
loop_
_space_group_symop_operation_xyz
x,y,z
1/2-x,1/2-y,z
1/2+x,-y,1/2-z
-x,1/2+y,1/2-z
-x,-y,-z
1/2+x,1/2+y,-z
1/2-x,y,1/2+z
x,1/2-y,1/2+z
loop_
_atom_site_type_symbol
_atom_site_label
_atom_site_fract_x
_atom_site_fract_y
_atom_site_fract_z
Si Si1 0.773759 0.535001 0.385318
Si Si2 0.050702 0.850558 0.783248
Si Si3 0.546610 0.101443 0.282065
Si Si4 0.805606 0.630207 0.069526
Si Si5 0.250000 0.250000 0.603673
O O1 0.963038 0.585257 0.356470
O O2 0.838910 0.457074 0.354687
O O3 0.597389 0.560758 0.303766
O O4 0.712004 0.554444 0.509739
O O5 0.977506 0.864651 0.658760
O O6 0.929694 0.782943 0.825739
O O7 0.288252 0.852721 0.780560
O O8 0.398848 0.143378 0.362728
O O9 0.827261 0.687467 0.974267
#
# Coordination Sequence:
#
# PCOD9431535 Si02
#       5
#     8   8   8   8   4
#     4  10  21  39  63  99 143 168 212 278 333 399
#     4  10  22  41  65  95 132 175 225 273 332 395
#     4  11  21  40  66 101 133 181 215 269 344 403
#     4  10  23  40  64  96 127 178 229 275 329 394
#     4  10  22  46  64  84 136 178 220 286 322 380
#
# _framework density 23.399836000000001
#
# number of rings (size 3 to 8) (size 9 to 14) (size 15 to 20)
#    0.000    1.778    2.222    1.333    0.000    4.444 
#    0.000   24.444    0.000    0.000    0.000    0.000 
#    0.000    0.000    0.000    0.000    0.000    0.000 
#
# Total GULP energy -201514.655063 kJ/mol
# GULP energy per Si atom -5597.629307 kJ/mol
# Density = 2.334658 g / cm^3
# Si number density = 23.399836 Si / 1000 Ang^3
#
#
#
# Elastic Constant Matrix: (Units=GPa)
#
#
# Indices 1 2 3 4 5 6 
#
# 1 127.7110 41.8991 24.6164 0.0000 0.0000 0.0000
# 2 41.8991 72.3639 6.1064 0.0000 0.0000 0.0000
# 3 24.6164 6.1064 69.1371 0.0000 0.0000 0.0000
# 4 0.0000 0.0000 0.0000 33.9847 0.0000 0.0000
# 5 0.0000 0.0000 0.0000 0.0000 9.0580 0.0000
# 6 0.0000 0.0000 0.0000 0.0000 0.0000 38.4101
#
#
#
# Elastic Compliance Matrix: (Units=1/GPa)
#
#
# Indices 1 2 3 4 5 6 
#
# 1 0.010312 -0.005703 -0.003168 0.000000 0.000000 0.000000
# 2 -0.005703 0.017077 0.000522 0.000000 0.000000 0.000000
# 3 -0.003168 0.000522 0.015546 0.000000 0.000000 0.000000
# 4 0.000000 0.000000 0.000000 0.029425 0.000000 0.000000
# 5 0.000000 0.000000 0.000000 0.000000 0.110400 0.000000
# 6 0.000000 0.000000 0.000000 0.000000 0.000000 0.026035
#
#
# Mechanical properties :
#
#
# Convention : Reuss Voigt Hill
#
# Bulk Modulus (GPa) = 38.11365 46.05063 42.08214
# Shear Modulus (GPa) = 21.34583 29.39658 25.37120
#
# Velocity S-wave (km/s) = 3.02358 3.54824 3.29636
# Velocity P-wave (km/s) = 5.33973 6.04229 5.70184
#
# Compressibility (1/GPa) = 0.02623732
#
# Stress axis : x y z
#
# Youngs Moduli (GPa) = 96.97517 58.55758 64.32606
#
# Poissons Ratio (x) = 0.33397 0.20377
# Poissons Ratio (y) = 0.55308 -0.03360
# Poissons Ratio (z) = 0.30720 -0.03059
#
# Static dielectric constant tensor:
#      x y z
#    x 1.856970 0.000000 0.000000 
#    y 0.000000 1.916240 0.000000 
#    z 0.000000 0.000000 1.875990 
# 
# From -- ./inp_files/5559.got.cif
#   From: 2010.05.17/outbox.cif.g08.bks.cpg/sg56_3_cif.got.tgz:5559.got - 2010.06.03 13:42:01.
