data_PCOD9431098
_publ_section_title
;
Structure prediction by ZEFSAII (Michael W. Deem and Ramdas Pophale) SiO2 
 PCOD9431098
Probable space group: P C C N
;
_chemical_formula_sum "Si O2"
_cell_formula_units_Z 52
_cell_length_a 24.752805
_cell_length_b 8.167812
_cell_length_c 12.430516
_cell_angle_alpha 90.000000
_cell_angle_beta 90.000000
_cell_angle_gamma 90.000000
_cell_volume 2513.155206
_symmetry_space_group_name_H-M "P C C N"
_symmetry_group_IT_number 56
_symmetry_cell_setting 'orthorhombic'
loop_
_space_group_symop_operation_xyz
x,y,z
1/2-x,1/2-y,z
1/2+x,-y,1/2-z
-x,1/2+y,1/2-z
-x,-y,-z
1/2+x,1/2+y,-z
1/2-x,y,1/2+z
x,1/2-y,1/2+z
loop_
_atom_site_type_symbol
_atom_site_label
_atom_site_fract_x
_atom_site_fract_y
_atom_site_fract_z
Si Si1 0.448707 0.491666 0.134583
Si Si2 0.834006 0.012960 0.126873
Si Si3 0.604002 0.757724 0.518150
Si Si4 0.399346 0.000052 0.156013
Si Si5 0.510389 0.832198 0.162030
Si Si6 0.750000 0.250000 0.245191
Si Si7 0.654410 0.166875 0.393723
O O1 0.484809 0.654387 0.140073
O O2 0.473004 0.358303 0.214476
O O3 0.389905 0.558241 0.168414
O O4 0.434485 0.408582 0.021105
O O5 0.782741 0.107753 0.180079
O O6 0.843576 0.827977 0.080008
O O7 0.880386 0.011332 0.219712
O O8 0.841214 0.111648 0.016311
O O9 0.617134 0.661543 0.408695
O O10 0.564634 0.649892 0.592437
O O11 0.462816 0.962777 0.141738
O O12 0.367655 0.850289 0.102901
O O13 0.708023 0.162066 0.324421
#
# Coordination Sequence:
#
# PCOD9431098 Si02
#       7
#     8   8   8   8   8   4   8
#     4  10  21  35  54  83 117 160 207 244 296 361
#     4  10  21  40  65  90 121 157 200 259 307 363
#     4  11  21  35  56  87 126 163 199 248 302 357
#     4  10  22  37  59  93 128 165 207 241 295 368
#     4  11  21  35  56  84 125 170 204 244 288 352
#     4  10  20  40  70  92 106 144 206 252 310 374
#     4   9  21  39  63  88 115 153 200 253 304 363
#
# _framework density 20.691122
#
# number of rings (size 3 to 8) (size 9 to 14) (size 15 to 20)
#    0.000    1.846    0.000    4.154    0.000    6.154 
#    0.000    1.538    0.000   55.385    0.000    0.000 
#    0.000    0.000    0.000    0.000    0.000    0.000 
#
# Total GULP energy -289492.256639 kJ/mol
# GULP energy per Si atom -5567.158782 kJ/mol
# Density = 2.064403 g / cm^3
# Si number density = 20.691122 Si / 1000 Ang^3
#
#
#
# Elastic Constant Matrix: (Units=GPa)
#
#
# Indices 1 2 3 4 5 6 
#
# 1 94.3215 40.5949 54.7486 0.0000 0.0000 0.0000
# 2 40.5949 76.4637 35.2443 0.0000 0.0000 0.0000
# 3 54.7486 35.2443 98.5925 0.0000 0.0000 0.0000
# 4 0.0000 0.0000 0.0000 13.1238 0.0000 0.0000
# 5 0.0000 0.0000 0.0000 0.0000 12.2394 0.0000
# 6 0.0000 0.0000 0.0000 0.0000 0.0000 15.0995
#
#
#
# Elastic Compliance Matrix: (Units=1/GPa)
#
#
# Indices 1 2 3 4 5 6 
#
# 1 0.017544 -0.005775 -0.007678 0.000000 0.000000 0.000000
# 2 -0.005775 0.017559 -0.003070 0.000000 0.000000 0.000000
# 3 -0.007678 -0.003070 0.015504 0.000000 0.000000 0.000000
# 4 0.000000 0.000000 0.000000 0.076198 0.000000 0.000000
# 5 0.000000 0.000000 0.000000 0.000000 0.081703 0.000000
# 6 0.000000 0.000000 0.000000 0.000000 0.000000 0.066227
#
#
# Mechanical properties :
#
#
# Convention : Reuss Voigt Hill
#
# Bulk Modulus (GPa) = 56.94434 58.95035 57.94735
# Shear Modulus (GPa) = 15.94208 17.34519 16.64363
#
# Velocity S-wave (km/s) = 2.77876 2.89847 2.83925
# Velocity P-wave (km/s) = 6.15437 6.30508 6.23018
#
# Compressibility (1/GPa) = 0.01756101
#
# Stress axis : x y z
#
# Youngs Moduli (GPa) = 56.99866 56.94989 64.50085
#
# Poissons Ratio (x) = 0.32891 0.49523
# Poissons Ratio (y) = 0.32919 0.19801
# Poissons Ratio (z) = 0.43763 0.17483
#
# Static dielectric constant tensor:
#      x y z
#    x 1.766740 0.000000 0.000000 
#    y 0.000000 1.831470 0.000000 
#    z 0.000000 0.000000 1.742430 
# 
# From -- ./inp_files/9050.got.cif
#   From: 2010.05.17/outbox.cif.g08.bks.cpg/sg56_5_cif.got.tgz:9050.got - 2010.06.03 13:42:01.
