data_PCOD9431372
_publ_section_title
;
Structure prediction by ZEFSAII (Michael W. Deem and Ramdas Pophale) SiO2 
 PCOD9431372
Probable space group: P C C N
;
_chemical_formula_sum "Si O2"
_cell_formula_units_Z 24
_cell_length_a 4.964704
_cell_length_b 7.308113
_cell_length_c 24.332191
_cell_angle_alpha 90.000000
_cell_angle_beta 90.000000
_cell_angle_gamma 90.000000
_cell_volume 882.835587
_symmetry_space_group_name_H-M "P C C N"
_symmetry_group_IT_number 56
_symmetry_cell_setting 'orthorhombic'
loop_
_space_group_symop_operation_xyz
x,y,z
1/2-x,1/2-y,z
1/2+x,-y,1/2-z
-x,1/2+y,1/2-z
-x,-y,-z
1/2+x,1/2+y,-z
1/2-x,y,1/2+z
x,1/2-y,1/2+z
loop_
_atom_site_type_symbol
_atom_site_label
_atom_site_fract_x
_atom_site_fract_y
_atom_site_fract_z
Si Si1 0.318080 0.466314 0.553197
Si Si2 0.685295 0.036106 0.607336
Si Si3 0.371602 0.551191 0.217411
O O1 0.250000 0.250000 0.557082
O O2 0.500000 0.500000 0.500000
O O3 0.479545 0.953490 0.562033
O O4 0.514516 0.540551 0.601655
O O5 0.750000 0.250000 0.597226
O O6 0.609176 0.938885 0.763145
O O7 0.250000 0.750000 0.208606
O O8 0.530794 0.480446 0.164316
#
# Coordination Sequence:
#
# PCOD9431372 Si02
#       3
#     8   8   8
#     4  10  21  37  61  92 129 172 219 273 333 396
#     4  10  22  41  63  92 130 174 222 275 335 401
#     4  12  26  44  68  98 132 176 226 282 343 409
#
# _framework density 27.185127999999999
#
# number of rings (size 3 to 8) (size 9 to 14) (size 15 to 20)
#    0.000    1.333    0.000    5.000    0.000    8.000 
#    0.000    0.000    0.000    0.000    0.000    0.000 
#    0.000    0.000    0.000    0.000    0.000    0.000 
#
# Total GULP energy -134281.902602 kJ/mol
# GULP energy per Si atom -5595.079275 kJ/mol
# Density = 2.712325 g / cm^3
# Si number density = 27.185128 Si / 1000 Ang^3
#
#
#
# Elastic Constant Matrix: (Units=GPa)
#
#
# Indices 1 2 3 4 5 6 
#
# 1 286.0309 79.6035 96.9342 0.0000 0.0000 0.0000
# 2 79.6035 66.7014 4.5176 0.0000 0.0000 0.0000
# 3 96.9342 4.5176 128.7025 0.0000 0.0000 0.0000
# 4 0.0000 0.0000 0.0000 19.6380 0.0000 0.0000
# 5 0.0000 0.0000 0.0000 0.0000 59.1091 0.0000
# 6 0.0000 0.0000 0.0000 0.0000 0.0000 30.4171
#
#
#
# Elastic Compliance Matrix: (Units=1/GPa)
#
#
# Indices 1 2 3 4 5 6 
#
# 1 0.007951 -0.009106 -0.005669 0.000000 0.000000 0.000000
# 2 -0.009106 0.025455 0.005965 0.000000 0.000000 0.000000
# 3 -0.005669 0.005965 0.011830 0.000000 0.000000 0.000000
# 4 0.000000 0.000000 0.000000 0.050922 0.000000 0.000000
# 5 0.000000 0.000000 0.000000 0.000000 0.016918 0.000000
# 6 0.000000 0.000000 0.000000 0.000000 0.000000 0.032876
#
#
# Mechanical properties :
#
#
# Convention : Reuss Voigt Hill
#
# Bulk Modulus (GPa) = 36.21034 93.72725 64.96880
# Shear Modulus (GPa) = 28.93877 41.85815 35.39846
#
# Velocity S-wave (km/s) = 3.26622 3.92821 3.61241
# Velocity P-wave (km/s) = 5.25101 7.42474 6.43039
#
# Compressibility (1/GPa) = 0.02761642
#
# Stress axis : x y z
#
# Youngs Moduli (GPa) = 125.76246 39.28486 84.52854
#
# Poissons Ratio (x) = 0.35771 0.47921
# Poissons Ratio (y) = 1.14514 -0.50417
# Poissons Ratio (z) = 0.71297 -0.23432
#
# Static dielectric constant tensor:
#      x y z
#    x 2.113440 0.000000 0.000000 
#    y 0.000000 2.133230 0.000000 
#    z 0.000000 0.000000 2.264700 
# 
# From -- ./inp_files/17161.got.cif
#   From: 2010.05.17/outbox.cif.g08.bks.cpg/sg56_9_cif.got.tgz:17161.got - 2010.06.03 13:42:01.
