data_PCOD9431969
_publ_section_title
;
Structure prediction by ZEFSAII (Michael W. Deem and Ramdas Pophale) SiO2 
 PCOD9431969
Probable space group: P C C N
;
_chemical_formula_sum "Si O2"
_cell_formula_units_Z 56
_cell_length_a 19.654518
_cell_length_b 14.965439
_cell_length_c 8.877282
_cell_angle_alpha 90.000000
_cell_angle_beta 90.000000
_cell_angle_gamma 90.000000
_cell_volume 2611.150325
_symmetry_space_group_name_H-M "P C C N"
_symmetry_group_IT_number 56
_symmetry_cell_setting 'orthorhombic'
loop_
_space_group_symop_operation_xyz
x,y,z
1/2-x,1/2-y,z
1/2+x,-y,1/2-z
-x,1/2+y,1/2-z
-x,-y,-z
1/2+x,1/2+y,-z
1/2-x,y,1/2+z
x,1/2-y,1/2+z
loop_
_atom_site_type_symbol
_atom_site_label
_atom_site_fract_x
_atom_site_fract_y
_atom_site_fract_z
Si Si1 0.898766 0.783438 0.384756
Si Si2 0.190907 0.314314 0.859290
Si Si3 0.352870 0.512911 0.879431
Si Si4 0.186674 0.815151 0.297610
Si Si5 0.231962 0.006697 0.191549
Si Si6 0.611153 0.197633 0.506496
Si Si7 0.463673 0.360889 0.892732
O O1 0.859603 0.841521 0.507371
O O2 0.845924 0.747915 0.262202
O O3 0.925773 0.701616 0.484646
O O4 0.954543 0.828918 0.279799
O O5 0.250000 0.250000 0.923601
O O6 0.211924 0.401634 0.771104
O O7 0.302702 0.495058 0.025278
O O8 0.368460 0.617439 0.882694
O O9 0.312950 0.494288 0.724112
O O10 0.421613 0.454195 0.899248
O O11 0.250000 0.750000 0.338112
O O12 0.206034 0.919350 0.284405
O O13 0.163565 0.793370 0.129375
O O14 0.122656 0.789217 0.402998
O O15 0.541246 0.159123 0.437598
#
# Coordination Sequence:
#
# PCOD9431969 Si02
#       7
#     8   8   8   8   8   8   8
#     4  10  22  38  61  86 127 164 204 256 304 382
#     4  11  22  37  59  96 128 164 208 258 320 373
#     4  11  24  40  63  94 130 168 214 270 319 392
#     4  11  23  44  67  98 126 163 220 271 328 378
#     4  11  24  39  65  96 133 165 212 271 325 374
#     4  11  24  42  68  91 125 172 210 272 322 386
#     4  11  22  43  62  92 129 170 217 252 332 391
#
# _framework density 21.446486
#
# number of rings (size 3 to 8) (size 9 to 14) (size 15 to 20)
#    0.000    1.143    2.857    3.857    6.000    0.000 
#    0.000    0.000    0.000    3.429    0.000    0.000 
#    0.000    0.000    0.000    0.000    0.000    0.000 
#
# Total GULP energy -312197.879593 kJ/mol
# GULP energy per Si atom -5574.962136 kJ/mol
# Density = 2.139767 g / cm^3
# Si number density = 21.446486 Si / 1000 Ang^3
#
#
#
# Elastic Constant Matrix: (Units=GPa)
#
#
# Indices 1 2 3 4 5 6 
#
# 1 74.4087 7.9683 4.2493 0.0000 0.0000 0.0000
# 2 7.9683 65.3899 6.1265 0.0000 0.0000 0.0000
# 3 4.2493 6.1265 47.6345 0.0000 0.0000 0.0000
# 4 0.0000 0.0000 0.0000 11.6614 0.0000 0.0000
# 5 0.0000 0.0000 0.0000 0.0000 22.0563 0.0000
# 6 0.0000 0.0000 0.0000 0.0000 0.0000 9.8296
#
#
#
# Elastic Compliance Matrix: (Units=1/GPa)
#
#
# Indices 1 2 3 4 5 6 
#
# 1 0.013666 -0.001570 -0.001017 0.000000 0.000000 0.000000
# 2 -0.001570 0.015660 -0.001874 0.000000 0.000000 0.000000
# 3 -0.001017 -0.001874 0.021325 0.000000 0.000000 0.000000
# 4 0.000000 0.000000 0.000000 0.085753 0.000000 0.000000
# 5 0.000000 0.000000 0.000000 0.000000 0.045339 0.000000
# 6 0.000000 0.000000 0.000000 0.000000 0.000000 0.101734
#
#
# Mechanical properties :
#
#
# Convention : Reuss Voigt Hill
#
# Bulk Modulus (GPa) = 23.96471 24.90235 24.43353
# Shear Modulus (GPa) = 16.32351 19.98206 18.15279
#
# Velocity S-wave (km/s) = 2.76185 3.05572 2.91249
# Velocity P-wave (km/s) = 4.62265 4.90780 4.76735
#
# Compressibility (1/GPa) = 0.04172802
#
# Stress axis : x y z
#
# Youngs Moduli (GPa) = 73.17696 63.85785 46.89340
#
# Poissons Ratio (x) = 0.10025 0.04770
# Poissons Ratio (y) = 0.11488 0.08788
# Poissons Ratio (z) = 0.07443 0.11967
#
# Static dielectric constant tensor:
#      x y z
#    x 1.918640 0.000000 0.000000 
#    y 0.000000 1.787910 0.000000 
#    z 0.000000 0.000000 1.766430 
# 
# From -- ./inp_files/4490.got.cif
#   From: 2010.05.17/outbox.cif.g08.bks.cpg/sg56_3_cif.got.tgz:4490.got - 2010.06.03 13:42:01.
