data_PCOD9431681
_publ_section_title
;
Structure prediction by ZEFSAII (Michael W. Deem and Ramdas Pophale) SiO2 
 PCOD9431681
Probable space group: P C C N
;
_chemical_formula_sum "Si O2"
_cell_formula_units_Z 64
_cell_length_a 24.933643
_cell_length_b 8.526220
_cell_length_c 14.006600
_cell_angle_alpha 90.000000
_cell_angle_beta 90.000000
_cell_angle_gamma 90.000000
_cell_volume 2977.659251
_symmetry_space_group_name_H-M "P C C N"
_symmetry_group_IT_number 56
_symmetry_cell_setting 'orthorhombic'
loop_
_space_group_symop_operation_xyz
x,y,z
1/2-x,1/2-y,z
1/2+x,-y,1/2-z
-x,1/2+y,1/2-z
-x,-y,-z
1/2+x,1/2+y,-z
1/2-x,y,1/2+z
x,1/2-y,1/2+z
loop_
_atom_site_type_symbol
_atom_site_label
_atom_site_fract_x
_atom_site_fract_y
_atom_site_fract_z
Si Si1 0.310823 0.698450 0.947446
Si Si2 0.871604 0.728682 0.347652
Si Si3 0.160454 0.543621 0.083050
Si Si4 0.535574 0.849687 0.472541
Si Si5 0.441958 0.140586 0.316695
Si Si6 0.713718 0.481880 0.863936
Si Si7 0.145520 0.749060 0.256310
Si Si8 0.535539 0.264265 0.186371
O O1 0.250000 0.750000 0.932753
O O2 0.339706 0.854122 0.987799
O O3 0.310735 0.576885 0.034517
O O4 0.333900 0.649353 0.846430
O O5 0.917036 0.619162 0.395851
O O6 0.893079 0.798035 0.248304
O O7 0.814538 0.644800 0.340533
O O8 0.865345 0.874762 0.419225
O O9 0.222565 0.526406 0.119906
O O10 0.132038 0.644811 0.164854
O O11 0.560605 0.804705 0.573890
O O12 0.494867 0.736877 0.414347
O O13 0.500000 0.000000 0.500000
O O14 0.494149 0.217549 0.268124
O O15 0.449881 0.950988 0.311989
O O16 0.691631 0.365005 0.782158
O O17 0.090807 0.826060 0.293676
#
# Coordination Sequence:
#
# PCOD9431681 Si02
#       8
#     8   8   8   8   8   8   8   8
#     4   9  20  38  59  85 119 157 202 245 292 366
#     4  11  22  39  62  90 121 160 201 252 312 364
#     4  10  21  41  57  91 125 152 204 254 299 359
#     4   9  22  39  60  82 118 156 199 243 303 364
#     4  10  22  42  58  86 119 150 200 253 297 364
#     4  10  23  36  63  87 121 164 196 247 306 373
#     4  11  21  37  64  88 117 158 201 244 305 365
#     4  10  22  38  62  86 115 155 195 250 301 357
#
# _framework density 21.493393000000001
#
# number of rings (size 3 to 8) (size 9 to 14) (size 15 to 20)
#    0.000    2.000    1.250    2.250    8.750    2.000 
#    0.000    1.250    0.000    4.500    0.000    0.000 
#    0.000    0.000    0.000    0.000    0.000    0.000 
#
# Total GULP energy -356940.964673 kJ/mol
# GULP energy per Si atom -5577.202573 kJ/mol
# Density = 2.144447 g / cm^3
# Si number density = 21.493393 Si / 1000 Ang^3
#
#
#
# Elastic Constant Matrix: (Units=GPa)
#
#
# Indices 1 2 3 4 5 6 
#
# 1 36.6995 -10.5362 2.8321 0.0000 0.0000 0.0000
# 2 -10.5362 36.5546 3.5627 0.0000 0.0000 0.0000
# 3 2.8321 3.5627 100.7165 0.0000 0.0000 0.0000
# 4 0.0000 0.0000 0.0000 11.7125 0.0000 0.0000
# 5 0.0000 0.0000 0.0000 0.0000 22.8665 0.0000
# 6 0.0000 0.0000 0.0000 0.0000 0.0000 29.0937
#
#
#
# Elastic Compliance Matrix: (Units=1/GPa)
#
#
# Indices 1 2 3 4 5 6 
#
# 1 0.029838 0.008712 -0.001147 0.000000 0.000000 0.000000
# 2 0.008712 0.029995 -0.001306 0.000000 0.000000 0.000000
# 3 -0.001147 -0.001306 0.010007 0.000000 0.000000 0.000000
# 4 0.000000 0.000000 0.000000 0.085379 0.000000 0.000000
# 5 0.000000 0.000000 0.000000 0.000000 0.043732 0.000000
# 6 0.000000 0.000000 0.000000 0.000000 0.000000 0.034372
#
#
# Mechanical properties :
#
#
# Convention : Reuss Voigt Hill
#
# Bulk Modulus (GPa) = 12.14212 18.40974 15.27593
# Shear Modulus (GPa) = 20.14038 24.60867 22.37453
#
# Velocity S-wave (km/s) = 3.06445 3.38737 3.22995
# Velocity P-wave (km/s) = 4.26411 4.88702 4.58615
#
# Compressibility (1/GPa) = 0.08235797
#
# Stress axis : x y z
#
# Youngs Moduli (GPa) = 33.51422 33.33919 99.92685
#
# Poissons Ratio (x) = -0.29046 0.11464
# Poissons Ratio (y) = -0.29198 0.13050
# Poissons Ratio (z) = 0.03845 0.04354
#
# Static dielectric constant tensor:
#      x y z
#    x 1.821080 0.000000 0.000000 
#    y 0.000000 1.823650 0.000000 
#    z 0.000000 0.000000 1.768010 
# 
# From -- ./inp_files/13281.got.cif
#   From: 2010.05.17/outbox.cif.g08.bks.cpg/sg56_7_cif.got.tgz:13281.got - 2010.06.03 13:42:01.
