data_PCOD9431908
_publ_section_title
;
Structure prediction by ZEFSAII (Michael W. Deem and Ramdas Pophale) SiO2 
 PCOD9431908
Probable space group: P C C N
;
_chemical_formula_sum "Si O2"
_cell_formula_units_Z 60
_cell_length_a 10.505087
_cell_length_b 27.368568
_cell_length_c 10.018513
_cell_angle_alpha 90.000000
_cell_angle_beta 90.000000
_cell_angle_gamma 90.000000
_cell_volume 2880.414537
_symmetry_space_group_name_H-M "P C C N"
_symmetry_group_IT_number 56
_symmetry_cell_setting 'orthorhombic'
loop_
_space_group_symop_operation_xyz
x,y,z
1/2-x,1/2-y,z
1/2+x,-y,1/2-z
-x,1/2+y,1/2-z
-x,-y,-z
1/2+x,1/2+y,-z
1/2-x,y,1/2+z
x,1/2-y,1/2+z
loop_
_atom_site_type_symbol
_atom_site_label
_atom_site_fract_x
_atom_site_fract_y
_atom_site_fract_z
Si Si1 0.684415 0.591692 0.034190
Si Si2 0.148135 0.310471 0.953966
Si Si3 0.265787 0.891677 0.353250
Si Si4 0.607540 0.363052 0.393629
Si Si5 0.062759 0.449600 0.959891
Si Si6 0.493659 0.563358 0.257251
Si Si7 0.750000 0.750000 0.798510
Si Si8 0.999636 0.463221 0.624723
O O1 0.568496 0.589422 0.138450
O O2 0.754467 0.643617 0.033922
O O3 0.791241 0.552627 0.082789
O O4 0.619572 0.572839 0.897210
O O5 0.165897 0.279903 0.091767
O O6 0.002735 0.327036 0.939028
O O7 0.179983 0.284589 0.811079
O O8 0.210131 0.869882 0.489371
O O9 0.370888 0.932573 0.383588
O O10 0.148490 0.917282 0.276643
O O11 0.328370 0.854012 0.248990
O O12 0.532115 0.415068 0.377903
O O13 0.066972 0.423912 0.106857
O O14 0.000000 0.500000 0.000000
O O15 0.489423 0.504445 0.238168
O O16 0.000000 0.500000 0.500000
#
# Coordination Sequence:
#
# PCOD9431908 Si02
#       8
#     8   8   8   8   8   8   4   8
#     4  10  23  37  62  95 126 177 227 268 333 403
#     4  10  24  46  75 108 130 166 220 276 371 410
#     4  11  23  41  60  94 134 188 235 280 332 374
#     4  10  23  40  64  97 134 180 219 279 327 413
#     4  10  22  34  54  84 130 174 231 279 316 371
#     4  10  23  35  57  85 131 186 228 284 308 379
#     4  10  24  48  78 106 134 156 204 300 358 448
#     4  10  22  36  57  87 131 188 233 275 317 377
#
# _framework density 20.830334000000001
#
# number of rings (size 3 to 8) (size 9 to 14) (size 15 to 20)
#    0.000    1.867    0.000    2.400   18.667    1.067 
#    0.000    0.000    0.000    2.400    0.000    0.000 
#    0.000    0.000    0.000    0.000    0.000    0.000 
#
# Total GULP energy -334616.478008 kJ/mol
# GULP energy per Si atom -5576.941300 kJ/mol
# Density = 2.078292 g / cm^3
# Si number density = 20.830334 Si / 1000 Ang^3
#
#
#
# Elastic Constant Matrix: (Units=GPa)
#
#
# Indices 1 2 3 4 5 6 
#
# 1 123.7241 36.4859 50.0895 0.0000 0.0000 0.0000
# 2 36.4859 68.7599 32.8235 0.0000 0.0000 0.0000
# 3 50.0895 32.8235 128.1018 0.0000 0.0000 0.0000
# 4 0.0000 0.0000 0.0000 26.0949 0.0000 0.0000
# 5 0.0000 0.0000 0.0000 0.0000 32.7032 0.0000
# 6 0.0000 0.0000 0.0000 0.0000 0.0000 24.4888
#
#
#
# Elastic Compliance Matrix: (Units=1/GPa)
#
#
# Indices 1 2 3 4 5 6 
#
# 1 0.010541 -0.004131 -0.003063 0.000000 0.000000 0.000000
# 2 -0.004131 0.018189 -0.003045 0.000000 0.000000 0.000000
# 3 -0.003063 -0.003045 0.009784 0.000000 0.000000 0.000000
# 4 0.000000 0.000000 0.000000 0.038322 0.000000 0.000000
# 5 0.000000 0.000000 0.000000 0.000000 0.030578 0.000000
# 6 0.000000 0.000000 0.000000 0.000000 0.000000 0.040835
#
#
# Mechanical properties :
#
#
# Convention : Reuss Voigt Hill
#
# Bulk Modulus (GPa) = 55.44665 62.15374 58.80020
# Shear Modulus (GPa) = 28.61398 30.06983 29.34190
#
# Velocity S-wave (km/s) = 3.71032 3.80354 3.75722
# Velocity P-wave (km/s) = 6.71054 7.01371 6.86380
#
# Compressibility (1/GPa) = 0.01803535
#
# Stress axis : x y z
#
# Youngs Moduli (GPa) = 94.86921 54.97787 102.20454
#
# Poissons Ratio (x) = 0.22712 0.31306
# Poissons Ratio (y) = 0.39191 0.31124
# Poissons Ratio (z) = 0.29059 0.16742
#
# Static dielectric constant tensor:
#      x y z
#    x 1.794460 0.000000 0.000000 
#    y 0.000000 1.793120 0.000000 
#    z 0.000000 0.000000 1.919280 
# 
# From -- ./inp_files/6537.got.cif
#   From: 2010.05.17/outbox.cif.g08.bks.cpg/sg56_4_cif.got.tgz:6537.got - 2010.06.03 13:42:01.
