data_PCOD9431891
_publ_section_title
;
Structure prediction by ZEFSAII (Michael W. Deem and Ramdas Pophale) SiO2 
 PCOD9431891
Probable space group: P C C N
;
_chemical_formula_sum "Si O2"
_cell_formula_units_Z 48
_cell_length_a 12.317295
_cell_length_b 8.833251
_cell_length_c 21.176797
_cell_angle_alpha 90.000000
_cell_angle_beta 90.000000
_cell_angle_gamma 90.000000
_cell_volume 2304.072750
_symmetry_space_group_name_H-M "P C C N"
_symmetry_group_IT_number 56
_symmetry_cell_setting 'orthorhombic'
loop_
_space_group_symop_operation_xyz
x,y,z
1/2-x,1/2-y,z
1/2+x,-y,1/2-z
-x,1/2+y,1/2-z
-x,-y,-z
1/2+x,1/2+y,-z
1/2-x,y,1/2+z
x,1/2-y,1/2+z
loop_
_atom_site_type_symbol
_atom_site_label
_atom_site_fract_x
_atom_site_fract_y
_atom_site_fract_z
Si Si1 0.372172 0.956652 0.496236
Si Si2 0.250000 0.250000 0.758339
Si Si3 0.250000 0.750000 0.394889
Si Si4 0.145721 0.453317 0.149811
Si Si5 0.956574 0.588902 0.221453
Si Si6 0.635658 0.197579 0.228021
Si Si7 0.250000 0.750000 0.591608
Si Si8 0.250000 0.250000 0.547931
O O1 0.319685 0.871667 0.434969
O O2 0.342958 0.830204 0.549126
O O3 0.500000 0.000000 0.500000
O O4 0.305824 0.112486 0.509988
O O5 0.301115 0.377072 0.711928
O O6 0.147422 0.312022 0.796919
O O7 0.167952 0.829305 0.345046
O O8 0.201798 0.607295 0.127910
O O9 0.162146 0.330253 0.094530
O O10 0.025288 0.505999 0.167665
O O11 0.906454 0.452074 0.261409
O O12 0.042284 0.681096 0.262484
O O13 0.750000 0.250000 0.254921
#
# Coordination Sequence:
#
# PCOD9431891 Si02
#       8
#     8   4   4   8   8   8   4   4
#     4  10  21  45  69  93 130 167 213 281 340 388
#     4  11  24  38  59  92 126 169 220 260 321 394
#     4   9  24  45  66  98 134 167 226 275 332 400
#     4  10  22  40  64  91 130 166 215 267 322 396
#     4  12  23  42  63  91 133 177 214 269 327 385
#     4  10  25  43  64  94 137 174 223 270 331 399
#     4   9  22  41  64  96 120 165 220 265 330 404
#     4   9  22  42  67 100 124 163 224 270 329 406
#
# _framework density 20.832675999999999
#
# number of rings (size 3 to 8) (size 9 to 14) (size 15 to 20)
#    0.500    1.333    1.667    1.000    5.833    1.333 
#    6.000    2.500    0.000    0.000    0.000    0.000 
#    0.000    0.000    0.000    0.000    0.000    0.000 
#
# Total GULP energy -267348.928077 kJ/mol
# GULP energy per Si atom -5569.769335 kJ/mol
# Density = 2.078526 g / cm^3
# Si number density = 20.832676 Si / 1000 Ang^3
#
#
#
# Elastic Constant Matrix: (Units=GPa)
#
#
# Indices 1 2 3 4 5 6 
#
# 1 186.0545 67.5409 41.2356 0.0000 0.0000 0.0000
# 2 67.5409 129.4839 23.8329 0.0000 0.0000 0.0000
# 3 41.2356 23.8329 44.3405 0.0000 0.0000 0.0000
# 4 0.0000 0.0000 0.0000 17.7824 0.0000 0.0000
# 5 0.0000 0.0000 0.0000 0.0000 -5.3299 0.0000
# 6 0.0000 0.0000 0.0000 0.0000 0.0000 54.2806
#
#
#
# Elastic Compliance Matrix: (Units=1/GPa)
#
#
# Indices 1 2 3 4 5 6 
#
# 1 0.007689 -0.002990 -0.005543 0.000000 0.000000 0.000000
# 2 -0.002990 0.009734 -0.002451 0.000000 0.000000 0.000000
# 3 -0.005543 -0.002451 0.029025 0.000000 0.000000 0.000000
# 4 0.000000 0.000000 0.000000 0.056235 0.000000 0.000000
# 5 0.000000 0.000000 0.000000 0.000000 -0.187620 0.000000
# 6 0.000000 0.000000 0.000000 0.000000 0.000000 0.018423
#
#
# Mechanical properties :
#
#
# Convention : Reuss Voigt Hill
#
# Bulk Modulus (GPa) = 40.85147 69.45532 55.15340
# Shear Modulus (GPa) = -137.41624 28.49792 -54.45916
#
# Velocity S-wave (km/s) = -8.13050 3.70258 -5.11840
# Velocity P-wave (km/s) = 8.27576 7.18963 2.89805
#
# Compressibility (1/GPa) = 0.02447892
#
# Stress axis : x y z
#
# Youngs Moduli (GPa) = 130.05827 102.73358 34.45287
#
# Poissons Ratio (x) = 0.30721 0.19098
# Poissons Ratio (y) = 0.38892 0.08444
# Poissons Ratio (z) = 0.72093 0.25180
#
# Static dielectric constant tensor:
#      x y z
#    x 1.939760 0.000000 0.000000 
#    y 0.000000 0.245160 0.000000 
#    z 0.000000 0.000000 1.797150 
# 
# From -- ./inp_files/20957.got.cif
#   From: 2010.05.17/outbox.cif.g08.bks.cpg/sg56_11_cif.got.tgz:20957.got - 2010.06.03 13:42:01.
