data_PCOD9431342
_publ_section_title
;
Structure prediction by ZEFSAII (Michael W. Deem and Ramdas Pophale) SiO2 
 PCOD9431342
Probable space group: P C C N
;
_chemical_formula_sum "Si O2"
_cell_formula_units_Z 60
_cell_length_a 7.270224
_cell_length_b 15.953742
_cell_length_c 25.394402
_cell_angle_alpha 90.000000
_cell_angle_beta 90.000000
_cell_angle_gamma 90.000000
_cell_volume 2945.427564
_symmetry_space_group_name_H-M "P C C N"
_symmetry_group_IT_number 56
_symmetry_cell_setting 'orthorhombic'
loop_
_space_group_symop_operation_xyz
x,y,z
1/2-x,1/2-y,z
1/2+x,-y,1/2-z
-x,1/2+y,1/2-z
-x,-y,-z
1/2+x,1/2+y,-z
1/2-x,y,1/2+z
x,1/2-y,1/2+z
loop_
_atom_site_type_symbol
_atom_site_label
_atom_site_fract_x
_atom_site_fract_y
_atom_site_fract_z
Si Si1 0.363817 0.083787 0.031040
Si Si2 0.434117 0.023457 0.611813
Si Si3 0.546033 0.212002 0.647476
Si Si4 0.462718 0.232293 0.769234
Si Si5 0.250000 0.250000 0.065774
Si Si6 0.658801 0.997025 0.079197
Si Si7 0.898825 0.551177 0.196684
Si Si8 0.965769 0.417326 0.288165
O O1 0.253429 0.169411 0.030501
O O2 0.228926 0.029252 0.069086
O O3 0.561165 0.082825 0.060419
O O4 0.393835 0.059010 0.970834
O O5 0.501071 0.113823 0.635457
O O6 0.621926 0.994001 0.584101
O O7 0.381007 0.965069 0.661374
O O8 0.750000 0.250000 0.643805
O O9 0.478720 0.228751 0.706364
O O10 0.420932 0.256954 0.604649
O O11 0.250000 0.250000 0.784196
O O12 0.505807 0.137364 0.788788
O O13 0.571235 0.317390 0.785395
O O14 0.579048 0.972869 0.135858
O O15 0.684351 0.572736 0.203881
O O16 0.929330 0.471688 0.235318
#
# Coordination Sequence:
#
# PCOD9431342 Si02
#       8
#     8   8   8   8   4   8   8   8
#     4  10  22  40  64  86 116 156 203 248 303 349
#     4  10  21  39  59  89 117 154 203 244 304 354
#     4  11  21  33  57  88 119 151 195 245 293 350
#     4  10  21  37  54  84 124 160 194 239 294 363
#     4  10  22  38  58  88 116 152 198 250 294 340
#     4  10  22  40  63  87 115 158 201 248 295 360
#     4  10  22  38  58  88 122 157 199 242 299 363
#     4  10  22  34  58  87 117 163 193 242 303 357
#
# _framework density 20.370557000000002
#
# number of rings (size 3 to 8) (size 9 to 14) (size 15 to 20)
#    0.000    1.867    2.000    1.200    7.467    0.000 
#    6.000    0.000    0.000    0.000    0.000    0.000 
#    0.000    0.000    0.000    0.000    0.000    0.000 
#
# Total GULP energy -334315.578892 kJ/mol
# GULP energy per Si atom -5571.926315 kJ/mol
# Density = 2.032419 g / cm^3
# Si number density = 20.370557 Si / 1000 Ang^3
#
#
#
# Elastic Constant Matrix: (Units=GPa)
#
#
# Indices 1 2 3 4 5 6 
#
# 1 36.2779 -10.2125 -5.7299 0.0000 0.0000 0.0000
# 2 -10.2125 67.3593 36.6302 0.0000 0.0000 0.0000
# 3 -5.7299 36.6302 92.6009 0.0000 0.0000 0.0000
# 4 0.0000 0.0000 0.0000 -20.0835 0.0000 0.0000
# 5 0.0000 0.0000 0.0000 0.0000 13.3739 0.0000
# 6 0.0000 0.0000 0.0000 0.0000 0.0000 17.7490
#
#
#
# Elastic Compliance Matrix: (Units=1/GPa)
#
#
# Indices 1 2 3 4 5 6 
#
# 1 0.028794 0.004328 0.000070 0.000000 0.000000 0.000000
# 2 0.004328 0.019565 -0.007472 0.000000 0.000000 0.000000
# 3 0.000070 -0.007472 0.013759 0.000000 0.000000 0.000000
# 4 0.000000 0.000000 0.000000 -0.049792 0.000000 0.000000
# 5 0.000000 0.000000 0.000000 0.000000 0.074773 0.000000
# 6 0.000000 0.000000 0.000000 0.000000 0.000000 0.056341
#
#
# Mechanical properties :
#
#
# Convention : Reuss Voigt Hill
#
# Bulk Modulus (GPa) = 17.86676 26.40154 22.13415
# Shear Modulus (GPa) = 29.71866 13.91124 21.81495
#
# Velocity S-wave (km/s) = 3.82370 2.61609 3.27602
# Velocity P-wave (km/s) = 5.31829 4.70255 5.01987
#
# Compressibility (1/GPa) = 0.05596985
#
# Stress axis : x y z
#
# Youngs Moduli (GPa) = 34.72912 51.11192 72.68038
#
# Poissons Ratio (x) = -0.22119 -0.00508
# Poissons Ratio (y) = -0.15029 0.54303
# Poissons Ratio (z) = -0.00243 0.38188
#
# Static dielectric constant tensor:
#      x y z
#    x 1.550470 0.000000 0.000000 
#    y 0.000000 1.855720 0.000000 
#    z 0.000000 0.000000 1.672350 
# 
# From -- ./inp_files/20616.got.cif
#   From: 2010.05.17/outbox.cif.g08.bks.cpg/sg56_11_cif.got.tgz:20616.got - 2010.06.03 13:42:01.
