data_PCOD9431949
_publ_section_title
;
Structure prediction by ZEFSAII (Michael W. Deem and Ramdas Pophale) SiO2 
 PCOD9431949
Probable space group: P C C N
;
_chemical_formula_sum "Si O2"
_cell_formula_units_Z 48
_cell_length_a 8.603595
_cell_length_b 22.875400
_cell_length_c 9.543463
_cell_angle_alpha 90.000000
_cell_angle_beta 90.000000
_cell_angle_gamma 90.000000
_cell_volume 1878.255415
_symmetry_space_group_name_H-M "P C C N"
_symmetry_group_IT_number 56
_symmetry_cell_setting 'orthorhombic'
loop_
_space_group_symop_operation_xyz
x,y,z
1/2-x,1/2-y,z
1/2+x,-y,1/2-z
-x,1/2+y,1/2-z
-x,-y,-z
1/2+x,1/2+y,-z
1/2-x,y,1/2+z
x,1/2-y,1/2+z
loop_
_atom_site_type_symbol
_atom_site_label
_atom_site_fract_x
_atom_site_fract_y
_atom_site_fract_z
Si Si1 0.824610 0.962620 0.653678
Si Si2 0.403513 0.442998 0.050916
Si Si3 0.477131 0.821082 0.321912
Si Si4 0.857387 0.076870 0.478272
Si Si5 0.856966 0.356790 0.250090
Si Si6 0.441298 0.746889 0.077969
O O1 0.697368 0.922454 0.580830
O O2 0.802000 0.966237 0.818063
O O3 0.999479 0.944109 0.616446
O O4 0.798134 0.023592 0.574235
O O5 0.476135 0.384385 0.118949
O O6 0.500000 0.500000 0.000000
O O7 0.291010 0.824014 0.315511
O O8 0.511810 0.801661 0.162540
O O9 0.515173 0.769805 0.430441
O O10 0.725021 0.103843 0.374755
O O11 0.924024 0.115462 0.608137
O O12 0.964069 0.310520 0.326262
O O13 0.250000 0.750000 0.067373
#
# Coordination Sequence:
#
# PCOD9431949 Si02
#       6
#     8   8   8   8   8   8
#     4  11  27  43  67 105 146 196 244 295 367 450
#     4  12  28  49  72 103 151 195 249 304 377 456
#     4  11  23  41  66 102 138 186 241 304 364 437
#     4  11  23  40  67 107 147 188 239 292 368 446
#     4  11  20  38  67 103 142 183 234 305 369 422
#     4  10  22  37  65 105 137 179 237 305 360 424
#
# _framework density 25.555629
#
# number of rings (size 3 to 8) (size 9 to 14) (size 15 to 20)
#    0.000    1.000    3.333    3.500    9.333    0.000 
#    0.000    0.000    0.000    8.000    0.000    0.000 
#    0.000    0.000    0.000    0.000    0.000    0.000 
#
# Total GULP energy -267972.333990 kJ/mol
# GULP energy per Si atom -5582.756958 kJ/mol
# Density = 2.549746 g / cm^3
# Si number density = 25.555629 Si / 1000 Ang^3
#
#
#
# Elastic Constant Matrix: (Units=GPa)
#
#
# Indices 1 2 3 4 5 6 
#
# 1 28.7420 17.1791 14.4322 0.0000 0.0000 0.0000
# 2 17.1791 119.2313 62.4180 0.0000 0.0000 0.0000
# 3 14.4322 62.4180 203.9954 0.0000 0.0000 0.0000
# 4 0.0000 0.0000 0.0000 59.8673 0.0000 0.0000
# 5 0.0000 0.0000 0.0000 0.0000 30.9198 0.0000
# 6 0.0000 0.0000 0.0000 0.0000 0.0000 17.0010
#
#
#
# Elastic Compliance Matrix: (Units=1/GPa)
#
#
# Indices 1 2 3 4 5 6 
#
# 1 0.038323 -0.004885 -0.001217 0.000000 0.000000 0.000000
# 2 -0.004885 0.010609 -0.002901 0.000000 0.000000 0.000000
# 3 -0.001217 -0.002901 0.005876 0.000000 0.000000 0.000000
# 4 0.000000 0.000000 0.000000 0.016704 0.000000 0.000000
# 5 0.000000 0.000000 0.000000 0.000000 0.032342 0.000000
# 6 0.000000 0.000000 0.000000 0.000000 0.000000 0.058820
#
#
# Mechanical properties :
#
#
# Convention : Reuss Voigt Hill
#
# Bulk Modulus (GPa) = 27.17106 60.00303 43.58704
# Shear Modulus (GPa) = 25.91408 38.75357 32.33383
#
# Velocity S-wave (km/s) = 3.18783 3.89837 3.56087
# Velocity P-wave (km/s) = 4.91985 6.61766 5.83088
#
# Compressibility (1/GPa) = 0.03680386
#
# Stress axis : x y z
#
# Youngs Moduli (GPa) = 26.09413 94.25646 170.19313
#
# Poissons Ratio (x) = 0.46041 0.20706
# Poissons Ratio (y) = 0.12746 0.49367
# Poissons Ratio (z) = 0.03175 0.27340
#
# Static dielectric constant tensor:
#      x y z
#    x 2.067010 0.000000 0.000000 
#    y 0.000000 2.247950 0.000000 
#    z 0.000000 0.000000 2.051340 
# 
# From -- ./inp_files/2785.got.cif
#   From: 2010.05.17/outbox.cif.g08.bks.cpg/sg56_2_cif.got.tgz:2785.got - 2010.06.03 13:42:01.
