data_PCOD9431313
_publ_section_title
;
Structure prediction by ZEFSAII (Michael W. Deem and Ramdas Pophale) SiO2 
 PCOD9431313
Probable space group: P C C N
;
_chemical_formula_sum "Si O2"
_cell_formula_units_Z 48
_cell_length_a 18.854080
_cell_length_b 8.854472
_cell_length_c 12.969695
_cell_angle_alpha 90.000000
_cell_angle_beta 90.000000
_cell_angle_gamma 90.000000
_cell_volume 2165.198799
_symmetry_space_group_name_H-M "P C C N"
_symmetry_group_IT_number 56
_symmetry_cell_setting 'orthorhombic'
loop_
_space_group_symop_operation_xyz
x,y,z
1/2-x,1/2-y,z
1/2+x,-y,1/2-z
-x,1/2+y,1/2-z
-x,-y,-z
1/2+x,1/2+y,-z
1/2-x,y,1/2+z
x,1/2-y,1/2+z
loop_
_atom_site_type_symbol
_atom_site_label
_atom_site_fract_x
_atom_site_fract_y
_atom_site_fract_z
Si Si1 0.681164 0.151460 0.983123
Si Si2 0.408070 0.934703 0.583158
Si Si3 0.574444 0.857534 0.604911
Si Si4 0.140929 0.631441 0.797385
Si Si5 0.980031 0.966720 0.616534
Si Si6 0.130138 0.956122 0.716663
O O1 0.750000 0.250000 0.962929
O O2 0.618461 0.277826 0.969779
O O3 0.670024 0.029803 0.892508
O O4 0.683241 0.089061 0.099397
O O5 0.491732 0.915253 0.610133
O O6 0.362044 0.953205 0.687655
O O7 0.399732 0.070244 0.502561
O O8 0.570332 0.678294 0.613061
O O9 0.623306 0.917381 0.697448
O O10 0.060217 0.609689 0.836642
O O11 0.158212 0.803504 0.769379
O O12 0.048759 0.929439 0.682674
O O13 0.000000 0.000000 0.500000
#
# Coordination Sequence:
#
# PCOD9431313 Si02
#       6
#     8   8   8   8   8   8
#     4  11  23  41  63  92 125 169 223 268 308 392
#     4  10  21  36  58  90 123 163 207 260 333 377
#     4  11  21  36  61  91 135 155 199 272 338 395
#     4  11  21  37  58  92 120 163 214 257 324 380
#     4  12  21  34  60  97 132 157 201 265 334 402
#     4  11  21  39  61  93 125 165 208 268 331 376
#
# _framework density 22.168865
#
# number of rings (size 3 to 8) (size 9 to 14) (size 15 to 20)
#    0.000    1.000    8.333    0.000    2.333    4.000 
#    0.000    0.000    0.000    1.000    0.000    0.000 
#    0.000    0.000    0.000    0.000    0.000    0.000 
#
# Total GULP energy -267849.135650 kJ/mol
# GULP energy per Si atom -5580.190326 kJ/mol
# Density = 2.211841 g / cm^3
# Si number density = 22.168865 Si / 1000 Ang^3
#
#
#
# Elastic Constant Matrix: (Units=GPa)
#
#
# Indices 1 2 3 4 5 6 
#
# 1 38.8329 6.7775 18.6555 0.0000 0.0000 0.0000
# 2 6.7775 27.5517 46.1436 0.0000 0.0000 0.0000
# 3 18.6555 46.1436 188.7787 0.0000 0.0000 0.0000
# 4 0.0000 0.0000 0.0000 24.6505 0.0000 0.0000
# 5 0.0000 0.0000 0.0000 0.0000 10.4065 0.0000
# 6 0.0000 0.0000 0.0000 0.0000 0.0000 20.8936
#
#
#
# Elastic Compliance Matrix: (Units=1/GPa)
#
#
# Indices 1 2 3 4 5 6 
#
# 1 0.027258 -0.003714 -0.001786 0.000000 0.000000 0.000000
# 2 -0.003714 0.061959 -0.014778 0.000000 0.000000 0.000000
# 3 -0.001786 -0.014778 0.009086 0.000000 0.000000 0.000000
# 4 0.000000 0.000000 0.000000 0.040567 0.000000 0.000000
# 5 0.000000 0.000000 0.000000 0.000000 0.096093 0.000000
# 6 0.000000 0.000000 0.000000 0.000000 0.000000 0.047862
#
#
# Mechanical properties :
#
#
# Convention : Reuss Voigt Hill
#
# Bulk Modulus (GPa) = 17.31705 44.25739 30.78722
# Shear Modulus (GPa) = 14.59304 23.42922 19.01113
#
# Velocity S-wave (km/s) = 2.56846 3.25445 2.93159
# Velocity P-wave (km/s) = 4.07730 5.84201 5.03753
#
# Compressibility (1/GPa) = 0.05774655
#
# Stress axis : x y z
#
# Youngs Moduli (GPa) = 36.68709 16.13971 110.06159
#
# Poissons Ratio (x) = 0.05995 0.19654
# Poissons Ratio (y) = 0.13627 1.62646
# Poissons Ratio (z) = 0.06551 0.23851
#
# Static dielectric constant tensor:
#      x y z
#    x 1.846630 0.000000 0.000000 
#    y 0.000000 1.794490 0.000000 
#    z 0.000000 0.000000 1.869620 
# 
# From -- ./inp_files/8881.got.cif
#   From: 2010.05.17/outbox.cif.g08.bks.cpg/sg56_5_cif.got.tgz:8881.got - 2010.06.03 13:42:01.
