data_PCOD9431418
_publ_section_title
;
Structure prediction by ZEFSAII (Michael W. Deem and Ramdas Pophale) SiO2 
 PCOD9431418
Probable space group: P C C N
;
_chemical_formula_sum "Si O2"
_cell_formula_units_Z 24
_cell_length_a 5.113820
_cell_length_b 8.209241
_cell_length_c 29.631808
_cell_angle_alpha 90.000000
_cell_angle_beta 90.000000
_cell_angle_gamma 90.000000
_cell_volume 1243.960510
_symmetry_space_group_name_H-M "P C C N"
_symmetry_group_IT_number 56
_symmetry_cell_setting 'orthorhombic'
loop_
_space_group_symop_operation_xyz
x,y,z
1/2-x,1/2-y,z
1/2+x,-y,1/2-z
-x,1/2+y,1/2-z
-x,-y,-z
1/2+x,1/2+y,-z
1/2-x,y,1/2+z
x,1/2-y,1/2+z
loop_
_atom_site_type_symbol
_atom_site_label
_atom_site_fract_x
_atom_site_fract_y
_atom_site_fract_z
Si Si1 0.502767 0.864705 0.538184
Si Si2 0.998368 0.634031 0.640493
Si Si3 0.144501 0.066051 0.225932
O O1 0.250000 0.750000 0.535639
O O2 0.524102 0.932069 0.589393
O O3 0.750000 0.750000 0.531172
O O4 0.500000 0.000000 0.500000
O O5 0.250000 0.750000 0.641555
O O6 0.040551 0.496267 0.677724
O O7 0.750000 0.750000 0.650252
O O8 0.250000 0.250000 0.225621
O O9 0.394371 0.958195 0.241408
#
# Coordination Sequence:
#
# PCOD9431418 Si02
#       3
#     8   8   8
#     4  10  21  38  61  87 117 153 190 236 288 339
#     4  10  21  39  60  83 116 154 191 234 286 339
#     4  12  24  39  60  86 115 151 192 238 286 340
#
# _framework density 19.293215
#
# number of rings (size 3 to 8) (size 9 to 14) (size 15 to 20)
#    0.000    1.333    0.000    7.000    0.000    1.333 
#    0.000    3.333    0.000    0.000    0.000    0.000 
#    0.000    0.000    0.000    0.000    0.000    0.000 
#
# Total GULP energy -134170.746999 kJ/mol
# GULP energy per Si atom -5590.447792 kJ/mol
# Density = 1.924930 g / cm^3
# Si number density = 19.293215 Si / 1000 Ang^3
#
#
#
# Elastic Constant Matrix: (Units=GPa)
#
#
# Indices 1 2 3 4 5 6 
#
# 1 167.1014 48.3755 60.5427 0.0000 0.0000 0.0000
# 2 48.3755 98.0192 100.8630 0.0000 0.0000 0.0000
# 3 60.5427 100.8630 184.5301 0.0000 0.0000 0.0000
# 4 0.0000 0.0000 0.0000 22.0762 0.0000 0.0000
# 5 0.0000 0.0000 0.0000 0.0000 28.1385 0.0000
# 6 0.0000 0.0000 0.0000 0.0000 0.0000 24.3059
#
#
#
# Elastic Compliance Matrix: (Units=1/GPa)
#
#
# Indices 1 2 3 4 5 6 
#
# 1 0.007053 -0.002513 -0.000940 0.000000 0.000000 0.000000
# 2 -0.002513 0.024212 -0.012410 0.000000 0.000000 0.000000
# 3 -0.000940 -0.012410 0.012511 0.000000 0.000000 0.000000
# 4 0.000000 0.000000 0.000000 0.045298 0.000000 0.000000
# 5 0.000000 0.000000 0.000000 0.000000 0.035538 0.000000
# 6 0.000000 0.000000 0.000000 0.000000 0.000000 0.041142
#
#
# Mechanical properties :
#
#
# Convention : Reuss Voigt Hill
#
# Bulk Modulus (GPa) = 82.99231 96.57925 89.78578
# Shear Modulus (GPa) = 24.81436 30.89541 27.85489
#
# Velocity S-wave (km/s) = 3.59021 4.00604 3.80381
# Velocity P-wave (km/s) = 7.76504 8.45962 8.11976
#
# Compressibility (1/GPa) = 0.01204931
#
# Stress axis : x y z
#
# Youngs Moduli (GPa) = 141.79166 41.30176 79.93195
#
# Poissons Ratio (x) = 0.10380 0.07515
# Poissons Ratio (y) = 0.35635 0.99192
# Poissons Ratio (z) = 0.13331 0.51254
#
# Static dielectric constant tensor:
#      x y z
#    x 1.663260 0.000000 0.000000 
#    y 0.000000 1.567350 0.000000 
#    z 0.000000 0.000000 1.713570 
# 
# From -- ./inp_files/19742.got.cif
#   From: 2010.05.17/outbox.cif.g08.bks.cpg/sg56_10_cif.got.tgz:19742.got - 2010.06.03 13:42:01.
