data_PCOD9431946
_publ_section_title
;
Structure prediction by ZEFSAII (Michael W. Deem and Ramdas Pophale) SiO2 
 PCOD9431946
Probable space group: P C C N
;
_chemical_formula_sum "Si O2"
_cell_formula_units_Z 48
_cell_length_a 16.934103
_cell_length_b 13.333923
_cell_length_c 9.822748
_cell_angle_alpha 90.000000
_cell_angle_beta 90.000000
_cell_angle_gamma 90.000000
_cell_volume 2217.957103
_symmetry_space_group_name_H-M "P C C N"
_symmetry_group_IT_number 56
_symmetry_cell_setting 'orthorhombic'
loop_
_space_group_symop_operation_xyz
x,y,z
1/2-x,1/2-y,z
1/2+x,-y,1/2-z
-x,1/2+y,1/2-z
-x,-y,-z
1/2+x,1/2+y,-z
1/2-x,y,1/2+z
x,1/2-y,1/2+z
loop_
_atom_site_type_symbol
_atom_site_label
_atom_site_fract_x
_atom_site_fract_y
_atom_site_fract_z
Si Si1 0.505987 0.841904 0.091644
Si Si2 0.396833 0.467718 0.613888
Si Si3 0.806736 0.154139 0.707654
Si Si4 0.450468 0.711065 0.864006
Si Si5 0.579208 0.991438 0.588987
Si Si6 0.267702 0.524091 0.036108
O O1 0.514981 0.814236 0.248930
O O2 0.432724 0.920910 0.087755
O O3 0.573256 0.898812 0.008704
O O4 0.485994 0.743293 0.006833
O O5 0.430093 0.440213 0.763686
O O6 0.302916 0.468513 0.614392
O O7 0.750000 0.250000 0.705107
O O8 0.893755 0.198781 0.682324
O O9 0.776588 0.078234 0.590736
O O10 0.800897 0.103491 0.854816
O O11 0.401518 0.608783 0.878602
O O12 0.658113 0.957578 0.512039
O O13 0.500000 0.000000 0.500000
#
# Coordination Sequence:
#
# PCOD9431946 Si02
#       6
#     8   8   8   8   8   8
#     4  10  22  37  63  88 129 166 209 260 320 387
#     4  10  22  42  58  95 131 171 215 263 332 397
#     4  12  22  33  58  94 133 160 202 256 335 401
#     4  11  22  38  60  97 124 170 212 264 326 390
#     4  11  25  40  61  96 130 172 222 264 332 400
#     4  12  22  39  61  92 132 172 207 270 330 400
#
# _framework density 21.641535999999999
#
# number of rings (size 3 to 8) (size 9 to 14) (size 15 to 20)
#    0.000    1.000    5.000    2.500    4.667    1.333 
#    0.000    0.000    0.000    1.000    0.000    0.000 
#    0.000    0.000    0.000    0.000    0.000    0.000 
#
# Total GULP energy -268069.124889 kJ/mol
# GULP energy per Si atom -5584.773435 kJ/mol
# Density = 2.159228 g / cm^3
# Si number density = 21.641536 Si / 1000 Ang^3
#
#
#
# Elastic Constant Matrix: (Units=GPa)
#
#
# Indices 1 2 3 4 5 6 
#
# 1 97.5602 -4.9299 25.6138 0.0000 0.0000 0.0000
# 2 -4.9299 13.2461 -3.3342 0.0000 0.0000 0.0000
# 3 25.6138 -3.3342 116.2596 0.0000 0.0000 0.0000
# 4 0.0000 0.0000 0.0000 29.9372 0.0000 0.0000
# 5 0.0000 0.0000 0.0000 0.0000 34.1122 0.0000
# 6 0.0000 0.0000 0.0000 0.0000 0.0000 22.5974
#
#
#
# Elastic Compliance Matrix: (Units=1/GPa)
#
#
# Indices 1 2 3 4 5 6 
#
# 1 0.011040 0.003522 -0.002331 0.000000 0.000000 0.000000
# 2 0.003522 0.077167 0.001437 0.000000 0.000000 0.000000
# 3 -0.002331 0.001437 0.009156 0.000000 0.000000 0.000000
# 4 0.000000 0.000000 0.000000 0.033403 0.000000 0.000000
# 5 0.000000 0.000000 0.000000 0.000000 0.029315 0.000000
# 6 0.000000 0.000000 0.000000 0.000000 0.000000 0.044253
#
#
# Mechanical properties :
#
#
# Convention : Reuss Voigt Hill
#
# Bulk Modulus (GPa) = 9.74480 29.08502 19.41491
# Shear Modulus (GPa) = 21.43305 31.31046 26.37175
#
# Velocity S-wave (km/s) = 3.15042 3.80778 3.49459
# Velocity P-wave (km/s) = 4.21262 5.72720 5.02728
#
# Compressibility (1/GPa) = 0.10261885
#
# Stress axis : x y z
#
# Youngs Moduli (GPa) = 90.57869 12.95896 109.21474
#
# Poissons Ratio (x) = -0.04564 0.25461
# Poissons Ratio (y) = -0.31902 -0.15696
# Poissons Ratio (z) = 0.21117 -0.01862
#
# Static dielectric constant tensor:
#      x y z
#    x 1.818140 0.000000 0.000000 
#    y 0.000000 1.809840 0.000000 
#    z 0.000000 0.000000 1.821940 
# 
# From -- ./inp_files/3374.got.cif
#   From: 2010.05.17/outbox.cif.g08.bks.cpg/sg56_2_cif.got.tgz:3374.got - 2010.06.03 13:42:01.
