data_PCOD9431083
_publ_section_title
;
Structure prediction by ZEFSAII (Michael W. Deem and Ramdas Pophale) SiO2 
 PCOD9431083
Probable space group: P C C N
;
_chemical_formula_sum "Si O2"
_cell_formula_units_Z 64
_cell_length_a 15.555676
_cell_length_b 13.356848
_cell_length_c 13.749420
_cell_angle_alpha 90.000000
_cell_angle_beta 90.000000
_cell_angle_gamma 90.000000
_cell_volume 2856.782989
_symmetry_space_group_name_H-M "P C C N"
_symmetry_group_IT_number 56
_symmetry_cell_setting 'orthorhombic'
loop_
_space_group_symop_operation_xyz
x,y,z
1/2-x,1/2-y,z
1/2+x,-y,1/2-z
-x,1/2+y,1/2-z
-x,-y,-z
1/2+x,1/2+y,-z
1/2-x,y,1/2+z
x,1/2-y,1/2+z
loop_
_atom_site_type_symbol
_atom_site_label
_atom_site_fract_x
_atom_site_fract_y
_atom_site_fract_z
Si Si1 0.590222 0.859829 0.921484
Si Si2 0.165377 0.158711 0.114140
Si Si3 0.300606 0.500983 0.262784
Si Si4 0.538751 0.254310 0.940293
Si Si5 0.504921 0.082501 0.276108
Si Si6 0.204495 0.852485 0.630581
Si Si7 0.229087 0.011088 0.488792
Si Si8 0.023543 0.919225 0.917124
O O1 0.663988 0.777646 0.896724
O O2 0.535628 0.884970 0.826035
O O3 0.639666 0.955504 0.961817
O O4 0.533802 0.811800 0.007454
O O5 0.201530 0.092571 0.024489
O O6 0.063426 0.135088 0.116361
O O7 0.201573 0.106651 0.210470
O O8 0.395122 0.548816 0.239905
O O9 0.227536 0.568813 0.213743
O O10 0.283489 0.492467 0.375513
O O11 0.505359 0.326081 0.853503
O O12 0.608962 0.180272 0.896102
O O13 0.572780 0.330451 0.025806
O O14 0.452837 0.989850 0.326001
O O15 0.250000 0.750000 0.658038
O O16 0.247706 0.904042 0.536153
O O17 0.000000 0.000000 0.000000
#
# Coordination Sequence:
#
# PCOD9431083 Si02
#       8
#     8   8   8   8   8   8   8   8
#     4  11  24  43  67 103 138 183 234 281 345 401
#     4   9  21  44  65  96 137 178 227 278 329 413
#     4  10  22  43  67  97 134 178 223 284 350 402
#     4  10  21  41  67  98 137 179 228 281 340 405
#     4  10  20  40  67  99 138 174 233 281 336 411
#     4  11  23  45  66  95 136 173 227 282 336 421
#     4  11  25  44  66  99 140 181 222 285 345 405
#     4   8  17  37  65  93 130 177 222 279 332 396
#
# _framework density 22.402822
#
# number of rings (size 3 to 8) (size 9 to 14) (size 15 to 20)
#    0.000    2.000    1.250    1.125    3.500    2.500 
#   20.250    2.500    0.000    0.000    0.000    0.000 
#    0.000    0.000    0.000    0.000    0.000    0.000 
#
# Total GULP energy -357464.251357 kJ/mol
# GULP energy per Si atom -5585.378927 kJ/mol
# Density = 2.235183 g / cm^3
# Si number density = 22.402822 Si / 1000 Ang^3
#
#
#
# Elastic Constant Matrix: (Units=GPa)
#
#
# Indices 1 2 3 4 5 6 
#
# 1 82.7398 21.1111 40.9506 0.0000 0.0000 0.0000
# 2 21.1111 39.0649 16.0074 0.0000 0.0000 0.0000
# 3 40.9506 16.0074 155.4649 0.0000 0.0000 0.0000
# 4 0.0000 0.0000 0.0000 5.7946 0.0000 0.0000
# 5 0.0000 0.0000 0.0000 0.0000 26.9408 0.0000
# 6 0.0000 0.0000 0.0000 0.0000 0.0000 39.2189
#
#
#
# Elastic Compliance Matrix: (Units=1/GPa)
#
#
# Indices 1 2 3 4 5 6 
#
# 1 0.015546 -0.007019 -0.003372 0.000000 0.000000 0.000000
# 2 -0.007019 0.029896 -0.001229 0.000000 0.000000 0.000000
# 3 -0.003372 -0.001229 0.007447 0.000000 0.000000 0.000000
# 4 0.000000 0.000000 0.000000 0.172576 0.000000 0.000000
# 5 0.000000 0.000000 0.000000 0.000000 0.037118 0.000000
# 6 0.000000 0.000000 0.000000 0.000000 0.000000 0.025498
#
#
# Mechanical properties :
#
#
# Convention : Reuss Voigt Hill
#
# Bulk Modulus (GPa) = 33.73023 48.15641 40.94332
# Shear Modulus (GPa) = 15.56639 27.67088 21.61864
#
# Velocity S-wave (km/s) = 2.63884 3.51829 3.10981
# Velocity P-wave (km/s) = 4.93696 6.16821 5.58661
#
# Compressibility (1/GPa) = 0.02964700
#
# Stress axis : x y z
#
# Youngs Moduli (GPa) = 64.32471 33.44984 134.27961
#
# Poissons Ratio (x) = 0.23480 0.45282
# Poissons Ratio (y) = 0.45153 0.16505
# Poissons Ratio (z) = 0.21692 0.04112
#
# Static dielectric constant tensor:
#      x y z
#    x 1.899670 0.000000 0.000000 
#    y 0.000000 1.859550 0.000000 
#    z 0.000000 0.000000 1.793840 
# 
# From -- ./inp_files/8430.got.cif
#   From: 2010.05.17/outbox.cif.g08.bks.cpg/sg56_5_cif.got.tgz:8430.got - 2010.06.03 13:42:01.
