data_PCOD9431955
_publ_section_title
;
Structure prediction by ZEFSAII (Michael W. Deem and Ramdas Pophale) SiO2 
 PCOD9431955
Probable space group: P C C N
;
_chemical_formula_sum "Si O2"
_cell_formula_units_Z 52
_cell_length_a 19.290450
_cell_length_b 15.192500
_cell_length_c 8.402405
_cell_angle_alpha 90.000000
_cell_angle_beta 90.000000
_cell_angle_gamma 90.000000
_cell_volume 2462.494191
_symmetry_space_group_name_H-M "P C C N"
_symmetry_group_IT_number 56
_symmetry_cell_setting 'orthorhombic'
loop_
_space_group_symop_operation_xyz
x,y,z
1/2-x,1/2-y,z
1/2+x,-y,1/2-z
-x,1/2+y,1/2-z
-x,-y,-z
1/2+x,1/2+y,-z
1/2-x,y,1/2+z
x,1/2-y,1/2+z
loop_
_atom_site_type_symbol
_atom_site_label
_atom_site_fract_x
_atom_site_fract_y
_atom_site_fract_z
Si Si1 0.250000 0.750000 0.904009
Si Si2 0.394627 0.179253 0.568456
Si Si3 0.604721 0.509161 0.714829
Si Si4 0.473001 0.440681 0.855178
Si Si5 0.712971 0.381094 0.842275
Si Si6 0.341370 0.004690 0.145726
Si Si7 0.813791 0.815036 0.244957
O O1 0.292833 0.680740 0.006277
O O2 0.202151 0.687681 0.799373
O O3 0.399976 0.106554 0.708615
O O4 0.456471 0.151931 0.444724
O O5 0.332397 0.171957 0.440198
O O6 0.378472 0.271183 0.657299
O O7 0.534194 0.452442 0.728161
O O8 0.659563 0.458994 0.826434
O O9 0.630821 0.509064 0.534105
O O10 0.404282 0.481371 0.771521
O O11 0.500000 0.500000 0.000000
O O12 0.790703 0.421547 0.834289
O O13 0.296323 0.091803 0.178528
O O14 0.750000 0.750000 0.256568
#
# Coordination Sequence:
#
# PCOD9431955 Si02
#       7
#     4   8   8   8   8   8   8
#     4  10  24  42  62  94 132 152 212 282 320 380
#     4  10  22  38  58  88 130 167 212 258 310 380
#     4  11  22  41  67  92 127 170 215 261 322 384
#     4   9  22  40  64  90 125 170 210 260 311 377
#     4  11  23  41  67  95 124 163 210 266 332 377
#     4  11  23  40  69  95 129 174 211 263 321 390
#     4  11  22  36  59  94 131 166 209 258 314 382
#
# _framework density 21.116800999999999
#
# number of rings (size 3 to 8) (size 9 to 14) (size 15 to 20)
#    0.000    1.538    1.538    2.769    6.462    3.692 
#    0.000    3.846   10.154    0.000    0.000    0.000 
#    0.000    0.000    0.000    0.000    0.000    0.000 
#
# Total GULP energy -289792.955624 kJ/mol
# GULP energy per Si atom -5572.941454 kJ/mol
# Density = 2.106874 g / cm^3
# Si number density = 21.116801 Si / 1000 Ang^3
#
#
#
# Elastic Constant Matrix: (Units=GPa)
#
#
# Indices 1 2 3 4 5 6 
#
# 1 73.1752 11.1904 18.9310 0.0000 0.0000 0.0000
# 2 11.1904 74.3578 29.8339 0.0000 0.0000 0.0000
# 3 18.9310 29.8339 97.4699 0.0000 0.0000 0.0000
# 4 0.0000 0.0000 0.0000 46.2565 0.0000 0.0000
# 5 0.0000 0.0000 0.0000 0.0000 3.1728 0.0000
# 6 0.0000 0.0000 0.0000 0.0000 0.0000 27.5483
#
#
#
# Elastic Compliance Matrix: (Units=1/GPa)
#
#
# Indices 1 2 3 4 5 6 
#
# 1 0.014482 -0.001198 -0.002446 0.000000 0.000000 0.000000
# 2 -0.001198 0.015430 -0.004490 0.000000 0.000000 0.000000
# 3 -0.002446 -0.004490 0.012109 0.000000 0.000000 0.000000
# 4 0.000000 0.000000 0.000000 0.021619 0.000000 0.000000
# 5 0.000000 0.000000 0.000000 0.000000 0.315176 0.000000
# 6 0.000000 0.000000 0.000000 0.000000 0.000000 0.036300
#
#
# Mechanical properties :
#
#
# Convention : Reuss Voigt Hill
#
# Bulk Modulus (GPa) = 38.83105 40.54594 39.68849
# Shear Modulus (GPa) = 11.36446 27.73204 19.54825
#
# Velocity S-wave (km/s) = 2.32237 3.62784 3.04587
# Velocity P-wave (km/s) = 5.06160 6.06554 5.58617
#
# Compressibility (1/GPa) = 0.02575259
#
# Stress axis : x y z
#
# Youngs Moduli (GPa) = 69.05199 64.80719 82.58284
#
# Poissons Ratio (x) = 0.07764 0.20200
# Poissons Ratio (y) = 0.08273 0.37082
# Poissons Ratio (z) = 0.16890 0.29100
#
# Static dielectric constant tensor:
#      x y z
#    x 1.851970 0.000000 0.000000 
#    y 0.000000 1.719070 0.000000 
#    z 0.000000 0.000000 1.807700 
# 
# From -- ./inp_files/4448.got.cif
#   From: 2010.05.17/outbox.cif.g08.bks.cpg/sg56_3_cif.got.tgz:4448.got - 2010.06.03 13:42:01.
