data_PCOD9431261
_publ_section_title
;
Structure prediction by ZEFSAII (Michael W. Deem and Ramdas Pophale) SiO2 
 PCOD9431261
Probable space group: P C C N
;
_chemical_formula_sum "Si O2"
_cell_formula_units_Z 52
_cell_length_a 15.235019
_cell_length_b 7.275581
_cell_length_c 20.392416
_cell_angle_alpha 90.000000
_cell_angle_beta 90.000000
_cell_angle_gamma 90.000000
_cell_volume 2260.369103
_symmetry_space_group_name_H-M "P C C N"
_symmetry_group_IT_number 56
_symmetry_cell_setting 'orthorhombic'
loop_
_space_group_symop_operation_xyz
x,y,z
1/2-x,1/2-y,z
1/2+x,-y,1/2-z
-x,1/2+y,1/2-z
-x,-y,-z
1/2+x,1/2+y,-z
1/2-x,y,1/2+z
x,1/2-y,1/2+z
loop_
_atom_site_type_symbol
_atom_site_label
_atom_site_fract_x
_atom_site_fract_y
_atom_site_fract_z
Si Si1 0.432395 0.242089 0.036685
Si Si2 0.993399 0.595335 0.589705
Si Si3 0.777477 0.963620 0.267421
Si Si4 0.250000 0.250000 0.485168
Si Si5 0.085552 0.544098 0.713134
Si Si6 0.458352 0.122289 0.173843
Si Si7 0.303873 0.561919 0.884641
O O1 0.436856 0.457283 0.057446
O O2 0.471829 0.125878 0.095870
O O3 0.472397 0.249259 0.963733
O O4 0.331238 0.196306 0.029849
O O5 0.908155 0.465078 0.601983
O O6 0.030423 0.658850 0.659345
O O7 0.750000 0.750000 0.274723
O O8 0.689827 0.072157 0.289249
O O9 0.870772 0.986978 0.303553
O O10 0.791203 0.003368 0.190661
O O11 0.233538 0.418149 0.436569
O O12 0.064254 0.333386 0.693811
O O13 0.044463 0.573576 0.784683
O O14 0.250000 0.750000 0.893672
#
# Coordination Sequence:
#
# PCOD9431261 Si02
#       7
#     8   8   8   4   8   8   8
#     4   9  20  35  66  87 126 166 219 256 331 388
#     4   9  19  39  58  94 125 172 210 272 327 395
#     4  10  21  36  59  92 125 169 218 266 324 395
#     4  10  22  42  66  92 126 180 212 274 322 402
#     4  10  21  34  62  88 129 164 213 266 326 391
#     4  10  21  38  61  95 124 165 218 268 323 402
#     4  11  22  38  66  91 129 168 223 267 331 398
#
# _framework density 23.005092000000001
#
# number of rings (size 3 to 8) (size 9 to 14) (size 15 to 20)
#    0.000    2.154    2.308    0.000    9.692    0.000 
#    0.000    0.769   16.923    0.923    0.000    0.000 
#    0.000    0.000    0.000    0.000    0.000    0.000 
#
# Total GULP energy -290460.565452 kJ/mol
# GULP energy per Si atom -5585.780105 kJ/mol
# Density = 2.295273 g / cm^3
# Si number density = 23.005092 Si / 1000 Ang^3
#
#
#
# Elastic Constant Matrix: (Units=GPa)
#
#
# Indices 1 2 3 4 5 6 
#
# 1 116.3024 33.2625 62.7222 0.0000 0.0000 0.0000
# 2 33.2625 45.7313 22.9306 0.0000 0.0000 0.0000
# 3 62.7222 22.9306 132.5233 0.0000 0.0000 0.0000
# 4 0.0000 0.0000 0.0000 -167.5043 0.0000 0.0000
# 5 0.0000 0.0000 0.0000 0.0000 17.4991 0.0000
# 6 0.0000 0.0000 0.0000 0.0000 0.0000 28.4833
#
#
#
# Elastic Compliance Matrix: (Units=1/GPa)
#
#
# Indices 1 2 3 4 5 6 
#
# 1 0.013406 -0.007194 -0.005100 0.000000 0.000000 0.000000
# 2 -0.007194 0.027804 -0.001406 0.000000 0.000000 0.000000
# 3 -0.005100 -0.001406 0.010203 0.000000 0.000000 0.000000
# 4 0.000000 0.000000 0.000000 -0.005970 0.000000 0.000000
# 5 0.000000 0.000000 0.000000 0.000000 0.057146 0.000000
# 6 0.000000 0.000000 0.000000 0.000000 0.000000 0.035108
#
#
# Mechanical properties :
#
#
# Convention : Reuss Voigt Hill
#
# Bulk Modulus (GPa) = 41.64387 59.15416 50.39901
# Shear Modulus (GPa) = 28.88457 -12.59493 8.14482
#
# Velocity S-wave (km/s) = 3.54725 -2.34238 1.88365
# Velocity P-wave (km/s) = 5.90920 4.29578 5.16586
#
# Compressibility (1/GPa) = 0.02401314
#
# Stress axis : x y z
#
# Youngs Moduli (GPa) = 74.59187 35.96569 98.00899
#
# Poissons Ratio (x) = 0.25872 0.49988
# Poissons Ratio (y) = 0.53658 0.13783
# Poissons Ratio (z) = 0.38045 0.05058
#
# Static dielectric constant tensor:
#      x y z
#    x 2.209600 0.000000 0.000000 
#    y 0.000000 1.907630 0.000000 
#    z 0.000000 0.000000 1.875480 
# 
# From -- ./inp_files/19069.got.cif
#   From: 2010.05.17/outbox.cif.g08.bks.cpg/sg56_10_cif.got.tgz:19069.got - 2010.06.03 13:42:01.
