data_PCOD9431849
_publ_section_title
;
Structure prediction by ZEFSAII (Michael W. Deem and Ramdas Pophale) SiO2 
 PCOD9431849
Probable space group: P C C N
;
_chemical_formula_sum "Si O2"
_cell_formula_units_Z 56
_cell_length_a 7.727635
_cell_length_b 18.711630
_cell_length_c 16.389463
_cell_angle_alpha 90.000000
_cell_angle_beta 90.000000
_cell_angle_gamma 90.000000
_cell_volume 2369.861394
_symmetry_space_group_name_H-M "P C C N"
_symmetry_group_IT_number 56
_symmetry_cell_setting 'orthorhombic'
loop_
_space_group_symop_operation_xyz
x,y,z
1/2-x,1/2-y,z
1/2+x,-y,1/2-z
-x,1/2+y,1/2-z
-x,-y,-z
1/2+x,1/2+y,-z
1/2-x,y,1/2+z
x,1/2-y,1/2+z
loop_
_atom_site_type_symbol
_atom_site_label
_atom_site_fract_x
_atom_site_fract_y
_atom_site_fract_z
Si Si1 0.384389 0.466777 0.850880
Si Si2 0.938831 0.304914 0.168395
Si Si3 0.774273 0.093525 0.391570
Si Si4 0.136203 0.454137 0.168803
Si Si5 0.302767 0.390091 0.009508
Si Si6 0.250000 0.250000 0.571326
Si Si7 0.750000 0.250000 0.820938
Si Si8 0.819986 0.114676 0.067315
O O1 0.582979 0.435850 0.859773
O O2 0.303451 0.453434 0.762543
O O3 0.368554 0.550585 0.871538
O O4 0.286273 0.430437 0.925980
O O5 0.897620 0.276102 0.257960
O O6 0.768248 0.321099 0.114813
O O7 0.005981 0.387368 0.169911
O O8 0.084631 0.253493 0.130768
O O9 0.794012 0.177237 0.369493
O O10 0.791577 0.087700 0.489789
O O11 0.904977 0.037170 0.349428
O O12 0.251912 0.433722 0.090175
O O13 0.205616 0.316142 0.013958
O O14 0.501653 0.367034 0.021961
#
# Coordination Sequence:
#
# PCOD9431849 Si02
#       8
#     8   8   8   8   8   4   4   8
#     4  11  21  41  73 104 137 184 237 298 359 428
#     4  11  25  44  69  98 141 186 238 290 359 433
#     4  11  23  44  70 104 143 183 240 300 358 442
#     4  11  22  43  68 103 138 189 235 294 359 420
#     4  10  21  43  69  97 141 181 240 288 360 426
#     4  10  24  44  66  94 144 186 224 300 364 428
#     4  12  24  44  66 108 142 182 240 294 366 448
#     4  11  22  42  77  99 130 190 242 294 358 423
#
# _framework density 23.630075000000001
#
# number of rings (size 3 to 8) (size 9 to 14) (size 15 to 20)
#    0.000    1.143    4.286    2.571    0.000    3.429 
#    0.000    2.857    3.143    0.000    0.000    0.000 
#    0.000    0.000    0.000    0.000    0.000    0.000 
#
# Total GULP energy -312286.726306 kJ/mol
# GULP energy per Si atom -5576.548684 kJ/mol
# Density = 2.357629 g / cm^3
# Si number density = 23.630075 Si / 1000 Ang^3
#
#
#
# Elastic Constant Matrix: (Units=GPa)
#
#
# Indices 1 2 3 4 5 6 
#
# 1 52.7870 19.2324 18.4407 0.0000 0.0000 0.0000
# 2 19.2324 166.8404 45.7028 0.0000 0.0000 0.0000
# 3 18.4407 45.7028 128.3099 0.0000 0.0000 0.0000
# 4 0.0000 0.0000 0.0000 32.6395 0.0000 0.0000
# 5 0.0000 0.0000 0.0000 0.0000 3.2348 0.0000
# 6 0.0000 0.0000 0.0000 0.0000 0.0000 35.1561
#
#
#
# Elastic Compliance Matrix: (Units=1/GPa)
#
#
# Indices 1 2 3 4 5 6 
#
# 1 0.020378 -0.001714 -0.002318 0.000000 0.000000 0.000000
# 2 -0.001714 0.006786 -0.002171 0.000000 0.000000 0.000000
# 3 -0.002318 -0.002171 0.008900 0.000000 0.000000 0.000000
# 4 0.000000 0.000000 0.000000 0.030638 0.000000 0.000000
# 5 0.000000 0.000000 0.000000 0.000000 0.309137 0.000000
# 6 0.000000 0.000000 0.000000 0.000000 0.000000 0.028445
#
#
# Mechanical properties :
#
#
# Convention : Reuss Voigt Hill
#
# Bulk Modulus (GPa) = 42.26854 57.18767 49.72811
# Shear Modulus (GPa) = 11.77644 31.84351 21.80998
#
# Velocity S-wave (km/s) = 2.23483 3.67493 3.04135
# Velocity P-wave (km/s) = 4.95840 6.50081 5.78128
#
# Compressibility (1/GPa) = 0.02365826
#
# Stress axis : x y z
#
# Youngs Moduli (GPa) = 49.07155 147.36266 112.35937
#
# Poissons Ratio (x) = 0.25259 0.26048
# Poissons Ratio (y) = 0.08411 0.24391
# Poissons Ratio (z) = 0.11376 0.31989
#
# Static dielectric constant tensor:
#      x y z
#    x 2.060730 0.000000 0.000000 
#    y 0.000000 1.944630 0.000000 
#    z 0.000000 0.000000 1.962750 
# 
# From -- ./inp_files/10920.got.cif
#   From: 2010.05.17/outbox.cif.g08.bks.cpg/sg56_6_cif.got.tgz:10920.got - 2010.06.03 13:42:01.
