data_PCOD9431938
_publ_section_title
;
Structure prediction by ZEFSAII (Michael W. Deem and Ramdas Pophale) SiO2 
 PCOD9431938
Probable space group: P C C N
;
_chemical_formula_sum "Si O2"
_cell_formula_units_Z 40
_cell_length_a 15.699093
_cell_length_b 20.608474
_cell_length_c 5.116559
_cell_angle_alpha 90.000000
_cell_angle_beta 90.000000
_cell_angle_gamma 90.000000
_cell_volume 1655.382590
_symmetry_space_group_name_H-M "P C C N"
_symmetry_group_IT_number 56
_symmetry_cell_setting 'orthorhombic'
loop_
_space_group_symop_operation_xyz
x,y,z
1/2-x,1/2-y,z
1/2+x,-y,1/2-z
-x,1/2+y,1/2-z
-x,-y,-z
1/2+x,1/2+y,-z
1/2-x,y,1/2+z
x,1/2-y,1/2+z
loop_
_atom_site_type_symbol
_atom_site_label
_atom_site_fract_x
_atom_site_fract_y
_atom_site_fract_z
Si Si1 0.148005 0.206168 0.480144
Si Si2 0.793560 0.563935 0.082720
Si Si3 0.523453 0.360776 0.640414
Si Si4 0.287425 0.676990 0.419823
Si Si5 0.478226 0.063963 0.659581
O O1 0.160527 0.251895 0.725118
O O2 0.050376 0.182161 0.510512
O O3 0.204829 0.141747 0.465491
O O4 0.776747 0.539506 0.789760
O O5 0.883254 0.554672 0.226698
O O6 0.614182 0.325532 0.655878
O O7 0.531264 0.418252 0.422169
O O8 0.491170 0.382307 0.928506
O O9 0.250000 0.750000 0.455482
O O10 0.268776 0.644543 0.695954
O O11 0.500000 0.000000 0.500000
#
# Coordination Sequence:
#
# PCOD9431938 Si02
#       5
#     8   8   8   8   8
#     4  11  23  36  61  94 128 175 207 251 324 394
#     4  11  23  42  64  94 131 164 218 271 332 399
#     4  11  23  41  65  94 135 171 235 267 324 433
#     4  10  22  37  59  92 131 181 210 262 327 384
#     4  11  24  46  70  94 126 179 226 291 342 393
#
# _framework density 24.163601
#
# number of rings (size 3 to 8) (size 9 to 14) (size 15 to 20)
#    0.000    1.200    0.000    7.800    5.600    2.400 
#    0.000    6.000    0.000    0.000    0.000    0.000 
#    0.000    0.000    0.000    0.000    0.000    0.000 
#
# Total GULP energy -223533.234721 kJ/mol
# GULP energy per Si atom -5588.330868 kJ/mol
# Density = 2.410860 g / cm^3
# Si number density = 24.163601 Si / 1000 Ang^3
#
#
#
# Elastic Constant Matrix: (Units=GPa)
#
#
# Indices 1 2 3 4 5 6 
#
# 1 119.2664 16.9525 15.0235 0.0000 0.0000 0.0000
# 2 16.9525 35.8213 11.7585 0.0000 0.0000 0.0000
# 3 15.0235 11.7585 173.7801 0.0000 0.0000 0.0000
# 4 0.0000 0.0000 0.0000 15.1376 0.0000 0.0000
# 5 0.0000 0.0000 0.0000 0.0000 23.4128 0.0000
# 6 0.0000 0.0000 0.0000 0.0000 0.0000 13.4353
#
#
#
# Elastic Compliance Matrix: (Units=1/GPa)
#
#
# Indices 1 2 3 4 5 6 
#
# 1 0.009032 -0.004109 -0.000503 0.000000 0.000000 0.000000
# 2 -0.004109 0.030420 -0.001703 0.000000 0.000000 0.000000
# 3 -0.000503 -0.001703 0.005913 0.000000 0.000000 0.000000
# 4 0.000000 0.000000 0.000000 0.066061 0.000000 0.000000
# 5 0.000000 0.000000 0.000000 0.000000 0.042712 0.000000
# 6 0.000000 0.000000 0.000000 0.000000 0.000000 0.074431
#
#
# Mechanical properties :
#
#
# Convention : Reuss Voigt Hill
#
# Bulk Modulus (GPa) = 30.54850 46.25965 38.40407
# Shear Modulus (GPa) = 19.83256 29.40602 24.61929
#
# Velocity S-wave (km/s) = 2.86800 3.49227 3.19542
# Velocity P-wave (km/s) = 4.86180 5.95376 5.43527
#
# Compressibility (1/GPa) = 0.03273484
#
# Stress axis : x y z
#
# Youngs Moduli (GPa) = 110.71708 32.87294 169.11604
#
# Poissons Ratio (x) = 0.13509 0.08503
# Poissons Ratio (y) = 0.45498 0.28802
# Poissons Ratio (z) = 0.05567 0.05598
#
# Static dielectric constant tensor:
#      x y z
#    x 2.019420 0.000000 0.000000 
#    y 0.000000 1.906990 0.000000 
#    z 0.000000 0.000000 1.978630 
# 
# From -- ./inp_files/468.got.cif
#   From: 2010.05.17/outbox.cif.g08.bks.cpg/sg56_1_cif.got.tgz:468.got - 2010.06.03 13:42:01.
