data_PCOD9431752
_publ_section_title
;
Structure prediction by ZEFSAII (Michael W. Deem and Ramdas Pophale) SiO2 
 PCOD9431752
Probable space group: P C C N
;
_chemical_formula_sum "Si O2"
_cell_formula_units_Z 44
_cell_length_a 9.175549
_cell_length_b 8.156980
_cell_length_c 28.337667
_cell_angle_alpha 90.000000
_cell_angle_beta 90.000000
_cell_angle_gamma 90.000000
_cell_volume 2120.926160
_symmetry_space_group_name_H-M "P C C N"
_symmetry_group_IT_number 56
_symmetry_cell_setting 'orthorhombic'
loop_
_space_group_symop_operation_xyz
x,y,z
1/2-x,1/2-y,z
1/2+x,-y,1/2-z
-x,1/2+y,1/2-z
-x,-y,-z
1/2+x,1/2+y,-z
1/2-x,y,1/2+z
x,1/2-y,1/2+z
loop_
_atom_site_type_symbol
_atom_site_label
_atom_site_fract_x
_atom_site_fract_y
_atom_site_fract_z
Si Si1 0.658829 0.090831 0.834517
Si Si2 0.750000 0.250000 0.020096
Si Si3 0.937256 0.891756 0.814971
Si Si4 0.577697 0.764486 0.717242
Si Si5 0.812382 0.489634 0.939989
Si Si6 0.023531 0.173346 0.077327
O O1 0.750000 0.250000 0.818908
O O2 0.504377 0.118058 0.810514
O O3 0.765881 0.941775 0.821055
O O4 0.644011 0.094936 0.890867
O O5 0.631409 0.340549 0.052393
O O6 0.830244 0.376994 0.985255
O O7 0.959544 0.768162 0.771978
O O8 0.987039 0.826797 0.865882
O O9 0.021407 0.060404 0.801687
O O10 0.750000 0.750000 0.711235
O O11 0.901954 0.657935 0.939809
O O12 0.640381 0.533488 0.935792
#
# Coordination Sequence:
#
# PCOD9431752 Si02
#       6
#     8   4   8   8   8   8
#     4   9  19  39  61  89 123 166 213 249 304 379
#     4  12  22  42  68  94 122 156 222 276 316 374
#     4  10  23  41  62  91 131 174 204 256 316 389
#     4  11  23  38  64  95 126 168 216 258 308 370
#     4  10  21  41  69  86 123 174 209 251 330 394
#     4  10  24  40  63  96 128 164 211 265 323 383
#
# _framework density 20.745653000000001
#
# number of rings (size 3 to 8) (size 9 to 14) (size 15 to 20)
#    0.000    1.818    0.909    2.182    7.636    1.455 
#    4.909    0.000    0.000    0.000    0.000    0.000 
#    0.000    0.000    0.000    0.000    0.000    0.000 
#
# Total GULP energy -245842.578310 kJ/mol
# GULP energy per Si atom -5587.331325 kJ/mol
# Density = 2.069844 g / cm^3
# Si number density = 20.745653 Si / 1000 Ang^3
#
#
#
# Elastic Constant Matrix: (Units=GPa)
#
#
# Indices 1 2 3 4 5 6 
#
# 1 79.9280 19.4741 63.7674 0.0000 0.0000 0.0000
# 2 19.4741 70.9034 42.2778 0.0000 0.0000 0.0000
# 3 63.7674 42.2778 151.8693 0.0000 0.0000 0.0000
# 4 0.0000 0.0000 0.0000 30.3630 0.0000 0.0000
# 5 0.0000 0.0000 0.0000 0.0000 24.1474 0.0000
# 6 0.0000 0.0000 0.0000 0.0000 0.0000 24.0697
#
#
#
# Elastic Compliance Matrix: (Units=1/GPa)
#
#
# Indices 1 2 3 4 5 6 
#
# 1 0.018831 -0.000548 -0.007754 0.000000 0.000000 0.000000
# 2 -0.000548 0.016927 -0.004482 0.000000 0.000000 0.000000
# 3 -0.007754 -0.004482 0.011088 0.000000 0.000000 0.000000
# 4 0.000000 0.000000 0.000000 0.032935 0.000000 0.000000
# 5 0.000000 0.000000 0.000000 0.000000 0.041412 0.000000
# 6 0.000000 0.000000 0.000000 0.000000 0.000000 0.041546
#
#
# Mechanical properties :
#
#
# Convention : Reuss Voigt Hill
#
# Bulk Modulus (GPa) = 46.99894 61.52658 54.26276
# Shear Modulus (GPa) = 25.58840 27.52810 26.55825
#
# Velocity S-wave (km/s) = 3.51584 3.64666 3.58185
# Velocity P-wave (km/s) = 6.25983 6.88860 6.58173
#
# Compressibility (1/GPa) = 0.02127708
#
# Stress axis : x y z
#
# Youngs Moduli (GPa) = 53.10291 59.07819 90.18624
#
# Poissons Ratio (x) = 0.03240 0.69933
# Poissons Ratio (y) = 0.02913 0.40420
# Poissons Ratio (z) = 0.41178 0.26478
#
# Static dielectric constant tensor:
#      x y z
#    x 1.738200 0.000000 0.000000 
#    y 0.000000 1.793730 0.000000 
#    z 0.000000 0.000000 1.720650 
# 
# From -- ./inp_files/23146.got.cif
#   From: 2010.05.17/outbox.cif.g08.bks.cpg/sg56_12_cif.got.tgz:23146.got - 2010.06.03 13:42:01.
