data_PCOD9431550
_publ_section_title
;
Structure prediction by ZEFSAII (Michael W. Deem and Ramdas Pophale) SiO2 
 PCOD9431550
Probable space group: P C C N
;
_chemical_formula_sum "Si O2"
_cell_formula_units_Z 48
_cell_length_a 8.429652
_cell_length_b 30.374689
_cell_length_c 7.985500
_cell_angle_alpha 90.000000
_cell_angle_beta 90.000000
_cell_angle_gamma 90.000000
_cell_volume 2044.671766
_symmetry_space_group_name_H-M "P C C N"
_symmetry_group_IT_number 56
_symmetry_cell_setting 'orthorhombic'
loop_
_space_group_symop_operation_xyz
x,y,z
1/2-x,1/2-y,z
1/2+x,-y,1/2-z
-x,1/2+y,1/2-z
-x,-y,-z
1/2+x,1/2+y,-z
1/2-x,y,1/2+z
x,1/2-y,1/2+z
loop_
_atom_site_type_symbol
_atom_site_label
_atom_site_fract_x
_atom_site_fract_y
_atom_site_fract_z
Si Si1 0.882639 0.287591 0.806492
Si Si2 0.119012 0.450307 0.141787
Si Si3 0.970085 0.962908 0.746615
Si Si4 0.834707 0.639905 0.681741
Si Si5 0.598742 0.725971 0.396122
Si Si6 0.504647 0.129287 0.677290
O O1 0.750000 0.250000 0.809697
O O2 0.023412 0.266492 0.700659
O O3 0.860885 0.335258 0.724183
O O4 0.958689 0.291730 0.987637
O O5 0.306514 0.459649 0.152311
O O6 0.096496 0.401776 0.216765
O O7 0.041637 0.488628 0.254091
O O8 0.062184 0.454783 0.951292
O O9 0.066948 0.920653 0.812635
O O10 0.861205 0.686002 0.773784
O O11 0.642874 0.633380 0.689401
O O12 0.917403 0.639050 0.499896
O O13 0.750000 0.750000 0.481202
#
# Coordination Sequence:
#
# PCOD9431550 Si02
#       6
#     8   8   8   8   8   8
#     4  12  26  44  65  97 138 174 218 283 348 400
#     4  10  21  39  65  98 134 170 219 273 328 390
#     4  10  21  39  66  98 133 174 217 271 328 394
#     4  11  22  39  69 101 126 171 231 282 321 394
#     4  12  24  42  70  97 126 177 230 277 329 403
#     4  11  22  40  67  98 133 175 222 275 338 397
#
# _framework density 23.475650999999999
#
# number of rings (size 3 to 8) (size 9 to 14) (size 15 to 20)
#    0.000    1.000    1.667    8.000    0.000    2.667 
#    3.000    0.833    3.667    0.000    0.000    0.000 
#    0.000    0.000    0.000    0.000    0.000    0.000 
#
# Total GULP energy -268350.538925 kJ/mol
# GULP energy per Si atom -5590.636228 kJ/mol
# Density = 2.342222 g / cm^3
# Si number density = 23.475651 Si / 1000 Ang^3
#
#
#
# Elastic Constant Matrix: (Units=GPa)
#
#
# Indices 1 2 3 4 5 6 
#
# 1 39.2204 22.5004 14.9047 0.0000 0.0000 0.0000
# 2 22.5004 153.1328 35.6311 0.0000 0.0000 0.0000
# 3 14.9047 35.6311 77.9523 0.0000 0.0000 0.0000
# 4 0.0000 0.0000 0.0000 40.2644 0.0000 0.0000
# 5 0.0000 0.0000 0.0000 0.0000 7.3981 0.0000
# 6 0.0000 0.0000 0.0000 0.0000 0.0000 47.3211
#
#
#
# Elastic Compliance Matrix: (Units=1/GPa)
#
#
# Indices 1 2 3 4 5 6 
#
# 1 0.028925 -0.003316 -0.004015 0.000000 0.000000 0.000000
# 2 -0.003316 0.007688 -0.002880 0.000000 0.000000 0.000000
# 3 -0.004015 -0.002880 0.014912 0.000000 0.000000 0.000000
# 4 0.000000 0.000000 0.000000 0.024836 0.000000 0.000000
# 5 0.000000 0.000000 0.000000 0.000000 0.135170 0.000000
# 6 0.000000 0.000000 0.000000 0.000000 0.000000 0.021132
#
#
# Mechanical properties :
#
#
# Convention : Reuss Voigt Hill
#
# Bulk Modulus (GPa) = 32.15058 46.26419 39.20738
# Shear Modulus (GPa) = 18.97881 32.14802 25.56341
#
# Velocity S-wave (km/s) = 2.84640 3.70458 3.30348
# Velocity P-wave (km/s) = 4.95255 6.16836 5.59358
#
# Compressibility (1/GPa) = 0.03110364
#
# Stress axis : x y z
#
# Youngs Moduli (GPa) = 34.57222 130.07977 67.05835
#
# Poissons Ratio (x) = 0.43133 0.26923
# Poissons Ratio (y) = 0.11464 0.19312
# Poissons Ratio (z) = 0.13880 0.37462
#
# Static dielectric constant tensor:
#      x y z
#    x 1.905530 0.000000 0.000000 
#    y 0.000000 1.925500 0.000000 
#    z 0.000000 0.000000 1.937030 
# 
# From -- ./inp_files/2245.got.cif
#   From: 2010.05.17/outbox.cif.g08.bks.cpg/sg56_2_cif.got.tgz:2245.got - 2010.06.03 13:42:01.
