data_PCOD9431546
_publ_section_title
;
Structure prediction by ZEFSAII (Michael W. Deem and Ramdas Pophale) SiO2 
 PCOD9431546
Probable space group: P C C N
;
_chemical_formula_sum "Si O2"
_cell_formula_units_Z 40
_cell_length_a 8.787307
_cell_length_b 12.008300
_cell_length_c 14.406632
_cell_angle_alpha 90.000000
_cell_angle_beta 90.000000
_cell_angle_gamma 90.000000
_cell_volume 1520.196721
_symmetry_space_group_name_H-M "P C C N"
_symmetry_group_IT_number 56
_symmetry_cell_setting 'orthorhombic'
loop_
_space_group_symop_operation_xyz
x,y,z
1/2-x,1/2-y,z
1/2+x,-y,1/2-z
-x,1/2+y,1/2-z
-x,-y,-z
1/2+x,1/2+y,-z
1/2-x,y,1/2+z
x,1/2-y,1/2+z
loop_
_atom_site_type_symbol
_atom_site_label
_atom_site_fract_x
_atom_site_fract_y
_atom_site_fract_z
Si Si1 0.615887 0.982061 0.808782
Si Si2 0.592200 0.203244 0.892859
Si Si3 0.821704 0.640396 0.636532
Si Si4 0.417857 0.712750 0.393669
Si Si5 0.876128 0.578936 0.449018
O O1 0.665769 0.963279 0.703285
O O2 0.502340 0.881623 0.834827
O O3 0.767240 0.974552 0.872204
O O4 0.539857 0.099436 0.831853
O O5 0.750000 0.250000 0.857907
O O6 0.484746 0.308642 0.887258
O O7 0.606971 0.168928 0.000579
O O8 0.750000 0.750000 0.683140
O O9 0.761669 0.615299 0.533403
O O10 0.250000 0.750000 0.360963
O O11 0.532368 0.817737 0.404607
O O12 0.000000 0.500000 0.500000
#
# Coordination Sequence:
#
# PCOD9431546 Si02
#       5
#     8   8   8   8   8
#     4  12  24  43  71  98 135 186 228 282 355 421
#     4  10  23  44  64  94 136 176 227 288 343 409
#     4  11  25  42  65  97 133 173 224 282 339 410
#     4  10  21  39  65 100 138 180 232 286 347 422
#     4  11  23  44  69  97 136 183 231 286 348 418
#
# _framework density 26.312383000000001
#
# number of rings (size 3 to 8) (size 9 to 14) (size 15 to 20)
#    0.000    1.200    0.000    8.400    0.000    7.200 
#    0.000    0.000    0.000    0.000    0.000    0.000 
#    0.000    0.000    0.000    0.000    0.000    0.000 
#
# Total GULP energy -224267.429079 kJ/mol
# GULP energy per Si atom -5606.685727 kJ/mol
# Density = 2.625250 g / cm^3
# Si number density = 26.312383 Si / 1000 Ang^3
#
#
#
# Elastic Constant Matrix: (Units=GPa)
#
#
# Indices 1 2 3 4 5 6 
#
# 1 86.3286 15.6031 8.1322 0.0000 0.0000 0.0000
# 2 15.6031 123.6329 16.8393 0.0000 0.0000 0.0000
# 3 8.1322 16.8393 107.5911 0.0000 0.0000 0.0000
# 4 0.0000 0.0000 0.0000 29.0125 0.0000 0.0000
# 5 0.0000 0.0000 0.0000 0.0000 10.8410 0.0000
# 6 0.0000 0.0000 0.0000 0.0000 0.0000 41.1387
#
#
#
# Elastic Compliance Matrix: (Units=1/GPa)
#
#
# Indices 1 2 3 4 5 6 
#
# 1 0.011902 -0.001410 -0.000679 0.000000 0.000000 0.000000
# 2 -0.001410 0.008432 -0.001213 0.000000 0.000000 0.000000
# 3 -0.000679 -0.001213 0.009536 0.000000 0.000000 0.000000
# 4 0.000000 0.000000 0.000000 0.034468 0.000000 0.000000
# 5 0.000000 0.000000 0.000000 0.000000 0.092242 0.000000
# 6 0.000000 0.000000 0.000000 0.000000 0.000000 0.024308
#
#
# Mechanical properties :
#
#
# Convention : Reuss Voigt Hill
#
# Bulk Modulus (GPa) = 42.98097 44.30018 43.64058
# Shear Modulus (GPa) = 25.60864 34.66364 30.13614
#
# Velocity S-wave (km/s) = 3.12309 3.63352 3.38793
# Velocity P-wave (km/s) = 5.41989 5.87164 5.65028
#
# Compressibility (1/GPa) = 0.02326611
#
# Stress axis : x y z
#
# Youngs Moduli (GPa) = 84.01670 118.60144 104.86978
#
# Poissons Ratio (x) = 0.16719 0.07121
# Poissons Ratio (y) = 0.11844 0.12722
# Poissons Ratio (z) = 0.05705 0.14388
#
# Static dielectric constant tensor:
#      x y z
#    x 2.128600 0.000000 0.000000 
#    y 0.000000 1.991550 0.000000 
#    z 0.000000 0.000000 2.078350 
# 
# From -- ./inp_files/14481.got.cif
#   From: 2010.05.17/outbox.cif.g08.bks.cpg/sg56_8_cif.got.tgz:14481.got - 2010.06.03 13:42:01.
