data_PCOD9431348
_publ_section_title
;
Structure prediction by ZEFSAII (Michael W. Deem and Ramdas Pophale) SiO2 
 PCOD9431348
Probable space group: P C C N
;
_chemical_formula_sum "Si O2"
_cell_formula_units_Z 56
_cell_length_a 5.339030
_cell_length_b 21.434911
_cell_length_c 21.058098
_cell_angle_alpha 90.000000
_cell_angle_beta 90.000000
_cell_angle_gamma 90.000000
_cell_volume 2409.923120
_symmetry_space_group_name_H-M "P C C N"
_symmetry_group_IT_number 56
_symmetry_cell_setting 'orthorhombic'
loop_
_space_group_symop_operation_xyz
x,y,z
1/2-x,1/2-y,z
1/2+x,-y,1/2-z
-x,1/2+y,1/2-z
-x,-y,-z
1/2+x,1/2+y,-z
1/2-x,y,1/2+z
x,1/2-y,1/2+z
loop_
_atom_site_type_symbol
_atom_site_label
_atom_site_fract_x
_atom_site_fract_y
_atom_site_fract_z
Si Si1 0.942749 0.351598 0.128528
Si Si2 0.860232 0.179725 0.490515
Si Si3 0.238837 0.039431 0.825047
Si Si4 0.750000 0.750000 0.314154
Si Si5 0.577785 0.150914 0.368970
Si Si6 0.750000 0.750000 0.580156
Si Si7 0.637779 0.179634 0.746801
Si Si8 0.739717 0.965165 0.827788
O O1 0.749508 0.358027 0.186956
O O2 0.050529 0.282049 0.140105
O O3 0.160447 0.402019 0.137397
O O4 0.842186 0.353359 0.057755
O O5 0.750000 0.250000 0.496706
O O6 0.717382 0.142605 0.435505
O O7 0.137674 0.195633 0.464132
O O8 0.235117 0.045370 0.748399
O O9 0.147973 0.104041 0.855157
O O10 0.510895 0.012959 0.842604
O O11 0.011647 0.992528 0.843269
O O12 0.648218 0.804913 0.269042
O O13 0.461847 0.220286 0.375699
O O14 0.772660 0.147875 0.310865
O O15 0.750000 0.250000 0.747508
#
# Coordination Sequence:
#
# PCOD9431348 Si02
#       8
#     8   8   8   4   8   4   8   8
#     4  11  22  40  64  96 131 177 220 274 335 403
#     4  10  22  40  61  93 134 173 216 262 339 412
#     4  10  23  44  66  97 130 178 225 286 335 404
#     4  10  23  35  62  96 139 163 216 284 343 401
#     4  11  23  41  65  94 130 174 222 274 337 401
#     4  10  23  41  64  90 133 179 210 270 339 417
#     4  10  21  37  57  97 126 161 212 277 331 394
#     4  10  23  43  68  95 133 174 230 279 345 392
#
# _framework density 23.237255999999999
#
# number of rings (size 3 to 8) (size 9 to 14) (size 15 to 20)
#    0.000    1.714    1.429    3.000    4.000    7.429 
#    0.000    1.429    0.000    0.000    0.000    0.000 
#    0.000    0.000    0.000    0.000    0.000    0.000 
#
# Total GULP energy -313286.413294 kJ/mol
# GULP energy per Si atom -5594.400237 kJ/mol
# Density = 2.318437 g / cm^3
# Si number density = 23.237256 Si / 1000 Ang^3
#
#
#
# Elastic Constant Matrix: (Units=GPa)
#
#
# Indices 1 2 3 4 5 6 
#
# 1 66.6028 7.4574 27.2052 0.0000 0.0000 0.0000
# 2 7.4574 63.5064 20.4695 0.0000 0.0000 0.0000
# 3 27.2052 20.4695 147.2420 0.0000 0.0000 0.0000
# 4 0.0000 0.0000 0.0000 16.2745 0.0000 0.0000
# 5 0.0000 0.0000 0.0000 0.0000 18.7536 0.0000
# 6 0.0000 0.0000 0.0000 0.0000 0.0000 40.1781
#
#
#
# Elastic Compliance Matrix: (Units=1/GPa)
#
#
# Indices 1 2 3 4 5 6 
#
# 1 0.016299 -0.000988 -0.002874 0.000000 0.000000 0.000000
# 2 -0.000988 0.016545 -0.002118 0.000000 0.000000 0.000000
# 3 -0.002874 -0.002118 0.007617 0.000000 0.000000 0.000000
# 4 0.000000 0.000000 0.000000 0.061446 0.000000 0.000000
# 5 0.000000 0.000000 0.000000 0.000000 0.053323 0.000000
# 6 0.000000 0.000000 0.000000 0.000000 0.000000 0.024889
#
#
# Mechanical properties :
#
#
# Convention : Reuss Voigt Hill
#
# Bulk Modulus (GPa) = 35.08494 43.06835 39.07664
# Shear Modulus (GPa) = 24.80424 29.85586 27.33005
#
# Velocity S-wave (km/s) = 3.27071 3.58834 3.43320
# Velocity P-wave (km/s) = 5.42169 5.97851 5.70690
#
# Compressibility (1/GPa) = 0.02850226
#
# Stress axis : x y z
#
# Youngs Moduli (GPa) = 61.35360 60.44135 131.28565
#
# Poissons Ratio (x) = 0.05969 0.37734
# Poissons Ratio (y) = 0.06059 0.27801
# Poissons Ratio (z) = 0.17634 0.12799
#
# Static dielectric constant tensor:
#      x y z
#    x 2.005130 0.000000 0.000000 
#    y 0.000000 1.900460 0.000000 
#    z 0.000000 0.000000 1.838250 
# 
# From -- ./inp_files/20145.got.cif
#   From: 2010.05.17/outbox.cif.g08.bks.cpg/sg56_11_cif.got.tgz:20145.got - 2010.06.03 13:42:01.
