data_PCOD9431578
_publ_section_title
;
Structure prediction by ZEFSAII (Michael W. Deem and Ramdas Pophale) SiO2 
 PCOD9431578
Probable space group: P C C N
;
_chemical_formula_sum "Si O2"
_cell_formula_units_Z 60
_cell_length_a 26.832451
_cell_length_b 11.368387
_cell_length_c 8.976771
_cell_angle_alpha 90.000000
_cell_angle_beta 90.000000
_cell_angle_gamma 90.000000
_cell_volume 2738.289371
_symmetry_space_group_name_H-M "P C C N"
_symmetry_group_IT_number 56
_symmetry_cell_setting 'orthorhombic'
loop_
_space_group_symop_operation_xyz
x,y,z
1/2-x,1/2-y,z
1/2+x,-y,1/2-z
-x,1/2+y,1/2-z
-x,-y,-z
1/2+x,1/2+y,-z
1/2-x,y,1/2+z
x,1/2-y,1/2+z
loop_
_atom_site_type_symbol
_atom_site_label
_atom_site_fract_x
_atom_site_fract_y
_atom_site_fract_z
Si Si1 0.803695 0.809701 0.135322
Si Si2 0.589645 0.174694 0.610909
Si Si3 0.822018 0.454891 0.475570
Si Si4 0.647052 0.888341 0.942757
Si Si5 0.750000 0.250000 0.061494
Si Si6 0.020961 0.769301 0.156457
Si Si7 0.841047 0.396670 0.151047
Si Si8 0.970117 0.890723 0.432431
O O1 0.750000 0.750000 0.153054
O O2 0.840807 0.715495 0.060281
O O3 0.799772 0.922013 0.026516
O O4 0.823913 0.855135 0.293046
O O5 0.634761 0.084038 0.592280
O O6 0.557319 0.168241 0.461053
O O7 0.553739 0.171815 0.753584
O O8 0.614320 0.305136 0.620770
O O9 0.781182 0.350931 0.477508
O O10 0.845298 0.458899 0.310662
O O11 0.588494 0.903620 0.912167
O O12 0.663627 0.009629 0.019762
O O13 0.791486 0.318703 0.153413
O O14 0.996928 0.851566 0.280576
O O15 0.979019 0.710518 0.055393
O O16 0.000000 0.000000 0.500000
#
# Coordination Sequence:
#
# PCOD9431578 Si02
#       8
#     8   8   8   8   4   8   8   8
#     4  12  28  47  70 100 140 193 247 296 354 429
#     4  10  21  39  69 105 139 180 220 296 362 431
#     4  11  24  41  69 101 139 179 239 281 366 420
#     4  12  26  47  71  97 143 187 243 293 355 426
#     4  10  24  40  66 106 136 176 224 296 350 426
#     4  10  21  43  66 103 143 175 237 286 362 427
#     4  11  23  42  70  99 141 177 230 289 361 424
#     4  11  25  44  72 103 143 191 238 299 369 443
#
# _framework density 21.911490000000001
#
# number of rings (size 3 to 8) (size 9 to 14) (size 15 to 20)
#    0.000    1.067    1.333    4.800    3.733    4.267 
#    0.000    2.000    0.000    0.000    0.000    0.000 
#    0.000    0.000    0.000    0.000    0.000    0.000 
#
# Total GULP energy -335695.797648 kJ/mol
# GULP energy per Si atom -5594.929961 kJ/mol
# Density = 2.186162 g / cm^3
# Si number density = 21.911490 Si / 1000 Ang^3
#
#
#
# Elastic Constant Matrix: (Units=GPa)
#
#
# Indices 1 2 3 4 5 6 
#
# 1 121.0265 39.5772 24.3115 0.0000 0.0000 0.0000
# 2 39.5772 99.6319 32.5929 0.0000 0.0000 0.0000
# 3 24.3115 32.5929 89.6833 0.0000 0.0000 0.0000
# 4 0.0000 0.0000 0.0000 2.8249 0.0000 0.0000
# 5 0.0000 0.0000 0.0000 0.0000 -737.1709 0.0000
# 6 0.0000 0.0000 0.0000 0.0000 0.0000 23.3524
#
#
#
# Elastic Compliance Matrix: (Units=1/GPa)
#
#
# Indices 1 2 3 4 5 6 
#
# 1 0.009646 -0.003378 -0.001387 0.000000 0.000000 0.000000
# 2 -0.003378 0.012574 -0.003654 0.000000 0.000000 0.000000
# 3 -0.001387 -0.003654 0.012854 0.000000 0.000000 0.000000
# 4 0.000000 0.000000 0.000000 0.353998 0.000000 0.000000
# 5 0.000000 0.000000 0.000000 0.000000 -0.001357 0.000000
# 6 0.000000 0.000000 0.000000 0.000000 0.000000 0.042822
#
#
# Mechanical properties :
#
#
# Convention : Reuss Voigt Hill
#
# Bulk Modulus (GPa) = 54.83626 55.92274 55.37950
# Shear Modulus (GPa) = 11.02645 -127.94138 -58.45746
#
# Velocity S-wave (km/s) = 2.24571 -7.64963 -5.17077
# Velocity P-wave (km/s) = 5.63958 7.24189 3.21248
#
# Compressibility (1/GPa) = 0.01823611
#
# Stress axis : x y z
#
# Youngs Moduli (GPa) = 103.67069 79.52845 77.79460
#
# Poissons Ratio (x) = 0.26864 0.10792
# Poissons Ratio (y) = 0.35019 0.28426
# Poissons Ratio (z) = 0.14382 0.29060
#
# Static dielectric constant tensor:
#      x y z
#    x 1.806780 0.000000 0.000000 
#    y 0.000000 1.792250 0.000000 
#    z 0.000000 0.000000 1.788600 
# 
# From -- ./inp_files/4982.got.cif
#   From: 2010.05.17/outbox.cif.g08.bks.cpg/sg56_3_cif.got.tgz:4982.got - 2010.06.03 13:42:01.
