data_PCOD9431407
_publ_section_title
;
Structure prediction by ZEFSAII (Michael W. Deem and Ramdas Pophale) SiO2 
 PCOD9431407
Probable space group: P C C N
;
_chemical_formula_sum "Si O2"
_cell_formula_units_Z 48
_cell_length_a 16.703482
_cell_length_b 8.078834
_cell_length_c 14.328503
_cell_angle_alpha 90.000000
_cell_angle_beta 90.000000
_cell_angle_gamma 90.000000
_cell_volume 1933.554941
_symmetry_space_group_name_H-M "P C C N"
_symmetry_group_IT_number 56
_symmetry_cell_setting 'orthorhombic'
loop_
_space_group_symop_operation_xyz
x,y,z
1/2-x,1/2-y,z
1/2+x,-y,1/2-z
-x,1/2+y,1/2-z
-x,-y,-z
1/2+x,1/2+y,-z
1/2-x,y,1/2+z
x,1/2-y,1/2+z
loop_
_atom_site_type_symbol
_atom_site_label
_atom_site_fract_x
_atom_site_fract_y
_atom_site_fract_z
Si Si1 0.339033 0.816295 0.186886
Si Si2 0.178982 0.002480 0.976795
Si Si3 0.405063 0.773204 0.869836
Si Si4 0.631643 0.507691 0.484500
Si Si5 0.421754 0.166521 0.625202
Si Si6 0.337103 0.172777 0.289534
O O1 0.250000 0.750000 0.170528
O O2 0.383653 0.703389 0.261991
O O3 0.380559 0.860123 0.090396
O O4 0.335159 0.994078 0.239398
O O5 0.150737 0.136433 0.898759
O O6 0.163465 0.828747 0.924786
O O7 0.128325 0.025952 0.071605
O O8 0.272829 0.025516 0.997974
O O9 0.483000 0.657930 0.877956
O O10 0.411228 0.947737 0.921834
O O11 0.600486 0.670970 0.435293
O O12 0.395740 0.210827 0.730432
O O13 0.250000 0.250000 0.278837
#
# Coordination Sequence:
#
# PCOD9431407 Si02
#       6
#     8   8   8   8   8   8
#     4  10  21  38  60  87 117 155 206 256 305 368
#     4  11  22  41  65  89 119 163 213 256 303 370
#     4  11  23  39  60  90 126 160 200 256 318 374
#     4  11  22  41  65  89 119 163 213 256 303 370
#     4  11  23  39  60  90 126 160 200 256 318 374
#     4  10  21  38  60  87 117 155 206 256 305 368
#
# _framework density 24.824742000000001
#
# number of rings (size 3 to 8) (size 9 to 14) (size 15 to 20)
#    0.000    1.333    0.000    8.000    0.000    1.333 
#    0.000   18.333    0.000    0.000    0.000    0.000 
#    0.000    0.000    0.000    0.000    0.000    0.000 
#
# Total GULP energy -268778.837458 kJ/mol
# GULP energy per Si atom -5599.559114 kJ/mol
# Density = 2.476824 g / cm^3
# Si number density = 24.824742 Si / 1000 Ang^3
#
#
#
# Elastic Constant Matrix: (Units=GPa)
#
#
# Indices 1 2 3 4 5 6 
#
# 1 86.1474 -8.3832 -4.9814 0.0000 0.0000 0.0000
# 2 -8.3832 56.9027 25.0721 0.0000 0.0000 0.0000
# 3 -4.9814 25.0721 135.0863 0.0000 0.0000 0.0000
# 4 0.0000 0.0000 0.0000 6.3294 0.0000 0.0000
# 5 0.0000 0.0000 0.0000 0.0000 -19.1085 0.0000
# 6 0.0000 0.0000 0.0000 0.0000 0.0000 29.3263
#
#
#
# Elastic Compliance Matrix: (Units=1/GPa)
#
#
# Indices 1 2 3 4 5 6 
#
# 1 0.011779 0.001681 0.000122 0.000000 0.000000 0.000000
# 2 0.001681 0.019379 -0.003535 0.000000 0.000000 0.000000
# 3 0.000122 -0.003535 0.008063 0.000000 0.000000 0.000000
# 4 0.000000 0.000000 0.000000 0.157992 0.000000 0.000000
# 5 0.000000 0.000000 0.000000 0.000000 -0.052333 0.000000
# 6 0.000000 0.000000 0.000000 0.000000 0.000000 0.034099
#
#
# Mechanical properties :
#
#
# Convention : Reuss Voigt Hill
#
# Bulk Modulus (GPa) = 27.96508 33.50570 30.73539
# Shear Modulus (GPa) = 25.72530 21.07137 23.39834
#
# Velocity S-wave (km/s) = 3.22262 2.91659 3.07341
# Velocity P-wave (km/s) = 5.01363 4.98680 5.00023
#
# Compressibility (1/GPa) = 0.03575888
#
# Stress axis : x y z
#
# Youngs Moduli (GPa) = 84.89896 51.60212 124.01961
#
# Poissons Ratio (x) = -0.08677 -0.01516
# Poissons Ratio (y) = -0.14275 0.43838
# Poissons Ratio (z) = -0.01038 0.18240
#
# Static dielectric constant tensor:
#      x y z
#    x 1.907140 0.000000 0.000000 
#    y 0.000000 2.044680 0.000000 
#    z 0.000000 0.000000 1.975260 
# 
# From -- ./inp_files/12656.got.cif
#   From: 2010.05.17/outbox.cif.g08.bks.cpg/sg56_7_cif.got.tgz:12656.got - 2010.06.03 13:42:01.
