data_PCOD9431067
_publ_section_title
;
Structure prediction by ZEFSAII (Michael W. Deem and Ramdas Pophale) SiO2 
 PCOD9431067
Probable space group: P C C N
;
_chemical_formula_sum "Si O2"
_cell_formula_units_Z 48
_cell_length_a 8.949106
_cell_length_b 18.513591
_cell_length_c 14.410507
_cell_angle_alpha 90.000000
_cell_angle_beta 90.000000
_cell_angle_gamma 90.000000
_cell_volume 2387.534072
_symmetry_space_group_name_H-M "P C C N"
_symmetry_group_IT_number 56
_symmetry_cell_setting 'orthorhombic'
loop_
_space_group_symop_operation_xyz
x,y,z
1/2-x,1/2-y,z
1/2+x,-y,1/2-z
-x,1/2+y,1/2-z
-x,-y,-z
1/2+x,1/2+y,-z
1/2-x,y,1/2+z
x,1/2-y,1/2+z
loop_
_atom_site_type_symbol
_atom_site_label
_atom_site_fract_x
_atom_site_fract_y
_atom_site_fract_z
Si Si1 0.371912 0.584767 0.429132
Si Si2 0.876545 0.313314 0.548995
Si Si3 0.889812 0.578421 0.092382
Si Si4 0.139942 0.317717 0.406768
Si Si5 0.084372 0.837286 0.239315
Si Si6 0.078857 0.665592 0.237884
O O1 0.220256 0.615899 0.473348
O O2 0.354426 0.504896 0.387384
O O3 0.488689 0.581543 0.511541
O O4 0.425630 0.638187 0.346245
O O5 0.750000 0.250000 0.552243
O O6 0.938543 0.332324 0.651010
O O7 0.009100 0.295844 0.478425
O O8 0.748716 0.621634 0.053529
O O9 0.958318 0.620763 0.180805
O O10 0.250000 0.250000 0.383694
O O11 0.057094 0.358569 0.321584
O O12 0.078210 0.751267 0.219105
O O13 0.252936 0.860941 0.213586
#
# Coordination Sequence:
#
# PCOD9431067 Si02
#       6
#     8   8   8   8   8   8
#     4  10  23  45  67  89 132 179 217 260 326 400
#     4  11  22  42  68  92 128 177 226 261 317 398
#     4  11  24  42  63  98 135 169 210 273 333 382
#     4  12  25  37  63 100 133 165 216 278 328 379
#     4  10  21  38  64  93 121 169 217 260 318 386
#     4  10  20  40  65  92 122 168 217 261 316 386
#
# _framework density 20.104426
#
# number of rings (size 3 to 8) (size 9 to 14) (size 15 to 20)
#    0.000    1.333    5.000    2.000    2.333    4.667 
#    0.000    3.333    0.000    0.000    0.000    0.000 
#    0.000    0.000    0.000    0.000    0.000    0.000 
#
# Total GULP energy -267497.891846 kJ/mol
# GULP energy per Si atom -5572.872747 kJ/mol
# Density = 2.005867 g / cm^3
# Si number density = 20.104426 Si / 1000 Ang^3
#
#
#
# Elastic Constant Matrix: (Units=GPa)
#
#
# Indices 1 2 3 4 5 6 
#
# 1 75.8072 31.4421 34.9661 0.0000 0.0000 0.0000
# 2 31.4421 78.0006 19.8976 0.0000 0.0000 0.0000
# 3 34.9661 19.8976 77.6979 0.0000 0.0000 0.0000
# 4 0.0000 0.0000 0.0000 24.0644 0.0000 0.0000
# 5 0.0000 0.0000 0.0000 0.0000 -102.0627 0.0000
# 6 0.0000 0.0000 0.0000 0.0000 0.0000 19.4049
#
#
#
# Elastic Compliance Matrix: (Units=1/GPa)
#
#
# Indices 1 2 3 4 5 6 
#
# 1 0.018820 -0.005805 -0.006983 0.000000 0.000000 0.000000
# 2 -0.005805 0.015507 -0.001359 0.000000 0.000000 0.000000
# 3 -0.006983 -0.001359 0.016361 0.000000 0.000000 0.000000
# 4 0.000000 0.000000 0.000000 0.041555 0.000000 0.000000
# 5 0.000000 0.000000 0.000000 0.000000 -0.009798 0.000000
# 6 0.000000 0.000000 0.000000 0.000000 0.000000 0.051533
#
#
# Mechanical properties :
#
#
# Convention : Reuss Voigt Hill
#
# Bulk Modulus (GPa) = 44.65391 44.90191 44.77791
# Shear Modulus (GPa) = 29.45744 -2.03868 13.70938
#
# Velocity S-wave (km/s) = 3.83197 -1.00809 2.61417
# Velocity P-wave (km/s) = 6.46822 4.58561 5.60650
#
# Compressibility (1/GPa) = 0.02239445
#
# Stress axis : x y z
#
# Youngs Moduli (GPa) = 53.13514 64.48684 61.12166
#
# Poissons Ratio (x) = 0.37435 0.42680
# Poissons Ratio (y) = 0.30845 0.08305
# Poissons Ratio (z) = 0.37104 0.08762
#
# Static dielectric constant tensor:
#      x y z
#    x 1.749850 0.000000 0.000000 
#    y 0.000000 1.766080 0.000000 
#    z 0.000000 0.000000 1.752990 
# 
# From -- ./inp_files/10630.got.cif
#   From: 2010.05.17/outbox.cif.g08.bks.cpg/sg56_6_cif.got.tgz:10630.got - 2010.06.03 13:42:01.
