data_PCOD9431666
_publ_section_title
;
Structure prediction by ZEFSAII (Michael W. Deem and Ramdas Pophale) SiO2 
 PCOD9431666
Probable space group: P C C N
;
_chemical_formula_sum "Si O2"
_cell_formula_units_Z 60
_cell_length_a 18.815983
_cell_length_b 13.109483
_cell_length_c 10.607744
_cell_angle_alpha 90.000000
_cell_angle_beta 90.000000
_cell_angle_gamma 90.000000
_cell_volume 2616.588974
_symmetry_space_group_name_H-M "P C C N"
_symmetry_group_IT_number 56
_symmetry_cell_setting 'orthorhombic'
loop_
_space_group_symop_operation_xyz
x,y,z
1/2-x,1/2-y,z
1/2+x,-y,1/2-z
-x,1/2+y,1/2-z
-x,-y,-z
1/2+x,1/2+y,-z
1/2-x,y,1/2+z
x,1/2-y,1/2+z
loop_
_atom_site_type_symbol
_atom_site_label
_atom_site_fract_x
_atom_site_fract_y
_atom_site_fract_z
Si Si1 0.108856 0.236043 0.573079
Si Si2 0.687231 0.974544 0.942063
Si Si3 0.106277 0.044195 0.114170
Si Si4 0.028921 0.209538 0.827612
Si Si5 0.610433 0.160660 0.862162
Si Si6 0.786602 0.466836 0.205549
Si Si7 0.558102 0.030020 0.629259
Si Si8 0.250000 0.750000 0.239011
O O1 0.154810 0.135048 0.587299
O O2 0.144347 0.346866 0.595872
O O3 0.049167 0.229948 0.682819
O O4 0.081270 0.238885 0.429554
O O5 0.627671 0.065672 0.955676
O O6 0.736826 0.004479 0.824502
O O7 0.725498 0.972769 0.077193
O O8 0.022130 0.069582 0.112855
O O9 0.135237 0.991123 0.238699
O O10 0.108257 0.970735 0.993279
O O11 0.953580 0.257993 0.869903
O O12 0.042478 0.088563 0.839780
O O13 0.593821 0.096599 0.735663
O O14 0.682746 0.222230 0.846085
O O15 0.772233 0.348239 0.181466
#
# Coordination Sequence:
#
# PCOD9431666 Si02
#       8
#     8   8   8   8   8   8   8   4
#     4  11  23  43  68 106 137 186 239 296 365 430
#     4  11  27  46  71 102 142 189 241 302 365 437
#     4  10  22  41  68 100 141 183 239 286 361 433
#     4  11  23  40  70 102 144 183 237 300 365 429
#     4  11  23  44  68 104 143 184 237 299 357 434
#     4  11  26  48  71 103 142 189 242 303 362 444
#     4  10  21  40  68 101 138 191 227 294 363 430
#     4  10  26  46  70 102 140 188 238 288 368 438
#
# _framework density 22.930617999999999
#
# number of rings (size 3 to 8) (size 9 to 14) (size 15 to 20)
#    0.000    1.333    2.667    1.600    3.733    5.333 
#    0.000    1.333    0.000    0.000    0.000    0.000 
#    0.000    0.000    0.000    0.000    0.000    0.000 
#
# Total GULP energy -334924.037810 kJ/mol
# GULP energy per Si atom -5582.067297 kJ/mol
# Density = 2.287843 g / cm^3
# Si number density = 22.930618 Si / 1000 Ang^3
#
#
#
# Elastic Constant Matrix: (Units=GPa)
#
#
# Indices 1 2 3 4 5 6 
#
# 1 57.3969 24.6618 31.2079 0.0000 0.0000 0.0000
# 2 24.6618 99.2070 35.8278 0.0000 0.0000 0.0000
# 3 31.2079 35.8278 90.2011 0.0000 0.0000 0.0000
# 4 0.0000 0.0000 0.0000 25.5497 0.0000 0.0000
# 5 0.0000 0.0000 0.0000 0.0000 24.3170 0.0000
# 6 0.0000 0.0000 0.0000 0.0000 0.0000 38.9835
#
#
#
# Elastic Compliance Matrix: (Units=1/GPa)
#
#
# Indices 1 2 3 4 5 6 
#
# 1 0.022307 -0.003220 -0.006439 0.000000 0.000000 0.000000
# 2 -0.003220 0.012233 -0.003745 0.000000 0.000000 0.000000
# 3 -0.006439 -0.003745 0.014801 0.000000 0.000000 0.000000
# 4 0.000000 0.000000 0.000000 0.039139 0.000000 0.000000
# 5 0.000000 0.000000 0.000000 0.000000 0.041124 0.000000
# 6 0.000000 0.000000 0.000000 0.000000 0.000000 0.025652
#
#
# Mechanical properties :
#
#
# Convention : Reuss Voigt Hill
#
# Bulk Modulus (GPa) = 44.37724 47.80001 46.08862
# Shear Modulus (GPa) = 26.37481 28.11052 27.24266
#
# Velocity S-wave (km/s) = 3.39514 3.50508 3.45055
# Velocity P-wave (km/s) = 5.89611 6.10504 6.00148
#
# Compressibility (1/GPa) = 0.02253407
#
# Stress axis : x y z
#
# Youngs Moduli (GPa) = 44.82891 81.74749 67.56074
#
# Poissons Ratio (x) = 0.26322 0.43501
# Poissons Ratio (y) = 0.14435 0.25300
# Poissons Ratio (z) = 0.28865 0.30613
#
# Static dielectric constant tensor:
#      x y z
#    x 1.927350 0.000000 0.000000 
#    y 0.000000 1.888130 0.000000 
#    z 0.000000 0.000000 1.885280 
# 
# From -- ./inp_files/8686.got.cif
#   From: 2010.05.17/outbox.cif.g08.bks.cpg/sg56_5_cif.got.tgz:8686.got - 2010.06.03 13:42:01.
