data_PCOD9431069
_publ_section_title
;
Structure prediction by ZEFSAII (Michael W. Deem and Ramdas Pophale) SiO2 
 PCOD9431069
Probable space group: P C C N
;
_chemical_formula_sum "Si O2"
_cell_formula_units_Z 40
_cell_length_a 8.400886
_cell_length_b 11.986067
_cell_length_c 18.275849
_cell_angle_alpha 90.000000
_cell_angle_beta 90.000000
_cell_angle_gamma 90.000000
_cell_volume 1840.260708
_symmetry_space_group_name_H-M "P C C N"
_symmetry_group_IT_number 56
_symmetry_cell_setting 'orthorhombic'
loop_
_space_group_symop_operation_xyz
x,y,z
1/2-x,1/2-y,z
1/2+x,-y,1/2-z
-x,1/2+y,1/2-z
-x,-y,-z
1/2+x,1/2+y,-z
1/2-x,y,1/2+z
x,1/2-y,1/2+z
loop_
_atom_site_type_symbol
_atom_site_label
_atom_site_fract_x
_atom_site_fract_y
_atom_site_fract_z
Si Si1 0.529908 0.568054 0.573326
Si Si2 0.162164 0.422962 0.175952
Si Si3 0.061890 0.772402 0.144529
Si Si4 0.487834 0.203670 0.689280
Si Si5 0.645643 0.987143 0.655368
O O1 0.500000 0.500000 0.500000
O O2 0.389961 0.524002 0.626452
O O3 0.510182 0.701311 0.577346
O O4 0.702782 0.542445 0.606855
O O5 0.024511 0.330467 0.163589
O O6 0.326855 0.359441 0.165163
O O7 0.173763 0.461717 0.259278
O O8 0.250000 0.750000 0.146754
O O9 0.996445 0.720510 0.222146
O O10 0.999715 0.900261 0.138460
O O11 0.615775 0.119857 0.656190
#
# Coordination Sequence:
#
# PCOD9431069 Si02
#       5
#     8   8   8   8   8
#     4  12  26  45  65  99 142 181 224 283 351 410
#     4  10  20  40  65  97 134 171 226 278 328 402
#     4  11  23  41  69  99 135 175 229 285 342 405
#     4  10  21  37  69 102 124 169 232 285 325 388
#     4  11  21  40  70  97 133 178 231 275 334 402
#
# _framework density 21.736049999999999
#
# number of rings (size 3 to 8) (size 9 to 14) (size 15 to 20)
#    0.000    1.200    4.000    1.800    5.600    0.000 
#   10.800    2.000    0.000    0.000    0.000    0.000 
#    0.000    0.000    0.000    0.000    0.000    0.000 
#
# Total GULP energy -223130.561503 kJ/mol
# GULP energy per Si atom -5578.264038 kJ/mol
# Density = 2.168658 g / cm^3
# Si number density = 21.736050 Si / 1000 Ang^3
#
#
#
# Elastic Constant Matrix: (Units=GPa)
#
#
# Indices 1 2 3 4 5 6 
#
# 1 91.0930 1.1150 21.7815 0.0000 0.0000 0.0000
# 2 1.1150 87.8335 19.7773 0.0000 0.0000 0.0000
# 3 21.7815 19.7773 54.3215 0.0000 0.0000 0.0000
# 4 0.0000 0.0000 0.0000 -33.9714 0.0000 0.0000
# 5 0.0000 0.0000 0.0000 0.0000 19.6624 0.0000
# 6 0.0000 0.0000 0.0000 0.0000 0.0000 34.2494
#
#
#
# Elastic Compliance Matrix: (Units=1/GPa)
#
#
# Indices 1 2 3 4 5 6 
#
# 1 0.012227 0.001033 -0.005279 0.000000 0.000000 0.000000
# 2 0.001033 0.012489 -0.004961 0.000000 0.000000 0.000000
# 3 -0.005279 -0.004961 0.022332 0.000000 0.000000 0.000000
# 4 0.000000 0.000000 0.000000 -0.029437 0.000000 0.000000
# 5 0.000000 0.000000 0.000000 0.000000 0.050859 0.000000
# 6 0.000000 0.000000 0.000000 0.000000 0.000000 0.029198
#
#
# Mechanical properties :
#
#
# Convention : Reuss Voigt Hill
#
# Bulk Modulus (GPa) = 34.92293 35.39952 35.16123
# Shear Modulus (GPa) = 39.80019 16.69301 28.24660
#
# Velocity S-wave (km/s) = 4.28374 2.77427 3.60881
# Velocity P-wave (km/s) = 6.36938 5.15592 5.79450
#
# Compressibility (1/GPa) = 0.02863448
#
# Stress axis : x y z
#
# Youngs Moduli (GPa) = 81.78316 80.06905 44.77858
#
# Poissons Ratio (x) = -0.08275 0.23639
# Poissons Ratio (y) = -0.08452 0.22217
# Poissons Ratio (z) = 0.43175 0.39726
#
# Static dielectric constant tensor:
#      x y z
#    x 1.838470 0.000000 0.000000 
#    y 0.000000 1.869600 0.000000 
#    z 0.000000 0.000000 1.768890 
# 
# From -- ./inp_files/14432.got.cif
#   From: 2010.05.17/outbox.cif.g08.bks.cpg/sg56_8_cif.got.tgz:14432.got - 2010.06.03 13:42:01.
