data_PCOD9431822
_publ_section_title
;
Structure prediction by ZEFSAII (Michael W. Deem and Ramdas Pophale) SiO2 
 PCOD9431822
Probable space group: P C C N
;
_chemical_formula_sum "Si O2"
_cell_formula_units_Z 32
_cell_length_a 8.169816
_cell_length_b 10.345195
_cell_length_c 14.793308
_cell_angle_alpha 90.000000
_cell_angle_beta 90.000000
_cell_angle_gamma 90.000000
_cell_volume 1250.305830
_symmetry_space_group_name_H-M "P C C N"
_symmetry_group_IT_number 56
_symmetry_cell_setting 'orthorhombic'
loop_
_space_group_symop_operation_xyz
x,y,z
1/2-x,1/2-y,z
1/2+x,-y,1/2-z
-x,1/2+y,1/2-z
-x,-y,-z
1/2+x,1/2+y,-z
1/2-x,y,1/2+z
x,1/2-y,1/2+z
loop_
_atom_site_type_symbol
_atom_site_label
_atom_site_fract_x
_atom_site_fract_y
_atom_site_fract_z
Si Si1 0.674330 0.428248 0.238694
Si Si2 0.997638 0.828040 0.314416
Si Si3 0.153198 0.135165 0.488483
Si Si4 0.709458 0.388257 0.439543
O O1 0.605002 0.572999 0.250388
O O2 0.538121 0.317147 0.219830
O O3 0.825796 0.398467 0.173072
O O4 0.758868 0.397095 0.335877
O O5 0.907308 0.822040 0.411035
O O6 0.250000 0.250000 0.443566
O O7 0.987640 0.102159 0.436777
O O8 0.266961 0.011652 0.505520
O O9 0.750000 0.250000 0.478810
#
# Coordination Sequence:
#
# PCOD9431822 Si02
#       4
#     8   8   8   8
#     4  10  22  40  59  93 120 155 201 247 303 362
#     4  10  22  39  61  89 122 152 202 246 303 361
#     4  10  24  41  61  90 120 160 206 248 299 361
#     4  10  21  43  60  86 123 154 203 253 293 364
#
# _framework density 25.593734999999999
#
# number of rings (size 3 to 8) (size 9 to 14) (size 15 to 20)
#    0.000    2.000    2.500    0.000   10.500    1.000 
#   13.500    0.000    0.000    0.000    0.000    0.000 
#    0.000    0.000    0.000    0.000    0.000    0.000 
#
# Total GULP energy -178922.692968 kJ/mol
# GULP energy per Si atom -5591.334155 kJ/mol
# Density = 2.553548 g / cm^3
# Si number density = 25.593735 Si / 1000 Ang^3
#
#
#
# Elastic Constant Matrix: (Units=GPa)
#
#
# Indices 1 2 3 4 5 6 
#
# 1 58.4717 19.7055 -3.8414 0.0000 0.0000 0.0000
# 2 19.7055 108.4423 -1.2559 0.0000 0.0000 0.0000
# 3 -3.8414 -1.2559 61.5847 0.0000 0.0000 0.0000
# 4 0.0000 0.0000 0.0000 14.8623 0.0000 0.0000
# 5 0.0000 0.0000 0.0000 0.0000 3007.9175 0.0000
# 6 0.0000 0.0000 0.0000 0.0000 0.0000 56.4717
#
#
#
# Elastic Compliance Matrix: (Units=1/GPa)
#
#
# Indices 1 2 3 4 5 6 
#
# 1 0.018289 -0.003311 0.001073 0.000000 0.000000 0.000000
# 2 -0.003311 0.009823 -0.000006 0.000000 0.000000 0.000000
# 3 0.001073 -0.000006 0.016305 0.000000 0.000000 0.000000
# 4 0.000000 0.000000 0.000000 0.067284 0.000000 0.000000
# 5 0.000000 0.000000 0.000000 0.000000 0.000332 0.000000
# 6 0.000000 0.000000 0.000000 0.000000 0.000000 0.017708
#
#
# Mechanical properties :
#
#
# Convention : Reuss Voigt Hill
#
# Bulk Modulus (GPa) = 25.04470 28.63502 26.83986
# Shear Modulus (GPa) = 33.88957 630.10968 331.99963
#
# Velocity S-wave (km/s) = 3.64281 15.70768 11.40179
# Velocity P-wave (km/s) = 5.24406 18.44418 13.55891
#
# Compressibility (1/GPa) = 0.03992861
#
# Stress axis : x y z
#
# Youngs Moduli (GPa) = 54.67891 101.80133 61.33237
#
# Poissons Ratio (x) = 0.33705 -0.06582
# Poissons Ratio (y) = 0.18103 0.00038
# Poissons Ratio (z) = -0.05868 0.00063
#
# Static dielectric constant tensor:
#      x y z
#    x 1.988210 0.000000 0.000000 
#    y 0.000000 2.116920 0.000000 
#    z 0.000000 0.000000 1.986370 
# 
# From -- ./inp_files/10048.got.cif
#   From: 2010.05.17/outbox.cif.g08.bks.cpg/sg56_6_cif.got.tgz:10048.got - 2010.06.03 13:42:01.
