data_PCOD9431025
_publ_section_title
;
Structure prediction by ZEFSAII (Michael W. Deem and Ramdas Pophale) SiO2 
 PCOD9431025
Probable space group: P C C N
;
_chemical_formula_sum "Si O2"
_cell_formula_units_Z 52
_cell_length_a 7.663323
_cell_length_b 19.150776
_cell_length_c 16.948951
_cell_angle_alpha 90.000000
_cell_angle_beta 90.000000
_cell_angle_gamma 90.000000
_cell_volume 2487.404018
_symmetry_space_group_name_H-M "P C C N"
_symmetry_group_IT_number 56
_symmetry_cell_setting 'orthorhombic'
loop_
_space_group_symop_operation_xyz
x,y,z
1/2-x,1/2-y,z
1/2+x,-y,1/2-z
-x,1/2+y,1/2-z
-x,-y,-z
1/2+x,1/2+y,-z
1/2-x,y,1/2+z
x,1/2-y,1/2+z
loop_
_atom_site_type_symbol
_atom_site_label
_atom_site_fract_x
_atom_site_fract_y
_atom_site_fract_z
Si Si1 0.877359 0.163942 0.785979
Si Si2 0.969641 0.299426 0.703174
Si Si3 0.641940 0.937447 0.500356
Si Si4 0.750000 0.250000 0.421852
Si Si5 0.660898 0.565989 0.827118
Si Si6 0.053637 0.278147 0.528563
Si Si7 0.138261 0.461761 0.325593
O O1 0.985005 0.233501 0.761168
O O2 0.714775 0.163560 0.724964
O O3 0.784775 0.183309 0.867598
O O4 0.001530 0.099027 0.800250
O O5 0.126638 0.354863 0.700874
O O6 0.973160 0.270639 0.615032
O O7 0.743792 0.941000 0.415241
O O8 0.557651 0.860342 0.493697
O O9 0.723036 0.942676 0.589034
O O10 0.500000 0.000000 0.500000
O O11 0.576431 0.261367 0.471260
O O12 0.746531 0.529171 0.752255
O O13 0.472467 0.531410 0.838023
O O14 0.250000 0.250000 0.526098
#
# Coordination Sequence:
#
# PCOD9431025 Si02
#       7
#     8   8   8   4   8   8   8
#     4  10  21  37  60  88 125 165 209 267 336 374
#     4   9  21  38  56  89 127 159 207 270 318 386
#     4   9  21  41  62  88 126 172 210 273 328 384
#     4  10  20  40  56  90 126 166 206 272 320 400
#     4  10  22  38  64  87 124 170 217 263 330 396
#     4  11  22  38  65  92 126 173 220 267 337 390
#     4  11  21  40  65  89 126 170 219 266 329 397
#
# _framework density 20.905328999999998
#
# number of rings (size 3 to 8) (size 9 to 14) (size 15 to 20)
#    0.000    2.154    1.538    1.846    4.308    2.462 
#    0.000    0.769    0.000    0.000    0.000    0.000 
#    0.000    0.000    0.000    0.000    0.000    0.000 
#
# Total GULP energy -289535.814965 kJ/mol
# GULP energy per Si atom -5567.996442 kJ/mol
# Density = 2.085775 g / cm^3
# Si number density = 20.905329 Si / 1000 Ang^3
#
#
#
# Elastic Constant Matrix: (Units=GPa)
#
#
# Indices 1 2 3 4 5 6 
#
# 1 50.8563 -4.7694 47.4270 0.0000 0.0000 0.0000
# 2 -4.7694 71.5984 5.5794 0.0000 0.0000 0.0000
# 3 47.4270 5.5794 173.1198 0.0000 0.0000 0.0000
# 4 0.0000 0.0000 0.0000 1.3170 0.0000 0.0000
# 5 0.0000 0.0000 0.0000 0.0000 74.4158 0.0000
# 6 0.0000 0.0000 0.0000 0.0000 0.0000 27.4091
#
#
#
# Elastic Compliance Matrix: (Units=1/GPa)
#
#
# Indices 1 2 3 4 5 6 
#
# 1 0.026804 0.002364 -0.007419 0.000000 0.000000 0.000000
# 2 0.002364 0.014210 -0.001106 0.000000 0.000000 0.000000
# 3 -0.007419 -0.001106 0.007845 0.000000 0.000000 0.000000
# 4 0.000000 0.000000 0.000000 0.759312 0.000000 0.000000
# 5 0.000000 0.000000 0.000000 0.000000 0.013438 0.000000
# 6 0.000000 0.000000 0.000000 0.000000 0.000000 0.036484
#
#
# Mechanical properties :
#
#
# Convention : Reuss Voigt Hill
#
# Bulk Modulus (GPa) = 27.36985 43.56096 35.46540
# Shear Modulus (GPa) = 5.66512 37.11753 21.39132
#
# Velocity S-wave (km/s) = 1.64796 4.21825 3.20229
# Velocity P-wave (km/s) = 4.09167 6.67887 5.53846
#
# Compressibility (1/GPa) = 0.03653655
#
# Stress axis : x y z
#
# Youngs Moduli (GPa) = 37.30804 70.37108 127.47765
#
# Poissons Ratio (x) = -0.16633 0.94579
# Poissons Ratio (y) = -0.08818 0.14093
# Poissons Ratio (z) = 0.27680 0.07780
#
# Static dielectric constant tensor:
#      x y z
#    x 1.745390 0.000000 0.000000 
#    y 0.000000 1.815620 0.000000 
#    z 0.000000 0.000000 1.837440 
# 
# From -- ./inp_files/10813.got.cif
#   From: 2010.05.17/outbox.cif.g08.bks.cpg/sg56_6_cif.got.tgz:10813.got - 2010.06.03 13:42:01.
