data_PCOD9431917
_publ_section_title
;
Structure prediction by ZEFSAII (Michael W. Deem and Ramdas Pophale) SiO2 
 PCOD9431917
Probable space group: P C C N
;
_chemical_formula_sum "Si O2"
_cell_formula_units_Z 60
_cell_length_a 21.788153
_cell_length_b 13.304134
_cell_length_c 9.362504
_cell_angle_alpha 90.000000
_cell_angle_beta 90.000000
_cell_angle_gamma 90.000000
_cell_volume 2713.932507
_symmetry_space_group_name_H-M "P C C N"
_symmetry_group_IT_number 56
_symmetry_cell_setting 'orthorhombic'
loop_
_space_group_symop_operation_xyz
x,y,z
1/2-x,1/2-y,z
1/2+x,-y,1/2-z
-x,1/2+y,1/2-z
-x,-y,-z
1/2+x,1/2+y,-z
1/2-x,y,1/2+z
x,1/2-y,1/2+z
loop_
_atom_site_type_symbol
_atom_site_label
_atom_site_fract_x
_atom_site_fract_y
_atom_site_fract_z
Si Si1 0.496890 0.437685 0.284748
Si Si2 0.970442 0.773740 0.905760
Si Si3 0.750000 0.750000 0.887945
Si Si4 0.138044 0.374338 0.144292
Si Si5 0.303883 0.035356 0.582466
Si Si6 0.578249 0.950984 0.579969
Si Si7 0.194189 0.523051 0.911797
Si Si8 0.428403 0.619583 0.438878
O O1 0.460285 0.339298 0.237501
O O2 0.528772 0.471012 0.137108
O O3 0.457418 0.530532 0.341720
O O4 0.547337 0.409279 0.402931
O O5 0.922750 0.682871 0.903737
O O6 0.037745 0.724329 0.905229
O O7 0.953185 0.846038 0.036981
O O8 0.807951 0.701238 0.810512
O O9 0.782477 0.849573 0.956678
O O10 0.121257 0.437183 0.282134
O O11 0.161309 0.438850 0.010958
O O12 0.374945 0.019864 0.544327
O O13 0.295716 0.015485 0.750861
O O14 0.259253 0.963870 0.490570
O O15 0.144578 0.613168 0.918423
#
# Coordination Sequence:
#
# PCOD9431917 Si02
#       8
#     8   8   4   8   8   8   8   8
#     4  11  24  44  65 100 141 183 234 288 343 421
#     4  12  24  40  69 101 142 186 235 282 349 419
#     4  10  22  36  56  96 132 176 218 274 342 428
#     4  11  22  39  61  93 143 177 223 274 345 421
#     4  11  24  39  68  96 138 180 229 288 359 420
#     4  12  23  42  64 103 139 181 228 288 340 420
#     4  11  24  43  65  99 135 184 230 286 349 425
#     4  11  23  44  69  97 142 192 227 286 361 412
#
# _framework density 22.108139999999999
#
# number of rings (size 3 to 8) (size 9 to 14) (size 15 to 20)
#    0.000    0.800    4.000    4.400    1.867    2.667 
#    0.000    0.000    0.000    0.800    0.000    0.000 
#    0.000    0.000    0.000    0.000    0.000    0.000 
#
# Total GULP energy -335204.483761 kJ/mol
# GULP energy per Si atom -5586.741396 kJ/mol
# Density = 2.205782 g / cm^3
# Si number density = 22.108140 Si / 1000 Ang^3
#
#
#
# Elastic Constant Matrix: (Units=GPa)
#
#
# Indices 1 2 3 4 5 6 
#
# 1 67.0746 18.4769 12.7947 0.0000 0.0000 0.0000
# 2 18.4769 25.5599 20.3901 0.0000 0.0000 0.0000
# 3 12.7947 20.3901 124.7635 0.0000 0.0000 0.0000
# 4 0.0000 0.0000 0.0000 28.0933 0.0000 0.0000
# 5 0.0000 0.0000 0.0000 0.0000 31.9095 0.0000
# 6 0.0000 0.0000 0.0000 0.0000 0.0000 40.8405
#
#
#
# Elastic Compliance Matrix: (Units=1/GPa)
#
#
# Indices 1 2 3 4 5 6 
#
# 1 0.018628 -0.013732 0.000334 0.000000 0.000000 0.000000
# 2 -0.013732 0.055113 -0.007599 0.000000 0.000000 0.000000
# 3 0.000334 -0.007599 0.009223 0.000000 0.000000 0.000000
# 4 0.000000 0.000000 0.000000 0.035596 0.000000 0.000000
# 5 0.000000 0.000000 0.000000 0.000000 0.031339 0.000000
# 6 0.000000 0.000000 0.000000 0.000000 0.000000 0.024486
#
#
# Mechanical properties :
#
#
# Convention : Reuss Voigt Hill
#
# Bulk Modulus (GPa) = 24.40867 35.63570 30.02219
# Shear Modulus (GPa) = 21.73595 31.21772 26.47683
#
# Velocity S-wave (km/s) = 3.13895 3.76180 3.46440
# Velocity P-wave (km/s) = 4.91954 5.91794 5.44168
#
# Compressibility (1/GPa) = 0.04096905
#
# Stress axis : x y z
#
# Youngs Moduli (GPa) = 53.68294 18.14468 108.42715
#
# Poissons Ratio (x) = 0.24917 -0.03621
# Poissons Ratio (y) = 0.73719 0.82391
# Poissons Ratio (z) = -0.01793 0.13788
#
# Static dielectric constant tensor:
#      x y z
#    x 1.902000 0.000000 0.000000 
#    y 0.000000 1.841550 0.000000 
#    z 0.000000 0.000000 1.867850 
# 
# From -- ./inp_files/4794.got.cif
#   From: 2010.05.17/outbox.cif.g08.bks.cpg/sg56_3_cif.got.tgz:4794.got - 2010.06.03 13:42:01.
