data_PCOD9431216
_publ_section_title
;
Structure prediction by ZEFSAII (Michael W. Deem and Ramdas Pophale) SiO2 
 PCOD9431216
Probable space group: P C C N
;
_chemical_formula_sum "Si O2"
_cell_formula_units_Z 48
_cell_length_a 5.857944
_cell_length_b 24.643230
_cell_length_c 14.540186
_cell_angle_alpha 90.000000
_cell_angle_beta 90.000000
_cell_angle_gamma 90.000000
_cell_volume 2099.001786
_symmetry_space_group_name_H-M "P C C N"
_symmetry_group_IT_number 56
_symmetry_cell_setting 'orthorhombic'
loop_
_space_group_symop_operation_xyz
x,y,z
1/2-x,1/2-y,z
1/2+x,-y,1/2-z
-x,1/2+y,1/2-z
-x,-y,-z
1/2+x,1/2+y,-z
1/2-x,y,1/2+z
x,1/2-y,1/2+z
loop_
_atom_site_type_symbol
_atom_site_label
_atom_site_fract_x
_atom_site_fract_y
_atom_site_fract_z
Si Si1 0.610142 0.912543 0.007660
Si Si2 0.532116 0.455367 0.207395
Si Si3 0.737180 0.479493 0.400310
Si Si4 0.250000 0.750000 0.334549
Si Si5 0.750000 0.750000 0.236352
Si Si6 0.865462 0.366078 0.150846
Si Si7 0.697135 0.629138 0.190296
O O1 0.362456 0.925794 0.053975
O O2 0.776084 0.891722 0.086749
O O3 0.568552 0.873164 0.922181
O O4 0.689523 0.969329 0.964979
O O5 0.604557 0.482625 0.302997
O O6 0.482474 0.505904 0.139982
O O7 0.708735 0.418930 0.150937
O O8 0.349022 0.410374 0.243993
O O9 0.503802 0.745810 0.287999
O O10 0.240026 0.689470 0.376088
O O11 0.775914 0.691966 0.186796
O O12 0.956311 0.367917 0.256434
#
# Coordination Sequence:
#
# PCOD9431216 Si02
#       7
#     8   8   8   4   4   8   8
#     4  10  22  43  63 101 132 176 225 285 334 425
#     4  11  21  41  65  94 131 188 212 287 338 426
#     4  10  22  39  64  94 136 171 233 269 348 407
#     4  10  22  40  76 100 136 182 232 280 358 414
#     4  10  20  44  70 102 130 184 222 290 346 422
#     4  11  22  43  69  99 139 178 229 284 351 415
#     4  10  22  42  67  93 137 176 230 277 353 409
#
# _framework density 22.868010999999999
#
# number of rings (size 3 to 8) (size 9 to 14) (size 15 to 20)
#    0.000    1.667    3.333    1.000    0.000    0.667 
#    6.000    5.833    0.000    0.000    0.000    0.000 
#    0.000    0.000    0.000    0.000    0.000    0.000 
#
# Total GULP energy -267216.953986 kJ/mol
# GULP energy per Si atom -5567.019875 kJ/mol
# Density = 2.281596 g / cm^3
# Si number density = 22.868011 Si / 1000 Ang^3
#
#
#
# Elastic Constant Matrix: (Units=GPa)
#
#
# Indices 1 2 3 4 5 6 
#
# 1 43.3600 10.0198 18.6231 0.0000 0.0000 0.0000
# 2 10.0198 94.8047 22.2392 0.0000 0.0000 0.0000
# 3 18.6231 22.2392 102.8285 0.0000 0.0000 0.0000
# 4 0.0000 0.0000 0.0000 2.4423 0.0000 0.0000
# 5 0.0000 0.0000 0.0000 0.0000 22.2176 0.0000
# 6 0.0000 0.0000 0.0000 0.0000 0.0000 37.5481
#
#
#
# Elastic Compliance Matrix: (Units=1/GPa)
#
#
# Indices 1 2 3 4 5 6 
#
# 1 0.025260 -0.001682 -0.004211 0.000000 0.000000 0.000000
# 2 -0.001682 0.011224 -0.002123 0.000000 0.000000 0.000000
# 3 -0.004211 -0.002123 0.010947 0.000000 0.000000 0.000000
# 4 0.000000 0.000000 0.000000 0.409451 0.000000 0.000000
# 5 0.000000 0.000000 0.000000 0.000000 0.045009 0.000000
# 6 0.000000 0.000000 0.000000 0.000000 0.000000 0.026633
#
#
# Mechanical properties :
#
#
# Convention : Reuss Voigt Hill
#
# Bulk Modulus (GPa) = 31.84818 38.08416 34.96617
# Shear Modulus (GPa) = 9.00868 25.11567 17.06217
#
# Velocity S-wave (km/s) = 1.98695 3.31764 2.73447
# Velocity P-wave (km/s) = 4.38419 5.60051 5.02926
#
# Compressibility (1/GPa) = 0.03139897
#
# Stress axis : x y z
#
# Youngs Moduli (GPa) = 39.58823 89.09701 91.35176
#
# Poissons Ratio (x) = 0.14985 0.38469
# Poissons Ratio (y) = 0.06658 0.19392
# Poissons Ratio (z) = 0.16671 0.18914
#
# Static dielectric constant tensor:
#      x y z
#    x 2.076510 0.000000 0.000000 
#    y 0.000000 1.924930 0.000000 
#    z 0.000000 0.000000 1.876540 
# 
# From -- ./inp_files/9732.got.cif
#   From: 2010.05.17/outbox.cif.g08.bks.cpg/sg56_5_cif.got.tgz:9732.got - 2010.06.03 13:42:01.
