data_PCOD9431075
_publ_section_title
;
Structure prediction by ZEFSAII (Michael W. Deem and Ramdas Pophale) SiO2 
 PCOD9431075
Probable space group: P C C N
;
_chemical_formula_sum "Si O2"
_cell_formula_units_Z 56
_cell_length_a 11.497123
_cell_length_b 15.821136
_cell_length_c 15.758366
_cell_angle_alpha 90.000000
_cell_angle_beta 90.000000
_cell_angle_gamma 90.000000
_cell_volume 2866.408114
_symmetry_space_group_name_H-M "P C C N"
_symmetry_group_IT_number 56
_symmetry_cell_setting 'orthorhombic'
loop_
_space_group_symop_operation_xyz
x,y,z
1/2-x,1/2-y,z
1/2+x,-y,1/2-z
-x,1/2+y,1/2-z
-x,-y,-z
1/2+x,1/2+y,-z
1/2-x,y,1/2+z
x,1/2-y,1/2+z
loop_
_atom_site_type_symbol
_atom_site_label
_atom_site_fract_x
_atom_site_fract_y
_atom_site_fract_z
Si Si1 0.487542 0.902256 0.245438
Si Si2 0.962890 0.872550 0.032041
Si Si3 0.918534 0.542916 0.879326
Si Si4 0.142099 0.538819 0.408123
Si Si5 0.879652 0.269081 0.884835
Si Si6 0.878544 0.098142 0.523552
Si Si7 0.193516 0.342321 0.635976
O O1 0.401078 0.917295 0.323345
O O2 0.442247 0.832066 0.180346
O O3 0.606021 0.871156 0.289412
O O4 0.482060 0.991854 0.195945
O O5 0.028324 0.803836 0.090225
O O6 0.889578 0.939766 0.087485
O O7 0.878220 0.843431 0.954104
O O8 0.069131 0.921333 0.986013
O O9 0.797194 0.588831 0.862968
O O10 0.007699 0.609145 0.919779
O O11 0.898229 0.472123 0.951109
O O12 0.274919 0.561187 0.421528
O O13 0.750000 0.250000 0.850240
O O14 0.853121 0.317158 0.973135
O O15 0.250000 0.250000 0.648125
#
# Coordination Sequence:
#
# PCOD9431075 Si02
#       7
#     8   8   8   8   8   8   8
#     4  10  26  41  61  96 133 169 217 263 343 389
#     4  10  21  40  70  92 120 175 222 264 333 395
#     4  10  22  41  65  90 128 169 214 273 322 394
#     4  10  20  40  66  94 122 168 223 269 318 411
#     4  11  22  43  64  95 135 170 213 279 329 395
#     4  10  20  40  67  94 120 169 221 265 320 393
#     4  11  23  44  63  96 135 168 217 284 331 403
#
# _framework density 19.536646000000001
#
# number of rings (size 3 to 8) (size 9 to 14) (size 15 to 20)
#    0.000    1.714    2.857    0.857    2.000    1.143 
#    7.714    0.000    0.000    0.000    0.000    0.000 
#    0.000    0.000    0.000    0.000    0.000    0.000 
#
# Total GULP energy -312292.627607 kJ/mol
# GULP energy per Si atom -5576.654064 kJ/mol
# Density = 1.949218 g / cm^3
# Si number density = 19.536646 Si / 1000 Ang^3
#
#
#
# Elastic Constant Matrix: (Units=GPa)
#
#
# Indices 1 2 3 4 5 6 
#
# 1 132.5931 43.9008 48.2692 0.0000 0.0000 0.0000
# 2 43.9008 85.3038 38.5098 0.0000 0.0000 0.0000
# 3 48.2692 38.5098 73.2007 0.0000 0.0000 0.0000
# 4 0.0000 0.0000 0.0000 20.0839 0.0000 0.0000
# 5 0.0000 0.0000 0.0000 0.0000 19.3943 0.0000
# 6 0.0000 0.0000 0.0000 0.0000 0.0000 29.2787
#
#
#
# Elastic Compliance Matrix: (Units=1/GPa)
#
#
# Indices 1 2 3 4 5 6 
#
# 1 0.010471 -0.002979 -0.005337 0.000000 0.000000 0.000000
# 2 -0.002979 0.016222 -0.006569 0.000000 0.000000 0.000000
# 3 -0.005337 -0.006569 0.020637 0.000000 0.000000 0.000000
# 4 0.000000 0.000000 0.000000 0.049791 0.000000 0.000000
# 5 0.000000 0.000000 0.000000 0.000000 0.051561 0.000000
# 6 0.000000 0.000000 0.000000 0.000000 0.000000 0.034155
#
#
# Mechanical properties :
#
#
# Convention : Reuss Voigt Hill
#
# Bulk Modulus (GPa) = 56.95634 61.38412 59.17023
# Shear Modulus (GPa) = 22.88725 24.44591 23.66658
#
# Velocity S-wave (km/s) = 3.42644 3.54119 3.48428
# Velocity P-wave (km/s) = 6.69857 6.94321 6.82199
#
# Compressibility (1/GPa) = 0.01755731
#
# Stress axis : x y z
#
# Youngs Moduli (GPa) = 95.49820 61.64520 48.45729
#
# Poissons Ratio (x) = 0.18367 0.25864
# Poissons Ratio (y) = 0.28453 0.31834
# Poissons Ratio (z) = 0.50972 0.40497
#
# Static dielectric constant tensor:
#      x y z
#    x 1.675020 0.000000 0.000000 
#    y 0.000000 1.707040 0.000000 
#    z 0.000000 0.000000 1.681010 
# 
# From -- ./inp_files/11669.got.cif
#   From: 2010.05.17/outbox.cif.g08.bks.cpg/sg56_6_cif.got.tgz:11669.got - 2010.06.03 13:42:01.
