data_PCOD9431118
_publ_section_title
;
Structure prediction by ZEFSAII (Michael W. Deem and Ramdas Pophale) SiO2 
 PCOD9431118
Probable space group: P C C N
;
_chemical_formula_sum "Si O2"
_cell_formula_units_Z 64
_cell_length_a 17.430259
_cell_length_b 13.616891
_cell_length_c 13.203698
_cell_angle_alpha 90.000000
_cell_angle_beta 90.000000
_cell_angle_gamma 90.000000
_cell_volume 3133.844072
_symmetry_space_group_name_H-M "P C C N"
_symmetry_group_IT_number 56
_symmetry_cell_setting 'orthorhombic'
loop_
_space_group_symop_operation_xyz
x,y,z
1/2-x,1/2-y,z
1/2+x,-y,1/2-z
-x,1/2+y,1/2-z
-x,-y,-z
1/2+x,1/2+y,-z
1/2-x,y,1/2+z
x,1/2-y,1/2+z
loop_
_atom_site_type_symbol
_atom_site_label
_atom_site_fract_x
_atom_site_fract_y
_atom_site_fract_z
Si Si1 0.408484 0.869436 0.551133
Si Si2 0.813770 0.823759 0.102734
Si Si3 0.795036 0.536949 0.209567
Si Si4 0.474504 0.255282 0.585407
Si Si5 0.069871 0.154440 0.388418
Si Si6 0.125391 0.073618 0.089583
Si Si7 0.704975 0.148326 0.630864
Si Si8 0.072653 0.726564 0.230213
O O1 0.473729 0.812600 0.488742
O O2 0.335974 0.873847 0.476068
O O3 0.394219 0.804458 0.650585
O O4 0.430817 0.980580 0.579427
O O5 0.750000 0.750000 0.056841
O O6 0.769738 0.880689 0.190117
O O7 0.885269 0.757130 0.134169
O O8 0.839490 0.900625 0.018749
O O9 0.872129 0.571093 0.149974
O O10 0.814720 0.537381 0.327318
O O11 0.762144 0.436283 0.166695
O O12 0.443257 0.339155 0.510219
O O13 0.410984 0.177431 0.623327
O O14 0.526359 0.283130 0.680561
O O15 0.989346 0.159447 0.329611
O O16 0.750000 0.250000 0.622063
O O17 0.637845 0.163965 0.714085
#
# Coordination Sequence:
#
# PCOD9431118 Si02
#       8
#     8   8   8   8   8   8   8   8
#     4  10  21  37  63  84 123 163 213 262 313 376
#     4   9  20  36  56  92 129 165 203 259 320 374
#     4  11  21  38  60  93 130 164 212 260 314 386
#     4   9  19  36  64  90 124 158 204 266 318 378
#     4   9  19  38  63  91 129 160 203 267 318 379
#     4  11  19  35  62  90 120 166 210 250 315 385
#     4  11  24  41  61  87 129 169 218 267 311 370
#     4  10  20  41  62  93 120 168 215 252 320 369
#
# _framework density 20.422203
#
# number of rings (size 3 to 8) (size 9 to 14) (size 15 to 20)
#    0.000    2.000    2.500    1.125    0.000    3.000 
#    2.250    0.000    2.750    3.000    0.000    0.000 
#    0.000    0.000    0.000    0.000    0.000    0.000 
#
# Total GULP energy -357144.152103 kJ/mol
# GULP energy per Si atom -5580.377377 kJ/mol
# Density = 2.037572 g / cm^3
# Si number density = 20.422203 Si / 1000 Ang^3
#
#
#
# Elastic Constant Matrix: (Units=GPa)
#
#
# Indices 1 2 3 4 5 6 
#
# 1 68.9306 32.1944 29.4681 0.0000 0.0000 0.0000
# 2 32.1944 66.5673 26.9111 0.0000 0.0000 0.0000
# 3 29.4681 26.9111 94.2807 0.0000 0.0000 0.0000
# 4 0.0000 0.0000 0.0000 22.0549 0.0000 0.0000
# 5 0.0000 0.0000 0.0000 0.0000 25.5423 0.0000
# 6 0.0000 0.0000 0.0000 0.0000 0.0000 21.8427
#
#
#
# Elastic Compliance Matrix: (Units=1/GPa)
#
#
# Indices 1 2 3 4 5 6 
#
# 1 0.019954 -0.008059 -0.003936 0.000000 0.000000 0.000000
# 2 -0.008059 0.020237 -0.003257 0.000000 0.000000 0.000000
# 3 -0.003936 -0.003257 0.012767 0.000000 0.000000 0.000000
# 4 0.000000 0.000000 0.000000 0.045341 0.000000 0.000000
# 5 0.000000 0.000000 0.000000 0.000000 0.039151 0.000000
# 6 0.000000 0.000000 0.000000 0.000000 0.000000 0.045782
#
#
# Mechanical properties :
#
#
# Convention : Reuss Voigt Hill
#
# Bulk Modulus (GPa) = 44.53971 45.21398 44.87685
# Shear Modulus (GPa) = 22.60171 23.30165 22.95168
#
# Velocity S-wave (km/s) = 3.33035 3.38153 3.35604
# Velocity P-wave (km/s) = 6.05352 6.11833 6.08601
#
# Compressibility (1/GPa) = 0.02245187
#
# Stress axis : x y z
#
# Youngs Moduli (GPa) = 50.11452 49.41445 78.32834
#
# Poissons Ratio (x) = 0.39824 0.30834
# Poissons Ratio (y) = 0.40388 0.25515
# Poissons Ratio (z) = 0.19727 0.16096
#
# Static dielectric constant tensor:
#      x y z
#    x 1.754930 0.000000 0.000000 
#    y 0.000000 1.720040 0.000000 
#    z 0.000000 0.000000 1.738140 
# 
# From -- ./inp_files/8427.got.cif
#   From: 2010.05.17/outbox.cif.g08.bks.cpg/sg56_5_cif.got.tgz:8427.got - 2010.06.03 13:42:01.
