data_PCOD9431199
_publ_section_title
;
Structure prediction by ZEFSAII (Michael W. Deem and Ramdas Pophale) SiO2 
 PCOD9431199
Probable space group: P C C N
;
_chemical_formula_sum "Si O2"
_cell_formula_units_Z 40
_cell_length_a 9.585464
_cell_length_b 8.787800
_cell_length_c 20.120152
_cell_angle_alpha 90.000000
_cell_angle_beta 90.000000
_cell_angle_gamma 90.000000
_cell_volume 1694.823831
_symmetry_space_group_name_H-M "P C C N"
_symmetry_group_IT_number 56
_symmetry_cell_setting 'orthorhombic'
loop_
_space_group_symop_operation_xyz
x,y,z
1/2-x,1/2-y,z
1/2+x,-y,1/2-z
-x,1/2+y,1/2-z
-x,-y,-z
1/2+x,1/2+y,-z
1/2-x,y,1/2+z
x,1/2-y,1/2+z
loop_
_atom_site_type_symbol
_atom_site_label
_atom_site_fract_x
_atom_site_fract_y
_atom_site_fract_z
Si Si1 0.243955 0.417000 0.909578
Si Si2 0.250000 0.750000 0.633660
Si Si3 0.750000 0.250000 0.595401
Si Si4 0.057349 0.991490 0.574818
Si Si5 0.997097 0.573351 0.696046
Si Si6 0.962197 0.768063 0.330148
O O1 0.250000 0.250000 0.944404
O O2 0.267816 0.586745 0.941397
O O3 0.082460 0.431283 0.886890
O O4 0.135004 0.087984 0.853866
O O5 0.180542 0.876595 0.587653
O O6 0.124233 0.683701 0.677144
O O7 0.620780 0.263809 0.644555
O O8 0.104942 0.152157 0.605531
O O9 0.000000 0.000000 0.500000
O O10 0.063235 0.404609 0.690814
O O11 0.943165 0.619990 0.768399
#
# Coordination Sequence:
#
# PCOD9431199 Si02
#       6
#     8   4   4   8   8   8
#     4  10  20  43  70  95 131 182 225 279 354 408
#     4  12  25  45  66 106 140 181 231 294 336 414
#     4   8  19  35  64  96 132 171 225 274 342 414
#     4  11  26  48  69  98 139 182 232 286 345 422
#     4  11  23  42  72 105 138 176 232 286 357 412
#     4  10  22  42  68 102 139 178 225 291 349 415
#
# _framework density 23.601272999999999
#
# number of rings (size 3 to 8) (size 9 to 14) (size 15 to 20)
#    0.000    1.600    2.000    1.800    2.800    8.800 
#    3.600    2.000    0.000    0.000    0.000    0.000 
#    0.000    0.000    0.000    0.000    0.000    0.000 
#
# Total GULP energy -222966.847034 kJ/mol
# GULP energy per Si atom -5574.171176 kJ/mol
# Density = 2.354756 g / cm^3
# Si number density = 23.601273 Si / 1000 Ang^3
#
#
#
# Elastic Constant Matrix: (Units=GPa)
#
#
# Indices 1 2 3 4 5 6 
#
# 1 97.5640 -1.9434 8.4684 0.0000 0.0000 0.0000
# 2 -1.9434 173.6910 43.2216 0.0000 0.0000 0.0000
# 3 8.4684 43.2216 103.6497 0.0000 0.0000 0.0000
# 4 0.0000 0.0000 0.0000 -95.8236 0.0000 0.0000
# 5 0.0000 0.0000 0.0000 0.0000 23.3546 0.0000
# 6 0.0000 0.0000 0.0000 0.0000 0.0000 44.8662
#
#
#
# Elastic Compliance Matrix: (Units=1/GPa)
#
#
# Indices 1 2 3 4 5 6 
#
# 1 0.010343 0.000364 -0.000997 0.000000 0.000000 0.000000
# 2 0.000364 0.006437 -0.002714 0.000000 0.000000 0.000000
# 3 -0.000997 -0.002714 0.010861 0.000000 0.000000 0.000000
# 4 0.000000 0.000000 0.000000 -0.010436 0.000000 0.000000
# 5 0.000000 0.000000 0.000000 0.000000 0.042818 0.000000
# 6 0.000000 0.000000 0.000000 0.000000 0.000000 0.022289
#
#
# Mechanical properties :
#
#
# Convention : Reuss Voigt Hill
#
# Bulk Modulus (GPa) = 47.73838 52.71089 50.22464
# Shear Modulus (GPa) = 52.08981 16.15663 34.12322
#
# Velocity S-wave (km/s) = 4.70305 2.61926 3.80652
# Velocity P-wave (km/s) = 7.05425 5.61514 6.37543
#
# Compressibility (1/GPa) = 0.02094751
#
# Stress axis : x y z
#
# Youngs Moduli (GPa) = 96.67958 155.35831 92.07275
#
# Poissons Ratio (x) = -0.05651 0.09178
# Poissons Ratio (y) = -0.03517 0.24987
# Poissons Ratio (z) = 0.09637 0.42161
#
# Static dielectric constant tensor:
#      x y z
#    x 1.894670 0.000000 0.000000 
#    y 0.000000 2.007980 0.000000 
#    z 0.000000 0.000000 1.898570 
# 
# From -- ./inp_files/18617.got.cif
#   From: 2010.05.17/outbox.cif.g08.bks.cpg/sg56_10_cif.got.tgz:18617.got - 2010.06.03 13:42:01.
