data_PCOD9431990
_publ_section_title
;
Structure prediction by ZEFSAII (Michael W. Deem and Ramdas Pophale) SiO2 
 PCOD9431990
Probable space group: P C C N
;
_chemical_formula_sum "Si O2"
_cell_formula_units_Z 48
_cell_length_a 8.126765
_cell_length_b 9.837384
_cell_length_c 25.690912
_cell_angle_alpha 90.000000
_cell_angle_beta 90.000000
_cell_angle_gamma 90.000000
_cell_volume 2053.888425
_symmetry_space_group_name_H-M "P C C N"
_symmetry_group_IT_number 56
_symmetry_cell_setting 'orthorhombic'
loop_
_space_group_symop_operation_xyz
x,y,z
1/2-x,1/2-y,z
1/2+x,-y,1/2-z
-x,1/2+y,1/2-z
-x,-y,-z
1/2+x,1/2+y,-z
1/2-x,y,1/2+z
x,1/2-y,1/2+z
loop_
_atom_site_type_symbol
_atom_site_label
_atom_site_fract_x
_atom_site_fract_y
_atom_site_fract_z
Si Si1 0.990335 0.365727 0.141421
Si Si2 0.250000 0.750000 0.160449
Si Si3 0.998590 0.593213 0.412255
Si Si4 0.171743 0.505532 0.322541
Si Si5 0.679118 0.043991 0.930819
Si Si6 0.250000 0.750000 0.985473
Si Si7 0.500585 0.588725 0.719808
O O1 0.046590 0.215110 0.128071
O O2 0.029339 0.453590 0.089588
O O3 0.066081 0.453016 0.189004
O O4 0.800097 0.381227 0.156284
O O5 0.260972 0.873523 0.120205
O O6 0.095262 0.720708 0.198223
O O7 0.837142 0.548231 0.442966
O O8 0.075161 0.474113 0.375765
O O9 0.131174 0.658662 0.450571
O O10 0.307141 0.406843 0.295819
O O11 0.048908 0.560443 0.278752
O O12 0.648047 0.150324 0.976328
#
# Coordination Sequence:
#
# PCOD9431990 Si02
#       7
#     8   4   8   8   8   4   8
#     4   9  21  41  60  94 125 168 205 266 309 374
#     4   9  20  41  58  82 134 159 206 255 314 360
#     4  12  22  43  66  95 128 164 213 269 320 377
#     4  10  22  38  65  92 131 166 214 253 318 375
#     4  10  23  40  69  88 126 168 214 260 327 382
#     4  11  22  43  68  94 122 169 208 271 334 378
#     4   9  21  36  63  91 122 180 199 257 311 373
#
# _framework density 23.370308000000001
#
# number of rings (size 3 to 8) (size 9 to 14) (size 15 to 20)
#    1.000    1.000    1.667    1.000    7.000    0.667 
#    0.000    0.833    0.000    0.000    0.000    0.000 
#    0.000    0.000    0.000    0.000    0.000    0.000 
#
# Total GULP energy -267385.639367 kJ/mol
# GULP energy per Si atom -5570.534153 kJ/mol
# Density = 2.331712 g / cm^3
# Si number density = 23.370308 Si / 1000 Ang^3
#
#
#
# Elastic Constant Matrix: (Units=GPa)
#
#
# Indices 1 2 3 4 5 6 
#
# 1 58.9744 11.6887 33.0974 0.0000 0.0000 0.0000
# 2 11.6887 39.1256 15.7676 0.0000 0.0000 0.0000
# 3 33.0974 15.7676 126.0228 0.0000 0.0000 0.0000
# 4 0.0000 0.0000 0.0000 15.7303 0.0000 0.0000
# 5 0.0000 0.0000 0.0000 0.0000 33.1718 0.0000
# 6 0.0000 0.0000 0.0000 0.0000 0.0000 30.2755
#
#
#
# Elastic Compliance Matrix: (Units=1/GPa)
#
#
# Indices 1 2 3 4 5 6 
#
# 1 0.020513 -0.004167 -0.004866 0.000000 0.000000 0.000000
# 2 -0.004167 0.027762 -0.002379 0.000000 0.000000 0.000000
# 3 -0.004866 -0.002379 0.009511 0.000000 0.000000 0.000000
# 4 0.000000 0.000000 0.000000 0.063572 0.000000 0.000000
# 5 0.000000 0.000000 0.000000 0.000000 0.030146 0.000000
# 6 0.000000 0.000000 0.000000 0.000000 0.000000 0.033030
#
#
# Mechanical properties :
#
#
# Convention : Reuss Voigt Hill
#
# Bulk Modulus (GPa) = 28.60277 38.35891 33.48084
# Shear Modulus (GPa) = 22.82968 26.74012 24.78490
#
# Velocity S-wave (km/s) = 3.12888 3.38626 3.26011
# Velocity P-wave (km/s) = 5.03177 5.63366 5.34120
#
# Compressibility (1/GPa) = 0.03496164
#
# Stress axis : x y z
#
# Youngs Moduli (GPa) = 48.74869 36.01982 105.14477
#
# Poissons Ratio (x) = 0.15011 0.51164
# Poissons Ratio (y) = 0.20315 0.25015
# Poissons Ratio (z) = 0.23721 0.08569
#
# Static dielectric constant tensor:
#      x y z
#    x 1.956250 0.000000 0.000000 
#    y 0.000000 1.955880 0.000000 
#    z 0.000000 0.000000 1.878040 
# 
# From -- ./inp_files/23327.got.cif
#   From: 2010.05.17/outbox.cif.g08.bks.cpg/sg56_12_cif.got.tgz:23327.got - 2010.06.03 13:42:01.
