data_PCOD9431694
_publ_section_title
;
Structure prediction by ZEFSAII (Michael W. Deem and Ramdas Pophale) SiO2 
 PCOD9431694
Probable space group: P C C N
;
_chemical_formula_sum "Si O2"
_cell_formula_units_Z 40
_cell_length_a 8.905738
_cell_length_b 8.376281
_cell_length_c 27.035827
_cell_angle_alpha 90.000000
_cell_angle_beta 90.000000
_cell_angle_gamma 90.000000
_cell_volume 2016.790613
_symmetry_space_group_name_H-M "P C C N"
_symmetry_group_IT_number 56
_symmetry_cell_setting 'orthorhombic'
loop_
_space_group_symop_operation_xyz
x,y,z
1/2-x,1/2-y,z
1/2+x,-y,1/2-z
-x,1/2+y,1/2-z
-x,-y,-z
1/2+x,1/2+y,-z
1/2-x,y,1/2+z
x,1/2-y,1/2+z
loop_
_atom_site_type_symbol
_atom_site_label
_atom_site_fract_x
_atom_site_fract_y
_atom_site_fract_z
Si Si1 0.420321 0.811563 0.390571
Si Si2 0.426693 0.685983 0.999251
Si Si3 0.082460 0.311012 0.206831
Si Si4 0.583358 0.187981 0.803375
Si Si5 0.418362 0.194161 0.400337
O O1 0.250000 0.750000 0.383328
O O2 0.476387 0.753749 0.444800
O O3 0.519084 0.758450 0.344425
O O4 0.420232 0.003098 0.393909
O O5 0.250000 0.750000 0.999971
O O6 0.491714 0.747786 0.050865
O O7 0.500000 0.500000 0.000000
O O8 0.250000 0.250000 0.215792
O O9 0.084603 0.499793 0.202800
O O10 0.980243 0.262104 0.252999
O O11 0.750000 0.250000 0.812540
O O12 0.483747 0.233120 0.850353
O O13 0.250000 0.250000 0.407443
#
# Coordination Sequence:
#
# PCOD9431694 Si02
#       5
#     8   8   8   8   8
#     4  10  21  41  62  89 126 165 206 254 308 372
#     4   9  20  39  63  90 127 170 214 262 317 379
#     4  12  25  42  64  91 120 160 205 255 312 372
#     4  12  25  43  64  90 123 161 204 256 312 377
#     4  11  22  39  63  94 127 166 210 259 312 372
#
# _framework density 19.833490999999999
#
# number of rings (size 3 to 8) (size 9 to 14) (size 15 to 20)
#    0.000    1.200    0.000    6.600    0.000    2.400 
#    0.000   16.000    0.000    0.000    0.000    0.000 
#    0.000    0.000    0.000    0.000    0.000    0.000 
#
# Total GULP energy -223117.430736 kJ/mol
# GULP energy per Si atom -5577.935768 kJ/mol
# Density = 1.978835 g / cm^3
# Si number density = 19.833491 Si / 1000 Ang^3
#
#
#
# Elastic Constant Matrix: (Units=GPa)
#
#
# Indices 1 2 3 4 5 6 
#
# 1 64.6623 1.0050 6.8777 0.0000 0.0000 0.0000
# 2 1.0050 86.4853 -2.4302 0.0000 0.0000 0.0000
# 3 6.8777 -2.4302 98.7008 0.0000 0.0000 0.0000
# 4 0.0000 0.0000 0.0000 30.3369 0.0000 0.0000
# 5 0.0000 0.0000 0.0000 0.0000 94.9322 0.0000
# 6 0.0000 0.0000 0.0000 0.0000 0.0000 27.0797
#
#
#
# Elastic Compliance Matrix: (Units=1/GPa)
#
#
# Indices 1 2 3 4 5 6 
#
# 1 0.015584 -0.000212 -0.001091 0.000000 0.000000 0.000000
# 2 -0.000212 0.011574 0.000300 0.000000 0.000000 0.000000
# 3 -0.001091 0.000300 0.010215 0.000000 0.000000 0.000000
# 4 0.000000 0.000000 0.000000 0.032963 0.000000 0.000000
# 5 0.000000 0.000000 0.000000 0.000000 0.010534 0.000000
# 6 0.000000 0.000000 0.000000 0.000000 0.000000 0.036928
#
#
# Mechanical properties :
#
#
# Convention : Reuss Voigt Hill
#
# Bulk Modulus (GPa) = 28.27533 28.97257 28.62395
# Shear Modulus (GPa) = 37.99590 46.76281 42.37936
#
# Velocity S-wave (km/s) = 4.38167 4.86096 4.62752
# Velocity P-wave (km/s) = 6.31554 6.79300 6.55861
#
# Compressibility (1/GPa) = 0.03536652
#
# Stress axis : x y z
#
# Youngs Moduli (GPa) = 64.16713 86.40394 97.89480
#
# Poissons Ratio (x) = 0.01830 0.10682
# Poissons Ratio (y) = 0.01359 -0.02934
# Poissons Ratio (z) = 0.07002 -0.02590
#
# Static dielectric constant tensor:
#      x y z
#    x 1.683970 0.000000 0.000000 
#    y 0.000000 1.301000 0.000000 
#    z 0.000000 0.000000 1.694140 
# 
# From -- ./inp_files/20298.got.cif
#   From: 2010.05.17/outbox.cif.g08.bks.cpg/sg56_11_cif.got.tgz:20298.got - 2010.06.03 13:42:01.
