data_PCOD9431478
_publ_section_title
;
Structure prediction by ZEFSAII (Michael W. Deem and Ramdas Pophale) SiO2 
 PCOD9431478
Probable space group: P C C N
;
_chemical_formula_sum "Si O2"
_cell_formula_units_Z 32
_cell_length_a 16.644076
_cell_length_b 5.007470
_cell_length_c 17.994033
_cell_angle_alpha 90.000000
_cell_angle_beta 90.000000
_cell_angle_gamma 90.000000
_cell_volume 1499.707485
_symmetry_space_group_name_H-M "P C C N"
_symmetry_group_IT_number 56
_symmetry_cell_setting 'orthorhombic'
loop_
_space_group_symop_operation_xyz
x,y,z
1/2-x,1/2-y,z
1/2+x,-y,1/2-z
-x,1/2+y,1/2-z
-x,-y,-z
1/2+x,1/2+y,-z
1/2-x,y,1/2+z
x,1/2-y,1/2+z
loop_
_atom_site_type_symbol
_atom_site_label
_atom_site_fract_x
_atom_site_fract_y
_atom_site_fract_z
Si Si1 0.104393 0.227243 0.518182
Si Si2 0.302008 0.015261 0.652480
Si Si3 0.444298 0.842718 0.760555
Si Si4 0.078261 0.763897 0.927247
O O1 0.164894 0.346476 0.577831
O O2 0.096903 0.435125 0.450479
O O3 0.016966 0.218776 0.557623
O O4 0.122021 0.938924 0.483635
O O5 0.250000 0.250000 0.690637
O O6 0.250000 0.750000 0.639001
O O7 0.377548 0.930632 0.702046
O O8 0.488831 0.573902 0.735199
O O9 0.406626 0.795827 0.841631
#
# Coordination Sequence:
#
# PCOD9431478 Si02
#       4
#     8   8   8   8
#     4  10  21  40  63  96 126 165 216 271 325 388
#     4  12  26  44  64  96 139 179 215 273 349 407
#     4  12  24  42  68 100 131 175 226 279 326 394
#     4  10  21  38  68  96 124 159 224 280 310 373
#
# _framework density 21.337495000000001
#
# number of rings (size 3 to 8) (size 9 to 14) (size 15 to 20)
#    0.000    1.000    2.500    4.500    7.000    0.000 
#    0.000    7.500    0.000    0.000    0.000    0.000 
#    0.000    0.000    0.000    0.000    0.000    0.000 
#
# Total GULP energy -179106.479685 kJ/mol
# GULP energy per Si atom -5597.077490 kJ/mol
# Density = 2.128893 g / cm^3
# Si number density = 21.337495 Si / 1000 Ang^3
#
#
#
# Elastic Constant Matrix: (Units=GPa)
#
#
# Indices 1 2 3 4 5 6 
#
# 1 41.7076 6.2237 35.7239 0.0000 0.0000 0.0000
# 2 6.2237 90.5326 7.7235 0.0000 0.0000 0.0000
# 3 35.7239 7.7235 95.5442 0.0000 0.0000 0.0000
# 4 0.0000 0.0000 0.0000 27.0644 0.0000 0.0000
# 5 0.0000 0.0000 0.0000 0.0000 -0.5348 0.0000
# 6 0.0000 0.0000 0.0000 0.0000 0.0000 44.5681
#
#
#
# Elastic Compliance Matrix: (Units=1/GPa)
#
#
# Indices 1 2 3 4 5 6 
#
# 1 0.035427 -0.001314 -0.013140 0.000000 0.000000 0.000000
# 2 -0.001314 0.011171 -0.000412 0.000000 0.000000 0.000000
# 3 -0.013140 -0.000412 0.015413 0.000000 0.000000 0.000000
# 4 0.000000 0.000000 0.000000 0.036949 0.000000 0.000000
# 5 0.000000 0.000000 0.000000 0.000000 -1.869950 0.000000
# 6 0.000000 0.000000 0.000000 0.000000 0.000000 0.022438
#
#
# Mechanical properties :
#
#
# Convention : Reuss Voigt Hill
#
# Bulk Modulus (GPa) = 30.97971 36.34741 33.66356
# Shear Modulus (GPa) = -2.92730 26.09376 11.58323
#
# Velocity S-wave (km/s) = -1.17255 3.50080 2.33246
# Velocity P-wave (km/s) = 3.56613 5.78034 4.80258
#
# Compressibility (1/GPa) = 0.03227919
#
# Stress axis : x y z
#
# Youngs Moduli (GPa) = 28.22668 89.51577 64.88160
#
# Poissons Ratio (x) = 0.11767 0.85255
# Poissons Ratio (y) = 0.03710 0.02670
# Poissons Ratio (z) = 0.37090 0.03684
#
# Static dielectric constant tensor:
#      x y z
#    x 1.781130 0.000000 0.000000 
#    y 0.000000 1.758830 0.000000 
#    z 0.000000 0.000000 1.746860 
# 
# From -- ./inp_files/12480.got.cif
#   From: 2010.05.17/outbox.cif.g08.bks.cpg/sg56_7_cif.got.tgz:12480.got - 2010.06.03 13:42:01.
