data_PCOD9431041
_publ_section_title
;
Structure prediction by ZEFSAII (Michael W. Deem and Ramdas Pophale) SiO2 
 PCOD9431041
Probable space group: P C C N
;
_chemical_formula_sum "Si O2"
_cell_formula_units_Z 48
_cell_length_a 9.930182
_cell_length_b 15.770796
_cell_length_c 16.542343
_cell_angle_alpha 90.000000
_cell_angle_beta 90.000000
_cell_angle_gamma 90.000000
_cell_volume 2590.644635
_symmetry_space_group_name_H-M "P C C N"
_symmetry_group_IT_number 56
_symmetry_cell_setting 'orthorhombic'
loop_
_space_group_symop_operation_xyz
x,y,z
1/2-x,1/2-y,z
1/2+x,-y,1/2-z
-x,1/2+y,1/2-z
-x,-y,-z
1/2+x,1/2+y,-z
1/2-x,y,1/2+z
x,1/2-y,1/2+z
loop_
_atom_site_type_symbol
_atom_site_label
_atom_site_fract_x
_atom_site_fract_y
_atom_site_fract_z
Si Si1 0.511456 0.673096 0.389534
Si Si2 0.619835 0.295479 0.879679
Si Si3 0.015673 0.944465 0.235099
Si Si4 0.750000 0.750000 0.300235
Si Si5 0.276887 0.075820 0.796362
Si Si6 0.250000 0.750000 0.964219
Si Si7 0.371567 0.181696 0.937407
O O1 0.499988 0.599830 0.323021
O O2 0.614220 0.742167 0.352240
O O3 0.364576 0.708187 0.410614
O O4 0.577947 0.651034 0.475413
O O5 0.750000 0.250000 0.839765
O O6 0.572731 0.374768 0.827568
O O7 0.495375 0.230926 0.893194
O O8 0.676001 0.312895 0.970913
O O9 0.867320 0.969548 0.205208
O O10 0.115767 0.021819 0.247212
O O11 0.744144 0.833263 0.245937
O O12 0.326245 0.101652 0.884851
O O13 0.250000 0.250000 0.944925
#
# Coordination Sequence:
#
# PCOD9431041 Si02
#       7
#     8   8   8   4   8   4   8
#     4  10  21  35  62  91 116 148 208 248 298 347
#     4   9  20  37  61  87 114 157 199 233 302 358
#     4  11  24  39  57  93 118 155 204 256 292 353
#     4  10  20  40  62  88 110 162 202 244 290 374
#     4  11  24  39  61  86 123 159 206 240 311 353
#     4   8  20  34  60  90 118 158 194 238 302 362
#     4  11  18  39  65  82 119 164 195 245 295 375
#
# _framework density 18.528206999999998
#
# number of rings (size 3 to 8) (size 9 to 14) (size 15 to 20)
#    0.500    1.333    3.333    1.000    3.500    2.000 
#    0.000    1.667    0.000    7.000    0.000    0.000 
#    0.000    0.000    0.000    0.000    0.000    0.000 
#
# Total GULP energy -267577.436623 kJ/mol
# GULP energy per Si atom -5574.529930 kJ/mol
# Density = 1.848604 g / cm^3
# Si number density = 18.528207 Si / 1000 Ang^3
#
#
#
# Elastic Constant Matrix: (Units=GPa)
#
#
# Indices 1 2 3 4 5 6 
#
# 1 125.2887 13.7444 14.3735 0.0000 0.0000 0.0000
# 2 13.7444 29.5903 3.0240 0.0000 0.0000 0.0000
# 3 14.3735 3.0240 67.6821 0.0000 0.0000 0.0000
# 4 0.0000 0.0000 0.0000 19.0751 0.0000 0.0000
# 5 0.0000 0.0000 0.0000 0.0000 26.9511 0.0000
# 6 0.0000 0.0000 0.0000 0.0000 0.0000 27.3547
#
#
#
# Elastic Compliance Matrix: (Units=1/GPa)
#
#
# Indices 1 2 3 4 5 6 
#
# 1 0.008590 -0.003821 -0.001654 0.000000 0.000000 0.000000
# 2 -0.003821 0.035650 -0.000781 0.000000 0.000000 0.000000
# 3 -0.001654 -0.000781 0.015161 0.000000 0.000000 0.000000
# 4 0.000000 0.000000 0.000000 0.052424 0.000000 0.000000
# 5 0.000000 0.000000 0.000000 0.000000 0.037104 0.000000
# 6 0.000000 0.000000 0.000000 0.000000 0.000000 0.036557
#
#
# Mechanical properties :
#
#
# Convention : Reuss Voigt Hill
#
# Bulk Modulus (GPa) = 21.32701 31.64943 26.48822
# Shear Modulus (GPa) = 23.40512 27.43745 25.42128
#
# Velocity S-wave (km/s) = 3.55803 3.85235 3.70811
# Velocity P-wave (km/s) = 5.33057 6.07506 5.71495
#
# Compressibility (1/GPa) = 0.04688890
#
# Stress axis : x y z
#
# Youngs Moduli (GPa) = 116.40820 28.05079 65.95851
#
# Poissons Ratio (x) = 0.10719 0.10907
# Poissons Ratio (y) = 0.44482 0.05153
# Poissons Ratio (z) = 0.19249 0.02192
#
# Static dielectric constant tensor:
#      x y z
#    x 1.673630 0.000000 0.000000 
#    y 0.000000 1.612180 0.000000 
#    z 0.000000 0.000000 1.657340 
# 
# From -- ./inp_files/14864.got.cif
#   From: 2010.05.17/outbox.cif.g08.bks.cpg/sg56_8_cif.got.tgz:14864.got - 2010.06.03 13:42:01.
