data_PCOD9431479
_publ_section_title
;
Structure prediction by ZEFSAII (Michael W. Deem and Ramdas Pophale) SiO2 
 PCOD9431479
Probable space group: P C C N
;
_chemical_formula_sum "Si O2"
_cell_formula_units_Z 56
_cell_length_a 16.829351
_cell_length_b 5.889982
_cell_length_c 28.468800
_cell_angle_alpha 90.000000
_cell_angle_beta 90.000000
_cell_angle_gamma 90.000000
_cell_volume 2821.957685
_symmetry_space_group_name_H-M "P C C N"
_symmetry_group_IT_number 56
_symmetry_cell_setting 'orthorhombic'
loop_
_space_group_symop_operation_xyz
x,y,z
1/2-x,1/2-y,z
1/2+x,-y,1/2-z
-x,1/2+y,1/2-z
-x,-y,-z
1/2+x,1/2+y,-z
1/2-x,y,1/2+z
x,1/2-y,1/2+z
loop_
_atom_site_type_symbol
_atom_site_label
_atom_site_fract_x
_atom_site_fract_y
_atom_site_fract_z
Si Si1 0.206247 0.499604 0.639087
Si Si2 0.447407 0.807092 0.975355
Si Si3 0.899697 0.953984 0.771249
Si Si4 0.938912 0.566812 0.110888
Si Si5 0.436846 0.573977 0.067602
Si Si6 0.160128 0.322606 0.312456
Si Si7 0.942901 0.281408 0.687655
O O1 0.250000 0.750000 0.633693
O O2 0.169728 0.496189 0.691687
O O3 0.134102 0.503753 0.601605
O O4 0.250000 0.250000 0.633412
O O5 0.506129 0.629732 0.949583
O O6 0.402364 0.938618 0.934053
O O7 0.404881 0.682475 0.018574
O O8 0.500000 0.000000 0.000000
O O9 0.881357 0.738926 0.737497
O O10 0.981406 0.930936 0.799460
O O11 0.915117 0.148664 0.733591
O O12 0.875015 0.682492 0.144193
O O13 0.973541 0.380155 0.146406
O O14 0.005779 0.743238 0.093535
O O15 0.250000 0.250000 0.306506
O O16 0.134463 0.575420 0.325774
#
# Coordination Sequence:
#
# PCOD9431479 Si02
#       7
#     8   8   8   8   8   8   8
#     4  12  30  44  68 100 149 194 229 286 359 424
#     4   9  19  38  74  97 125 164 225 290 342 402
#     4  11  24  39  63  92 128 178 240 279 339 404
#     4  10  21  38  68  96 124 171 224 289 342 414
#     4  10  22  42  70  99 130 174 235 286 341 421
#     4  11  24  39  59  90 137 172 221 282 353 409
#     4  11  23  40  67  92 125 177 235 291 337 414
#
# _framework density 19.844379
#
# number of rings (size 3 to 8) (size 9 to 14) (size 15 to 20)
#    0.000    1.429    1.429    3.000   12.000    1.714 
#    0.000    0.000   12.571    0.000    0.000    0.000 
#    0.000    0.000    0.000    0.000    0.000    0.000 
#
# Total GULP energy -312118.059122 kJ/mol
# GULP energy per Si atom -5573.536770 kJ/mol
# Density = 1.979921 g / cm^3
# Si number density = 19.844379 Si / 1000 Ang^3
#
#
#
# Elastic Constant Matrix: (Units=GPa)
#
#
# Indices 1 2 3 4 5 6 
#
# 1 69.5799 33.6939 29.4946 0.0000 0.0000 0.0000
# 2 33.6939 102.3744 43.1316 0.0000 0.0000 0.0000
# 3 29.4946 43.1316 122.6354 0.0000 0.0000 0.0000
# 4 0.0000 0.0000 0.0000 16.6119 0.0000 0.0000
# 5 0.0000 0.0000 0.0000 0.0000 23.0596 0.0000
# 6 0.0000 0.0000 0.0000 0.0000 0.0000 0.8182
#
#
#
# Elastic Compliance Matrix: (Units=1/GPa)
#
#
# Indices 1 2 3 4 5 6 
#
# 1 0.017778 -0.004754 -0.002604 0.000000 0.000000 0.000000
# 2 -0.004754 0.012739 -0.003337 0.000000 0.000000 0.000000
# 3 -0.002604 -0.003337 0.009954 0.000000 0.000000 0.000000
# 4 0.000000 0.000000 0.000000 0.060198 0.000000 0.000000
# 5 0.000000 0.000000 0.000000 0.000000 0.043366 0.000000
# 6 0.000000 0.000000 0.000000 0.000000 0.000000 1.222238
#
#
# Mechanical properties :
#
#
# Convention : Reuss Voigt Hill
#
# Bulk Modulus (GPa) = 52.40755 56.35889 54.38322
# Shear Modulus (GPa) = 3.58674 20.64925 12.11800
#
# Velocity S-wave (km/s) = 1.34587 3.22927 2.47382
# Velocity P-wave (km/s) = 5.37417 6.50894 5.96859
#
# Compressibility (1/GPa) = 0.01908122
#
# Stress axis : x y z
#
# Youngs Moduli (GPa) = 56.24988 78.50134 100.46189
#
# Poissons Ratio (x) = 0.37321 0.26156
# Poissons Ratio (y) = 0.26742 0.33523
# Poissons Ratio (z) = 0.14645 0.26195
#
# Static dielectric constant tensor:
#      x y z
#    x 1.674680 0.000000 0.000000 
#    y 0.000000 1.835020 0.000000 
#    z 0.000000 0.000000 1.707090 
# 
# From -- ./inp_files/23613.got.cif
#   From: 2010.05.17/outbox.cif.g08.bks.cpg/sg56_12_cif.got.tgz:23613.got - 2010.06.03 13:42:01.
