data_PCOD9431952
_publ_section_title
;
Structure prediction by ZEFSAII (Michael W. Deem and Ramdas Pophale) SiO2 
 PCOD9431952
Probable space group: P C C N
;
_chemical_formula_sum "Si O2"
_cell_formula_units_Z 60
_cell_length_a 17.315480
_cell_length_b 9.137930
_cell_length_c 17.413868
_cell_angle_alpha 90.000000
_cell_angle_beta 90.000000
_cell_angle_gamma 90.000000
_cell_volume 2755.355309
_symmetry_space_group_name_H-M "P C C N"
_symmetry_group_IT_number 56
_symmetry_cell_setting 'orthorhombic'
loop_
_space_group_symop_operation_xyz
x,y,z
1/2-x,1/2-y,z
1/2+x,-y,1/2-z
-x,1/2+y,1/2-z
-x,-y,-z
1/2+x,1/2+y,-z
1/2-x,y,1/2+z
x,1/2-y,1/2+z
loop_
_atom_site_type_symbol
_atom_site_label
_atom_site_fract_x
_atom_site_fract_y
_atom_site_fract_z
Si Si1 0.079545 0.958343 0.457878
Si Si2 0.862850 0.841350 0.295568
Si Si3 0.503347 0.301884 0.130805
Si Si4 0.841017 0.258284 0.426045
Si Si5 0.250000 0.250000 0.587739
Si Si6 0.437799 0.650452 0.706461
Si Si7 0.398045 0.244172 0.865709
Si Si8 0.891790 0.572078 0.487557
O O1 0.130377 0.877721 0.521878
O O2 0.049972 0.839327 0.397468
O O3 0.119082 0.097898 0.416431
O O4 0.000000 0.000000 0.500000
O O5 0.919562 0.718827 0.329268
O O6 0.790533 0.859530 0.351581
O O7 0.847687 0.794437 0.207757
O O8 0.914493 0.984194 0.307464
O O9 0.555365 0.351456 0.201777
O O10 0.471649 0.385885 0.056079
O O11 0.750000 0.250000 0.422097
O O12 0.876342 0.246984 0.340395
O O13 0.869612 0.406442 0.467416
O O14 0.182456 0.329276 0.540342
O O15 0.518357 0.703484 0.669890
O O16 0.401907 0.378989 0.924457
#
# Coordination Sequence:
#
# PCOD9431952 Si02
#       8
#     8   8   8   8   4   8   8   8
#     4  12  22  44  69  99 137 184 230 294 355 419
#     4  10  22  42  65  98 132 179 233 285 350 423
#     4  10  22  37  68 100 129 168 235 291 350 408
#     4  12  28  45  68 102 147 189 236 291 371 432
#     4  10  24  46  68  92 140 190 238 276 354 438
#     4  11  23  41  70  98 141 174 224 298 358 414
#     4  11  24  41  73 104 131 182 243 297 348 411
#     4  11  25  42  70 104 138 185 237 299 351 432
#
# _framework density 21.775776
#
# number of rings (size 3 to 8) (size 9 to 14) (size 15 to 20)
#    0.000    1.067    4.000    0.800    9.333    2.667 
#    0.000    0.667    0.000    0.000    0.000    0.000 
#    0.000    0.000    0.000    0.000    0.000    0.000 
#
# Total GULP energy -334784.129448 kJ/mol
# GULP energy per Si atom -5579.735491 kJ/mol
# Density = 2.172621 g / cm^3
# Si number density = 21.775776 Si / 1000 Ang^3
#
#
#
# Elastic Constant Matrix: (Units=GPa)
#
#
# Indices 1 2 3 4 5 6 
#
# 1 85.4163 18.9111 30.5499 0.0000 0.0000 0.0000
# 2 18.9111 60.0989 32.8145 0.0000 0.0000 0.0000
# 3 30.5499 32.8145 127.9339 0.0000 0.0000 0.0000
# 4 0.0000 0.0000 0.0000 32.0382 0.0000 0.0000
# 5 0.0000 0.0000 0.0000 0.0000 22.0578 0.0000
# 6 0.0000 0.0000 0.0000 0.0000 0.0000 25.2017
#
#
#
# Elastic Compliance Matrix: (Units=1/GPa)
#
#
# Indices 1 2 3 4 5 6 
#
# 1 0.013202 -0.002829 -0.002427 0.000000 0.000000 0.000000
# 2 -0.002829 0.019955 -0.004443 0.000000 0.000000 0.000000
# 3 -0.002427 -0.004443 0.009536 0.000000 0.000000 0.000000
# 4 0.000000 0.000000 0.000000 0.031213 0.000000 0.000000
# 5 0.000000 0.000000 0.000000 0.000000 0.045335 0.000000
# 6 0.000000 0.000000 0.000000 0.000000 0.000000 0.039680
#
#
# Mechanical properties :
#
#
# Convention : Reuss Voigt Hill
#
# Bulk Modulus (GPa) = 42.92758 48.66670 45.79714
# Shear Modulus (GPa) = 26.86970 28.60446 27.73708
#
# Velocity S-wave (km/s) = 3.51654 3.62828 3.57285
# Velocity P-wave (km/s) = 6.02033 6.32061 6.17229
#
# Compressibility (1/GPa) = 0.02329505
#
# Stress axis : x y z
#
# Youngs Moduli (GPa) = 75.74780 50.11201 104.86976
#
# Poissons Ratio (x) = 0.14177 0.25450
# Poissons Ratio (y) = 0.21429 0.46592
# Poissons Ratio (z) = 0.18383 0.22264
#
# Static dielectric constant tensor:
#      x y z
#    x 1.788500 0.000000 0.000000 
#    y 0.000000 1.815530 0.000000 
#    z 0.000000 0.000000 2.220780 
# 
# From -- ./inp_files/16654.got.cif
#   From: 2010.05.17/outbox.cif.g08.bks.cpg/sg56_9_cif.got.tgz:16654.got - 2010.06.03 13:42:01.
