data_PCOD9431927
_publ_section_title
;
Structure prediction by ZEFSAII (Michael W. Deem and Ramdas Pophale) SiO2 
 PCOD9431927
Probable space group: P C C N
;
_chemical_formula_sum "Si O2"
_cell_formula_units_Z 40
_cell_length_a 11.317628
_cell_length_b 20.679284
_cell_length_c 8.866820
_cell_angle_alpha 90.000000
_cell_angle_beta 90.000000
_cell_angle_gamma 90.000000
_cell_volume 2075.194486
_symmetry_space_group_name_H-M "P C C N"
_symmetry_group_IT_number 56
_symmetry_cell_setting 'orthorhombic'
loop_
_space_group_symop_operation_xyz
x,y,z
1/2-x,1/2-y,z
1/2+x,-y,1/2-z
-x,1/2+y,1/2-z
-x,-y,-z
1/2+x,1/2+y,-z
1/2-x,y,1/2+z
x,1/2-y,1/2+z
loop_
_atom_site_type_symbol
_atom_site_label
_atom_site_fract_x
_atom_site_fract_y
_atom_site_fract_z
Si Si1 0.242378 0.517755 0.231487
Si Si2 0.889505 0.680819 0.468835
Si Si3 0.603867 0.549500 0.515690
Si Si4 0.871481 0.683035 0.108359
Si Si5 0.922472 0.434753 0.512291
O O1 0.179973 0.462339 0.132795
O O2 0.320647 0.476930 0.346041
O O3 0.149455 0.559241 0.329992
O O4 0.325189 0.560333 0.121421
O O5 0.871396 0.686362 0.288865
O O6 0.762026 0.669000 0.547714
O O7 0.920176 0.751081 0.536989
O O8 0.987735 0.625663 0.497181
O O9 0.500000 0.500000 0.500000
O O10 0.559484 0.620911 0.548110
O O11 0.000000 0.500000 0.500000
#
# Coordination Sequence:
#
# PCOD9431927 Si02
#       5
#     8   8   8   8   8
#     4  10  22  36  59  91 119 152 201 241 293 368
#     4  11  23  38  60  88 122 155 190 249 309 354
#     4  11  21  36  59  84 114 150 190 243 293 343
#     4  11  22  37  58  90 118 150 198 243 300 364
#     4  11  22  39  62  90 124 160 199 250 303 357
#
# _framework density 19.275300999999999
#
# number of rings (size 3 to 8) (size 9 to 14) (size 15 to 20)
#    0.000    1.200    0.000    9.600    0.000    4.800 
#    0.000    0.000    0.000   20.400    0.000    0.000 
#    0.000    0.000    0.000    0.000    0.000    0.000 
#
# Total GULP energy -223475.057667 kJ/mol
# GULP energy per Si atom -5586.876442 kJ/mol
# Density = 1.923143 g / cm^3
# Si number density = 19.275301 Si / 1000 Ang^3
#
#
#
# Elastic Constant Matrix: (Units=GPa)
#
#
# Indices 1 2 3 4 5 6 
#
# 1 78.8116 59.5100 57.3852 0.0000 0.0000 0.0000
# 2 59.5100 159.5175 48.0111 0.0000 0.0000 0.0000
# 3 57.3852 48.0111 115.1159 0.0000 0.0000 0.0000
# 4 0.0000 0.0000 0.0000 18.4218 0.0000 0.0000
# 5 0.0000 0.0000 0.0000 0.0000 6.7354 0.0000
# 6 0.0000 0.0000 0.0000 0.0000 0.0000 37.6126
#
#
#
# Elastic Compliance Matrix: (Units=1/GPa)
#
#
# Indices 1 2 3 4 5 6 
#
# 1 0.024312 -0.006201 -0.009534 0.000000 0.000000 0.000000
# 2 -0.006201 0.008750 -0.000558 0.000000 0.000000 0.000000
# 3 -0.009534 -0.000558 0.013672 0.000000 0.000000 0.000000
# 4 0.000000 0.000000 0.000000 0.054284 0.000000 0.000000
# 5 0.000000 0.000000 0.000000 0.000000 0.148469 0.000000
# 6 0.000000 0.000000 0.000000 0.000000 0.000000 0.026587
#
#
# Mechanical properties :
#
#
# Convention : Reuss Voigt Hill
#
# Bulk Modulus (GPa) = 70.67384 75.91753 73.29568
# Shear Modulus (GPa) = 15.95530 25.12320 20.53925
#
# Velocity S-wave (km/s) = 2.88020 3.61416 3.26785
# Velocity P-wave (km/s) = 6.91418 7.54239 7.23510
#
# Compressibility (1/GPa) = 0.01414951
#
# Stress axis : x y z
#
# Youngs Moduli (GPa) = 41.13163 114.28326 73.14071
#
# Poissons Ratio (x) = 0.70862 0.69729
# Poissons Ratio (y) = 0.25504 0.04084
# Poissons Ratio (z) = 0.39213 0.06382
#
# Static dielectric constant tensor:
#      x y z
#    x 1.685450 0.000000 0.000000 
#    y 0.000000 1.774300 0.000000 
#    z 0.000000 0.000000 1.685100 
# 
# From -- ./inp_files/2580.got.cif
#   From: 2010.05.17/outbox.cif.g08.bks.cpg/sg56_2_cif.got.tgz:2580.got - 2010.06.03 13:42:01.
