data_PCOD9431161
_publ_section_title
;
Structure prediction by ZEFSAII (Michael W. Deem and Ramdas Pophale) SiO2 
 PCOD9431161
Probable space group: P C C N
;
_chemical_formula_sum "Si O2"
_cell_formula_units_Z 44
_cell_length_a 11.978670
_cell_length_b 13.845162
_cell_length_c 13.971715
_cell_angle_alpha 90.000000
_cell_angle_beta 90.000000
_cell_angle_gamma 90.000000
_cell_volume 2317.161802
_symmetry_space_group_name_H-M "P C C N"
_symmetry_group_IT_number 56
_symmetry_cell_setting 'orthorhombic'
loop_
_space_group_symop_operation_xyz
x,y,z
1/2-x,1/2-y,z
1/2+x,-y,1/2-z
-x,1/2+y,1/2-z
-x,-y,-z
1/2+x,1/2+y,-z
1/2-x,y,1/2+z
x,1/2-y,1/2+z
loop_
_atom_site_type_symbol
_atom_site_label
_atom_site_fract_x
_atom_site_fract_y
_atom_site_fract_z
Si Si1 0.250000 0.250000 0.862035
Si Si2 0.619830 0.229350 0.484188
Si Si3 0.978596 0.096903 0.604804
Si Si4 0.467493 0.143414 0.311596
Si Si5 0.828396 0.564473 0.023429
Si Si6 0.899231 0.469395 0.567343
O O1 0.144939 0.207246 0.805069
O O2 0.201849 0.334337 0.929005
O O3 0.750000 0.250000 0.461260
O O4 0.567387 0.326414 0.527597
O O5 0.547478 0.188590 0.394372
O O6 0.609923 0.145975 0.566143
O O7 0.970476 0.136709 0.711182
O O8 0.106640 0.077807 0.575518
O O9 0.910339 0.998427 0.590322
O O10 0.423861 0.035345 0.340116
O O11 0.714025 0.506181 0.018326
O O12 0.000000 0.500000 0.500000
#
# Coordination Sequence:
#
# PCOD9431161 Si02
#       6
#     4   8   8   8   8   8
#     4  10  20  42  64  90 128 162 212 256 304 384
#     4  11  21  42  64  92 127 169 206 262 322 373
#     4  11  23  40  64  93 125 166 210 262 320 377
#     4  10  23  41  61  96 124 166 213 257 314 377
#     4  10  21  41  63  86 127 165 206 260 315 373
#     4   9  20  41  61  85 125 163 206 257 311 376
#
# _framework density 18.988748000000001
#
# number of rings (size 3 to 8) (size 9 to 14) (size 15 to 20)
#    0.000    1.818    3.636    0.000    0.000    2.909 
#   13.091    0.000    0.000    0.000    0.000    0.000 
#    0.000    0.000    0.000    0.000    0.000    0.000 
#
# Total GULP energy -245288.313895 kJ/mol
# GULP energy per Si atom -5574.734407 kJ/mol
# Density = 1.894553 g / cm^3
# Si number density = 18.988748 Si / 1000 Ang^3
#
#
#
# Elastic Constant Matrix: (Units=GPa)
#
#
# Indices 1 2 3 4 5 6 
#
# 1 89.3554 16.2646 22.6767 0.0000 0.0000 0.0000
# 2 16.2646 108.7050 24.1573 0.0000 0.0000 0.0000
# 3 22.6767 24.1573 77.2835 0.0000 0.0000 0.0000
# 4 0.0000 0.0000 0.0000 14.3944 0.0000 0.0000
# 5 0.0000 0.0000 0.0000 0.0000 0.7527 0.0000
# 6 0.0000 0.0000 0.0000 0.0000 0.0000 20.2862
#
#
#
# Elastic Compliance Matrix: (Units=1/GPa)
#
#
# Indices 1 2 3 4 5 6 
#
# 1 0.012215 -0.001108 -0.003238 0.000000 0.000000 0.000000
# 2 -0.001108 0.009986 -0.002796 0.000000 0.000000 0.000000
# 3 -0.003238 -0.002796 0.014763 0.000000 0.000000 0.000000
# 4 0.000000 0.000000 0.000000 0.069471 0.000000 0.000000
# 5 0.000000 0.000000 0.000000 0.000000 1.328479 0.000000
# 6 0.000000 0.000000 0.000000 0.000000 0.000000 0.049295
#
#
# Mechanical properties :
#
#
# Convention : Reuss Voigt Hill
#
# Bulk Modulus (GPa) = 44.09132 44.61566 44.35349
# Shear Modulus (GPa) = 3.31993 21.23637 12.27815
#
# Velocity S-wave (km/s) = 1.32369 3.34783 2.54559
# Velocity P-wave (km/s) = 5.06027 6.20409 5.66114
#
# Compressibility (1/GPa) = 0.02268020
#
# Stress axis : x y z
#
# Youngs Moduli (GPa) = 81.86917 100.13572 67.73466
#
# Poissons Ratio (x) = 0.11096 0.21930
# Poissons Ratio (y) = 0.09072 0.18942
# Poissons Ratio (z) = 0.26507 0.28002
#
# Static dielectric constant tensor:
#      x y z
#    x 1.664100 0.000000 0.000000 
#    y 0.000000 1.676060 0.000000 
#    z 0.000000 0.000000 1.627290 
# 
# From -- ./inp_files/11530.got.cif
#   From: 2010.05.17/outbox.cif.g08.bks.cpg/sg56_6_cif.got.tgz:11530.got - 2010.06.03 13:42:01.
