data_PCOD9431012
_publ_section_title
;
Structure prediction by ZEFSAII (Michael W. Deem and Ramdas Pophale) SiO2 
 PCOD9431012
Probable space group: P C C N
;
_chemical_formula_sum "Si O2"
_cell_formula_units_Z 40
_cell_length_a 7.532784
_cell_length_b 15.154795
_cell_length_c 15.529202
_cell_angle_alpha 90.000000
_cell_angle_beta 90.000000
_cell_angle_gamma 90.000000
_cell_volume 1772.779494
_symmetry_space_group_name_H-M "P C C N"
_symmetry_group_IT_number 56
_symmetry_cell_setting 'orthorhombic'
loop_
_space_group_symop_operation_xyz
x,y,z
1/2-x,1/2-y,z
1/2+x,-y,1/2-z
-x,1/2+y,1/2-z
-x,-y,-z
1/2+x,1/2+y,-z
1/2-x,y,1/2+z
x,1/2-y,1/2+z
loop_
_atom_site_type_symbol
_atom_site_label
_atom_site_fract_x
_atom_site_fract_y
_atom_site_fract_z
Si Si1 0.251711 0.389441 0.186338
Si Si2 0.853227 0.325335 0.952835
Si Si3 0.288364 0.356465 0.377881
Si Si4 0.287992 0.493553 0.519542
Si Si5 0.544248 0.253624 0.635364
O O1 0.248094 0.403352 0.288039
O O2 0.248768 0.467417 0.117635
O O3 0.423195 0.329461 0.161638
O O4 0.071060 0.334746 0.170223
O O5 0.750000 0.250000 0.903966
O O6 0.735065 0.404434 0.991468
O O7 0.000899 0.360785 0.890031
O O8 0.946009 0.275083 0.032998
O O9 0.250000 0.250000 0.377697
O O10 0.215944 0.416640 0.456725
O O11 0.500000 0.500000 0.500000
O O12 0.750000 0.250000 0.663463
#
# Coordination Sequence:
#
# PCOD9431012 Si02
#       5
#     8   8   8   8   8
#     4  11  21  41  69  99 140 187 215 283 362 394
#     4  10  22  43  69  95 132 177 231 294 338 403
#     4  11  21  38  67  98 130 183 225 268 350 426
#     4  10  21  41  71  95 137 178 230 282 341 414
#     4  10  20  39  68  99 136 177 225 283 343 404
#
# _framework density 22.563437
#
# number of rings (size 3 to 8) (size 9 to 14) (size 15 to 20)
#    0.000    1.600    6.000    1.200    0.000    0.800 
#    0.000   23.000    0.000    0.000    0.000    0.000 
#    0.000    0.000    0.000    0.000    0.000    0.000 
#
# Total GULP energy -222943.661509 kJ/mol
# GULP energy per Si atom -5573.591538 kJ/mol
# Density = 2.251208 g / cm^3
# Si number density = 22.563437 Si / 1000 Ang^3
#
#
#
# Elastic Constant Matrix: (Units=GPa)
#
#
# Indices 1 2 3 4 5 6 
#
# 1 97.9093 1.6070 13.3739 0.0000 0.0000 0.0000
# 2 1.6070 108.9671 47.8587 0.0000 0.0000 0.0000
# 3 13.3739 47.8587 102.0094 0.0000 0.0000 0.0000
# 4 0.0000 0.0000 0.0000 7.9383 0.0000 0.0000
# 5 0.0000 0.0000 0.0000 0.0000 87.6613 0.0000
# 6 0.0000 0.0000 0.0000 0.0000 0.0000 11.0604
#
#
#
# Elastic Compliance Matrix: (Units=1/GPa)
#
#
# Indices 1 2 3 4 5 6 
#
# 1 0.010427 0.000563 -0.001631 0.000000 0.000000 0.000000
# 2 0.000563 0.011589 -0.005511 0.000000 0.000000 0.000000
# 3 -0.001631 -0.005511 0.012602 0.000000 0.000000 0.000000
# 4 0.000000 0.000000 0.000000 0.125972 0.000000 0.000000
# 5 0.000000 0.000000 0.000000 0.000000 0.011408 0.000000
# 6 0.000000 0.000000 0.000000 0.000000 0.000000 0.090412
#
#
# Mechanical properties :
#
#
# Convention : Reuss Voigt Hill
#
# Bulk Modulus (GPa) = 46.59848 48.28502 47.44175
# Shear Modulus (GPa) = 17.68519 37.73508 27.71014
#
# Velocity S-wave (km/s) = 2.80268 4.09393 3.50823
# Velocity P-wave (km/s) = 5.58304 6.61764 6.12224
#
# Compressibility (1/GPa) = 0.02145993
#
# Stress axis : x y z
#
# Youngs Moduli (GPa) = 95.90413 86.28708 79.35019
#
# Poissons Ratio (x) = -0.04854 0.12942
# Poissons Ratio (y) = -0.05395 0.43730
# Poissons Ratio (z) = 0.15642 0.47552
#
# Static dielectric constant tensor:
#      x y z
#    x 1.923510 0.000000 0.000000 
#    y 0.000000 2.022230 0.000000 
#    z 0.000000 0.000000 1.926560 
# 
# From -- ./inp_files/10536.got.cif
#   From: 2010.05.17/outbox.cif.g08.bks.cpg/sg56_6_cif.got.tgz:10536.got - 2010.06.03 13:42:01.
