data_PCOD9431352
_publ_section_title
;
Structure prediction by ZEFSAII (Michael W. Deem and Ramdas Pophale) SiO2 
 PCOD9431352
Probable space group: P C C N
;
_chemical_formula_sum "Si O2"
_cell_formula_units_Z 40
_cell_length_a 8.203807
_cell_length_b 18.200001
_cell_length_c 12.963218
_cell_angle_alpha 90.000000
_cell_angle_beta 90.000000
_cell_angle_gamma 90.000000
_cell_volume 1935.528948
_symmetry_space_group_name_H-M "P C C N"
_symmetry_group_IT_number 56
_symmetry_cell_setting 'orthorhombic'
loop_
_space_group_symop_operation_xyz
x,y,z
1/2-x,1/2-y,z
1/2+x,-y,1/2-z
-x,1/2+y,1/2-z
-x,-y,-z
1/2+x,1/2+y,-z
1/2-x,y,1/2+z
x,1/2-y,1/2+z
loop_
_atom_site_type_symbol
_atom_site_label
_atom_site_fract_x
_atom_site_fract_y
_atom_site_fract_z
Si Si1 0.598790 0.014233 0.825195
Si Si2 0.587512 0.113903 0.279138
Si Si3 0.380515 0.305878 0.944666
Si Si4 0.088708 0.704640 0.929478
Si Si5 0.110114 0.419766 0.971062
O O1 0.743559 0.069001 0.794267
O O2 0.429855 0.055117 0.855168
O O3 0.549180 0.947977 0.749375
O O4 0.631348 0.979733 0.938982
O O5 0.525400 0.163487 0.373864
O O6 0.600514 0.169822 0.183333
O O7 0.250000 0.250000 0.891184
O O8 0.274628 0.374776 0.975878
O O9 0.446974 0.262468 0.043818
O O10 0.250000 0.750000 0.954155
O O11 0.039201 0.634792 0.999333
#
# Coordination Sequence:
#
# PCOD9431352 Si02
#       5
#     8   8   8   8   8
#     4  10  21  37  58  88 119 154 201 244 297 359
#     4  11  23  37  61  90 120 159 200 247 299 360
#     4  10  22  39  59  83 117 155 193 243 300 352
#     4  10  22  38  57  84 115 151 197 243 293 355
#     4   9  20  39  59  82 119 156 193 247 300 357
#
# _framework density 20.666187000000001
#
# number of rings (size 3 to 8) (size 9 to 14) (size 15 to 20)
#    0.000    2.000    0.000    2.400    0.000   10.400 
#    0.000    0.000    0.000    0.000    0.000    0.000 
#    0.000    0.000    0.000    0.000    0.000    0.000 
#
# Total GULP energy -222797.977698 kJ/mol
# GULP energy per Si atom -5569.949442 kJ/mol
# Density = 2.061915 g / cm^3
# Si number density = 20.666187 Si / 1000 Ang^3
#
#
#
# Elastic Constant Matrix: (Units=GPa)
#
#
# Indices 1 2 3 4 5 6 
#
# 1 93.7748 52.3032 35.8608 0.0000 0.0000 0.0000
# 2 52.3032 98.1777 44.7352 0.0000 0.0000 0.0000
# 3 35.8608 44.7352 69.6256 0.0000 0.0000 0.0000
# 4 0.0000 0.0000 0.0000 27.7323 0.0000 0.0000
# 5 0.0000 0.0000 0.0000 0.0000 13.4786 0.0000
# 6 0.0000 0.0000 0.0000 0.0000 0.0000 47.0179
#
#
#
# Elastic Compliance Matrix: (Units=1/GPa)
#
#
# Indices 1 2 3 4 5 6 
#
# 1 0.015880 -0.006692 -0.003879 0.000000 0.000000 0.000000
# 2 -0.006692 0.017222 -0.007619 0.000000 0.000000 0.000000
# 3 -0.003879 -0.007619 0.021256 0.000000 0.000000 0.000000
# 4 0.000000 0.000000 0.000000 0.036059 0.000000 0.000000
# 5 0.000000 0.000000 0.000000 0.000000 0.074192 0.000000
# 6 0.000000 0.000000 0.000000 0.000000 0.000000 0.021268
#
#
# Mechanical properties :
#
#
# Convention : Reuss Voigt Hill
#
# Bulk Modulus (GPa) = 55.62458 58.59740 57.11099
# Shear Modulus (GPa) = 21.90582 26.22436 24.06509
#
# Velocity S-wave (km/s) = 3.25927 3.56610 3.41613
# Velocity P-wave (km/s) = 6.41389 6.73586 6.57685
#
# Compressibility (1/GPa) = 0.01797766
#
# Stress axis : x y z
#
# Youngs Moduli (GPa) = 62.97250 58.06399 47.04654
#
# Poissons Ratio (x) = 0.38858 0.18250
# Poissons Ratio (y) = 0.42143 0.35843
# Poissons Ratio (z) = 0.24428 0.44237
#
# Static dielectric constant tensor:
#      x y z
#    x 1.795600 0.000000 0.000000 
#    y 0.000000 1.812500 0.000000 
#    z 0.000000 0.000000 1.726500 
# 
# From -- ./inp_files/6174.got.cif
#   From: 2010.05.17/outbox.cif.g08.bks.cpg/sg56_4_cif.got.tgz:6174.got - 2010.06.03 13:42:01.
