data_PCOD9431808
_publ_section_title
;
Structure prediction by ZEFSAII (Michael W. Deem and Ramdas Pophale) SiO2 
 PCOD9431808
Probable space group: P C C N
;
_chemical_formula_sum "Si O2"
_cell_formula_units_Z 60
_cell_length_a 8.447260
_cell_length_b 10.936830
_cell_length_c 25.846468
_cell_angle_alpha 90.000000
_cell_angle_beta 90.000000
_cell_angle_gamma 90.000000
_cell_volume 2387.858166
_symmetry_space_group_name_H-M "P C C N"
_symmetry_group_IT_number 56
_symmetry_cell_setting 'orthorhombic'
loop_
_space_group_symop_operation_xyz
x,y,z
1/2-x,1/2-y,z
1/2+x,-y,1/2-z
-x,1/2+y,1/2-z
-x,-y,-z
1/2+x,1/2+y,-z
1/2-x,y,1/2+z
x,1/2-y,1/2+z
loop_
_atom_site_type_symbol
_atom_site_label
_atom_site_fract_x
_atom_site_fract_y
_atom_site_fract_z
Si Si1 0.476622 0.203247 0.868379
Si Si2 0.803580 0.469758 0.177928
Si Si3 0.427204 0.691844 0.231789
Si Si4 0.767419 0.002963 0.372198
Si Si5 0.083868 0.092838 0.036672
Si Si6 0.750000 0.750000 0.038833
Si Si7 0.473889 0.795987 0.892398
Si Si8 0.041407 0.392610 0.698957
O O1 0.516339 0.310119 0.827715
O O2 0.638735 0.128023 0.874616
O O3 0.398755 0.241926 0.922310
O O4 0.358918 0.099903 0.843714
O O5 0.914622 0.416744 0.224999
O O6 0.625189 0.464077 0.198326
O O7 0.824602 0.372710 0.130068
O O8 0.250000 0.750000 0.233452
O O9 0.541958 0.798606 0.254037
O O10 0.630907 0.986791 0.413712
O O11 0.890626 0.898748 0.390112
O O12 0.695941 0.970585 0.315804
O O13 0.985881 0.212929 0.056209
O O14 0.228751 0.139232 0.001099
O O15 0.000000 0.000000 0.000000
O O16 0.523972 0.701169 0.848471
#
# Coordination Sequence:
#
# PCOD9431808 Si02
#       8
#     8   8   8   8   8   4   8   8
#     4  11  26  45  66  98 141 191 218 300 356 416
#     4   9  20  41  69 101 133 178 231 275 352 414
#     4   9  20  42  63  98 138 177 229 278 335 419
#     4  10  21  42  69  96 134 181 232 282 359 410
#     4  11  23  43  71  98 131 185 228 294 363 422
#     4  12  28  50  62 102 152 170 254 302 360 432
#     4   9  17  38  65  98 131 170 227 287 335 413
#     4   9  17  34  66 100 132 167 227 288 319 420
#
# _framework density 25.127123000000001
#
# number of rings (size 3 to 8) (size 9 to 14) (size 15 to 20)
#    0.000    2.133    1.333    2.400    3.733    3.733 
#   12.000    1.333    0.000    0.000    0.000    0.000 
#    0.000    0.000    0.000    0.000    0.000    0.000 
#
# Total GULP energy -335315.840924 kJ/mol
# GULP energy per Si atom -5588.597349 kJ/mol
# Density = 2.506993 g / cm^3
# Si number density = 25.127123 Si / 1000 Ang^3
#
#
#
# Elastic Constant Matrix: (Units=GPa)
#
#
# Indices 1 2 3 4 5 6 
#
# 1 63.5950 22.5737 25.3671 0.0000 0.0000 0.0000
# 2 22.5737 100.1255 33.3598 0.0000 0.0000 0.0000
# 3 25.3671 33.3598 133.2269 0.0000 0.0000 0.0000
# 4 0.0000 0.0000 0.0000 40.8743 0.0000 0.0000
# 5 0.0000 0.0000 0.0000 0.0000 45.7374 0.0000
# 6 0.0000 0.0000 0.0000 0.0000 0.0000 46.8535
#
#
#
# Elastic Compliance Matrix: (Units=1/GPa)
#
#
# Indices 1 2 3 4 5 6 
#
# 1 0.017890 -0.003162 -0.002615 0.000000 0.000000 0.000000
# 2 -0.003162 0.011456 -0.002266 0.000000 0.000000 0.000000
# 3 -0.002615 -0.002266 0.008571 0.000000 0.000000 0.000000
# 4 0.000000 0.000000 0.000000 0.024465 0.000000 0.000000
# 5 0.000000 0.000000 0.000000 0.000000 0.021864 0.000000
# 6 0.000000 0.000000 0.000000 0.000000 0.000000 0.021343
#
#
# Mechanical properties :
#
#
# Convention : Reuss Voigt Hill
#
# Bulk Modulus (GPa) = 45.80746 51.06096 48.43421
# Shear Modulus (GPa) = 38.77413 41.06950 39.92182
#
# Velocity S-wave (km/s) = 3.93252 4.04724 3.99029
# Velocity P-wave (km/s) = 6.23614 6.49657 6.36769
#
# Compressibility (1/GPa) = 0.02183051
#
# Stress axis : x y z
#
# Youngs Moduli (GPa) = 55.89757 87.29430 116.66846
#
# Poissons Ratio (x) = 0.27604 0.30503
# Poissons Ratio (y) = 0.17676 0.26441
# Poissons Ratio (z) = 0.14614 0.19784
#
# Static dielectric constant tensor:
#      x y z
#    x 2.433630 0.000000 0.000000 
#    y 0.000000 6.176560 0.000000 
#    z 0.000000 0.000000 2.006000 
# 
# From -- ./inp_files/22117.got.cif
#   From: 2010.05.17/outbox.cif.g08.bks.cpg/sg56_12_cif.got.tgz:22117.got - 2010.06.03 13:42:01.
