data_PCOD9431398
_publ_section_title
;
Structure prediction by ZEFSAII (Michael W. Deem and Ramdas Pophale) SiO2 
 PCOD9431398
Probable space group: P C C N
;
_chemical_formula_sum "Si O2"
_cell_formula_units_Z 44
_cell_length_a 8.096595
_cell_length_b 9.058614
_cell_length_c 30.206109
_cell_angle_alpha 90.000000
_cell_angle_beta 90.000000
_cell_angle_gamma 90.000000
_cell_volume 2215.434708
_symmetry_space_group_name_H-M "P C C N"
_symmetry_group_IT_number 56
_symmetry_cell_setting 'orthorhombic'
loop_
_space_group_symop_operation_xyz
x,y,z
1/2-x,1/2-y,z
1/2+x,-y,1/2-z
-x,1/2+y,1/2-z
-x,-y,-z
1/2+x,1/2+y,-z
1/2-x,y,1/2+z
x,1/2-y,1/2+z
loop_
_atom_site_type_symbol
_atom_site_label
_atom_site_fract_x
_atom_site_fract_y
_atom_site_fract_z
Si Si1 0.230330 0.085971 0.415121
Si Si2 0.914572 0.891440 0.423358
Si Si3 0.046625 0.070784 0.046850
Si Si4 0.750000 0.750000 0.751365
Si Si5 0.752843 0.502043 0.681583
Si Si6 0.500689 0.762844 0.826088
O O1 0.250000 0.250000 0.433947
O O2 0.396063 0.992903 0.424168
O O3 0.210027 0.092534 0.362269
O O4 0.064206 0.004489 0.430662
O O5 0.733672 0.957941 0.434789
O O6 0.952815 0.748477 0.453323
O O7 0.924356 0.824034 0.372700
O O8 0.000000 0.000000 0.000000
O O9 0.800572 0.613792 0.720157
O O10 0.612672 0.704006 0.786573
O O11 0.880135 0.374977 0.666492
O O12 0.594239 0.404115 0.693808
#
# Coordination Sequence:
#
# PCOD9431398 Si02
#       6
#     8   8   8   4   8   8
#     4  11  23  43  67  92 133 175 212 273 332 390
#     4  10  23  46  68  94 127 180 224 261 334 413
#     4  11  24  42  69 100 125 164 224 275 330 400
#     4  12  20  34  60  94 126 158 214 274 316 384
#     4  10  21  38  58  89 124 164 214 261 323 380
#     4  10  21  38  62  85 123 173 211 257 325 396
#
# _framework density 19.860662999999999
#
# number of rings (size 3 to 8) (size 9 to 14) (size 15 to 20)
#    0.000    1.455    2.727    2.727    2.545    1.455 
#    3.273    0.000    0.000    0.000    0.000    0.000 
#    0.000    0.000    0.000    0.000    0.000    0.000 
#
# Total GULP energy -245037.990122 kJ/mol
# GULP energy per Si atom -5569.045230 kJ/mol
# Density = 1.981546 g / cm^3
# Si number density = 19.860663 Si / 1000 Ang^3
#
#
#
# Elastic Constant Matrix: (Units=GPa)
#
#
# Indices 1 2 3 4 5 6 
#
# 1 141.1317 63.4725 25.9725 0.0000 0.0000 0.0000
# 2 63.4725 102.1433 25.6928 0.0000 0.0000 0.0000
# 3 25.9725 25.6928 92.3421 0.0000 0.0000 0.0000
# 4 0.0000 0.0000 0.0000 33.2350 0.0000 0.0000
# 5 0.0000 0.0000 0.0000 0.0000 31.1309 0.0000
# 6 0.0000 0.0000 0.0000 0.0000 0.0000 24.5758
#
#
#
# Elastic Compliance Matrix: (Units=1/GPa)
#
#
# Indices 1 2 3 4 5 6 
#
# 1 0.009948 -0.005890 -0.001159 0.000000 0.000000 0.000000
# 2 -0.005890 0.014014 -0.002243 0.000000 0.000000 0.000000
# 3 -0.001159 -0.002243 0.011779 0.000000 0.000000 0.000000
# 4 0.000000 0.000000 0.000000 0.030089 0.000000 0.000000
# 5 0.000000 0.000000 0.000000 0.000000 0.032122 0.000000
# 6 0.000000 0.000000 0.000000 0.000000 0.000000 0.040691
#
#
# Mechanical properties :
#
#
# Convention : Reuss Voigt Hill
#
# Bulk Modulus (GPa) = 58.28238 62.87696 60.57967
# Shear Modulus (GPa) = 30.68494 32.48696 31.58595
#
# Velocity S-wave (km/s) = 3.93493 4.04882 3.99228
# Velocity P-wave (km/s) = 7.07490 7.32018 7.19858
#
# Compressibility (1/GPa) = 0.01715785
#
# Stress axis : x y z
#
# Youngs Moduli (GPa) = 100.52349 71.35498 84.89463
#
# Poissons Ratio (x) = 0.42029 0.09841
# Poissons Ratio (y) = 0.59210 0.19039
# Poissons Ratio (z) = 0.11652 0.16002
#
# Static dielectric constant tensor:
#      x y z
#    x 1.675440 0.000000 0.000000 
#    y 0.000000 1.684350 0.000000 
#    z 0.000000 0.000000 1.756840 
# 
# From -- ./inp_files/23143.got.cif
#   From: 2010.05.17/outbox.cif.g08.bks.cpg/sg56_12_cif.got.tgz:23143.got - 2010.06.03 13:42:01.
