data_PCOD9431102
_publ_section_title
;
Structure prediction by ZEFSAII (Michael W. Deem and Ramdas Pophale) SiO2 
 PCOD9431102
Probable space group: P C C N
;
_chemical_formula_sum "Si O2"
_cell_formula_units_Z 48
_cell_length_a 7.999858
_cell_length_b 11.154056
_cell_length_c 23.953437
_cell_angle_alpha 90.000000
_cell_angle_beta 90.000000
_cell_angle_gamma 90.000000
_cell_volume 2137.385882
_symmetry_space_group_name_H-M "P C C N"
_symmetry_group_IT_number 56
_symmetry_cell_setting 'orthorhombic'
loop_
_space_group_symop_operation_xyz
x,y,z
1/2-x,1/2-y,z
1/2+x,-y,1/2-z
-x,1/2+y,1/2-z
-x,-y,-z
1/2+x,1/2+y,-z
1/2-x,y,1/2+z
x,1/2-y,1/2+z
loop_
_atom_site_type_symbol
_atom_site_label
_atom_site_fract_x
_atom_site_fract_y
_atom_site_fract_z
Si Si1 0.323102 0.546278 0.683317
Si Si2 0.872637 0.397035 0.020074
Si Si3 0.685316 0.559894 0.093491
Si Si4 0.931510 0.699374 0.875054
Si Si5 0.461271 0.570692 0.806741
Si Si6 0.528289 0.287467 0.408353
O O1 0.404005 0.427021 0.655761
O O2 0.397273 0.573385 0.743982
O O3 0.129395 0.509590 0.689962
O O4 0.368360 0.655719 0.642576
O O5 0.708539 0.464409 0.043377
O O6 0.950802 0.324572 0.072044
O O7 0.000000 0.500000 0.000000
O O8 0.878281 0.319481 0.964956
O O9 0.670794 0.489563 0.151496
O O10 0.852648 0.639234 0.093155
O O11 0.528383 0.649329 0.090682
O O12 0.750000 0.750000 0.894202
O O13 0.999913 0.798422 0.832101
#
# Coordination Sequence:
#
# PCOD9431102 Si02
#       6
#     8   8   8   8   8   8
#     4  11  23  45  65 101 133 182 228 290 353 419
#     4  10  20  40  71  96 132 182 232 276 340 421
#     4  10  22  41  64 103 132 179 227 282 348 412
#     4  10  23  42  69  97 132 181 231 280 349 414
#     4  11  26  43  68  98 142 174 235 294 347 425
#     4  10  22  41  72  95 136 182 232 280 349 422
#
# _framework density 22.457339999999999
#
# number of rings (size 3 to 8) (size 9 to 14) (size 15 to 20)
#    0.000    1.667    3.333    1.000    7.000    1.333 
#    0.000    5.000    0.000    0.000    0.000    0.000 
#    0.000    0.000    0.000    0.000    0.000    0.000 
#
# Total GULP energy -268415.166082 kJ/mol
# GULP energy per Si atom -5591.982627 kJ/mol
# Density = 2.240623 g / cm^3
# Si number density = 22.457340 Si / 1000 Ang^3
#
#
#
# Elastic Constant Matrix: (Units=GPa)
#
#
# Indices 1 2 3 4 5 6 
#
# 1 93.4918 69.3435 71.5780 0.0000 0.0000 0.0000
# 2 69.3435 133.1434 80.9595 0.0000 0.0000 0.0000
# 3 71.5780 80.9595 212.1296 0.0000 0.0000 0.0000
# 4 0.0000 0.0000 0.0000 26.8405 0.0000 0.0000
# 5 0.0000 0.0000 0.0000 0.0000 5.5428 0.0000
# 6 0.0000 0.0000 0.0000 0.0000 0.0000 40.2539
#
#
#
# Elastic Compliance Matrix: (Units=1/GPa)
#
#
# Indices 1 2 3 4 5 6 
#
# 1 0.019206 -0.007894 -0.003468 0.000000 0.000000 0.000000
# 2 -0.007894 0.013025 -0.002307 0.000000 0.000000 0.000000
# 3 -0.003468 -0.002307 0.006765 0.000000 0.000000 0.000000
# 4 0.000000 0.000000 0.000000 0.037257 0.000000 0.000000
# 5 0.000000 0.000000 0.000000 0.000000 0.180416 0.000000
# 6 0.000000 0.000000 0.000000 0.000000 0.000000 0.024842
#
#
# Mechanical properties :
#
#
# Convention : Reuss Voigt Hill
#
# Bulk Modulus (GPa) = 85.78250 98.05854 91.92052
# Shear Modulus (GPa) = 15.98789 28.98634 22.48712
#
# Velocity S-wave (km/s) = 2.67108 3.59657 3.16781
# Velocity P-wave (km/s) = 6.91331 7.81065 7.37564
#
# Compressibility (1/GPa) = 0.01165739
#
# Stress axis : x y z
#
# Youngs Moduli (GPa) = 52.06574 76.77393 147.82322
#
# Poissons Ratio (x) = 0.60609 0.51263
# Poissons Ratio (y) = 0.41103 0.34108
# Poissons Ratio (z) = 0.18056 0.17714
#
# Static dielectric constant tensor:
#      x y z
#    x 1.837840 0.000000 0.000000 
#    y 0.000000 1.829110 0.000000 
#    z 0.000000 0.000000 1.761170 
# 
# From -- ./inp_files/20498.got.cif
#   From: 2010.05.17/outbox.cif.g08.bks.cpg/sg56_11_cif.got.tgz:20498.got - 2010.06.03 13:42:01.
