data_PCOD9431656
_publ_section_title
;
Structure prediction by ZEFSAII (Michael W. Deem and Ramdas Pophale) SiO2 
 PCOD9431656
Probable space group: P C C N
;
_chemical_formula_sum "Si O2"
_cell_formula_units_Z 40
_cell_length_a 18.821621
_cell_length_b 6.326680
_cell_length_c 14.828668
_cell_angle_alpha 90.000000
_cell_angle_beta 90.000000
_cell_angle_gamma 90.000000
_cell_volume 1765.773661
_symmetry_space_group_name_H-M "P C C N"
_symmetry_group_IT_number 56
_symmetry_cell_setting 'orthorhombic'
loop_
_space_group_symop_operation_xyz
x,y,z
1/2-x,1/2-y,z
1/2+x,-y,1/2-z
-x,1/2+y,1/2-z
-x,-y,-z
1/2+x,1/2+y,-z
1/2-x,y,1/2+z
x,1/2-y,1/2+z
loop_
_atom_site_type_symbol
_atom_site_label
_atom_site_fract_x
_atom_site_fract_y
_atom_site_fract_z
Si Si1 0.812613 0.906565 0.129462
Si Si2 0.929680 0.176745 0.195021
Si Si3 0.176624 0.708604 0.538400
Si Si4 0.416881 0.053091 0.944713
Si Si5 0.532576 0.339919 0.887430
O O1 0.750000 0.750000 0.160267
O O2 0.868442 0.745332 0.087709
O O3 0.855241 0.049991 0.200677
O O4 0.797296 0.072291 0.048316
O O5 0.922021 0.392329 0.139716
O O6 0.959209 0.215511 0.293748
O O7 0.983134 0.036967 0.135415
O O8 0.250000 0.750000 0.590595
O O9 0.111034 0.586133 0.584061
O O10 0.133310 0.923551 0.514315
O O11 0.492130 0.180750 0.956564
#
# Coordination Sequence:
#
# PCOD9431656 Si02
#       5
#     8   8   8   8   8
#     4  10  21  41  64  89 122 165 208 247 310 373
#     4  10  22  39  64  91 123 164 207 251 304 376
#     4  11  23  40  62  94 122 159 204 260 313 370
#     4  10  21  40  67  87 121 162 205 253 304 373
#     4  11  22  41  62  93 124 162 209 259 310 365
#
# _framework density 22.652961999999999
#
# number of rings (size 3 to 8) (size 9 to 14) (size 15 to 20)
#    0.000    1.600    4.000    0.600    0.000    8.800 
#    3.600    0.000    0.000    0.000    0.000    0.000 
#    0.000    0.000    0.000    0.000    0.000    0.000 
#
# Total GULP energy -223002.393812 kJ/mol
# GULP energy per Si atom -5575.059845 kJ/mol
# Density = 2.260140 g / cm^3
# Si number density = 22.652962 Si / 1000 Ang^3
#
#
#
# Elastic Constant Matrix: (Units=GPa)
#
#
# Indices 1 2 3 4 5 6 
#
# 1 170.5050 40.5396 8.2883 0.0000 0.0000 0.0000
# 2 40.5396 102.9292 18.3723 0.0000 0.0000 0.0000
# 3 8.2883 18.3723 35.6450 0.0000 0.0000 0.0000
# 4 0.0000 0.0000 0.0000 20.4586 0.0000 0.0000
# 5 0.0000 0.0000 0.0000 0.0000 20.5490 0.0000
# 6 0.0000 0.0000 0.0000 0.0000 0.0000 43.1646
#
#
#
# Elastic Compliance Matrix: (Units=1/GPa)
#
#
# Indices 1 2 3 4 5 6 
#
# 1 0.006472 -0.002512 -0.000210 0.000000 0.000000 0.000000
# 2 -0.002512 0.011674 -0.005433 0.000000 0.000000 0.000000
# 3 -0.000210 -0.005433 0.030904 0.000000 0.000000 0.000000
# 4 0.000000 0.000000 0.000000 0.048879 0.000000 0.000000
# 5 0.000000 0.000000 0.000000 0.000000 0.048664 0.000000
# 6 0.000000 0.000000 0.000000 0.000000 0.000000 0.023167
#
#
# Mechanical properties :
#
#
# Convention : Reuss Voigt Hill
#
# Bulk Modulus (GPa) = 30.54373 49.27553 39.90963
# Shear Modulus (GPa) = 25.38263 32.95970 29.17116
#
# Velocity S-wave (km/s) = 3.35102 3.81856 3.59240
# Velocity P-wave (km/s) = 5.33714 6.42195 5.90451
#
# Compressibility (1/GPa) = 0.03273995
#
# Stress axis : x y z
#
# Youngs Moduli (GPa) = 154.50391 85.65708 32.35843
#
# Poissons Ratio (x) = 0.21514 0.00681
# Poissons Ratio (y) = 0.38806 0.17581
# Poissons Ratio (z) = 0.03251 0.46540
#
# Static dielectric constant tensor:
#      x y z
#    x 1.965250 0.000000 0.000000 
#    y 0.000000 1.836880 0.000000 
#    z 0.000000 0.000000 1.835520 
# 
# From -- ./inp_files/13811.got.cif
#   From: 2010.05.17/outbox.cif.g08.bks.cpg/sg56_7_cif.got.tgz:13811.got - 2010.06.03 13:42:01.
