data_PCOD9431337
_publ_section_title
;
Structure prediction by ZEFSAII (Michael W. Deem and Ramdas Pophale) SiO2 
 PCOD9431337
Probable space group: P C C N
;
_chemical_formula_sum "Si O2"
_cell_formula_units_Z 40
_cell_length_a 23.453487
_cell_length_b 8.107954
_cell_length_c 8.916456
_cell_angle_alpha 90.000000
_cell_angle_beta 90.000000
_cell_angle_gamma 90.000000
_cell_volume 1695.551434
_symmetry_space_group_name_H-M "P C C N"
_symmetry_group_IT_number 56
_symmetry_cell_setting 'orthorhombic'
loop_
_space_group_symop_operation_xyz
x,y,z
1/2-x,1/2-y,z
1/2+x,-y,1/2-z
-x,1/2+y,1/2-z
-x,-y,-z
1/2+x,1/2+y,-z
1/2-x,y,1/2+z
x,1/2-y,1/2+z
loop_
_atom_site_type_symbol
_atom_site_label
_atom_site_fract_x
_atom_site_fract_y
_atom_site_fract_z
Si Si1 0.554435 0.989264 0.790236
Si Si2 0.447417 0.303467 0.399577
Si Si3 0.329914 0.440146 0.273464
Si Si4 0.240311 0.489233 0.513827
Si Si5 0.325242 0.836054 0.249210
O O1 0.547863 0.889183 0.636203
O O2 0.502162 0.108757 0.826157
O O3 0.613765 0.085435 0.785537
O O4 0.555232 0.858783 0.927915
O O5 0.390035 0.367153 0.319075
O O6 0.284220 0.403628 0.402050
O O7 0.332558 0.639451 0.257671
O O8 0.302096 0.383425 0.117516
O O9 0.200348 0.600792 0.406832
O O10 0.280854 0.594041 0.626271
#
# Coordination Sequence:
#
# PCOD9431337 Si02
#       5
#     8   8   8   8   8
#     4  11  26  47  67  94 127 166 214 267 323 383
#     4  11  26  47  67  94 127 166 214 267 323 383
#     4  11  20  39  66  98 130 171 213 264 307 376
#     4  10  21  36  65  98 133 172 217 252 311 372
#     4  11  20  39  66  98 130 171 213 264 307 376
#
# _framework density 23.591145999999998
#
# number of rings (size 3 to 8) (size 9 to 14) (size 15 to 20)
#    0.000    1.200    2.000    6.000    2.800    0.800 
#    0.000    6.000    0.000    0.000    0.000    0.000 
#    0.000    0.000    0.000    0.000    0.000    0.000 
#
# Total GULP energy -224159.914651 kJ/mol
# GULP energy per Si atom -5603.997866 kJ/mol
# Density = 2.353745 g / cm^3
# Si number density = 23.591146 Si / 1000 Ang^3
#
#
#
# Elastic Constant Matrix: (Units=GPa)
#
#
# Indices 1 2 3 4 5 6 
#
# 1 126.1050 7.9322 27.8551 0.0000 0.0000 0.0000
# 2 7.9322 48.8550 14.8535 0.0000 0.0000 0.0000
# 3 27.8551 14.8535 108.5650 0.0000 0.0000 0.0000
# 4 0.0000 0.0000 0.0000 28.3087 0.0000 0.0000
# 5 0.0000 0.0000 0.0000 0.0000 32.4800 0.0000
# 6 0.0000 0.0000 0.0000 0.0000 0.0000 30.4955
#
#
#
# Elastic Compliance Matrix: (Units=1/GPa)
#
#
# Indices 1 2 3 4 5 6 
#
# 1 0.008432 -0.000742 -0.002062 0.000000 0.000000 0.000000
# 2 -0.000742 0.021422 -0.002741 0.000000 0.000000 0.000000
# 3 -0.002062 -0.002741 0.010115 0.000000 0.000000 0.000000
# 4 0.000000 0.000000 0.000000 0.035325 0.000000 0.000000
# 5 0.000000 0.000000 0.000000 0.000000 0.030788 0.000000
# 6 0.000000 0.000000 0.000000 0.000000 0.000000 0.032792
#
#
# Mechanical properties :
#
#
# Convention : Reuss Voigt Hill
#
# Bulk Modulus (GPa) = 34.62562 42.75628 38.69095
# Shear Modulus (GPa) = 31.33022 33.78244 32.55633
#
# Velocity S-wave (km/s) = 3.64820 3.78828 3.71890
# Velocity P-wave (km/s) = 5.69693 6.10720 5.90563
#
# Compressibility (1/GPa) = 0.02888035
#
# Stress axis : x y z
#
# Youngs Moduli (GPa) = 118.59534 46.68001 98.86253
#
# Poissons Ratio (x) = 0.03464 0.20385
# Poissons Ratio (y) = 0.08802 0.27094
# Poissons Ratio (z) = 0.24453 0.12793
#
# Static dielectric constant tensor:
#      x y z
#    x 1.825120 0.000000 0.000000 
#    y 0.000000 1.903850 0.000000 
#    z 0.000000 0.000000 1.900000 
# 
# From -- ./inp_files/2037.got.cif
#   From: 2010.05.17/outbox.cif.g08.bks.cpg/sg56_2_cif.got.tgz:2037.got - 2010.06.03 13:42:01.
