data_PCOD9432224
_publ_section_title
;
Structure prediction by ZEFSAII (Michael W. Deem and Ramdas Pophale) SiO2 
 PCOD9432224
Probable space group: P C C N
;
_chemical_formula_sum "Si O2"
_cell_formula_units_Z 40
_cell_length_a 19.010456
_cell_length_b 9.519485
_cell_length_c 9.967653
_cell_angle_alpha 90.000000
_cell_angle_beta 90.000000
_cell_angle_gamma 90.000000
_cell_volume 1803.843679
_symmetry_space_group_name_H-M "P C C N"
_symmetry_group_IT_number 56
_symmetry_cell_setting 'orthorhombic'
loop_
_space_group_symop_operation_xyz
x,y,z
1/2-x,1/2-y,z
1/2+x,-y,1/2-z
-x,1/2+y,1/2-z
-x,-y,-z
1/2+x,1/2+y,-z
1/2-x,y,1/2+z
x,1/2-y,1/2+z
loop_
_atom_site_type_symbol
_atom_site_label
_atom_site_fract_x
_atom_site_fract_y
_atom_site_fract_z
Si Si1 0.334993 0.033697 0.179791
Si Si2 0.769328 0.586364 0.086387
Si Si3 0.928675 0.417517 0.462173
Si Si4 0.613558 0.649293 0.796406
Si Si5 0.947638 0.313131 0.742728
O O1 0.288827 0.021917 0.314503
O O2 0.360048 0.195084 0.170797
O O3 0.402992 0.936082 0.187411
O O4 0.286726 0.007595 0.050726
O O5 0.750000 0.750000 0.059718
O O6 0.840858 0.593289 0.173577
O O7 0.877340 0.545153 0.423159
O O8 0.918817 0.316575 0.589732
O O9 0.936123 0.326861 0.327870
O O10 0.000000 0.500000 0.500000
O O11 0.531100 0.658002 0.760226
#
# Coordination Sequence:
#
# PCOD9432224 Si02
#       5
#     8   8   8   8   8
#     4  11  25  43  74 103 142 187 244 293 363 429
#     4  10  23  41  70 104 140 188 242 290 354 429
#     4  10  24  44  65 103 147 178 226 292 364 425
#     4  10  22  41  73 104 142 179 242 299 353 426
#     4  11  25  43  71 105 142 186 235 303 366 417
#
# _framework density 22.174872000000001
#
# number of rings (size 3 to 8) (size 9 to 14) (size 15 to 20)
#    0.000    1.600    0.000    4.200   16.800    0.800 
#    0.000    1.000    0.000    0.000    0.000    0.000 
#    0.000    0.000    0.000    0.000    0.000    0.000 
#
# Total GULP energy -223605.418532 kJ/mol
# GULP energy per Si atom -5590.135463 kJ/mol
# Density = 2.212440 g / cm^3
# Si number density = 22.174872 Si / 1000 Ang^3
#
#
#
# Elastic Constant Matrix: (Units=GPa)
#
#
# Indices 1 2 3 4 5 6 
#
# 1 116.1332 20.6998 35.9020 0.0000 0.0000 0.0000
# 2 20.6998 72.2372 48.1304 0.0000 0.0000 0.0000
# 3 35.9020 48.1304 125.4297 0.0000 0.0000 0.0000
# 4 0.0000 0.0000 0.0000 37.4274 0.0000 0.0000
# 5 0.0000 0.0000 0.0000 0.0000 38.8544 0.0000
# 6 0.0000 0.0000 0.0000 0.0000 0.0000 26.2796
#
#
#
# Elastic Compliance Matrix: (Units=1/GPa)
#
#
# Indices 1 2 3 4 5 6 
#
# 1 0.009527 -0.001227 -0.002256 0.000000 0.000000 0.000000
# 2 -0.001227 0.018756 -0.006846 0.000000 0.000000 0.000000
# 3 -0.002256 -0.006846 0.011245 0.000000 0.000000 0.000000
# 4 0.000000 0.000000 0.000000 0.026718 0.000000 0.000000
# 5 0.000000 0.000000 0.000000 0.000000 0.025737 0.000000
# 6 0.000000 0.000000 0.000000 0.000000 0.000000 0.038052
#
#
# Mechanical properties :
#
#
# Convention : Reuss Voigt Hill
#
# Bulk Modulus (GPa) = 52.99257 58.14050 55.56654
# Shear Modulus (GPa) = 31.85025 34.45013 33.15019
#
# Velocity S-wave (km/s) = 3.79400 3.94581 3.87065
# Velocity P-wave (km/s) = 6.56826 6.85822 6.71480
#
# Compressibility (1/GPa) = 0.01887057
#
# Stress axis : x y z
#
# Youngs Moduli (GPa) = 104.96539 53.31561 88.92522
#
# Poissons Ratio (x) = 0.06540 0.20063
# Poissons Ratio (y) = 0.12876 0.60879
# Poissons Ratio (z) = 0.23682 0.36500
#
# Static dielectric constant tensor:
#      x y z
#    x 1.816470 0.000000 0.000000 
#    y 0.000000 1.812390 0.000000 
#    z 0.000000 0.000000 1.856930 
# 
# From -- ./inp_files/4390.got.cif
#   From: 2010.05.17/outbox.cif.g08.bks.cpg/sg56_3_cif.got.tgz:4390.got - 2010.06.03 13:42:01.
