data_PCOD9432277
_publ_section_title
;
Structure prediction by ZEFSAII (Michael W. Deem and Ramdas Pophale) SiO2 
 PCOD9432277
Probable space group: P C C N
;
_chemical_formula_sum "Si O2"
_cell_formula_units_Z 24
_cell_length_a 8.963086
_cell_length_b 5.105733
_cell_length_c 23.490817
_cell_angle_alpha 90.000000
_cell_angle_beta 90.000000
_cell_angle_gamma 90.000000
_cell_volume 1075.013171
_symmetry_space_group_name_H-M "P C C N"
_symmetry_group_IT_number 56
_symmetry_cell_setting 'orthorhombic'
loop_
_space_group_symop_operation_xyz
x,y,z
1/2-x,1/2-y,z
1/2+x,-y,1/2-z
-x,1/2+y,1/2-z
-x,-y,-z
1/2+x,1/2+y,-z
1/2-x,y,1/2+z
x,1/2-y,1/2+z
loop_
_atom_site_type_symbol
_atom_site_label
_atom_site_fract_x
_atom_site_fract_y
_atom_site_fract_z
Si Si1 0.855405 0.000918 0.784751
Si Si2 0.078759 0.667777 0.836385
Si Si3 0.859579 0.501976 0.042415
O O1 0.750000 0.750000 0.780128
O O2 0.973282 0.921509 0.833175
O O3 0.750000 0.250000 0.795896
O O4 0.940340 0.024295 0.724143
O O5 0.250000 0.750000 0.834017
O O6 0.067627 0.509385 0.894310
O O7 0.750000 0.250000 0.035763
O O8 0.750000 0.750000 0.036410
O O9 0.000000 0.500000 0.000000
#
# Coordination Sequence:
#
# PCOD9432277 Si02
#       3
#     8   8   8
#     4  11  23  39  63 100 136 169 214 267 329 402
#     4  10  22  42  67  96 134 177 216 269 336 401
#     4  11  25  47  72  98 133 178 229 282 336 395
#
# _framework density 22.325306999999999
#
# number of rings (size 3 to 8) (size 9 to 14) (size 15 to 20)
#    0.000    1.333    0.000    6.000    0.000    9.333 
#    0.000    8.333    0.000    0.000    0.000    0.000 
#    0.000    0.000    0.000    0.000    0.000    0.000 
#
# Total GULP energy -134149.583948 kJ/mol
# GULP energy per Si atom -5589.565998 kJ/mol
# Density = 2.227449 g / cm^3
# Si number density = 22.325307 Si / 1000 Ang^3
#
#
#
# Elastic Constant Matrix: (Units=GPa)
#
#
# Indices 1 2 3 4 5 6 
#
# 1 160.5430 88.8519 75.4205 0.0000 0.0000 0.0000
# 2 88.8519 192.5477 54.6121 0.0000 0.0000 0.0000
# 3 75.4205 54.6121 108.2849 0.0000 0.0000 0.0000
# 4 0.0000 0.0000 0.0000 25.9477 0.0000 0.0000
# 5 0.0000 0.0000 0.0000 0.0000 14.5433 0.0000
# 6 0.0000 0.0000 0.0000 0.0000 0.0000 51.1565
#
#
#
# Elastic Compliance Matrix: (Units=1/GPa)
#
#
# Indices 1 2 3 4 5 6 
#
# 1 0.010827 -0.003334 -0.005859 0.000000 0.000000 0.000000
# 2 -0.003334 0.007087 -0.001252 0.000000 0.000000 0.000000
# 3 -0.005859 -0.001252 0.013947 0.000000 0.000000 0.000000
# 4 0.000000 0.000000 0.000000 0.038539 0.000000 0.000000
# 5 0.000000 0.000000 0.000000 0.000000 0.068760 0.000000
# 6 0.000000 0.000000 0.000000 0.000000 0.000000 0.019548
#
#
# Mechanical properties :
#
#
# Convention : Reuss Voigt Hill
#
# Bulk Modulus (GPa) = 91.15585 99.90497 95.53041
# Shear Modulus (GPa) = 27.28421 34.49559 30.88990
#
# Velocity S-wave (km/s) = 3.49968 3.93508 3.72375
# Velocity P-wave (km/s) = 7.56635 8.09279 7.83400
#
# Compressibility (1/GPa) = 0.01097022
#
# Stress axis : x y z
#
# Youngs Moduli (GPa) = 92.36389 141.09912 71.69816
#
# Poissons Ratio (x) = 0.47045 0.42010
# Poissons Ratio (y) = 0.30796 0.08977
# Poissons Ratio (z) = 0.54119 0.17667
#
# Static dielectric constant tensor:
#      x y z
#    x 1.821860 0.000000 0.000000 
#    y 0.000000 1.914990 0.000000 
#    z 0.000000 0.000000 1.884470 
# 
# From -- ./inp_files/19707.got.cif
#   From: 2010.05.17/outbox.cif.g08.bks.cpg/sg56_10_cif.got.tgz:19707.got - 2010.06.03 13:42:01.
