data_PCOD9432660
_publ_section_title
;
Structure prediction by ZEFSAII (Michael W. Deem and Ramdas Pophale) SiO2 
 PCOD9432660
Probable space group: P C C N
;
_chemical_formula_sum "Si O2"
_cell_formula_units_Z 48
_cell_length_a 9.202044
_cell_length_b 8.965114
_cell_length_c 24.914315
_cell_angle_alpha 90.000000
_cell_angle_beta 90.000000
_cell_angle_gamma 90.000000
_cell_volume 2055.365550
_symmetry_space_group_name_H-M "P C C N"
_symmetry_group_IT_number 56
_symmetry_cell_setting 'orthorhombic'
loop_
_space_group_symop_operation_xyz
x,y,z
1/2-x,1/2-y,z
1/2+x,-y,1/2-z
-x,1/2+y,1/2-z
-x,-y,-z
1/2+x,1/2+y,-z
1/2-x,y,1/2+z
x,1/2-y,1/2+z
loop_
_atom_site_type_symbol
_atom_site_label
_atom_site_fract_x
_atom_site_fract_y
_atom_site_fract_z
Si Si1 0.408775 0.816314 0.199588
Si Si2 0.152646 0.385164 0.145015
Si Si3 0.680611 0.411496 0.944126
Si Si4 0.173775 0.401798 0.455280
Si Si5 0.416092 0.700847 0.818643
Si Si6 0.856602 0.634680 0.660512
O O1 0.250000 0.750000 0.197292
O O2 0.468844 0.768959 0.257728
O O3 0.503617 0.738863 0.154152
O O4 0.393844 0.989871 0.187522
O O5 0.250000 0.250000 0.166597
O O6 0.244788 0.472179 0.098707
O O7 0.005032 0.289435 0.135826
O O8 0.750000 0.250000 0.934970
O O9 0.502929 0.405752 0.947628
O O10 0.719406 0.471251 0.003622
O O11 0.250000 0.250000 0.476181
O O12 0.226246 0.410992 0.393957
O O13 0.250000 0.750000 0.822065
O O14 0.415770 0.521923 0.819553
O O15 0.750000 0.750000 0.690813
#
# Coordination Sequence:
#
# PCOD9432660 Si02
#       6
#     8   8   8   8   8   8
#     4  11  23  41  65  96 134 180 233 287 356 432
#     4  12  24  41  69 100 138 184 236 298 363 437
#     4  11  24  44  70 102 138 184 242 302 371 441
#     4  10  23  43  67  98 137 181 237 302 362 432
#     4  11  25  41  64 100 137 179 235 295 360 438
#     4  11  23  42  65  92 135 183 229 288 360 433
#
# _framework density 23.353511000000001
#
# number of rings (size 3 to 8) (size 9 to 14) (size 15 to 20)
#    0.000    1.000    0.000    7.000    0.000    9.333 
#    0.000    6.667    0.000    0.000    0.000    0.000 
#    0.000    0.000    0.000    0.000    0.000    0.000 
#
# Total GULP energy -267528.547228 kJ/mol
# GULP energy per Si atom -5573.511401 kJ/mol
# Density = 2.330036 g / cm^3
# Si number density = 23.353511 Si / 1000 Ang^3
#
#
#
# Elastic Constant Matrix: (Units=GPa)
#
#
# Indices 1 2 3 4 5 6 
#
# 1 109.6864 57.6188 32.4463 0.0000 0.0000 0.0000
# 2 57.6188 176.5757 41.6469 0.0000 0.0000 0.0000
# 3 32.4463 41.6469 77.8164 0.0000 0.0000 0.0000
# 4 0.0000 0.0000 0.0000 35.5741 0.0000 0.0000
# 5 0.0000 0.0000 0.0000 0.0000 33.6074 0.0000
# 6 0.0000 0.0000 0.0000 0.0000 0.0000 47.2786
#
#
#
# Elastic Compliance Matrix: (Units=1/GPa)
#
#
# Indices 1 2 3 4 5 6 
#
# 1 0.011675 -0.003046 -0.003238 0.000000 0.000000 0.000000
# 2 -0.003046 0.007276 -0.002624 0.000000 0.000000 0.000000
# 3 -0.003238 -0.002624 0.015605 0.000000 0.000000 0.000000
# 4 0.000000 0.000000 0.000000 0.028110 0.000000 0.000000
# 5 0.000000 0.000000 0.000000 0.000000 0.029755 0.000000
# 6 0.000000 0.000000 0.000000 0.000000 0.000000 0.021151
#
#
# Mechanical properties :
#
#
# Convention : Reuss Voigt Hill
#
# Bulk Modulus (GPa) = 59.73549 69.72251 64.72900
# Shear Modulus (GPa) = 36.50471 38.78311 37.64391
#
# Velocity S-wave (km/s) = 3.95794 4.07959 4.01922
# Velocity P-wave (km/s) = 6.82066 7.21878 7.02254
#
# Compressibility (1/GPa) = 0.01674047
#
# Stress axis : x y z
#
# Youngs Moduli (GPa) = 85.65525 137.43535 64.08139
#
# Poissons Ratio (x) = 0.41862 0.20748
# Poissons Ratio (y) = 0.26090 0.16816
# Poissons Ratio (z) = 0.27733 0.36065
#
# Static dielectric constant tensor:
#      x y z
#    x 1.782700 0.000000 0.000000 
#    y 0.000000 1.921490 0.000000 
#    z 0.000000 0.000000 1.921100 
# 
# From -- ./inp_files/23231.got.cif
#   From: 2010.05.17/outbox.cif.g08.bks.cpg/sg56_12_cif.got.tgz:23231.got - 2010.06.03 13:42:01.
