data_PCOD9432472
_publ_section_title
;
Structure prediction by ZEFSAII (Michael W. Deem and Ramdas Pophale) SiO2 
 PCOD9432472
Probable space group: P C C N
;
_chemical_formula_sum "Si O2"
_cell_formula_units_Z 44
_cell_length_a 8.838610
_cell_length_b 10.108995
_cell_length_c 21.065921
_cell_angle_alpha 90.000000
_cell_angle_beta 90.000000
_cell_angle_gamma 90.000000
_cell_volume 1882.228756
_symmetry_space_group_name_H-M "P C C N"
_symmetry_group_IT_number 56
_symmetry_cell_setting 'orthorhombic'
loop_
_space_group_symop_operation_xyz
x,y,z
1/2-x,1/2-y,z
1/2+x,-y,1/2-z
-x,1/2+y,1/2-z
-x,-y,-z
1/2+x,1/2+y,-z
1/2-x,y,1/2+z
x,1/2-y,1/2+z
loop_
_atom_site_type_symbol
_atom_site_label
_atom_site_fract_x
_atom_site_fract_y
_atom_site_fract_z
Si Si1 0.652066 0.886811 0.713207
Si Si2 0.177479 0.990334 0.000901
Si Si3 0.444159 0.392453 0.448544
Si Si4 0.576594 0.067531 0.173943
Si Si5 0.615701 0.164626 0.386556
Si Si6 0.250000 0.750000 0.907568
O O1 0.750000 0.750000 0.712755
O O2 0.556863 0.909623 0.776968
O O3 0.522054 0.878804 0.658432
O O4 0.769687 0.007569 0.704616
O O5 0.217732 0.873308 0.952262
O O6 0.270698 0.111840 0.972043
O O7 0.201615 0.950792 0.074455
O O8 0.000000 0.000000 0.000000
O O9 0.500000 0.500000 0.500000
O O10 0.456039 0.458533 0.379629
O O11 0.539703 0.259807 0.440535
O O12 0.614480 0.203533 0.137654
O O13 0.750000 0.250000 0.354107
#
# Coordination Sequence:
#
# PCOD9432472 Si02
#       6
#     8   8   8   8   8   4
#     4  12  29  48  74 106 145 199 250 306 376 452
#     4  11  23  41  69 105 145 189 230 298 374 424
#     4  11  22  45  71 106 146 185 241 299 359 443
#     4  11  27  47  72 103 147 188 248 306 366 441
#     4  12  23  43  73 103 144 197 244 297 372 442
#     4  10  22  46  68 106 146 182 242 310 356 436
#
# _framework density 23.376543000000002
#
# number of rings (size 3 to 8) (size 9 to 14) (size 15 to 20)
#    0.000    0.727    4.545    3.273    6.364    0.000 
#    3.273    0.000    0.000    0.000    0.000    0.000 
#    0.000    0.000    0.000    0.000    0.000    0.000 
#
# Total GULP energy -245862.848593 kJ/mol
# GULP energy per Si atom -5587.792013 kJ/mol
# Density = 2.332334 g / cm^3
# Si number density = 23.376543 Si / 1000 Ang^3
#
#
#
# Elastic Constant Matrix: (Units=GPa)
#
#
# Indices 1 2 3 4 5 6 
#
# 1 139.6454 28.2480 52.7839 0.0000 0.0000 0.0000
# 2 28.2480 89.3565 26.3182 0.0000 0.0000 0.0000
# 3 52.7839 26.3182 128.5379 0.0000 0.0000 0.0000
# 4 0.0000 0.0000 0.0000 2.7254 0.0000 0.0000
# 5 0.0000 0.0000 0.0000 0.0000 64.8571 0.0000
# 6 0.0000 0.0000 0.0000 0.0000 0.0000 44.6006
#
#
#
# Elastic Compliance Matrix: (Units=1/GPa)
#
#
# Indices 1 2 3 4 5 6 
#
# 1 0.008745 -0.001816 -0.003219 0.000000 0.000000 0.000000
# 2 -0.001816 0.012287 -0.001770 0.000000 0.000000 0.000000
# 3 -0.003219 -0.001770 0.009464 0.000000 0.000000 0.000000
# 4 0.000000 0.000000 0.000000 0.366925 0.000000 0.000000
# 5 0.000000 0.000000 0.000000 0.000000 0.015419 0.000000
# 6 0.000000 0.000000 0.000000 0.000000 0.000000 0.022421
#
#
# Mechanical properties :
#
#
# Convention : Reuss Voigt Hill
#
# Bulk Modulus (GPa) = 59.22415 63.58224 61.40320
# Shear Modulus (GPa) = 11.00109 39.11591 25.05850
#
# Velocity S-wave (km/s) = 2.17169 4.09503 3.27762
# Velocity P-wave (km/s) = 5.62834 7.04395 6.37556
#
# Compressibility (1/GPa) = 0.01688500
#
# Stress axis : x y z
#
# Youngs Moduli (GPa) = 114.34729 81.38949 105.66153
#
# Poissons Ratio (x) = 0.14784 0.34016
# Poissons Ratio (y) = 0.20770 0.18700
# Poissons Ratio (z) = 0.36812 0.14404
#
# Static dielectric constant tensor:
#      x y z
#    x 2.075700 0.000000 0.000000 
#    y 0.000000 1.980020 0.000000 
#    z 0.000000 0.000000 1.901420 
# 
# From -- ./inp_files/20426.got.cif
#   From: 2010.05.17/outbox.cif.g08.bks.cpg/sg56_11_cif.got.tgz:20426.got - 2010.06.03 13:42:01.
