data_PCOD9432928
_publ_section_title
;
Structure prediction by ZEFSAII (Michael W. Deem and Ramdas Pophale) SiO2 
 PCOD9432928
Probable space group: P C C N
;
_chemical_formula_sum "Si O2"
_cell_formula_units_Z 52
_cell_length_a 10.145594
_cell_length_b 24.414789
_cell_length_c 9.043444
_cell_angle_alpha 90.000000
_cell_angle_beta 90.000000
_cell_angle_gamma 90.000000
_cell_volume 2240.084020
_symmetry_space_group_name_H-M "P C C N"
_symmetry_group_IT_number 56
_symmetry_cell_setting 'orthorhombic'
loop_
_space_group_symop_operation_xyz
x,y,z
1/2-x,1/2-y,z
1/2+x,-y,1/2-z
-x,1/2+y,1/2-z
-x,-y,-z
1/2+x,1/2+y,-z
1/2-x,y,1/2+z
x,1/2-y,1/2+z
loop_
_atom_site_type_symbol
_atom_site_label
_atom_site_fract_x
_atom_site_fract_y
_atom_site_fract_z
Si Si1 0.250169 0.634640 0.443827
Si Si2 0.250000 0.250000 0.221883
Si Si3 0.029071 0.977972 0.164974
Si Si4 0.515276 0.639586 0.271945
Si Si5 0.672011 0.056395 0.791816
Si Si6 0.116093 0.769910 0.120375
Si Si7 0.398977 0.303789 0.472072
O O1 0.363882 0.645028 0.325508
O O2 0.316759 0.598515 0.572860
O O3 0.156376 0.593152 0.355484
O O4 0.176093 0.688345 0.499550
O O5 0.303033 0.297608 0.332378
O O6 0.137447 0.259949 0.099187
O O7 0.973970 0.915985 0.183120
O O8 0.185142 0.974232 0.203590
O O9 0.948457 0.014459 0.283105
O O10 0.000000 0.000000 0.000000
O O11 0.510943 0.694782 0.175322
O O12 0.600087 0.642936 0.422512
O O13 0.250000 0.750000 0.203263
O O14 0.045279 0.713360 0.075415
#
# Coordination Sequence:
#
# PCOD9432928 Si02
#       7
#     8   4   8   8   8   8   8
#     4  11  22  41  66 105 139 172 227 294 351 417
#     4  10  24  44  62  82 138 190 224 260 338 402
#     4  11  23  47  70  99 144 184 233 299 359 419
#     4  11  24  40  64 106 135 175 238 283 351 430
#     4  11  23  43  72  96 139 184 231 291 360 407
#     4  12  23  37  69 103 139 171 225 285 358 412
#     4  11  23  43  65  94 134 186 222 282 337 419
#
# _framework density 23.213414
#
# number of rings (size 3 to 8) (size 9 to 14) (size 15 to 20)
#    0.000    0.923    7.692    0.000    2.154    3.692 
#    2.769    1.538    0.000    0.000    0.000    0.000 
#    0.000    0.000    0.000    0.000    0.000    0.000 
#
# Total GULP energy -289539.972313 kJ/mol
# GULP energy per Si atom -5568.076391 kJ/mol
# Density = 2.316058 g / cm^3
# Si number density = 23.213414 Si / 1000 Ang^3
#
#
#
# Elastic Constant Matrix: (Units=GPa)
#
#
# Indices 1 2 3 4 5 6 
#
# 1 82.9643 1.6486 9.5831 0.0000 0.0000 0.0000
# 2 1.6486 69.0192 6.7776 0.0000 0.0000 0.0000
# 3 9.5831 6.7776 69.7606 0.0000 0.0000 0.0000
# 4 0.0000 0.0000 0.0000 37.1055 0.0000 0.0000
# 5 0.0000 0.0000 0.0000 0.0000 26.3910 0.0000
# 6 0.0000 0.0000 0.0000 0.0000 0.0000 28.8762
#
#
#
# Elastic Compliance Matrix: (Units=1/GPa)
#
#
# Indices 1 2 3 4 5 6 
#
# 1 0.012249 -0.000129 -0.001670 0.000000 0.000000 0.000000
# 2 -0.000129 0.014630 -0.001404 0.000000 0.000000 0.000000
# 3 -0.001670 -0.001404 0.014701 0.000000 0.000000 0.000000
# 4 0.000000 0.000000 0.000000 0.026950 0.000000 0.000000
# 5 0.000000 0.000000 0.000000 0.000000 0.037892 0.000000
# 6 0.000000 0.000000 0.000000 0.000000 0.000000 0.034631
#
#
# Mechanical properties :
#
#
# Convention : Reuss Voigt Hill
#
# Bulk Modulus (GPa) = 28.42991 28.64031 28.53511
# Shear Modulus (GPa) = 31.41078 32.05687 31.73383
#
# Velocity S-wave (km/s) = 3.68248 3.72016 3.70137
# Velocity P-wave (km/s) = 5.50951 5.55134 5.53047
#
# Compressibility (1/GPa) = 0.03517422
#
# Stress axis : x y z
#
# Youngs Moduli (GPa) = 81.64037 68.35445 68.02475
#
# Poissons Ratio (x) = 0.00879 0.11361
# Poissons Ratio (y) = 0.01050 0.09548
# Poissons Ratio (z) = 0.13635 0.09595
#
# Static dielectric constant tensor:
#      x y z
#    x 1.965850 0.000000 0.000000 
#    y 0.000000 2.342390 0.000000 
#    z 0.000000 0.000000 2.104470 
# 
# From -- ./inp_files/2873.got.cif
#   From: 2010.05.17/outbox.cif.g08.bks.cpg/sg56_2_cif.got.tgz:2873.got - 2010.06.03 13:42:01.
