data_PCOD9432430
_publ_section_title
;
Structure prediction by ZEFSAII (Michael W. Deem and Ramdas Pophale) SiO2 
 PCOD9432430
Probable space group: P C C N
;
_chemical_formula_sum "Si O2"
_cell_formula_units_Z 40
_cell_length_a 8.426085
_cell_length_b 21.974980
_cell_length_c 9.348803
_cell_angle_alpha 90.000000
_cell_angle_beta 90.000000
_cell_angle_gamma 90.000000
_cell_volume 1731.052871
_symmetry_space_group_name_H-M "P C C N"
_symmetry_group_IT_number 56
_symmetry_cell_setting 'orthorhombic'
loop_
_space_group_symop_operation_xyz
x,y,z
1/2-x,1/2-y,z
1/2+x,-y,1/2-z
-x,1/2+y,1/2-z
-x,-y,-z
1/2+x,1/2+y,-z
1/2-x,y,1/2+z
x,1/2-y,1/2+z
loop_
_atom_site_type_symbol
_atom_site_label
_atom_site_fract_x
_atom_site_fract_y
_atom_site_fract_z
Si Si1 0.629168 0.370910 0.919967
Si Si2 0.044052 0.197664 0.710638
Si Si3 0.250000 0.750000 0.443980
Si Si4 0.750000 0.750000 0.530368
Si Si5 0.062158 0.051431 0.108520
Si Si6 0.868118 0.481865 0.886826
O O1 0.544588 0.363501 0.765178
O O2 0.756701 0.424801 0.926650
O O3 0.718847 0.309277 0.960795
O O4 0.492559 0.386390 0.035331
O O5 0.168478 0.201545 0.579209
O O6 0.903133 0.240192 0.654238
O O7 0.123685 0.222304 0.857013
O O8 0.962766 0.039490 0.249156
O O9 0.246499 0.038025 0.135547
O O10 0.000000 0.000000 0.000000
O O11 0.000000 0.500000 0.000000
#
# Coordination Sequence:
#
# PCOD9432430 Si02
#       6
#     8   8   4   4   8   8
#     4  11  24  45  73 113 144 202 248 307 375 448
#     4  11  23  46  69 104 150 203 251 297 369 452
#     4  12  24  46  74 108 158 196 254 300 374 468
#     4  10  24  46  68  98 156 204 244 302 358 448
#     4  10  22  44  71 103 141 186 246 304 372 437
#     4  11  24  49  76 104 144 190 254 317 375 446
#
# _framework density 23.107326
#
# number of rings (size 3 to 8) (size 9 to 14) (size 15 to 20)
#    0.000    1.200    2.000    4.200    0.000    1.600 
#   14.400    0.000    0.000    0.000    0.000    0.000 
#    0.000    0.000    0.000    0.000    0.000    0.000 
#
# Total GULP energy -223603.885610 kJ/mol
# GULP energy per Si atom -5590.097140 kJ/mol
# Density = 2.305473 g / cm^3
# Si number density = 23.107326 Si / 1000 Ang^3
#
#
#
# Elastic Constant Matrix: (Units=GPa)
#
#
# Indices 1 2 3 4 5 6 
#
# 1 162.5836 45.3708 52.4185 0.0000 0.0000 0.0000
# 2 45.3708 84.5511 17.9607 0.0000 0.0000 0.0000
# 3 52.4185 17.9607 111.4676 0.0000 0.0000 0.0000
# 4 0.0000 0.0000 0.0000 31.3448 0.0000 0.0000
# 5 0.0000 0.0000 0.0000 0.0000 63.2887 0.0000
# 6 0.0000 0.0000 0.0000 0.0000 0.0000 36.6434
#
#
#
# Elastic Compliance Matrix: (Units=1/GPa)
#
#
# Indices 1 2 3 4 5 6 
#
# 1 0.008248 -0.003730 -0.003278 0.000000 0.000000 0.000000
# 2 -0.003730 0.013933 -0.000491 0.000000 0.000000 0.000000
# 3 -0.003278 -0.000491 0.010592 0.000000 0.000000 0.000000
# 4 0.000000 0.000000 0.000000 0.031903 0.000000 0.000000
# 5 0.000000 0.000000 0.000000 0.000000 0.015801 0.000000
# 6 0.000000 0.000000 0.000000 0.000000 0.000000 0.027290
#
#
# Mechanical properties :
#
#
# Convention : Reuss Voigt Hill
#
# Bulk Modulus (GPa) = 56.25684 65.56693 60.91188
# Shear Modulus (GPa) = 38.85321 42.44555 40.64938
#
# Velocity S-wave (km/s) = 4.10497 4.29054 4.19878
# Velocity P-wave (km/s) = 6.84590 7.27884 7.06569
#
# Compressibility (1/GPa) = 0.01777562
#
# Stress axis : x y z
#
# Youngs Moduli (GPa) = 121.23642 71.77241 94.41290
#
# Poissons Ratio (x) = 0.26770 0.30947
# Poissons Ratio (y) = 0.45219 0.04636
# Poissons Ratio (z) = 0.39740 0.03524
#
# Static dielectric constant tensor:
#      x y z
#    x 1.915820 0.000000 0.000000 
#    y 0.000000 1.811680 0.000000 
#    z 0.000000 0.000000 1.807170 
# 
# From -- ./inp_files/2074.got.cif
#   From: 2010.05.17/outbox.cif.g08.bks.cpg/sg56_2_cif.got.tgz:2074.got - 2010.06.03 13:42:01.
