data_PCOD9432029
_publ_section_title
;
Structure prediction by ZEFSAII (Michael W. Deem and Ramdas Pophale) SiO2 
 PCOD9432029
Probable space group: P C C N
;
_chemical_formula_sum "Si O2"
_cell_formula_units_Z 64
_cell_length_a 25.802664
_cell_length_b 11.904166
_cell_length_c 8.302674
_cell_angle_alpha 90.000000
_cell_angle_beta 90.000000
_cell_angle_gamma 90.000000
_cell_volume 2550.242666
_symmetry_space_group_name_H-M "P C C N"
_symmetry_group_IT_number 56
_symmetry_cell_setting 'orthorhombic'
loop_
_space_group_symop_operation_xyz
x,y,z
1/2-x,1/2-y,z
1/2+x,-y,1/2-z
-x,1/2+y,1/2-z
-x,-y,-z
1/2+x,1/2+y,-z
1/2-x,y,1/2+z
x,1/2-y,1/2+z
loop_
_atom_site_type_symbol
_atom_site_label
_atom_site_fract_x
_atom_site_fract_y
_atom_site_fract_z
Si Si1 0.384968 0.115979 0.869592
Si Si2 0.156218 0.634720 0.819724
Si Si3 0.366854 0.166175 0.510170
Si Si4 0.710858 0.042676 0.489403
Si Si5 0.421966 0.493680 0.799285
Si Si6 0.059948 0.768451 0.881558
Si Si7 0.501166 0.125944 0.871751
Si Si8 0.684298 0.425141 0.349742
O O1 0.386661 0.162991 0.689590
O O2 0.443601 0.116668 0.931251
O O3 0.364326 0.991386 0.850073
O O4 0.352016 0.207673 0.965720
O O5 0.191023 0.618136 0.661043
O O6 0.109086 0.719000 0.787066
O O7 0.176885 0.662405 0.000998
O O8 0.322741 0.071188 0.495882
O O9 0.412345 0.119447 0.394275
O O10 0.768456 0.007388 0.433287
O O11 0.704777 0.100808 0.666537
O O12 0.423952 0.602402 0.922015
O O13 0.475306 0.511467 0.703230
O O14 0.371255 0.517020 0.688660
O O15 0.008616 0.787904 0.776136
O O16 0.043747 0.676950 0.009580
#
# Coordination Sequence:
#
# PCOD9432029 Si02
#       8
#     8   8   8   8   8   8   8   8
#     4  11  25  40  66  98 134 183 230 288 348 408
#     4  11  23  42  69 100 137 177 226 288 348 413
#     4  10  24  43  65  93 137 177 230 293 344 418
#     4  10  23  40  73  95 131 176 220 285 344 414
#     4   9  23  40  68  94 138 179 225 288 346 414
#     4  10  22  41  65  97 138 178 226 279 345 418
#     4  10  22  39  63 101 132 186 231 272 346 422
#     4  11  20  43  68  95 133 170 226 282 341 419
#
# _framework density 25.095651
#
# number of rings (size 3 to 8) (size 9 to 14) (size 15 to 20)
#    0.750    1.000    2.500    0.750    8.750    2.000 
#    0.000    1.250    0.000    0.000    0.000    0.000 
#    0.000    0.000    0.000    0.000    0.000    0.000 
#
# Total GULP energy -357031.445471 kJ/mol
# GULP energy per Si atom -5578.616335 kJ/mol
# Density = 2.503853 g / cm^3
# Si number density = 25.095651 Si / 1000 Ang^3
#
#
#
# Elastic Constant Matrix: (Units=GPa)
#
#
# Indices 1 2 3 4 5 6 
#
# 1 89.2477 15.9772 21.0916 0.0000 0.0000 0.0000
# 2 15.9772 115.8694 27.1301 0.0000 0.0000 0.0000
# 3 21.0916 27.1301 125.0939 0.0000 0.0000 0.0000
# 4 0.0000 0.0000 0.0000 39.5750 0.0000 0.0000
# 5 0.0000 0.0000 0.0000 0.0000 26.4924 0.0000
# 6 0.0000 0.0000 0.0000 0.0000 0.0000 6.1639
#
#
#
# Elastic Compliance Matrix: (Units=1/GPa)
#
#
# Indices 1 2 3 4 5 6 
#
# 1 0.011833 -0.001227 -0.001729 0.000000 0.000000 0.000000
# 2 -0.001227 0.009219 -0.001793 0.000000 0.000000 0.000000
# 3 -0.001729 -0.001793 0.008674 0.000000 0.000000 0.000000
# 4 0.000000 0.000000 0.000000 0.025268 0.000000 0.000000
# 5 0.000000 0.000000 0.000000 0.000000 0.037747 0.000000
# 6 0.000000 0.000000 0.000000 0.000000 0.000000 0.162235
#
#
# Mechanical properties :
#
#
# Convention : Reuss Voigt Hill
#
# Bulk Modulus (GPa) = 49.43235 50.95654 50.19444
# Shear Modulus (GPa) = 18.43541 32.18040 25.30790
#
# Velocity S-wave (km/s) = 2.71330 3.58482 3.17907
# Velocity P-wave (km/s) = 5.43657 6.12238 5.78964
#
# Compressibility (1/GPa) = 0.02022967
#
# Stress axis : x y z
#
# Youngs Moduli (GPa) = 84.50933 108.46815 115.28302
#
# Poissons Ratio (x) = 0.13307 0.19933
# Poissons Ratio (y) = 0.10368 0.20666
# Poissons Ratio (z) = 0.14612 0.19444
#
# Static dielectric constant tensor:
#      x y z
#    x 1.965800 0.000000 0.000000 
#    y 0.000000 1.951430 0.000000 
#    z 0.000000 0.000000 2.089950 
# 
# From -- ./inp_files/5220.got.cif
#   From: 2010.05.17/outbox.cif.g08.bks.cpg/sg56_3_cif.got.tgz:5220.got - 2010.06.03 13:42:01.
