data_PCOD9432381
_publ_section_title
;
Structure prediction by ZEFSAII (Michael W. Deem and Ramdas Pophale) SiO2 
 PCOD9432381
Probable space group: P C C N
;
_chemical_formula_sum "Si O2"
_cell_formula_units_Z 48
_cell_length_a 21.266152
_cell_length_b 9.890181
_cell_length_c 10.105996
_cell_angle_alpha 90.000000
_cell_angle_beta 90.000000
_cell_angle_gamma 90.000000
_cell_volume 2125.554649
_symmetry_space_group_name_H-M "P C C N"
_symmetry_group_IT_number 56
_symmetry_cell_setting 'orthorhombic'
loop_
_space_group_symop_operation_xyz
x,y,z
1/2-x,1/2-y,z
1/2+x,-y,1/2-z
-x,1/2+y,1/2-z
-x,-y,-z
1/2+x,1/2+y,-z
1/2-x,y,1/2+z
x,1/2-y,1/2+z
loop_
_atom_site_type_symbol
_atom_site_label
_atom_site_fract_x
_atom_site_fract_y
_atom_site_fract_z
Si Si1 0.288734 0.623132 0.023770
Si Si2 0.587453 0.235853 0.873167
Si Si3 0.406618 0.379649 0.463848
Si Si4 0.688263 0.661712 0.118175
Si Si5 0.675407 0.007311 0.849930
Si Si6 0.477872 0.880951 0.862742
O O1 0.250000 0.750000 0.959822
O O2 0.354497 0.672677 0.081019
O O3 0.242118 0.578708 0.141552
O O4 0.301975 0.488326 0.940231
O O5 0.541329 0.309077 0.771701
O O6 0.622030 0.110249 0.799758
O O7 0.554235 0.188247 0.008242
O O8 0.374972 0.239413 0.425035
O O9 0.347663 0.475170 0.501186
O O10 0.449360 0.373300 0.596202
O O11 0.450457 0.465265 0.363757
O O12 0.750000 0.750000 0.089042
O O13 0.682223 0.632040 0.273729
#
# Coordination Sequence:
#
# PCOD9432381 Si02
#       6
#     8   8   8   8   8   8
#     4  10  23  43  66  97 136 175 221 284 340 416
#     4  10  22  43  71  95 131 178 235 267 340 407
#     4  10  24  44  63  93 143 177 226 278 350 402
#     4  12  25  39  67  99 135 175 226 285 341 405
#     4  10  23  40  61  97 131 173 223 278 340 409
#     4  10  23  45  68  97 133 191 224 284 333 410
#
# _framework density 22.582339999999999
#
# number of rings (size 3 to 8) (size 9 to 14) (size 15 to 20)
#    0.000    1.667    1.667    1.000    7.000    2.000 
#    6.000    1.667    0.000    0.000    0.000    0.000 
#    0.000    0.000    0.000    0.000    0.000    0.000 
#
# Total GULP energy -267886.990862 kJ/mol
# GULP energy per Si atom -5580.978976 kJ/mol
# Density = 2.253094 g / cm^3
# Si number density = 22.582340 Si / 1000 Ang^3
#
#
#
# Elastic Constant Matrix: (Units=GPa)
#
#
# Indices 1 2 3 4 5 6 
#
# 1 109.6100 43.1523 18.4902 0.0000 0.0000 0.0000
# 2 43.1523 119.7266 27.4288 0.0000 0.0000 0.0000
# 3 18.4902 27.4288 46.6005 0.0000 0.0000 0.0000
# 4 0.0000 0.0000 0.0000 30.3112 0.0000 0.0000
# 5 0.0000 0.0000 0.0000 0.0000 17.0083 0.0000
# 6 0.0000 0.0000 0.0000 0.0000 0.0000 44.4968
#
#
#
# Elastic Compliance Matrix: (Units=1/GPa)
#
#
# Indices 1 2 3 4 5 6 
#
# 1 0.010844 -0.003378 -0.002314 0.000000 0.000000 0.000000
# 2 -0.003378 0.010707 -0.004961 0.000000 0.000000 0.000000
# 3 -0.002314 -0.004961 0.025298 0.000000 0.000000 0.000000
# 4 0.000000 0.000000 0.000000 0.032991 0.000000 0.000000
# 5 0.000000 0.000000 0.000000 0.000000 0.058795 0.000000
# 6 0.000000 0.000000 0.000000 0.000000 0.000000 0.022474
#
#
# Mechanical properties :
#
#
# Convention : Reuss Voigt Hill
#
# Bulk Modulus (GPa) = 39.15407 50.45329 44.80368
# Shear Modulus (GPa) = 26.18788 30.82097 28.50442
#
# Velocity S-wave (km/s) = 3.40908 3.69836 3.55666
# Velocity P-wave (km/s) = 5.73339 6.37398 6.06215
#
# Compressibility (1/GPa) = 0.02554013
#
# Stress axis : x y z
#
# Youngs Moduli (GPa) = 92.22065 93.40068 39.52959
#
# Poissons Ratio (x) = 0.31552 0.09148
# Poissons Ratio (y) = 0.31153 0.19612
# Poissons Ratio (z) = 0.21342 0.46340
#
# Static dielectric constant tensor:
#      x y z
#    x 1.856180 0.000000 0.000000 
#    y 0.000000 1.887620 0.000000 
#    z 0.000000 0.000000 1.867340 
# 
# From -- ./inp_files/8875.got.cif
#   From: 2010.05.17/outbox.cif.g08.bks.cpg/sg56_5_cif.got.tgz:8875.got - 2010.06.03 13:42:01.
