data_PCOD9432001
_publ_section_title
;
Structure prediction by ZEFSAII (Michael W. Deem and Ramdas Pophale) SiO2 
 PCOD9432001
Probable space group: P C C N
;
_chemical_formula_sum "Si O2"
_cell_formula_units_Z 56
_cell_length_a 5.854927
_cell_length_b 18.886136
_cell_length_c 20.825917
_cell_angle_alpha 90.000000
_cell_angle_beta 90.000000
_cell_angle_gamma 90.000000
_cell_volume 2302.866333
_symmetry_space_group_name_H-M "P C C N"
_symmetry_group_IT_number 56
_symmetry_cell_setting 'orthorhombic'
loop_
_space_group_symop_operation_xyz
x,y,z
1/2-x,1/2-y,z
1/2+x,-y,1/2-z
-x,1/2+y,1/2-z
-x,-y,-z
1/2+x,1/2+y,-z
1/2-x,y,1/2+z
x,1/2-y,1/2+z
loop_
_atom_site_type_symbol
_atom_site_label
_atom_site_fract_x
_atom_site_fract_y
_atom_site_fract_z
Si Si1 0.250000 0.250000 0.450985
Si Si2 0.824166 0.007009 0.581231
Si Si3 0.994483 0.264711 0.736986
Si Si4 0.536069 0.074993 0.692699
Si Si5 0.250000 0.750000 0.882834
Si Si6 0.497538 0.881998 0.592761
Si Si7 0.694067 0.030474 0.828297
Si Si8 0.627399 0.351857 0.512470
O O1 0.353330 0.188518 0.405914
O O2 0.423064 0.297177 0.495294
O O3 0.631437 0.949458 0.561300
O O4 0.014376 0.959507 0.615467
O O5 0.079589 0.933123 0.466523
O O6 0.720555 0.052003 0.640729
O O7 0.250000 0.250000 0.761516
O O8 0.979583 0.345776 0.715734
O O9 0.750000 0.250000 0.773231
O O10 0.951469 0.228586 0.666915
O O11 0.585611 0.034494 0.758938
O O12 0.300478 0.046915 0.663866
O O13 0.274670 0.684439 0.930621
O O14 0.396639 0.912929 0.659126
O O15 0.291736 0.857713 0.547945
#
# Coordination Sequence:
#
# PCOD9432001 Si02
#       8
#     4   8   8   8   4   8   8   8
#     4  12  26  44  74  98 148 194 238 300 370 446
#     4  11  24  45  71 110 139 183 242 306 361 439
#     4  10  24  41  67 107 146 186 242 308 377 440
#     4  11  23  43  73 100 139 186 245 301 372 434
#     4  10  22  38  68 102 142 186 240 296 362 436
#     4  11  26  46  69 102 141 190 242 296 367 444
#     4  11  25  44  74 100 138 186 243 301 363 443
#     4  12  24  44  71 103 143 187 238 294 368 440
#
# _framework density 24.317519000000001
#
# number of rings (size 3 to 8) (size 9 to 14) (size 15 to 20)
#    0.429    0.571    4.286    1.286    5.000    4.571 
#    0.000    2.857    1.571    0.000    0.000    0.000 
#    0.000    0.000    0.000    0.000    0.000    0.000 
#
# Total GULP energy -312417.534852 kJ/mol
# GULP energy per Si atom -5578.884551 kJ/mol
# Density = 2.426217 g / cm^3
# Si number density = 24.317519 Si / 1000 Ang^3
#
#
#
# Elastic Constant Matrix: (Units=GPa)
#
#
# Indices 1 2 3 4 5 6 
#
# 1 119.8020 42.1632 15.5510 0.0000 0.0000 0.0000
# 2 42.1632 137.6230 2.4180 0.0000 0.0000 0.0000
# 3 15.5510 2.4180 49.4916 0.0000 0.0000 0.0000
# 4 0.0000 0.0000 0.0000 24.1768 0.0000 0.0000
# 5 0.0000 0.0000 0.0000 0.0000 13.3650 0.0000
# 6 0.0000 0.0000 0.0000 0.0000 0.0000 46.3293
#
#
#
# Elastic Compliance Matrix: (Units=1/GPa)
#
#
# Indices 1 2 3 4 5 6 
#
# 1 0.009761 -0.002939 -0.002923 0.000000 0.000000 0.000000
# 2 -0.002939 0.008157 0.000525 0.000000 0.000000 0.000000
# 3 -0.002923 0.000525 0.021098 0.000000 0.000000 0.000000
# 4 0.000000 0.000000 0.000000 0.041362 0.000000 0.000000
# 5 0.000000 0.000000 0.000000 0.000000 0.074822 0.000000
# 6 0.000000 0.000000 0.000000 0.000000 0.000000 0.021585
#
#
# Mechanical properties :
#
#
# Convention : Reuss Voigt Hill
#
# Bulk Modulus (GPa) = 35.28375 47.46456 41.37415
# Shear Modulus (GPa) = 25.39255 33.22650 29.30953
#
# Velocity S-wave (km/s) = 3.23493 3.70044 3.47549
# Velocity P-wave (km/s) = 5.33799 6.14969 5.75816
#
# Compressibility (1/GPa) = 0.02834166
#
# Stress axis : x y z
#
# Youngs Moduli (GPa) = 102.44883 122.58747 47.39696
#
# Poissons Ratio (x) = 0.36029 0.13856
# Poissons Ratio (y) = 0.30110 -0.02488
# Poissons Ratio (z) = 0.29950 -0.06435
#
# Static dielectric constant tensor:
#      x y z
#    x 2.088910 0.000000 0.000000 
#    y 0.000000 1.985980 0.000000 
#    z 0.000000 0.000000 1.917070 
# 
# From -- ./inp_files/20149.got.cif
#   From: 2010.05.17/outbox.cif.g08.bks.cpg/sg56_11_cif.got.tgz:20149.got - 2010.06.03 13:42:01.
