data_PCOD9432129
_publ_section_title
;
Structure prediction by ZEFSAII (Michael W. Deem and Ramdas Pophale) SiO2 
 PCOD9432129
Probable space group: P C C N
;
_chemical_formula_sum "Si O2"
_cell_formula_units_Z 60
_cell_length_a 17.395824
_cell_length_b 11.207141
_cell_length_c 12.859262
_cell_angle_alpha 90.000000
_cell_angle_beta 90.000000
_cell_angle_gamma 90.000000
_cell_volume 2507.008959
_symmetry_space_group_name_H-M "P C C N"
_symmetry_group_IT_number 56
_symmetry_cell_setting 'orthorhombic'
loop_
_space_group_symop_operation_xyz
x,y,z
1/2-x,1/2-y,z
1/2+x,-y,1/2-z
-x,1/2+y,1/2-z
-x,-y,-z
1/2+x,1/2+y,-z
1/2-x,y,1/2+z
x,1/2-y,1/2+z
loop_
_atom_site_type_symbol
_atom_site_label
_atom_site_fract_x
_atom_site_fract_y
_atom_site_fract_z
Si Si1 0.120262 0.291133 0.130118
Si Si2 0.750000 0.250000 0.260270
Si Si3 0.358040 0.794274 0.062225
Si Si4 0.522582 0.535432 0.215949
Si Si5 0.122813 0.391603 0.795841
Si Si6 0.158797 0.592991 0.390544
Si Si7 0.219637 0.463527 0.989388
Si Si8 0.979363 0.735788 0.560567
O O1 0.071582 0.384680 0.201630
O O2 0.153926 0.182165 0.197676
O O3 0.184767 0.361800 0.063883
O O4 0.056446 0.235338 0.052890
O O5 0.822182 0.268691 0.336797
O O6 0.723449 0.359266 0.189159
O O7 0.447498 0.822676 0.071091
O O8 0.354281 0.703335 0.966892
O O9 0.309136 0.911836 0.038842
O O10 0.445466 0.480454 0.263504
O O11 0.583253 0.439084 0.173307
O O12 0.498700 0.612189 0.114362
O O13 0.181422 0.448204 0.876149
O O14 0.084950 0.289141 0.865778
O O15 0.191007 0.482929 0.459885
#
# Coordination Sequence:
#
# PCOD9432129 Si02
#       8
#     8   4   8   8   8   8   8   8
#     4  10  22  44  66  92 131 177 227 272 342 400
#     4  12  22  40  64  98 136 172 208 274 344 394
#     4  12  23  41  68 100 137 169 218 280 343 405
#     4  11  24  42  66  99 135 178 224 289 339 399
#     4  10  22  40  67  99 129 176 231 276 336 408
#     4  12  25  42  63 103 138 169 231 276 334 419
#     4  11  22  44  67  97 134 181 222 282 347 402
#     4  10  23  41  65  97 132 170 227 281 329 415
#
# _framework density 23.932901999999999
#
# number of rings (size 3 to 8) (size 9 to 14) (size 15 to 20)
#    0.000    1.067    2.667    4.000    1.867    6.400 
#    0.000    7.333    0.000    0.000    0.000    0.000 
#    0.000    0.000    0.000    0.000    0.000    0.000 
#
# Total GULP energy -335624.618872 kJ/mol
# GULP energy per Si atom -5593.743648 kJ/mol
# Density = 2.387843 g / cm^3
# Si number density = 23.932902 Si / 1000 Ang^3
#
#
#
# Elastic Constant Matrix: (Units=GPa)
#
#
# Indices 1 2 3 4 5 6 
#
# 1 43.8614 10.1799 14.1638 0.0000 0.0000 0.0000
# 2 10.1799 64.2403 37.3864 0.0000 0.0000 0.0000
# 3 14.1638 37.3864 111.7027 0.0000 0.0000 0.0000
# 4 0.0000 0.0000 0.0000 38.3514 0.0000 0.0000
# 5 0.0000 0.0000 0.0000 0.0000 13.6337 0.0000
# 6 0.0000 0.0000 0.0000 0.0000 0.0000 33.1215
#
#
#
# Elastic Compliance Matrix: (Units=1/GPa)
#
#
# Indices 1 2 3 4 5 6 
#
# 1 0.024100 -0.002534 -0.002208 0.000000 0.000000 0.000000
# 2 -0.002534 0.019599 -0.006238 0.000000 0.000000 0.000000
# 3 -0.002208 -0.006238 0.011320 0.000000 0.000000 0.000000
# 4 0.000000 0.000000 0.000000 0.026075 0.000000 0.000000
# 5 0.000000 0.000000 0.000000 0.000000 0.073348 0.000000
# 6 0.000000 0.000000 0.000000 0.000000 0.000000 0.030192
#
#
# Mechanical properties :
#
#
# Convention : Reuss Voigt Hill
#
# Bulk Modulus (GPa) = 30.24923 38.14051 34.19487
# Shear Modulus (GPa) = 22.97653 27.55959 25.26806
#
# Velocity S-wave (km/s) = 3.10181 3.39711 3.25281
# Velocity P-wave (km/s) = 5.04925 5.59984 5.33166
#
# Compressibility (1/GPa) = 0.03305869
#
# Stress axis : x y z
#
# Youngs Moduli (GPa) = 41.49348 51.02391 88.33776
#
# Poissons Ratio (x) = 0.12931 0.19502
# Poissons Ratio (y) = 0.10515 0.55107
# Poissons Ratio (z) = 0.09160 0.31830
#
# Static dielectric constant tensor:
#      x y z
#    x 1.920560 0.000000 0.000000 
#    y 0.000000 1.937300 0.000000 
#    z 0.000000 0.000000 1.945860 
# 
# From -- ./inp_files/8683.got.cif
#   From: 2010.05.17/outbox.cif.g08.bks.cpg/sg56_5_cif.got.tgz:8683.got - 2010.06.03 13:42:01.
