data_PCOD9432831
_publ_section_title
;
Structure prediction by ZEFSAII (Michael W. Deem and Ramdas Pophale) SiO2 
 PCOD9432831
Probable space group: P C C N
;
_chemical_formula_sum "Si O2"
_cell_formula_units_Z 64
_cell_length_a 10.861637
_cell_length_b 14.312452
_cell_length_c 19.480725
_cell_angle_alpha 90.000000
_cell_angle_beta 90.000000
_cell_angle_gamma 90.000000
_cell_volume 3028.408408
_symmetry_space_group_name_H-M "P C C N"
_symmetry_group_IT_number 56
_symmetry_cell_setting 'orthorhombic'
loop_
_space_group_symop_operation_xyz
x,y,z
1/2-x,1/2-y,z
1/2+x,-y,1/2-z
-x,1/2+y,1/2-z
-x,-y,-z
1/2+x,1/2+y,-z
1/2-x,y,1/2+z
x,1/2-y,1/2+z
loop_
_atom_site_type_symbol
_atom_site_label
_atom_site_fract_x
_atom_site_fract_y
_atom_site_fract_z
Si Si1 0.420205 0.387139 0.641629
Si Si2 0.184809 0.958631 0.314093
Si Si3 0.364846 0.540762 0.014173
Si Si4 0.195863 0.501334 0.665678
Si Si5 0.852451 0.831391 0.650473
Si Si6 0.852251 0.327384 0.606164
Si Si7 0.388433 0.075110 0.991496
Si Si8 0.077505 0.199746 0.202034
O O1 0.560908 0.418487 0.651835
O O2 0.340071 0.478895 0.658946
O O3 0.392697 0.366205 0.561889
O O4 0.367910 0.303299 0.688723
O O5 0.301610 0.911971 0.348139
O O6 0.172386 0.939923 0.233507
O O7 0.200826 0.068933 0.324802
O O8 0.367448 0.635081 0.970343
O O9 0.244995 0.478527 0.990111
O O10 0.500000 0.500000 0.000000
O O11 0.349770 0.547227 0.095806
O O12 0.134164 0.398835 0.676492
O O13 0.750000 0.750000 0.644499
O O14 0.904286 0.859887 0.575515
O O15 0.939930 0.806587 0.715609
O O16 0.750000 0.250000 0.605040
O O17 0.965590 0.289506 0.648856
O O18 0.500000 0.000000 0.000000
#
# Coordination Sequence:
#
# PCOD9432831 Si02
#       8
#     8   8   8   8   8   8   8   8
#     4  11  22  42  69  99 139 178 236 287 351 423
#     4  11  23  43  68  98 135 188 226 288 358 425
#     4  11  23  44  67 101 136 178 237 286 352 424
#     4  10  24  39  70  96 134 177 232 295 351 411
#     4  11  24  45  68 106 141 181 238 300 349 424
#     4  12  24  44  69  93 139 192 227 280 365 435
#     4  11  23  44  74 102 141 190 235 294 364 421
#     4  11  23  42  67 101 136 179 237 286 348 425
#
# _framework density 21.133213999999999
#
# number of rings (size 3 to 8) (size 9 to 14) (size 15 to 20)
#    0.000    1.000    5.000    1.875    3.500    2.000 
#    2.250    0.625    0.000    0.000    0.000    0.000 
#    0.000    0.000    0.000    0.000    0.000    0.000 
#
# Total GULP energy -356911.786682 kJ/mol
# GULP energy per Si atom -5576.746667 kJ/mol
# Density = 2.108511 g / cm^3
# Si number density = 21.133214 Si / 1000 Ang^3
#
#
#
# Elastic Constant Matrix: (Units=GPa)
#
#
# Indices 1 2 3 4 5 6 
#
# 1 54.6210 -2.1990 8.2940 0.0000 0.0000 0.0000
# 2 -2.1990 64.0849 31.3123 0.0000 0.0000 0.0000
# 3 8.2940 31.3123 181.0817 0.0000 0.0000 0.0000
# 4 0.0000 0.0000 0.0000 31.0168 0.0000 0.0000
# 5 0.0000 0.0000 0.0000 0.0000 21.3463 0.0000
# 6 0.0000 0.0000 0.0000 0.0000 0.0000 10.2012
#
#
#
# Elastic Compliance Matrix: (Units=1/GPa)
#
#
# Indices 1 2 3 4 5 6 
#
# 1 0.018513 0.001146 -0.001046 0.000000 0.000000 0.000000
# 2 0.001146 0.017115 -0.003012 0.000000 0.000000 0.000000
# 3 -0.001046 -0.003012 0.006091 0.000000 0.000000 0.000000
# 4 0.000000 0.000000 0.000000 0.032241 0.000000 0.000000
# 5 0.000000 0.000000 0.000000 0.000000 0.046847 0.000000
# 6 0.000000 0.000000 0.000000 0.000000 0.000000 0.098028
#
#
# Mechanical properties :
#
#
# Convention : Reuss Voigt Hill
#
# Bulk Modulus (GPa) = 27.85840 41.62245 34.74043
# Shear Modulus (GPa) = 21.13060 30.00487 25.56774
#
# Velocity S-wave (km/s) = 3.16551 3.77211 3.48204
# Velocity P-wave (km/s) = 5.15476 6.22172 5.71320
#
# Compressibility (1/GPa) = 0.03589582
#
# Stress axis : x y z
#
# Youngs Moduli (GPa) = 54.01617 58.42707 164.17325
#
# Poissons Ratio (x) = -0.06698 0.17175
# Poissons Ratio (y) = -0.06193 0.49450
# Poissons Ratio (z) = 0.05651 0.17599
#
# Static dielectric constant tensor:
#      x y z
#    x 1.760330 0.000000 0.000000 
#    y 0.000000 2.290180 0.000000 
#    z 0.000000 0.000000 1.772610 
# 
# From -- ./inp_files/15797.got.cif
#   From: 2010.05.17/outbox.cif.g08.bks.cpg/sg56_8_cif.got.tgz:15797.got - 2010.06.03 13:42:01.
