data_PCOD9432079
_publ_section_title
;
Structure prediction by ZEFSAII (Michael W. Deem and Ramdas Pophale) SiO2 
 PCOD9432079
Probable space group: P C C N
;
_chemical_formula_sum "Si O2"
_cell_formula_units_Z 36
_cell_length_a 7.432304
_cell_length_b 15.655443
_cell_length_c 13.928126
_cell_angle_alpha 90.000000
_cell_angle_beta 90.000000
_cell_angle_gamma 90.000000
_cell_volume 1620.621191
_symmetry_space_group_name_H-M "P C C N"
_symmetry_group_IT_number 56
_symmetry_cell_setting 'orthorhombic'
loop_
_space_group_symop_operation_xyz
x,y,z
1/2-x,1/2-y,z
1/2+x,-y,1/2-z
-x,1/2+y,1/2-z
-x,-y,-z
1/2+x,1/2+y,-z
1/2-x,y,1/2+z
x,1/2-y,1/2+z
loop_
_atom_site_type_symbol
_atom_site_label
_atom_site_fract_x
_atom_site_fract_y
_atom_site_fract_z
Si Si1 0.394359 0.824808 0.358238
Si Si2 0.981330 0.938918 0.677135
Si Si3 0.772179 0.146470 0.942768
Si Si4 0.750000 0.750000 0.837664
Si Si5 0.583509 0.896341 0.708530
O O1 0.250000 0.750000 0.334759
O O2 0.447763 0.879055 0.265462
O O3 0.314196 0.875718 0.447320
O O4 0.587942 0.791074 0.396578
O O5 0.096113 0.904671 0.589031
O O6 0.770180 0.927252 0.662568
O O7 0.020342 0.033738 0.714100
O O8 0.750000 0.250000 0.938407
O O9 0.930157 0.120732 0.869240
O O10 0.641243 0.813316 0.768051
#
# Coordination Sequence:
#
# PCOD9432079 Si02
#       5
#     8   8   8   4   8
#     4  10  23  40  65  93 130 167 212 264 317 383
#     4  11  22  41  65  96 130 169 212 265 323 380
#     4  11  23  41  66  94 127 168 213 259 323 381
#     4  10  22  40  62  90 126 172 214 258 318 380
#     4  11  22  40  66  92 127 172 214 263 319 381
#
# _framework density 22.213705000000001
#
# number of rings (size 3 to 8) (size 9 to 14) (size 15 to 20)
#    0.000    1.333    2.222    4.667    0.000    5.333 
#    0.000    1.111    0.000    0.000    0.000    0.000 
#    0.000    0.000    0.000    0.000    0.000    0.000 
#
# Total GULP energy -201388.048522 kJ/mol
# GULP energy per Si atom -5594.112459 kJ/mol
# Density = 2.216315 g / cm^3
# Si number density = 22.213705 Si / 1000 Ang^3
#
#
#
# Elastic Constant Matrix: (Units=GPa)
#
#
# Indices 1 2 3 4 5 6 
#
# 1 117.6594 -5.7571 3.4979 0.0000 0.0000 0.0000
# 2 -5.7571 57.4506 -10.0901 0.0000 0.0000 0.0000
# 3 3.4979 -10.0901 28.4592 0.0000 0.0000 0.0000
# 4 0.0000 0.0000 0.0000********** 0.0000 0.0000
# 5 0.0000 0.0000 0.0000 0.0000 4.0981 0.0000
# 6 0.0000 0.0000 0.0000 0.0000 0.0000 36.5237
#
#
#
# Elastic Compliance Matrix: (Units=1/GPa)
#
#
# Indices 1 2 3 4 5 6 
#
# 1 0.008558 0.000718 -0.000797 0.000000 0.000000 0.000000
# 2 0.000718 0.018622 0.006514 0.000000 0.000000 0.000000
# 3 -0.000797 0.006514 0.037546 0.000000 0.000000 0.000000
# 4 0.000000 0.000000 0.000000 -0.000016 0.000000 0.000000
# 5 0.000000 0.000000 0.000000 0.000000 0.244013 0.000000
# 6 0.000000 0.000000 0.000000 0.000000 0.000000 0.027379
#
#
# Mechanical properties :
#
#
# Convention : Reuss Voigt Hill
#
# Bulk Modulus (GPa) = 12.88750 19.87451 16.38101
# Shear Modulus (GPa) = 14.32262 -12146.31454 -6065.99596
#
# Velocity S-wave (km/s) = 2.54198 -74.02572 -52.31322
# Velocity P-wave (km/s) = 3.79865 85.42508 60.34490
#
# Compressibility (1/GPa) = 0.07759458
#
# Stress axis : x y z
#
# Youngs Moduli (GPa) = 116.85075 53.69909 26.63423
#
# Poissons Ratio (x) = -0.03853 0.02124
# Poissons Ratio (y) = -0.08384 -0.17350
# Poissons Ratio (z) = 0.09318 -0.34981
#
# Static dielectric constant tensor:
#      x y z
#    x 1.802840 0.000000 0.000000 
#    y 0.000000 1.868390 0.000000 
#    z 0.000000 0.000000 1.776400 
# 
# From -- ./inp_files/10493.got.cif
#   From: 2010.05.17/outbox.cif.g08.bks.cpg/sg56_6_cif.got.tgz:10493.got - 2010.06.03 13:42:01.
