data_PCOD9432092
_publ_section_title
;
Structure prediction by ZEFSAII (Michael W. Deem and Ramdas Pophale) SiO2 
 PCOD9432092
Probable space group: P C C N
;
_chemical_formula_sum "Si O2"
_cell_formula_units_Z 40
_cell_length_a 13.302298
_cell_length_b 9.678235
_cell_length_c 12.688727
_cell_angle_alpha 90.000000
_cell_angle_beta 90.000000
_cell_angle_gamma 90.000000
_cell_volume 1633.581812
_symmetry_space_group_name_H-M "P C C N"
_symmetry_group_IT_number 56
_symmetry_cell_setting 'orthorhombic'
loop_
_space_group_symop_operation_xyz
x,y,z
1/2-x,1/2-y,z
1/2+x,-y,1/2-z
-x,1/2+y,1/2-z
-x,-y,-z
1/2+x,1/2+y,-z
1/2-x,y,1/2+z
x,1/2-y,1/2+z
loop_
_atom_site_type_symbol
_atom_site_label
_atom_site_fract_x
_atom_site_fract_y
_atom_site_fract_z
Si Si1 0.970377 0.673499 0.288842
Si Si2 0.847394 0.320582 0.121683
Si Si3 0.338843 0.359291 0.596346
Si Si4 0.666827 0.068146 0.355098
Si Si5 0.525384 0.181927 0.944327
O O1 0.903512 0.814703 0.298599
O O2 0.910708 0.557177 0.349311
O O3 0.074439 0.702841 0.345313
O O4 0.995573 0.629569 0.170657
O O5 0.750000 0.250000 0.075694
O O6 0.818863 0.390880 0.231834
O O7 0.909073 0.400328 0.031823
O O8 0.250000 0.250000 0.586627
O O9 0.274144 0.502667 0.608123
O O10 0.418753 0.312281 0.505793
O O11 0.601943 0.189414 0.413548
#
# Coordination Sequence:
#
# PCOD9432092 Si02
#       5
#     8   8   8   8   8
#     4   9  21  41  63  93 132 173 229 287 346 425
#     4  10  23  39  59  90 128 173 226 282 348 421
#     4   9  20  38  64  98 129 172 228 281 354 428
#     4  10  22  42  67  93 135 180 220 296 361 404
#     4  10  22  40  63  97 135 175 239 289 341 439
#
# _framework density 24.486070999999999
#
# number of rings (size 3 to 8) (size 9 to 14) (size 15 to 20)
#    0.000    2.400    0.000    0.000    0.000   20.000 
#    0.000    0.000    0.000    0.000    0.000    0.000 
#    0.000    0.000    0.000    0.000    0.000    0.800 
#
# Total GULP energy -222672.353586 kJ/mol
# GULP energy per Si atom -5566.808840 kJ/mol
# Density = 2.443034 g / cm^3
# Si number density = 24.486071 Si / 1000 Ang^3
#
#
#
# Elastic Constant Matrix: (Units=GPa)
#
#
# Indices 1 2 3 4 5 6 
#
# 1 176.9301 43.6884 62.4412 0.0000 0.0000 0.0000
# 2 43.6884 102.9094 32.2045 0.0000 0.0000 0.0000
# 3 62.4412 32.2045 132.1401 0.0000 0.0000 0.0000
# 4 0.0000 0.0000 0.0000 21.9805 0.0000 0.0000
# 5 0.0000 0.0000 0.0000 0.0000 54.2291 0.0000
# 6 0.0000 0.0000 0.0000 0.0000 0.0000 38.2466
#
#
#
# Elastic Compliance Matrix: (Units=1/GPa)
#
#
# Indices 1 2 3 4 5 6 
#
# 1 0.007200 -0.002156 -0.002877 0.000000 0.000000 0.000000
# 2 -0.002156 0.011165 -0.001702 0.000000 0.000000 0.000000
# 3 -0.002877 -0.001702 0.009342 0.000000 0.000000 0.000000
# 4 0.000000 0.000000 0.000000 0.045495 0.000000 0.000000
# 5 0.000000 0.000000 0.000000 0.000000 0.018440 0.000000
# 6 0.000000 0.000000 0.000000 0.000000 0.000000 0.026146
#
#
# Mechanical properties :
#
#
# Convention : Reuss Voigt Hill
#
# Bulk Modulus (GPa) = 70.24107 76.51643 73.37875
# Shear Modulus (GPa) = 36.76367 41.13426 38.94897
#
# Velocity S-wave (km/s) = 3.87901 4.10311 3.99263
# Velocity P-wave (km/s) = 6.98646 7.33240 7.16152
#
# Compressibility (1/GPa) = 0.01423668
#
# Stress axis : x y z
#
# Youngs Moduli (GPa) = 138.89739 89.56244 107.04489
#
# Poissons Ratio (x) = 0.19312 0.30792
# Poissons Ratio (y) = 0.29950 0.18222
# Poissons Ratio (z) = 0.39955 0.15246
#
# Static dielectric constant tensor:
#      x y z
#    x 1.914580 0.000000 0.000000 
#    y 0.000000 2.519200 0.000000 
#    z 0.000000 0.000000 2.003810 
# 
# From -- ./inp_files/10347.got.cif
#   From: 2010.05.17/outbox.cif.g08.bks.cpg/sg56_6_cif.got.tgz:10347.got - 2010.06.03 13:42:01.
