data_PCOD9432478
_publ_section_title
;
Structure prediction by ZEFSAII (Michael W. Deem and Ramdas Pophale) SiO2 
 PCOD9432478
Probable space group: P C C N
;
_chemical_formula_sum "Si O2"
_cell_formula_units_Z 36
_cell_length_a 20.811814
_cell_length_b 5.870376
_cell_length_c 12.815082
_cell_angle_alpha 90.000000
_cell_angle_beta 90.000000
_cell_angle_gamma 90.000000
_cell_volume 1565.659236
_symmetry_space_group_name_H-M "P C C N"
_symmetry_group_IT_number 56
_symmetry_cell_setting 'orthorhombic'
loop_
_space_group_symop_operation_xyz
x,y,z
1/2-x,1/2-y,z
1/2+x,-y,1/2-z
-x,1/2+y,1/2-z
-x,-y,-z
1/2+x,1/2+y,-z
1/2-x,y,1/2+z
x,1/2-y,1/2+z
loop_
_atom_site_type_symbol
_atom_site_label
_atom_site_fract_x
_atom_site_fract_y
_atom_site_fract_z
Si Si1 0.969220 0.853044 0.407082
Si Si2 0.320388 0.655677 0.426200
Si Si3 0.584220 0.206355 0.739795
Si Si4 0.750000 0.750000 0.991081
Si Si5 0.370267 0.505896 0.082284
O O1 0.920913 0.675251 0.461421
O O2 0.026782 0.736633 0.342156
O O3 0.931756 0.001262 0.318505
O O4 0.000000 0.000000 0.500000
O O5 0.250000 0.750000 0.439264
O O6 0.350717 0.782986 0.327248
O O7 0.301952 0.390006 0.438268
O O8 0.362567 0.757281 0.520249
O O9 0.596320 0.430716 0.809310
O O10 0.701347 0.601435 0.919323
#
# Coordination Sequence:
#
# PCOD9432478 Si02
#       5
#     8   8   8   4   8
#     4  12  27  44  68 105 147 198 256 312 370 451
#     4  10  25  45  72 103 143 186 248 312 381 454
#     4  12  25  43  68 104 140 198 244 307 379 445
#     4  10  22  46  70 104 138 190 238 320 384 446
#     4  11  24  44  70  99 143 186 247 306 374 449
#
# _framework density 22.993509
#
# number of rings (size 3 to 8) (size 9 to 14) (size 15 to 20)
#    0.000    0.889    2.222    4.000    3.111   10.667 
#    0.000    0.000    0.000    0.000    0.000    0.000 
#    0.000    0.000    0.000    0.000    0.000    0.000 
#
# Total GULP energy -200561.376741 kJ/mol
# GULP energy per Si atom -5571.149354 kJ/mol
# Density = 2.294117 g / cm^3
# Si number density = 22.993509 Si / 1000 Ang^3
#
#
#
# Elastic Constant Matrix: (Units=GPa)
#
#
# Indices 1 2 3 4 5 6 
#
# 1 115.1729 43.6342 35.1150 0.0000 0.0000 0.0000
# 2 43.6342 76.5148 21.9447 0.0000 0.0000 0.0000
# 3 35.1150 21.9447 62.4804 0.0000 0.0000 0.0000
# 4 0.0000 0.0000 0.0000 24.7774 0.0000 0.0000
# 5 0.0000 0.0000 0.0000 0.0000 38.5449 0.0000
# 6 0.0000 0.0000 0.0000 0.0000 0.0000 30.0044
#
#
#
# Elastic Compliance Matrix: (Units=1/GPa)
#
#
# Indices 1 2 3 4 5 6 
#
# 1 0.012315 -0.005602 -0.004954 0.000000 0.000000 0.000000
# 2 -0.005602 0.017082 -0.002851 0.000000 0.000000 0.000000
# 3 -0.004954 -0.002851 0.019790 0.000000 0.000000 0.000000
# 4 0.000000 0.000000 0.000000 0.040359 0.000000 0.000000
# 5 0.000000 0.000000 0.000000 0.000000 0.025944 0.000000
# 6 0.000000 0.000000 0.000000 0.000000 0.000000 0.033328
#
#
# Mechanical properties :
#
#
# Convention : Reuss Voigt Hill
#
# Bulk Modulus (GPa) = 44.69565 50.61732 47.65649
# Shear Modulus (GPa) = 27.30875 28.89697 28.10286
#
# Velocity S-wave (km/s) = 3.45000 3.54891 3.49980
# Velocity P-wave (km/s) = 5.94564 6.23334 6.09119
#
# Compressibility (1/GPa) = 0.02237354
#
# Stress axis : x y z
#
# Youngs Moduli (GPa) = 81.19879 58.54147 50.52942
#
# Poissons Ratio (x) = 0.32797 0.25031
# Poissons Ratio (y) = 0.45491 0.14406
# Poissons Ratio (z) = 0.40224 0.16690
#
# Static dielectric constant tensor:
#      x y z
#    x 1.920950 0.000000 0.000000 
#    y 0.000000 2.055800 0.000000 
#    z 0.000000 0.000000 1.943170 
# 
# From -- ./inp_files/8801.got.cif
#   From: 2010.05.17/outbox.cif.g08.bks.cpg/sg56_5_cif.got.tgz:8801.got - 2010.06.03 13:42:01.
