data_PCOD9432999
_publ_section_title
;
Structure prediction by ZEFSAII (Michael W. Deem and Ramdas Pophale) SiO2 
 PCOD9432999
Probable space group: P C C N
;
_chemical_formula_sum "Si O2"
_cell_formula_units_Z 40
_cell_length_a 8.153114
_cell_length_b 12.304390
_cell_length_c 15.367977
_cell_angle_alpha 90.000000
_cell_angle_beta 90.000000
_cell_angle_gamma 90.000000
_cell_volume 1541.701535
_symmetry_space_group_name_H-M "P C C N"
_symmetry_group_IT_number 56
_symmetry_cell_setting 'orthorhombic'
loop_
_space_group_symop_operation_xyz
x,y,z
1/2-x,1/2-y,z
1/2+x,-y,1/2-z
-x,1/2+y,1/2-z
-x,-y,-z
1/2+x,1/2+y,-z
1/2-x,y,1/2+z
x,1/2-y,1/2+z
loop_
_atom_site_type_symbol
_atom_site_label
_atom_site_fract_x
_atom_site_fract_y
_atom_site_fract_z
Si Si1 0.727607 0.994928 0.798655
Si Si2 0.093229 0.692918 0.648294
Si Si3 0.250000 0.250000 0.143534
Si Si4 0.250000 0.250000 0.366305
Si Si5 0.630343 0.519054 0.616607
Si Si6 0.086124 0.794531 0.456142
O O1 0.863431 0.067472 0.847353
O O2 0.549596 0.026448 0.837605
O O3 0.765284 0.868962 0.813334
O O4 0.751870 0.017047 0.696174
O O5 0.250000 0.750000 0.691390
O O6 0.083424 0.738644 0.550559
O O7 0.916944 0.722822 0.685474
O O8 0.418465 0.235336 0.089923
O O9 0.297186 0.364233 0.413349
O O10 0.613645 0.424660 0.545372
O O11 0.250000 0.750000 0.410868
#
# Coordination Sequence:
#
# PCOD9432999 Si02
#       6
#     8   8   4   4   8   8
#     4  11  24  45  74 107 150 186 245 300 365 435
#     4  11  24  47  69 104 143 194 241 299 353 436
#     4  10  24  46  68 112 141 187 240 308 356 440
#     4  12  24  44  74 108 145 191 240 300 372 428
#     4  11  25  45  72 110 148 190 241 303 365 435
#     4  10  25  46  69 102 144 190 244 295 359 428
#
# _framework density 25.945360000000001
#
# number of rings (size 3 to 8) (size 9 to 14) (size 15 to 20)
#    0.000    1.200    2.000    2.400    5.600    4.000 
#    7.200    0.000    0.000    0.000    0.000    0.000 
#    0.000    0.000    0.000    0.000    0.000    0.000 
#
# Total GULP energy -223862.486651 kJ/mol
# GULP energy per Si atom -5596.562166 kJ/mol
# Density = 2.588631 g / cm^3
# Si number density = 25.945360 Si / 1000 Ang^3
#
#
#
# Elastic Constant Matrix: (Units=GPa)
#
#
# Indices 1 2 3 4 5 6 
#
# 1 205.4288 81.4109 12.4594 0.0000 0.0000 0.0000
# 2 81.4109 249.5241 68.8927 0.0000 0.0000 0.0000
# 3 12.4594 68.8927 93.5315 0.0000 0.0000 0.0000
# 4 0.0000 0.0000 0.0000 41.2516 0.0000 0.0000
# 5 0.0000 0.0000 0.0000 0.0000 20.9375 0.0000
# 6 0.0000 0.0000 0.0000 0.0000 0.0000 58.6106
#
#
#
# Elastic Compliance Matrix: (Units=1/GPa)
#
#
# Indices 1 2 3 4 5 6 
#
# 1 0.005633 -0.002047 0.000757 0.000000 0.000000 0.000000
# 2 -0.002047 0.005775 -0.003981 0.000000 0.000000 0.000000
# 3 0.000757 -0.003981 0.013523 0.000000 0.000000 0.000000
# 4 0.000000 0.000000 0.000000 0.024241 0.000000 0.000000
# 5 0.000000 0.000000 0.000000 0.000000 0.047761 0.000000
# 6 0.000000 0.000000 0.000000 0.000000 0.000000 0.017062
#
#
# Mechanical properties :
#
#
# Convention : Reuss Voigt Hill
#
# Bulk Modulus (GPa) = 69.49357 97.11227 83.30292
# Shear Modulus (GPa) = 38.66011 49.87469 44.26740
#
# Velocity S-wave (km/s) = 3.86432 4.38916 4.13507
# Velocity P-wave (km/s) = 6.83764 7.94966 7.41453
#
# Compressibility (1/GPa) = 0.01438982
#
# Stress axis : x y z
#
# Youngs Moduli (GPa) = 177.52042 173.17363 73.94935
#
# Poissons Ratio (x) = 0.35449 -0.05601
# Poissons Ratio (y) = 0.36339 0.29437
# Poissons Ratio (z) = -0.13445 0.68935
#
# Static dielectric constant tensor:
#      x y z
#    x 2.084620 0.000000 0.000000 
#    y 0.000000 2.043590 0.000000 
#    z 0.000000 0.000000 2.068310 
# 
# From -- ./inp_files/14506.got.cif
#   From: 2010.05.17/outbox.cif.g08.bks.cpg/sg56_8_cif.got.tgz:14506.got - 2010.06.03 13:42:01.
