data_PCOD9432098
_publ_section_title
;
Structure prediction by ZEFSAII (Michael W. Deem and Ramdas Pophale) SiO2 
 PCOD9432098
Probable space group: P C C N
;
_chemical_formula_sum "Si O2"
_cell_formula_units_Z 48
_cell_length_a 13.675787
_cell_length_b 17.721808
_cell_length_c 7.880455
_cell_angle_alpha 90.000000
_cell_angle_beta 90.000000
_cell_angle_gamma 90.000000
_cell_volume 1909.904485
_symmetry_space_group_name_H-M "P C C N"
_symmetry_group_IT_number 56
_symmetry_cell_setting 'orthorhombic'
loop_
_space_group_symop_operation_xyz
x,y,z
1/2-x,1/2-y,z
1/2+x,-y,1/2-z
-x,1/2+y,1/2-z
-x,-y,-z
1/2+x,1/2+y,-z
1/2-x,y,1/2+z
x,1/2-y,1/2+z
loop_
_atom_site_type_symbol
_atom_site_label
_atom_site_fract_x
_atom_site_fract_y
_atom_site_fract_z
Si Si1 0.797228 0.016725 0.655903
Si Si2 0.250000 0.750000 0.336849
Si Si3 0.134372 0.336036 0.309284
Si Si4 0.750000 0.750000 0.948664
Si Si5 0.637237 0.155068 0.922926
Si Si6 0.887015 0.514885 0.510490
Si Si7 0.451105 0.415744 0.493489
O O1 0.679622 0.016636 0.662974
O O2 0.844974 0.939395 0.579189
O O3 0.828187 0.084369 0.534597
O O4 0.840555 0.019001 0.842006
O O5 0.157272 0.775135 0.448999
O O6 0.290719 0.819445 0.226513
O O7 0.154604 0.263550 0.431861
O O8 0.221197 0.318920 0.175022
O O9 0.129604 0.397710 0.456711
O O10 0.055865 0.371899 0.174543
O O11 0.524919 0.135322 0.881250
O O12 0.000000 0.500000 0.500000
O O13 0.500000 0.500000 0.500000
#
# Coordination Sequence:
#
# PCOD9432098 Si02
#       7
#     8   4   8   4   8   8   8
#     4  11  23  41  68  99 138 180 230 303 356 420
#     4  10  22  40  64  90 138 188 228 290 344 434
#     4  11  23  43  66 101 139 182 238 285 360 437
#     4  10  24  44  72 102 144 192 230 292 360 452
#     4  10  22  41  62  95 132 178 234 281 354 420
#     4  12  25  43  72 105 140 186 239 301 367 432
#     4  10  22  42  67  96 133 179 234 298 356 416
#
# _framework density 25.132148000000001
#
# number of rings (size 3 to 8) (size 9 to 14) (size 15 to 20)
#    0.000    1.333    0.000    6.000    0.000    6.667 
#    0.000    3.333    0.000    0.000    0.000    0.000 
#    0.000    0.000    0.000    0.000    0.000    0.000 
#
# Total GULP energy -267236.708827 kJ/mol
# GULP energy per Si atom -5567.431434 kJ/mol
# Density = 2.507495 g / cm^3
# Si number density = 25.132148 Si / 1000 Ang^3
#
#
#
# Elastic Constant Matrix: (Units=GPa)
#
#
# Indices 1 2 3 4 5 6 
#
# 1 159.9814 40.8885 42.5196 0.0000 0.0000 0.0000
# 2 40.8885 80.5030 26.8085 0.0000 0.0000 0.0000
# 3 42.5196 26.8085 96.1265 0.0000 0.0000 0.0000
# 4 0.0000 0.0000 0.0000 47.3978 0.0000 0.0000
# 5 0.0000 0.0000 0.0000 0.0000 35.0944 0.0000
# 6 0.0000 0.0000 0.0000 0.0000 0.0000 39.7600
#
#
#
# Elastic Compliance Matrix: (Units=1/GPa)
#
#
# Indices 1 2 3 4 5 6 
#
# 1 0.007714 -0.003067 -0.002557 0.000000 0.000000 0.000000
# 2 -0.003067 0.014913 -0.002803 0.000000 0.000000 0.000000
# 3 -0.002557 -0.002803 0.012316 0.000000 0.000000 0.000000
# 4 0.000000 0.000000 0.000000 0.021098 0.000000 0.000000
# 5 0.000000 0.000000 0.000000 0.000000 0.028495 0.000000
# 6 0.000000 0.000000 0.000000 0.000000 0.000000 0.025151
#
#
# Mechanical properties :
#
#
# Convention : Reuss Voigt Hill
#
# Bulk Modulus (GPa) = 55.27837 61.89378 58.58608
# Shear Modulus (GPa) = 37.71650 39.54340 38.62995
#
# Velocity S-wave (km/s) = 3.87812 3.97094 3.92481
# Velocity P-wave (km/s) = 6.48814 6.76057 6.62575
#
# Compressibility (1/GPa) = 0.01809026
#
# Stress axis : x y z
#
# Youngs Moduli (GPa) = 129.63325 67.05681 81.19816
#
# Poissons Ratio (x) = 0.20564 0.20762
# Poissons Ratio (y) = 0.39753 0.22756
# Poissons Ratio (z) = 0.33146 0.18793
#
# Static dielectric constant tensor:
#      x y z
#    x 2.236600 0.000000 0.000000 
#    y 0.000000 2.082150 0.000000 
#    z 0.000000 0.000000 2.024340 
# 
# From -- ./inp_files/3421.got.cif
#   From: 2010.05.17/outbox.cif.g08.bks.cpg/sg56_2_cif.got.tgz:3421.got - 2010.06.03 13:42:01.
