data_PCOD9432888
_publ_section_title
;
Structure prediction by ZEFSAII (Michael W. Deem and Ramdas Pophale) SiO2 
 PCOD9432888
Probable space group: P C C N
;
_chemical_formula_sum "Si O2"
_cell_formula_units_Z 32
_cell_length_a 26.723358
_cell_length_b 5.462737
_cell_length_c 9.085492
_cell_angle_alpha 90.000000
_cell_angle_beta 90.000000
_cell_angle_gamma 90.000000
_cell_volume 1326.324440
_symmetry_space_group_name_H-M "P C C N"
_symmetry_group_IT_number 56
_symmetry_cell_setting 'orthorhombic'
loop_
_space_group_symop_operation_xyz
x,y,z
1/2-x,1/2-y,z
1/2+x,-y,1/2-z
-x,1/2+y,1/2-z
-x,-y,-z
1/2+x,1/2+y,-z
1/2-x,y,1/2+z
x,1/2-y,1/2+z
loop_
_atom_site_type_symbol
_atom_site_label
_atom_site_fract_x
_atom_site_fract_y
_atom_site_fract_z
Si Si1 0.693032 0.324176 0.800822
Si Si2 0.132684 0.568648 0.421805
Si Si3 0.888694 0.557717 0.154695
Si Si4 0.017974 0.510903 0.668765
O O1 0.750000 0.250000 0.788513
O O2 0.677486 0.410388 0.962151
O O3 0.657656 0.104912 0.740728
O O4 0.670447 0.532898 0.693247
O O5 0.103869 0.316844 0.416760
O O6 0.100713 0.817105 0.441693
O O7 0.922726 0.522774 0.297759
O O8 0.004007 0.774730 0.741446
O O9 0.000000 0.500000 0.500000
#
# Coordination Sequence:
#
# PCOD9432888 Si02
#       4
#     8   8   8   8
#     4  10  24  44  68 100 135 180 232 280 348 415
#     4  10  24  42  68  97 137 180 222 285 343 413
#     4  10  26  43  71  96 144 172 238 280 362 403
#     4  12  28  47  76 107 145 191 249 304 369 439
#
# _framework density 24.126826000000001
#
# number of rings (size 3 to 8) (size 9 to 14) (size 15 to 20)
#    1.500    0.000    0.000    3.000   10.500    1.000 
#    0.000    0.000    0.000    0.000    0.000    0.000 
#    0.000    0.000    0.000    0.000    0.000    0.000 
#
# Total GULP energy -178400.239546 kJ/mol
# GULP energy per Si atom -5575.007486 kJ/mol
# Density = 2.407191 g / cm^3
# Si number density = 24.126826 Si / 1000 Ang^3
#
#
#
# Elastic Constant Matrix: (Units=GPa)
#
#
# Indices 1 2 3 4 5 6 
#
# 1 100.2542 17.2739 12.7246 0.0000 0.0000 0.0000
# 2 17.2739 209.4680 54.8704 0.0000 0.0000 0.0000
# 3 12.7246 54.8704 104.2947 0.0000 0.0000 0.0000
# 4 0.0000 0.0000 0.0000 25.5145 0.0000 0.0000
# 5 0.0000 0.0000 0.0000 0.0000 37.9183 0.0000
# 6 0.0000 0.0000 0.0000 0.0000 0.0000 24.7105
#
#
#
# Elastic Compliance Matrix: (Units=1/GPa)
#
#
# Indices 1 2 3 4 5 6 
#
# 1 0.010196 -0.000597 -0.000930 0.000000 0.000000 0.000000
# 2 -0.000597 0.005572 -0.002859 0.000000 0.000000 0.000000
# 3 -0.000930 -0.002859 0.011206 0.000000 0.000000 0.000000
# 4 0.000000 0.000000 0.000000 0.039193 0.000000 0.000000
# 5 0.000000 0.000000 0.000000 0.000000 0.026372 0.000000
# 6 0.000000 0.000000 0.000000 0.000000 0.000000 0.040469
#
#
# Mechanical properties :
#
#
# Convention : Reuss Voigt Hill
#
# Bulk Modulus (GPa) = 54.93891 64.86163 59.90027
# Shear Modulus (GPa) = 33.81892 39.57186 36.69539
#
# Velocity S-wave (km/s) = 3.74801 4.05428 3.90415
# Velocity P-wave (km/s) = 6.44596 6.98987 6.72342
#
# Compressibility (1/GPa) = 0.01820204
#
# Stress axis : x y z
#
# Youngs Moduli (GPa) = 98.08196 179.46621 89.24098
#
# Poissons Ratio (x) = 0.10719 0.08297
# Poissons Ratio (y) = 0.05858 0.25511
# Poissons Ratio (z) = 0.09119 0.51303
#
# Static dielectric constant tensor:
#      x y z
#    x 1.931500 0.000000 0.000000 
#    y 0.000000 2.011840 0.000000 
#    z 0.000000 0.000000 1.981530 
# 
# From -- ./inp_files/5050.got.cif
#   From: 2010.05.17/outbox.cif.g08.bks.cpg/sg56_3_cif.got.tgz:5050.got - 2010.06.03 13:42:01.
