data_PCOD9432640
_publ_section_title
;
Structure prediction by ZEFSAII (Michael W. Deem and Ramdas Pophale) SiO2 
 PCOD9432640
Probable space group: P C C N
;
_chemical_formula_sum "Si O2"
_cell_formula_units_Z 60
_cell_length_a 12.039801
_cell_length_b 7.426499
_cell_length_c 28.309609
_cell_angle_alpha 90.000000
_cell_angle_beta 90.000000
_cell_angle_gamma 90.000000
_cell_volume 2531.263208
_symmetry_space_group_name_H-M "P C C N"
_symmetry_group_IT_number 56
_symmetry_cell_setting 'orthorhombic'
loop_
_space_group_symop_operation_xyz
x,y,z
1/2-x,1/2-y,z
1/2+x,-y,1/2-z
-x,1/2+y,1/2-z
-x,-y,-z
1/2+x,1/2+y,-z
1/2-x,y,1/2+z
x,1/2-y,1/2+z
loop_
_atom_site_type_symbol
_atom_site_label
_atom_site_fract_x
_atom_site_fract_y
_atom_site_fract_z
Si Si1 0.250000 0.750000 0.165729
Si Si2 0.843855 0.888160 0.668693
Si Si3 0.163127 0.418707 0.727019
Si Si4 0.536143 0.389666 0.379139
Si Si5 0.694566 0.431192 0.090671
Si Si6 0.517380 0.814121 0.535046
Si Si7 0.988168 0.797481 0.851260
Si Si8 0.365602 0.140074 0.554271
O O1 0.290878 0.588231 0.198439
O O2 0.157754 0.669418 0.131680
O O3 0.750000 0.750000 0.681965
O O4 0.860539 0.981219 0.719238
O O5 0.951330 0.774963 0.652656
O O6 0.792509 0.978500 0.621461
O O7 0.250000 0.250000 0.722368
O O8 0.051792 0.356206 0.699877
O O9 0.503246 0.356653 0.432477
O O10 0.512070 0.583499 0.357754
O O11 0.750000 0.250000 0.068098
O O12 0.622832 0.567973 0.057047
O O13 0.605065 0.367024 0.129665
O O14 0.548867 0.763167 0.481886
O O15 0.405254 0.936356 0.539516
O O16 0.897603 0.856025 0.890838
O O17 0.250000 0.250000 0.548340
#
# Coordination Sequence:
#
# PCOD9432640 Si02
#       8
#     4   8   8   8   8   8   8   8
#     4  12  26  44  70  98 134 200 226 286 354 420
#     4  11  25  43  68 101 133 181 229 284 345 409
#     4  11  25  45  66  97 141 178 238 286 341 415
#     4  12  25  42  70  99 137 180 234 283 352 419
#     4  11  22  41  69  98 133 176 224 287 351 412
#     4  10  24  44  65 104 134 174 236 284 350 433
#     4  11  24  44  68  96 142 176 225 293 347 411
#     4  10  23  42  71  93 134 183 223 291 353 418
#
# _framework density 23.703579999999999
#
# number of rings (size 3 to 8) (size 9 to 14) (size 15 to 20)
#    0.000    1.067    4.000    2.000    4.667    2.667 
#    0.000    2.667    2.933    0.000    0.000    0.000 
#    0.000    0.000    0.000    0.000    0.000    0.000 
#
# Total GULP energy -334616.676932 kJ/mol
# GULP energy per Si atom -5576.944616 kJ/mol
# Density = 2.364963 g / cm^3
# Si number density = 23.703580 Si / 1000 Ang^3
#
#
#
# Elastic Constant Matrix: (Units=GPa)
#
#
# Indices 1 2 3 4 5 6 
#
# 1 86.7004 0.3363 -12.7841 0.0000 0.0000 0.0000
# 2 0.3363 71.1887 4.2380 0.0000 0.0000 0.0000
# 3 -12.7841 4.2380 79.3708 0.0000 0.0000 0.0000
# 4 0.0000 0.0000 0.0000 20.1963 0.0000 0.0000
# 5 0.0000 0.0000 0.0000 0.0000 -2.4289 0.0000
# 6 0.0000 0.0000 0.0000 0.0000 0.0000 34.6032
#
#
#
# Elastic Compliance Matrix: (Units=1/GPa)
#
#
# Indices 1 2 3 4 5 6 
#
# 1 0.011817 -0.000170 0.001912 0.000000 0.000000 0.000000
# 2 -0.000170 0.014094 -0.000780 0.000000 0.000000 0.000000
# 3 0.001912 -0.000780 0.012949 0.000000 0.000000 0.000000
# 4 0.000000 0.000000 0.000000 0.049514 0.000000 0.000000
# 5 0.000000 0.000000 0.000000 0.000000 -0.411705 0.000000
# 6 0.000000 0.000000 0.000000 0.000000 0.000000 0.028899
#
#
# Mechanical properties :
#
#
# Convention : Reuss Voigt Hill
#
# Bulk Modulus (GPa) = 24.51860 24.53778 24.52819
# Shear Modulus (GPa) = -17.68265 26.83876 4.57806
#
# Velocity S-wave (km/s) = -2.73425 3.36857 1.39125
# Velocity P-wave (km/s) = 0.63100 5.05015 3.59877
#
# Compressibility (1/GPa) = 0.04078536
#
# Stress axis : x y z
#
# Youngs Moduli (GPa) = 84.62661 70.95012 77.22750
#
# Poissons Ratio (x) = 0.01204 -0.14769
# Poissons Ratio (y) = 0.01436 0.06023
# Poissons Ratio (z) = -0.16184 0.05533
#
# Static dielectric constant tensor:
#      x y z
#    x 2.170420 0.000000 0.000000 
#    y 0.000000 2.151130 0.000000 
#    z 0.000000 0.000000 1.887470 
# 
# From -- ./inp_files/22307.got.cif
#   From: 2010.05.17/outbox.cif.g08.bks.cpg/sg56_12_cif.got.tgz:22307.got - 2010.06.03 13:42:01.
