data_PCOD9432299
_publ_section_title
;
Structure prediction by ZEFSAII (Michael W. Deem and Ramdas Pophale) SiO2 
 PCOD9432299
Probable space group: P C C N
;
_chemical_formula_sum "Si O2"
_cell_formula_units_Z 60
_cell_length_a 11.741853
_cell_length_b 9.254760
_cell_length_c 24.681536
_cell_angle_alpha 90.000000
_cell_angle_beta 90.000000
_cell_angle_gamma 90.000000
_cell_volume 2682.093931
_symmetry_space_group_name_H-M "P C C N"
_symmetry_group_IT_number 56
_symmetry_cell_setting 'orthorhombic'
loop_
_space_group_symop_operation_xyz
x,y,z
1/2-x,1/2-y,z
1/2+x,-y,1/2-z
-x,1/2+y,1/2-z
-x,-y,-z
1/2+x,1/2+y,-z
1/2-x,y,1/2+z
x,1/2-y,1/2+z
loop_
_atom_site_type_symbol
_atom_site_label
_atom_site_fract_x
_atom_site_fract_y
_atom_site_fract_z
Si Si1 0.131547 0.803464 0.784953
Si Si2 0.468758 0.152243 0.448865
Si Si3 0.645213 0.569951 0.937758
Si Si4 0.125906 0.144149 0.614975
Si Si5 0.582178 0.893469 0.768408
Si Si6 0.064413 0.016538 0.442548
Si Si7 0.284945 0.978227 0.385517
Si Si8 0.250000 0.250000 0.312583
O O1 0.250000 0.750000 0.758519
O O2 0.039707 0.676019 0.782500
O O3 0.081559 0.945994 0.756012
O O4 0.169993 0.856298 0.844937
O O5 0.415479 0.137657 0.509071
O O6 0.444812 0.313635 0.431206
O O7 0.395392 0.043311 0.413480
O O8 0.596626 0.092240 0.440477
O O9 0.610286 0.683456 0.890872
O O10 0.780904 0.587206 0.929203
O O11 0.155396 0.105987 0.676258
O O12 0.009641 0.068644 0.600480
O O13 0.643491 0.790106 0.725032
O O14 0.192007 0.956251 0.433269
O O15 0.000000 0.000000 0.500000
O O16 0.232455 0.106798 0.348517
#
# Coordination Sequence:
#
# PCOD9432299 Si02
#       8
#     8   8   8   8   8   8   8   4
#     4  11  27  49  73 107 144 188 247 310 377 457
#     4  11  22  41  66  97 133 182 232 289 349 432
#     4  10  23  42  62  93 138 177 231 275 359 421
#     4  11  23  42  66  94 133 179 221 293 352 427
#     4  11  26  45  74  99 144 185 246 298 377 437
#     4  12  23  39  70 102 140 181 237 293 361 427
#     4  11  23  42  72  99 139 184 241 297 366 433
#     4  10  22  42  70 100 128 188 238 304 360 438
#
# _framework density 22.37058
#
# number of rings (size 3 to 8) (size 9 to 14) (size 15 to 20)
#    0.000    1.067    2.667    3.200    7.467    0.533 
#    4.800    0.000    0.000    0.000    0.000    0.000 
#    0.000    0.000    0.000    0.000    0.000    0.000 
#
# Total GULP energy -334906.927320 kJ/mol
# GULP energy per Si atom -5581.782122 kJ/mol
# Density = 2.231966 g / cm^3
# Si number density = 22.370580 Si / 1000 Ang^3
#
#
#
# Elastic Constant Matrix: (Units=GPa)
#
#
# Indices 1 2 3 4 5 6 
#
# 1 108.0231 54.2157 11.5650 0.0000 0.0000 0.0000
# 2 54.2157 61.0324 20.3160 0.0000 0.0000 0.0000
# 3 11.5650 20.3160 82.7624 0.0000 0.0000 0.0000
# 4 0.0000 0.0000 0.0000 22.4699 0.0000 0.0000
# 5 0.0000 0.0000 0.0000 0.0000 29.0849 0.0000
# 6 0.0000 0.0000 0.0000 0.0000 0.0000 47.7513
#
#
#
# Elastic Compliance Matrix: (Units=1/GPa)
#
#
# Indices 1 2 3 4 5 6 
#
# 1 0.016861 -0.015456 0.001438 0.000000 0.000000 0.000000
# 2 -0.015456 0.032011 -0.005698 0.000000 0.000000 0.000000
# 3 0.001438 -0.005698 0.013281 0.000000 0.000000 0.000000
# 4 0.000000 0.000000 0.000000 0.044504 0.000000 0.000000
# 5 0.000000 0.000000 0.000000 0.000000 0.034382 0.000000
# 6 0.000000 0.000000 0.000000 0.000000 0.000000 0.020942
#
#
# Mechanical properties :
#
#
# Convention : Reuss Voigt Hill
#
# Bulk Modulus (GPa) = 44.01408 47.11239 45.56323
# Shear Modulus (GPa) = 23.92502 30.90930 27.41716
#
# Velocity S-wave (km/s) = 3.27385 3.72115 3.50464
# Velocity P-wave (km/s) = 5.83168 6.29033 6.06534
#
# Compressibility (1/GPa) = 0.02272000
#
# Stress axis : x y z
#
# Youngs Moduli (GPa) = 59.30991 31.23894 75.29788
#
# Poissons Ratio (x) = 0.48283 -0.10828
# Poissons Ratio (y) = 0.91670 0.42906
# Poissons Ratio (z) = -0.08529 0.17800
#
# Static dielectric constant tensor:
#      x y z
#    x 1.887350 0.000000 0.000000 
#    y 0.000000 1.833400 0.000000 
#    z 0.000000 0.000000 1.816960 
# 
# From -- ./inp_files/22344.got.cif
#   From: 2010.05.17/outbox.cif.g08.bks.cpg/sg56_12_cif.got.tgz:22344.got - 2010.06.03 13:42:01.
