data_PCOD9432498
_publ_section_title
;
Structure prediction by ZEFSAII (Michael W. Deem and Ramdas Pophale) SiO2 
 PCOD9432498
Probable space group: P C C N
;
_chemical_formula_sum "Si O2"
_cell_formula_units_Z 40
_cell_length_a 5.177935
_cell_length_b 12.873061
_cell_length_c 24.228196
_cell_angle_alpha 90.000000
_cell_angle_beta 90.000000
_cell_angle_gamma 90.000000
_cell_volume 1614.951558
_symmetry_space_group_name_H-M "P C C N"
_symmetry_group_IT_number 56
_symmetry_cell_setting 'orthorhombic'
loop_
_space_group_symop_operation_xyz
x,y,z
1/2-x,1/2-y,z
1/2+x,-y,1/2-z
-x,1/2+y,1/2-z
-x,-y,-z
1/2+x,1/2+y,-z
1/2-x,y,1/2+z
x,1/2-y,1/2+z
loop_
_atom_site_type_symbol
_atom_site_label
_atom_site_fract_x
_atom_site_fract_y
_atom_site_fract_z
Si Si1 0.009542 0.190663 0.830249
Si Si2 0.315044 0.404611 0.517847
Si Si3 0.437770 0.651421 0.374808
Si Si4 0.409288 0.032946 0.413813
Si Si5 0.703415 0.936330 0.768399
O O1 0.750000 0.250000 0.821157
O O2 0.123100 0.151963 0.773650
O O3 0.250000 0.250000 0.857240
O O4 0.933980 0.093613 0.868082
O O5 0.500000 0.500000 0.500000
O O6 0.455924 0.330794 0.562121
O O7 0.198235 0.382211 0.457762
O O8 0.084844 0.454052 0.552660
O O9 0.250000 0.750000 0.360523
O O10 0.290385 0.541362 0.382531
O O11 0.650272 0.617953 0.328399
O O12 0.988157 0.975384 0.749085
#
# Coordination Sequence:
#
# PCOD9432498 Si02
#       5
#     8   8   8   8   8
#     4  12  27  46  73 108 142 189 249 295 360 437
#     4   9  21  43  72  96 146 183 242 286 368 424
#     4  11  24  43  70 106 140 189 241 302 364 435
#     4  10  22  47  67 102 144 191 230 307 355 434
#     4  12  25  47  77 100 149 195 238 303 372 428
#
# _framework density 24.768547999999999
#
# number of rings (size 3 to 8) (size 9 to 14) (size 15 to 20)
#    0.000    1.200    2.000    3.000    5.600    0.800 
#   10.800    0.000    0.000    0.000    0.000    0.000 
#    0.000    0.000    0.000    0.000    0.000    0.000 
#
# Total GULP energy -223175.901621 kJ/mol
# GULP energy per Si atom -5579.397541 kJ/mol
# Density = 2.471217 g / cm^3
# Si number density = 24.768548 Si / 1000 Ang^3
#
#
#
# Elastic Constant Matrix: (Units=GPa)
#
#
# Indices 1 2 3 4 5 6 
#
# 1 46.7979 2.9636 -20.5756 0.0000 0.0000 0.0000
# 2 2.9636 71.6527 21.6977 0.0000 0.0000 0.0000
# 3 -20.5756 21.6977 109.7335 0.0000 0.0000 0.0000
# 4 0.0000 0.0000 0.0000 50.4285 0.0000 0.0000
# 5 0.0000 0.0000 0.0000 0.0000 28.7064 0.0000
# 6 0.0000 0.0000 0.0000 0.0000 0.0000 60.3510
#
#
#
# Elastic Compliance Matrix: (Units=1/GPa)
#
#
# Indices 1 2 3 4 5 6 
#
# 1 0.023693 -0.002473 0.004932 0.000000 0.000000 0.000000
# 2 -0.002473 0.015103 -0.003450 0.000000 0.000000 0.000000
# 3 0.004932 -0.003450 0.010720 0.000000 0.000000 0.000000
# 4 0.000000 0.000000 0.000000 0.019830 0.000000 0.000000
# 5 0.000000 0.000000 0.000000 0.000000 0.034835 0.000000
# 6 0.000000 0.000000 0.000000 0.000000 0.000000 0.016570
#
#
# Mechanical properties :
#
#
# Convention : Reuss Voigt Hill
#
# Bulk Modulus (GPa) = 21.03805 26.26172 23.64989
# Shear Modulus (GPa) = 36.08030 42.83709 39.45870
#
# Velocity S-wave (km/s) = 3.82081 4.16323 3.99569
# Velocity P-wave (km/s) = 5.28934 5.80826 5.55486
#
# Compressibility (1/GPa) = 0.04753293
#
# Stress axis : x y z
#
# Youngs Moduli (GPa) = 42.20584 66.21080 93.28442
#
# Poissons Ratio (x) = 0.16376 -0.46005
# Poissons Ratio (y) = 0.10439 0.32185
# Poissons Ratio (z) = -0.20815 0.22844
#
# Static dielectric constant tensor:
#      x y z
#    x 1.988110 0.000000 0.000000 
#    y 0.000000 2.026390 0.000000 
#    z 0.000000 0.000000 2.125110 
# 
# From -- ./inp_files/19973.got.cif
#   From: 2010.05.17/outbox.cif.g08.bks.cpg/sg56_10_cif.got.tgz:19973.got - 2010.06.03 13:42:01.
