data_PCOD9432732
_publ_section_title
;
Structure prediction by ZEFSAII (Michael W. Deem and Ramdas Pophale) SiO2 
 PCOD9432732
Probable space group: P C C N
;
_chemical_formula_sum "Si O2"
_cell_formula_units_Z 48
_cell_length_a 25.544460
_cell_length_b 7.926895
_cell_length_c 9.608785
_cell_angle_alpha 90.000000
_cell_angle_beta 90.000000
_cell_angle_gamma 90.000000
_cell_volume 1945.666081
_symmetry_space_group_name_H-M "P C C N"
_symmetry_group_IT_number 56
_symmetry_cell_setting 'orthorhombic'
loop_
_space_group_symop_operation_xyz
x,y,z
1/2-x,1/2-y,z
1/2+x,-y,1/2-z
-x,1/2+y,1/2-z
-x,-y,-z
1/2+x,1/2+y,-z
1/2-x,y,1/2+z
x,1/2-y,1/2+z
loop_
_atom_site_type_symbol
_atom_site_label
_atom_site_fract_x
_atom_site_fract_y
_atom_site_fract_z
Si Si1 0.326614 0.937764 0.423421
Si Si2 0.090082 0.335509 0.755822
Si Si3 0.027396 0.320959 0.018923
Si Si4 0.575577 0.345073 0.926789
Si Si5 0.692736 0.762765 0.906014
Si Si6 0.670027 0.371286 0.392677
O O1 0.389696 0.927350 0.449251
O O2 0.313249 0.891861 0.266802
O O3 0.307526 0.791197 0.528457
O O4 0.308620 0.117545 0.477981
O O5 0.076845 0.316173 0.915998
O O6 0.047617 0.226316 0.670435
O O7 0.081796 0.527826 0.702711
O O8 0.146641 0.277555 0.703127
O O9 0.982950 0.190121 0.970575
O O10 0.000000 0.500000 0.000000
O O11 0.607883 0.173622 0.894746
O O12 0.750000 0.750000 0.839582
O O13 0.683326 0.951343 0.962105
#
# Coordination Sequence:
#
# PCOD9432732 Si02
#       6
#     8   8   8   8   8   8
#     4   9  24  44  73 108 143 189 245 301 378 448
#     4  11  26  43  67 106 145 184 257 294 366 460
#     4  12  25  41  73 103 143 198 232 304 376 448
#     4   9  23  42  68 100 147 179 235 293 372 440
#     4  11  26  48  72 105 150 197 254 320 380 435
#     4  10  23  44  76 103 149 184 247 305 374 450
#
# _framework density 24.670213
#
# number of rings (size 3 to 8) (size 9 to 14) (size 15 to 20)
#    1.000    0.667    0.000    2.500    9.333    2.667 
#    0.000    1.667    0.000    0.000    0.000    0.000 
#    0.000    0.000    0.000    0.000    0.000    0.000 
#
# Total GULP energy -268769.136503 kJ/mol
# GULP energy per Si atom -5599.357010 kJ/mol
# Density = 2.461406 g / cm^3
# Si number density = 24.670213 Si / 1000 Ang^3
#
#
#
# Elastic Constant Matrix: (Units=GPa)
#
#
# Indices 1 2 3 4 5 6 
#
# 1 90.1583 17.1478 -6.0545 0.0000 0.0000 0.0000
# 2 17.1478 191.8830 42.2606 0.0000 0.0000 0.0000
# 3 -6.0545 42.2606 103.3926 0.0000 0.0000 0.0000
# 4 0.0000 0.0000 0.0000 25.8542 0.0000 0.0000
# 5 0.0000 0.0000 0.0000 0.0000 10.2827 0.0000
# 6 0.0000 0.0000 0.0000 0.0000 0.0000 8.7597
#
#
#
# Elastic Compliance Matrix: (Units=1/GPa)
#
#
# Indices 1 2 3 4 5 6 
#
# 1 0.011416 -0.001283 0.001193 0.000000 0.000000 0.000000
# 2 -0.001283 0.005871 -0.002475 0.000000 0.000000 0.000000
# 3 0.001193 -0.002475 0.010753 0.000000 0.000000 0.000000
# 4 0.000000 0.000000 0.000000 0.038678 0.000000 0.000000
# 5 0.000000 0.000000 0.000000 0.000000 0.097251 0.000000
# 6 0.000000 0.000000 0.000000 0.000000 0.000000 0.114159
#
#
# Mechanical properties :
#
#
# Convention : Reuss Voigt Hill
#
# Bulk Modulus (GPa) = 43.64841 54.68239 49.16540
# Shear Modulus (GPa) = 17.18830 31.11798 24.15314
#
# Velocity S-wave (km/s) = 2.64241 3.55541 3.13236
# Velocity P-wave (km/s) = 5.20009 6.25045 5.74931
#
# Compressibility (1/GPa) = 0.02291034
#
# Stress axis : x y z
#
# Youngs Moduli (GPa) = 87.59858 170.32181 92.99449
#
# Poissons Ratio (x) = 0.21850 -0.11093
# Poissons Ratio (y) = 0.11238 0.23015
# Poissons Ratio (z) = -0.10449 0.42153
#
# Static dielectric constant tensor:
#      x y z
#    x 1.975990 0.000000 0.000000 
#    y 0.000000 1.969370 0.000000 
#    z 0.000000 0.000000 1.894320 
# 
# From -- ./inp_files/5115.got.cif
#   From: 2010.05.17/outbox.cif.g08.bks.cpg/sg56_3_cif.got.tgz:5115.got - 2010.06.03 13:42:01.
