data_PCOD9432281
_publ_section_title
;
Structure prediction by ZEFSAII (Michael W. Deem and Ramdas Pophale) SiO2 
 PCOD9432281
Probable space group: P C C N
;
_chemical_formula_sum "Si O2"
_cell_formula_units_Z 28
_cell_length_a 8.808873
_cell_length_b 5.149165
_cell_length_c 28.383140
_cell_angle_alpha 90.000000
_cell_angle_beta 90.000000
_cell_angle_gamma 90.000000
_cell_volume 1287.412130
_symmetry_space_group_name_H-M "P C C N"
_symmetry_group_IT_number 56
_symmetry_cell_setting 'orthorhombic'
loop_
_space_group_symop_operation_xyz
x,y,z
1/2-x,1/2-y,z
1/2+x,-y,1/2-z
-x,1/2+y,1/2-z
-x,-y,-z
1/2+x,1/2+y,-z
1/2-x,y,1/2+z
x,1/2-y,1/2+z
loop_
_atom_site_type_symbol
_atom_site_label
_atom_site_fract_x
_atom_site_fract_y
_atom_site_fract_z
Si Si1 0.925390 0.150905 0.873836
Si Si2 0.456841 0.604739 0.721900
Si Si3 0.431344 0.248656 0.474257
Si Si4 0.250000 0.250000 0.171321
O O1 0.750000 0.250000 0.880321
O O2 0.007508 0.274712 0.828217
O O3 0.015767 0.219329 0.920280
O O4 0.889296 0.849884 0.860591
O O5 0.535914 0.342071 0.741466
O O6 0.296676 0.481389 0.705830
O O7 0.250000 0.250000 0.477698
O O8 0.500000 0.500000 0.500000
O O9 0.500000 0.000000 0.500000
#
# Coordination Sequence:
#
# PCOD9432281 Si02
#       4
#     8   8   8   4
#     4  10  23  43  72 102 144 187 247 300 370 431
#     4  11  22  40  64  99 140 188 239 291 354 425
#     4  12  28  50  76 111 145 192 243 306 372 443
#     4  10  22  42  68 100 136 200 244 294 370 420
#
# _framework density 21.749058000000002
#
# number of rings (size 3 to 8) (size 9 to 14) (size 15 to 20)
#    0.000    1.143    2.857    2.571   10.000    0.000 
#    2.571    2.857    0.000    0.000    0.000    0.000 
#    0.000    0.000    0.000    0.000    0.000    0.000 
#
# Total GULP energy -156131.843533 kJ/mol
# GULP energy per Si atom -5576.137269 kJ/mol
# Density = 2.169956 g / cm^3
# Si number density = 21.749058 Si / 1000 Ang^3
#
#
#
# Elastic Constant Matrix: (Units=GPa)
#
#
# Indices 1 2 3 4 5 6 
#
# 1 128.4652 55.8959 64.0612 0.0000 0.0000 0.0000
# 2 55.8959 197.4038 92.5166 0.0000 0.0000 0.0000
# 3 64.0612 92.5166 182.3524 0.0000 0.0000 0.0000
# 4 0.0000 0.0000 0.0000 34.1719 0.0000 0.0000
# 5 0.0000 0.0000 0.0000 0.0000 39.9481 0.0000
# 6 0.0000 0.0000 0.0000 0.0000 0.0000 39.7798
#
#
#
# Elastic Compliance Matrix: (Units=1/GPa)
#
#
# Indices 1 2 3 4 5 6 
#
# 1 0.009773 -0.001520 -0.002662 0.000000 0.000000 0.000000
# 2 -0.001520 0.006882 -0.002958 0.000000 0.000000 0.000000
# 3 -0.002662 -0.002958 0.007920 0.000000 0.000000 0.000000
# 4 0.000000 0.000000 0.000000 0.029264 0.000000 0.000000
# 5 0.000000 0.000000 0.000000 0.000000 0.025032 0.000000
# 6 0.000000 0.000000 0.000000 0.000000 0.000000 0.025138
#
#
# Mechanical properties :
#
#
# Convention : Reuss Voigt Hill
#
# Bulk Modulus (GPa) = 97.12916 103.68543 100.40730
# Shear Modulus (GPa) = 41.07743 42.49647 41.78695
#
# Velocity S-wave (km/s) = 4.35063 4.42514 4.38804
# Velocity P-wave (km/s) = 8.36620 8.59571 8.48173
#
# Compressibility (1/GPa) = 0.01029557
#
# Stress axis : x y z
#
# Youngs Moduli (GPa) = 102.32280 145.30039 126.26431
#
# Poissons Ratio (x) = 0.22078 0.33616
# Poissons Ratio (y) = 0.15548 0.37348
# Poissons Ratio (z) = 0.27242 0.42979
#
# Static dielectric constant tensor:
#      x y z
#    x 1.851050 0.000000 0.000000 
#    y 0.000000 1.953270 0.000000 
#    z 0.000000 0.000000 1.795470 
# 
# From -- ./inp_files/23041.got.cif
#   From: 2010.05.17/outbox.cif.g08.bks.cpg/sg56_12_cif.got.tgz:23041.got - 2010.06.03 13:42:01.
