data_PCOD9432848
_publ_section_title
;
Structure prediction by ZEFSAII (Michael W. Deem and Ramdas Pophale) SiO2 
 PCOD9432848
Probable space group: P C C N
;
_chemical_formula_sum "Si O2"
_cell_formula_units_Z 40
_cell_length_a 9.622261
_cell_length_b 20.545965
_cell_length_c 8.687610
_cell_angle_alpha 90.000000
_cell_angle_beta 90.000000
_cell_angle_gamma 90.000000
_cell_volume 1717.528662
_symmetry_space_group_name_H-M "P C C N"
_symmetry_group_IT_number 56
_symmetry_cell_setting 'orthorhombic'
loop_
_space_group_symop_operation_xyz
x,y,z
1/2-x,1/2-y,z
1/2+x,-y,1/2-z
-x,1/2+y,1/2-z
-x,-y,-z
1/2+x,1/2+y,-z
1/2-x,y,1/2+z
x,1/2-y,1/2+z
loop_
_atom_site_type_symbol
_atom_site_label
_atom_site_fract_x
_atom_site_fract_y
_atom_site_fract_z
Si Si1 0.916081 0.076480 0.661475
Si Si2 0.250000 0.750000 0.575838
Si Si3 0.916081 0.576480 0.161475
Si Si4 0.634980 0.656559 0.169467
Si Si5 0.634980 0.156559 0.669467
Si Si6 0.250000 0.250000 0.075838
O O1 1.000000 0.083867 0.500000
O O2 0.763615 0.106934 0.649775
O O3 0.998445 0.115453 0.793754
O O4 0.909078 1.000000 0.696422
O O5 0.162722 0.798308 0.682053
O O6 0.349343 0.793204 0.469596
O O7 0.998445 0.615453 0.293754
O O8 0.763615 0.606934 0.149775
O O9 0.662722 0.701692 0.317947
O O10 0.650657 0.706796 0.030404
#
# Coordination Sequence:
#
# PCOD9432848 Si02
#       6
#     8   4   8   8   8   4
#     4  11  24  44  68  97 134 173 220 271 322 386
#     4  10  24  40  70  96 132 172 220 262 336 384
#     4  11  24  44  68  97 134 173 220 271 322 386
#     4  11  23  44  66 100 129 175 214 276 320 393
#     4  11  23  44  66 100 129 175 214 276 320 393
#     4  10  24  40  70  96 132 172 220 262 336 384
#
# _framework density 23.289277999999999
#
# number of rings (size 3 to 8) (size 9 to 14) (size 15 to 20)
#    0.000    1.200    4.000    1.200    0.000   11.200 
#    0.000    2.000    0.000    0.000    0.000    0.000 
#    0.000    0.000    0.000    0.000    0.000    0.000 
#
# Total GULP energy -224255.705047 kJ/mol
# GULP energy per Si atom -5606.392626 kJ/mol
# Density = 2.323627 g / cm^3
# Si number density = 23.289278 Si / 1000 Ang^3
#
#
#
# Elastic Constant Matrix: (Units=GPa)
#
#
# Indices 1 2 3 4 5 6 
#
# 1 87.8751 28.9250 7.2267 0.0000 0.0000 0.0000
# 2 28.9250 160.6094 61.1784 0.0000 0.0000 0.0000
# 3 7.2267 61.1784 101.2914 0.0000 0.0000 0.0000
# 4 0.0000 0.0000 0.0000 -68.1935 0.0000 0.0000
# 5 0.0000 0.0000 0.0000 0.0000 17.9119 0.0000
# 6 0.0000 0.0000 0.0000 0.0000 0.0000 -0.9191
#
#
#
# Elastic Compliance Matrix: (Units=1/GPa)
#
#
# Indices 1 2 3 4 5 6 
#
# 1 0.012124 -0.002408 0.000589 0.000000 0.000000 0.000000
# 2 -0.002408 0.008565 -0.005001 0.000000 0.000000 0.000000
# 3 0.000589 -0.005001 0.012851 0.000000 0.000000 0.000000
# 4 0.000000 0.000000 0.000000 -0.014664 0.000000 0.000000
# 5 0.000000 0.000000 0.000000 0.000000 0.055829 0.000000
# 6 0.000000 0.000000 0.000000 0.000000 0.000000 -1.087967
#
#
# Mechanical properties :
#
#
# Convention : Reuss Voigt Hill
#
# Bulk Modulus (GPa) = 50.25050 60.49289 55.37170
# Shear Modulus (GPa) = -5.03530 6.58956 0.77713
#
# Velocity S-wave (km/s) = -1.47199 1.68392 0.57828
# Velocity P-wave (km/s) = 4.32834 5.46001 4.92678
#
# Compressibility (1/GPa) = 0.01990030
#
# Stress axis : x y z
#
# Youngs Moduli (GPa) = 82.48155 116.75372 77.81378
#
# Poissons Ratio (x) = 0.28114 -0.04586
# Poissons Ratio (y) = 0.19861 0.38917
# Poissons Ratio (z) = -0.04861 0.58393
#
# Static dielectric constant tensor:
#      x y z
#    x 1.876380 0.000000 0.000000 
#    y 0.000000 1.802970 0.000000 
#    z 0.000000 0.000000 1.906950 
# 
# From -- ./inp_files/2088.got.cif
#   From: 2010.05.17/outbox.cif.g08.bks.cpg/sg56_2_cif.got.tgz:2088.got - 2010.06.03 13:42:01.
