data_PCOD9432097
_publ_section_title
;
Structure prediction by ZEFSAII (Michael W. Deem and Ramdas Pophale) SiO2 
 PCOD9432097
Probable space group: P C C N
;
_chemical_formula_sum "Si O2"
_cell_formula_units_Z 44
_cell_length_a 27.314482
_cell_length_b 7.462800
_cell_length_c 8.723672
_cell_angle_alpha 90.000000
_cell_angle_beta 90.000000
_cell_angle_gamma 90.000000
_cell_volume 1778.255252
_symmetry_space_group_name_H-M "P C C N"
_symmetry_group_IT_number 56
_symmetry_cell_setting 'orthorhombic'
loop_
_space_group_symop_operation_xyz
x,y,z
1/2-x,1/2-y,z
1/2+x,-y,1/2-z
-x,1/2+y,1/2-z
-x,-y,-z
1/2+x,1/2+y,-z
1/2-x,y,1/2+z
x,1/2-y,1/2+z
loop_
_atom_site_type_symbol
_atom_site_label
_atom_site_fract_x
_atom_site_fract_y
_atom_site_fract_z
Si Si1 0.920494 0.040943 0.401352
Si Si2 0.046375 0.885389 0.943906
Si Si3 0.625079 0.643942 0.955139
Si Si4 0.750000 0.250000 0.696469
Si Si5 0.306372 0.221908 0.822008
Si Si6 0.810345 0.413241 0.944308
O O1 0.950421 0.171400 0.518962
O O2 0.865155 0.117303 0.394909
O O3 0.908119 0.830258 0.446368
O O4 0.944808 0.067743 0.235099
O O5 0.089301 0.977578 0.042042
O O6 0.000000 0.000000 0.000000
O O7 0.662067 0.633140 0.812017
O O8 0.657283 0.627373 0.111397
O O9 0.770499 0.396652 0.812036
O O10 0.705697 0.289185 0.584088
O O11 0.250000 0.250000 0.784350
O O12 0.305608 0.104142 0.976473
#
# Coordination Sequence:
#
# PCOD9432097 Si02
#       6
#     8   8   8   4   8   8
#     4  11  27  50  75 110 150 191 243 317 388 445
#     4  12  30  50  84 111 146 199 257 324 400 465
#     4  11  26  49  73 108 159 193 253 312 380 452
#     4  10  22  40  64 102 146 192 254 290 358 442
#     4  11  25  42  70 104 151 207 249 303 371 449
#     4  10  24  40  67 102 148 198 242 305 365 444
#
# _framework density 24.743352999999999
#
# number of rings (size 3 to 8) (size 9 to 14) (size 15 to 20)
#    0.000    1.091    1.818    1.636   17.818    2.182 
#    0.000    0.000    0.000    0.000    0.000    0.000 
#    0.000    0.000    0.000    0.000    0.000    0.000 
#
# Total GULP energy -245731.261334 kJ/mol
# GULP energy per Si atom -5584.801394 kJ/mol
# Density = 2.468704 g / cm^3
# Si number density = 24.743353 Si / 1000 Ang^3
#
#
#
# Elastic Constant Matrix: (Units=GPa)
#
#
# Indices 1 2 3 4 5 6 
#
# 1 69.4840 13.5808 8.0393 0.0000 0.0000 0.0000
# 2 13.5808 118.5756 8.0405 0.0000 0.0000 0.0000
# 3 8.0393 8.0405 75.8411 0.0000 0.0000 0.0000
# 4 0.0000 0.0000 0.0000 27.2111 0.0000 0.0000
# 5 0.0000 0.0000 0.0000 0.0000 35.3694 0.0000
# 6 0.0000 0.0000 0.0000 0.0000 0.0000 27.8890
#
#
#
# Elastic Compliance Matrix: (Units=1/GPa)
#
#
# Indices 1 2 3 4 5 6 
#
# 1 0.014869 -0.001608 -0.001406 0.000000 0.000000 0.000000
# 2 -0.001608 0.008668 -0.000749 0.000000 0.000000 0.000000
# 3 -0.001406 -0.000749 0.013414 0.000000 0.000000 0.000000
# 4 0.000000 0.000000 0.000000 0.036750 0.000000 0.000000
# 5 0.000000 0.000000 0.000000 0.000000 0.028273 0.000000
# 6 0.000000 0.000000 0.000000 0.000000 0.000000 0.035856
#
#
# Mechanical properties :
#
#
# Convention : Reuss Voigt Hill
#
# Bulk Modulus (GPa) = 33.98236 35.91354 34.94795
# Shear Modulus (GPa) = 32.22424 33.70992 32.96708
#
# Velocity S-wave (km/s) = 3.61271 3.69505 3.65411
# Velocity P-wave (km/s) = 5.58265 5.72280 5.65316
#
# Compressibility (1/GPa) = 0.02942704
#
# Stress axis : x y z
#
# Youngs Moduli (GPa) = 67.25559 115.36254 74.54997
#
# Poissons Ratio (x) = 0.18546 0.10479
# Poissons Ratio (y) = 0.10812 0.05581
# Poissons Ratio (z) = 0.09454 0.08636
#
# Static dielectric constant tensor:
#      x y z
#    x 1.472460 0.000000 0.000000 
#    y 0.000000 2.167510 0.000000 
#    z 0.000000 0.000000 2.038060 
# 
# From -- ./inp_files/5092.got.cif
#   From: 2010.05.17/outbox.cif.g08.bks.cpg/sg56_3_cif.got.tgz:5092.got - 2010.06.03 13:42:01.
