data_PCOD9432296
_publ_section_title
;
Structure prediction by ZEFSAII (Michael W. Deem and Ramdas Pophale) SiO2 
 PCOD9432296
Probable space group: P C C N
;
_chemical_formula_sum "Si O2"
_cell_formula_units_Z 40
_cell_length_a 11.575442
_cell_length_b 6.994460
_cell_length_c 21.894978
_cell_angle_alpha 90.000000
_cell_angle_beta 90.000000
_cell_angle_gamma 90.000000
_cell_volume 1772.704255
_symmetry_space_group_name_H-M "P C C N"
_symmetry_group_IT_number 56
_symmetry_cell_setting 'orthorhombic'
loop_
_space_group_symop_operation_xyz
x,y,z
1/2-x,1/2-y,z
1/2+x,-y,1/2-z
-x,1/2+y,1/2-z
-x,-y,-z
1/2+x,1/2+y,-z
1/2-x,y,1/2+z
x,1/2-y,1/2+z
loop_
_atom_site_type_symbol
_atom_site_label
_atom_site_fract_x
_atom_site_fract_y
_atom_site_fract_z
Si Si1 0.602689 0.952048 0.842152
Si Si2 0.443812 0.221874 0.342996
Si Si3 0.250000 0.250000 0.055012
Si Si4 0.750000 0.750000 0.745676
Si Si5 0.620305 0.301004 0.157168
Si Si6 0.885163 0.526168 0.538941
O O1 0.653445 0.846427 0.901884
O O2 0.695876 0.907099 0.790339
O O3 0.479822 0.849391 0.830404
O O4 0.566162 0.173610 0.844418
O O5 0.350169 0.320876 0.299454
O O6 0.399560 0.201495 0.412654
O O7 0.435694 0.002178 0.320421
O O8 0.291641 0.418537 0.010693
O O9 0.750000 0.250000 0.178586
O O10 0.632139 0.348018 0.084384
O O11 0.000000 0.500000 0.500000
#
# Coordination Sequence:
#
# PCOD9432296 Si02
#       6
#     8   8   4   4   8   8
#     4  11  25  44  70  97 143 182 242 299 357 434
#     4  10  24  44  68 102 137 185 237 290 372 421
#     4  11  21  42  68 102 137 187 226 298 362 427
#     4  11  25  46  70 102 135 189 248 296 356 435
#     4  10  23  43  67 102 137 181 238 289 361 437
#     4  10  22  42  69 104 141 178 236 292 363 444
#
# _framework density 22.564397
#
# number of rings (size 3 to 8) (size 9 to 14) (size 15 to 20)
#    1.200    0.400    2.000    1.800    5.600    2.400 
#    0.000    8.000    0.000    0.000    0.000    0.000 
#    0.000    0.000    0.000    0.000    0.000    0.000 
#
# Total GULP energy -222947.298347 kJ/mol
# GULP energy per Si atom -5573.682459 kJ/mol
# Density = 2.251304 g / cm^3
# Si number density = 22.564397 Si / 1000 Ang^3
#
#
#
# Elastic Constant Matrix: (Units=GPa)
#
#
# Indices 1 2 3 4 5 6 
#
# 1 79.3588 31.7445 23.3967 0.0000 0.0000 0.0000
# 2 31.7445 72.8926 14.0408 0.0000 0.0000 0.0000
# 3 23.3967 14.0408 100.6066 0.0000 0.0000 0.0000
# 4 0.0000 0.0000 0.0000 3.9295 0.0000 0.0000
# 5 0.0000 0.0000 0.0000 0.0000 31.7721 0.0000
# 6 0.0000 0.0000 0.0000 0.0000 0.0000 48.3522
#
#
#
# Elastic Compliance Matrix: (Units=1/GPa)
#
#
# Indices 1 2 3 4 5 6 
#
# 1 0.016004 -0.006426 -0.002825 0.000000 0.000000 0.000000
# 2 -0.006426 0.016678 -0.000833 0.000000 0.000000 0.000000
# 3 -0.002825 -0.000833 0.010713 0.000000 0.000000 0.000000
# 4 0.000000 0.000000 0.000000 0.254487 0.000000 0.000000
# 5 0.000000 0.000000 0.000000 0.000000 0.031474 0.000000
# 6 0.000000 0.000000 0.000000 0.000000 0.000000 0.020682
#
#
# Mechanical properties :
#
#
# Convention : Reuss Voigt Hill
#
# Bulk Modulus (GPa) = 43.05344 43.46909 43.26126
# Shear Modulus (GPa) = 13.22935 29.05584 21.14259
#
# Velocity S-wave (km/s) = 2.42398 3.59233 3.06435
# Velocity P-wave (km/s) = 5.19191 6.04257 5.63332
#
# Compressibility (1/GPa) = 0.02322695
#
# Stress axis : x y z
#
# Youngs Moduli (GPa) = 62.48353 59.96054 93.34456
#
# Poissons Ratio (x) = 0.38528 0.26371
# Poissons Ratio (y) = 0.40149 0.07778
# Poissons Ratio (z) = 0.17652 0.04996
#
# Static dielectric constant tensor:
#      x y z
#    x 1.797070 0.000000 0.000000 
#    y 0.000000 1.979030 0.000000 
#    z 0.000000 0.000000 1.848110 
# 
# From -- ./inp_files/18607.got.cif
#   From: 2010.05.17/outbox.cif.g08.bks.cpg/sg56_10_cif.got.tgz:18607.got - 2010.06.03 13:42:01.
