data_PCOD9432371
_publ_section_title
;
Structure prediction by ZEFSAII (Michael W. Deem and Ramdas Pophale) SiO2 
 PCOD9432371
Probable space group: P C C N
;
_chemical_formula_sum "Si O2"
_cell_formula_units_Z 40
_cell_length_a 15.080183
_cell_length_b 9.340789
_cell_length_c 14.174660
_cell_angle_alpha 90.000000
_cell_angle_beta 90.000000
_cell_angle_gamma 90.000000
_cell_volume 1996.654053
_symmetry_space_group_name_H-M "P C C N"
_symmetry_group_IT_number 56
_symmetry_cell_setting 'orthorhombic'
loop_
_space_group_symop_operation_xyz
x,y,z
1/2-x,1/2-y,z
1/2+x,-y,1/2-z
-x,1/2+y,1/2-z
-x,-y,-z
1/2+x,1/2+y,-z
1/2-x,y,1/2+z
x,1/2-y,1/2+z
loop_
_atom_site_type_symbol
_atom_site_label
_atom_site_fract_x
_atom_site_fract_y
_atom_site_fract_z
Si Si1 0.169281 0.142900 0.271361
Si Si2 0.669422 0.142858 0.337484
Si Si3 0.542788 0.344074 0.999340
Si Si4 0.533559 0.924682 0.094563
Si Si5 0.493692 0.805731 0.801959
O O1 0.250000 0.250000 0.283621
O O2 0.134968 0.073132 0.369712
O O3 0.082028 0.227112 0.233638
O O4 0.191580 0.016512 0.198458
O O5 0.750000 0.250000 0.324537
O O6 0.636514 0.145207 0.445763
O O7 0.586750 0.191280 0.271857
O O8 0.487039 0.238426 0.931414
O O9 0.500000 0.500000 0.000000
O O10 0.539582 0.274697 0.103096
O O11 0.487112 0.026636 0.173069
O O12 0.500000 0.000000 0.000000
#
# Coordination Sequence:
#
# PCOD9432371 Si02
#       5
#     8   8   8   8   8
#     4  11  23  40  68 102 134 182 227 279 347 411
#     4  11  25  41  67  99 136 176 225 286 338 409
#     4  11  21  40  69  95 128 178 227 266 344 403
#     4   9  21  41  65  94 130 177 221 275 330 402
#     4  10  22  43  69  91 133 181 221 277 342 412
#
# _framework density 20.033515999999999
#
# number of rings (size 3 to 8) (size 9 to 14) (size 15 to 20)
#    0.000    1.600    4.000    0.000    2.800    2.400 
#    0.000    8.000    0.000    0.000    0.000    0.000 
#    0.000    0.000    0.000    0.000    0.000    0.000 
#
# Total GULP energy -222833.600113 kJ/mol
# GULP energy per Si atom -5570.840003 kJ/mol
# Density = 1.998792 g / cm^3
# Si number density = 20.033516 Si / 1000 Ang^3
#
#
#
# Elastic Constant Matrix: (Units=GPa)
#
#
# Indices 1 2 3 4 5 6 
#
# 1 95.1253 49.4861 40.4724 0.0000 0.0000 0.0000
# 2 49.4861 141.7925 24.7365 0.0000 0.0000 0.0000
# 3 40.4724 24.7365 98.9544 0.0000 0.0000 0.0000
# 4 0.0000 0.0000 0.0000 17.8173 0.0000 0.0000
# 5 0.0000 0.0000 0.0000 0.0000 19.2662 0.0000
# 6 0.0000 0.0000 0.0000 0.0000 0.0000 47.6448
#
#
#
# Elastic Compliance Matrix: (Units=1/GPa)
#
#
# Indices 1 2 3 4 5 6 
#
# 1 0.014894 -0.004324 -0.005011 0.000000 0.000000 0.000000
# 2 -0.004324 0.008629 -0.000389 0.000000 0.000000 0.000000
# 3 -0.005011 -0.000389 0.012252 0.000000 0.000000 0.000000
# 4 0.000000 0.000000 0.000000 0.056125 0.000000 0.000000
# 5 0.000000 0.000000 0.000000 0.000000 0.051904 0.000000
# 6 0.000000 0.000000 0.000000 0.000000 0.000000 0.020989
#
#
# Mechanical properties :
#
#
# Convention : Reuss Voigt Hill
#
# Bulk Modulus (GPa) = 61.24120 62.80691 62.02406
# Shear Modulus (GPa) = 26.35982 31.69082 29.02532
#
# Velocity S-wave (km/s) = 3.63131 3.98161 3.81049
# Velocity P-wave (km/s) = 6.94389 7.24960 7.09839
#
# Compressibility (1/GPa) = 0.01632888
#
# Stress axis : x y z
#
# Youngs Moduli (GPa) = 67.14284 115.88300 81.61808
#
# Poissons Ratio (x) = 0.50105 0.40896
# Poissons Ratio (y) = 0.29031 0.03173
# Poissons Ratio (z) = 0.33643 0.04505
#
# Static dielectric constant tensor:
#      x y z
#    x 1.669060 0.000000 0.000000 
#    y 0.000000 1.822260 0.000000 
#    z 0.000000 0.000000 1.787840 
# 
# From -- ./inp_files/10355.got.cif
#   From: 2010.05.17/outbox.cif.g08.bks.cpg/sg56_6_cif.got.tgz:10355.got - 2010.06.03 13:42:01.
