data_PCOD9432703
_publ_section_title
;
Structure prediction by ZEFSAII (Michael W. Deem and Ramdas Pophale) SiO2 
 PCOD9432703
Probable space group: P C C N
;
_chemical_formula_sum "Si O2"
_cell_formula_units_Z 40
_cell_length_a 5.450612
_cell_length_b 12.865163
_cell_length_c 25.520972
_cell_angle_alpha 90.000000
_cell_angle_beta 90.000000
_cell_angle_gamma 90.000000
_cell_volume 1789.607421
_symmetry_space_group_name_H-M "P C C N"
_symmetry_group_IT_number 56
_symmetry_cell_setting 'orthorhombic'
loop_
_space_group_symop_operation_xyz
x,y,z
1/2-x,1/2-y,z
1/2+x,-y,1/2-z
-x,1/2+y,1/2-z
-x,-y,-z
1/2+x,1/2+y,-z
1/2-x,y,1/2+z
x,1/2-y,1/2+z
loop_
_atom_site_type_symbol
_atom_site_label
_atom_site_fract_x
_atom_site_fract_y
_atom_site_fract_z
Si Si1 0.808970 0.939632 0.964097
Si Si2 0.750000 0.750000 0.140583
Si Si3 0.628331 0.362635 0.117331
Si Si4 0.250000 0.750000 0.701282
Si Si5 0.061293 0.555365 0.266647
Si Si6 0.581565 0.939812 0.070648
O O1 0.915457 0.853570 0.926168
O O2 0.701974 0.029756 0.926686
O O3 0.622043 0.906225 0.009753
O O4 0.000000 0.000000 0.000000
O O5 0.498373 0.719391 0.170405
O O6 0.671628 0.848228 0.106287
O O7 0.750000 0.250000 0.125521
O O8 0.544110 0.411976 0.172423
O O9 0.797650 0.451504 0.090084
O O10 0.344531 0.655782 0.736020
O O11 0.293042 0.477525 0.255760
#
# Coordination Sequence:
#
# PCOD9432703 Si02
#       6
#     8   4   8   4   8   8
#     4   9  22  42  70 101 147 181 245 298 370 432
#     4  12  28  44  82  98 154 194 250 300 378 432
#     4  11  24  44  70 105 141 192 238 307 371 441
#     4  12  26  50  66 116 136 196 248 302 360 444
#     4  12  27  48  76 103 149 189 244 305 367 437
#     4  10  23  44  67 108 138 195 239 303 362 447
#
# _framework density 22.351271000000001
#
# number of rings (size 3 to 8) (size 9 to 14) (size 15 to 20)
#    0.000    1.200    1.000    3.600   11.200    5.600 
#    0.000    0.000    0.000    0.000    0.000    0.000 
#    0.000    0.000    0.000    0.000    0.000    0.000 
#
# Total GULP energy -223089.781542 kJ/mol
# GULP energy per Si atom -5577.244539 kJ/mol
# Density = 2.230040 g / cm^3
# Si number density = 22.351271 Si / 1000 Ang^3
#
#
#
# Elastic Constant Matrix: (Units=GPa)
#
#
# Indices 1 2 3 4 5 6 
#
# 1 73.9493 5.8147 27.4160 0.0000 0.0000 0.0000
# 2 5.8147 84.2098 26.7982 0.0000 0.0000 0.0000
# 3 27.4160 26.7982 126.7786 0.0000 0.0000 0.0000
# 4 0.0000 0.0000 0.0000 18.5506 0.0000 0.0000
# 5 0.0000 0.0000 0.0000 0.0000 220.5424 0.0000
# 6 0.0000 0.0000 0.0000 0.0000 0.0000 33.8641
#
#
#
# Elastic Compliance Matrix: (Units=1/GPa)
#
#
# Indices 1 2 3 4 5 6 
#
# 1 0.014701 -0.000004 -0.003178 0.000000 0.000000 0.000000
# 2 -0.000004 0.012732 -0.002690 0.000000 0.000000 0.000000
# 3 -0.003178 -0.002690 0.009144 0.000000 0.000000 0.000000
# 4 0.000000 0.000000 0.000000 0.053907 0.000000 0.000000
# 5 0.000000 0.000000 0.000000 0.000000 0.004534 0.000000
# 6 0.000000 0.000000 0.000000 0.000000 0.000000 0.029530
#
#
# Mechanical properties :
#
#
# Convention : Reuss Voigt Hill
#
# Bulk Modulus (GPa) = 40.27089 44.99948 42.63518
# Shear Modulus (GPa) = 34.58539 69.58534 52.08536
#
# Velocity S-wave (km/s) = 3.93791 5.58571 4.83256
# Velocity P-wave (km/s) = 6.22355 7.85982 7.08906
#
# Compressibility (1/GPa) = 0.02483184
#
# Stress axis : x y z
#
# Youngs Moduli (GPa) = 68.02059 78.54521 109.36386
#
# Poissons Ratio (x) = 0.00029 0.34760
# Poissons Ratio (y) = 0.00025 0.29423
# Poissons Ratio (z) = 0.21620 0.21132
#
# Static dielectric constant tensor:
#      x y z
#    x 1.928080 0.000000 0.000000 
#    y 0.000000 1.831160 0.000000 
#    z 0.000000 0.000000 1.863830 
# 
# From -- ./inp_files/21536.got.cif
#   From: 2010.05.17/outbox.cif.g08.bks.cpg/sg56_11_cif.got.tgz:21536.got - 2010.06.03 13:42:01.
