data_PCOD9432476
_publ_section_title
;
Structure prediction by ZEFSAII (Michael W. Deem and Ramdas Pophale) SiO2 
 PCOD9432476
Probable space group: P C C N
;
_chemical_formula_sum "Si O2"
_cell_formula_units_Z 56
_cell_length_a 14.919736
_cell_length_b 12.531545
_cell_length_c 12.654117
_cell_angle_alpha 90.000000
_cell_angle_beta 90.000000
_cell_angle_gamma 90.000000
_cell_volume 2365.906634
_symmetry_space_group_name_H-M "P C C N"
_symmetry_group_IT_number 56
_symmetry_cell_setting 'orthorhombic'
loop_
_space_group_symop_operation_xyz
x,y,z
1/2-x,1/2-y,z
1/2+x,-y,1/2-z
-x,1/2+y,1/2-z
-x,-y,-z
1/2+x,1/2+y,-z
1/2-x,y,1/2+z
x,1/2-y,1/2+z
loop_
_atom_site_type_symbol
_atom_site_label
_atom_site_fract_x
_atom_site_fract_y
_atom_site_fract_z
Si Si1 0.101507 0.729137 0.930268
Si Si2 0.303385 0.453932 0.914939
Si Si3 0.750000 0.750000 0.968449
Si Si4 0.896832 0.525403 0.110143
Si Si5 0.838885 0.387047 0.401808
Si Si6 0.250000 0.750000 0.262727
Si Si7 0.075845 0.167452 0.598882
Si Si8 0.015709 0.025852 0.790169
O O1 0.100692 0.600631 0.920172
O O2 0.164695 0.769745 0.836888
O O3 0.997238 0.759671 0.921366
O O4 0.140103 0.777138 0.036729
O O5 0.206727 0.456413 0.857467
O O6 0.393883 0.492423 0.856846
O O7 0.305195 0.333340 0.959527
O O8 0.294792 0.531539 0.016486
O O9 0.677923 0.802422 0.893716
O O10 0.966464 0.552004 0.204650
O O11 0.921695 0.591831 0.005600
O O12 0.774963 0.352193 0.306967
O O13 0.932876 0.434922 0.361503
O O14 0.046983 0.116908 0.708747
#
# Coordination Sequence:
#
# PCOD9432476 Si02
#       8
#     8   8   4   8   8   4   8   8
#     4  11  22  44  66 106 143 183 243 295 367 442
#     4  11  25  46  71 103 148 186 248 306 359 443
#     4  10  24  48  74  94 140 200 244 302 352 428
#     4  10  22  46  69 103 145 189 248 294 362 445
#     4  12  25  42  69 104 149 184 239 310 369 437
#     4  12  22  42  70  98 146 190 230 298 376 448
#     4  10  22  46  71 102 142 192 255 296 354 443
#     4  11  23  44  71 107 142 189 238 299 375 419
#
# _framework density 23.669571999999999
#
# number of rings (size 3 to 8) (size 9 to 14) (size 15 to 20)
#    0.000    1.143    2.857    5.143    0.000    2.857 
#   10.286    7.143    0.000    0.000    0.000    0.000 
#    0.000    0.000    0.000    0.000    0.000    0.000 
#
# Total GULP energy -312819.185742 kJ/mol
# GULP energy per Si atom -5586.056888 kJ/mol
# Density = 2.361570 g / cm^3
# Si number density = 23.669572 Si / 1000 Ang^3
#
#
#
# Elastic Constant Matrix: (Units=GPa)
#
#
# Indices 1 2 3 4 5 6 
#
# 1 157.4626 11.8379 32.7787 0.0000 0.0000 0.0000
# 2 11.8379 34.5090 3.9833 0.0000 0.0000 0.0000
# 3 32.7787 3.9833 51.0985 0.0000 0.0000 0.0000
# 4 0.0000 0.0000 0.0000 0.7537 0.0000 0.0000
# 5 0.0000 0.0000 0.0000 0.0000 62.7043 0.0000
# 6 0.0000 0.0000 0.0000 0.0000 0.0000 29.3080
#
#
#
# Elastic Compliance Matrix: (Units=1/GPa)
#
#
# Indices 1 2 3 4 5 6 
#
# 1 0.007467 -0.002027 -0.004632 0.000000 0.000000 0.000000
# 2 -0.002027 0.029791 -0.001022 0.000000 0.000000 0.000000
# 3 -0.004632 -0.001022 0.022621 0.000000 0.000000 0.000000
# 4 0.000000 0.000000 0.000000 1.326737 0.000000 0.000000
# 5 0.000000 0.000000 0.000000 0.000000 0.015948 0.000000
# 6 0.000000 0.000000 0.000000 0.000000 0.000000 0.034120
#
#
# Mechanical properties :
#
#
# Convention : Reuss Voigt Hill
#
# Bulk Modulus (GPa) = 22.46313 37.80777 30.13545
# Shear Modulus (GPa) = 3.40858 31.51789 17.46323
#
# Velocity S-wave (km/s) = 1.20133 3.65304 2.71918
# Velocity P-wave (km/s) = 3.38159 5.81384 4.75583
#
# Compressibility (1/GPa) = 0.04451740
#
# Stress axis : x y z
#
# Youngs Moduli (GPa) = 133.91599 33.56696 44.20639
#
# Poissons Ratio (x) = 0.06804 0.20477
# Poissons Ratio (y) = 0.27143 0.04518
# Poissons Ratio (z) = 0.62032 0.03431
#
# Static dielectric constant tensor:
#      x y z
#    x 1.985620 0.000000 0.000000 
#    y 0.000000 1.993480 0.000000 
#    z 0.000000 0.000000 1.883610 
# 
# From -- ./inp_files/12321.got.cif
#   From: 2010.05.17/outbox.cif.g08.bks.cpg/sg56_7_cif.got.tgz:12321.got - 2010.06.03 13:42:01.
