data_PCOD9432576
_publ_section_title
;
Structure prediction by ZEFSAII (Michael W. Deem and Ramdas Pophale) SiO2 
 PCOD9432576
Probable space group: P C C N
;
_chemical_formula_sum "Si O2"
_cell_formula_units_Z 40
_cell_length_a 8.410225
_cell_length_b 8.913541
_cell_length_c 27.072917
_cell_angle_alpha 90.000000
_cell_angle_beta 90.000000
_cell_angle_gamma 90.000000
_cell_volume 2029.518119
_symmetry_space_group_name_H-M "P C C N"
_symmetry_group_IT_number 56
_symmetry_cell_setting 'orthorhombic'
loop_
_space_group_symop_operation_xyz
x,y,z
1/2-x,1/2-y,z
1/2+x,-y,1/2-z
-x,1/2+y,1/2-z
-x,-y,-z
1/2+x,1/2+y,-z
1/2-x,y,1/2+z
x,1/2-y,1/2+z
loop_
_atom_site_type_symbol
_atom_site_label
_atom_site_fract_x
_atom_site_fract_y
_atom_site_fract_z
Si Si1 0.681567 0.572600 0.499739
Si Si2 0.694627 0.580713 0.801813
Si Si3 0.688340 0.081794 0.401678
Si Si4 0.185941 0.582717 0.295844
Si Si5 0.691766 0.579627 0.104760
O O1 0.750000 0.750000 0.499572
O O2 0.500000 0.500000 0.500000
O O3 0.757252 0.506220 0.450212
O O4 0.745546 0.517648 0.552769
O O5 0.750000 0.750000 0.806939
O O6 0.748094 0.490565 0.850513
O O7 0.761204 0.510905 0.751633
O O8 0.504268 0.579390 0.798559
O O9 0.750000 0.250000 0.405616
O O10 0.498200 0.081057 0.398601
O O11 0.250000 0.750000 0.290412
O O12 0.245688 0.512849 0.347421
O O13 0.750000 0.750000 0.110839
#
# Coordination Sequence:
#
# PCOD9432576 Si02
#       5
#     8   8   8   8   8
#     4  11  24  42  66  95 128 168 212 263 320 382
#     4  11  24  41  63  90 124 162 205 256 312 375
#     4  11  23  40  64  93 126 165 210 259 314 376
#     4  11  24  40  63  91 121 161 206 255 311 371
#     4  10  23  41  61  89 124 164 206 255 310 372
#
# _framework density 19.709112000000001
#
# number of rings (size 3 to 8) (size 9 to 14) (size 15 to 20)
#    0.000    1.200    0.000    6.000    0.000   13.600 
#    0.000    0.000    0.000    0.000    0.000    0.000 
#    0.000    0.000    0.000    0.000    0.000    0.000 
#
# Total GULP energy -223205.392954 kJ/mol
# GULP energy per Si atom -5580.134824 kJ/mol
# Density = 1.966425 g / cm^3
# Si number density = 19.709112 Si / 1000 Ang^3
#
#
#
# Elastic Constant Matrix: (Units=GPa)
#
#
# Indices 1 2 3 4 5 6 
#
# 1 69.1821 27.1124 37.1126 0.0000 0.0000 0.0000
# 2 27.1124 106.9372 68.4254 0.0000 0.0000 0.0000
# 3 37.1126 68.4254 184.0963 0.0000 0.0000 0.0000
# 4 0.0000 0.0000 0.0000 79.2578 0.0000 0.0000
# 5 0.0000 0.0000 0.0000 0.0000 37.7640 0.0000
# 6 0.0000 0.0000 0.0000 0.0000 0.0000 33.3363
#
#
#
# Elastic Compliance Matrix: (Units=1/GPa)
#
#
# Indices 1 2 3 4 5 6 
#
# 1 0.016800 -0.002745 -0.002366 0.000000 0.000000 0.000000
# 2 -0.002745 0.012718 -0.004174 0.000000 0.000000 0.000000
# 3 -0.002366 -0.004174 0.007460 0.000000 0.000000 0.000000
# 4 0.000000 0.000000 0.000000 0.012617 0.000000 0.000000
# 5 0.000000 0.000000 0.000000 0.000000 0.026480 0.000000
# 6 0.000000 0.000000 0.000000 0.000000 0.000000 0.029997
#
#
# Mechanical properties :
#
#
# Convention : Reuss Voigt Hill
#
# Bulk Modulus (GPa) = 54.32544 69.50183 61.91364
# Shear Modulus (GPa) = 38.23251 45.24264 41.73757
#
# Velocity S-wave (km/s) = 4.40914 4.79636 4.60682
# Velocity P-wave (km/s) = 7.31739 8.12488 7.73168
#
# Compressibility (1/GPa) = 0.01840758
#
# Stress axis : x y z
#
# Youngs Moduli (GPa) = 59.52419 78.62991 134.04396
#
# Poissons Ratio (x) = 0.21585 0.31720
# Poissons Ratio (y) = 0.16341 0.55944
# Poissons Ratio (z) = 0.14086 0.32817
#
# Static dielectric constant tensor:
#      x y z
#    x 1.701140 0.000000 0.000000 
#    y 0.000000 1.687900 0.000000 
#    z 0.000000 0.000000 1.672060 
# 
# From -- ./inp_files/20314.got.cif
#   From: 2010.05.17/outbox.cif.g08.bks.cpg/sg56_11_cif.got.tgz:20314.got - 2010.06.03 13:42:01.
