data_PCOD9432058
_publ_section_title
;
Structure prediction by ZEFSAII (Michael W. Deem and Ramdas Pophale) SiO2 
 PCOD9432058
Probable space group: P C C N
;
_chemical_formula_sum "Si O2"
_cell_formula_units_Z 40
_cell_length_a 10.681741
_cell_length_b 7.809641
_cell_length_c 18.114591
_cell_angle_alpha 90.000000
_cell_angle_beta 90.000000
_cell_angle_gamma 90.000000
_cell_volume 1511.129370
_symmetry_space_group_name_H-M "P C C N"
_symmetry_group_IT_number 56
_symmetry_cell_setting 'orthorhombic'
loop_
_space_group_symop_operation_xyz
x,y,z
1/2-x,1/2-y,z
1/2+x,-y,1/2-z
-x,1/2+y,1/2-z
-x,-y,-z
1/2+x,1/2+y,-z
1/2-x,y,1/2+z
x,1/2-y,1/2+z
loop_
_atom_site_type_symbol
_atom_site_label
_atom_site_fract_x
_atom_site_fract_y
_atom_site_fract_z
Si Si1 0.525777 0.885458 0.426370
Si Si2 0.859334 0.895813 0.509448
Si Si3 0.513298 0.177656 0.202011
Si Si4 0.280754 0.946144 0.129069
Si Si5 0.129031 0.363347 0.821004
O O1 0.535264 0.701722 0.464804
O O2 0.445457 0.829796 0.354491
O O3 0.500000 0.000000 0.500000
O O4 0.650562 0.949321 0.383145
O O5 0.750000 0.750000 0.508094
O O6 0.891913 0.906982 0.594049
O O7 0.821995 0.052659 0.458145
O O8 0.475265 0.255742 0.279648
O O9 0.388416 0.063566 0.172117
O O10 0.626494 0.048026 0.215154
O O11 0.250000 0.750000 0.150494
O O12 0.250000 0.250000 0.814372
#
# Coordination Sequence:
#
# PCOD9432058 Si02
#       5
#     8   8   8   8   8
#     4  10  22  39  71 102 140 180 247 300 364 436
#     4   8  19  40  62  95 135 183 224 308 358 421
#     4  11  26  43  71 101 143 204 238 303 381 437
#     4  10  22  41  71 107 143 187 249 302 374 445
#     4  11  25  46  70 100 152 192 250 307 373 450
#
# _framework density 26.470269999999999
#
# number of rings (size 3 to 8) (size 9 to 14) (size 15 to 20)
#    0.000    2.000    0.000    3.000    8.400    3.200 
#    0.000    0.000    0.000    1.200    0.000    0.000 
#    0.000    0.000    0.000    0.000    0.000    0.000 
#
# Total GULP energy -222864.057567 kJ/mol
# GULP energy per Si atom -5571.601439 kJ/mol
# Density = 2.641002 g / cm^3
# Si number density = 26.470270 Si / 1000 Ang^3
#
#
#
# Elastic Constant Matrix: (Units=GPa)
#
#
# Indices 1 2 3 4 5 6 
#
# 1 63.4069 34.4420 21.9391 0.0000 0.0000 0.0000
# 2 34.4420 124.4947 36.0624 0.0000 0.0000 0.0000
# 3 21.9391 36.0624 98.9859 0.0000 0.0000 0.0000
# 4 0.0000 0.0000 0.0000 59.5358 0.0000 0.0000
# 5 0.0000 0.0000 0.0000 0.0000 26.5785 0.0000
# 6 0.0000 0.0000 0.0000 0.0000 0.0000 46.4704
#
#
#
# Elastic Compliance Matrix: (Units=1/GPa)
#
#
# Indices 1 2 3 4 5 6 
#
# 1 0.019134 -0.004545 -0.002585 0.000000 0.000000 0.000000
# 2 -0.004545 0.010060 -0.002658 0.000000 0.000000 0.000000
# 3 -0.002585 -0.002658 0.011644 0.000000 0.000000 0.000000
# 4 0.000000 0.000000 0.000000 0.016797 0.000000 0.000000
# 5 0.000000 0.000000 0.000000 0.000000 0.037624 0.000000
# 6 0.000000 0.000000 0.000000 0.000000 0.000000 0.021519
#
#
# Mechanical properties :
#
#
# Convention : Reuss Voigt Hill
#
# Bulk Modulus (GPa) = 47.03116 52.41940 49.72528
# Shear Modulus (GPa) = 34.85773 39.47987 37.16880
#
# Velocity S-wave (km/s) = 3.63280 3.86616 3.75129
# Velocity P-wave (km/s) = 5.94999 6.30680 6.13099
#
# Compressibility (1/GPa) = 0.02126250
#
# Stress axis : x y z
#
# Youngs Moduli (GPa) = 52.26219 99.40730 85.88378
#
# Poissons Ratio (x) = 0.45178 0.22202
# Poissons Ratio (y) = 0.23752 0.22825
# Poissons Ratio (z) = 0.13511 0.26419
#
# Static dielectric constant tensor:
#      x y z
#    x 2.250170 0.000000 0.000000 
#    y 0.000000 2.062170 0.000000 
#    z 0.000000 0.000000 2.155830 
# 
# From -- ./inp_files/15404.got.cif
#   From: 2010.05.17/outbox.cif.g08.bks.cpg/sg56_8_cif.got.tgz:15404.got - 2010.06.03 13:42:01.
