data_PCOD9432739
_publ_section_title
;
Structure prediction by ZEFSAII (Michael W. Deem and Ramdas Pophale) SiO2 
 PCOD9432739
Probable space group: P C C N
;
_chemical_formula_sum "Si O2"
_cell_formula_units_Z 36
_cell_length_a 4.968723
_cell_length_b 13.883761
_cell_length_c 19.909709
_cell_angle_alpha 90.000000
_cell_angle_beta 90.000000
_cell_angle_gamma 90.000000
_cell_volume 1373.462567
_symmetry_space_group_name_H-M "P C C N"
_symmetry_group_IT_number 56
_symmetry_cell_setting 'orthorhombic'
loop_
_space_group_symop_operation_xyz
x,y,z
1/2-x,1/2-y,z
1/2+x,-y,1/2-z
-x,1/2+y,1/2-z
-x,-y,-z
1/2+x,1/2+y,-z
1/2-x,y,1/2+z
x,1/2-y,1/2+z
loop_
_atom_site_type_symbol
_atom_site_label
_atom_site_fract_x
_atom_site_fract_y
_atom_site_fract_z
Si Si1 0.178929 0.410209 0.019631
Si Si2 0.556971 0.889139 0.287122
Si Si3 0.750000 0.750000 0.591708
Si Si4 0.054269 0.882939 0.197888
Si Si5 0.703760 0.349829 0.081895
O O1 0.490310 0.412358 0.039825
O O2 0.008547 0.384940 0.087049
O O3 0.148940 0.333554 0.959178
O O4 0.000000 0.500000 0.000000
O O5 0.358045 0.872439 0.223693
O O6 0.441905 0.830077 0.348650
O O7 0.850046 0.866603 0.259708
O O8 0.524954 0.000842 0.312865
O O9 0.543117 0.811624 0.638902
O O10 0.750000 0.250000 0.044105
#
# Coordination Sequence:
#
# PCOD9432739 Si02
#       5
#     8   8   4   8   8
#     4  12  27  47  71 105 146 193 245 312 377 449
#     4  10  23  45  67 103 136 185 234 296 385 431
#     4  12  26  46  70 108 142 194 248 300 384 462
#     4  10  24  41  69 100 142 178 233 302 365 463
#     4  12  24  45  72 101 138 190 245 304 363 459
#
# _framework density 26.211123000000001
#
# number of rings (size 3 to 8) (size 9 to 14) (size 15 to 20)
#    0.000    0.889    2.222    3.333    3.111    7.111 
#    0.000    0.000    0.000    0.000    0.000    0.000 
#    0.000    0.000    0.000    0.000    0.000    0.000 
#
# Total GULP energy -201112.992486 kJ/mol
# GULP energy per Si atom -5586.472014 kJ/mol
# Density = 2.615147 g / cm^3
# Si number density = 26.211123 Si / 1000 Ang^3
#
#
#
# Elastic Constant Matrix: (Units=GPa)
#
#
# Indices 1 2 3 4 5 6 
#
# 1 129.3222 28.7590 14.7019 0.0000 0.0000 0.0000
# 2 28.7590 117.7527 46.0580 0.0000 0.0000 0.0000
# 3 14.7019 46.0580 109.8882 0.0000 0.0000 0.0000
# 4 0.0000 0.0000 0.0000 5.7644 0.0000 0.0000
# 5 0.0000 0.0000 0.0000 0.0000 43.4666 0.0000
# 6 0.0000 0.0000 0.0000 0.0000 0.0000 41.3900
#
#
#
# Elastic Compliance Matrix: (Units=1/GPa)
#
#
# Indices 1 2 3 4 5 6 
#
# 1 0.008185 -0.001879 -0.000308 0.000000 0.000000 0.000000
# 2 -0.001879 0.010589 -0.004187 0.000000 0.000000 0.000000
# 3 -0.000308 -0.004187 0.010896 0.000000 0.000000 0.000000
# 4 0.000000 0.000000 0.000000 0.173477 0.000000 0.000000
# 5 0.000000 0.000000 0.000000 0.000000 0.023006 0.000000
# 6 0.000000 0.000000 0.000000 0.000000 0.000000 0.024160
#
#
# Mechanical properties :
#
#
# Convention : Reuss Voigt Hill
#
# Bulk Modulus (GPa) = 59.08796 59.55566 59.32181
# Shear Modulus (GPa) = 18.60796 35.95381 27.28089
#
# Velocity S-wave (km/s) = 2.66733 3.70767 3.22966
# Velocity P-wave (km/s) = 5.66377 6.41092 6.04889
#
# Compressibility (1/GPa) = 0.01692392
#
# Stress axis : x y z
#
# Youngs Moduli (GPa) = 122.16851 94.43875 91.77550
#
# Poissons Ratio (x) = 0.17743 0.02823
# Poissons Ratio (y) = 0.22953 0.38425
# Poissons Ratio (z) = 0.03758 0.39540
#
# Static dielectric constant tensor:
#      x y z
#    x 2.001370 0.000000 0.000000 
#    y 0.000000 2.252960 0.000000 
#    z 0.000000 0.000000 2.038220 
# 
# From -- ./inp_files/17361.got.cif
#   From: 2010.05.17/outbox.cif.g08.bks.cpg/sg56_9_cif.got.tgz:17361.got - 2010.06.03 13:42:01.
