data_PCOD9432516
_publ_section_title
;
Structure prediction by ZEFSAII (Michael W. Deem and Ramdas Pophale) SiO2 
 PCOD9432516
Probable space group: P C C N
;
_chemical_formula_sum "Si O2"
_cell_formula_units_Z 56
_cell_length_a 17.065873
_cell_length_b 5.315936
_cell_length_c 26.746750
_cell_angle_alpha 90.000000
_cell_angle_beta 90.000000
_cell_angle_gamma 90.000000
_cell_volume 2426.494278
_symmetry_space_group_name_H-M "P C C N"
_symmetry_group_IT_number 56
_symmetry_cell_setting 'orthorhombic'
loop_
_space_group_symop_operation_xyz
x,y,z
1/2-x,1/2-y,z
1/2+x,-y,1/2-z
-x,1/2+y,1/2-z
-x,-y,-z
1/2+x,1/2+y,-z
1/2-x,y,1/2+z
x,1/2-y,1/2+z
loop_
_atom_site_type_symbol
_atom_site_label
_atom_site_fract_x
_atom_site_fract_y
_atom_site_fract_z
Si Si1 0.795676 0.504565 0.887647
Si Si2 0.542664 0.337869 0.040685
Si Si3 0.874958 0.762054 0.096243
Si Si4 0.316590 0.545004 0.495086
Si Si5 0.797679 0.514046 0.195096
Si Si6 0.972352 0.950856 0.378752
Si Si7 0.965376 0.145632 0.726509
O O1 0.750000 0.750000 0.868305
O O2 0.884119 0.472254 0.868461
O O3 0.750000 0.250000 0.876243
O O4 0.800106 0.531060 0.948159
O O5 0.605034 0.452631 0.081075
O O6 0.596784 0.161054 0.007457
O O7 0.473530 0.232292 0.074333
O O8 0.500000 0.500000 0.000000
O O9 0.828622 0.661523 0.047869
O O10 0.830221 0.652867 0.144459
O O11 0.963411 0.655928 0.104113
O O12 0.250000 0.750000 0.481974
O O13 0.750000 0.750000 0.219045
O O14 0.874020 0.429230 0.226206
O O15 0.750000 0.250000 0.185685
O O16 0.008504 0.817231 0.330603
O O17 0.986645 0.401733 0.754643
#
# Coordination Sequence:
#
# PCOD9432516 Si02
#       7
#     8   8   8   8   8   8   8
#     4  11  26  42  64  92 131 181 228 281 334 390
#     4  11  23  38  66  97 138 185 238 274 343 409
#     4  10  23  36  66  93 136 184 227 277 350 416
#     4  10  23  36  54  92 133 180 229 278 326 397
#     4  11  25  43  73 108 147 176 224 298 370 424
#     4  10  25  44  67  96 135 174 232 282 345 414
#     4  11  26  49  78 106 136 185 234 287 356 437
#
# _framework density 23.07856
#
# number of rings (size 3 to 8) (size 9 to 14) (size 15 to 20)
#    0.000    1.429    0.000    3.000   22.000    2.286 
#    0.000    4.286    0.000    0.000    0.000    0.000 
#    0.000    0.000    0.000    0.000    0.000    0.000 
#
# Total GULP energy -312622.019891 kJ/mol
# GULP energy per Si atom -5582.536069 kJ/mol
# Density = 2.302603 g / cm^3
# Si number density = 23.078560 Si / 1000 Ang^3
#
#
#
# Elastic Constant Matrix: (Units=GPa)
#
#
# Indices 1 2 3 4 5 6 
#
# 1 132.5319 31.1650 10.1585 0.0000 0.0000 0.0000
# 2 31.1650 87.3032 19.8764 0.0000 0.0000 0.0000
# 3 10.1585 19.8764 35.6639 0.0000 0.0000 0.0000
# 4 0.0000 0.0000 0.0000 27.0405 0.0000 0.0000
# 5 0.0000 0.0000 0.0000 0.0000 13.0224 0.0000
# 6 0.0000 0.0000 0.0000 0.0000 0.0000 38.7942
#
#
#
# Elastic Compliance Matrix: (Units=1/GPa)
#
#
# Indices 1 2 3 4 5 6 
#
# 1 0.008257 -0.002763 -0.000812 0.000000 0.000000 0.000000
# 2 -0.002763 0.014043 -0.007040 0.000000 0.000000 0.000000
# 3 -0.000812 -0.007040 0.032194 0.000000 0.000000 0.000000
# 4 0.000000 0.000000 0.000000 0.036982 0.000000 0.000000
# 5 0.000000 0.000000 0.000000 0.000000 0.076791 0.000000
# 6 0.000000 0.000000 0.000000 0.000000 0.000000 0.025777
#
#
# Mechanical properties :
#
#
# Convention : Reuss Voigt Hill
#
# Bulk Modulus (GPa) = 30.06117 41.98872 36.02495
# Shear Modulus (GPa) = 22.08850 28.72470 25.40660
#
# Velocity S-wave (km/s) = 3.09706 3.53179 3.32154
# Velocity P-wave (km/s) = 5.08359 5.90463 5.50943
#
# Compressibility (1/GPa) = 0.03326550
#
# Stress axis : x y z
#
# Youngs Moduli (GPa) = 121.10547 71.20837 31.06132
#
# Poissons Ratio (x) = 0.19673 0.02523
# Poissons Ratio (y) = 0.33458 0.21866
# Poissons Ratio (z) = 0.09837 0.50129
#
# Static dielectric constant tensor:
#      x y z
#    x 1.928890 0.000000 0.000000 
#    y 0.000000 1.842420 0.000000 
#    z 0.000000 0.000000 1.850020 
# 
# From -- ./inp_files/23599.got.cif
#   From: 2010.05.17/outbox.cif.g08.bks.cpg/sg56_12_cif.got.tgz:23599.got - 2010.06.03 13:42:01.
