data_PCOD9432803
_publ_section_title
;
Structure prediction by ZEFSAII (Michael W. Deem and Ramdas Pophale) SiO2 
 PCOD9432803
Probable space group: P C C N
;
_chemical_formula_sum "Si O2"
_cell_formula_units_Z 40
_cell_length_a 5.172227
_cell_length_b 29.758193
_cell_length_c 9.858403
_cell_angle_alpha 90.000000
_cell_angle_beta 90.000000
_cell_angle_gamma 90.000000
_cell_volume 1517.367231
_symmetry_space_group_name_H-M "P C C N"
_symmetry_group_IT_number 56
_symmetry_cell_setting 'orthorhombic'
loop_
_space_group_symop_operation_xyz
x,y,z
1/2-x,1/2-y,z
1/2+x,-y,1/2-z
-x,1/2+y,1/2-z
-x,-y,-z
1/2+x,1/2+y,-z
1/2-x,y,1/2+z
x,1/2-y,1/2+z
loop_
_atom_site_type_symbol
_atom_site_label
_atom_site_fract_x
_atom_site_fract_y
_atom_site_fract_z
Si Si1 0.262707 0.998565 0.339451
Si Si2 0.995859 0.222349 0.993359
Si Si3 0.281917 0.859490 0.648799
Si Si4 0.456465 0.076766 0.025337
Si Si5 0.951308 0.630866 0.395002
O O1 0.192082 0.039271 0.437915
O O2 0.550738 0.000217 0.281760
O O3 0.195380 0.952492 0.417250
O O4 0.250000 0.250000 0.951393
O O5 0.750000 0.250000 0.049588
O O6 0.102970 0.184299 0.097701
O O7 0.643640 0.307518 0.875365
O O8 0.499411 0.880976 0.553129
O O9 0.201712 0.870131 0.799985
O O10 0.041345 0.880451 0.565056
O O11 0.276130 0.097577 0.143511
#
# Coordination Sequence:
#
# PCOD9432803 Si02
#       5
#     8   8   8   8   8
#     4  11  28  45  75 109 158 205 266 328 392 465
#     4  10  23  48  75 112 151 200 248 315 382 461
#     4  10  25  44  79 112 153 206 258 320 389 466
#     4  11  25  46  74 111 157 211 263 324 396 469
#     4  10  25  46  75 115 154 206 259 320 389 467
#
# _framework density 26.361450000000001
#
# number of rings (size 3 to 8) (size 9 to 14) (size 15 to 20)
#    1.200    0.400    0.000    2.400    8.400    4.000 
#    0.000    2.000    0.000    0.000    0.000    0.000 
#    0.000    0.000    0.000    0.000    0.000    0.000 
#
# Total GULP energy -223152.024182 kJ/mol
# GULP energy per Si atom -5578.800605 kJ/mol
# Density = 2.630145 g / cm^3
# Si number density = 26.361450 Si / 1000 Ang^3
#
#
#
# Elastic Constant Matrix: (Units=GPa)
#
#
# Indices 1 2 3 4 5 6 
#
# 1 125.7720 68.7399 17.7280 0.0000 0.0000 0.0000
# 2 68.7399 154.7029 45.6865 0.0000 0.0000 0.0000
# 3 17.7280 45.6865 84.6837 0.0000 0.0000 0.0000
# 4 0.0000 0.0000 0.0000 19.6632 0.0000 0.0000
# 5 0.0000 0.0000 0.0000 0.0000 38.7423 0.0000
# 6 0.0000 0.0000 0.0000 0.0000 0.0000 60.8302
#
#
#
# Elastic Compliance Matrix: (Units=1/GPa)
#
#
# Indices 1 2 3 4 5 6 
#
# 1 0.010511 -0.004783 0.000380 0.000000 0.000000 0.000000
# 2 -0.004783 0.009865 -0.004321 0.000000 0.000000 0.000000
# 3 0.000380 -0.004321 0.014060 0.000000 0.000000 0.000000
# 4 0.000000 0.000000 0.000000 0.050856 0.000000 0.000000
# 5 0.000000 0.000000 0.000000 0.000000 0.025812 0.000000
# 6 0.000000 0.000000 0.000000 0.000000 0.000000 0.016439
#
#
# Mechanical properties :
#
#
# Convention : Reuss Voigt Hill
#
# Bulk Modulus (GPa) = 58.86177 69.94082 64.40129
# Shear Modulus (GPa) = 33.18847 39.38078 36.28463
#
# Velocity S-wave (km/s) = 3.55206 3.86926 3.71405
# Velocity P-wave (km/s) = 6.26099 6.82281 6.54793
#
# Compressibility (1/GPa) = 0.01698895
#
# Stress axis : x y z
#
# Youngs Moduli (GPa) = 95.13557 101.36658 71.12221
#
# Poissons Ratio (x) = 0.48481 -0.02701
# Poissons Ratio (y) = 0.45500 0.30732
# Poissons Ratio (z) = -0.03613 0.43800
#
# Static dielectric constant tensor:
#      x y z
#    x 2.140160 0.000000 0.000000 
#    y 0.000000 2.113170 0.000000 
#    z 0.000000 0.000000 2.066040 
# 
# From -- ./inp_files/5684.got.cif
#   From: 2010.05.17/outbox.cif.g08.bks.cpg/sg56_3_cif.got.tgz:5684.got - 2010.06.03 13:42:01.
