data_PCOD9432343
_publ_section_title
;
Structure prediction by ZEFSAII (Michael W. Deem and Ramdas Pophale) SiO2 
 PCOD9432343
Probable space group: P C C N
;
_chemical_formula_sum "Si O2"
_cell_formula_units_Z 32
_cell_length_a 9.240091
_cell_length_b 9.083878
_cell_length_c 19.021315
_cell_angle_alpha 90.000000
_cell_angle_beta 90.000000
_cell_angle_gamma 90.000000
_cell_volume 1596.570421
_symmetry_space_group_name_H-M "P C C N"
_symmetry_group_IT_number 56
_symmetry_cell_setting 'orthorhombic'
loop_
_space_group_symop_operation_xyz
x,y,z
1/2-x,1/2-y,z
1/2+x,-y,1/2-z
-x,1/2+y,1/2-z
-x,-y,-z
1/2+x,1/2+y,-z
1/2-x,y,1/2+z
x,1/2-y,1/2+z
loop_
_atom_site_type_symbol
_atom_site_label
_atom_site_fract_x
_atom_site_fract_y
_atom_site_fract_z
Si Si1 0.422338 0.416253 0.438459
Si Si2 0.404909 0.425531 0.939986
Si Si3 0.883339 0.356620 0.802237
Si Si4 0.885808 0.641614 0.713630
O O1 0.500000 0.500000 0.500000
O O2 0.260391 0.480172 0.433116
O O3 0.405355 0.246216 0.459114
O O4 0.519941 0.411546 0.368251
O O5 0.453769 0.424321 0.858468
O O6 0.500000 0.500000 0.000000
O O7 0.750000 0.250000 0.822192
O O8 0.840125 0.504311 0.760954
O O9 0.990954 0.250980 0.757086
O O10 0.750000 0.750000 0.696779
#
# Coordination Sequence:
#
# PCOD9432343 Si02
#       4
#     8   8   8   8
#     4  10  23  42  61  94 130 166 220 270 323 397
#     4  10  22  43  65  88 130 174 212 273 326 388
#     4  11  24  40  70  98 131 177 217 278 342 390
#     4  11  22  46  65  96 137 170 225 276 327 403
#
# _framework density 20.042961999999999
#
# number of rings (size 3 to 8) (size 9 to 14) (size 15 to 20)
#    0.000    1.500    5.000    1.500    7.000    2.000 
#    4.500    0.000    0.000    0.000    0.000    0.000 
#    0.000    0.000    0.000    0.000    0.000    0.000 
#
# Total GULP energy -178252.557400 kJ/mol
# GULP energy per Si atom -5570.392419 kJ/mol
# Density = 1.999734 g / cm^3
# Si number density = 20.042962 Si / 1000 Ang^3
#
#
#
# Elastic Constant Matrix: (Units=GPa)
#
#
# Indices 1 2 3 4 5 6 
#
# 1 100.5294 36.3021 44.6837 0.0000 0.0000 0.0000
# 2 36.3021 79.0351 64.7658 0.0000 0.0000 0.0000
# 3 44.6837 64.7658 92.0704 0.0000 0.0000 0.0000
# 4 0.0000 0.0000 0.0000 43.2409 0.0000 0.0000
# 5 0.0000 0.0000 0.0000 0.0000 25.8667 0.0000
# 6 0.0000 0.0000 0.0000 0.0000 0.0000 40.9868
#
#
#
# Elastic Compliance Matrix: (Units=1/GPa)
#
#
# Indices 1 2 3 4 5 6 
#
# 1 0.012798 -0.001862 -0.004902 0.000000 0.000000 0.000000
# 2 -0.001862 0.030143 -0.020300 0.000000 0.000000 0.000000
# 3 -0.004902 -0.020300 0.027520 0.000000 0.000000 0.000000
# 4 0.000000 0.000000 0.000000 0.023126 0.000000 0.000000
# 5 0.000000 0.000000 0.000000 0.000000 0.038660 0.000000
# 6 0.000000 0.000000 0.000000 0.000000 0.000000 0.024398
#
#
# Mechanical properties :
#
#
# Convention : Reuss Voigt Hill
#
# Bulk Modulus (GPa) = 61.22147 62.57088 61.89617
# Shear Modulus (GPa) = 23.12499 30.41110 26.76804
#
# Velocity S-wave (km/s) = 3.40041 3.89947 3.65846
# Velocity P-wave (km/s) = 6.78443 7.18058 6.98531
#
# Compressibility (1/GPa) = 0.01633414
#
# Stress axis : x y z
#
# Youngs Moduli (GPa) = 78.13503 33.17561 36.33741
#
# Poissons Ratio (x) = 0.06177 0.17811
# Poissons Ratio (y) = 0.14547 0.73765
# Poissons Ratio (z) = 0.38299 0.67346
#
# Static dielectric constant tensor:
#      x y z
#    x 1.826490 0.000000 0.000000 
#    y 0.000000 1.710280 0.000000 
#    z 0.000000 0.000000 1.719360 
# 
# From -- ./inp_files/17767.got.cif
#   From: 2010.05.17/outbox.cif.g08.bks.cpg/sg56_9_cif.got.tgz:17767.got - 2010.06.03 13:42:01.
