data_PCOD9432963
_publ_section_title
;
Structure prediction by ZEFSAII (Michael W. Deem and Ramdas Pophale) SiO2 
 PCOD9432963
Probable space group: P C C N
;
_chemical_formula_sum "Si O2"
_cell_formula_units_Z 28
_cell_length_a 10.480213
_cell_length_b 5.108075
_cell_length_c 19.636150
_cell_angle_alpha 90.000000
_cell_angle_beta 90.000000
_cell_angle_gamma 90.000000
_cell_volume 1051.196039
_symmetry_space_group_name_H-M "P C C N"
_symmetry_group_IT_number 56
_symmetry_cell_setting 'orthorhombic'
loop_
_space_group_symop_operation_xyz
x,y,z
1/2-x,1/2-y,z
1/2+x,-y,1/2-z
-x,1/2+y,1/2-z
-x,-y,-z
1/2+x,1/2+y,-z
1/2-x,y,1/2+z
x,1/2-y,1/2+z
loop_
_atom_site_type_symbol
_atom_site_label
_atom_site_fract_x
_atom_site_fract_y
_atom_site_fract_z
Si Si1 0.876022 0.903311 0.115699
Si Si2 0.250000 0.750000 0.480493
Si Si3 0.429737 0.308180 0.739161
Si Si4 0.362821 0.576958 0.610358
O O1 0.750000 0.750000 0.093808
O O2 0.007588 0.747561 0.106192
O O3 0.864254 0.156489 0.068353
O O4 0.858033 0.940553 0.196840
O O5 0.309087 0.541794 0.534443
O O6 0.449655 0.007484 0.758231
O O7 0.384076 0.339941 0.662058
O O8 0.250000 0.750000 0.643761
#
# Coordination Sequence:
#
# PCOD9432963 Si02
#       4
#     8   4   8   8
#     4  11  25  43  73 104 138 191 239 300 361 432
#     4  10  24  44  72  96 154 180 244 284 372 436
#     4  10  24  47  76 104 142 186 245 301 357 423
#     4   9  23  46  66 104 139 186 236 295 359 429
#
# _framework density 26.636324999999999
#
# number of rings (size 3 to 8) (size 9 to 14) (size 15 to 20)
#    0.857    1.143    0.000    0.857   10.000    5.714 
#   10.286    0.000    0.000    0.000    0.000    0.000 
#    0.000    0.000    0.000    0.000    0.000    0.000 
#
# Total GULP energy -156272.211130 kJ/mol
# GULP energy per Si atom -5581.150398 kJ/mol
# Density = 2.657570 g / cm^3
# Si number density = 26.636325 Si / 1000 Ang^3
#
#
#
# Elastic Constant Matrix: (Units=GPa)
#
#
# Indices 1 2 3 4 5 6 
#
# 1 142.9773 40.4913 34.9937 0.0000 0.0000 0.0000
# 2 40.4913 85.8535 24.8283 0.0000 0.0000 0.0000
# 3 34.9937 24.8283 200.3375 0.0000 0.0000 0.0000
# 4 0.0000 0.0000 0.0000 20.3338 0.0000 0.0000
# 5 0.0000 0.0000 0.0000 0.0000 54.7516 0.0000
# 6 0.0000 0.0000 0.0000 0.0000 0.0000 33.4544
#
#
#
# Elastic Compliance Matrix: (Units=1/GPa)
#
#
# Indices 1 2 3 4 5 6 
#
# 1 0.008259 -0.003607 -0.000996 0.000000 0.000000 0.000000
# 2 -0.003607 0.013656 -0.001062 0.000000 0.000000 0.000000
# 3 -0.000996 -0.001062 0.005297 0.000000 0.000000 0.000000
# 4 0.000000 0.000000 0.000000 0.049179 0.000000 0.000000
# 5 0.000000 0.000000 0.000000 0.000000 0.018264 0.000000
# 6 0.000000 0.000000 0.000000 0.000000 0.000000 0.029891
#
#
# Mechanical properties :
#
#
# Convention : Reuss Voigt Hill
#
# Bulk Modulus (GPa) = 62.96409 69.97721 66.47065
# Shear Modulus (GPa) = 35.41756 43.63162 39.52459
#
# Velocity S-wave (km/s) = 3.65042 4.05167 3.85627
# Velocity P-wave (km/s) = 6.43873 6.94381 6.69603
#
# Compressibility (1/GPa) = 0.01588207
#
# Stress axis : x y z
#
# Youngs Moduli (GPa) = 121.07361 73.22588 188.78101
#
# Poissons Ratio (x) = 0.26416 0.18796
# Poissons Ratio (y) = 0.43677 0.20055
# Poissons Ratio (z) = 0.12054 0.07779
#
# Static dielectric constant tensor:
#      x y z
#    x 2.190600 0.000000 0.000000 
#    y 0.000000 2.372040 0.000000 
#    z 0.000000 0.000000 2.041590 
# 
# From -- ./inp_files/17213.got.cif
#   From: 2010.05.17/outbox.cif.g08.bks.cpg/sg56_9_cif.got.tgz:17213.got - 2010.06.03 13:42:01.
