data_PCOD9432794
_publ_section_title
;
Structure prediction by ZEFSAII (Michael W. Deem and Ramdas Pophale) SiO2 
 PCOD9432794
Probable space group: P C C N
;
_chemical_formula_sum "Si O2"
_cell_formula_units_Z 60
_cell_length_a 8.695612
_cell_length_b 23.832837
_cell_length_c 13.327249
_cell_angle_alpha 90.000000
_cell_angle_beta 90.000000
_cell_angle_gamma 90.000000
_cell_volume 2761.953788
_symmetry_space_group_name_H-M "P C C N"
_symmetry_group_IT_number 56
_symmetry_cell_setting 'orthorhombic'
loop_
_space_group_symop_operation_xyz
x,y,z
1/2-x,1/2-y,z
1/2+x,-y,1/2-z
-x,1/2+y,1/2-z
-x,-y,-z
1/2+x,1/2+y,-z
1/2-x,y,1/2+z
x,1/2-y,1/2+z
loop_
_atom_site_type_symbol
_atom_site_label
_atom_site_fract_x
_atom_site_fract_y
_atom_site_fract_z
Si Si1 0.557697 0.944746 0.945357
Si Si2 0.662080 0.521982 0.824801
Si Si3 0.816617 0.604623 0.146509
Si Si4 0.096858 0.208924 0.221245
Si Si5 0.250000 0.750000 0.822089
Si Si6 0.185299 0.866322 0.339812
Si Si7 0.449963 0.895742 0.642915
Si Si8 0.491213 0.883759 0.419167
O O1 0.638121 0.908301 0.032699
O O2 0.662510 0.966570 0.854437
O O3 0.426699 0.906455 0.898458
O O4 0.500000 0.000000 0.000000
O O5 0.631739 0.553507 0.719852
O O6 0.613032 0.458043 0.833759
O O7 0.579715 0.557910 0.912062
O O8 0.879593 0.663292 0.190133
O O9 0.632742 0.606682 0.154392
O O10 0.250000 0.250000 0.218959
O O11 0.920495 0.234165 0.226911
O O12 0.090426 0.168811 0.121090
O O13 0.293091 0.804862 0.885241
O O14 0.127765 0.857724 0.226999
O O15 0.353562 0.891986 0.340636
O O16 0.420755 0.877784 0.528999
#
# Coordination Sequence:
#
# PCOD9432794 Si02
#       8
#     8   8   8   8   4   8   8   8
#     4  12  25  42  68 103 143 183 238 295 364 444
#     4  11  24  39  64  96 140 184 221 292 347 435
#     4  11  25  42  67 104 136 190 239 287 365 441
#     4  10  23  47  74  99 141 184 247 309 362 421
#     4  10  24  46  72  96 138 192 234 308 366 416
#     4  11  25  44  68  99 140 183 237 306 359 433
#     4  12  23  40  71  97 144 185 236 286 367 439
#     4  10  24  42  65 101 134 182 231 292 358 434
#
# _framework density 21.723751
#
# number of rings (size 3 to 8) (size 9 to 14) (size 15 to 20)
#    0.000    1.067    2.667    2.800    5.600    5.333 
#    0.000   10.667    0.000    0.000    0.000    0.000 
#    0.000    0.000    0.000    0.000    0.000    0.000 
#
# Total GULP energy -334705.406839 kJ/mol
# GULP energy per Si atom -5578.423447 kJ/mol
# Density = 2.167431 g / cm^3
# Si number density = 21.723751 Si / 1000 Ang^3
#
#
#
# Elastic Constant Matrix: (Units=GPa)
#
#
# Indices 1 2 3 4 5 6 
#
# 1 123.4818 48.8109 10.8450 0.0000 0.0000 0.0000
# 2 48.8109 116.6237 11.2904 0.0000 0.0000 0.0000
# 3 10.8450 11.2904 75.1973 0.0000 0.0000 0.0000
# 4 0.0000 0.0000 0.0000 17.2637 0.0000 0.0000
# 5 0.0000 0.0000 0.0000 0.0000 22.1863 0.0000
# 6 0.0000 0.0000 0.0000 0.0000 0.0000 48.4790
#
#
#
# Elastic Compliance Matrix: (Units=1/GPa)
#
#
# Indices 1 2 3 4 5 6 
#
# 1 0.009752 -0.004003 -0.000805 0.000000 0.000000 0.000000
# 2 -0.004003 0.010345 -0.000976 0.000000 0.000000 0.000000
# 3 -0.000805 -0.000976 0.013561 0.000000 0.000000 0.000000
# 4 0.000000 0.000000 0.000000 0.057925 0.000000 0.000000
# 5 0.000000 0.000000 0.000000 0.000000 0.045073 0.000000
# 6 0.000000 0.000000 0.000000 0.000000 0.000000 0.020628
#
#
# Mechanical properties :
#
#
# Convention : Reuss Voigt Hill
#
# Bulk Modulus (GPa) = 45.27305 50.79949 48.03627
# Shear Modulus (GPa) = 28.37456 33.87623 31.12539
#
# Velocity S-wave (km/s) = 3.61800 3.95322 3.78932
# Velocity P-wave (km/s) = 6.19183 6.65375 6.42694
#
# Compressibility (1/GPa) = 0.02208820
#
# Stress axis : x y z
#
# Youngs Moduli (GPa) = 102.54742 96.66867 73.74083
#
# Poissons Ratio (x) = 0.38700 0.05938
# Poissons Ratio (y) = 0.41054 0.07196
# Poissons Ratio (z) = 0.08258 0.09433
#
# Static dielectric constant tensor:
#      x y z
#    x 1.926420 0.000000 0.000000 
#    y 0.000000 1.771040 0.000000 
#    z 0.000000 0.000000 2.635890 
# 
# From -- ./inp_files/11011.got.cif
#   From: 2010.05.17/outbox.cif.g08.bks.cpg/sg56_6_cif.got.tgz:11011.got - 2010.06.03 13:42:01.
