data_PCOD9432583
_publ_section_title
;
Structure prediction by ZEFSAII (Michael W. Deem and Ramdas Pophale) SiO2 
 PCOD9432583
Probable space group: P C C N
;
_chemical_formula_sum "Si O2"
_cell_formula_units_Z 48
_cell_length_a 12.624232
_cell_length_b 14.768285
_cell_length_c 10.104275
_cell_angle_alpha 90.000000
_cell_angle_beta 90.000000
_cell_angle_gamma 90.000000
_cell_volume 1883.823410
_symmetry_space_group_name_H-M "P C C N"
_symmetry_group_IT_number 56
_symmetry_cell_setting 'orthorhombic'
loop_
_space_group_symop_operation_xyz
x,y,z
1/2-x,1/2-y,z
1/2+x,-y,1/2-z
-x,1/2+y,1/2-z
-x,-y,-z
1/2+x,1/2+y,-z
1/2-x,y,1/2+z
x,1/2-y,1/2+z
loop_
_atom_site_type_symbol
_atom_site_label
_atom_site_fract_x
_atom_site_fract_y
_atom_site_fract_z
Si Si1 0.817490 0.166460 0.842341
Si Si2 0.182510 0.333539 0.342338
Si Si3 0.499999 0.592410 0.342466
Si Si4 0.500000 0.282575 0.415772
Si Si5 1.000000 0.582008 0.307747
Si Si6 0.178425 0.499999 0.500000
O O1 0.750000 0.250000 0.789129
O O2 0.894416 0.126251 0.732322
O O3 0.898581 0.219358 0.938681
O O4 0.764717 0.080861 0.918155
O O5 0.250000 0.250000 0.289125
O O6 0.101421 0.280640 0.438680
O O7 0.235283 0.419139 0.418153
O O8 0.105582 0.373748 0.232322
O O9 0.499999 0.637030 0.482750
O O10 0.500000 0.487091 0.314914
O O11 0.500000 0.320939 0.264375
O O12 0.898779 0.552945 0.396808
O O13 0.101220 0.552943 0.396808
#
# Coordination Sequence:
#
# PCOD9432583 Si02
#       6
#     8   8   8   8   8   8
#     4  10  23  41  65  94 125 177 217 264 328 387
#     4  10  23  41  65  94 125 177 217 264 328 387
#     4   9  21  41  62  89 132 164 209 272 327 375
#     4  11  22  37  67  94 127 166 217 270 309 398
#     4   9  18  39  65  92 125 170 211 257 336 382
#     4   9  20  42  66  91 134 174 210 271 328 387
#
# _framework density 25.480094999999999
#
# number of rings (size 3 to 8) (size 9 to 14) (size 15 to 20)
#    0.000    2.333    0.000    3.500    9.333    1.333 
#    6.000    3.333    0.000    0.000    0.000    0.000 
#    0.000    0.000    0.000    0.000    0.000    0.000 
#
# Total GULP energy -268166.031058 kJ/mol
# GULP energy per Si atom -5586.792314 kJ/mol
# Density = 2.542210 g / cm^3
# Si number density = 25.480095 Si / 1000 Ang^3
#
#
#
# Elastic Constant Matrix: (Units=GPa)
#
#
# Indices 1 2 3 4 5 6 
#
# 1 45.7878 22.7403 -7.2843 0.0000 0.0000 0.0000
# 2 22.7403 169.4432 56.5009 0.0000 0.0000 0.0000
# 3 -7.2843 56.5009 101.5824 0.0000 0.0000 0.0000
# 4 0.0000 0.0000 0.0000 54.1789 0.0000 0.0000
# 5 0.0000 0.0000 0.0000 0.0000 -27.4037 0.0000
# 6 0.0000 0.0000 0.0000 0.0000 0.0000 74.4933
#
#
#
# Elastic Compliance Matrix: (Units=1/GPa)
#
#
# Indices 1 2 3 4 5 6 
#
# 1 0.024960 -0.004845 0.004485 0.000000 0.000000 0.000000
# 2 -0.004845 0.008186 -0.004901 0.000000 0.000000 0.000000
# 3 0.004485 -0.004901 0.012892 0.000000 0.000000 0.000000
# 4 0.000000 0.000000 0.000000 0.018457 0.000000 0.000000
# 5 0.000000 0.000000 0.000000 0.000000 -0.036491 0.000000
# 6 0.000000 0.000000 0.000000 0.000000 0.000000 0.013424
#
#
# Mechanical properties :
#
#
# Convention : Reuss Voigt Hill
#
# Bulk Modulus (GPa) = 28.15693 51.19192 39.67443
# Shear Modulus (GPa) = 78.38512 36.57747 57.48130
#
# Velocity S-wave (km/s) = 5.55248 3.79295 4.75482
# Velocity P-wave (km/s) = 7.22366 6.27029 6.76379
#
# Compressibility (1/GPa) = 0.03551523
#
# Stress axis : x y z
#
# Youngs Moduli (GPa) = 40.06464 122.15934 77.57017
#
# Poissons Ratio (x) = 0.59188 -0.34788
# Poissons Ratio (y) = 0.19412 0.38014
# Poissons Ratio (z) = -0.17968 0.59865
#
# Static dielectric constant tensor:
#      x y z
#    x 2.157060 0.000000 0.000000 
#    y 0.000000 1.963520 0.000000 
#    z 0.000000 0.000000 1.985110 
# 
# From -- ./inp_files/7819.got.cif
#   From: 2010.05.17/outbox.cif.g08.bks.cpg/sg56_4_cif.got.tgz:7819.got - 2010.06.03 13:42:01.
