data_PCOD9432280
_publ_section_title
;
Structure prediction by ZEFSAII (Michael W. Deem and Ramdas Pophale) SiO2 
 PCOD9432280
Probable space group: P C C N
;
_chemical_formula_sum "Si O2"
_cell_formula_units_Z 44
_cell_length_a 4.955369
_cell_length_b 16.260512
_cell_length_c 22.737577
_cell_angle_alpha 90.000000
_cell_angle_beta 90.000000
_cell_angle_gamma 90.000000
_cell_volume 1832.122038
_symmetry_space_group_name_H-M "P C C N"
_symmetry_group_IT_number 56
_symmetry_cell_setting 'orthorhombic'
loop_
_space_group_symop_operation_xyz
x,y,z
1/2-x,1/2-y,z
1/2+x,-y,1/2-z
-x,1/2+y,1/2-z
-x,-y,-z
1/2+x,1/2+y,-z
1/2-x,y,1/2+z
x,1/2-y,1/2+z
loop_
_atom_site_type_symbol
_atom_site_label
_atom_site_fract_x
_atom_site_fract_y
_atom_site_fract_z
Si Si1 0.556405 0.094749 0.633810
Si Si2 0.750000 0.750000 0.369015
Si Si3 0.404611 0.946327 0.757349
Si Si4 0.732620 0.421127 0.866672
Si Si5 0.619853 0.167856 0.033608
Si Si6 0.263030 0.151653 0.925352
O O1 0.408342 0.175503 0.659965
O O2 0.802243 0.081531 0.679270
O O3 0.664856 0.111411 0.567445
O O4 0.359938 0.016285 0.630279
O O5 0.542023 0.704998 0.411692
O O6 0.338411 0.892469 0.699812
O O7 0.712753 0.973570 0.752990
O O8 0.538350 0.379226 0.914528
O O9 0.038498 0.396900 0.880726
O O10 0.750000 0.250000 0.005282
O O11 0.403790 0.132982 0.987982
O O12 0.250000 0.250000 0.916803
#
# Coordination Sequence:
#
# PCOD9432280 Si02
#       6
#     8   4   8   8   8   8
#     4  10  24  42  72 103 140 179 243 289 354 414
#     4  10  22  42  68 100 138 184 230 290 358 416
#     4  10  22  44  71  97 141 182 219 288 358 404
#     4  11  25  43  72 104 136 186 233 285 350 423
#     4  10  22  42  67  99 140 190 226 294 361 404
#     4  12  25  46  68  96 143 190 231 286 353 421
#
# _framework density 24.015865000000002
#
# number of rings (size 3 to 8) (size 9 to 14) (size 15 to 20)
#    0.000    1.455    0.909    3.818   10.182    1.455 
#    1.636    3.636    0.000    0.000    0.000    0.000 
#    0.000    0.000    0.000    0.000    0.000    0.000 
#
# Total GULP energy -245834.679077 kJ/mol
# GULP energy per Si atom -5587.151797 kJ/mol
# Density = 2.396120 g / cm^3
# Si number density = 24.015865 Si / 1000 Ang^3
#
#
#
# Elastic Constant Matrix: (Units=GPa)
#
#
# Indices 1 2 3 4 5 6 
#
# 1 79.0007 20.3176 13.2722 0.0000 0.0000 0.0000
# 2 20.3176 90.7192 37.5245 0.0000 0.0000 0.0000
# 3 13.2722 37.5245 95.8384 0.0000 0.0000 0.0000
# 4 0.0000 0.0000 0.0000 1191.3384 0.0000 0.0000
# 5 0.0000 0.0000 0.0000 0.0000 19.6525 0.0000
# 6 0.0000 0.0000 0.0000 0.0000 0.0000 47.8261
#
#
#
# Elastic Compliance Matrix: (Units=1/GPa)
#
#
# Indices 1 2 3 4 5 6 
#
# 1 0.013485 -0.002682 -0.000817 0.000000 0.000000 0.000000
# 2 -0.002682 0.013687 -0.004987 0.000000 0.000000 0.000000
# 3 -0.000817 -0.004987 0.012500 0.000000 0.000000 0.000000
# 4 0.000000 0.000000 0.000000 0.000839 0.000000 0.000000
# 5 0.000000 0.000000 0.000000 0.000000 0.050884 0.000000
# 6 0.000000 0.000000 0.000000 0.000000 0.000000 0.020909
#
#
# Mechanical properties :
#
#
# Convention : Reuss Voigt Hill
#
# Bulk Modulus (GPa) = 44.05610 45.30964 44.68287
# Shear Modulus (GPa) = 36.53779 264.72634 150.63206
#
# Velocity S-wave (km/s) = 3.90475 10.51043 7.92831
# Velocity P-wave (km/s) = 6.22204 12.89184 10.12209
#
# Compressibility (1/GPa) = 0.02269833
#
# Stress axis : x y z
#
# Youngs Moduli (GPa) = 74.15531 73.06380 79.99870
#
# Poissons Ratio (x) = 0.19596 0.06539
# Poissons Ratio (y) = 0.19889 0.39899
# Poissons Ratio (z) = 0.06061 0.36440
#
# Static dielectric constant tensor:
#      x y z
#    x 2.028880 0.000000 0.000000 
#    y 0.000000 1.956250 0.000000 
#    z 0.000000 0.000000 1.988780 
# 
# From -- ./inp_files/21634.got.cif
#   From: 2010.05.17/outbox.cif.g08.bks.cpg/sg56_11_cif.got.tgz:21634.got - 2010.06.03 13:42:01.
