data_PCOD9432503
_publ_section_title
;
Structure prediction by ZEFSAII (Michael W. Deem and Ramdas Pophale) SiO2 
 PCOD9432503
Probable space group: P C C N
;
_chemical_formula_sum "Si O2"
_cell_formula_units_Z 32
_cell_length_a 8.587571
_cell_length_b 11.484562
_cell_length_c 14.673000
_cell_angle_alpha 90.000000
_cell_angle_beta 90.000000
_cell_angle_gamma 90.000000
_cell_volume 1447.117165
_symmetry_space_group_name_H-M "P C C N"
_symmetry_group_IT_number 56
_symmetry_cell_setting 'orthorhombic'
loop_
_space_group_symop_operation_xyz
x,y,z
1/2-x,1/2-y,z
1/2+x,-y,1/2-z
-x,1/2+y,1/2-z
-x,-y,-z
1/2+x,1/2+y,-z
1/2-x,y,1/2+z
x,1/2-y,1/2+z
loop_
_atom_site_type_symbol
_atom_site_label
_atom_site_fract_x
_atom_site_fract_y
_atom_site_fract_z
Si Si1 0.387301 0.612472 0.002710
Si Si2 0.422030 0.850894 0.102221
Si Si3 0.713809 0.885349 0.195349
Si Si4 0.430150 0.903077 0.303193
O O1 0.446929 0.722382 0.061298
O O2 0.215687 0.591132 0.044494
O O3 0.500000 0.500000 0.000000
O O4 0.382187 0.653124 0.897641
O O5 0.589081 0.913591 0.114954
O O6 0.126686 0.654831 0.209073
O O7 0.750000 0.750000 0.189644
O O8 0.615443 0.906351 0.287784
O O9 0.860537 0.967578 0.194268
#
# Coordination Sequence:
#
# PCOD9432503 Si02
#       4
#     8   8   8   8
#     4  11  21  42  72 110 143 194 255 310 368 463
#     4   9  24  41  67 106 146 194 248 306 380 446
#     4  10  22  47  72 107 147 196 247 315 381 451
#     4  10  23  43  73  99 150 193 242 312 379 440
#
# _framework density 22.112928
#
# number of rings (size 3 to 8) (size 9 to 14) (size 15 to 20)
#    1.500    0.500    0.000    3.000    0.000    7.000 
#    9.000    3.750    0.000    0.000    0.000    0.000 
#    0.000    0.000    0.000    0.000    0.000    0.000 
#
# Total GULP energy -178275.549842 kJ/mol
# GULP energy per Si atom -5571.110933 kJ/mol
# Density = 2.206260 g / cm^3
# Si number density = 22.112928 Si / 1000 Ang^3
#
#
#
# Elastic Constant Matrix: (Units=GPa)
#
#
# Indices 1 2 3 4 5 6 
#
# 1 82.7709 31.5967 29.4089 0.0000 0.0000 0.0000
# 2 31.5967 96.1377 48.1226 0.0000 0.0000 0.0000
# 3 29.4089 48.1226 183.9437 0.0000 0.0000 0.0000
# 4 0.0000 0.0000 0.0000 31.9914 0.0000 0.0000
# 5 0.0000 0.0000 0.0000 0.0000 43.6379 0.0000
# 6 0.0000 0.0000 0.0000 0.0000 0.0000 40.4605
#
#
#
# Elastic Compliance Matrix: (Units=1/GPa)
#
#
# Indices 1 2 3 4 5 6 
#
# 1 0.014039 -0.004016 -0.001194 0.000000 0.000000 0.000000
# 2 -0.004016 0.013118 -0.002790 0.000000 0.000000 0.000000
# 3 -0.001194 -0.002790 0.006357 0.000000 0.000000 0.000000
# 4 0.000000 0.000000 0.000000 0.031258 0.000000 0.000000
# 5 0.000000 0.000000 0.000000 0.000000 0.022916 0.000000
# 6 0.000000 0.000000 0.000000 0.000000 0.000000 0.024715
#
#
# Mechanical properties :
#
#
# Convention : Reuss Voigt Hill
#
# Bulk Modulus (GPa) = 57.09632 64.56761 60.83197
# Shear Modulus (GPa) = 37.24608 40.13288 38.68948
#
# Velocity S-wave (km/s) = 4.10854 4.26479 4.18740
# Velocity P-wave (km/s) = 6.95581 7.31531 7.13782
#
# Compressibility (1/GPa) = 0.01751426
#
# Stress axis : x y z
#
# Youngs Moduli (GPa) = 71.23053 76.22954 157.30293
#
# Poissons Ratio (x) = 0.30618 0.18778
# Poissons Ratio (y) = 0.28610 0.43884
# Poissons Ratio (z) = 0.08503 0.21266
#
# Static dielectric constant tensor:
#      x y z
#    x 1.958300 0.000000 0.000000 
#    y 0.000000 1.789820 0.000000 
#    z 0.000000 0.000000 1.857310 
# 
# From -- ./inp_files/10153.got.cif
#   From: 2010.05.17/outbox.cif.g08.bks.cpg/sg56_6_cif.got.tgz:10153.got - 2010.06.03 13:42:01.
