data_PCOD9432205
_publ_section_title
;
Structure prediction by ZEFSAII (Michael W. Deem and Ramdas Pophale) SiO2 
 PCOD9432205
Probable space group: P C C N
;
_chemical_formula_sum "Si O2"
_cell_formula_units_Z 60
_cell_length_a 12.407971
_cell_length_b 10.358258
_cell_length_c 17.975583
_cell_angle_alpha 90.000000
_cell_angle_beta 90.000000
_cell_angle_gamma 90.000000
_cell_volume 2310.311174
_symmetry_space_group_name_H-M "P C C N"
_symmetry_group_IT_number 56
_symmetry_cell_setting 'orthorhombic'
loop_
_space_group_symop_operation_xyz
x,y,z
1/2-x,1/2-y,z
1/2+x,-y,1/2-z
-x,1/2+y,1/2-z
-x,-y,-z
1/2+x,1/2+y,-z
1/2-x,y,1/2+z
x,1/2-y,1/2+z
loop_
_atom_site_type_symbol
_atom_site_label
_atom_site_fract_x
_atom_site_fract_y
_atom_site_fract_z
Si Si1 0.561684 0.363596 0.005742
Si Si2 0.474791 0.341721 0.757462
Si Si3 0.750000 0.750000 0.761255
Si Si4 0.757076 0.040142 0.413659
Si Si5 0.005255 0.846843 0.605630
Si Si6 0.808967 0.035694 0.744765
Si Si7 0.873953 0.070106 0.150048
Si Si8 0.783010 0.894416 0.553782
O O1 0.569434 0.332752 0.093561
O O2 0.500000 0.500000 0.000000
O O3 0.676015 0.371350 0.962330
O O4 0.496520 0.261100 0.958606
O O5 0.367967 0.301961 0.710412
O O6 0.497597 0.224492 0.814612
O O7 0.582617 0.393744 0.719852
O O8 0.447371 0.465636 0.809257
O O9 0.711462 0.615252 0.723045
O O10 0.877791 0.090192 0.400760
O O11 0.699949 0.028277 0.334144
O O12 0.769971 0.914589 0.465411
O O13 0.901676 0.930946 0.583356
O O14 0.707690 0.114271 0.713004
O O15 0.800347 0.991132 0.092017
O O16 0.750000 0.750000 0.575045
#
# Coordination Sequence:
#
# PCOD9432205 Si02
#       8
#     8   8   4   8   8   8   8   8
#     4  11  20  41  70  94 131 185 235 291 360 443
#     4  11  21  42  73 100 136 200 234 298 373 442
#     4  10  26  44  68 108 148 190 254 298 362 452
#     4  11  25  40  64 101 141 177 242 307 363 441
#     4  12  21  39  71  98 136 181 243 298 373 424
#     4  11  24  43  69 100 145 188 240 303 379 445
#     4  10  22  41  67  98 135 181 238 290 360 445
#     4  11  22  41  70  97 133 188 241 299 364 441
#
# _framework density 25.970527000000001
#
# number of rings (size 3 to 8) (size 9 to 14) (size 15 to 20)
#    0.000    1.067    4.000    3.200    1.867    4.267 
#    0.000    0.000   20.533    0.000    0.000    0.000 
#    0.000    0.000    0.000    0.000    0.000    0.000 
#
# Total GULP energy -335303.268510 kJ/mol
# GULP energy per Si atom -5588.387809 kJ/mol
# Density = 2.591142 g / cm^3
# Si number density = 25.970527 Si / 1000 Ang^3
#
#
#
# Elastic Constant Matrix: (Units=GPa)
#
#
# Indices 1 2 3 4 5 6 
#
# 1 167.5461 20.4518 19.4170 0.0000 0.0000 0.0000
# 2 20.4518 66.9212 23.0869 0.0000 0.0000 0.0000
# 3 19.4170 23.0869 97.8004 0.0000 0.0000 0.0000
# 4 0.0000 0.0000 0.0000 27.2838 0.0000 0.0000
# 5 0.0000 0.0000 0.0000 0.0000 64.1424 0.0000
# 6 0.0000 0.0000 0.0000 0.0000 0.0000 43.3374
#
#
#
# Elastic Compliance Matrix: (Units=1/GPa)
#
#
# Indices 1 2 3 4 5 6 
#
# 1 0.006266 -0.001617 -0.000862 0.000000 0.000000 0.000000
# 2 -0.001617 0.016685 -0.003618 0.000000 0.000000 0.000000
# 3 -0.000862 -0.003618 0.011250 0.000000 0.000000 0.000000
# 4 0.000000 0.000000 0.000000 0.036652 0.000000 0.000000
# 5 0.000000 0.000000 0.000000 0.000000 0.015590 0.000000
# 6 0.000000 0.000000 0.000000 0.000000 0.000000 0.023075
#
#
# Mechanical properties :
#
#
# Convention : Reuss Voigt Hill
#
# Bulk Modulus (GPa) = 45.44078 50.90880 48.17479
# Shear Modulus (GPa) = 38.74522 44.90687 41.82604
#
# Velocity S-wave (km/s) = 3.86669 4.16281 4.01748
# Velocity P-wave (km/s) = 6.12128 6.53838 6.33327
#
# Compressibility (1/GPa) = 0.02200666
#
# Stress axis : x y z
#
# Youngs Moduli (GPa) = 159.59489 59.93296 88.88842
#
# Poissons Ratio (x) = 0.09694 0.07664
# Poissons Ratio (y) = 0.25814 0.32157
# Poissons Ratio (z) = 0.13760 0.21682
#
# Static dielectric constant tensor:
#      x y z
#    x 2.060590 0.000000 0.000000 
#    y 0.000000 2.084770 0.000000 
#    z 0.000000 0.000000 2.087870 
# 
# From -- ./inp_files/18819.got.cif
#   From: 2010.05.17/outbox.cif.g08.bks.cpg/sg56_10_cif.got.tgz:18819.got - 2010.06.03 13:42:01.
