data_PCOD9432435
_publ_section_title
;
Structure prediction by ZEFSAII (Michael W. Deem and Ramdas Pophale) SiO2 
 PCOD9432435
Probable space group: P C C N
;
_chemical_formula_sum "Si O2"
_cell_formula_units_Z 64
_cell_length_a 20.420851
_cell_length_b 15.086049
_cell_length_c 8.412709
_cell_angle_alpha 90.000000
_cell_angle_beta 90.000000
_cell_angle_gamma 90.000000
_cell_volume 2591.702915
_symmetry_space_group_name_H-M "P C C N"
_symmetry_group_IT_number 56
_symmetry_cell_setting 'orthorhombic'
loop_
_space_group_symop_operation_xyz
x,y,z
1/2-x,1/2-y,z
1/2+x,-y,1/2-z
-x,1/2+y,1/2-z
-x,-y,-z
1/2+x,1/2+y,-z
1/2-x,y,1/2+z
x,1/2-y,1/2+z
loop_
_atom_site_type_symbol
_atom_site_label
_atom_site_fract_x
_atom_site_fract_y
_atom_site_fract_z
Si Si1 0.201354 0.166589 0.888484
Si Si2 0.393877 0.585738 0.070199
Si Si3 0.223638 0.652462 0.765486
Si Si4 0.113948 0.706271 0.995872
Si Si5 0.182827 0.407638 0.037623
Si Si6 0.085153 0.219782 0.474707
Si Si7 0.639070 0.433099 0.261156
Si Si8 0.997578 0.167598 0.756373
O O1 0.250000 0.250000 0.904923
O O2 0.244779 0.088158 0.963603
O O3 0.134742 0.195622 0.978119
O O4 0.190519 0.148212 0.702459
O O5 0.388875 0.690318 0.026825
O O6 0.392690 0.534297 0.903186
O O7 0.327140 0.585312 0.174498
O O8 0.465377 0.582792 0.154638
O O9 0.250000 0.750000 0.703687
O O10 0.183511 0.677669 0.922742
O O11 0.289922 0.600468 0.791783
O O12 0.062891 0.688692 0.857541
O O13 0.102825 0.648375 0.153314
O O14 0.134002 0.357537 0.914488
O O15 0.150337 0.496670 0.099792
O O16 0.057190 0.172009 0.631679
O O17 0.023611 0.257891 0.378776
#
# Coordination Sequence:
#
# PCOD9432435 Si02
#       8
#     8   8   8   8   8   8   8   8
#     4  10  22  44  72 102 134 170 224 285 334 418
#     4  11  22  38  61  93 131 173 227 275 313 390
#     4  11  21  35  58  88 126 175 228 267 320 395
#     4  11  22  38  59  93 128 176 227 273 315 389
#     4  11  26  42  68 107 141 170 213 286 359 406
#     4  11  22  44  74  97 123 175 233 275 338 412
#     4  12  25  40  64  98 143 176 213 278 354 401
#     4  11  23  39  70  96 121 170 236 277 319 389
#
# _framework density 24.694189999999999
#
# number of rings (size 3 to 8) (size 9 to 14) (size 15 to 20)
#    0.000    1.000    5.000    2.625    5.250    0.000 
#    0.000    1.250    0.000    0.000    0.000    0.000 
#    0.000    0.000    0.000    0.000    0.000    0.000 
#
# Total GULP energy -356828.538196 kJ/mol
# GULP energy per Si atom -5575.445909 kJ/mol
# Density = 2.463798 g / cm^3
# Si number density = 24.694190 Si / 1000 Ang^3
#
#
#
# Elastic Constant Matrix: (Units=GPa)
#
#
# Indices 1 2 3 4 5 6 
#
# 1 137.8709 11.9379 45.5244 0.0000 0.0000 0.0000
# 2 11.9379 36.5263 -8.8359 0.0000 0.0000 0.0000
# 3 45.5244 -8.8359 74.5918 0.0000 0.0000 0.0000
# 4 0.0000 0.0000 0.0000 27.4374 0.0000 0.0000
# 5 0.0000 0.0000 0.0000 0.0000 34.2442 0.0000
# 6 0.0000 0.0000 0.0000 0.0000 0.0000 22.0912
#
#
#
# Elastic Compliance Matrix: (Units=1/GPa)
#
#
# Indices 1 2 3 4 5 6 
#
# 1 0.009840 -0.004807 -0.006575 0.000000 0.000000 0.000000
# 2 -0.004807 0.030533 0.006550 0.000000 0.000000 0.000000
# 3 -0.006575 0.006550 0.018195 0.000000 0.000000 0.000000
# 4 0.000000 0.000000 0.000000 0.036447 0.000000 0.000000
# 5 0.000000 0.000000 0.000000 0.000000 0.029202 0.000000
# 6 0.000000 0.000000 0.000000 0.000000 0.000000 0.045267
#
#
# Mechanical properties :
#
#
# Convention : Reuss Voigt Hill
#
# Bulk Modulus (GPa) = 20.44744 38.47132 29.45938
# Shear Modulus (GPa) = 25.58212 30.11207 27.84710
#
# Velocity S-wave (km/s) = 3.22212 3.49578 3.36173
# Velocity P-wave (km/s) = 4.70542 5.64862 5.19845
#
# Compressibility (1/GPa) = 0.04890587
#
# Stress axis : x y z
#
# Youngs Moduli (GPa) = 101.62139 32.75132 54.95975
#
# Poissons Ratio (x) = 0.15743 0.36137
# Poissons Ratio (y) = 0.48846 -0.36001
# Poissons Ratio (z) = 0.66818 -0.21454
#
# Static dielectric constant tensor:
#      x y z
#    x 2.006110 0.000000 0.000000 
#    y 0.000000 2.009230 0.000000 
#    z 0.000000 0.000000 2.053310 
# 
# From -- ./inp_files/4560.got.cif
#   From: 2010.05.17/outbox.cif.g08.bks.cpg/sg56_3_cif.got.tgz:4560.got - 2010.06.03 13:42:01.
