data_PCOD9432045
_publ_section_title
;
Structure prediction by ZEFSAII (Michael W. Deem and Ramdas Pophale) SiO2 
 PCOD9432045
Probable space group: P C C N
;
_chemical_formula_sum "Si O2"
_cell_formula_units_Z 48
_cell_length_a 8.151190
_cell_length_b 11.892634
_cell_length_c 21.706136
_cell_angle_alpha 90.000000
_cell_angle_beta 90.000000
_cell_angle_gamma 90.000000
_cell_volume 2104.173708
_symmetry_space_group_name_H-M "P C C N"
_symmetry_group_IT_number 56
_symmetry_cell_setting 'orthorhombic'
loop_
_space_group_symop_operation_xyz
x,y,z
1/2-x,1/2-y,z
1/2+x,-y,1/2-z
-x,1/2+y,1/2-z
-x,-y,-z
1/2+x,1/2+y,-z
1/2-x,y,1/2+z
x,1/2-y,1/2+z
loop_
_atom_site_type_symbol
_atom_site_label
_atom_site_fract_x
_atom_site_fract_y
_atom_site_fract_z
Si Si1 0.880401 0.030739 0.244376
Si Si2 0.250000 0.750000 0.513238
Si Si3 0.200585 0.119424 0.172479
Si Si4 0.476983 0.706716 0.612729
Si Si5 0.479140 0.909734 0.445034
Si Si6 0.691103 0.915993 0.626081
Si Si7 0.250000 0.750000 0.226471
O O1 0.748839 0.133295 0.237245
O O2 0.051452 0.082575 0.219009
O O3 0.844222 0.970372 0.310036
O O4 0.844617 0.928922 0.197770
O O5 0.341617 0.670279 0.563102
O O6 0.396755 0.799516 0.473201
O O7 0.250000 0.250000 0.181208
O O8 0.130479 0.105695 0.102425
O O9 0.560958 0.827508 0.598213
O O10 0.628127 0.624717 0.614842
O O11 0.397836 0.725255 0.679404
O O12 0.500000 0.000000 0.500000
O O13 0.339517 0.963993 0.402592
#
# Coordination Sequence:
#
# PCOD9432045 Si02
#       7
#     8   4   8   8   8   8   4
#     4  11  25  43  72 105 147 200 237 304 374 447
#     4  11  24  43  72 100 138 191 243 306 360 430
#     4  11  28  48  75 111 153 194 249 311 378 447
#     4  10  22  39  67 100 134 190 239 289 358 440
#     4  11  24  48  71 102 145 188 249 307 368 437
#     4  10  22  42  66  99 141 181 239 298 358 442
#     4  11  22  39  62 100 142 185 245 286 358 440
#
# _framework density 22.811803000000001
#
# number of rings (size 3 to 8) (size 9 to 14) (size 15 to 20)
#    0.000    1.333    1.667    3.000    9.333    4.667 
#    3.000    0.000    0.000    0.000    0.000    0.000 
#    0.000    0.000    0.000    0.000    0.000    0.000 
#
# Total GULP energy -267676.412291 kJ/mol
# GULP energy per Si atom -5576.591923 kJ/mol
# Density = 2.275988 g / cm^3
# Si number density = 22.811803 Si / 1000 Ang^3
#
#
#
# Elastic Constant Matrix: (Units=GPa)
#
#
# Indices 1 2 3 4 5 6 
#
# 1 76.9821 20.6223 42.3722 0.0000 0.0000 0.0000
# 2 20.6223 92.8220 24.0109 0.0000 0.0000 0.0000
# 3 42.3722 24.0109 104.1234 0.0000 0.0000 0.0000
# 4 0.0000 0.0000 0.0000 25.5739 0.0000 0.0000
# 5 0.0000 0.0000 0.0000 0.0000 37.2994 0.0000
# 6 0.0000 0.0000 0.0000 0.0000 0.0000 39.0807
#
#
#
# Elastic Compliance Matrix: (Units=1/GPa)
#
#
# Indices 1 2 3 4 5 6 
#
# 1 0.017126 -0.002129 -0.006478 0.000000 0.000000 0.000000
# 2 -0.002129 0.011721 -0.001837 0.000000 0.000000 0.000000
# 3 -0.006478 -0.001837 0.012664 0.000000 0.000000 0.000000
# 4 0.000000 0.000000 0.000000 0.039102 0.000000 0.000000
# 5 0.000000 0.000000 0.000000 0.000000 0.026810 0.000000
# 6 0.000000 0.000000 0.000000 0.000000 0.000000 0.025588
#
#
# Mechanical properties :
#
#
# Convention : Reuss Voigt Hill
#
# Bulk Modulus (GPa) = 48.48878 49.77093 49.12986
# Shear Modulus (GPa) = 31.09947 32.85228 31.97587
#
# Velocity S-wave (km/s) = 3.69630 3.79904 3.74802
# Velocity P-wave (km/s) = 6.28642 6.41163 6.34933
#
# Compressibility (1/GPa) = 0.02062333
#
# Stress axis : x y z
#
# Youngs Moduli (GPa) = 58.39011 85.31397 78.96510
#
# Poissons Ratio (x) = 0.18164 0.51157
# Poissons Ratio (y) = 0.12432 0.14502
# Poissons Ratio (z) = 0.37827 0.15668
#
# Static dielectric constant tensor:
#      x y z
#    x 1.879540 0.000000 0.000000 
#    y 0.000000 1.963460 0.000000 
#    z 0.000000 0.000000 2.011650 
# 
# From -- ./inp_files/20521.got.cif
#   From: 2010.05.17/outbox.cif.g08.bks.cpg/sg56_11_cif.got.tgz:20521.got - 2010.06.03 13:42:01.
