data_PCOD9432393
_publ_section_title
;
Structure prediction by ZEFSAII (Michael W. Deem and Ramdas Pophale) SiO2 
 PCOD9432393
Probable space group: P C C N
;
_chemical_formula_sum "Si O2"
_cell_formula_units_Z 48
_cell_length_a 8.619672
_cell_length_b 12.748096
_cell_length_c 19.161587
_cell_angle_alpha 90.000000
_cell_angle_beta 90.000000
_cell_angle_gamma 90.000000
_cell_volume 2105.559608
_symmetry_space_group_name_H-M "P C C N"
_symmetry_group_IT_number 56
_symmetry_cell_setting 'orthorhombic'
loop_
_space_group_symop_operation_xyz
x,y,z
1/2-x,1/2-y,z
1/2+x,-y,1/2-z
-x,1/2+y,1/2-z
-x,-y,-z
1/2+x,1/2+y,-z
1/2-x,y,1/2+z
x,1/2-y,1/2+z
loop_
_atom_site_type_symbol
_atom_site_label
_atom_site_fract_x
_atom_site_fract_y
_atom_site_fract_z
Si Si1 0.335771 0.476645 0.538795
Si Si2 0.250000 0.250000 0.103898
Si Si3 0.417862 0.159864 0.729168
Si Si4 0.250000 0.250000 0.354811
Si Si5 0.831841 0.461203 0.333995
Si Si6 0.758805 0.132209 0.703766
Si Si7 0.165673 0.474117 0.404779
O O1 0.500000 0.500000 0.500000
O O2 0.300925 0.354498 0.561380
O O3 0.304048 0.544134 0.608943
O O4 0.202886 0.506854 0.483073
O O5 0.109501 0.226600 0.158608
O O6 0.381772 0.218171 0.799783
O O7 0.586940 0.113055 0.733432
O O8 0.301583 0.063612 0.714358
O O9 0.210033 0.352428 0.397955
O O10 0.858970 0.374899 0.274168
O O11 0.989386 0.482530 0.377622
O O12 0.750000 0.250000 0.675265
O O13 0.776542 0.046257 0.644052
#
# Coordination Sequence:
#
# PCOD9432393 Si02
#       7
#     8   4   8   4   8   8   8
#     4  11  25  42  69  94 134 182 232 274 333 423
#     4   9  21  44  64  94 136 178 222 280 348 396
#     4   9  20  37  67  95 124 172 209 278 330 401
#     4  11  19  38  66  94 126 162 220 262 334 390
#     4  10  22  44  62  94 135 170 219 273 341 393
#     4  11  23  39  65  99 132 165 219 276 336 410
#     4  11  24  40  67  97 131 175 216 281 332 398
#
# _framework density 22.796790000000001
#
# number of rings (size 3 to 8) (size 9 to 14) (size 15 to 20)
#    0.000    1.667    1.667    2.000    4.667    0.000 
#    3.000    0.833    0.000    0.000    0.000    0.000 
#    0.000    0.000    0.000    0.000    0.000    0.000 
#
# Total GULP energy -267576.911942 kJ/mol
# GULP energy per Si atom -5574.518999 kJ/mol
# Density = 2.274490 g / cm^3
# Si number density = 22.796790 Si / 1000 Ang^3
#
#
#
# Elastic Constant Matrix: (Units=GPa)
#
#
# Indices 1 2 3 4 5 6 
#
# 1 48.1937 -10.6147 0.1142 0.0000 0.0000 0.0000
# 2 -10.6147 76.9212 16.3422 0.0000 0.0000 0.0000
# 3 0.1142 16.3422 98.9512 0.0000 0.0000 0.0000
# 4 0.0000 0.0000 0.0000 22.0893 0.0000 0.0000
# 5 0.0000 0.0000 0.0000 0.0000 13.8786 0.0000
# 6 0.0000 0.0000 0.0000 0.0000 0.0000 27.2220
#
#
#
# Elastic Compliance Matrix: (Units=1/GPa)
#
#
# Indices 1 2 3 4 5 6 
#
# 1 0.021427 0.003070 -0.000532 0.000000 0.000000 0.000000
# 2 0.003070 0.013913 -0.002301 0.000000 0.000000 0.000000
# 3 -0.000532 -0.002301 0.010487 0.000000 0.000000 0.000000
# 4 0.000000 0.000000 0.000000 0.045271 0.000000 0.000000
# 5 0.000000 0.000000 0.000000 0.000000 0.072053 0.000000
# 6 0.000000 0.000000 0.000000 0.000000 0.000000 0.036735
#
#
# Mechanical properties :
#
#
# Convention : Reuss Voigt Hill
#
# Bulk Modulus (GPa) = 21.59827 26.19439 23.89633
# Shear Modulus (GPa) = 23.27258 27.18630 25.22944
#
# Velocity S-wave (km/s) = 3.19857 3.45708 3.33033
# Velocity P-wave (km/s) = 4.80999 5.23932 5.02924
#
# Compressibility (1/GPa) = 0.04630000
#
# Stress axis : x y z
#
# Youngs Moduli (GPa) = 46.67017 71.87603 95.35914
#
# Poissons Ratio (x) = -0.22064 0.05070
# Poissons Ratio (y) = -0.14327 0.21945
# Poissons Ratio (z) = 0.02481 0.16541
#
# Static dielectric constant tensor:
#      x y z
#    x 1.890130 0.000000 0.000000 
#    y 0.000000 2.112640 0.000000 
#    z 0.000000 0.000000 1.863120 
# 
# From -- ./inp_files/14880.got.cif
#   From: 2010.05.17/outbox.cif.g08.bks.cpg/sg56_8_cif.got.tgz:14880.got - 2010.06.03 13:42:01.
