data_PCOD9432749
_publ_section_title
;
Structure prediction by ZEFSAII (Michael W. Deem and Ramdas Pophale) SiO2 
 PCOD9432749
Probable space group: P C C N
;
_chemical_formula_sum "Si O2"
_cell_formula_units_Z 32
_cell_length_a 10.142346
_cell_length_b 12.045155
_cell_length_c 12.271652
_cell_angle_alpha 90.000000
_cell_angle_beta 90.000000
_cell_angle_gamma 90.000000
_cell_volume 1499.180229
_symmetry_space_group_name_H-M "P C C N"
_symmetry_group_IT_number 56
_symmetry_cell_setting 'orthorhombic'
loop_
_space_group_symop_operation_xyz
x,y,z
1/2-x,1/2-y,z
1/2+x,-y,1/2-z
-x,1/2+y,1/2-z
-x,-y,-z
1/2+x,1/2+y,-z
1/2-x,y,1/2+z
x,1/2-y,1/2+z
loop_
_atom_site_type_symbol
_atom_site_label
_atom_site_fract_x
_atom_site_fract_y
_atom_site_fract_z
Si Si1 0.184978 0.644835 0.880629
Si Si2 0.193129 0.419983 0.748293
Si Si3 0.615288 0.430846 0.938627
Si Si4 0.534105 0.791466 0.745643
O O1 0.250000 0.750000 0.817760
O O2 0.191865 0.523729 0.828585
O O3 0.032682 0.679569 0.862819
O O4 0.278797 0.630961 0.985281
O O5 0.188963 0.474641 0.629921
O O6 0.068174 0.338487 0.763146
O O7 0.326706 0.353084 0.762295
O O8 0.552228 0.344079 0.852062
O O9 0.500000 0.500000 0.000000
#
# Coordination Sequence:
#
# PCOD9432749 Si02
#       4
#     8   8   8   8
#     4  11  24  43  68 104 142 183 239 288 366 425
#     4  10  23  46  71 100 141 189 232 303 352 431
#     4  11  22  43  69 100 143 183 240 291 362 434
#     4  10  23  45  71  98 144 183 238 297 360 421
#
# _framework density 21.344996999999999
#
# number of rings (size 3 to 8) (size 9 to 14) (size 15 to 20)
#    0.000    1.500    2.500    1.500    3.500    5.000 
#   13.500    0.000    0.000    0.000    0.000    0.000 
#    0.000    0.000    0.000    0.000    0.000    0.000 
#
# Total GULP energy -178301.237504 kJ/mol
# GULP energy per Si atom -5571.913672 kJ/mol
# Density = 2.129642 g / cm^3
# Si number density = 21.344997 Si / 1000 Ang^3
#
#
#
# Elastic Constant Matrix: (Units=GPa)
#
#
# Indices 1 2 3 4 5 6 
#
# 1 89.8995 55.0154 55.8212 0.0000 0.0000 0.0000
# 2 55.0154 160.6720 45.0430 0.0000 0.0000 0.0000
# 3 55.8212 45.0430 92.4856 0.0000 0.0000 0.0000
# 4 0.0000 0.0000 0.0000 23.5978 0.0000 0.0000
# 5 0.0000 0.0000 0.0000 0.0000 33.6928 0.0000
# 6 0.0000 0.0000 0.0000 0.0000 0.0000 45.5222
#
#
#
# Elastic Compliance Matrix: (Units=1/GPa)
#
#
# Indices 1 2 3 4 5 6 
#
# 1 0.019753 -0.003962 -0.009992 0.000000 0.000000 0.000000
# 2 -0.003962 0.008003 -0.001506 0.000000 0.000000 0.000000
# 3 -0.009992 -0.001506 0.017577 0.000000 0.000000 0.000000
# 4 0.000000 0.000000 0.000000 0.042377 0.000000 0.000000
# 5 0.000000 0.000000 0.000000 0.000000 0.029680 0.000000
# 6 0.000000 0.000000 0.000000 0.000000 0.000000 0.021967
#
#
# Mechanical properties :
#
#
# Convention : Reuss Voigt Hill
#
# Bulk Modulus (GPa) = 69.39052 72.75736 71.07394
# Shear Modulus (GPa) = 28.55800 33.04105 30.79952
#
# Velocity S-wave (km/s) = 3.66173 3.93867 3.80272
# Velocity P-wave (km/s) = 7.10333 7.40571 7.25610
#
# Compressibility (1/GPa) = 0.01441119
#
# Stress axis : x y z
#
# Youngs Moduli (GPa) = 50.62546 124.95640 56.89212
#
# Poissons Ratio (x) = 0.49511 0.56849
# Poissons Ratio (y) = 0.20059 0.08569
# Poissons Ratio (z) = 0.50587 0.18820
#
# Static dielectric constant tensor:
#      x y z
#    x 1.834250 0.000000 0.000000 
#    y 0.000000 1.752510 0.000000 
#    z 0.000000 0.000000 1.810540 
# 
# From -- ./inp_files/10064.got.cif
#   From: 2010.05.17/outbox.cif.g08.bks.cpg/sg56_6_cif.got.tgz:10064.got - 2010.06.03 13:42:01.
