data_PCOD9432896
_publ_section_title
;
Structure prediction by ZEFSAII (Michael W. Deem and Ramdas Pophale) SiO2 
 PCOD9432896
Probable space group: P C C N
;
_chemical_formula_sum "Si O2"
_cell_formula_units_Z 48
_cell_length_a 8.487298
_cell_length_b 29.391437
_cell_length_c 8.726005
_cell_angle_alpha 90.000000
_cell_angle_beta 90.000000
_cell_angle_gamma 90.000000
_cell_volume 2176.735843
_symmetry_space_group_name_H-M "P C C N"
_symmetry_group_IT_number 56
_symmetry_cell_setting 'orthorhombic'
loop_
_space_group_symop_operation_xyz
x,y,z
1/2-x,1/2-y,z
1/2+x,-y,1/2-z
-x,1/2+y,1/2-z
-x,-y,-z
1/2+x,1/2+y,-z
1/2-x,y,1/2+z
x,1/2-y,1/2+z
loop_
_atom_site_type_symbol
_atom_site_label
_atom_site_fract_x
_atom_site_fract_y
_atom_site_fract_z
Si Si1 0.250000 0.750000 0.390183
Si Si2 0.921441 0.036904 0.700200
Si Si3 0.250000 0.250000 0.542505
Si Si4 0.847549 0.654363 0.319877
Si Si5 0.044008 0.709245 0.127710
Si Si6 0.403918 0.101286 0.376649
Si Si7 0.745468 0.513827 0.960252
O O1 0.115366 0.731723 0.279497
O O2 0.320581 0.711158 0.500150
O O3 0.940476 0.084654 0.787709
O O4 0.089909 0.027317 0.620977
O O5 0.879320 0.000562 0.832155
O O6 0.789350 0.028251 0.571875
O O7 0.219696 0.295817 0.637992
O O8 0.402746 0.260542 0.440156
O O9 0.708583 0.624629 0.248392
O O10 0.918196 0.633378 0.475000
O O11 0.972684 0.661767 0.183233
O O12 0.319677 0.055898 0.442438
#
# Coordination Sequence:
#
# PCOD9432896 Si02
#       7
#     4   8   4   8   8   8   8
#     4  10  24  42  70  98 138 176 246 294 364 424
#     4  11  23  43  73 104 136 189 233 285 366 433
#     4  12  24  42  80 100 130 192 260 276 354 430
#     4  12  25  41  71 104 141 182 243 303 344 420
#     4  11  23  43  70 102 134 187 241 295 350 428
#     4  12  24  43  68 109 145 176 239 309 348 414
#     4  11  23  43  76 102 138 189 233 289 359 449
#
# _framework density 22.051366000000002
#
# number of rings (size 3 to 8) (size 9 to 14) (size 15 to 20)
#    0.000    0.667    6.667    1.000    0.000    0.000 
#    0.000    1.667    0.000    0.000    0.000    0.000 
#    0.000    0.000    0.000    0.000    0.000    0.000 
#
# Total GULP energy -268258.215676 kJ/mol
# GULP energy per Si atom -5588.712827 kJ/mol
# Density = 2.200118 g / cm^3
# Si number density = 22.051366 Si / 1000 Ang^3
#
#
#
# Elastic Constant Matrix: (Units=GPa)
#
#
# Indices 1 2 3 4 5 6 
#
# 1 57.4528 8.7057 19.9810 0.0000 0.0000 0.0000
# 2 8.7057 38.8525 10.0131 0.0000 0.0000 0.0000
# 3 19.9810 10.0131 100.0328 0.0000 0.0000 0.0000
# 4 0.0000 0.0000 0.0000 37.3414 0.0000 0.0000
# 5 0.0000 0.0000 0.0000 0.0000 40.4772 0.0000
# 6 0.0000 0.0000 0.0000 0.0000 0.0000 31.1113
#
#
#
# Elastic Compliance Matrix: (Units=1/GPa)
#
#
# Indices 1 2 3 4 5 6 
#
# 1 0.019130 -0.003389 -0.003482 0.000000 0.000000 0.000000
# 2 -0.003389 0.027020 -0.002028 0.000000 0.000000 0.000000
# 3 -0.003482 -0.002028 0.010895 0.000000 0.000000 0.000000
# 4 0.000000 0.000000 0.000000 0.026780 0.000000 0.000000
# 5 0.000000 0.000000 0.000000 0.000000 0.024705 0.000000
# 6 0.000000 0.000000 0.000000 0.000000 0.000000 0.032143
#
#
# Mechanical properties :
#
#
# Convention : Reuss Voigt Hill
#
# Bulk Modulus (GPa) = 25.47893 30.41532 27.94713
# Shear Modulus (GPa) = 29.14539 32.29519 30.72029
#
# Velocity S-wave (km/s) = 3.63947 3.83109 3.73651
# Velocity P-wave (km/s) = 5.40744 5.77863 5.59611
#
# Compressibility (1/GPa) = 0.03924811
#
# Stress axis : x y z
#
# Youngs Moduli (GPa) = 52.27372 37.00913 91.78370
#
# Poissons Ratio (x) = 0.12543 0.31958
# Poissons Ratio (y) = 0.17716 0.18611
# Poissons Ratio (z) = 0.18201 0.07504
#
# Static dielectric constant tensor:
#      x y z
#    x 1.851760 0.000000 0.000000 
#    y 0.000000 1.835320 0.000000 
#    z 0.000000 0.000000 1.845620 
# 
# From -- ./inp_files/2288.got.cif
#   From: 2010.05.17/outbox.cif.g08.bks.cpg/sg56_2_cif.got.tgz:2288.got - 2010.06.03 13:42:01.
