data_PCOD9432791
_publ_section_title
;
Structure prediction by ZEFSAII (Michael W. Deem and Ramdas Pophale) SiO2 
 PCOD9432791
Probable space group: P C C N
;
_chemical_formula_sum "Si O2"
_cell_formula_units_Z 32
_cell_length_a 9.436398
_cell_length_b 7.833315
_cell_length_c 18.016468
_cell_angle_alpha 90.000000
_cell_angle_beta 90.000000
_cell_angle_gamma 90.000000
_cell_volume 1331.746290
_symmetry_space_group_name_H-M "P C C N"
_symmetry_group_IT_number 56
_symmetry_cell_setting 'orthorhombic'
loop_
_space_group_symop_operation_xyz
x,y,z
1/2-x,1/2-y,z
1/2+x,-y,1/2-z
-x,1/2+y,1/2-z
-x,-y,-z
1/2+x,1/2+y,-z
1/2-x,y,1/2+z
x,1/2-y,1/2+z
loop_
_atom_site_type_symbol
_atom_site_label
_atom_site_fract_x
_atom_site_fract_y
_atom_site_fract_z
Si Si1 0.402036 0.902269 0.182574
Si Si2 0.272456 0.437952 0.309260
Si Si3 0.864265 0.109154 0.072072
Si Si4 0.136395 0.955438 0.101536
O O1 0.560569 0.971112 0.188170
O O2 0.297492 0.993367 0.123460
O O3 0.406187 0.705003 0.154447
O O4 0.320047 0.934100 0.259465
O O5 0.250000 0.250000 0.276440
O O6 0.206239 0.442101 0.391550
O O7 0.750000 0.250000 0.094183
O O8 0.871890 0.105982 0.983476
O O9 0.022584 0.107163 0.105158
#
# Coordination Sequence:
#
# PCOD9432791 Si02
#       4
#     8   8   8   8
#     4  11  24  46  71 104 154 198 255 326 385 473
#     4  12  27  43  74 114 149 200 262 319 394 460
#     4  11  23  45  78 108 144 206 252 325 389 463
#     4  10  23  47  72 106 154 199 259 316 394 463
#
# _framework density 24.028600000000001
#
# number of rings (size 3 to 8) (size 9 to 14) (size 15 to 20)
#    0.000    1.000    5.000    1.500    7.000    3.000 
#    0.000    1.250    0.000    0.000    0.000    0.000 
#    0.000    0.000    0.000    0.000    0.000    0.000 
#
# Total GULP energy -178746.668456 kJ/mol
# GULP energy per Si atom -5585.833389 kJ/mol
# Density = 2.397391 g / cm^3
# Si number density = 24.028600 Si / 1000 Ang^3
#
#
#
# Elastic Constant Matrix: (Units=GPa)
#
#
# Indices 1 2 3 4 5 6 
#
# 1 216.4631 33.7728 27.3338 0.0000 0.0000 0.0000
# 2 33.7728 71.2285 32.0483 0.0000 0.0000 0.0000
# 3 27.3338 32.0483 98.3916 0.0000 0.0000 0.0000
# 4 0.0000 0.0000 0.0000 22.7013 0.0000 0.0000
# 5 0.0000 0.0000 0.0000 0.0000 30.0922 0.0000
# 6 0.0000 0.0000 0.0000 0.0000 0.0000 51.2775
#
#
#
# Elastic Compliance Matrix: (Units=1/GPa)
#
#
# Indices 1 2 3 4 5 6 
#
# 1 0.005033 -0.002059 -0.000727 0.000000 0.000000 0.000000
# 2 -0.002059 0.017293 -0.005061 0.000000 0.000000 0.000000
# 3 -0.000727 -0.005061 0.012014 0.000000 0.000000 0.000000
# 4 0.000000 0.000000 0.000000 0.044050 0.000000 0.000000
# 5 0.000000 0.000000 0.000000 0.000000 0.033231 0.000000
# 6 0.000000 0.000000 0.000000 0.000000 0.000000 0.019502
#
#
# Mechanical properties :
#
#
# Convention : Reuss Voigt Hill
#
# Bulk Modulus (GPa) = 53.63315 63.59924 58.61620
# Shear Modulus (GPa) = 32.67299 40.34275 36.50787
#
# Velocity S-wave (km/s) = 3.69148 4.10194 3.90211
# Velocity P-wave (km/s) = 6.36698 6.99715 6.68949
#
# Compressibility (1/GPa) = 0.01864519
#
# Stress axis : x y z
#
# Youngs Moduli (GPa) = 198.69521 57.82848 83.23688
#
# Poissons Ratio (x) = 0.11907 0.06055
# Poissons Ratio (y) = 0.40911 0.42123
# Poissons Ratio (z) = 0.14455 0.29264
#
# Static dielectric constant tensor:
#      x y z
#    x 1.941320 0.000000 0.000000 
#    y 0.000000 2.003050 0.000000 
#    z 0.000000 0.000000 1.925500 
# 
# From -- ./inp_files/17796.got.cif
#   From: 2010.05.17/outbox.cif.g08.bks.cpg/sg56_9_cif.got.tgz:17796.got - 2010.06.03 13:42:01.
