data_PCOD9432981
_publ_section_title
;
Structure prediction by ZEFSAII (Michael W. Deem and Ramdas Pophale) SiO2 
 PCOD9432981
Probable space group: P C C N
;
_chemical_formula_sum "Si O2"
_cell_formula_units_Z 60
_cell_length_a 19.112811
_cell_length_b 6.611273
_cell_length_c 23.580427
_cell_angle_alpha 90.000000
_cell_angle_beta 90.000000
_cell_angle_gamma 90.000000
_cell_volume 2979.623023
_symmetry_space_group_name_H-M "P C C N"
_symmetry_group_IT_number 56
_symmetry_cell_setting 'orthorhombic'
loop_
_space_group_symop_operation_xyz
x,y,z
1/2-x,1/2-y,z
1/2+x,-y,1/2-z
-x,1/2+y,1/2-z
-x,-y,-z
1/2+x,1/2+y,-z
1/2-x,y,1/2+z
x,1/2-y,1/2+z
loop_
_atom_site_type_symbol
_atom_site_label
_atom_site_fract_x
_atom_site_fract_y
_atom_site_fract_z
Si Si1 0.183838 0.368772 0.615159
Si Si2 0.434725 0.864688 0.568992
Si Si3 0.082644 0.928838 0.940266
Si Si4 0.918405 0.097086 0.645430
Si Si5 0.750000 0.250000 0.815281
Si Si6 0.168367 0.193196 0.868421
Si Si7 0.576888 0.522971 0.348974
Si Si8 0.126611 0.602841 0.264707
O O1 0.250000 0.250000 0.589701
O O2 0.126393 0.471315 0.575890
O O3 0.216415 0.559463 0.650469
O O4 0.137490 0.192436 0.645537
O O5 0.434789 0.834344 0.501348
O O6 0.415030 0.675388 0.610040
O O7 0.511029 0.961480 0.582244
O O8 0.109841 0.745165 0.902499
O O9 0.142758 0.094162 0.927802
O O10 0.902616 0.198500 0.705374
O O11 0.000721 0.097991 0.633959
O O12 0.880442 0.886193 0.641055
O O13 0.808389 0.342303 0.774733
O O14 0.250000 0.250000 0.868195
O O15 0.149895 0.047589 0.814864
O O16 0.572186 0.474666 0.282067
#
# Coordination Sequence:
#
# PCOD9432981 Si02
#       8
#     8   8   8   8   4   8   8   8
#     4  12  24  42  67 102 137 177 221 284 350 420
#     4  11  23  45  70  99 139 177 236 295 350 415
#     4  10  24  45  70  99 133 183 237 291 348 413
#     4  11  25  43  66 100 137 180 235 279 345 408
#     4  12  24  44  66  96 140 178 222 272 344 422
#     4  11  25  45  68 100 140 185 231 281 349 424
#     4  12  25  40  69 101 139 178 233 289 348 420
#     4  11  26  38  65  98 136 181 216 282 339 420
#
# _framework density 20.136775
#
# number of rings (size 3 to 8) (size 9 to 14) (size 15 to 20)
#    0.000    0.800    5.333    0.800    5.600    3.733 
#    0.000    2.667    0.000    0.000    0.000    0.000 
#    0.000    0.000    0.000    0.000    0.000    0.000 
#
# Total GULP energy -334281.154738 kJ/mol
# GULP energy per Si atom -5571.352579 kJ/mol
# Density = 2.009094 g / cm^3
# Si number density = 20.136775 Si / 1000 Ang^3
#
#
#
# Elastic Constant Matrix: (Units=GPa)
#
#
# Indices 1 2 3 4 5 6 
#
# 1 84.8794 38.9862 7.7006 0.0000 0.0000 0.0000
# 2 38.9862 63.8321 12.3002 0.0000 0.0000 0.0000
# 3 7.7006 12.3002 42.0484 0.0000 0.0000 0.0000
# 4 0.0000 0.0000 0.0000 12.0071 0.0000 0.0000
# 5 0.0000 0.0000 0.0000 0.0000 14.8126 0.0000
# 6 0.0000 0.0000 0.0000 0.0000 0.0000 36.7108
#
#
#
# Elastic Compliance Matrix: (Units=1/GPa)
#
#
# Indices 1 2 3 4 5 6 
#
# 1 0.016375 -0.009987 -0.000078 0.000000 0.000000 0.000000
# 2 -0.009987 0.022692 -0.004809 0.000000 0.000000 0.000000
# 3 -0.000078 -0.004809 0.025203 0.000000 0.000000 0.000000
# 4 0.000000 0.000000 0.000000 0.083284 0.000000 0.000000
# 5 0.000000 0.000000 0.000000 0.000000 0.067510 0.000000
# 6 0.000000 0.000000 0.000000 0.000000 0.000000 0.027240
#
#
# Mechanical properties :
#
#
# Convention : Reuss Voigt Hill
#
# Bulk Modulus (GPa) = 28.96522 34.30378 31.63450
# Shear Modulus (GPa) = 17.63296 21.49093 19.56195
#
# Velocity S-wave (km/s) = 2.96237 3.27042 3.12020
# Velocity P-wave (km/s) = 5.11041 5.59761 5.35955
#
# Compressibility (1/GPa) = 0.03452417
#
# Stress axis : x y z
#
# Youngs Moduli (GPa) = 61.06720 44.06804 39.67758
#
# Poissons Ratio (x) = 0.44009 0.00308
# Poissons Ratio (y) = 0.60985 0.19081
# Poissons Ratio (z) = 0.00474 0.21193
#
# Static dielectric constant tensor:
#      x y z
#    x 1.772210 0.000000 0.000000 
#    y 0.000000 1.909140 0.000000 
#    z 0.000000 0.000000 1.716550 
# 
# From -- ./inp_files/21330.got.cif
#   From: 2010.05.17/outbox.cif.g08.bks.cpg/sg56_11_cif.got.tgz:21330.got - 2010.06.03 13:42:01.
