data_PCOD9432211
_publ_section_title
;
Structure prediction by ZEFSAII (Michael W. Deem and Ramdas Pophale) SiO2 
 PCOD9432211
Probable space group: P C C N
;
_chemical_formula_sum "Si O2"
_cell_formula_units_Z 52
_cell_length_a 8.200716
_cell_length_b 23.531075
_cell_length_c 10.252448
_cell_angle_alpha 90.000000
_cell_angle_beta 90.000000
_cell_angle_gamma 90.000000
_cell_volume 1978.431943
_symmetry_space_group_name_H-M "P C C N"
_symmetry_group_IT_number 56
_symmetry_cell_setting 'orthorhombic'
loop_
_space_group_symop_operation_xyz
x,y,z
1/2-x,1/2-y,z
1/2+x,-y,1/2-z
-x,1/2+y,1/2-z
-x,-y,-z
1/2+x,1/2+y,-z
1/2-x,y,1/2+z
x,1/2-y,1/2+z
loop_
_atom_site_type_symbol
_atom_site_label
_atom_site_fract_x
_atom_site_fract_y
_atom_site_fract_z
Si Si1 0.896636 0.417642 0.971255
Si Si2 0.889055 0.566267 0.288131
Si Si3 0.789206 0.027153 0.150173
Si Si4 0.863982 0.367872 0.307679
Si Si5 0.750000 0.250000 0.867774
Si Si6 0.789872 0.826128 0.238425
Si Si7 0.560125 0.698186 0.492507
O O1 0.831070 0.477167 0.027142
O O2 0.725004 0.386198 0.940191
O O3 0.995511 0.427944 0.839031
O O4 0.003298 0.367072 0.032829
O O5 0.743409 0.524829 0.246582
O O6 0.824345 0.628863 0.315596
O O7 0.022324 0.537632 0.380938
O O8 0.699512 0.083333 0.210500
O O9 0.788338 0.305562 0.281780
O O10 0.055917 0.360482 0.320154
O O11 0.591729 0.235336 0.956102
O O12 0.871095 0.786380 0.349842
O O13 0.686009 0.804357 0.114452
#
# Coordination Sequence:
#
# PCOD9432211 Si02
#       7
#     8   8   8   8   4   8   8
#     4   9  20  40  64  96 137 196 230 303 345 450
#     4  10  23  37  64 100 144 185 244 286 374 426
#     4  11  20  40  64  98 140 192 236 300 359 446
#     4  10  22  41  68  97 139 177 247 289 372 423
#     4  10  24  50  70 104 132 200 232 308 372 448
#     4  11  23  45  70 111 144 189 234 319 347 448
#     4  10  23  45  77 101 150 183 248 295 373 425
#
# _framework density 26.283443999999999
#
# number of rings (size 3 to 8) (size 9 to 14) (size 15 to 20)
#    0.000    1.846    1.538    2.308    2.154    1.231 
#    2.769    5.385    0.000    0.923    0.000    0.000 
#    0.000    0.000    0.000    0.000    0.000    0.000 
#
# Total GULP energy -290294.263223 kJ/mol
# GULP energy per Si atom -5582.581985 kJ/mol
# Density = 2.622362 g / cm^3
# Si number density = 26.283444 Si / 1000 Ang^3
#
#
#
# Elastic Constant Matrix: (Units=GPa)
#
#
# Indices 1 2 3 4 5 6 
#
# 1 154.7895 8.5670 22.2059 0.0000 0.0000 0.0000
# 2 8.5670 67.6456 -6.7733 0.0000 0.0000 0.0000
# 3 22.2059 -6.7733 51.7697 0.0000 0.0000 0.0000
# 4 0.0000 0.0000 0.0000 14.0795 0.0000 0.0000
# 5 0.0000 0.0000 0.0000 0.0000 39.8009 0.0000
# 6 0.0000 0.0000 0.0000 0.0000 0.0000 38.6224
#
#
#
# Elastic Compliance Matrix: (Units=1/GPa)
#
#
# Indices 1 2 3 4 5 6 
#
# 1 0.006979 -0.001199 -0.003150 0.000000 0.000000 0.000000
# 2 -0.001199 0.015185 0.002501 0.000000 0.000000 0.000000
# 3 -0.003150 0.002501 0.020995 0.000000 0.000000 0.000000
# 4 0.000000 0.000000 0.000000 0.071025 0.000000 0.000000
# 5 0.000000 0.000000 0.000000 0.000000 0.025125 0.000000
# 6 0.000000 0.000000 0.000000 0.000000 0.000000 0.025892
#
#
# Mechanical properties :
#
#
# Convention : Reuss Voigt Hill
#
# Bulk Modulus (GPa) = 25.34086 35.80045 30.57065
# Shear Modulus (GPa) = 27.46472 35.18090 31.32281
#
# Velocity S-wave (km/s) = 3.23607 3.66255 3.45589
# Velocity P-wave (km/s) = 4.86057 5.61571 5.25173
#
# Compressibility (1/GPa) = 0.03946197
#
# Stress axis : x y z
#
# Youngs Moduli (GPa) = 143.29313 65.85335 47.63076
#
# Poissons Ratio (x) = 0.07898 0.15005
# Poissons Ratio (y) = 0.17185 -0.11913
# Poissons Ratio (z) = 0.45142 -0.16471
#
# Static dielectric constant tensor:
#      x y z
#    x 2.166430 0.000000 0.000000 
#    y 0.000000 2.157770 0.000000 
#    z 0.000000 0.000000 2.385250 
# 
# From -- ./inp_files/6574.got.cif
#   From: 2010.05.17/outbox.cif.g08.bks.cpg/sg56_4_cif.got.tgz:6574.got - 2010.06.03 13:42:01.
