data_PCOD9432127
_publ_section_title
;
Structure prediction by ZEFSAII (Michael W. Deem and Ramdas Pophale) SiO2 
 PCOD9432127
Probable space group: P C C N
;
_chemical_formula_sum "Si O2"
_cell_formula_units_Z 64
_cell_length_a 5.205836
_cell_length_b 18.352897
_cell_length_c 30.036796
_cell_angle_alpha 90.000000
_cell_angle_beta 90.000000
_cell_angle_gamma 90.000000
_cell_volume 2869.780727
_symmetry_space_group_name_H-M "P C C N"
_symmetry_group_IT_number 56
_symmetry_cell_setting 'orthorhombic'
loop_
_space_group_symop_operation_xyz
x,y,z
1/2-x,1/2-y,z
1/2+x,-y,1/2-z
-x,1/2+y,1/2-z
-x,-y,-z
1/2+x,1/2+y,-z
1/2-x,y,1/2+z
x,1/2-y,1/2+z
loop_
_atom_site_type_symbol
_atom_site_label
_atom_site_fract_x
_atom_site_fract_y
_atom_site_fract_z
Si Si1 0.249640 0.053748 0.051386
Si Si2 0.072248 0.047161 0.644810
Si Si3 0.171446 0.103061 0.360100
Si Si4 0.758347 0.399166 0.214689
Si Si5 0.494282 0.792193 0.062513
Si Si6 0.499178 0.699555 0.722279
Si Si7 0.737312 0.406850 0.999783
Si Si8 0.544609 0.044329 0.300780
O O1 0.248248 0.068702 0.103962
O O2 0.535783 0.068571 0.033067
O O3 0.031320 0.099053 0.025574
O O4 0.195837 0.969707 0.037631
O O5 0.906817 0.110059 0.668404
O O6 0.224821 0.007380 0.684434
O O7 0.909064 0.978741 0.626632
O O8 0.115252 0.154698 0.400721
O O9 0.461322 0.091956 0.343208
O O10 0.034130 0.138554 0.316507
O O11 0.544470 0.342157 0.230473
O O12 0.664039 0.482801 0.210883
O O13 0.930208 0.403285 0.258976
O O14 0.750000 0.750000 0.046361
O O15 0.250000 0.750000 0.083838
O O16 0.349576 0.836312 0.023975
O O17 0.250000 0.750000 0.714341
O O18 0.750000 0.750000 0.722015
#
# Coordination Sequence:
#
# PCOD9432127 Si02
#       8
#     8   8   8   8   8   8   8   8
#     4  10  22  40  67  96 130 170 216 291 343 400
#     4  11  23  37  68  98 134 174 220 301 348 391
#     4  11  24  39  60 100 139 177 231 270 345 418
#     4  11  22  39  60  97 130 183 235 283 349 396
#     4  12  26  42  68 100 143 187 223 265 330 435
#     4  12  26  42  62  87 135 195 236 277 326 409
#     4  10  22  42  64  96 136 170 220 268 347 410
#     4  11  21  37  67  93 141 173 220 296 343 393
#
# _framework density 22.301352999999999
#
# number of rings (size 3 to 8) (size 9 to 14) (size 15 to 20)
#    0.000    1.000    3.750    3.000    7.000    1.000 
#    0.000    0.000    0.000    0.750    3.250    0.000 
#    0.000    0.000    0.000    0.000    0.000    0.000 
#
# Total GULP energy -357319.623096 kJ/mol
# GULP energy per Si atom -5583.119111 kJ/mol
# Density = 2.225059 g / cm^3
# Si number density = 22.301353 Si / 1000 Ang^3
#
#
#
# Elastic Constant Matrix: (Units=GPa)
#
#
# Indices 1 2 3 4 5 6 
#
# 1 105.0947 20.2963 26.3705 0.0000 0.0000 0.0000
# 2 20.2963 47.4043 20.9687 0.0000 0.0000 0.0000
# 3 26.3705 20.9687 94.9332 0.0000 0.0000 0.0000
# 4 0.0000 0.0000 0.0000 17.8652 0.0000 0.0000
# 5 0.0000 0.0000 0.0000 0.0000 30.6193 0.0000
# 6 0.0000 0.0000 0.0000 0.0000 0.0000 33.1756
#
#
#
# Elastic Compliance Matrix: (Units=1/GPa)
#
#
# Indices 1 2 3 4 5 6 
#
# 1 0.010767 -0.003643 -0.002186 0.000000 0.000000 0.000000
# 2 -0.003643 0.024612 -0.004424 0.000000 0.000000 0.000000
# 3 -0.002186 -0.004424 0.012118 0.000000 0.000000 0.000000
# 4 0.000000 0.000000 0.000000 0.055975 0.000000 0.000000
# 5 0.000000 0.000000 0.000000 0.000000 0.032659 0.000000
# 6 0.000000 0.000000 0.000000 0.000000 0.000000 0.030143
#
#
# Mechanical properties :
#
#
# Convention : Reuss Voigt Hill
#
# Bulk Modulus (GPa) = 37.05024 42.52259 39.78641
# Shear Modulus (GPa) = 25.53912 28.31846 26.92879
#
# Velocity S-wave (km/s) = 3.38773 3.56730 3.47867
# Velocity P-wave (km/s) = 5.65259 6.00635 5.83215
#
# Compressibility (1/GPa) = 0.02699038
#
# Stress axis : x y z
#
# Youngs Moduli (GPa) = 92.87318 40.63066 82.52008
#
# Poissons Ratio (x) = 0.14802 0.18041
# Poissons Ratio (y) = 0.33834 0.36509
# Poissons Ratio (z) = 0.20305 0.17976
#
# Static dielectric constant tensor:
#      x y z
#    x 1.940040 0.000000 0.000000 
#    y 0.000000 1.850240 0.000000 
#    z 0.000000 0.000000 1.849380 
# 
# From -- ./inp_files/22986.got.cif
#   From: 2010.05.17/outbox.cif.g08.bks.cpg/sg56_12_cif.got.tgz:22986.got - 2010.06.03 13:42:01.
