data_PCOD9432828
_publ_section_title
;
Structure prediction by ZEFSAII (Michael W. Deem and Ramdas Pophale) SiO2 
 PCOD9432828
Probable space group: P C C N
;
_chemical_formula_sum "Si O2"
_cell_formula_units_Z 40
_cell_length_a 12.275699
_cell_length_b 15.965284
_cell_length_c 9.709806
_cell_angle_alpha 90.000000
_cell_angle_beta 90.000000
_cell_angle_gamma 90.000000
_cell_volume 1902.976531
_symmetry_space_group_name_H-M "P C C N"
_symmetry_group_IT_number 56
_symmetry_cell_setting 'orthorhombic'
loop_
_space_group_symop_operation_xyz
x,y,z
1/2-x,1/2-y,z
1/2+x,-y,1/2-z
-x,1/2+y,1/2-z
-x,-y,-z
1/2+x,1/2+y,-z
1/2-x,y,1/2+z
x,1/2-y,1/2+z
loop_
_atom_site_type_symbol
_atom_site_label
_atom_site_fract_x
_atom_site_fract_y
_atom_site_fract_z
Si Si1 0.622631 0.248127 0.972579
Si Si2 0.340104 0.493735 0.094959
Si Si3 0.408196 0.487244 0.614749
Si Si4 0.947963 0.405343 0.646007
Si Si5 0.934070 0.140625 0.725451
O O1 0.750000 0.250000 0.937750
O O2 0.591011 0.320230 0.081287
O O3 0.601034 0.168513 0.071964
O O4 0.562820 0.281588 0.833524
O O5 0.215272 0.470756 0.072841
O O6 0.422105 0.420432 0.142262
O O7 0.355454 0.570335 0.204595
O O8 0.390945 0.526769 0.953262
O O9 0.500000 0.500000 0.500000
O O10 0.408358 0.572594 0.703002
O O11 0.453365 0.410269 0.707461
#
# Coordination Sequence:
#
# PCOD9432828 Si02
#       5
#     8   8   8   8   8
#     4  11  22  39  64  92 136 169 216 271 335 394
#     4   9  20  42  63  89 132 165 223 277 322 392
#     4  11  24  37  65  98 129 174 233 270 331 395
#     4   9  21  39  63  92 126 173 213 274 333 383
#     4  10  24  39  62 101 124 176 214 272 336 395
#
# _framework density 21.019701999999999
#
# number of rings (size 3 to 8) (size 9 to 14) (size 15 to 20)
#    0.000    2.000    0.000    3.000   14.000    0.000 
#    0.000    1.000    0.000    7.200    0.000    0.000 
#    0.000    0.000    0.000    0.000    0.000    0.000 
#
# Total GULP energy -223060.118701 kJ/mol
# GULP energy per Si atom -5576.502968 kJ/mol
# Density = 2.097186 g / cm^3
# Si number density = 21.019702 Si / 1000 Ang^3
#
#
#
# Elastic Constant Matrix: (Units=GPa)
#
#
# Indices 1 2 3 4 5 6 
#
# 1 167.8890 22.9710 31.5214 0.0000 0.0000 0.0000
# 2 22.9710 38.7337 27.7936 0.0000 0.0000 0.0000
# 3 31.5214 27.7936 113.8968 0.0000 0.0000 0.0000
# 4 0.0000 0.0000 0.0000 23.1300 0.0000 0.0000
# 5 0.0000 0.0000 0.0000 0.0000 17.1279 0.0000
# 6 0.0000 0.0000 0.0000 0.0000 0.0000 11.0634
#
#
#
# Elastic Compliance Matrix: (Units=1/GPa)
#
#
# Indices 1 2 3 4 5 6 
#
# 1 0.006585 -0.003149 -0.001054 0.000000 0.000000 0.000000
# 2 -0.003149 0.032803 -0.007133 0.000000 0.000000 0.000000
# 3 -0.001054 -0.007133 0.010812 0.000000 0.000000 0.000000
# 4 0.000000 0.000000 0.000000 0.043234 0.000000 0.000000
# 5 0.000000 0.000000 0.000000 0.000000 0.058384 0.000000
# 6 0.000000 0.000000 0.000000 0.000000 0.000000 0.090388
#
#
# Mechanical properties :
#
#
# Convention : Reuss Voigt Hill
#
# Bulk Modulus (GPa) = 36.32655 53.89907 45.11281
# Shear Modulus (GPa) = 18.24451 26.14652 22.19551
#
# Velocity S-wave (km/s) = 2.94933 3.53073 3.25305
# Velocity P-wave (km/s) = 5.37752 6.50532 5.96812
#
# Compressibility (1/GPa) = 0.02752808
#
# Stress axis : x y z
#
# Youngs Moduli (GPa) = 151.85898 30.48473 92.48738
#
# Poissons Ratio (x) = 0.09599 0.09748
# Poissons Ratio (y) = 0.47820 0.65974
# Poissons Ratio (z) = 0.16006 0.21746
#
# Static dielectric constant tensor:
#      x y z
#    x 1.708010 0.000000 0.000000 
#    y 0.000000 1.847360 0.000000 
#    z 0.000000 0.000000 1.825090 
# 
# From -- ./inp_files/2584.got.cif
#   From: 2010.05.17/outbox.cif.g08.bks.cpg/sg56_2_cif.got.tgz:2584.got - 2010.06.03 13:42:01.
