data_PCOD9432019
_publ_section_title
;
Structure prediction by ZEFSAII (Michael W. Deem and Ramdas Pophale) SiO2 
 PCOD9432019
Probable space group: P C C N
;
_chemical_formula_sum "Si O2"
_cell_formula_units_Z 48
_cell_length_a 26.108484
_cell_length_b 4.973603
_cell_length_c 16.281213
_cell_angle_alpha 90.000000
_cell_angle_beta 90.000000
_cell_angle_gamma 90.000000
_cell_volume 2114.168167
_symmetry_space_group_name_H-M "P C C N"
_symmetry_group_IT_number 56
_symmetry_cell_setting 'orthorhombic'
loop_
_space_group_symop_operation_xyz
x,y,z
1/2-x,1/2-y,z
1/2+x,-y,1/2-z
-x,1/2+y,1/2-z
-x,-y,-z
1/2+x,1/2+y,-z
1/2-x,y,1/2+z
x,1/2-y,1/2+z
loop_
_atom_site_type_symbol
_atom_site_label
_atom_site_fract_x
_atom_site_fract_y
_atom_site_fract_z
Si Si1 0.857989 0.669269 0.573372
Si Si2 0.805801 0.172571 0.515507
Si Si3 0.475107 0.169264 0.212098
Si Si4 0.140556 0.081261 0.744093
Si Si5 0.648509 0.416064 0.858613
Si Si6 0.949285 0.616966 0.457389
O O1 0.847490 0.351366 0.563846
O O2 0.846988 0.709913 0.668733
O O3 0.912810 0.726877 0.530655
O O4 0.819090 0.861085 0.524194
O O5 0.750000 0.250000 0.546690
O O6 0.813343 0.292124 0.424883
O O7 0.484870 0.461052 0.250893
O O8 0.420656 0.074762 0.243709
O O9 0.470644 0.185699 0.113589
O O10 0.157911 0.282916 0.672077
O O11 0.153904 0.779748 0.719109
O O12 0.591897 0.432856 0.903952
O O13 0.000000 0.500000 0.500000
#
# Coordination Sequence:
#
# PCOD9432019 Si02
#       6
#     8   8   8   8   8   8
#     4  11  24  41  66  94 126 163 207 261 315 372
#     4  11  23  44  67  92 122 160 205 259 318 377
#     4  11  22  36  55  82 118 162 206 245 292 352
#     4  11  22  41  60  87 126 161 202 257 309 365
#     4  10  22  41  64  89 123 163 206 253 310 376
#     4  10  22  39  61  92 126 167 212 255 308 372
#
# _framework density 22.703966999999999
#
# number of rings (size 3 to 8) (size 9 to 14) (size 15 to 20)
#    0.000    1.333    0.000    7.500    0.000    4.000 
#    0.000   20.000    0.000    0.000    0.000    0.000 
#    0.000    0.000    0.000    0.000    0.000    0.000 
#
# Total GULP energy -267725.505984 kJ/mol
# GULP energy per Si atom -5577.614708 kJ/mol
# Density = 2.265229 g / cm^3
# Si number density = 22.703967 Si / 1000 Ang^3
#
#
#
# Elastic Constant Matrix: (Units=GPa)
#
#
# Indices 1 2 3 4 5 6 
#
# 1 18.0813 -7.3917 -12.9549 0.0000 0.0000 0.0000
# 2 -7.3917 82.0031 8.8298 0.0000 0.0000 0.0000
# 3 -12.9549 8.8298 85.2693 0.0000 0.0000 0.0000
# 4 0.0000 0.0000 0.0000 4.7400 0.0000 0.0000
# 5 0.0000 0.0000 0.0000 0.0000 6.8910 0.0000
# 6 0.0000 0.0000 0.0000 0.0000 0.0000 21.4806
#
#
#
# Elastic Compliance Matrix: (Units=1/GPa)
#
#
# Indices 1 2 3 4 5 6 
#
# 1 0.063850 0.004764 0.009207 0.000000 0.000000 0.000000
# 2 0.004764 0.012688 -0.000590 0.000000 0.000000 0.000000
# 3 0.009207 -0.000590 0.013188 0.000000 0.000000 0.000000
# 4 0.000000 0.000000 0.000000 0.210971 0.000000 0.000000
# 5 0.000000 0.000000 0.000000 0.000000 0.145117 0.000000
# 6 0.000000 0.000000 0.000000 0.000000 0.000000 0.046554
#
#
# Mechanical properties :
#
#
# Convention : Reuss Voigt Hill
#
# Bulk Modulus (GPa) = 8.58456 18.03556 13.31006
# Shear Modulus (GPa) = 9.91210 19.74702 14.82956
#
# Velocity S-wave (km/s) = 2.09172 2.95237 2.55849
# Velocity P-wave (km/s) = 3.10210 4.42527 3.82139
#
# Compressibility (1/GPa) = 0.11648818
#
# Stress axis : x y z
#
# Youngs Moduli (GPa) = 15.66165 78.81706 75.82921
#
# Poissons Ratio (x) = -0.37548 -0.69819
# Poissons Ratio (y) = -0.07461 0.04474
# Poissons Ratio (z) = -0.14420 0.04650
#
# Static dielectric constant tensor:
#      x y z
#    x 1.951380 0.000000 0.000000 
#    y 0.000000 1.831480 0.000000 
#    z 0.000000 0.000000 1.995990 
# 
# From -- ./inp_files/13370.got.cif
#   From: 2010.05.17/outbox.cif.g08.bks.cpg/sg56_7_cif.got.tgz:13370.got - 2010.06.03 13:42:01.
