data_PCOD9432756
_publ_section_title
;
Structure prediction by ZEFSAII (Michael W. Deem and Ramdas Pophale) SiO2 
 PCOD9432756
Probable space group: P C C N
;
_chemical_formula_sum "Si O2"
_cell_formula_units_Z 40
_cell_length_a 8.332534
_cell_length_b 8.220701
_cell_length_c 23.073663
_cell_angle_alpha 90.000000
_cell_angle_beta 90.000000
_cell_angle_gamma 90.000000
_cell_volume 1580.529085
_symmetry_space_group_name_H-M "P C C N"
_symmetry_group_IT_number 56
_symmetry_cell_setting 'orthorhombic'
loop_
_space_group_symop_operation_xyz
x,y,z
1/2-x,1/2-y,z
1/2+x,-y,1/2-z
-x,1/2+y,1/2-z
-x,-y,-z
1/2+x,1/2+y,-z
1/2-x,y,1/2+z
x,1/2-y,1/2+z
loop_
_atom_site_type_symbol
_atom_site_label
_atom_site_fract_x
_atom_site_fract_y
_atom_site_fract_z
Si Si1 0.083757 0.181715 0.932576
Si Si2 0.173691 0.564191 0.211495
Si Si3 0.750000 0.750000 0.459366
Si Si4 0.750000 0.250000 0.114573
Si Si5 0.499133 0.544989 0.828058
Si Si6 0.497999 0.489882 0.596482
O O1 0.250000 0.250000 0.904206
O O2 0.980436 0.345376 0.940293
O O3 0.006882 0.064092 0.885973
O O4 0.140873 0.139716 0.997325
O O5 0.250000 0.750000 0.215035
O O6 0.319817 0.450664 0.192014
O O7 0.102290 0.497078 0.271346
O O8 0.037554 0.551341 0.161953
O O9 0.635531 0.637201 0.422692
O O10 0.596592 0.295855 0.152851
O O11 0.673008 0.092653 0.084482
#
# Coordination Sequence:
#
# PCOD9432756 Si02
#       6
#     8   8   4   4   8   8
#     4  10  23  45  77  98 152 194 243 299 369 435
#     4  12  27  46  78 108 150 187 244 304 374 449
#     4  10  24  46  76 110 146 198 248 316 354 436
#     4  12  24  44  70 106 150 192 240 306 366 442
#     4  12  25  46  70 113 142 195 239 302 380 440
#     4  12  24  48  73 110 149 192 254 300 371 443
#
# _framework density 25.307981000000002
#
# number of rings (size 3 to 8) (size 9 to 14) (size 15 to 20)
#    0.600    0.000    5.000    3.000    0.000    0.000 
#    1.800   11.000    2.200    0.000    0.000    0.000 
#    0.000    0.000    0.000    0.000    0.000    0.000 
#
# Total GULP energy -223426.480043 kJ/mol
# GULP energy per Si atom -5585.662001 kJ/mol
# Density = 2.525038 g / cm^3
# Si number density = 25.307981 Si / 1000 Ang^3
#
#
#
# Elastic Constant Matrix: (Units=GPa)
#
#
# Indices 1 2 3 4 5 6 
#
# 1 86.5754 29.8298 30.8461 0.0000 0.0000 0.0000
# 2 29.8298 68.4362 24.7428 0.0000 0.0000 0.0000
# 3 30.8461 24.7428 132.3234 0.0000 0.0000 0.0000
# 4 0.0000 0.0000 0.0000 26.1527 0.0000 0.0000
# 5 0.0000 0.0000 0.0000 0.0000 40.2712 0.0000
# 6 0.0000 0.0000 0.0000 0.0000 0.0000 42.8968
#
#
#
# Elastic Compliance Matrix: (Units=1/GPa)
#
#
# Indices 1 2 3 4 5 6 
#
# 1 0.014222 -0.005363 -0.002313 0.000000 0.000000 0.000000
# 2 -0.005363 0.017694 -0.002058 0.000000 0.000000 0.000000
# 3 -0.002313 -0.002058 0.008481 0.000000 0.000000 0.000000
# 4 0.000000 0.000000 0.000000 0.038237 0.000000 0.000000
# 5 0.000000 0.000000 0.000000 0.000000 0.024832 0.000000
# 6 0.000000 0.000000 0.000000 0.000000 0.000000 0.023312
#
#
# Mechanical properties :
#
#
# Convention : Reuss Voigt Hill
#
# Bulk Modulus (GPa) = 47.77935 50.90804 49.34369
# Shear Modulus (GPa) = 32.63222 35.32521 33.97872
#
# Velocity S-wave (km/s) = 3.59472 3.74011 3.66814
# Velocity P-wave (km/s) = 6.01245 6.22979 6.12208
#
# Compressibility (1/GPa) = 0.02092955
#
# Stress axis : x y z
#
# Youngs Moduli (GPa) = 70.31126 56.51630 117.90767
#
# Poissons Ratio (x) = 0.30311 0.27267
# Poissons Ratio (y) = 0.37709 0.24269
# Poissons Ratio (z) = 0.16260 0.11633
#
# Static dielectric constant tensor:
#      x y z
#    x 2.016040 0.000000 0.000000 
#    y 0.000000 2.207410 0.000000 
#    z 0.000000 0.000000 1.967820 
# 
# From -- ./inp_files/20360.got.cif
#   From: 2010.05.17/outbox.cif.g08.bks.cpg/sg56_11_cif.got.tgz:20360.got - 2010.06.03 13:42:01.
