data_PCOD9432484
_publ_section_title
;
Structure prediction by ZEFSAII (Michael W. Deem and Ramdas Pophale) SiO2 
 PCOD9432484
Probable space group: P C C N
;
_chemical_formula_sum "Si O2"
_cell_formula_units_Z 40
_cell_length_a 5.098190
_cell_length_b 17.672998
_cell_length_c 17.226017
_cell_angle_alpha 90.000000
_cell_angle_beta 90.000000
_cell_angle_gamma 90.000000
_cell_volume 1552.069328
_symmetry_space_group_name_H-M "P C C N"
_symmetry_group_IT_number 56
_symmetry_cell_setting 'orthorhombic'
loop_
_space_group_symop_operation_xyz
x,y,z
1/2-x,1/2-y,z
1/2+x,-y,1/2-z
-x,1/2+y,1/2-z
-x,-y,-z
1/2+x,1/2+y,-z
1/2-x,y,1/2+z
x,1/2-y,1/2+z
loop_
_atom_site_type_symbol
_atom_site_label
_atom_site_fract_x
_atom_site_fract_y
_atom_site_fract_z
Si Si1 0.648157 0.129342 0.390516
Si Si2 0.473870 0.638206 0.756534
Si Si3 0.993926 0.039553 0.106844
Si Si4 0.506059 0.881759 0.966040
Si Si5 0.250000 0.250000 0.859059
Si Si6 0.750000 0.250000 0.117793
O O1 0.728983 0.128704 0.300460
O O2 0.906129 0.124039 0.445460
O O3 0.477791 0.205240 0.405591
O O4 0.509013 0.049664 0.403839
O O5 0.547441 0.562899 0.803281
O O6 0.663904 0.683080 0.699357
O O7 0.405271 0.693981 0.826415
O O8 0.214516 0.083657 0.056318
O O9 0.709481 0.066401 0.078278
O O10 0.453964 0.799069 0.931056
#
# Coordination Sequence:
#
# PCOD9432484 Si02
#       6
#     8   8   8   8   4   4
#     4  12  28  45  79 114 157 206 271 332 401 480
#     4  11  25  46  72 108 152 203 258 321 389 474
#     4  11  28  49  78 108 158 210 263 326 402 482
#     4  11  27  49  76 110 155 207 265 326 401 480
#     4  12  26  44  74 110 158 190 270 326 398 466
#     4  10  22  46  72 104 154 208 252 326 400 472
#
# _framework density 25.772046
#
# number of rings (size 3 to 8) (size 9 to 14) (size 15 to 20)
#    0.000    0.800    2.000    2.400   14.000    2.400 
#    0.000    0.000    0.000    0.000    0.000    0.000 
#    0.000    0.000    0.000    0.000    0.000    0.000 
#
# Total GULP energy -224063.530220 kJ/mol
# GULP energy per Si atom -5601.588255 kJ/mol
# Density = 2.571339 g / cm^3
# Si number density = 25.772046 Si / 1000 Ang^3
#
#
#
# Elastic Constant Matrix: (Units=GPa)
#
#
# Indices 1 2 3 4 5 6 
#
# 1 89.0827 31.9036 23.3383 0.0000 0.0000 0.0000
# 2 31.9036 108.2737 63.0188 0.0000 0.0000 0.0000
# 3 23.3383 63.0188 113.5906 0.0000 0.0000 0.0000
# 4 0.0000 0.0000 0.0000 30.1565 0.0000 0.0000
# 5 0.0000 0.0000 0.0000 0.0000 26.0223 0.0000
# 6 0.0000 0.0000 0.0000 0.0000 0.0000 27.5701
#
#
#
# Elastic Compliance Matrix: (Units=1/GPa)
#
#
# Indices 1 2 3 4 5 6 
#
# 1 0.012597 -0.003257 -0.000781 0.000000 0.000000 0.000000
# 2 -0.003257 0.014483 -0.007366 0.000000 0.000000 0.000000
# 3 -0.000781 -0.007366 0.013050 0.000000 0.000000 0.000000
# 4 0.000000 0.000000 0.000000 0.033160 0.000000 0.000000
# 5 0.000000 0.000000 0.000000 0.000000 0.038429 0.000000
# 6 0.000000 0.000000 0.000000 0.000000 0.000000 0.036271
#
#
# Mechanical properties :
#
#
# Convention : Reuss Voigt Hill
#
# Bulk Modulus (GPa) = 57.72981 60.82983 59.27982
# Shear Modulus (GPa) = 28.31720 29.59553 28.95636
#
# Velocity S-wave (km/s) = 3.31835 3.39242 3.35559
# Velocity P-wave (km/s) = 6.09350 6.24491 6.16967
#
# Compressibility (1/GPa) = 0.01732207
#
# Stress axis : x y z
#
# Youngs Moduli (GPa) = 79.38633 69.04862 76.62622
#
# Poissons Ratio (x) = 0.22489 0.05986
# Poissons Ratio (y) = 0.25856 0.56439
# Poissons Ratio (z) = 0.06201 0.50858
#
# Static dielectric constant tensor:
#      x y z
#    x 2.097470 0.000000 0.000000 
#    y 0.000000 2.068670 0.000000 
#    z 0.000000 0.000000 1.986420 
# 
# From -- ./inp_files/13878.got.cif
#   From: 2010.05.17/outbox.cif.g08.bks.cpg/sg56_7_cif.got.tgz:13878.got - 2010.06.03 13:42:01.
