data_PCOD9432324
_publ_section_title
;
Structure prediction by ZEFSAII (Michael W. Deem and Ramdas Pophale) SiO2 
 PCOD9432324
Probable space group: P C C N
;
_chemical_formula_sum "Si O2"
_cell_formula_units_Z 48
_cell_length_a 14.350660
_cell_length_b 9.583044
_cell_length_c 12.830517
_cell_angle_alpha 90.000000
_cell_angle_beta 90.000000
_cell_angle_gamma 90.000000
_cell_volume 1764.491269
_symmetry_space_group_name_H-M "P C C N"
_symmetry_group_IT_number 56
_symmetry_cell_setting 'orthorhombic'
loop_
_space_group_symop_operation_xyz
x,y,z
1/2-x,1/2-y,z
1/2+x,-y,1/2-z
-x,1/2+y,1/2-z
-x,-y,-z
1/2+x,1/2+y,-z
1/2-x,y,1/2+z
x,1/2-y,1/2+z
loop_
_atom_site_type_symbol
_atom_site_label
_atom_site_fract_x
_atom_site_fract_y
_atom_site_fract_z
Si Si1 0.189741 0.083416 0.966618
Si Si2 0.923008 0.094991 0.357591
Si Si3 0.128361 0.678638 0.374283
Si Si4 0.131081 0.511613 0.919906
Si Si5 0.011313 0.129873 0.825830
Si Si6 0.425773 0.167345 0.644782
O O1 0.166947 0.151084 0.078027
O O2 0.095351 0.117092 0.905522
O O3 0.182764 0.914064 0.957437
O O4 0.288330 0.105290 0.908862
O O5 0.867040 0.033962 0.454274
O O6 0.937164 0.258946 0.364273
O O7 0.028397 0.038000 0.385295
O O8 0.878646 0.095597 0.238882
O O9 0.154520 0.841021 0.363242
O O10 0.022403 0.692160 0.416544
O O11 0.062561 0.206402 0.726891
O O12 0.951201 0.988296 0.814473
#
# Coordination Sequence:
#
# PCOD9432324 Si02
#       6
#     8   8   8   8   8   8
#     4  11  23  45  72 112 150 188 243 324 372 432
#     4  10  24  44  73  99 144 197 250 287 371 458
#     4  10  22  42  74 104 143 193 250 291 362 458
#     4  11  24  46  71 108 146 193 242 316 371 438
#     4  10  22  43  72 109 143 200 245 296 363 461
#     4  10  22  42  76 107 149 196 248 297 376 448
#
# _framework density 27.203306999999999
#
# number of rings (size 3 to 8) (size 9 to 14) (size 15 to 20)
#    0.000    1.667    0.000    4.500   14.000    0.667 
#    6.000   10.000    0.000    0.000    0.000    0.000 
#    0.000    0.000    0.000    0.000    0.000    0.000 
#
# Total GULP energy -267332.892172 kJ/mol
# GULP energy per Si atom -5569.435254 kJ/mol
# Density = 2.714139 g / cm^3
# Si number density = 27.203307 Si / 1000 Ang^3
#
#
#
# Elastic Constant Matrix: (Units=GPa)
#
#
# Indices 1 2 3 4 5 6 
#
# 1 101.1063 29.4292 28.8795 0.0000 0.0000 0.0000
# 2 29.4292 121.9786 31.9063 0.0000 0.0000 0.0000
# 3 28.8795 31.9063 140.5727 0.0000 0.0000 0.0000
# 4 0.0000 0.0000 0.0000 37.8343 0.0000 0.0000
# 5 0.0000 0.0000 0.0000 0.0000 14.6083 0.0000
# 6 0.0000 0.0000 0.0000 0.0000 0.0000 48.3769
#
#
#
# Elastic Compliance Matrix: (Units=1/GPa)
#
#
# Indices 1 2 3 4 5 6 
#
# 1 0.011036 -0.002200 -0.001768 0.000000 0.000000 0.000000
# 2 -0.002200 0.009154 -0.001626 0.000000 0.000000 0.000000
# 3 -0.001768 -0.001626 0.007846 0.000000 0.000000 0.000000
# 4 0.000000 0.000000 0.000000 0.026431 0.000000 0.000000
# 5 0.000000 0.000000 0.000000 0.000000 0.068454 0.000000
# 6 0.000000 0.000000 0.000000 0.000000 0.000000 0.020671
#
#
# Mechanical properties :
#
#
# Convention : Reuss Voigt Hill
#
# Bulk Modulus (GPa) = 59.35228 60.45418 59.90323
# Shear Modulus (GPa) = 31.17277 38.39340 34.78308
#
# Velocity S-wave (km/s) = 3.38881 3.76087 3.57968
# Velocity P-wave (km/s) = 6.09733 6.41328 6.25730
#
# Compressibility (1/GPa) = 0.01684855
#
# Stress axis : x y z
#
# Youngs Moduli (GPa) = 90.61289 109.23902 127.45423
#
# Poissons Ratio (x) = 0.24034 0.22532
# Poissons Ratio (y) = 0.19936 0.20721
# Poissons Ratio (z) = 0.16019 0.17760
#
# Static dielectric constant tensor:
#      x y z
#    x 2.236470 0.000000 0.000000 
#    y 0.000000 2.290570 0.000000 
#    z 0.000000 0.000000 2.284700 
# 
# From -- ./inp_files/18961.got.cif
#   From: 2010.05.17/outbox.cif.g08.bks.cpg/sg56_10_cif.got.tgz:18961.got - 2010.06.03 13:42:01.
