data_PCOD9432400
_publ_section_title
;
Structure prediction by ZEFSAII (Michael W. Deem and Ramdas Pophale) SiO2 
 PCOD9432400
Probable space group: P C C N
;
_chemical_formula_sum "Si O2"
_cell_formula_units_Z 40
_cell_length_a 8.268813
_cell_length_b 13.676682
_cell_length_c 16.916911
_cell_angle_alpha 90.000000
_cell_angle_beta 90.000000
_cell_angle_gamma 90.000000
_cell_volume 1913.132212
_symmetry_space_group_name_H-M "P C C N"
_symmetry_group_IT_number 56
_symmetry_cell_setting 'orthorhombic'
loop_
_space_group_symop_operation_xyz
x,y,z
1/2-x,1/2-y,z
1/2+x,-y,1/2-z
-x,1/2+y,1/2-z
-x,-y,-z
1/2+x,1/2+y,-z
1/2-x,y,1/2+z
x,1/2-y,1/2+z
loop_
_atom_site_type_symbol
_atom_site_label
_atom_site_fract_x
_atom_site_fract_y
_atom_site_fract_z
Si Si1 0.925177 0.146595 0.122686
Si Si2 0.147995 0.023322 0.557406
Si Si3 0.620466 0.664033 0.031587
Si Si4 0.409955 0.938242 0.656035
Si Si5 0.932655 0.354440 0.170615
O O1 0.956526 0.238249 0.180539
O O2 0.733113 0.131392 0.121442
O O3 0.015256 0.047570 0.147803
O O4 0.992007 0.182726 0.038221
O O5 0.282594 0.070394 0.500990
O O6 0.080508 0.099894 0.622136
O O7 0.239186 0.941156 0.609127
O O8 0.000000 0.000000 0.500000
O O9 0.750000 0.750000 0.040049
O O10 0.528416 0.635315 0.110479
O O11 0.402517 0.907473 0.746568
#
# Coordination Sequence:
#
# PCOD9432400 Si02
#       5
#     8   8   8   8   8
#     4  10  22  44  66  90 134 172 218 265 335 401
#     4  11  22  41  69  94 131 177 220 266 339 394
#     4  11  22  45  65  95 127 174 220 266 322 402
#     4  11  24  42  66 100 133 167 228 277 330 402
#     4  11  22  42  66  98 130 176 213 280 340 385
#
# _framework density 20.908121000000001
#
# number of rings (size 3 to 8) (size 9 to 14) (size 15 to 20)
#    0.000    1.200    2.000    6.000    0.000    0.000 
#   21.600    0.000    0.000    0.000    0.000    0.000 
#    0.000    0.000    0.000    0.000    0.000    0.000 
#
# Total GULP energy -223533.087130 kJ/mol
# GULP energy per Si atom -5588.327178 kJ/mol
# Density = 2.086053 g / cm^3
# Si number density = 20.908121 Si / 1000 Ang^3
#
#
#
# Elastic Constant Matrix: (Units=GPa)
#
#
# Indices 1 2 3 4 5 6 
#
# 1 94.6120 12.9484 42.8741 0.0000 0.0000 0.0000
# 2 12.9484 72.5224 28.7100 0.0000 0.0000 0.0000
# 3 42.8741 28.7100 67.3879 0.0000 0.0000 0.0000
# 4 0.0000 0.0000 0.0000 26.1071 0.0000 0.0000
# 5 0.0000 0.0000 0.0000 0.0000 12.7099 0.0000
# 6 0.0000 0.0000 0.0000 0.0000 0.0000 36.0076
#
#
#
# Elastic Compliance Matrix: (Units=1/GPa)
#
#
# Indices 1 2 3 4 5 6 
#
# 1 0.014955 0.001319 -0.010077 0.000000 0.000000 0.000000
# 2 0.001319 0.016703 -0.007955 0.000000 0.000000 0.000000
# 3 -0.010077 -0.007955 0.024640 0.000000 0.000000 0.000000
# 4 0.000000 0.000000 0.000000 0.038304 0.000000 0.000000
# 5 0.000000 0.000000 0.000000 0.000000 0.078679 0.000000
# 6 0.000000 0.000000 0.000000 0.000000 0.000000 0.027772
#
#
# Mechanical properties :
#
#
# Convention : Reuss Voigt Hill
#
# Bulk Modulus (GPa) = 43.72223 44.84305 44.28264
# Shear Modulus (GPa) = 20.65237 24.96424 22.80831
#
# Velocity S-wave (km/s) = 3.14629 3.45918 3.30643
# Velocity P-wave (km/s) = 5.84430 6.11954 5.98350
#
# Compressibility (1/GPa) = 0.02287166
#
# Stress axis : x y z
#
# Youngs Moduli (GPa) = 66.86522 59.87075 40.58430
#
# Poissons Ratio (x) = -0.07898 0.40897
# Poissons Ratio (y) = -0.08820 0.32286
# Poissons Ratio (z) = 0.67381 0.47629
#
# Static dielectric constant tensor:
#      x y z
#    x 1.767700 0.000000 0.000000 
#    y 0.000000 1.782450 0.000000 
#    z 0.000000 0.000000 1.720970 
# 
# From -- ./inp_files/10371.got.cif
#   From: 2010.05.17/outbox.cif.g08.bks.cpg/sg56_6_cif.got.tgz:10371.got - 2010.06.03 13:42:01.
