data_PCOD9432315
_publ_section_title
;
Structure prediction by ZEFSAII (Michael W. Deem and Ramdas Pophale) SiO2 
 PCOD9432315
Probable space group: P C C N
;
_chemical_formula_sum "Si O2"
_cell_formula_units_Z 48
_cell_length_a 27.089740
_cell_length_b 4.930695
_cell_length_c 14.604598
_cell_angle_alpha 90.000000
_cell_angle_beta 90.000000
_cell_angle_gamma 90.000000
_cell_volume 1950.754346
_symmetry_space_group_name_H-M "P C C N"
_symmetry_group_IT_number 56
_symmetry_cell_setting 'orthorhombic'
loop_
_space_group_symop_operation_xyz
x,y,z
1/2-x,1/2-y,z
1/2+x,-y,1/2-z
-x,1/2+y,1/2-z
-x,-y,-z
1/2+x,1/2+y,-z
1/2-x,y,1/2+z
x,1/2-y,1/2+z
loop_
_atom_site_type_symbol
_atom_site_label
_atom_site_fract_x
_atom_site_fract_y
_atom_site_fract_z
Si Si1 0.750000 0.250000 0.014294
Si Si2 0.877332 0.590714 0.799029
Si Si3 0.469863 0.706488 0.767686
Si Si4 0.964084 0.252780 0.521961
Si Si5 0.750000 0.750000 0.151093
Si Si6 0.855859 0.387633 0.981680
Si Si7 0.159556 0.928895 0.301291
O O1 0.736978 0.505055 0.080854
O O2 0.800986 0.276426 0.958674
O O3 0.930074 0.448993 0.792311
O O4 0.878626 0.877818 0.750074
O O5 0.844114 0.371448 0.740888
O O6 0.862143 0.616870 0.904515
O O7 0.512899 0.484615 0.775496
O O8 0.451987 0.755268 0.870178
O O9 0.909095 0.263410 0.477717
O O10 0.000000 0.500000 0.500000
O O11 0.000000 0.000000 0.500000
O O12 0.710210 0.905531 0.212937
O O13 0.848971 0.450555 0.089421
#
# Coordination Sequence:
#
# PCOD9432315 Si02
#       7
#     4   8   8   8   4   8   8
#     4  10  24  44  74 108 142 202 240 308 364 440
#     4  12  26  44  74 105 142 195 239 302 364 434
#     4  12  25  46  68 104 147 183 245 300 358 435
#     4  12  27  45  74 107 143 195 237 301 371 432
#     4  10  22  42  72 100 146 190 244 300 370 422
#     4  11  26  49  75 108 153 189 252 302 372 439
#     4  11  25  45  70 105 142 189 240 301 360 434
#
# _framework density 24.605868999999998
#
# number of rings (size 3 to 8) (size 9 to 14) (size 15 to 20)
#    0.000    0.667    1.667    6.000    2.333    8.000 
#    0.000    0.833    0.000    0.000    0.000    0.000 
#    0.000    0.000    0.000    0.000    0.000    0.000 
#
# Total GULP energy -268018.671609 kJ/mol
# GULP energy per Si atom -5583.722325 kJ/mol
# Density = 2.454986 g / cm^3
# Si number density = 24.605869 Si / 1000 Ang^3
#
#
#
# Elastic Constant Matrix: (Units=GPa)
#
#
# Indices 1 2 3 4 5 6 
#
# 1 162.1508 3.3805 -21.5327 0.0000 0.0000 0.0000
# 2 3.3805 111.4698 -13.7891 0.0000 0.0000 0.0000
# 3 -21.5327 -13.7891 60.8068 0.0000 0.0000 0.0000
# 4 0.0000 0.0000 0.0000 25.4587 0.0000 0.0000
# 5 0.0000 0.0000 0.0000 0.0000 20.5761 0.0000
# 6 0.0000 0.0000 0.0000 0.0000 0.0000 30.9274
#
#
#
# Elastic Compliance Matrix: (Units=1/GPa)
#
#
# Indices 1 2 3 4 5 6 
#
# 1 0.006472 0.000090 0.002312 0.000000 0.000000 0.000000
# 2 0.000090 0.009231 0.002125 0.000000 0.000000 0.000000
# 3 0.002312 0.002125 0.017746 0.000000 0.000000 0.000000
# 4 0.000000 0.000000 0.000000 0.039279 0.000000 0.000000
# 5 0.000000 0.000000 0.000000 0.000000 0.048600 0.000000
# 6 0.000000 0.000000 0.000000 0.000000 0.000000 0.032334
#
#
# Mechanical properties :
#
#
# Convention : Reuss Voigt Hill
#
# Bulk Modulus (GPa) = 23.52712 30.06052 26.79382
# Shear Modulus (GPa) = 31.49078 39.81702 35.65390
#
# Velocity S-wave (km/s) = 3.58132 4.02704 3.81070
# Velocity P-wave (km/s) = 5.16561 5.81946 5.50225
#
# Compressibility (1/GPa) = 0.04250414
#
# Stress axis : x y z
#
# Youngs Moduli (GPa) = 154.50489 108.32826 56.34990
#
# Poissons Ratio (x) = -0.00972 -0.13030
# Poissons Ratio (y) = -0.01387 -0.11975
# Poissons Ratio (z) = -0.35726 -0.23021
#
# Static dielectric constant tensor:
#      x y z
#    x 2.103710 0.000000 0.000000 
#    y 0.000000 1.925360 0.000000 
#    z 0.000000 0.000000 1.961690 
# 
# From -- ./inp_files/13381.got.cif
#   From: 2010.05.17/outbox.cif.g08.bks.cpg/sg56_7_cif.got.tgz:13381.got - 2010.06.03 13:42:01.
