data_PCOD9432587
_publ_section_title
;
Structure prediction by ZEFSAII (Michael W. Deem and Ramdas Pophale) SiO2 
 PCOD9432587
Probable space group: P C C N
;
_chemical_formula_sum "Si O2"
_cell_formula_units_Z 48
_cell_length_a 15.013206
_cell_length_b 11.537148
_cell_length_c 12.330970
_cell_angle_alpha 90.000000
_cell_angle_beta 90.000000
_cell_angle_gamma 90.000000
_cell_volume 2135.842129
_symmetry_space_group_name_H-M "P C C N"
_symmetry_group_IT_number 56
_symmetry_cell_setting 'orthorhombic'
loop_
_space_group_symop_operation_xyz
x,y,z
1/2-x,1/2-y,z
1/2+x,-y,1/2-z
-x,1/2+y,1/2-z
-x,-y,-z
1/2+x,1/2+y,-z
1/2-x,y,1/2+z
x,1/2-y,1/2+z
loop_
_atom_site_type_symbol
_atom_site_label
_atom_site_fract_x
_atom_site_fract_y
_atom_site_fract_z
Si Si1 0.900274 0.573467 0.383583
Si Si2 0.086644 0.028026 0.355946
Si Si3 0.371791 0.961992 0.176028
Si Si4 0.898911 0.436934 0.580938
Si Si5 0.342522 0.186666 0.044827
Si Si6 0.155089 0.696774 0.981166
O O1 0.870766 0.544469 0.262604
O O2 0.853969 0.514318 0.487618
O O3 0.899352 0.710862 0.400746
O O4 0.000648 0.523675 0.392368
O O5 0.119875 0.908202 0.407954
O O6 0.114203 0.130195 0.438301
O O7 0.979186 0.029560 0.344399
O O8 0.352465 0.942696 0.302367
O O9 0.340198 0.855520 0.101705
O O10 0.332321 0.081383 0.129579
O O11 0.906300 0.308474 0.532758
O O12 0.250000 0.250000 0.019582
O O13 0.250000 0.750000 0.949035
#
# Coordination Sequence:
#
# PCOD9432587 Si02
#       6
#     8   8   8   8   8   8
#     4  10  23  41  66  95 125 167 223 271 315 383
#     4  10  23  45  69  92 129 177 219 263 322 389
#     4  10  23  45  69  92 129 177 219 263 322 389
#     4  10  23  41  66  95 125 167 223 271 315 383
#     4  11  24  40  65  95 130 169 212 270 329 385
#     4  11  24  40  65  95 130 169 212 270 329 385
#
# _framework density 22.473572000000001
#
# number of rings (size 3 to 8) (size 9 to 14) (size 15 to 20)
#    0.000    1.667    0.000    4.000    9.333    2.667 
#    0.000    0.000    0.000    0.000    0.000    0.000 
#    0.000    0.000    0.000    0.000    0.000    0.000 
#
# Total GULP energy -268274.433460 kJ/mol
# GULP energy per Si atom -5589.050697 kJ/mol
# Density = 2.242242 g / cm^3
# Si number density = 22.473572 Si / 1000 Ang^3
#
#
#
# Elastic Constant Matrix: (Units=GPa)
#
#
# Indices 1 2 3 4 5 6 
#
# 1 56.3402 5.4767 -25.7755 0.0000 0.0000 0.0000
# 2 5.4767 137.3013 84.4141 0.0000 0.0000 0.0000
# 3 -25.7755 84.4141 167.0322 0.0000 0.0000 0.0000
# 4 0.0000 0.0000 0.0000 17.1637 0.0000 0.0000
# 5 0.0000 0.0000 0.0000 0.0000 11.4162 0.0000
# 6 0.0000 0.0000 0.0000 0.0000 0.0000 26.8699
#
#
#
# Elastic Compliance Matrix: (Units=1/GPa)
#
#
# Indices 1 2 3 4 5 6 
#
# 1 0.020515 -0.004011 0.005193 0.000000 0.000000 0.000000
# 2 -0.004011 0.011350 -0.006355 0.000000 0.000000 0.000000
# 3 0.005193 -0.006355 0.010000 0.000000 0.000000 0.000000
# 4 0.000000 0.000000 0.000000 0.058263 0.000000 0.000000
# 5 0.000000 0.000000 0.000000 0.000000 0.087595 0.000000
# 6 0.000000 0.000000 0.000000 0.000000 0.000000 0.037216
#
#
# Mechanical properties :
#
#
# Convention : Reuss Voigt Hill
#
# Bulk Modulus (GPa) = 31.72721 54.32270 43.02495
# Shear Modulus (GPa) = 20.34239 30.86050 25.60145
#
# Velocity S-wave (km/s) = 3.01187 3.70968 3.37884
# Velocity P-wave (km/s) = 5.12283 6.52482 5.86586
#
# Compressibility (1/GPa) = 0.03151869
#
# Stress axis : x y z
#
# Youngs Moduli (GPa) = 48.74512 88.10217 100.00062
#
# Poissons Ratio (x) = 0.35336 -0.51928
# Poissons Ratio (y) = 0.19551 0.63552
# Poissons Ratio (z) = -0.25312 0.55991
#
# Static dielectric constant tensor:
#      x y z
#    x 1.956820 0.000000 0.000000 
#    y 0.000000 1.785160 0.000000 
#    z 0.000000 0.000000 1.841580 
# 
# From -- ./inp_files/8299.got.cif
#   From: 2010.05.17/outbox.cif.g08.bks.cpg/sg56_5_cif.got.tgz:8299.got - 2010.06.03 13:42:01.
