data_PCOD9432155
_publ_section_title
;
Structure prediction by ZEFSAII (Michael W. Deem and Ramdas Pophale) SiO2 
 PCOD9432155
Probable space group: P C C N
;
_chemical_formula_sum "Si O2"
_cell_formula_units_Z 48
_cell_length_a 13.860165
_cell_length_b 17.453864
_cell_length_c 8.551392
_cell_angle_alpha 90.000000
_cell_angle_beta 90.000000
_cell_angle_gamma 90.000000
_cell_volume 2068.696612
_symmetry_space_group_name_H-M "P C C N"
_symmetry_group_IT_number 56
_symmetry_cell_setting 'orthorhombic'
loop_
_space_group_symop_operation_xyz
x,y,z
1/2-x,1/2-y,z
1/2+x,-y,1/2-z
-x,1/2+y,1/2-z
-x,-y,-z
1/2+x,1/2+y,-z
1/2-x,y,1/2+z
x,1/2-y,1/2+z
loop_
_atom_site_type_symbol
_atom_site_label
_atom_site_fract_x
_atom_site_fract_y
_atom_site_fract_z
Si Si1 0.250000 0.750000 0.985127
Si Si2 0.004937 0.933096 0.699274
Si Si3 0.300235 0.584934 0.530017
Si Si4 0.885686 0.677728 0.018780
Si Si5 0.250000 0.250000 0.723410
Si Si6 0.453296 0.804303 0.451048
Si Si7 0.114772 0.927638 0.185197
O O1 0.221130 0.673237 0.076394
O O2 0.151076 0.772469 0.900153
O O3 0.934045 0.903164 0.560999
O O4 0.111039 0.944771 0.630556
O O5 0.962712 0.007126 0.782020
O O6 0.010037 0.863576 0.822290
O O7 0.331231 0.586138 0.349570
O O8 0.198271 0.545155 0.564620
O O9 0.827242 0.707412 0.169059
O O10 0.972975 0.735933 0.981264
O O11 0.807964 0.688265 0.881046
O O12 0.434831 0.853166 0.609462
#
# Coordination Sequence:
#
# PCOD9432155 Si02
#       7
#     4   8   8   8   4   8   8
#     4  10  22  40  74 106 138 170 238 302 356 416
#     4  12  25  46  69 102 142 190 238 290 367 433
#     4  11  24  45  71 105 140 186 239 296 368 424
#     4  11  23  44  70  99 135 183 240 297 349 423
#     4  10  24  44  62 102 132 176 236 290 352 414
#     4  11  24  43  72 103 144 184 236 303 363 424
#     4  11  27  45  67 102 145 185 234 291 367 436
#
# _framework density 23.203016999999999
#
# number of rings (size 3 to 8) (size 9 to 14) (size 15 to 20)
#    0.000    1.000    3.333    3.000    4.667    4.667 
#    6.000    0.000    0.000    0.000    0.000    0.000 
#    0.000    0.000    0.000    0.000    0.000    0.000 
#
# Total GULP energy -268712.687042 kJ/mol
# GULP energy per Si atom -5598.180980 kJ/mol
# Density = 2.315021 g / cm^3
# Si number density = 23.203017 Si / 1000 Ang^3
#
#
#
# Elastic Constant Matrix: (Units=GPa)
#
#
# Indices 1 2 3 4 5 6 
#
# 1 121.0507 28.8026 28.5980 0.0000 0.0000 0.0000
# 2 28.8026 62.8609 9.7313 0.0000 0.0000 0.0000
# 3 28.5980 9.7313 85.6699 0.0000 0.0000 0.0000
# 4 0.0000 0.0000 0.0000 27.4642 0.0000 0.0000
# 5 0.0000 0.0000 0.0000 0.0000 25.8304 0.0000
# 6 0.0000 0.0000 0.0000 0.0000 0.0000 33.1238
#
#
#
# Elastic Compliance Matrix: (Units=1/GPa)
#
#
# Indices 1 2 3 4 5 6 
#
# 1 0.009908 -0.004100 -0.002842 0.000000 0.000000 0.000000
# 2 -0.004100 0.017889 -0.000663 0.000000 0.000000 0.000000
# 3 -0.002842 -0.000663 0.012697 0.000000 0.000000 0.000000
# 4 0.000000 0.000000 0.000000 0.036411 0.000000 0.000000
# 5 0.000000 0.000000 0.000000 0.000000 0.038714 0.000000
# 6 0.000000 0.000000 0.000000 0.000000 0.000000 0.030190
#
#
# Mechanical properties :
#
#
# Convention : Reuss Voigt Hill
#
# Bulk Modulus (GPa) = 39.55086 44.87170 42.21128
# Shear Modulus (GPa) = 29.50782 30.78035 30.14408
#
# Velocity S-wave (km/s) = 3.56999 3.64616 3.60828
# Velocity P-wave (km/s) = 5.83744 6.09152 5.96583
#
# Compressibility (1/GPa) = 0.02528390
#
# Stress axis : x y z
#
# Youngs Moduli (GPa) = 100.93015 55.89916 78.76075
#
# Poissons Ratio (x) = 0.22918 0.22381
# Poissons Ratio (y) = 0.41379 0.05226
# Poissons Ratio (z) = 0.28681 0.03709
#
# Static dielectric constant tensor:
#      x y z
#    x 1.861090 0.000000 0.000000 
#    y 0.000000 1.863150 0.000000 
#    z 0.000000 0.000000 1.907300 
# 
# From -- ./inp_files/3416.got.cif
#   From: 2010.05.17/outbox.cif.g08.bks.cpg/sg56_2_cif.got.tgz:3416.got - 2010.06.03 13:42:01.
