data_PCOD9432014
_publ_section_title
;
Structure prediction by ZEFSAII (Michael W. Deem and Ramdas Pophale) SiO2 
 PCOD9432014
Probable space group: P C C N
;
_chemical_formula_sum "Si O2"
_cell_formula_units_Z 32
_cell_length_a 10.876388
_cell_length_b 8.528063
_cell_length_c 16.705380
_cell_angle_alpha 90.000000
_cell_angle_beta 90.000000
_cell_angle_gamma 90.000000
_cell_volume 1549.499538
_symmetry_space_group_name_H-M "P C C N"
_symmetry_group_IT_number 56
_symmetry_cell_setting 'orthorhombic'
loop_
_space_group_symop_operation_xyz
x,y,z
1/2-x,1/2-y,z
1/2+x,-y,1/2-z
-x,1/2+y,1/2-z
-x,-y,-z
1/2+x,1/2+y,-z
1/2-x,y,1/2+z
x,1/2-y,1/2+z
loop_
_atom_site_type_symbol
_atom_site_label
_atom_site_fract_x
_atom_site_fract_y
_atom_site_fract_z
Si Si1 0.068431 0.875769 0.441661
Si Si2 0.880072 0.308272 0.404458
Si Si3 0.871627 0.647762 0.164704
Si Si4 0.623028 0.840254 0.353788
O O1 0.121194 0.752621 0.504535
O O2 0.979563 0.779131 0.383830
O O3 0.147122 0.986899 0.384134
O O4 0.000000 0.000000 0.500000
O O5 0.750000 0.250000 0.367165
O O6 0.883872 0.495122 0.399245
O O7 0.002525 0.233444 0.364456
O O8 0.750000 0.750000 0.150820
O O9 0.885320 0.622959 0.259533
O O10 0.750000 0.750000 0.369121
#
# Coordination Sequence:
#
# PCOD9432014 Si02
#       4
#     8   8   8   8
#     4  10  22  39  60  91 127 163 206 257 313 374
#     4  11  24  41  64  95 130 170 212 263 322 381
#     4  10  23  43  67  95 129 168 214 265 318 382
#     4  11  22  41  67  95 129 169 214 265 319 379
#
# _framework density 20.651827999999998
#
# number of rings (size 3 to 8) (size 9 to 14) (size 15 to 20)
#    0.000    1.500    0.000    5.250    0.000   12.000 
#    0.000    2.500    0.000    0.000    0.000    0.000 
#    0.000    0.000    0.000    0.000    0.000    0.000 
#
# Total GULP energy -178703.561037 kJ/mol
# GULP energy per Si atom -5584.486282 kJ/mol
# Density = 2.060482 g / cm^3
# Si number density = 20.651828 Si / 1000 Ang^3
#
#
#
# Elastic Constant Matrix: (Units=GPa)
#
#
# Indices 1 2 3 4 5 6 
#
# 1 109.8816 36.7121 59.4480 0.0000 0.0000 0.0000
# 2 36.7121 158.5153 98.4108 0.0000 0.0000 0.0000
# 3 59.4480 98.4108 105.8490 0.0000 0.0000 0.0000
# 4 0.0000 0.0000 0.0000 47.5646 0.0000 0.0000
# 5 0.0000 0.0000 0.0000 0.0000 19.6208 0.0000
# 6 0.0000 0.0000 0.0000 0.0000 0.0000 29.9012
#
#
#
# Elastic Compliance Matrix: (Units=1/GPa)
#
#
# Indices 1 2 3 4 5 6 
#
# 1 0.014014 0.003881 -0.011479 0.000000 0.000000 0.000000
# 2 0.003881 0.015996 -0.017051 0.000000 0.000000 0.000000
# 3 -0.011479 -0.017051 0.031747 0.000000 0.000000 0.000000
# 4 0.000000 0.000000 0.000000 0.021024 0.000000 0.000000
# 5 0.000000 0.000000 0.000000 0.000000 0.050966 0.000000
# 6 0.000000 0.000000 0.000000 0.000000 0.000000 0.033443
#
#
# Mechanical properties :
#
#
# Convention : Reuss Voigt Hill
#
# Bulk Modulus (GPa) = 80.26561 84.82084 82.54322
# Shear Modulus (GPa) = 22.66110 31.39565 27.02838
#
# Velocity S-wave (km/s) = 3.31613 3.90325 3.62161
# Velocity P-wave (km/s) = 7.32208 7.84059 7.58576
#
# Compressibility (1/GPa) = 0.01245864
#
# Stress axis : x y z
#
# Youngs Moduli (GPa) = 71.35480 62.51748 31.49887
#
# Poissons Ratio (x) = -0.24261 0.36157
# Poissons Ratio (y) = -0.27691 0.53709
# Poissons Ratio (z) = 0.81908 1.06599
#
# Static dielectric constant tensor:
#      x y z
#    x 1.771860 0.000000 0.000000 
#    y 0.000000 1.702350 0.000000 
#    z 0.000000 0.000000 1.735870 
# 
# From -- ./inp_files/10062.got.cif
#   From: 2010.05.17/outbox.cif.g08.bks.cpg/sg56_6_cif.got.tgz:10062.got - 2010.06.03 13:42:01.
