data_PCOD9432266
_publ_section_title
;
Structure prediction by ZEFSAII (Michael W. Deem and Ramdas Pophale) SiO2 
 PCOD9432266
Probable space group: P C C N
;
_chemical_formula_sum "Si O2"
_cell_formula_units_Z 32
_cell_length_a 5.124967
_cell_length_b 12.867331
_cell_length_c 19.983720
_cell_angle_alpha 90.000000
_cell_angle_beta 90.000000
_cell_angle_gamma 90.000000
_cell_volume 1317.819356
_symmetry_space_group_name_H-M "P C C N"
_symmetry_group_IT_number 56
_symmetry_cell_setting 'orthorhombic'
loop_
_space_group_symop_operation_xyz
x,y,z
1/2-x,1/2-y,z
1/2+x,-y,1/2-z
-x,1/2+y,1/2-z
-x,-y,-z
1/2+x,1/2+y,-z
1/2-x,y,1/2+z
x,1/2-y,1/2+z
loop_
_atom_site_type_symbol
_atom_site_label
_atom_site_fract_x
_atom_site_fract_y
_atom_site_fract_z
Si Si1 0.559612 0.073831 0.610708
Si Si2 0.840153 0.638867 0.112734
Si Si3 0.458148 0.115156 0.029036
Si Si4 0.999947 0.675442 0.248913
O O1 0.316581 0.113506 0.566824
O O2 0.521691 0.099738 0.687722
O O3 0.813941 0.131863 0.581555
O O4 0.623809 0.950472 0.601285
O O5 0.750000 0.750000 0.137693
O O6 0.996898 0.607458 0.179585
O O7 0.969708 0.671272 0.042149
O O8 0.500000 0.000000 0.000000
O O9 0.750000 0.750000 0.263863
O O10 0.250000 0.750000 0.244871
#
# Coordination Sequence:
#
# PCOD9432266 Si02
#       4
#     8   8   8   8
#     4  11  24  45  69  95 132 176 220 272 333 401
#     4  10  24  42  67  98 132 170 216 271 330 392
#     4  10  22  42  66  94 127 168 219 271 330 395
#     4  11  26  45  66  99 136 178 229 278 333 402
#
# _framework density 24.282540000000001
#
# number of rings (size 3 to 8) (size 9 to 14) (size 15 to 20)
#    0.000    1.500    0.000    4.500    0.000   23.000 
#    0.000    2.500    0.000    0.000    0.000    0.000 
#    0.000    0.000    0.000    0.000    0.000    0.000 
#
# Total GULP energy -178576.724852 kJ/mol
# GULP energy per Si atom -5580.522652 kJ/mol
# Density = 2.422727 g / cm^3
# Si number density = 24.282540 Si / 1000 Ang^3
#
#
#
# Elastic Constant Matrix: (Units=GPa)
#
#
# Indices 1 2 3 4 5 6 
#
# 1 164.1119 12.7037 53.4686 0.0000 0.0000 0.0000
# 2 12.7037 55.4786 2.4186 0.0000 0.0000 0.0000
# 3 53.4686 2.4186 200.7867 0.0000 0.0000 0.0000
# 4 0.0000 0.0000 0.0000 64.9217 0.0000 0.0000
# 5 0.0000 0.0000 0.0000 0.0000 25.5857 0.0000
# 6 0.0000 0.0000 0.0000 0.0000 0.0000 20.6036
#
#
#
# Elastic Compliance Matrix: (Units=1/GPa)
#
#
# Indices 1 2 3 4 5 6 
#
# 1 0.006791 -0.001477 -0.001791 0.000000 0.000000 0.000000
# 2 -0.001477 0.018356 0.000172 0.000000 0.000000 0.000000
# 3 -0.001791 0.000172 0.005455 0.000000 0.000000 0.000000
# 4 0.000000 0.000000 0.000000 0.015403 0.000000 0.000000
# 5 0.000000 0.000000 0.000000 0.000000 0.039084 0.000000
# 6 0.000000 0.000000 0.000000 0.000000 0.000000 0.048535
#
#
# Mechanical properties :
#
#
# Convention : Reuss Voigt Hill
#
# Bulk Modulus (GPa) = 40.96496 61.95100 51.45798
# Shear Modulus (GPa) = 33.79460 45.67461 39.73460
#
# Velocity S-wave (km/s) = 3.73463 4.34171 4.04956
# Velocity P-wave (km/s) = 5.95847 7.12053 6.56526
#
# Compressibility (1/GPa) = 0.02441110
#
# Stress axis : x y z
#
# Youngs Moduli (GPa) = 147.25058 54.47908 183.31195
#
# Poissons Ratio (x) = 0.08047 0.32825
# Poissons Ratio (y) = 0.21749 -0.03157
# Poissons Ratio (z) = 0.26368 -0.00938
#
# Static dielectric constant tensor:
#      x y z
#    x 1.992520 0.000000 0.000000 
#    y 0.000000 1.961370 0.000000 
#    z 0.000000 0.000000 2.096920 
# 
# From -- ./inp_files/13684.got.cif
#   From: 2010.05.17/outbox.cif.g08.bks.cpg/sg56_7_cif.got.tgz:13684.got - 2010.06.03 13:42:01.
