data_PCOD9432066
_publ_section_title
;
Structure prediction by ZEFSAII (Michael W. Deem and Ramdas Pophale) SiO2 
 PCOD9432066
Probable space group: P C C N
;
_chemical_formula_sum "Si O2"
_cell_formula_units_Z 56
_cell_length_a 23.048310
_cell_length_b 8.270726
_cell_length_c 14.007220
_cell_angle_alpha 90.000000
_cell_angle_beta 90.000000
_cell_angle_gamma 90.000000
_cell_volume 2670.143916
_symmetry_space_group_name_H-M "P C C N"
_symmetry_group_IT_number 56
_symmetry_cell_setting 'orthorhombic'
loop_
_space_group_symop_operation_xyz
x,y,z
1/2-x,1/2-y,z
1/2+x,-y,1/2-z
-x,1/2+y,1/2-z
-x,-y,-z
1/2+x,1/2+y,-z
1/2-x,y,1/2+z
x,1/2-y,1/2+z
loop_
_atom_site_type_symbol
_atom_site_label
_atom_site_fract_x
_atom_site_fract_y
_atom_site_fract_z
Si Si1 0.188713 0.329753 0.926740
Si Si2 0.379791 0.366812 0.777758
Si Si3 0.521977 0.864135 0.574171
Si Si4 0.811487 0.302151 0.009688
Si Si5 0.898114 0.333964 0.361292
Si Si6 0.105102 0.210432 0.080001
Si Si7 0.684918 0.186622 0.715223
O O1 0.250000 0.250000 0.906635
O O2 0.148715 0.279857 0.837357
O O3 0.192151 0.519098 0.947320
O O4 0.163615 0.251952 0.023744
O O5 0.431269 0.426779 0.848236
O O6 0.403296 0.307951 0.676723
O O7 0.331845 0.504140 0.757370
O O8 0.466409 0.795856 0.630096
O O9 0.556394 0.750607 0.499984
O O10 0.500000 0.000000 0.500000
O O11 0.750000 0.250000 0.964683
O O12 0.820221 0.188820 0.101077
O O13 0.863056 0.275247 0.936690
O O14 0.892968 0.521377 0.391878
O O15 0.864439 0.298190 0.263320
O O16 0.750000 0.250000 0.737728
#
# Coordination Sequence:
#
# PCOD9432066 Si02
#       7
#     8   8   8   8   8   8   8
#     4  11  22  39  62  89 121 162 203 253 314 375
#     4  11  23  41  63  91 126 163 208 259 312 373
#     4   9  21  41  63  88 123 165 207 255 310 369
#     4  11  22  39  60  88 122 158 200 252 309 371
#     4  11  22  39  63  90 122 161 205 254 307 370
#     4  10  22  40  59  88 122 159 203 252 306 369
#     4  11  23  39  60  90 123 160 205 257 313 375
#
# _framework density 20.972653000000001
#
# number of rings (size 3 to 8) (size 9 to 14) (size 15 to 20)
#    0.000    1.429    0.000    7.286    0.000    5.143 
#    0.000    6.429    0.000    0.000    0.000    0.000 
#    0.000    0.000    0.000    0.000    0.000    0.000 
#
# Total GULP energy -312597.969861 kJ/mol
# GULP energy per Si atom -5582.106605 kJ/mol
# Density = 2.092492 g / cm^3
# Si number density = 20.972653 Si / 1000 Ang^3
#
#
#
# Elastic Constant Matrix: (Units=GPa)
#
#
# Indices 1 2 3 4 5 6 
#
# 1 123.3145 9.8827 32.6423 0.0000 0.0000 0.0000
# 2 9.8827 69.4796 -6.7264 0.0000 0.0000 0.0000
# 3 32.6423 -6.7264 98.6681 0.0000 0.0000 0.0000
# 4 0.0000 0.0000 0.0000 23.5934 0.0000 0.0000
# 5 0.0000 0.0000 0.0000 0.0000 10.6995 0.0000
# 6 0.0000 0.0000 0.0000 0.0000 0.0000 21.4785
#
#
#
# Elastic Compliance Matrix: (Units=1/GPa)
#
#
# Indices 1 2 3 4 5 6 
#
# 1 0.009059 -0.001589 -0.003105 0.000000 0.000000 0.000000
# 2 -0.001589 0.014767 0.001532 0.000000 0.000000 0.000000
# 3 -0.003105 0.001532 0.011267 0.000000 0.000000 0.000000
# 4 0.000000 0.000000 0.000000 0.042385 0.000000 0.000000
# 5 0.000000 0.000000 0.000000 0.000000 0.093462 0.000000
# 6 0.000000 0.000000 0.000000 0.000000 0.000000 0.046558
#
#
# Mechanical properties :
#
#
# Convention : Reuss Voigt Hill
#
# Bulk Modulus (GPa) = 34.75994 40.33992 37.54993
# Shear Modulus (GPa) = 21.42146 28.19853 24.80999
#
# Velocity S-wave (km/s) = 3.19940 3.67077 3.44316
# Velocity P-wave (km/s) = 5.50074 6.10265 5.80950
#
# Compressibility (1/GPa) = 0.02876875
#
# Stress axis : x y z
#
# Youngs Moduli (GPa) = 110.39145 67.71805 88.75674
#
# Poissons Ratio (x) = 0.10761 0.27561
# Poissons Ratio (y) = 0.17542 -0.13601
# Poissons Ratio (z) = 0.34279 -0.10377
#
# Static dielectric constant tensor:
#      x y z
#    x 1.815590 0.000000 0.000000 
#    y 0.000000 1.797120 0.000000 
#    z 0.000000 0.000000 1.737070 
# 
# From -- ./inp_files/13076.got.cif
#   From: 2010.05.17/outbox.cif.g08.bks.cpg/sg56_7_cif.got.tgz:13076.got - 2010.06.03 13:42:01.
