data_PCOD9432168
_publ_section_title
;
Structure prediction by ZEFSAII (Michael W. Deem and Ramdas Pophale) SiO2 
 PCOD9432168
Probable space group: P C C N
;
_chemical_formula_sum "Si O2"
_cell_formula_units_Z 52
_cell_length_a 5.223046
_cell_length_b 33.888079
_cell_length_c 13.292893
_cell_angle_alpha 90.000000
_cell_angle_beta 90.000000
_cell_angle_gamma 90.000000
_cell_volume 2352.828708
_symmetry_space_group_name_H-M "P C C N"
_symmetry_group_IT_number 56
_symmetry_cell_setting 'orthorhombic'
loop_
_space_group_symop_operation_xyz
x,y,z
1/2-x,1/2-y,z
1/2+x,-y,1/2-z
-x,1/2+y,1/2-z
-x,-y,-z
1/2+x,1/2+y,-z
1/2-x,y,1/2+z
x,1/2-y,1/2+z
loop_
_atom_site_type_symbol
_atom_site_label
_atom_site_fract_x
_atom_site_fract_y
_atom_site_fract_z
Si Si1 0.402878 0.343550 0.418944
Si Si2 0.403835 0.830073 0.447240
Si Si3 0.495658 0.235469 0.847243
Si Si4 0.604904 0.083191 0.606292
Si Si5 0.891055 0.569951 0.028387
Si Si6 0.750000 0.250000 0.660557
Si Si7 0.008049 0.023271 0.278056
O O1 0.654561 0.338396 0.486006
O O2 0.457725 0.311068 0.333200
O O3 0.375278 0.390034 0.403341
O O4 0.154168 0.330561 0.482476
O O5 0.426068 0.869622 0.379661
O O6 0.345221 0.788807 0.394244
O O7 0.250000 0.250000 0.905096
O O8 0.526404 0.259194 0.742690
O O9 0.750000 0.250000 0.902813
O O10 0.373500 0.068890 0.533356
O O11 0.583057 0.060087 0.710274
O O12 0.872591 0.074394 0.549229
O O13 0.059272 0.464977 0.893399
O O14 0.774613 0.992687 0.267125
#
# Coordination Sequence:
#
# PCOD9432168 Si02
#       7
#     8   8   8   8   8   4   8
#     4  10  22  41  62  86 118 173 214 253 321 385
#     4  10  23  39  64  88 122 166 214 264 320 378
#     4  10  23  37  54  87 119 159 204 258 321 364
#     4  10  23  45  65  96 132 175 218 269 326 393
#     4  10  23  44  67  93 133 173 216 269 325 390
#     4  10  26  36  60  94 124 160 210 270 326 364
#     4  12  26  41  69 105 130 174 217 268 338 399
#
# _framework density 22.101056
#
# number of rings (size 3 to 8) (size 9 to 14) (size 15 to 20)
#    0.462    1.231    0.000    2.769    7.538    3.692 
#    0.000    1.538    0.000    0.000    0.000    0.000 
#    0.000    0.000    0.000    0.000    0.000    0.000 
#
# Total GULP energy -290019.078634 kJ/mol
# GULP energy per Si atom -5577.289974 kJ/mol
# Density = 2.205075 g / cm^3
# Si number density = 22.101056 Si / 1000 Ang^3
#
#
#
# Elastic Constant Matrix: (Units=GPa)
#
#
# Indices 1 2 3 4 5 6 
#
# 1 149.1955 6.6237 3.7778 0.0000 0.0000 0.0000
# 2 6.6237 57.3251 28.2027 0.0000 0.0000 0.0000
# 3 3.7778 28.2027 48.1715 0.0000 0.0000 0.0000
# 4 0.0000 0.0000 0.0000 44.7935 0.0000 0.0000
# 5 0.0000 0.0000 0.0000 0.0000 15.1905 0.0000
# 6 0.0000 0.0000 0.0000 0.0000 0.0000 35.1558
#
#
#
# Elastic Compliance Matrix: (Units=1/GPa)
#
#
# Indices 1 2 3 4 5 6 
#
# 1 0.006738 -0.000728 -0.000102 0.000000 0.000000 0.000000
# 2 -0.000728 0.024580 -0.014334 0.000000 0.000000 0.000000
# 3 -0.000102 -0.014334 0.029159 0.000000 0.000000 0.000000
# 4 0.000000 0.000000 0.000000 0.022325 0.000000 0.000000
# 5 0.000000 0.000000 0.000000 0.000000 0.065831 0.000000
# 6 0.000000 0.000000 0.000000 0.000000 0.000000 0.028445
#
#
# Mechanical properties :
#
#
# Convention : Reuss Voigt Hill
#
# Bulk Modulus (GPa) = 33.16885 36.87785 35.02335
# Shear Modulus (GPa) = 22.99324 33.43381 28.21353
#
# Velocity S-wave (km/s) = 3.22897 3.89365 3.57679
# Velocity P-wave (km/s) = 5.37978 6.07752 5.73927
#
# Compressibility (1/GPa) = 0.03014877
#
# Stress axis : x y z
#
# Youngs Moduli (GPa) = 148.42227 40.68273 34.29463
#
# Poissons Ratio (x) = 0.02963 0.00350
# Poissons Ratio (y) = 0.10810 0.49157
# Poissons Ratio (z) = 0.01514 0.58314
#
# Static dielectric constant tensor:
#      x y z
#    x 1.848920 0.000000 0.000000 
#    y 0.000000 1.879560 0.000000 
#    z 0.000000 0.000000 1.792650 
# 
# From -- ./inp_files/14058.got.cif
#   From: 2010.05.17/outbox.cif.g08.bks.cpg/sg56_8_cif.got.tgz:14058.got - 2010.06.03 13:42:01.
