data_PCOD9432820
_publ_section_title
;
Structure prediction by ZEFSAII (Michael W. Deem and Ramdas Pophale) SiO2 
 PCOD9432820
Probable space group: P C C N
;
_chemical_formula_sum "Si O2"
_cell_formula_units_Z 44
_cell_length_a 18.711318
_cell_length_b 13.870114
_cell_length_c 8.442948
_cell_angle_alpha 90.000000
_cell_angle_beta 90.000000
_cell_angle_gamma 90.000000
_cell_volume 2191.182369
_symmetry_space_group_name_H-M "P C C N"
_symmetry_group_IT_number 56
_symmetry_cell_setting 'orthorhombic'
loop_
_space_group_symop_operation_xyz
x,y,z
1/2-x,1/2-y,z
1/2+x,-y,1/2-z
-x,1/2+y,1/2-z
-x,-y,-z
1/2+x,1/2+y,-z
1/2-x,y,1/2+z
x,1/2-y,1/2+z
loop_
_atom_site_type_symbol
_atom_site_label
_atom_site_fract_x
_atom_site_fract_y
_atom_site_fract_z
Si Si1 0.513232 0.823353 0.194763
Si Si2 0.597622 0.988946 0.324922
Si Si3 0.115563 0.949945 0.809534
Si Si4 0.527571 0.614980 0.328698
Si Si5 0.781458 0.393270 0.211510
Si Si6 0.750000 0.250000 0.959943
O O1 0.436940 0.863084 0.258059
O O2 0.525425 0.711102 0.223450
O O3 0.571685 0.880853 0.298851
O O4 0.521140 0.854617 0.011730
O O5 0.600306 0.019407 0.508482
O O6 0.539755 0.052539 0.230316
O O7 0.672130 0.013458 0.240739
O O8 0.197673 0.918645 0.791929
O O9 0.093934 0.043131 0.704334
O O10 0.797577 0.319073 0.353292
O O11 0.795458 0.325462 0.061443
#
# Coordination Sequence:
#
# PCOD9432820 Si02
#       6
#     8   8   8   8   8   4
#     4  11  24  40  63  87 121 159 202 245 297 354
#     4  11  23  40  62  90 123 157 198 249 296 354
#     4  11  23  40  62  90 123 157 198 249 296 354
#     4  11  24  40  63  87 121 159 202 245 297 354
#     4  11  24  38  61  90 124 154 201 242 299 354
#     4  10  24  38  56  94 122 162 188 240 308 354
#
# _framework density 20.080482
#
# number of rings (size 3 to 8) (size 9 to 14) (size 15 to 20)
#    0.000    1.091    1.818    6.545   10.182    0.000 
#    0.000    0.909    0.000    4.364    0.000    0.000 
#    0.000    0.000    0.000    0.000    0.000    0.000 
#
# Total GULP energy -245869.584333 kJ/mol
# GULP energy per Si atom -5587.945098 kJ/mol
# Density = 2.003478 g / cm^3
# Si number density = 20.080482 Si / 1000 Ang^3
#
#
#
# Elastic Constant Matrix: (Units=GPa)
#
#
# Indices 1 2 3 4 5 6 
#
# 1 91.6243 23.2543 2.4097 0.0000 0.0000 0.0000
# 2 23.2543 90.8823 -4.4932 0.0000 0.0000 0.0000
# 3 2.4097 -4.4932 102.2275 0.0000 0.0000 0.0000
# 4 0.0000 0.0000 0.0000 36.1036 0.0000 0.0000
# 5 0.0000 0.0000 0.0000 0.0000 13.4947 0.0000
# 6 0.0000 0.0000 0.0000 0.0000 0.0000 11.9043
#
#
#
# Elastic Compliance Matrix: (Units=1/GPa)
#
#
# Indices 1 2 3 4 5 6 
#
# 1 0.011689 -0.003011 -0.000408 0.000000 0.000000 0.000000
# 2 -0.003011 0.011803 0.000590 0.000000 0.000000 0.000000
# 3 -0.000408 0.000590 0.009818 0.000000 0.000000 0.000000
# 4 0.000000 0.000000 0.000000 0.027698 0.000000 0.000000
# 5 0.000000 0.000000 0.000000 0.000000 0.074103 0.000000
# 6 0.000000 0.000000 0.000000 0.000000 0.000000 0.084003
#
#
# Mechanical properties :
#
#
# Convention : Reuss Voigt Hill
#
# Bulk Modulus (GPa) = 36.16488 36.34175 36.25332
# Shear Modulus (GPa) = 21.36845 29.87140 25.61993
#
# Velocity S-wave (km/s) = 3.26566 3.86111 3.57580
# Velocity P-wave (km/s) = 5.68053 6.16562 5.92804
#
# Compressibility (1/GPa) = 0.02765114
#
# Stress axis : x y z
#
# Youngs Moduli (GPa) = 85.55002 84.72535 101.85744
#
# Poissons Ratio (x) = 0.25511 0.04155
# Poissons Ratio (y) = 0.25760 -0.06007
# Poissons Ratio (z) = 0.03489 -0.04997
#
# Static dielectric constant tensor:
#      x y z
#    x 1.731370 0.000000 0.000000 
#    y 0.000000 1.743250 0.000000 
#    z 0.000000 0.000000 1.783510 
# 
# From -- ./inp_files/3335.got.cif
#   From: 2010.05.17/outbox.cif.g08.bks.cpg/sg56_2_cif.got.tgz:3335.got - 2010.06.03 13:42:01.
