data_PCOD9432646
_publ_section_title
;
Structure prediction by ZEFSAII (Michael W. Deem and Ramdas Pophale) SiO2 
 PCOD9432646
Probable space group: P C C N
;
_chemical_formula_sum "Si O2"
_cell_formula_units_Z 40
_cell_length_a 21.992386
_cell_length_b 10.265191
_cell_length_c 8.682552
_cell_angle_alpha 90.000000
_cell_angle_beta 90.000000
_cell_angle_gamma 90.000000
_cell_volume 1960.138581
_symmetry_space_group_name_H-M "P C C N"
_symmetry_group_IT_number 56
_symmetry_cell_setting 'orthorhombic'
loop_
_space_group_symop_operation_xyz
x,y,z
1/2-x,1/2-y,z
1/2+x,-y,1/2-z
-x,1/2+y,1/2-z
-x,-y,-z
1/2+x,1/2+y,-z
1/2-x,y,1/2+z
x,1/2-y,1/2+z
loop_
_atom_site_type_symbol
_atom_site_label
_atom_site_fract_x
_atom_site_fract_y
_atom_site_fract_z
Si Si1 0.809505 0.170625 0.410698
Si Si2 0.793229 0.606402 0.777608
Si Si3 0.937786 0.439043 0.440534
Si Si4 0.666252 0.841490 0.431382
Si Si5 0.104153 0.795096 0.332290
O O1 0.750000 0.250000 0.466186
O O2 0.846846 0.263557 0.298976
O O3 0.855719 0.127563 0.544253
O O4 0.797083 0.045743 0.309090
O O5 0.809033 0.641025 0.603514
O O6 0.839681 0.688805 0.886994
O O7 0.722721 0.629888 0.818476
O O8 0.888533 0.555861 0.418163
O O9 0.944988 0.369691 0.272494
O O10 0.917964 0.332187 0.571777
O O11 0.000000 0.500000 0.500000
#
# Coordination Sequence:
#
# PCOD9432646 Si02
#       5
#     8   8   8   8   8
#     4  11  22  37  68  97 134 168 209 273 347 408
#     4  11  23  39  63  99 134 169 220 271 354 410
#     4  11  25  47  68  92 137 180 236 282 340 408
#     4  11  24  40  63  97 136 173 218 282 340 417
#     4  10  23  43  61  99 127 165 229 277 321 416
#
# _framework density 20.406718999999999
#
# number of rings (size 3 to 8) (size 9 to 14) (size 15 to 20)
#    0.000    1.200    2.000    5.400    8.400    1.600 
#    0.000    2.000    0.000    0.000    0.000    0.000 
#    0.000    0.000    0.000    0.000    0.000    0.000 
#
# Total GULP energy -222858.443385 kJ/mol
# GULP energy per Si atom -5571.461085 kJ/mol
# Density = 2.036027 g / cm^3
# Si number density = 20.406719 Si / 1000 Ang^3
#
#
#
# Elastic Constant Matrix: (Units=GPa)
#
#
# Indices 1 2 3 4 5 6 
#
# 1 64.2254 19.6749 20.6325 0.0000 0.0000 0.0000
# 2 19.6749 58.5955 4.3327 0.0000 0.0000 0.0000
# 3 20.6325 4.3327 79.3697 0.0000 0.0000 0.0000
# 4 0.0000 0.0000 0.0000 27.0574 0.0000 0.0000
# 5 0.0000 0.0000 0.0000 0.0000 17.0601 0.0000
# 6 0.0000 0.0000 0.0000 0.0000 0.0000 35.0106
#
#
#
# Elastic Compliance Matrix: (Units=1/GPa)
#
#
# Indices 1 2 3 4 5 6 
#
# 1 0.018880 -0.006001 -0.004580 0.000000 0.000000 0.000000
# 2 -0.006001 0.019043 0.000520 0.000000 0.000000 0.000000
# 3 -0.004580 0.000520 0.013762 0.000000 0.000000 0.000000
# 4 0.000000 0.000000 0.000000 0.036958 0.000000 0.000000
# 5 0.000000 0.000000 0.000000 0.000000 0.058616 0.000000
# 6 0.000000 0.000000 0.000000 0.000000 0.000000 0.028563
#
#
# Mechanical properties :
#
#
# Convention : Reuss Voigt Hill
#
# Bulk Modulus (GPa) = 31.68296 32.38563 32.03430
# Shear Modulus (GPa) = 24.21732 26.32897 25.27314
#
# Velocity S-wave (km/s) = 3.44864 3.59585 3.52301
# Velocity P-wave (km/s) = 5.60508 5.75714 5.68162
#
# Compressibility (1/GPa) = 0.03156270
#
# Stress axis : x y z
#
# Youngs Moduli (GPa) = 52.96644 52.51388 72.66635
#
# Poissons Ratio (x) = 0.31512 0.33284
# Poissons Ratio (y) = 0.31784 -0.03782
# Poissons Ratio (z) = 0.24260 -0.02733
#
# Static dielectric constant tensor:
#      x y z
#    x 1.888490 0.000000 0.000000 
#    y 0.000000 2.396120 0.000000 
#    z 0.000000 0.000000 1.749050 
# 
# From -- ./inp_files/2691.got.cif
#   From: 2010.05.17/outbox.cif.g08.bks.cpg/sg56_2_cif.got.tgz:2691.got - 2010.06.03 13:42:01.
