data_PCOD9432452
_publ_section_title
;
Structure prediction by ZEFSAII (Michael W. Deem and Ramdas Pophale) SiO2 
 PCOD9432452
Probable space group: P C C N
;
_chemical_formula_sum "Si O2"
_cell_formula_units_Z 36
_cell_length_a 6.785372
_cell_length_b 20.995517
_cell_length_c 12.087242
_cell_angle_alpha 90.000000
_cell_angle_beta 90.000000
_cell_angle_gamma 90.000000
_cell_volume 1721.977422
_symmetry_space_group_name_H-M "P C C N"
_symmetry_group_IT_number 56
_symmetry_cell_setting 'orthorhombic'
loop_
_space_group_symop_operation_xyz
x,y,z
1/2-x,1/2-y,z
1/2+x,-y,1/2-z
-x,1/2+y,1/2-z
-x,-y,-z
1/2+x,1/2+y,-z
1/2-x,y,1/2+z
x,1/2-y,1/2+z
loop_
_atom_site_type_symbol
_atom_site_label
_atom_site_fract_x
_atom_site_fract_y
_atom_site_fract_z
Si Si1 0.631254 0.131575 0.994802
Si Si2 0.858510 0.017106 0.100440
Si Si3 0.635292 0.689335 0.340660
Si Si4 0.750000 0.250000 0.119920
Si Si5 0.595693 0.907631 0.210050
O O1 0.773997 0.189470 0.035808
O O2 0.575736 0.121297 0.868027
O O3 0.708638 0.067876 0.049884
O O4 0.425879 0.146622 0.056113
O O5 0.986510 0.051976 0.194874
O O6 0.738431 0.956874 0.146400
O O7 0.000000 0.000000 0.000000
O O8 0.750000 0.750000 0.383656
O O9 0.427472 0.722410 0.305385
O O10 0.765567 0.648512 0.257568
#
# Coordination Sequence:
#
# PCOD9432452 Si02
#       5
#     8   8   8   4   8
#     4  10  23  46  68 100 143 185 236 296 357 419
#     4  12  25  45  69 106 146 183 238 306 354 432
#     4  10  22  45  69 102 140 183 240 296 348 423
#     4   8  22  44  72  92 148 180 232 302 348 402
#     4  12  24  42  74 103 139 194 241 284 376 431
#
# _framework density 20.906199000000001
#
# number of rings (size 3 to 8) (size 9 to 14) (size 15 to 20)
#    1.333    0.000    0.000    6.000    0.000    0.889 
#    8.000    0.000    0.000    0.000    0.000    0.000 
#    0.000    0.000    0.000    0.000    0.000    0.000 
#
# Total GULP energy -200582.885257 kJ/mol
# GULP energy per Si atom -5571.746813 kJ/mol
# Density = 2.085862 g / cm^3
# Si number density = 20.906199 Si / 1000 Ang^3
#
#
#
# Elastic Constant Matrix: (Units=GPa)
#
#
# Indices 1 2 3 4 5 6 
#
# 1 57.1288 52.1341 23.0581 0.0000 0.0000 0.0000
# 2 52.1341 125.3717 50.4132 0.0000 0.0000 0.0000
# 3 23.0581 50.4132 78.3965 0.0000 0.0000 0.0000
# 4 0.0000 0.0000 0.0000 5.1583 0.0000 0.0000
# 5 0.0000 0.0000 0.0000 0.0000 29.0822 0.0000
# 6 0.0000 0.0000 0.0000 0.0000 0.0000 55.7272
#
#
#
# Elastic Compliance Matrix: (Units=1/GPa)
#
#
# Indices 1 2 3 4 5 6 
#
# 1 0.028269 -0.011346 -0.001019 0.000000 0.000000 0.000000
# 2 -0.011346 0.015312 -0.006509 0.000000 0.000000 0.000000
# 3 -0.001019 -0.006509 0.017241 0.000000 0.000000 0.000000
# 4 0.000000 0.000000 0.000000 0.193862 0.000000 0.000000
# 5 0.000000 0.000000 0.000000 0.000000 0.034385 0.000000
# 6 0.000000 0.000000 0.000000 0.000000 0.000000 0.017945
#
#
# Mechanical properties :
#
#
# Convention : Reuss Voigt Hill
#
# Bulk Modulus (GPa) = 43.33746 56.90087 50.11916
# Shear Modulus (GPa) = 14.18631 27.01298 20.59965
#
# Velocity S-wave (km/s) = 2.60776 3.59848 3.14241
# Velocity P-wave (km/s) = 5.46276 6.67396 6.09850
#
# Compressibility (1/GPa) = 0.02307473
#
# Stress axis : x y z
#
# Youngs Moduli (GPa) = 35.37411 65.30965 58.00108
#
# Poissons Ratio (x) = 0.74099 0.05908
# Poissons Ratio (y) = 0.40135 0.37754
# Poissons Ratio (z) = 0.03603 0.42511
#
# Static dielectric constant tensor:
#      x y z
#    x 1.942470 0.000000 0.000000 
#    y 0.000000 1.727240 0.000000 
#    z 0.000000 0.000000 1.727110 
# 
# From -- ./inp_files/5568.got.cif
#   From: 2010.05.17/outbox.cif.g08.bks.cpg/sg56_3_cif.got.tgz:5568.got - 2010.06.03 13:42:01.
