data_PCOD9432467
_publ_section_title
;
Structure prediction by ZEFSAII (Michael W. Deem and Ramdas Pophale) SiO2 
 PCOD9432467
Probable space group: P C C N
;
_chemical_formula_sum "Si O2"
_cell_formula_units_Z 40
_cell_length_a 9.198696
_cell_length_b 7.463640
_cell_length_c 25.467665
_cell_angle_alpha 90.000000
_cell_angle_beta 90.000000
_cell_angle_gamma 90.000000
_cell_volume 1748.501779
_symmetry_space_group_name_H-M "P C C N"
_symmetry_group_IT_number 56
_symmetry_cell_setting 'orthorhombic'
loop_
_space_group_symop_operation_xyz
x,y,z
1/2-x,1/2-y,z
1/2+x,-y,1/2-z
-x,1/2+y,1/2-z
-x,-y,-z
1/2+x,1/2+y,-z
1/2-x,y,1/2+z
x,1/2-y,1/2+z
loop_
_atom_site_type_symbol
_atom_site_label
_atom_site_fract_x
_atom_site_fract_y
_atom_site_fract_z
Si Si1 0.944216 0.465465 0.941608
Si Si2 0.018392 0.589133 0.323438
Si Si3 0.250000 0.250000 0.612254
Si Si4 0.459914 0.676283 0.704807
Si Si5 0.699896 0.547625 0.635050
Si Si6 0.250000 0.750000 0.622164
O O1 0.810346 0.593419 0.925479
O O2 0.884050 0.271646 0.920095
O O3 0.083505 0.512927 0.906843
O O4 0.000000 0.500000 0.000000
O O5 0.058505 0.666009 0.266513
O O6 0.162051 0.576831 0.358346
O O7 0.884676 0.683981 0.352019
O O8 0.982056 0.380990 0.312544
O O9 0.605812 0.570303 0.688595
O O10 0.326222 0.618581 0.667102
O O11 0.750000 0.750000 0.621423
#
# Coordination Sequence:
#
# PCOD9432467 Si02
#       6
#     8   8   4   8   8   4
#     4  11  26  48  75  97 135 184 237 296 360 399
#     4  11  25  42  68 102 147 183 231 276 350 428
#     4  12  28  46  66 110 140 178 240 298 340 428
#     4  10  23  38  69  99 145 187 221 277 352 420
#     4   9  23  45  66 100 134 181 236 285 338 422
#     4  10  22  46  66 104 140 186 230 290 346 424
#
# _framework density 22.876726000000001
#
# number of rings (size 3 to 8) (size 9 to 14) (size 15 to 20)
#    0.000    1.600    2.000    0.000   14.000    2.400 
#    0.000    2.000    0.000    0.000    0.000    0.000 
#    0.000    0.000    0.000    0.000    0.000    0.000 
#
# Total GULP energy -222957.405191 kJ/mol
# GULP energy per Si atom -5573.935130 kJ/mol
# Density = 2.282466 g / cm^3
# Si number density = 22.876726 Si / 1000 Ang^3
#
#
#
# Elastic Constant Matrix: (Units=GPa)
#
#
# Indices 1 2 3 4 5 6 
#
# 1 182.9092 45.8736 74.1802 0.0000 0.0000 0.0000
# 2 45.8736 77.1899 41.1484 0.0000 0.0000 0.0000
# 3 74.1802 41.1484 142.9269 0.0000 0.0000 0.0000
# 4 0.0000 0.0000 0.0000 20.9647 0.0000 0.0000
# 5 0.0000 0.0000 0.0000 0.0000 30.9969 0.0000
# 6 0.0000 0.0000 0.0000 0.0000 0.0000 56.6312
#
#
#
# Elastic Compliance Matrix: (Units=1/GPa)
#
#
# Indices 1 2 3 4 5 6 
#
# 1 0.007396 -0.002775 -0.003040 0.000000 0.000000 0.000000
# 2 -0.002775 0.016345 -0.003265 0.000000 0.000000 0.000000
# 3 -0.003040 -0.003265 0.009514 0.000000 0.000000 0.000000
# 4 0.000000 0.000000 0.000000 0.047699 0.000000 0.000000
# 5 0.000000 0.000000 0.000000 0.000000 0.032261 0.000000
# 6 0.000000 0.000000 0.000000 0.000000 0.000000 0.017658
#
#
# Mechanical properties :
#
#
# Convention : Reuss Voigt Hill
#
# Bulk Modulus (GPa) = 66.24690 80.60339 73.42514
# Shear Modulus (GPa) = 32.45372 37.84014 35.14693
#
# Velocity S-wave (km/s) = 3.77056 4.07146 3.92390
# Velocity P-wave (km/s) = 6.92656 7.57712 7.25913
#
# Compressibility (1/GPa) = 0.01509505
#
# Stress axis : x y z
#
# Youngs Moduli (GPa) = 135.21000 61.18089 105.10515
#
# Poissons Ratio (x) = 0.16978 0.31948
# Poissons Ratio (y) = 0.37521 0.34322
# Poissons Ratio (z) = 0.41099 0.19978
#
# Static dielectric constant tensor:
#      x y z
#    x 1.925820 0.000000 0.000000 
#    y 0.000000 2.164860 0.000000 
#    z 0.000000 0.000000 1.828750 
# 
# From -- ./inp_files/20353.got.cif
#   From: 2010.05.17/outbox.cif.g08.bks.cpg/sg56_11_cif.got.tgz:20353.got - 2010.06.03 13:42:01.
