data_PCOD9432034
_publ_section_title
;
Structure prediction by ZEFSAII (Michael W. Deem and Ramdas Pophale) SiO2 
 PCOD9432034
Probable space group: P C C N
;
_chemical_formula_sum "Si O2"
_cell_formula_units_Z 48
_cell_length_a 9.436502
_cell_length_b 13.532090
_cell_length_c 17.045372
_cell_angle_alpha 90.000000
_cell_angle_beta 90.000000
_cell_angle_gamma 90.000000
_cell_volume 2176.618908
_symmetry_space_group_name_H-M "P C C N"
_symmetry_group_IT_number 56
_symmetry_cell_setting 'orthorhombic'
loop_
_space_group_symop_operation_xyz
x,y,z
1/2-x,1/2-y,z
1/2+x,-y,1/2-z
-x,1/2+y,1/2-z
-x,-y,-z
1/2+x,1/2+y,-z
1/2-x,y,1/2+z
x,1/2-y,1/2+z
loop_
_atom_site_type_symbol
_atom_site_label
_atom_site_fract_x
_atom_site_fract_y
_atom_site_fract_z
Si Si1 0.859479 0.457954 0.460152
Si Si2 0.750093 0.541121 0.212904
Si Si3 0.326992 0.150136 0.635549
Si Si4 0.935372 0.386059 0.302619
Si Si5 0.895272 0.041589 0.566133
Si Si6 0.415720 0.765951 0.839097
O O1 0.794704 0.553560 0.414861
O O2 0.897141 0.378751 0.393404
O O3 0.744514 0.421585 0.521116
O O4 0.000000 0.500000 0.500000
O O5 0.788825 0.626729 0.274345
O O6 0.807605 0.443865 0.258335
O O7 0.581127 0.550191 0.201269
O O8 0.836142 0.536623 0.130964
O O9 0.250000 0.250000 0.609768
O O10 0.493089 0.174856 0.631247
O O11 0.952788 0.287945 0.251818
O O12 0.958093 0.134106 0.614221
O O13 0.000000 0.000000 0.500000
O O14 0.250000 0.750000 0.846823
#
# Coordination Sequence:
#
# PCOD9432034 Si02
#       6
#     8   8   8   8   8   8
#     4  11  22  40  66  90 130 171 208 257 323 391
#     4  10  22  39  64  91 122 165 217 254 308 391
#     4  11  22  40  65  92 125 165 216 270 322 369
#     4  10  22  39  64  91 121 167 216 253 312 388
#     4  11  24  42  65  95 130 173 215 255 322 400
#     4  11  24  42  64  94 128 164 219 277 324 372
#
# _framework density 22.052551000000001
#
# number of rings (size 3 to 8) (size 9 to 14) (size 15 to 20)
#    0.000    1.333    3.333    2.000   14.000    0.000 
#    0.000   10.000    0.000    0.000    0.000    0.000 
#    0.000    0.000    0.000    0.000    0.000    0.000 
#
# Total GULP energy -268121.618427 kJ/mol
# GULP energy per Si atom -5585.867051 kJ/mol
# Density = 2.200236 g / cm^3
# Si number density = 22.052551 Si / 1000 Ang^3
#
#
#
# Elastic Constant Matrix: (Units=GPa)
#
#
# Indices 1 2 3 4 5 6 
#
# 1 84.7233 -11.3790 11.8379 0.0000 0.0000 0.0000
# 2 -11.3790 45.3390 1.0538 0.0000 0.0000 0.0000
# 3 11.8379 1.0538 109.8157 0.0000 0.0000 0.0000
# 4 0.0000 0.0000 0.0000 28.5712 0.0000 0.0000
# 5 0.0000 0.0000 0.0000 0.0000 39.0328 0.0000
# 6 0.0000 0.0000 0.0000 0.0000 0.0000 31.9925
#
#
#
# Elastic Compliance Matrix: (Units=1/GPa)
#
#
# Indices 1 2 3 4 5 6 
#
# 1 0.012417 0.003148 -0.001369 0.000000 0.000000 0.000000
# 2 0.003148 0.022859 -0.000559 0.000000 0.000000 0.000000
# 3 -0.001369 -0.000559 0.009259 0.000000 0.000000 0.000000
# 4 0.000000 0.000000 0.000000 0.035000 0.000000 0.000000
# 5 0.000000 0.000000 0.000000 0.000000 0.025620 0.000000
# 6 0.000000 0.000000 0.000000 0.000000 0.000000 0.031257
#
#
# Mechanical properties :
#
#
# Convention : Reuss Voigt Hill
#
# Bulk Modulus (GPa) = 21.28705 26.98928 24.13816
# Shear Modulus (GPa) = 33.41574 35.81031 34.61303
#
# Velocity S-wave (km/s) = 3.89688 4.03409 3.96608
# Velocity P-wave (km/s) = 5.47005 5.82784 5.65177
#
# Compressibility (1/GPa) = 0.04697692
#
# Stress axis : x y z
#
# Youngs Moduli (GPa) = 80.53340 43.74613 108.00213
#
# Poissons Ratio (x) = -0.13772 0.14783
# Poissons Ratio (y) = -0.25354 0.06034
# Poissons Ratio (z) = 0.11023 0.02444
#
# Static dielectric constant tensor:
#      x y z
#    x 1.830480 0.000000 0.000000 
#    y 0.000000 1.838110 0.000000 
#    z 0.000000 0.000000 1.822670 
# 
# From -- ./inp_files/14841.got.cif
#   From: 2010.05.17/outbox.cif.g08.bks.cpg/sg56_8_cif.got.tgz:14841.got - 2010.06.03 13:42:01.
