data_PCOD9432158
_publ_section_title
;
Structure prediction by ZEFSAII (Michael W. Deem and Ramdas Pophale) SiO2 
 PCOD9432158
Probable space group: P C C N
;
_chemical_formula_sum "Si O2"
_cell_formula_units_Z 48
_cell_length_a 15.535801
_cell_length_b 8.679519
_cell_length_c 15.094978
_cell_angle_alpha 90.000000
_cell_angle_beta 90.000000
_cell_angle_gamma 90.000000
_cell_volume 2035.456344
_symmetry_space_group_name_H-M "P C C N"
_symmetry_group_IT_number 56
_symmetry_cell_setting 'orthorhombic'
loop_
_space_group_symop_operation_xyz
x,y,z
1/2-x,1/2-y,z
1/2+x,-y,1/2-z
-x,1/2+y,1/2-z
-x,-y,-z
1/2+x,1/2+y,-z
1/2-x,y,1/2+z
x,1/2-y,1/2+z
loop_
_atom_site_type_symbol
_atom_site_label
_atom_site_fract_x
_atom_site_fract_y
_atom_site_fract_z
Si Si1 0.750000 0.250000 0.221355
Si Si2 0.352389 0.273860 0.212776
Si Si3 0.547598 0.872354 0.439820
Si Si4 0.363989 0.934378 0.146566
Si Si5 0.389901 0.810070 0.900438
Si Si6 0.750000 0.250000 0.476370
Si Si7 0.945011 0.649005 0.100551
O O1 0.818091 0.144523 0.270551
O O2 0.684003 0.143835 0.168453
O O3 0.250000 0.250000 0.223016
O O4 0.380099 0.397718 0.136058
O O5 0.396840 0.307111 0.307667
O O6 0.381816 0.109743 0.170869
O O7 0.471283 0.794624 0.380839
O O8 0.578141 0.755883 0.517224
O O9 0.500000 0.000000 0.500000
O O10 0.289718 0.894177 0.075364
O O11 0.452410 0.848846 0.120676
O O12 0.424739 0.974773 0.929605
O O13 0.332264 0.705790 0.965932
#
# Coordination Sequence:
#
# PCOD9432158 Si02
#       7
#     4   8   8   8   8   4   8
#     4  10  24  38  76 104 144 188 254 302 368 466
#     4  12  29  47  73 111 158 196 254 320 388 448
#     4  12  28  46  75 108 148 200 257 312 383 463
#     4  11  23  45  72 106 144 195 246 307 380 451
#     4  11  22  46  69 105 141 192 250 308 375 448
#     4  10  22  40  76 100 136 182 256 308 364 450
#     4  12  26  48  78 103 155 200 251 310 389 455
#
# _framework density 23.581935000000001
#
# number of rings (size 3 to 8) (size 9 to 14) (size 15 to 20)
#    0.000    0.667    3.333    3.500    7.000    0.667 
#    0.000    0.000    0.000    0.000    0.000    0.000 
#    0.000    0.000    0.000    0.000    0.000    0.000 
#
# Total GULP energy -267623.322566 kJ/mol
# GULP energy per Si atom -5575.485887 kJ/mol
# Density = 2.352826 g / cm^3
# Si number density = 23.581935 Si / 1000 Ang^3
#
#
#
# Elastic Constant Matrix: (Units=GPa)
#
#
# Indices 1 2 3 4 5 6 
#
# 1 169.0730 20.8021 72.5727 0.0000 0.0000 0.0000
# 2 20.8021 41.9217 6.6004 0.0000 0.0000 0.0000
# 3 72.5727 6.6004 119.9448 0.0000 0.0000 0.0000
# 4 0.0000 0.0000 0.0000 36.5529 0.0000 0.0000
# 5 0.0000 0.0000 0.0000 0.0000 50.1879 0.0000
# 6 0.0000 0.0000 0.0000 0.0000 0.0000 35.1670
#
#
#
# Elastic Compliance Matrix: (Units=1/GPa)
#
#
# Indices 1 2 3 4 5 6 
#
# 1 0.008448 -0.003417 -0.004924 0.000000 0.000000 0.000000
# 2 -0.003417 0.025444 0.000667 0.000000 0.000000 0.000000
# 3 -0.004924 0.000667 0.011280 0.000000 0.000000 0.000000
# 4 0.000000 0.000000 0.000000 0.027358 0.000000 0.000000
# 5 0.000000 0.000000 0.000000 0.000000 0.019925 0.000000
# 6 0.000000 0.000000 0.000000 0.000000 0.000000 0.028436
#
#
# Mechanical properties :
#
#
# Convention : Reuss Voigt Hill
#
# Bulk Modulus (GPa) = 33.52824 58.98778 46.25801
# Shear Modulus (GPa) = 34.20447 39.77919 36.99183
#
# Velocity S-wave (km/s) = 3.81261 4.11158 3.96492
# Velocity P-wave (km/s) = 5.79914 6.89989 6.37332
#
# Compressibility (1/GPa) = 0.02982560
#
# Stress axis : x y z
#
# Youngs Moduli (GPa) = 118.36460 39.30125 88.65605
#
# Poissons Ratio (x) = 0.13429 0.43652
# Poissons Ratio (y) = 0.40446 -0.05916
# Poissons Ratio (z) = 0.58279 -0.02623
#
# Static dielectric constant tensor:
#      x y z
#    x 1.851780 0.000000 0.000000 
#    y 0.000000 1.958990 0.000000 
#    z 0.000000 0.000000 2.117270 
# 
# From -- ./inp_files/16201.got.cif
#   From: 2010.05.17/outbox.cif.g08.bks.cpg/sg56_9_cif.got.tgz:16201.got - 2010.06.03 13:42:01.
