data_PCOD9432441
_publ_section_title
;
Structure prediction by ZEFSAII (Michael W. Deem and Ramdas Pophale) SiO2 
 PCOD9432441
Probable space group: P C C N
;
_chemical_formula_sum "Si O2"
_cell_formula_units_Z 48
_cell_length_a 8.620836
_cell_length_b 12.565757
_cell_length_c 17.568663
_cell_angle_alpha 90.000000
_cell_angle_beta 90.000000
_cell_angle_gamma 90.000000
_cell_volume 1903.166360
_symmetry_space_group_name_H-M "P C C N"
_symmetry_group_IT_number 56
_symmetry_cell_setting 'orthorhombic'
loop_
_space_group_symop_operation_xyz
x,y,z
1/2-x,1/2-y,z
1/2+x,-y,1/2-z
-x,1/2+y,1/2-z
-x,-y,-z
1/2+x,1/2+y,-z
1/2-x,y,1/2+z
x,1/2-y,1/2+z
loop_
_atom_site_type_symbol
_atom_site_label
_atom_site_fract_x
_atom_site_fract_y
_atom_site_fract_z
Si Si1 0.675999 0.137898 0.661924
Si Si2 0.426913 0.385251 0.529682
Si Si3 0.599049 0.561840 0.936536
Si Si4 0.129110 0.593344 0.692978
Si Si5 0.565652 0.276556 0.398460
Si Si6 0.949217 0.497139 0.158161
O O1 0.750000 0.250000 0.636224
O O2 0.730916 0.134217 0.751971
O O3 0.773071 0.033757 0.634727
O O4 0.510528 0.127207 0.621384
O O5 0.500000 0.500000 0.500000
O O6 0.507672 0.289465 0.484825
O O7 0.461173 0.399033 0.618784
O O8 0.257283 0.118553 0.522988
O O9 0.677064 0.473624 0.880486
O O10 0.500000 0.500000 0.000000
O O11 0.038767 0.518438 0.751775
O O12 0.017099 0.683731 0.659247
O O13 0.750000 0.250000 0.400995
O O14 0.500276 0.386978 0.366016
#
# Coordination Sequence:
#
# PCOD9432441 Si02
#       6
#     8   8   8   8   8   8
#     4  10  25  47  80 114 158 223 279 344 427 503
#     4  10  22  44  75 115 159 205 269 341 415 512
#     4  12  26  47  80 121 166 216 270 354 431 500
#     4  10  25  41  80 115 159 213 286 337 420 505
#     4  11  22  43  77 113 161 221 275 339 430 497
#     4   9  23  44  77 119 158 213 283 348 409 515
#
# _framework density 25.221126000000002
#
# number of rings (size 3 to 8) (size 9 to 14) (size 15 to 20)
#    1.000    0.667    0.000    4.500    7.000    2.000 
#    0.000    6.667    7.333    0.000    0.000    0.000 
#    0.000    0.000    0.000    0.000    0.000    0.000 
#
# Total GULP energy -267549.628280 kJ/mol
# GULP energy per Si atom -5573.950589 kJ/mol
# Density = 2.516372 g / cm^3
# Si number density = 25.221126 Si / 1000 Ang^3
#
#
#
# Elastic Constant Matrix: (Units=GPa)
#
#
# Indices 1 2 3 4 5 6 
#
# 1 111.9379 40.8937 23.0633 0.0000 0.0000 0.0000
# 2 40.8937 112.8364 31.3888 0.0000 0.0000 0.0000
# 3 23.0633 31.3888 128.1951 0.0000 0.0000 0.0000
# 4 0.0000 0.0000 0.0000 52.2952 0.0000 0.0000
# 5 0.0000 0.0000 0.0000 0.0000 40.7508 0.0000
# 6 0.0000 0.0000 0.0000 0.0000 0.0000 43.6743
#
#
#
# Elastic Compliance Matrix: (Units=1/GPa)
#
#
# Indices 1 2 3 4 5 6 
#
# 1 0.010419 -0.003493 -0.001019 0.000000 0.000000 0.000000
# 2 -0.003493 0.010681 -0.001987 0.000000 0.000000 0.000000
# 3 -0.001019 -0.001987 0.008470 0.000000 0.000000 0.000000
# 4 0.000000 0.000000 0.000000 0.019122 0.000000 0.000000
# 5 0.000000 0.000000 0.000000 0.000000 0.024539 0.000000
# 6 0.000000 0.000000 0.000000 0.000000 0.000000 0.022897
#
#
# Mechanical properties :
#
#
# Convention : Reuss Voigt Hill
#
# Bulk Modulus (GPa) = 60.33870 60.40679 60.37274
# Shear Modulus (GPa) = 43.61046 44.51895 44.06471
#
# Velocity S-wave (km/s) = 4.16278 4.20592 4.18441
# Velocity P-wave (km/s) = 6.86155 6.89849 6.88005
#
# Compressibility (1/GPa) = 0.01657311
#
# Stress axis : x y z
#
# Youngs Moduli (GPa) = 95.97398 93.62521 118.05686
#
# Poissons Ratio (x) = 0.32700 0.12034
# Poissons Ratio (y) = 0.33520 0.23457
# Poissons Ratio (z) = 0.09783 0.18602
#
# Static dielectric constant tensor:
#      x y z
#    x 2.098130 0.000000 0.000000 
#    y 0.000000 2.071590 0.000000 
#    z 0.000000 0.000000 2.163230 
# 
# From -- ./inp_files/22245.got.cif
#   From: 2010.05.17/outbox.cif.g08.bks.cpg/sg56_12_cif.got.tgz:22245.got - 2010.06.03 13:42:01.
