data_PCOD9432105
_publ_section_title
;
Structure prediction by ZEFSAII (Michael W. Deem and Ramdas Pophale) SiO2 
 PCOD9432105
Probable space group: P C C N
;
_chemical_formula_sum "Si O2"
_cell_formula_units_Z 36
_cell_length_a 7.799988
_cell_length_b 11.044782
_cell_length_c 19.465182
_cell_angle_alpha 90.000000
_cell_angle_beta 90.000000
_cell_angle_gamma 90.000000
_cell_volume 1676.909216
_symmetry_space_group_name_H-M "P C C N"
_symmetry_group_IT_number 56
_symmetry_cell_setting 'orthorhombic'
loop_
_space_group_symop_operation_xyz
x,y,z
1/2-x,1/2-y,z
1/2+x,-y,1/2-z
-x,1/2+y,1/2-z
-x,-y,-z
1/2+x,1/2+y,-z
1/2-x,y,1/2+z
x,1/2-y,1/2+z
loop_
_atom_site_type_symbol
_atom_site_label
_atom_site_fract_x
_atom_site_fract_y
_atom_site_fract_z
Si Si1 0.901972 0.007218 0.590437
Si Si2 0.745992 0.895608 0.462629
Si Si3 0.750000 0.250000 0.133784
Si Si4 0.258032 0.390927 0.785885
Si Si5 0.033874 0.430166 0.662862
O O1 0.827860 0.142725 0.589048
O O2 0.096399 0.024833 0.567756
O O3 0.780604 0.924223 0.542548
O O4 0.883178 0.957976 0.667114
O O5 0.750000 0.750000 0.452465
O O6 0.582487 0.935716 0.417583
O O7 0.595978 0.316372 0.174326
O O8 0.250000 0.250000 0.800587
O O9 0.204557 0.410129 0.707069
O O10 0.434017 0.453277 0.809186
#
# Coordination Sequence:
#
# PCOD9432105 Si02
#       5
#     8   8   4   8   8
#     4  10  23  42  64  99 129 174 226 267 340 392
#     4  11  21  42  69  94 133 175 221 279 328 401
#     4  10  22  40  64  94 130 178 216 270 330 412
#     4  11  25  42  63  95 134 169 222 278 324 402
#     4  11  24  41  69  94 131 179 222 267 347 385
#
# _framework density 21.468067999999999
#
# number of rings (size 3 to 8) (size 9 to 14) (size 15 to 20)
#    0.000    1.333    2.222    2.667    6.222    3.556 
#    8.000    0.000    0.000    0.000    0.000    0.000 
#    0.000    0.000    0.000    0.000    0.000    0.000 
#
# Total GULP energy -200810.693824 kJ/mol
# GULP energy per Si atom -5578.074828 kJ/mol
# Density = 2.141921 g / cm^3
# Si number density = 21.468068 Si / 1000 Ang^3
#
#
#
# Elastic Constant Matrix: (Units=GPa)
#
#
# Indices 1 2 3 4 5 6 
#
# 1 69.3012 33.0179 10.7750 0.0000 0.0000 0.0000
# 2 33.0179 102.9881 4.2940 0.0000 0.0000 0.0000
# 3 10.7750 4.2940 68.4954 0.0000 0.0000 0.0000
# 4 0.0000 0.0000 0.0000 12.5850 0.0000 0.0000
# 5 0.0000 0.0000 0.0000 0.0000 23.8680 0.0000
# 6 0.0000 0.0000 0.0000 0.0000 0.0000 24.8288
#
#
#
# Elastic Compliance Matrix: (Units=1/GPa)
#
#
# Indices 1 2 3 4 5 6 
#
# 1 0.017415 -0.005483 -0.002396 0.000000 0.000000 0.000000
# 2 -0.005483 0.011462 0.000144 0.000000 0.000000 0.000000
# 3 -0.002396 0.000144 0.014967 0.000000 0.000000 0.000000
# 4 0.000000 0.000000 0.000000 0.079460 0.000000 0.000000
# 5 0.000000 0.000000 0.000000 0.000000 0.041897 0.000000
# 6 0.000000 0.000000 0.000000 0.000000 0.000000 0.040276
#
#
# Mechanical properties :
#
#
# Convention : Reuss Voigt Hill
#
# Bulk Modulus (GPa) = 35.24368 37.43984 36.34176
# Shear Modulus (GPa) = 21.70096 25.10287 23.40191
#
# Velocity S-wave (km/s) = 3.18283 3.42323 3.30522
# Velocity P-wave (km/s) = 5.47354 5.75346 5.61525
#
# Compressibility (1/GPa) = 0.02837388
#
# Stress axis : x y z
#
# Youngs Moduli (GPa) = 57.42276 87.24649 66.81203
#
# Poissons Ratio (x) = 0.47839 0.16006
# Poissons Ratio (y) = 0.31486 -0.00962
# Poissons Ratio (z) = 0.13757 -0.01257
#
# Static dielectric constant tensor:
#      x y z
#    x 1.841850 0.000000 0.000000 
#    y 0.000000 1.816560 0.000000 
#    z 0.000000 0.000000 1.808020 
# 
# From -- ./inp_files/17943.got.cif
#   From: 2010.05.17/outbox.cif.g08.bks.cpg/sg56_9_cif.got.tgz:17943.got - 2010.06.03 13:42:01.
