data_PCOD9432496
_publ_section_title
;
Structure prediction by ZEFSAII (Michael W. Deem and Ramdas Pophale) SiO2 
 PCOD9432496
Probable space group: P C C N
;
_chemical_formula_sum "Si O2"
_cell_formula_units_Z 28
_cell_length_a 7.488714
_cell_length_b 17.950662
_cell_length_c 7.198521
_cell_angle_alpha 90.000000
_cell_angle_beta 90.000000
_cell_angle_gamma 90.000000
_cell_volume 967.678273
_symmetry_space_group_name_H-M "P C C N"
_symmetry_group_IT_number 56
_symmetry_cell_setting 'orthorhombic'
loop_
_space_group_symop_operation_xyz
x,y,z
1/2-x,1/2-y,z
1/2+x,-y,1/2-z
-x,1/2+y,1/2-z
-x,-y,-z
1/2+x,1/2+y,-z
1/2-x,y,1/2+z
x,1/2-y,1/2+z
loop_
_atom_site_type_symbol
_atom_site_label
_atom_site_fract_x
_atom_site_fract_y
_atom_site_fract_z
Si Si1 0.434648 0.603900 0.460574
Si Si2 0.750000 0.250000 0.869435
Si Si3 0.952160 0.432093 0.633166
Si Si4 0.105833 0.317021 0.343097
O O1 0.326349 0.675421 0.540427
O O2 0.265151 0.567789 0.358392
O O3 0.600883 0.622181 0.324273
O O4 0.504993 0.566289 0.649928
O O5 0.570016 0.274194 0.772439
O O6 0.000000 0.500000 0.500000
O O7 0.042552 0.360367 0.528859
O O8 0.250000 0.250000 0.367338
#
# Coordination Sequence:
#
# PCOD9432496 Si02
#       4
#     8   4   8   8
#     4  11  23  48  80 109 163 223 271 361 446 514
#     4  10  22  46  78 112 162 200 268 348 432 492
#     4  11  25  50  80 116 167 235 290 350 443 546
#     4  11  26  49  80 122 161 212 284 361 437 521
#
# _framework density 28.935238999999999
#
# number of rings (size 3 to 8) (size 9 to 14) (size 15 to 20)
#    0.000    1.143    5.714    0.857    4.000    3.429 
#    5.143    0.000    0.000    0.000    0.000    0.000 
#    0.000    0.000    0.000    0.000    0.000    0.000 
#
# Total GULP energy -156323.406830 kJ/mol
# GULP energy per Si atom -5582.978815 kJ/mol
# Density = 2.886938 g / cm^3
# Si number density = 28.935239 Si / 1000 Ang^3
#
#
#
# Elastic Constant Matrix: (Units=GPa)
#
#
# Indices 1 2 3 4 5 6 
#
# 1 168.2841 41.5004 54.0564 0.0000 0.0000 0.0000
# 2 41.5004 92.3724 31.1819 0.0000 0.0000 0.0000
# 3 54.0564 31.1819 184.6259 0.0000 0.0000 0.0000
# 4 0.0000 0.0000 0.0000 26.1535 0.0000 0.0000
# 5 0.0000 0.0000 0.0000 0.0000 240.8261 0.0000
# 6 0.0000 0.0000 0.0000 0.0000 0.0000 64.2848
#
#
#
# Elastic Compliance Matrix: (Units=1/GPa)
#
#
# Indices 1 2 3 4 5 6 
#
# 1 0.007121 -0.002646 -0.001638 0.000000 0.000000 0.000000
# 2 -0.002646 0.012464 -0.001330 0.000000 0.000000 0.000000
# 3 -0.001638 -0.001330 0.006121 0.000000 0.000000 0.000000
# 4 0.000000 0.000000 0.000000 0.038236 0.000000 0.000000
# 5 0.000000 0.000000 0.000000 0.000000 0.004152 0.000000
# 6 0.000000 0.000000 0.000000 0.000000 0.000000 0.015556
#
#
# Mechanical properties :
#
#
# Convention : Reuss Voigt Hill
#
# Bulk Modulus (GPa) = 69.07868 77.63997 73.35932
# Shear Modulus (GPa) = 50.14839 87.48913 68.81876
#
# Velocity S-wave (km/s) = 4.16760 5.50471 4.88215
# Velocity P-wave (km/s) = 6.86177 8.20323 7.56230
#
# Compressibility (1/GPa) = 0.01447625
#
# Stress axis : x y z
#
# Youngs Moduli (GPa) = 140.42726 80.23282 163.38226
#
# Poissons Ratio (x) = 0.21233 0.26763
# Poissons Ratio (y) = 0.37162 0.21733
# Poissons Ratio (z) = 0.23002 0.10673
#
# Static dielectric constant tensor:
#      x y z
#    x 1.477470 0.000000 0.000000 
#    y 0.000000 2.490670 0.000000 
#    z 0.000000 0.000000 2.512960 
# 
# From -- ./inp_files/1898.got.cif
#   From: 2010.05.17/outbox.cif.g08.bks.cpg/sg56_1_cif.got.tgz:1898.got - 2010.06.03 13:42:01.
