data_PCOD9432520
_publ_section_title
;
Structure prediction by ZEFSAII (Michael W. Deem and Ramdas Pophale) SiO2 
 PCOD9432520
Probable space group: P C C N
;
_chemical_formula_sum "Si O2"
_cell_formula_units_Z 40
_cell_length_a 10.003773
_cell_length_b 13.145245
_cell_length_c 13.101831
_cell_angle_alpha 90.000000
_cell_angle_beta 90.000000
_cell_angle_gamma 90.000000
_cell_volume 1722.917596
_symmetry_space_group_name_H-M "P C C N"
_symmetry_group_IT_number 56
_symmetry_cell_setting 'orthorhombic'
loop_
_space_group_symop_operation_xyz
x,y,z
1/2-x,1/2-y,z
1/2+x,-y,1/2-z
-x,1/2+y,1/2-z
-x,-y,-z
1/2+x,1/2+y,-z
1/2-x,y,1/2+z
x,1/2-y,1/2+z
loop_
_atom_site_type_symbol
_atom_site_label
_atom_site_fract_x
_atom_site_fract_y
_atom_site_fract_z
Si Si1 0.395956 0.758092 0.772021
Si Si2 0.322802 0.435859 0.964757
Si Si3 0.835896 0.146175 0.524821
Si Si4 0.515673 0.561615 0.841594
Si Si5 0.925663 0.648014 0.137054
O O1 0.250000 0.750000 0.720415
O O2 0.405899 0.649875 0.830761
O O3 0.523056 0.748130 0.698277
O O4 0.395202 0.840545 0.860632
O O5 0.445012 0.463285 0.888634
O O6 0.215579 0.360977 0.916441
O O7 0.249534 0.543711 0.985221
O O8 0.380244 0.401364 0.073289
O O9 0.750000 0.250000 0.506661
O O10 0.958185 0.134835 0.446036
O O11 0.573696 0.562517 0.727526
#
# Coordination Sequence:
#
# PCOD9432520 Si02
#       5
#     8   8   8   8   8
#     4   9  18  41  63 100 133 169 228 278 337 411
#     4  11  21  41  66  99 140 174 229 288 333 406
#     4  11  20  39  70 100 134 177 229 283 335 420
#     4   9  22  40  66  97 133 177 226 279 339 410
#     4  10  23  37  68  96 132 180 224 281 342 401
#
# _framework density 23.216434
#
# number of rings (size 3 to 8) (size 9 to 14) (size 15 to 20)
#    1.200    0.800    4.000    1.200    2.800    0.000 
#    0.000    1.000    4.400    0.000    0.000    0.000 
#    0.000    0.000    0.000    0.000    0.000    0.000 
#
# Total GULP energy -222952.018081 kJ/mol
# GULP energy per Si atom -5573.800452 kJ/mol
# Density = 2.316359 g / cm^3
# Si number density = 23.216434 Si / 1000 Ang^3
#
#
#
# Elastic Constant Matrix: (Units=GPa)
#
#
# Indices 1 2 3 4 5 6 
#
# 1 124.9950 21.1253 82.9603 0.0000 0.0000 0.0000
# 2 21.1253 68.5697 41.4633 0.0000 0.0000 0.0000
# 3 82.9603 41.4633 120.9005 0.0000 0.0000 0.0000
# 4 0.0000 0.0000 0.0000 152.7181 0.0000 0.0000
# 5 0.0000 0.0000 0.0000 0.0000 45.9238 0.0000
# 6 0.0000 0.0000 0.0000 0.0000 0.0000 27.7727
#
#
#
# Elastic Compliance Matrix: (Units=1/GPa)
#
#
# Indices 1 2 3 4 5 6 
#
# 1 0.014907 0.002009 -0.010918 0.000000 0.000000 0.000000
# 2 0.002009 0.018670 -0.007782 0.000000 0.000000 0.000000
# 3 -0.010918 -0.007782 0.018432 0.000000 0.000000 0.000000
# 4 0.000000 0.000000 0.000000 0.006548 0.000000 0.000000
# 5 0.000000 0.000000 0.000000 0.000000 0.021775 0.000000
# 6 0.000000 0.000000 0.000000 0.000000 0.000000 0.036007
#
#
# Mechanical properties :
#
#
# Convention : Reuss Voigt Hill
#
# Bulk Modulus (GPa) = 53.68231 67.28477 60.48354
# Shear Modulus (GPa) = 32.06559 56.54401 44.30480
#
# Velocity S-wave (km/s) = 3.72043 4.94045 4.37319
# Velocity P-wave (km/s) = 6.45199 7.84783 7.18389
#
# Compressibility (1/GPa) = 0.01862811
#
# Stress axis : x y z
#
# Youngs Moduli (GPa) = 67.08110 53.56122 54.25303
#
# Poissons Ratio (x) = -0.10763 0.59236
# Poissons Ratio (y) = -0.13480 0.42219
# Poissons Ratio (z) = 0.73242 0.41681
#
# Static dielectric constant tensor:
#      x y z
#    x 1.865090 0.000000 0.000000 
#    y 0.000000 1.915090 0.000000 
#    z 0.000000 0.000000 1.917420 
# 
# From -- ./inp_files/10358.got.cif
#   From: 2010.05.17/outbox.cif.g08.bks.cpg/sg56_6_cif.got.tgz:10358.got - 2010.06.03 13:42:01.
