data_PCOD9432872
_publ_section_title
;
Structure prediction by ZEFSAII (Michael W. Deem and Ramdas Pophale) SiO2 
 PCOD9432872
Probable space group: P C C N
;
_chemical_formula_sum "Si O2"
_cell_formula_units_Z 44
_cell_length_a 22.086267
_cell_length_b 7.615942
_cell_length_c 12.113628
_cell_angle_alpha 90.000000
_cell_angle_beta 90.000000
_cell_angle_gamma 90.000000
_cell_volume 2037.605849
_symmetry_space_group_name_H-M "P C C N"
_symmetry_group_IT_number 56
_symmetry_cell_setting 'orthorhombic'
loop_
_space_group_symop_operation_xyz
x,y,z
1/2-x,1/2-y,z
1/2+x,-y,1/2-z
-x,1/2+y,1/2-z
-x,-y,-z
1/2+x,1/2+y,-z
1/2-x,y,1/2+z
x,1/2-y,1/2+z
loop_
_atom_site_type_symbol
_atom_site_label
_atom_site_fract_x
_atom_site_fract_y
_atom_site_fract_z
Si Si1 0.324045 0.522680 0.755177
Si Si2 0.078121 0.443846 0.907415
Si Si3 0.750000 0.750000 0.873721
Si Si4 0.560048 0.066521 0.858254
Si Si5 0.858536 0.607483 0.510810
Si Si6 0.624992 0.379367 0.796383
O O1 0.269485 0.412424 0.703615
O O2 0.389335 0.453327 0.706171
O O3 0.324652 0.726751 0.718657
O O4 0.331369 0.497034 0.885284
O O5 0.122795 0.494587 0.808588
O O6 0.009961 0.476863 0.865526
O O7 0.084404 0.565162 0.015836
O O8 0.090634 0.245221 0.948189
O O9 0.694235 0.719058 0.954278
O O10 0.565910 0.254315 0.799577
O O11 0.876257 0.479577 0.411387
#
# Coordination Sequence:
#
# PCOD9432872 Si02
#       6
#     8   8   4   8   8   8
#     4  10  24  44  63  98 132 171 233 278 347 412
#     4  11  22  40  67 101 141 177 229 282 346 429
#     4  12  24  46  68  96 128 180 234 290 342 414
#     4   9  23  41  64  98 142 177 223 283 348 418
#     4  12  24  42  70  96 132 181 231 287 348 413
#     4  10  24  42  66 100 137 175 223 283 349 418
#
# _framework density 21.593971
#
# number of rings (size 3 to 8) (size 9 to 14) (size 15 to 20)
#    1.091    0.364    1.818    2.727    2.545    2.909 
#    0.000    1.818    0.000    0.000    0.000    0.000 
#    0.000    0.000    0.000    0.000    0.000    0.000 
#
# Total GULP energy -245187.590645 kJ/mol
# GULP energy per Si atom -5572.445242 kJ/mol
# Density = 2.154482 g / cm^3
# Si number density = 21.593971 Si / 1000 Ang^3
#
#
#
# Elastic Constant Matrix: (Units=GPa)
#
#
# Indices 1 2 3 4 5 6 
#
# 1 47.9368 6.1879 17.8688 0.0000 0.0000 0.0000
# 2 6.1879 84.3555 42.3840 0.0000 0.0000 0.0000
# 3 17.8688 42.3840 127.2649 0.0000 0.0000 0.0000
# 4 0.0000 0.0000 0.0000 45.7380 0.0000 0.0000
# 5 0.0000 0.0000 0.0000 0.0000 6.1881 0.0000
# 6 0.0000 0.0000 0.0000 0.0000 0.0000 18.9166
#
#
#
# Elastic Compliance Matrix: (Units=1/GPa)
#
#
# Indices 1 2 3 4 5 6 
#
# 1 0.022013 -0.000074 -0.003066 0.000000 0.000000 0.000000
# 2 -0.000074 0.014237 -0.004731 0.000000 0.000000 0.000000
# 3 -0.003066 -0.004731 0.009864 0.000000 0.000000 0.000000
# 4 0.000000 0.000000 0.000000 0.021864 0.000000 0.000000
# 5 0.000000 0.000000 0.000000 0.000000 0.161601 0.000000
# 6 0.000000 0.000000 0.000000 0.000000 0.000000 0.052864
#
#
# Mechanical properties :
#
#
# Convention : Reuss Voigt Hill
#
# Bulk Modulus (GPa) = 32.92574 43.60428 38.26501
# Shear Modulus (GPa) = 16.21748 27.04295 21.63022
#
# Velocity S-wave (km/s) = 2.74345 3.54268 3.16836
# Velocity P-wave (km/s) = 5.03151 6.08036 5.58063
#
# Compressibility (1/GPa) = 0.03037137
#
# Stress axis : x y z
#
# Youngs Moduli (GPa) = 45.42712 70.23877 101.38125
#
# Poissons Ratio (x) = 0.00521 0.31084
# Poissons Ratio (y) = 0.00337 0.47964
# Poissons Ratio (z) = 0.13928 0.33231
#
# Static dielectric constant tensor:
#      x y z
#    x 1.825770 0.000000 0.000000 
#    y 0.000000 1.836300 0.000000 
#    z 0.000000 0.000000 1.765010 
# 
# From -- ./inp_files/8834.got.cif
#   From: 2010.05.17/outbox.cif.g08.bks.cpg/sg56_5_cif.got.tgz:8834.got - 2010.06.03 13:42:01.
