data_PCOD9432987
_publ_section_title
;
Structure prediction by ZEFSAII (Michael W. Deem and Ramdas Pophale) SiO2 
 PCOD9432987
Probable space group: P C C N
;
_chemical_formula_sum "Si O2"
_cell_formula_units_Z 24
_cell_length_a 10.504833
_cell_length_b 8.780271
_cell_length_c 9.671874
_cell_angle_alpha 90.000000
_cell_angle_beta 90.000000
_cell_angle_gamma 90.000000
_cell_volume 892.088012
_symmetry_space_group_name_H-M "P C C N"
_symmetry_group_IT_number 56
_symmetry_cell_setting 'orthorhombic'
loop_
_space_group_symop_operation_xyz
x,y,z
1/2-x,1/2-y,z
1/2+x,-y,1/2-z
-x,1/2+y,1/2-z
-x,-y,-z
1/2+x,1/2+y,-z
1/2-x,y,1/2+z
x,1/2-y,1/2+z
loop_
_atom_site_type_symbol
_atom_site_label
_atom_site_fract_x
_atom_site_fract_y
_atom_site_fract_z
Si Si1 0.233029 0.067998 0.937658
Si Si2 0.569178 0.020733 0.835040
Si Si3 0.118907 0.845997 0.157801
O O1 0.250000 0.250000 0.935800
O O2 0.359305 0.024258 0.026034
O O3 0.135650 0.968611 0.036400
O O4 0.174973 0.018374 0.787592
O O5 0.444939 0.931773 0.784299
O O6 0.531008 0.197208 0.853812
O O7 0.250000 0.750000 0.173280
#
# Coordination Sequence:
#
# PCOD9432987 Si02
#       3
#     8   8   8
#     4  11  24  45  74 109 148 200 258 316 388 461
#     4  11  24  46  73 108 154 203 260 326 386 461
#     4  10  24  45  73 109 149 201 260 314 379 458
#
# _framework density 26.903174
#
# number of rings (size 3 to 8) (size 9 to 14) (size 15 to 20)
#    0.000    1.333    0.000    4.000    0.000   14.667 
#    0.000   15.000    0.000    0.000    0.000    0.000 
#    0.000    0.000    0.000    0.000    0.000    0.000 
#
# Total GULP energy -133684.787108 kJ/mol
# GULP energy per Si atom -5570.199463 kJ/mol
# Density = 2.684194 g / cm^3
# Si number density = 26.903174 Si / 1000 Ang^3
#
#
#
# Elastic Constant Matrix: (Units=GPa)
#
#
# Indices 1 2 3 4 5 6 
#
# 1 148.5154 9.2044 69.8560 0.0000 0.0000 0.0000
# 2 9.2044 258.0327 111.8333 0.0000 0.0000 0.0000
# 3 69.8560 111.8333 256.7752 0.0000 0.0000 0.0000
# 4 0.0000 0.0000 0.0000 -43.9266 0.0000 0.0000
# 5 0.0000 0.0000 0.0000 0.0000 54.7363 0.0000
# 6 0.0000 0.0000 0.0000 0.0000 0.0000 41.7932
#
#
#
# Elastic Compliance Matrix: (Units=1/GPa)
#
#
# Indices 1 2 3 4 5 6 
#
# 1 0.007852 0.000796 -0.002483 0.000000 0.000000 0.000000
# 2 0.000796 0.004858 -0.002332 0.000000 0.000000 0.000000
# 3 -0.002483 -0.002332 0.005586 0.000000 0.000000 0.000000
# 4 0.000000 0.000000 0.000000 -0.022765 0.000000 0.000000
# 5 0.000000 0.000000 0.000000 0.000000 0.018269 0.000000
# 6 0.000000 0.000000 0.000000 0.000000 0.000000 0.023927
#
#
# Mechanical properties :
#
#
# Convention : Reuss Voigt Hill
#
# Bulk Modulus (GPa) = 97.49278 116.12342 106.80810
# Shear Modulus (GPa) = 101.65874 42.01588 71.83731
#
# Velocity S-wave (km/s) = 6.15377 3.95618 5.17302
# Velocity P-wave (km/s) = 9.31713 8.00785 8.68719
#
# Compressibility (1/GPa) = 0.01025717
#
# Stress axis : x y z
#
# Youngs Moduli (GPa) = 127.35985 205.84910 179.02905
#
# Poissons Ratio (x) = -0.16385 0.44448
# Poissons Ratio (y) = -0.10137 0.41755
# Poissons Ratio (z) = 0.31620 0.48010
#
# Static dielectric constant tensor:
#      x y z
#    x 2.629230 0.000000 0.000000 
#    y 0.000000 2.103910 0.000000 
#    z 0.000000 0.000000 2.093920 
# 
# From -- ./inp_files/3024.got.cif
#   From: 2010.05.17/outbox.cif.g08.bks.cpg/sg56_2_cif.got.tgz:3024.got - 2010.06.03 13:42:01.
