data_PCOD9432335
_publ_section_title
;
Structure prediction by ZEFSAII (Michael W. Deem and Ramdas Pophale) SiO2 
 PCOD9432335
Probable space group: P C C N
;
_chemical_formula_sum "Si O2"
_cell_formula_units_Z 64
_cell_length_a 22.518151
_cell_length_b 15.965779
_cell_length_c 9.628324
_cell_angle_alpha 90.000000
_cell_angle_beta 90.000000
_cell_angle_gamma 90.000000
_cell_volume 3461.573334
_symmetry_space_group_name_H-M "P C C N"
_symmetry_group_IT_number 56
_symmetry_cell_setting 'orthorhombic'
loop_
_space_group_symop_operation_xyz
x,y,z
1/2-x,1/2-y,z
1/2+x,-y,1/2-z
-x,1/2+y,1/2-z
-x,-y,-z
1/2+x,1/2+y,-z
1/2-x,y,1/2+z
x,1/2-y,1/2+z
loop_
_atom_site_type_symbol
_atom_site_label
_atom_site_fract_x
_atom_site_fract_y
_atom_site_fract_z
Si Si1 0.371974 0.355915 0.281216
Si Si2 0.192024 0.305567 0.283274
Si Si3 0.054238 0.530719 0.100062
Si Si4 0.504575 0.191446 0.799617
Si Si5 0.576333 0.992766 0.582798
Si Si6 0.506278 0.351370 0.987924
Si Si7 0.190909 0.433777 0.517379
Si Si8 0.322942 0.059409 0.047082
O O1 0.361458 0.257715 0.255678
O O2 0.442050 0.359452 0.308114
O O3 0.341412 0.412589 0.162981
O O4 0.337194 0.378996 0.420161
O O5 0.250000 0.250000 0.253367
O O6 0.196176 0.345136 0.436186
O O7 0.183400 0.383455 0.182618
O O8 0.050528 0.498395 0.260969
O O9 0.119615 0.500608 0.052305
O O10 0.049681 0.630568 0.119719
O O11 0.000000 0.500000 0.000000
O O12 0.506027 0.282303 0.868683
O O13 0.515047 0.194504 0.634885
O O14 0.552089 0.070563 0.492651
O O15 0.554869 0.903689 0.521771
O O16 0.646781 0.991229 0.571969
O O17 0.256019 0.474010 0.528412
#
# Coordination Sequence:
#
# PCOD9432335 Si02
#       8
#     8   8   8   8   8   8   8   8
#     4  12  24  33  54  90 121 160 212 247 305 379
#     4  12  23  37  55  84 132 170 205 247 304 388
#     4  11  24  42  61  88 125 167 215 264 313 373
#     4  11  24  40  60  90 119 160 216 258 309 375
#     4  10  22  43  64  89 131 166 206 263 329 381
#     4  10  23  40  64  91 121 165 208 261 317 372
#     4  12  22  40  58  87 125 173 206 247 322 384
#     4  12  24  38  58  85 122 170 204 258 312 373
#
# _framework density 18.488702
#
# number of rings (size 3 to 8) (size 9 to 14) (size 15 to 20)
#    0.000    0.750    6.250    1.500    3.500    0.000 
#    0.000    0.000    0.000    0.750    0.000    3.500 
#    0.000    0.000    0.000    0.000    0.000    0.000 
#
# Total GULP energy -356875.878975 kJ/mol
# GULP energy per Si atom -5576.185609 kJ/mol
# Density = 1.844662 g / cm^3
# Si number density = 18.488702 Si / 1000 Ang^3
#
#
#
# Elastic Constant Matrix: (Units=GPa)
#
#
# Indices 1 2 3 4 5 6 
#
# 1 124.6656 36.6461 18.1797 0.0000 0.0000 0.0000
# 2 36.6461 75.2972 31.3455 0.0000 0.0000 0.0000
# 3 18.1797 31.3455 73.3364 0.0000 0.0000 0.0000
# 4 0.0000 0.0000 0.0000 20.7687 0.0000 0.0000
# 5 0.0000 0.0000 0.0000 0.0000 12.5749 0.0000
# 6 0.0000 0.0000 0.0000 0.0000 0.0000 6.6138
#
#
#
# Elastic Compliance Matrix: (Units=1/GPa)
#
#
# Indices 1 2 3 4 5 6 
#
# 1 0.009373 -0.004372 -0.000455 0.000000 0.000000 0.000000
# 2 -0.004372 0.018195 -0.006693 0.000000 0.000000 0.000000
# 3 -0.000455 -0.006693 0.016609 0.000000 0.000000 0.000000
# 4 0.000000 0.000000 0.000000 0.048149 0.000000 0.000000
# 5 0.000000 0.000000 0.000000 0.000000 0.079523 0.000000
# 6 0.000000 0.000000 0.000000 0.000000 0.000000 0.151200
#
#
# Mechanical properties :
#
#
# Convention : Reuss Voigt Hill
#
# Bulk Modulus (GPa) = 47.31036 49.51576 48.41306
# Shear Modulus (GPa) = 14.15887 20.46668 17.31278
#
# Velocity S-wave (km/s) = 2.77033 3.33074 3.06338
# Velocity P-wave (km/s) = 5.98977 6.45225 6.22531
#
# Compressibility (1/GPa) = 0.02113702
#
# Stress axis : x y z
#
# Youngs Moduli (GPa) = 106.68867 54.96033 60.20758
#
# Poissons Ratio (x) = 0.24031 0.02737
# Poissons Ratio (y) = 0.46649 0.40297
# Poissons Ratio (z) = 0.04851 0.36785
#
# Static dielectric constant tensor:
#      x y z
#    x 1.718650 0.000000 0.000000 
#    y 0.000000 1.625000 0.000000 
#    z 0.000000 0.000000 1.689270 
# 
# From -- ./inp_files/4819.got.cif
#   From: 2010.05.17/outbox.cif.g08.bks.cpg/sg56_3_cif.got.tgz:4819.got - 2010.06.03 13:42:01.
