data_PCOD9432799
_publ_section_title
;
Structure prediction by ZEFSAII (Michael W. Deem and Ramdas Pophale) SiO2 
 PCOD9432799
Probable space group: P C C N
;
_chemical_formula_sum "Si O2"
_cell_formula_units_Z 40
_cell_length_a 10.313973
_cell_length_b 20.451298
_cell_length_c 7.233706
_cell_angle_alpha 90.000000
_cell_angle_beta 90.000000
_cell_angle_gamma 90.000000
_cell_volume 1525.835521
_symmetry_space_group_name_H-M "P C C N"
_symmetry_group_IT_number 56
_symmetry_cell_setting 'orthorhombic'
loop_
_space_group_symop_operation_xyz
x,y,z
1/2-x,1/2-y,z
1/2+x,-y,1/2-z
-x,1/2+y,1/2-z
-x,-y,-z
1/2+x,1/2+y,-z
1/2-x,y,1/2+z
x,1/2-y,1/2+z
loop_
_atom_site_type_symbol
_atom_site_label
_atom_site_fract_x
_atom_site_fract_y
_atom_site_fract_z
Si Si1 0.026254 0.334993 0.071713
Si Si2 0.107335 0.489866 0.701029
Si Si3 0.358209 0.062323 0.321417
Si Si4 0.814947 0.368013 0.331474
Si Si5 0.051854 0.810394 0.812584
O O1 0.891928 0.368828 0.136503
O O2 0.003862 0.260826 0.138691
O O3 0.129504 0.373084 0.197947
O O4 0.040507 0.337887 0.850975
O O5 0.092809 0.439012 0.532450
O O6 0.211153 0.460122 0.837237
O O7 0.184122 0.554772 0.626172
O O8 0.963944 0.510905 0.763441
O O9 0.907202 0.337330 0.486933
O O10 0.690670 0.323045 0.291657
#
# Coordination Sequence:
#
# PCOD9432799 Si02
#       5
#     8   8   8   8   8
#     4  11  24  39  63 103 143 187 237 298 375 439
#     4  10  23  48  71 108 147 187 252 306 376 449
#     4  10  24  47  72 107 146 192 244 306 378 442
#     4  11  22  37  65 105 139 183 242 322 361 416
#     4  12  22  37  64 101 146 186 241 305 371 424
#
# _framework density 26.215145
#
# number of rings (size 3 to 8) (size 9 to 14) (size 15 to 20)
#    0.000    1.200    4.000    1.800    2.800    0.800 
#   10.800    0.000    0.000    3.600    0.000    0.000 
#    0.000    0.000    0.000    0.000    0.000    0.000 
#
# Total GULP energy -223145.240626 kJ/mol
# GULP energy per Si atom -5578.631016 kJ/mol
# Density = 2.615548 g / cm^3
# Si number density = 26.215145 Si / 1000 Ang^3
#
#
#
# Elastic Constant Matrix: (Units=GPa)
#
#
# Indices 1 2 3 4 5 6 
#
# 1 92.8680 36.8926 11.4674 0.0000 0.0000 0.0000
# 2 36.8926 89.6712 39.1659 0.0000 0.0000 0.0000
# 3 11.4674 39.1659 123.4931 0.0000 0.0000 0.0000
# 4 0.0000 0.0000 0.0000 28.4076 0.0000 0.0000
# 5 0.0000 0.0000 0.0000 0.0000 30.3805 0.0000
# 6 0.0000 0.0000 0.0000 0.0000 0.0000 33.8945
#
#
#
# Elastic Compliance Matrix: (Units=1/GPa)
#
#
# Indices 1 2 3 4 5 6 
#
# 1 0.012905 -0.005556 0.000564 0.000000 0.000000 0.000000
# 2 -0.005556 0.015337 -0.004348 0.000000 0.000000 0.000000
# 3 0.000564 -0.004348 0.009424 0.000000 0.000000 0.000000
# 4 0.000000 0.000000 0.000000 0.035202 0.000000 0.000000
# 5 0.000000 0.000000 0.000000 0.000000 0.032916 0.000000
# 6 0.000000 0.000000 0.000000 0.000000 0.000000 0.029503
#
#
# Mechanical properties :
#
#
# Convention : Reuss Voigt Hill
#
# Bulk Modulus (GPa) = 52.67054 53.45378 53.06216
# Shear Modulus (GPa) = 31.19215 33.10361 32.14788
#
# Velocity S-wave (km/s) = 3.45317 3.55740 3.50567
# Velocity P-wave (km/s) = 6.00287 6.10804 6.05568
#
# Compressibility (1/GPa) = 0.01898595
#
# Stress axis : x y z
#
# Youngs Moduli (GPa) = 77.48665 65.20283 106.10868
#
# Poissons Ratio (x) = 0.36225 -0.05981
# Poissons Ratio (y) = 0.43050 0.46138
# Poissons Ratio (z) = -0.04367 0.28351
#
# Static dielectric constant tensor:
#      x y z
#    x 2.106540 0.000000 0.000000 
#    y 0.000000 2.123030 0.000000 
#    z 0.000000 0.000000 2.100820 
# 
# From -- ./inp_files/2681.got.cif
#   From: 2010.05.17/outbox.cif.g08.bks.cpg/sg56_2_cif.got.tgz:2681.got - 2010.06.03 13:42:01.
