data_PCOD9432934
_publ_section_title
;
Structure prediction by ZEFSAII (Michael W. Deem and Ramdas Pophale) SiO2 
 PCOD9432934
Probable space group: P C C N
;
_chemical_formula_sum "Si O2"
_cell_formula_units_Z 48
_cell_length_a 17.544740
_cell_length_b 8.563302
_cell_length_c 12.038110
_cell_angle_alpha 90.000000
_cell_angle_beta 90.000000
_cell_angle_gamma 90.000000
_cell_volume 1808.616567
_symmetry_space_group_name_H-M "P C C N"
_symmetry_group_IT_number 56
_symmetry_cell_setting 'orthorhombic'
loop_
_space_group_symop_operation_xyz
x,y,z
1/2-x,1/2-y,z
1/2+x,-y,1/2-z
-x,1/2+y,1/2-z
-x,-y,-z
1/2+x,1/2+y,-z
1/2-x,y,1/2+z
x,1/2-y,1/2+z
loop_
_atom_site_type_symbol
_atom_site_label
_atom_site_fract_x
_atom_site_fract_y
_atom_site_fract_z
Si Si1 0.135040 0.475800 0.251607
Si Si2 0.006731 0.751560 0.503370
Si Si3 0.527938 0.983090 0.312375
Si Si4 0.743399 0.569083 0.448171
Si Si5 0.167409 0.677408 0.462129
Si Si6 0.130791 0.131306 0.362957
O O1 0.188908 0.496092 0.146761
O O2 0.155355 0.607436 0.341039
O O3 0.143680 0.304010 0.309066
O O4 0.045320 0.504342 0.230909
O O5 0.015116 0.621032 0.600467
O O6 0.095888 0.787991 0.486172
O O7 0.979367 0.671418 0.388580
O O8 0.938932 0.856486 0.549018
O O9 0.601953 0.977246 0.236402
O O10 0.750000 0.750000 0.418407
O O11 0.823099 0.477922 0.460795
O O12 0.703228 0.573462 0.569185
O O13 0.250000 0.750000 0.476170
#
# Coordination Sequence:
#
# PCOD9432934 Si02
#       6
#     8   8   8   8   8   8
#     4  10  24  44  65 104 137 180 238 284 354 421
#     4   9  21  44  68  95 140 183 228 283 354 411
#     4   9  20  40  70  97 132 178 229 288 342 413
#     4  12  27  43  73 106 140 181 238 299 353 424
#     4  11  26  48  68  99 146 191 228 287 365 431
#     4  11  22  43  72 104 132 184 237 300 342 421
#
# _framework density 26.539622999999999
#
# number of rings (size 3 to 8) (size 9 to 14) (size 15 to 20)
#    0.000    1.667    1.667    2.000    7.000    1.333 
#   15.000    0.000    0.000    0.000    0.000    0.000 
#    0.000    0.000    0.000    0.000    0.000    0.000 
#
# Total GULP energy -269009.674327 kJ/mol
# GULP energy per Si atom -5604.368215 kJ/mol
# Density = 2.647922 g / cm^3
# Si number density = 26.539623 Si / 1000 Ang^3
#
#
#
# Elastic Constant Matrix: (Units=GPa)
#
#
# Indices 1 2 3 4 5 6 
#
# 1 109.9218 13.9648 38.6292 0.0000 0.0000 0.0000
# 2 13.9648 66.8914 12.5577 0.0000 0.0000 0.0000
# 3 38.6292 12.5577 113.0477 0.0000 0.0000 0.0000
# 4 0.0000 0.0000 0.0000 25.3548 0.0000 0.0000
# 5 0.0000 0.0000 0.0000 0.0000 53.1944 0.0000
# 6 0.0000 0.0000 0.0000 0.0000 0.0000 46.3486
#
#
#
# Elastic Compliance Matrix: (Units=1/GPa)
#
#
# Indices 1 2 3 4 5 6 
#
# 1 0.010494 -0.001550 -0.003414 0.000000 0.000000 0.000000
# 2 -0.001550 0.015497 -0.001192 0.000000 0.000000 0.000000
# 3 -0.003414 -0.001192 0.010145 0.000000 0.000000 0.000000
# 4 0.000000 0.000000 0.000000 0.039440 0.000000 0.000000
# 5 0.000000 0.000000 0.000000 0.000000 0.018799 0.000000
# 6 0.000000 0.000000 0.000000 0.000000 0.000000 0.021576
#
#
# Mechanical properties :
#
#
# Convention : Reuss Voigt Hill
#
# Bulk Modulus (GPa) = 41.97327 46.68490 44.32908
# Shear Modulus (GPa) = 36.70996 39.96019 38.33507
#
# Velocity S-wave (km/s) = 3.72319 3.88452 3.80471
# Velocity P-wave (km/s) = 5.85940 6.14395 6.00336
#
# Compressibility (1/GPa) = 0.02382469
#
# Stress axis : x y z
#
# Youngs Moduli (GPa) = 95.29319 64.52888 98.57371
#
# Poissons Ratio (x) = 0.10002 0.33650
# Poissons Ratio (y) = 0.14770 0.11748
# Poissons Ratio (z) = 0.32530 0.07691
#
# Static dielectric constant tensor:
#      x y z
#    x 2.052200 0.000000 0.000000 
#    y 0.000000 2.198450 0.000000 
#    z 0.000000 0.000000 2.001490 
# 
# From -- ./inp_files/7159.got.cif
#   From: 2010.05.17/outbox.cif.g08.bks.cpg/sg56_4_cif.got.tgz:7159.got - 2010.06.03 13:42:01.
