data_PCOD9432745
_publ_section_title
;
Structure prediction by ZEFSAII (Michael W. Deem and Ramdas Pophale) SiO2 
 PCOD9432745
Probable space group: P C C N
;
_chemical_formula_sum "Si O2"
_cell_formula_units_Z 36
_cell_length_a 11.478758
_cell_length_b 4.819208
_cell_length_c 27.919914
_cell_angle_alpha 90.000000
_cell_angle_beta 90.000000
_cell_angle_gamma 90.000000
_cell_volume 1544.488388
_symmetry_space_group_name_H-M "P C C N"
_symmetry_group_IT_number 56
_symmetry_cell_setting 'orthorhombic'
loop_
_space_group_symop_operation_xyz
x,y,z
1/2-x,1/2-y,z
1/2+x,-y,1/2-z
-x,1/2+y,1/2-z
-x,-y,-z
1/2+x,1/2+y,-z
1/2-x,y,1/2+z
x,1/2-y,1/2+z
loop_
_atom_site_type_symbol
_atom_site_label
_atom_site_fract_x
_atom_site_fract_y
_atom_site_fract_z
Si Si1 0.939699 0.599596 0.120091
Si Si2 0.750000 0.750000 0.490209
Si Si3 0.092412 0.392465 0.594913
Si Si4 0.014544 0.756216 0.217793
Si Si5 0.750000 0.250000 0.561642
Si Si6 0.250000 0.750000 0.162714
O O1 0.835104 0.431657 0.095555
O O2 0.996808 0.857623 0.090572
O O3 0.925119 0.714847 0.173679
O O4 0.034758 0.357349 0.123123
O O5 0.859759 0.744073 0.453795
O O6 0.780585 0.491446 0.523805
O O7 0.195144 0.526702 0.626108
O O8 0.141644 0.681904 0.197002
O O9 0.984321 0.566426 0.262771
#
# Coordination Sequence:
#
# PCOD9432745 Si02
#       6
#     8   4   8   8   4   4
#     4  11  25  45  65  94 136 177 214 276 340 389
#     4  12  24  40  68 102 128 176 230 270 324 402
#     4  11  23  43  71  95 126 172 230 277 319 382
#     4  11  24  42  68  99 127 167 222 269 327 401
#     4  12  27  43  62  96 144 178 212 267 345 404
#     4  10  23  45  70  96 132 168 214 279 329 374
#
# _framework density 23.308686000000002
#
# number of rings (size 3 to 8) (size 9 to 14) (size 15 to 20)
#    0.000    0.889    0.000    8.667    0.000   10.667 
#    0.000    4.444    0.000    0.000    0.000    0.000 
#    0.000    0.000    0.000    0.000    0.000    0.000 
#
# Total GULP energy -200904.997133 kJ/mol
# GULP energy per Si atom -5580.694365 kJ/mol
# Density = 2.325563 g / cm^3
# Si number density = 23.308686 Si / 1000 Ang^3
#
#
#
# Elastic Constant Matrix: (Units=GPa)
#
#
# Indices 1 2 3 4 5 6 
#
# 1 62.6180 10.1917 38.9572 0.0000 0.0000 0.0000
# 2 10.1917 102.4714 12.9488 0.0000 0.0000 0.0000
# 3 38.9572 12.9488 120.1304 0.0000 0.0000 0.0000
# 4 0.0000 0.0000 0.0000 143.9387 0.0000 0.0000
# 5 0.0000 0.0000 0.0000 0.0000 70.2812 0.0000
# 6 0.0000 0.0000 0.0000 0.0000 0.0000 46.9826
#
#
#
# Elastic Compliance Matrix: (Units=1/GPa)
#
#
# Indices 1 2 3 4 5 6 
#
# 1 0.020149 -0.001195 -0.006405 0.000000 0.000000 0.000000
# 2 -0.001195 0.009964 -0.000687 0.000000 0.000000 0.000000
# 3 -0.006405 -0.000687 0.010476 0.000000 0.000000 0.000000
# 4 0.000000 0.000000 0.000000 0.006947 0.000000 0.000000
# 5 0.000000 0.000000 0.000000 0.000000 0.014229 0.000000
# 6 0.000000 0.000000 0.000000 0.000000 0.000000 0.021284
#
#
# Mechanical properties :
#
#
# Convention : Reuss Voigt Hill
#
# Bulk Modulus (GPa) = 41.63922 45.49057 43.56489
# Shear Modulus (GPa) = 46.45606 67.11530 56.78568
#
# Velocity S-wave (km/s) = 4.46924 5.37184 4.94119
# Velocity P-wave (km/s) = 6.67346 7.61803 7.16134
#
# Compressibility (1/GPa) = 0.02401582
#
# Stress axis : x y z
#
# Youngs Moduli (GPa) = 49.62929 100.35725 95.46038
#
# Poissons Ratio (x) = 0.11989 0.61147
# Poissons Ratio (y) = 0.05929 0.06555
# Poissons Ratio (z) = 0.31790 0.06891
#
# Static dielectric constant tensor:
#      x y z
#    x 1.978200 0.000000 0.000000 
#    y 0.000000 1.897870 0.000000 
#    z 0.000000 0.000000 1.862920 
# 
# From -- ./inp_files/20815.got.cif
#   From: 2010.05.17/outbox.cif.g08.bks.cpg/sg56_11_cif.got.tgz:20815.got - 2010.06.03 13:42:01.
