data_PCOD9432723
_publ_section_title
;
Structure prediction by ZEFSAII (Michael W. Deem and Ramdas Pophale) SiO2 
 PCOD9432723
Probable space group: P C C N
;
_chemical_formula_sum "Si O2"
_cell_formula_units_Z 32
_cell_length_a 13.316720
_cell_length_b 5.039922
_cell_length_c 19.300520
_cell_angle_alpha 90.000000
_cell_angle_beta 90.000000
_cell_angle_gamma 90.000000
_cell_volume 1295.358841
_symmetry_space_group_name_H-M "P C C N"
_symmetry_group_IT_number 56
_symmetry_cell_setting 'orthorhombic'
loop_
_space_group_symop_operation_xyz
x,y,z
1/2-x,1/2-y,z
1/2+x,-y,1/2-z
-x,1/2+y,1/2-z
-x,-y,-z
1/2+x,1/2+y,-z
1/2-x,y,1/2+z
x,1/2-y,1/2+z
loop_
_atom_site_type_symbol
_atom_site_label
_atom_site_fract_x
_atom_site_fract_y
_atom_site_fract_z
Si Si1 0.436951 0.186035 0.829927
Si Si2 0.630089 0.303395 0.089232
Si Si3 0.818750 0.992798 0.950469
Si Si4 0.646291 0.093254 0.300787
O O1 0.371690 0.089826 0.765145
O O2 0.400060 0.468241 0.857468
O O3 0.551807 0.208974 0.806017
O O4 0.750000 0.250000 0.092728
O O5 0.575912 0.032469 0.109949
O O6 0.609641 0.414603 0.012236
O O7 0.750000 0.750000 0.975148
O O8 0.750000 0.250000 0.938780
O O9 0.858787 0.933501 0.873805
O O10 0.750000 0.250000 0.293210
#
# Coordination Sequence:
#
# PCOD9432723 Si02
#       4
#     8   8   8   8
#     4  12  26  45  75 107 138 191 242 287 359 421
#     4  11  24  45  73 108 146 184 235 293 346 419
#     4  10  23  44  72 104 143 190 231 285 360 419
#     4  11  28  50  72 103 146 186 237 299 357 426
#
# _framework density 24.703578
#
# number of rings (size 3 to 8) (size 9 to 14) (size 15 to 20)
#    0.000    1.000    0.000    6.000    0.000   18.000 
#    0.000    0.000    0.000    0.000    0.000    0.000 
#    0.000    0.000    0.000    0.000    0.000    0.000 
#
# Total GULP energy -179445.197318 kJ/mol
# GULP energy per Si atom -5607.662416 kJ/mol
# Density = 2.464735 g / cm^3
# Si number density = 24.703578 Si / 1000 Ang^3
#
#
#
# Elastic Constant Matrix: (Units=GPa)
#
#
# Indices 1 2 3 4 5 6 
#
# 1 139.6896 30.0397 22.7335 0.0000 0.0000 0.0000
# 2 30.0397 102.2297 -7.7579 0.0000 0.0000 0.0000
# 3 22.7335 -7.7579 113.8140 0.0000 0.0000 0.0000
# 4 0.0000 0.0000 0.0000 26.4225 0.0000 0.0000
# 5 0.0000 0.0000 0.0000 0.0000 -638.4914 0.0000
# 6 0.0000 0.0000 0.0000 0.0000 0.0000 46.0076
#
#
#
# Elastic Compliance Matrix: (Units=1/GPa)
#
#
# Indices 1 2 3 4 5 6 
#
# 1 0.007979 -0.002478 -0.001763 0.000000 0.000000 0.000000
# 2 -0.002478 0.010603 0.001218 0.000000 0.000000 0.000000
# 3 -0.001763 0.001218 0.009221 0.000000 0.000000 0.000000
# 4 0.000000 0.000000 0.000000 0.037847 0.000000 0.000000
# 5 0.000000 0.000000 0.000000 0.000000 -0.001566 0.000000
# 6 0.000000 0.000000 0.000000 0.000000 0.000000 0.021736
#
#
# Mechanical properties :
#
#
# Convention : Reuss Voigt Hill
#
# Bulk Modulus (GPa) = 45.96390 49.52932 47.74661
# Shear Modulus (GPa) = 50.44573 -92.49774 -21.02600
#
# Velocity S-wave (km/s) = 4.52380 -6.12571 -2.92058
# Velocity P-wave (km/s) = 6.77738 5.47170 2.82785
#
# Compressibility (1/GPa) = 0.02175620
#
# Stress axis : x y z
#
# Youngs Moduli (GPa) = 125.33680 94.31730 108.44428
#
# Poissons Ratio (x) = 0.23374 0.19114
# Poissons Ratio (y) = 0.31061 -0.13205
# Poissons Ratio (z) = 0.22091 -0.11485
#
# Static dielectric constant tensor:
#      x y z
#    x 1.957200 0.000000 0.000000 
#    y 0.000000 1.906010 0.000000 
#    z 0.000000 0.000000 2.024640 
# 
# From -- ./inp_files/13793.got.cif
#   From: 2010.05.17/outbox.cif.g08.bks.cpg/sg56_7_cif.got.tgz:13793.got - 2010.06.03 13:42:01.
