data_PCOD9432044
_publ_section_title
;
Structure prediction by ZEFSAII (Michael W. Deem and Ramdas Pophale) SiO2 
 PCOD9432044
Probable space group: P C C N
;
_chemical_formula_sum "Si O2"
_cell_formula_units_Z 48
_cell_length_a 8.465098
_cell_length_b 28.545306
_cell_length_c 10.053218
_cell_angle_alpha 90.000000
_cell_angle_beta 90.000000
_cell_angle_gamma 90.000000
_cell_volume 2429.247662
_symmetry_space_group_name_H-M "P C C N"
_symmetry_group_IT_number 56
_symmetry_cell_setting 'orthorhombic'
loop_
_space_group_symop_operation_xyz
x,y,z
1/2-x,1/2-y,z
1/2+x,-y,1/2-z
-x,1/2+y,1/2-z
-x,-y,-z
1/2+x,1/2+y,-z
1/2-x,y,1/2+z
x,1/2-y,1/2+z
loop_
_atom_site_type_symbol
_atom_site_label
_atom_site_fract_x
_atom_site_fract_y
_atom_site_fract_z
Si Si1 0.056293 0.028690 0.875788
Si Si2 0.620728 0.628578 0.716340
Si Si3 0.927444 0.626608 0.527807
Si Si4 0.934738 0.971539 0.626200
Si Si5 0.410690 0.722687 0.023213
Si Si6 0.072362 0.234201 0.239568
O O1 0.998503 0.081050 0.903960
O O2 0.245363 0.029463 0.874447
O O3 0.993630 0.002617 0.747844
O O4 0.000000 0.000000 0.000000
O O5 0.780034 0.636918 0.627938
O O6 0.529481 0.584056 0.651201
O O7 0.543872 0.680036 0.720196
O O8 0.638969 0.617366 0.876356
O O9 0.059381 0.666962 0.515711
O O10 0.000000 0.000000 0.500000
O O11 0.250000 0.750000 0.989709
O O12 0.538404 0.740819 0.915914
O O13 0.455482 0.735828 0.172191
O O14 0.250000 0.250000 0.268517
#
# Coordination Sequence:
#
# PCOD9432044 Si02
#       6
#     8   8   8   8   8   8
#     4  11  22  44  65  93 135 171 229 273 329 403
#     4  10  22  39  66  97 127 170 233 269 321 403
#     4  10  22  40  67  92 131 179 221 275 331 401
#     4  11  24  42  66  97 133 180 219 278 336 392
#     4  11  24  43  62  97 136 170 218 286 344 386
#     4  11  22  42  68  94 126 175 229 266 328 408
#
# _framework density 19.759205000000001
#
# number of rings (size 3 to 8) (size 9 to 14) (size 15 to 20)
#    0.000    1.333    3.333    2.000    9.333    0.000 
#    6.000    0.000    0.000    0.000    0.000    0.000 
#    0.000    0.000    0.000    0.000    0.000    0.000 
#
# Total GULP energy -267343.180092 kJ/mol
# GULP energy per Si atom -5569.649585 kJ/mol
# Density = 1.971423 g / cm^3
# Si number density = 19.759205 Si / 1000 Ang^3
#
#
#
# Elastic Constant Matrix: (Units=GPa)
#
#
# Indices 1 2 3 4 5 6 
#
# 1 54.2304 38.3857 11.2651 0.0000 0.0000 0.0000
# 2 38.3857 123.3787 38.6157 0.0000 0.0000 0.0000
# 3 11.2651 38.6157 97.5572 0.0000 0.0000 0.0000
# 4 0.0000 0.0000 0.0000 32.3261 0.0000 0.0000
# 5 0.0000 0.0000 0.0000 0.0000 29.0399 0.0000
# 6 0.0000 0.0000 0.0000 0.0000 0.0000 32.3639
#
#
#
# Elastic Compliance Matrix: (Units=1/GPa)
#
#
# Indices 1 2 3 4 5 6 
#
# 1 0.023651 -0.007423 0.000207 0.000000 0.000000 0.000000
# 2 -0.007423 0.011581 -0.003727 0.000000 0.000000 0.000000
# 3 0.000207 -0.003727 0.011702 0.000000 0.000000 0.000000
# 4 0.000000 0.000000 0.000000 0.030935 0.000000 0.000000
# 5 0.000000 0.000000 0.000000 0.000000 0.034435 0.000000
# 6 0.000000 0.000000 0.000000 0.000000 0.000000 0.030899
#
#
# Mechanical properties :
#
#
# Convention : Reuss Voigt Hill
#
# Bulk Modulus (GPa) = 39.92312 50.18883 45.05598
# Shear Modulus (GPa) = 28.82876 31.20597 30.01736
#
# Velocity S-wave (km/s) = 3.82383 3.97837 3.90187
# Velocity P-wave (km/s) = 6.30431 6.82339 6.56898
#
# Compressibility (1/GPa) = 0.02504814
#
# Stress axis : x y z
#
# Youngs Moduli (GPa) = 42.28123 86.34733 85.45775
#
# Poissons Ratio (x) = 0.64098 -0.01771
# Poissons Ratio (y) = 0.31386 0.31850
# Poissons Ratio (z) = -0.00876 0.32181
#
# Static dielectric constant tensor:
#      x y z
#    x 1.762640 0.000000 0.000000 
#    y 0.000000 1.746800 0.000000 
#    z 0.000000 0.000000 1.677580 
# 
# From -- ./inp_files/2221.got.cif
#   From: 2010.05.17/outbox.cif.g08.bks.cpg/sg56_2_cif.got.tgz:2221.got - 2010.06.03 13:42:01.
