data_PCOD9432781
_publ_section_title
;
Structure prediction by ZEFSAII (Michael W. Deem and Ramdas Pophale) SiO2 
 PCOD9432781
Probable space group: P C C N
;
_chemical_formula_sum "Si O2"
_cell_formula_units_Z 64
_cell_length_a 4.908071
_cell_length_b 26.622802
_cell_length_c 19.444147
_cell_angle_alpha 90.000000
_cell_angle_beta 90.000000
_cell_angle_gamma 90.000000
_cell_volume 2540.700626
_symmetry_space_group_name_H-M "P C C N"
_symmetry_group_IT_number 56
_symmetry_cell_setting 'orthorhombic'
loop_
_space_group_symop_operation_xyz
x,y,z
1/2-x,1/2-y,z
1/2+x,-y,1/2-z
-x,1/2+y,1/2-z
-x,-y,-z
1/2+x,1/2+y,-z
1/2-x,y,1/2+z
x,1/2-y,1/2+z
loop_
_atom_site_type_symbol
_atom_site_label
_atom_site_fract_x
_atom_site_fract_y
_atom_site_fract_z
Si Si1 0.950239 0.380735 0.607460
Si Si2 0.344536 0.808796 0.647667
Si Si3 0.668028 0.693347 0.444679
Si Si4 0.816184 0.971074 0.058985
Si Si5 0.866699 0.006188 0.206491
Si Si6 0.839715 0.192261 0.694821
Si Si7 0.984116 0.555672 0.889231
Si Si8 0.636971 0.855849 0.075437
O O1 0.889488 0.348592 0.675797
O O2 0.685656 0.405667 0.574128
O O3 0.064220 0.340269 0.555340
O O4 0.186902 0.422296 0.615600
O O5 0.250000 0.750000 0.638284
O O6 0.434417 0.814130 0.727638
O O7 0.600084 0.825537 0.602381
O O8 0.097767 0.847881 0.632597
O O9 0.750000 0.750000 0.450486
O O10 0.540942 0.684808 0.369464
O O11 0.513469 0.675103 0.511434
O O12 0.945868 0.977046 0.136337
O O13 0.728805 0.912694 0.053732
O O14 0.461199 0.996591 0.927001
O O15 0.000000 0.000000 0.000000
O O16 0.640094 0.978747 0.253919
O O17 0.664933 0.050659 0.180466
O O18 0.750000 0.250000 0.688420
#
# Coordination Sequence:
#
# PCOD9432781 Si02
#       8
#     8   8   8   8   8   8   8   8
#     4  12  23  44  71 115 145 201 249 328 390 461
#     4  11  28  52  78 118 162 211 266 335 418 496
#     4  12  26  45  78 114 157 199 272 330 400 475
#     4  10  26  53  79 112 160 216 272 331 400 483
#     4  10  23  46  75 109 151 202 257 329 396 457
#     4  11  26  47  82 115 162 204 266 336 404 486
#     4  10  25  42  73 105 156 195 257 319 389 461
#     4  12  29  51  82 115 160 220 265 330 414 495
#
# _framework density 25.189903999999999
#
# number of rings (size 3 to 8) (size 9 to 14) (size 15 to 20)
#    0.750    0.250    2.500    2.625    3.500    6.500 
#    0.000    3.750    0.000    0.000    0.000    0.000 
#    0.000    0.000    0.000    0.000    0.000    0.000 
#
# Total GULP energy -357221.364506 kJ/mol
# GULP energy per Si atom -5581.583820 kJ/mol
# Density = 2.513257 g / cm^3
# Si number density = 25.189904 Si / 1000 Ang^3
#
#
#
# Elastic Constant Matrix: (Units=GPa)
#
#
# Indices 1 2 3 4 5 6 
#
# 1 143.2164 45.4704 59.4523 0.0000 0.0000 0.0000
# 2 45.4704 158.8930 61.9545 0.0000 0.0000 0.0000
# 3 59.4523 61.9545 167.1044 0.0000 0.0000 0.0000
# 4 0.0000 0.0000 0.0000 24.6016 0.0000 0.0000
# 5 0.0000 0.0000 0.0000 0.0000 52.2305 0.0000
# 6 0.0000 0.0000 0.0000 0.0000 0.0000 31.3439
#
#
#
# Elastic Compliance Matrix: (Units=1/GPa)
#
#
# Indices 1 2 3 4 5 6 
#
# 1 0.008473 -0.001460 -0.002473 0.000000 0.000000 0.000000
# 2 -0.001460 0.007609 -0.002301 0.000000 0.000000 0.000000
# 3 -0.002473 -0.002301 0.007717 0.000000 0.000000 0.000000
# 4 0.000000 0.000000 0.000000 0.040648 0.000000 0.000000
# 5 0.000000 0.000000 0.000000 0.000000 0.019146 0.000000
# 6 0.000000 0.000000 0.000000 0.000000 0.000000 0.031904
#
#
# Mechanical properties :
#
#
# Convention : Reuss Voigt Hill
#
# Bulk Modulus (GPa) = 88.26642 89.21868 88.74255
# Shear Modulus (GPa) = 37.95278 41.79097 39.87188
#
# Velocity S-wave (km/s) = 3.88579 4.07755 3.98282
# Velocity P-wave (km/s) = 7.43296 7.59367 7.51375
#
# Compressibility (1/GPa) = 0.01132934
#
# Stress axis : x y z
#
# Youngs Moduli (GPa) = 118.02629 131.42651 129.57774
#
# Poissons Ratio (x) = 0.19193 0.32044
# Poissons Ratio (y) = 0.17236 0.29821
# Poissons Ratio (z) = 0.29187 0.30247
#
# Static dielectric constant tensor:
#      x y z
#    x 1.814330 0.000000 0.000000 
#    y 0.000000 2.073970 0.000000 
#    z 0.000000 0.000000 2.227260 
# 
# From -- ./inp_files/14200.got.cif
#   From: 2010.05.17/outbox.cif.g08.bks.cpg/sg56_8_cif.got.tgz:14200.got - 2010.06.03 13:42:01.
