data_PCOD9432123
_publ_section_title
;
Structure prediction by ZEFSAII (Michael W. Deem and Ramdas Pophale) SiO2 
 PCOD9432123
Probable space group: P C C N
;
_chemical_formula_sum "Si O2"
_cell_formula_units_Z 48
_cell_length_a 10.054151
_cell_length_b 13.311872
_cell_length_c 19.039068
_cell_angle_alpha 90.000000
_cell_angle_beta 90.000000
_cell_angle_gamma 90.000000
_cell_volume 2548.180697
_symmetry_space_group_name_H-M "P C C N"
_symmetry_group_IT_number 56
_symmetry_cell_setting 'orthorhombic'
loop_
_space_group_symop_operation_xyz
x,y,z
1/2-x,1/2-y,z
1/2+x,-y,1/2-z
-x,1/2+y,1/2-z
-x,-y,-z
1/2+x,1/2+y,-z
1/2-x,y,1/2+z
x,1/2-y,1/2+z
loop_
_atom_site_type_symbol
_atom_site_label
_atom_site_fract_x
_atom_site_fract_y
_atom_site_fract_z
Si Si1 0.102438 0.712106 0.098668
Si Si2 0.503481 0.158069 0.530561
Si Si3 0.117457 0.314616 0.311666
Si Si4 0.489915 0.999746 0.917496
Si Si5 0.896052 0.794000 0.355239
Si Si6 0.823832 0.966234 0.072337
O O1 0.250000 0.750000 0.109499
O O2 0.007793 0.759125 0.156477
O O3 0.078900 0.594057 0.105430
O O4 0.056527 0.757197 0.023257
O O5 0.482435 0.208741 0.606134
O O6 0.372634 0.112104 0.489576
O O7 0.607957 0.068333 0.544504
O O8 0.250000 0.250000 0.329825
O O9 0.103297 0.313353 0.228076
O O10 0.121273 0.419214 0.354670
O O11 0.331340 0.017734 0.909115
O O12 0.552867 0.898302 0.887731
O O13 0.500000 0.000000 0.000000
O O14 0.750000 0.750000 0.372016
#
# Coordination Sequence:
#
# PCOD9432123 Si02
#       6
#     8   8   8   8   8   8
#     4  11  23  41  65  96 131 165 215 270 323 387
#     4  10  22  40  66  97 132 166 214 278 318 379
#     4  10  22  45  64  91 132 177 213 259 331 394
#     4  12  22  39  69  97 124 168 220 269 323 387
#     4  11  25  41  64  95 131 171 217 269 323 393
#     4  10  22  41  68  95 127 173 219 265 328 385
#
# _framework density 18.836967999999999
#
# number of rings (size 3 to 8) (size 9 to 14) (size 15 to 20)
#    0.000    1.333    3.333    2.000    0.000    4.000 
#    6.000    0.000    0.000    0.000    0.000    0.000 
#    0.000    0.000    0.000    0.000    0.000    0.000 
#
# Total GULP energy -267359.918739 kJ/mol
# GULP energy per Si atom -5569.998307 kJ/mol
# Density = 1.879409 g / cm^3
# Si number density = 18.836968 Si / 1000 Ang^3
#
#
#
# Elastic Constant Matrix: (Units=GPa)
#
#
# Indices 1 2 3 4 5 6 
#
# 1 106.6106 41.8080 23.9385 0.0000 0.0000 0.0000
# 2 41.8080 106.9778 27.4231 0.0000 0.0000 0.0000
# 3 23.9385 27.4231 69.2235 0.0000 0.0000 0.0000
# 4 0.0000 0.0000 0.0000 17.1548 0.0000 0.0000
# 5 0.0000 0.0000 0.0000 0.0000 19.3858 0.0000
# 6 0.0000 0.0000 0.0000 0.0000 0.0000 26.2079
#
#
#
# Elastic Compliance Matrix: (Units=1/GPa)
#
#
# Indices 1 2 3 4 5 6 
#
# 1 0.011434 -0.003845 -0.002431 0.000000 0.000000 0.000000
# 2 -0.003845 0.011698 -0.003304 0.000000 0.000000 0.000000
# 3 -0.002431 -0.003304 0.016595 0.000000 0.000000 0.000000
# 4 0.000000 0.000000 0.000000 0.058293 0.000000 0.000000
# 5 0.000000 0.000000 0.000000 0.000000 0.051584 0.000000
# 6 0.000000 0.000000 0.000000 0.000000 0.000000 0.038156
#
#
# Mechanical properties :
#
#
# Convention : Reuss Voigt Hill
#
# Bulk Modulus (GPa) = 48.62306 52.12789 50.37547
# Shear Modulus (GPa) = 23.38898 25.19251 24.29074
#
# Velocity S-wave (km/s) = 3.52753 3.66101 3.59489
# Velocity P-wave (km/s) = 6.51613 6.75307 6.63566
#
# Compressibility (1/GPa) = 0.02056637
#
# Stress axis : x y z
#
# Youngs Moduli (GPa) = 87.46104 85.48800 60.25733
#
# Poissons Ratio (x) = 0.32873 0.14646
# Poissons Ratio (y) = 0.33632 0.19911
# Poissons Ratio (z) = 0.21258 0.28247
#
# Static dielectric constant tensor:
#      x y z
#    x 1.636610 0.000000 0.000000 
#    y 0.000000 1.676340 0.000000 
#    z 0.000000 0.000000 1.656470 
# 
# From -- ./inp_files/14788.got.cif
#   From: 2010.05.17/outbox.cif.g08.bks.cpg/sg56_8_cif.got.tgz:14788.got - 2010.06.03 13:42:01.
