data_PCOD9432556
_publ_section_title
;
Structure prediction by ZEFSAII (Michael W. Deem and Ramdas Pophale) SiO2 
 PCOD9432556
Probable space group: P C C N
;
_chemical_formula_sum "Si O2"
_cell_formula_units_Z 52
_cell_length_a 6.031377
_cell_length_b 19.661033
_cell_length_c 21.048893
_cell_angle_alpha 90.000000
_cell_angle_beta 90.000000
_cell_angle_gamma 90.000000
_cell_volume 2496.043030
_symmetry_space_group_name_H-M "P C C N"
_symmetry_group_IT_number 56
_symmetry_cell_setting 'orthorhombic'
loop_
_space_group_symop_operation_xyz
x,y,z
1/2-x,1/2-y,z
1/2+x,-y,1/2-z
-x,1/2+y,1/2-z
-x,-y,-z
1/2+x,1/2+y,-z
1/2-x,y,1/2+z
x,1/2-y,1/2+z
loop_
_atom_site_type_symbol
_atom_site_label
_atom_site_fract_x
_atom_site_fract_y
_atom_site_fract_z
Si Si1 0.140757 0.180914 0.280190
Si Si2 0.850364 0.082292 0.197583
Si Si3 0.991105 0.073650 0.806455
Si Si4 0.429515 0.569849 0.942167
Si Si5 0.177879 0.055884 0.479074
Si Si6 0.727227 0.382691 0.425522
Si Si7 0.250000 0.750000 0.636606
O O1 0.250000 0.250000 0.253709
O O2 0.322950 0.132410 0.314513
O O3 0.033218 0.130567 0.229199
O O4 0.941154 0.212440 0.322998
O O5 0.633391 0.091290 0.240511
O O6 0.841457 0.099535 0.123170
O O7 0.914580 0.002367 0.200774
O O8 0.809075 0.074990 0.863697
O O9 0.356964 0.489906 0.941211
O O10 0.690005 0.578579 0.957927
O O11 0.320699 0.599613 0.005387
O O12 0.037775 0.108497 0.437158
O O13 0.000000 0.000000 0.500000
O O14 0.826644 0.309756 0.408954
#
# Coordination Sequence:
#
# PCOD9432556 Si02
#       7
#     8   8   8   8   8   8   4
#     4  12  25  47  69 100 143 192 243 309 375 447
#     4  12  25  42  68 110 141 186 247 304 377 444
#     4  12  25  41  74 104 143 188 251 311 367 449
#     4  10  23  40  64 100 142 176 224 304 369 430
#     4   9  19  38  64  93 133 174 218 275 362 427
#     4  11  24  42  67 100 134 190 237 297 365 445
#     4  12  26  44  70 100 132 192 252 296 368 458
#
# _framework density 20.832972999999999
#
# number of rings (size 3 to 8) (size 9 to 14) (size 15 to 20)
#    0.000    0.923    4.615    2.769    6.462    2.462 
#    0.000    3.846    0.000    0.000    0.000    0.000 
#    0.000    0.000    0.000    0.000    0.000    0.000 
#
# Total GULP energy -289738.467921 kJ/mol
# GULP energy per Si atom -5571.893614 kJ/mol
# Density = 2.078556 g / cm^3
# Si number density = 20.832973 Si / 1000 Ang^3
#
#
#
# Elastic Constant Matrix: (Units=GPa)
#
#
# Indices 1 2 3 4 5 6 
#
# 1 104.7117 35.9662 64.1317 0.0000 0.0000 0.0000
# 2 35.9662 115.9349 34.6358 0.0000 0.0000 0.0000
# 3 64.1317 34.6358 158.5653 0.0000 0.0000 0.0000
# 4 0.0000 0.0000 0.0000 19.7019 0.0000 0.0000
# 5 0.0000 0.0000 0.0000 0.0000 38.2869 0.0000
# 6 0.0000 0.0000 0.0000 0.0000 0.0000 39.4225
#
#
#
# Elastic Compliance Matrix: (Units=1/GPa)
#
#
# Indices 1 2 3 4 5 6 
#
# 1 0.013454 -0.002726 -0.004846 0.000000 0.000000 0.000000
# 2 -0.002726 0.009780 -0.001034 0.000000 0.000000 0.000000
# 3 -0.004846 -0.001034 0.008492 0.000000 0.000000 0.000000
# 4 0.000000 0.000000 0.000000 0.050757 0.000000 0.000000
# 5 0.000000 0.000000 0.000000 0.000000 0.026119 0.000000
# 6 0.000000 0.000000 0.000000 0.000000 0.000000 0.025366
#
#
# Mechanical properties :
#
#
# Convention : Reuss Voigt Hill
#
# Bulk Modulus (GPa) = 68.89477 72.07548 70.48512
# Shear Modulus (GPa) = 32.04746 35.78082 33.91414
#
# Velocity S-wave (km/s) = 3.92638 4.14878 4.03911
# Velocity P-wave (km/s) = 7.32783 7.59090 7.46053
#
# Compressibility (1/GPa) = 0.01451489
#
# Stress axis : x y z
#
# Youngs Moduli (GPa) = 74.32460 102.24873 117.75252
#
# Poissons Ratio (x) = 0.27874 0.57065
# Poissons Ratio (y) = 0.20262 0.12172
# Poissons Ratio (z) = 0.36019 0.10569
#
# Static dielectric constant tensor:
#      x y z
#    x 1.917720 0.000000 0.000000 
#    y 0.000000 1.795830 0.000000 
#    z 0.000000 0.000000 1.776070 
# 
# From -- ./inp_files/17571.got.cif
#   From: 2010.05.17/outbox.cif.g08.bks.cpg/sg56_9_cif.got.tgz:17571.got - 2010.06.03 13:42:01.
