data_PCOD9432664
_publ_section_title
;
Structure prediction by ZEFSAII (Michael W. Deem and Ramdas Pophale) SiO2 
 PCOD9432664
Probable space group: P C C N
;
_chemical_formula_sum "Si O2"
_cell_formula_units_Z 32
_cell_length_a 11.898418
_cell_length_b 8.457265
_cell_length_c 15.098764
_cell_angle_alpha 90.000000
_cell_angle_beta 90.000000
_cell_angle_gamma 90.000000
_cell_volume 1519.359543
_symmetry_space_group_name_H-M "P C C N"
_symmetry_group_IT_number 56
_symmetry_cell_setting 'orthorhombic'
loop_
_space_group_symop_operation_xyz
x,y,z
1/2-x,1/2-y,z
1/2+x,-y,1/2-z
-x,1/2+y,1/2-z
-x,-y,-z
1/2+x,1/2+y,-z
1/2-x,y,1/2+z
x,1/2-y,1/2+z
loop_
_atom_site_type_symbol
_atom_site_label
_atom_site_fract_x
_atom_site_fract_y
_atom_site_fract_z
Si Si1 0.853552 0.607426 0.976949
Si Si2 0.124829 0.821683 0.231013
Si Si3 0.976110 0.574126 0.142861
Si Si4 0.109142 0.044631 0.058617
O O1 0.878888 0.767391 0.921040
O O2 0.731063 0.530559 0.987402
O O3 0.926503 0.479790 0.924776
O O4 0.891512 0.657400 0.075181
O O5 0.250000 0.750000 0.238178
O O6 0.034717 0.682612 0.215483
O O7 0.088078 0.927871 0.313597
O O8 0.114500 0.934760 0.144882
O O9 0.000000 0.000000 0.000000
#
# Coordination Sequence:
#
# PCOD9432664 Si02
#       4
#     8   8   8   8
#     4  10  23  43  68 100 133 182 233 284 352 423
#     4  12  25  46  68 106 144 185 233 294 355 420
#     4  11  24  44  67  99 138 179 231 284 350 423
#     4  11  22  43  70  98 135 178 232 294 347 418
#
# _framework density 21.061506999999999
#
# number of rings (size 3 to 8) (size 9 to 14) (size 15 to 20)
#    0.000    1.000    5.000    1.500    0.000    4.000 
#    0.000    0.000    0.000    0.000    0.000    0.000 
#    0.000    0.000    0.000    0.000    0.000    0.000 
#
# Total GULP energy -178314.158152 kJ/mol
# GULP energy per Si atom -5572.317442 kJ/mol
# Density = 2.101357 g / cm^3
# Si number density = 21.061507 Si / 1000 Ang^3
#
#
#
# Elastic Constant Matrix: (Units=GPa)
#
#
# Indices 1 2 3 4 5 6 
#
# 1 153.8959 35.8957 50.1573 0.0000 0.0000 0.0000
# 2 35.8957 58.0907 19.1048 0.0000 0.0000 0.0000
# 3 50.1573 19.1048 48.0688 0.0000 0.0000 0.0000
# 4 0.0000 0.0000 0.0000 45.6246 0.0000 0.0000
# 5 0.0000 0.0000 0.0000 0.0000 26.8999 0.0000
# 6 0.0000 0.0000 0.0000 0.0000 0.0000 36.1232
#
#
#
# Elastic Compliance Matrix: (Units=1/GPa)
#
#
# Indices 1 2 3 4 5 6 
#
# 1 0.010361 -0.003275 -0.009510 0.000000 0.000000 0.000000
# 2 -0.003275 0.020838 -0.004865 0.000000 0.000000 0.000000
# 3 -0.009510 -0.004865 0.032660 0.000000 0.000000 0.000000
# 4 0.000000 0.000000 0.000000 0.021918 0.000000 0.000000
# 5 0.000000 0.000000 0.000000 0.000000 0.037175 0.000000
# 6 0.000000 0.000000 0.000000 0.000000 0.000000 0.027683
#
#
# Mechanical properties :
#
#
# Convention : Reuss Voigt Hill
#
# Bulk Modulus (GPa) = 35.01376 52.26344 43.63860
# Shear Modulus (GPa) = 25.58146 32.05604 28.81875
#
# Velocity S-wave (km/s) = 3.48890 3.90554 3.70309
# Velocity P-wave (km/s) = 5.73503 6.72356 6.24887
#
# Compressibility (1/GPa) = 0.02856020
#
# Stress axis : x y z
#
# Youngs Moduli (GPa) = 96.51469 47.98916 30.61853
#
# Poissons Ratio (x) = 0.15716 0.29117
# Poissons Ratio (y) = 0.31607 0.14896
# Poissons Ratio (z) = 0.91783 0.23346
#
# Static dielectric constant tensor:
#      x y z
#    x 1.853120 0.000000 0.000000 
#    y 0.000000 1.801900 0.000000 
#    z 0.000000 0.000000 1.781920 
# 
# From -- ./inp_files/10084.got.cif
#   From: 2010.05.17/outbox.cif.g08.bks.cpg/sg56_6_cif.got.tgz:10084.got - 2010.06.03 13:42:01.
