data_PCOD9432720
_publ_section_title
;
Structure prediction by ZEFSAII (Michael W. Deem and Ramdas Pophale) SiO2 
 PCOD9432720
Probable space group: P C C N
;
_chemical_formula_sum "Si O2"
_cell_formula_units_Z 56
_cell_length_a 12.667737
_cell_length_b 13.566504
_cell_length_c 13.576585
_cell_angle_alpha 90.000000
_cell_angle_beta 90.000000
_cell_angle_gamma 90.000000
_cell_volume 2333.229874
_symmetry_space_group_name_H-M "P C C N"
_symmetry_group_IT_number 56
_symmetry_cell_setting 'orthorhombic'
loop_
_space_group_symop_operation_xyz
x,y,z
1/2-x,1/2-y,z
1/2+x,-y,1/2-z
-x,1/2+y,1/2-z
-x,-y,-z
1/2+x,1/2+y,-z
1/2-x,y,1/2+z
x,1/2-y,1/2+z
loop_
_atom_site_type_symbol
_atom_site_label
_atom_site_fract_x
_atom_site_fract_y
_atom_site_fract_z
Si Si1 0.750000 0.250000 0.833049
Si Si2 0.840779 0.650145 0.083310
Si Si3 0.939420 0.478792 0.173861
Si Si4 0.551955 0.716229 0.394845
Si Si5 0.908563 0.118166 0.205376
Si Si6 0.250000 0.250000 0.731543
Si Si7 0.105459 0.581710 0.617561
Si Si8 0.872403 0.557956 0.563444
O O1 0.670193 0.189926 0.762752
O O2 0.680804 0.325535 0.897931
O O3 0.880102 0.537975 0.090014
O O4 0.825207 0.687903 0.194874
O O5 0.718825 0.637975 0.053791
O O6 0.917660 0.705357 0.009127
O O7 0.873190 0.455120 0.272032
O O8 0.981452 0.376037 0.135454
O O9 0.029050 0.553513 0.213769
O O10 0.489805 0.814727 0.359989
O O11 0.663286 0.700623 0.337915
O O12 0.854126 0.035728 0.136036
O O13 0.118347 0.492533 0.542339
O O14 0.980688 0.604115 0.605947
#
# Coordination Sequence:
#
# PCOD9432720 Si02
#       8
#     4   8   8   8   8   4   8   8
#     4  12  24  42  74 106 142 208 250 308 394 458
#     4  12  27  45  77 108 145 199 252 316 384 461
#     4  11  24  48  72 104 150 192 245 320 383 452
#     4  12  27  47  75 110 151 198 258 314 384 472
#     4  11  25  46  72 106 152 199 247 322 382 454
#     4  12  26  46  74 106 150 194 252 310 388 460
#     4  10  23  44  71 102 150 195 246 306 386 452
#     4  10  25  44  72 109 147 197 254 312 383 464
#
# _framework density 24.001062000000001
#
# number of rings (size 3 to 8) (size 9 to 14) (size 15 to 20)
#    0.000    0.857    2.857    3.429    4.000    7.429 
#    0.000    0.000    0.000    0.000    0.000    0.000 
#    0.000    0.000    0.000    0.000    0.000    0.000 
#
# Total GULP energy -313308.535970 kJ/mol
# GULP energy per Si atom -5594.795285 kJ/mol
# Density = 2.394643 g / cm^3
# Si number density = 24.001062 Si / 1000 Ang^3
#
#
#
# Elastic Constant Matrix: (Units=GPa)
#
#
# Indices 1 2 3 4 5 6 
#
# 1 46.5838 19.8892 13.3640 0.0000 0.0000 0.0000
# 2 19.8892 96.4022 15.9240 0.0000 0.0000 0.0000
# 3 13.3640 15.9240 55.1619 0.0000 0.0000 0.0000
# 4 0.0000 0.0000 0.0000 0.1469 0.0000 0.0000
# 5 0.0000 0.0000 0.0000 0.0000 19.9546 0.0000
# 6 0.0000 0.0000 0.0000 0.0000 0.0000 64.6920
#
#
#
# Elastic Compliance Matrix: (Units=1/GPa)
#
#
# Indices 1 2 3 4 5 6 
#
# 1 0.024663 -0.004307 -0.004732 0.000000 0.000000 0.000000
# 2 -0.004307 0.011645 -0.002318 0.000000 0.000000 0.000000
# 3 -0.004732 -0.002318 0.019944 0.000000 0.000000 0.000000
# 4 0.000000 0.000000 0.000000 6.808501 0.000000 0.000000
# 5 0.000000 0.000000 0.000000 0.000000 0.050114 0.000000
# 6 0.000000 0.000000 0.000000 0.000000 0.000000 0.015458
#
#
# Mechanical properties :
#
#
# Convention : Reuss Voigt Hill
#
# Bulk Modulus (GPa) = 29.81670 32.94469 31.38070
# Shear Modulus (GPa) = 0.71796 26.89010 13.80403
#
# Velocity S-wave (km/s) = 0.54753 3.35083 2.40081
# Velocity P-wave (km/s) = 3.58466 5.35974 4.55942
#
# Compressibility (1/GPa) = 0.03353825
#
# Stress axis : x y z
#
# Youngs Moduli (GPa) = 40.54670 85.87623 50.14037
#
# Poissons Ratio (x) = 0.36984 0.23725
# Poissons Ratio (y) = 0.17462 0.11623
# Poissons Ratio (z) = 0.19186 0.19908
#
# Static dielectric constant tensor:
#      x y z
#    x 1.961290 0.000000 0.000000 
#    y 0.000000 1.939490 0.000000 
#    z 0.000000 0.000000 1.942150 
# 
# From -- ./inp_files/11727.got.cif
#   From: 2010.05.17/outbox.cif.g08.bks.cpg/sg56_6_cif.got.tgz:11727.got - 2010.06.03 13:42:01.
