data_PCOD9432531
_publ_section_title
;
Structure prediction by ZEFSAII (Michael W. Deem and Ramdas Pophale) SiO2 
 PCOD9432531
Probable space group: P C C N
;
_chemical_formula_sum "Si O2"
_cell_formula_units_Z 52
_cell_length_a 8.672148
_cell_length_b 15.870126
_cell_length_c 18.640846
_cell_angle_alpha 90.000000
_cell_angle_beta 90.000000
_cell_angle_gamma 90.000000
_cell_volume 2565.503872
_symmetry_space_group_name_H-M "P C C N"
_symmetry_group_IT_number 56
_symmetry_cell_setting 'orthorhombic'
loop_
_space_group_symop_operation_xyz
x,y,z
1/2-x,1/2-y,z
1/2+x,-y,1/2-z
-x,1/2+y,1/2-z
-x,-y,-z
1/2+x,1/2+y,-z
1/2-x,y,1/2+z
x,1/2-y,1/2+z
loop_
_atom_site_type_symbol
_atom_site_label
_atom_site_fract_x
_atom_site_fract_y
_atom_site_fract_z
Si Si1 0.199557 0.482165 0.679255
Si Si2 0.250000 0.750000 0.292150
Si Si3 0.057335 0.955848 0.572910
Si Si4 0.408826 0.899640 0.383843
Si Si5 0.676553 0.170632 0.475324
Si Si6 0.255635 0.429891 0.342583
Si Si7 0.958197 0.167412 0.827143
O O1 0.352605 0.484630 0.630206
O O2 0.226668 0.461092 0.761386
O O3 0.122603 0.575025 0.677408
O O4 0.074699 0.416680 0.650031
O O5 0.313650 0.829057 0.338935
O O6 0.111155 0.780224 0.238979
O O7 0.186389 0.890502 0.547778
O O8 0.915743 0.914746 0.616581
O O9 0.000000 0.000000 0.500000
O O10 0.428566 0.874550 0.466664
O O11 0.320789 0.989319 0.381935
O O12 0.750000 0.250000 0.514208
O O13 0.594620 0.202730 0.403783
O O14 0.138710 0.352023 0.335122
#
# Coordination Sequence:
#
# PCOD9432531 Si02
#       7
#     8   4   8   8   8   8   8
#     4  10  23  39  65  96 126 169 222 267 318 390
#     4  12  22  42  66 100 126 172 214 280 338 396
#     4  11  23  39  66  93 128 165 221 271 318 389
#     4  11  23  39  68  92 128 168 218 264 329 385
#     4  11  23  41  61  92 128 172 207 265 330 388
#     4  11  22  41  67  97 125 170 218 270 320 387
#     4  10  23  38  69  91 130 166 215 258 325 393
#
# _framework density 20.268922
#
# number of rings (size 3 to 8) (size 9 to 14) (size 15 to 20)
#    0.000    1.231    4.615    1.846    4.308    1.846 
#    0.000    3.077    0.000    0.000    0.000    0.000 
#    0.000    0.000    0.000    0.000    0.000    0.000 
#
# Total GULP energy -290243.370344 kJ/mol
# GULP energy per Si atom -5581.603276 kJ/mol
# Density = 2.022279 g / cm^3
# Si number density = 20.268922 Si / 1000 Ang^3
#
#
#
# Elastic Constant Matrix: (Units=GPa)
#
#
# Indices 1 2 3 4 5 6 
#
# 1 56.2698 -6.5642 7.2453 0.0000 0.0000 0.0000
# 2 -6.5642 34.1763 -0.9642 0.0000 0.0000 0.0000
# 3 7.2453 -0.9642 88.4424 0.0000 0.0000 0.0000
# 4 0.0000 0.0000 0.0000 21.0160 0.0000 0.0000
# 5 0.0000 0.0000 0.0000 0.0000 14.6455 0.0000
# 6 0.0000 0.0000 0.0000 0.0000 0.0000 28.3537
#
#
#
# Elastic Compliance Matrix: (Units=1/GPa)
#
#
# Indices 1 2 3 4 5 6 
#
# 1 0.018367 0.003486 -0.001467 0.000000 0.000000 0.000000
# 2 0.003486 0.029931 0.000041 0.000000 0.000000 0.000000
# 3 -0.001467 0.000041 0.011427 0.000000 0.000000 0.000000
# 4 0.000000 0.000000 0.000000 0.047583 0.000000 0.000000
# 5 0.000000 0.000000 0.000000 0.000000 0.068280 0.000000
# 6 0.000000 0.000000 0.000000 0.000000 0.000000 0.035269
#
#
# Mechanical properties :
#
#
# Convention : Reuss Voigt Hill
#
# Bulk Modulus (GPa) = 15.66268 19.81360 17.73814
# Shear Modulus (GPa) = 21.92805 24.74779 23.33792
#
# Velocity S-wave (km/s) = 3.29273 3.49803 3.39693
# Velocity P-wave (km/s) = 4.71172 5.10995 4.91487
#
# Compressibility (1/GPa) = 0.06384603
#
# Stress axis : x y z
#
# Youngs Moduli (GPa) = 54.44524 33.41042 87.50908
#
# Poissons Ratio (x) = -0.11648 0.12834
# Poissons Ratio (y) = -0.18981 -0.00356
# Poissons Ratio (z) = 0.07985 -0.00136
#
# Static dielectric constant tensor:
#      x y z
#    x 1.732720 0.000000 0.000000 
#    y 0.000000 1.765660 0.000000 
#    z 0.000000 0.000000 1.718530 
# 
# From -- ./inp_files/15038.got.cif
#   From: 2010.05.17/outbox.cif.g08.bks.cpg/sg56_8_cif.got.tgz:15038.got - 2010.06.03 13:42:01.
