data_PCOD9432152
_publ_section_title
;
Structure prediction by ZEFSAII (Michael W. Deem and Ramdas Pophale) SiO2 
 PCOD9432152
Probable space group: P C C N
;
_chemical_formula_sum "Si O2"
_cell_formula_units_Z 56
_cell_length_a 14.473112
_cell_length_b 5.660521
_cell_length_c 30.125846
_cell_angle_alpha 90.000000
_cell_angle_beta 90.000000
_cell_angle_gamma 90.000000
_cell_volume 2468.070610
_symmetry_space_group_name_H-M "P C C N"
_symmetry_group_IT_number 56
_symmetry_cell_setting 'orthorhombic'
loop_
_space_group_symop_operation_xyz
x,y,z
1/2-x,1/2-y,z
1/2+x,-y,1/2-z
-x,1/2+y,1/2-z
-x,-y,-z
1/2+x,1/2+y,-z
1/2-x,y,1/2+z
x,1/2-y,1/2+z
loop_
_atom_site_type_symbol
_atom_site_label
_atom_site_fract_x
_atom_site_fract_y
_atom_site_fract_z
Si Si1 0.917452 0.650845 0.339470
Si Si2 0.750000 0.250000 0.682117
Si Si3 0.750000 0.750000 0.900696
Si Si4 0.846685 0.878947 0.741817
Si Si5 0.895777 0.879847 0.155161
Si Si6 0.013452 0.486442 0.894841
Si Si7 0.656689 0.142716 0.945086
Si Si8 0.042836 0.748500 0.481844
O O1 0.822306 0.621468 0.367198
O O2 0.898506 0.606576 0.287967
O O3 0.005229 0.495665 0.351932
O O4 0.956252 0.910144 0.353068
O O5 0.678954 0.383417 0.715153
O O6 0.810124 0.438742 0.654246
O O7 0.821758 0.629234 0.935041
O O8 0.750000 0.750000 0.752035
O O9 0.895492 0.719266 0.705102
O O10 0.897963 0.658713 0.121480
O O11 0.038892 0.696661 0.929503
O O12 0.939142 0.318390 0.919811
O O13 0.750000 0.250000 0.925718
O O14 0.642090 0.236093 0.994398
O O15 0.000000 0.500000 0.500000
O O16 0.000000 0.000000 0.500000
#
# Coordination Sequence:
#
# PCOD9432152 Si02
#       8
#     8   4   4   8   8   8   8   8
#     4  11  23  40  69 105 142 184 240 304 369 450
#     4  10  24  46  66  94 138 194 248 314 366 440
#     4  10  22  42  66 108 144 178 238 302 378 442
#     4  10  23  43  63  96 138 191 240 305 369 435
#     4  11  24  40  71  96 142 194 247 302 370 440
#     4  10  24  42  68 105 142 192 239 297 373 452
#     4  10  22  40  73 102 142 180 229 299 370 439
#     4  10  24  44  73 101 142 188 232 290 368 449
#
# _framework density 22.689789000000001
#
# number of rings (size 3 to 8) (size 9 to 14) (size 15 to 20)
#    0.000    1.714    0.714    1.714   14.000    1.143 
#    1.286    0.000   20.429    0.000    0.000    0.000 
#    0.000    0.000    0.000    0.000    0.000    0.000 
#
# Total GULP energy -311820.350033 kJ/mol
# GULP energy per Si atom -5568.220536 kJ/mol
# Density = 2.263815 g / cm^3
# Si number density = 22.689789 Si / 1000 Ang^3
#
#
#
# Elastic Constant Matrix: (Units=GPa)
#
#
# Indices 1 2 3 4 5 6 
#
# 1 108.3058 53.7563 74.3668 0.0000 0.0000 0.0000
# 2 53.7563 91.0324 62.6263 0.0000 0.0000 0.0000
# 3 74.3668 62.6263 113.2732 0.0000 0.0000 0.0000
# 4 0.0000 0.0000 0.0000 7.0329 0.0000 0.0000
# 5 0.0000 0.0000 0.0000 0.0000 17.2995 0.0000
# 6 0.0000 0.0000 0.0000 0.0000 0.0000 31.7061
#
#
#
# Elastic Compliance Matrix: (Units=1/GPa)
#
#
# Indices 1 2 3 4 5 6 
#
# 1 0.017652 -0.003956 -0.009402 0.000000 0.000000 0.000000
# 2 -0.003956 0.018615 -0.007695 0.000000 0.000000 0.000000
# 3 -0.009402 -0.007695 0.019255 0.000000 0.000000 0.000000
# 4 0.000000 0.000000 0.000000 0.142189 0.000000 0.000000
# 5 0.000000 0.000000 0.000000 0.000000 0.057805 0.000000
# 6 0.000000 0.000000 0.000000 0.000000 0.000000 0.031540
#
#
# Mechanical properties :
#
#
# Convention : Reuss Voigt Hill
#
# Bulk Modulus (GPa) = 74.53169 77.12337 75.82753
# Shear Modulus (GPa) = 14.98652 19.33182 17.15917
#
# Velocity S-wave (km/s) = 2.57280 2.92208 2.75298
# Velocity P-wave (km/s) = 6.46105 6.74158 6.60280
#
# Compressibility (1/GPa) = 0.01341711
#
# Stress axis : x y z
#
# Youngs Moduli (GPa) = 56.64936 53.72144 51.93416
#
# Poissons Ratio (x) = 0.21251 0.48830
# Poissons Ratio (y) = 0.22409 0.39961
# Poissons Ratio (z) = 0.53263 0.41336
#
# Static dielectric constant tensor:
#      x y z
#    x 1.893540 0.000000 0.000000 
#    y 0.000000 2.123840 0.000000 
#    z 0.000000 0.000000 1.897450 
# 
# From -- ./inp_files/23631.got.cif
#   From: 2010.05.17/outbox.cif.g08.bks.cpg/sg56_12_cif.got.tgz:23631.got - 2010.06.03 13:42:01.
