data_PCOD9432492
_publ_section_title
;
Structure prediction by ZEFSAII (Michael W. Deem and Ramdas Pophale) SiO2 
 PCOD9432492
Probable space group: P C C N
;
_chemical_formula_sum "Si O2"
_cell_formula_units_Z 64
_cell_length_a 9.157344
_cell_length_b 22.258881
_cell_length_c 14.367919
_cell_angle_alpha 90.000000
_cell_angle_beta 90.000000
_cell_angle_gamma 90.000000
_cell_volume 2928.644976
_symmetry_space_group_name_H-M "P C C N"
_symmetry_group_IT_number 56
_symmetry_cell_setting 'orthorhombic'
loop_
_space_group_symop_operation_xyz
x,y,z
1/2-x,1/2-y,z
1/2+x,-y,1/2-z
-x,1/2+y,1/2-z
-x,-y,-z
1/2+x,1/2+y,-z
1/2-x,y,1/2+z
x,1/2-y,1/2+z
loop_
_atom_site_type_symbol
_atom_site_label
_atom_site_fract_x
_atom_site_fract_y
_atom_site_fract_z
Si Si1 0.087774 0.733184 0.847181
Si Si2 0.634292 0.396917 0.576375
Si Si3 0.859571 0.035135 0.957892
Si Si4 0.132887 0.197382 0.812481
Si Si5 0.762950 0.571384 0.210042
Si Si6 0.816251 0.576908 0.990318
Si Si7 0.866798 0.804614 0.971715
Si Si8 0.550269 0.469318 0.759152
O O1 0.250000 0.750000 0.817607
O O2 0.112537 0.673842 0.909595
O O3 0.994175 0.714156 0.757908
O O4 0.998427 0.784311 0.904289
O O5 0.782601 0.416865 0.525093
O O6 0.488372 0.415868 0.521191
O O7 0.620421 0.432419 0.674292
O O8 0.903762 0.059543 0.857423
O O9 0.739168 0.983522 0.943324
O O10 0.000000 0.000000 0.000000
O O11 0.250000 0.250000 0.814282
O O12 0.218628 0.139710 0.772623
O O13 0.084757 0.189108 0.919970
O O14 0.781966 0.568719 0.099055
O O15 0.622874 0.534290 0.242581
O O16 0.900240 0.538465 0.254408
O O17 0.723385 0.633939 0.952997
O O18 0.750000 0.750000 0.965262
#
# Coordination Sequence:
#
# PCOD9432492 Si02
#       8
#     8   8   8   8   8   8   8   8
#     4  12  27  45  71 102 142 186 230 299 364 425
#     4  12  26  47  70 103 141 185 237 288 360 430
#     4  12  26  43  68 104 139 187 231 288 357 429
#     4  10  24  47  71 102 135 183 243 294 349 428
#     4  11  24  44  71 102 139 183 236 293 356 423
#     4  11  23  44  73  97 138 183 233 295 347 421
#     4  10  22  46  75 102 131 185 245 289 351 419
#     4  12  24  44  68 104 141 184 229 290 351 424
#
# _framework density 21.853110000000001
#
# number of rings (size 3 to 8) (size 9 to 14) (size 15 to 20)
#    0.000    0.750    5.000    1.500    3.500    0.500 
#    4.500    0.000    0.000    0.000    0.000    0.000 
#    0.000    0.000    0.000    0.000    0.000    0.000 
#
# Total GULP energy -358001.300267 kJ/mol
# GULP energy per Si atom -5593.770317 kJ/mol
# Density = 2.180337 g / cm^3
# Si number density = 21.853110 Si / 1000 Ang^3
#
#
#
# Elastic Constant Matrix: (Units=GPa)
#
#
# Indices 1 2 3 4 5 6 
#
# 1 81.9944 24.1700 28.4688 0.0000 0.0000 0.0000
# 2 24.1700 49.9202 5.3853 0.0000 0.0000 0.0000
# 3 28.4688 5.3853 111.1713 0.0000 0.0000 0.0000
# 4 0.0000 0.0000 0.0000 22.7430 0.0000 0.0000
# 5 0.0000 0.0000 0.0000 0.0000 34.5427 0.0000
# 6 0.0000 0.0000 0.0000 0.0000 0.0000 43.4887
#
#
#
# Elastic Compliance Matrix: (Units=1/GPa)
#
#
# Indices 1 2 3 4 5 6 
#
# 1 0.015566 -0.007144 -0.003640 0.000000 0.000000 0.000000
# 2 -0.007144 0.023416 0.000695 0.000000 0.000000 0.000000
# 3 -0.003640 0.000695 0.009894 0.000000 0.000000 0.000000
# 4 0.000000 0.000000 0.000000 0.043970 0.000000 0.000000
# 5 0.000000 0.000000 0.000000 0.000000 0.028950 0.000000
# 6 0.000000 0.000000 0.000000 0.000000 0.000000 0.022994
#
#
# Mechanical properties :
#
#
# Convention : Reuss Voigt Hill
#
# Bulk Modulus (GPa) = 34.84605 39.90377 37.37491
# Shear Modulus (GPa) = 28.64806 32.49234 30.57020
#
# Velocity S-wave (km/s) = 3.62462 3.86016 3.74424
# Velocity P-wave (km/s) = 5.78769 6.17797 5.98601
#
# Compressibility (1/GPa) = 0.02869766
#
# Stress axis : x y z
#
# Youngs Moduli (GPa) = 64.24429 42.70620 101.07562
#
# Poissons Ratio (x) = 0.30508 0.36791
# Poissons Ratio (y) = 0.45895 -0.07026
# Poissons Ratio (z) = 0.23385 -0.02968
#
# Static dielectric constant tensor:
#      x y z
#    x 1.793750 0.000000 0.000000 
#    y 0.000000 1.791100 0.000000 
#    z 0.000000 0.000000 1.836220 
# 
# From -- ./inp_files/11056.got.cif
#   From: 2010.05.17/outbox.cif.g08.bks.cpg/sg56_6_cif.got.tgz:11056.got - 2010.06.03 13:42:01.
