data_PCOD9432336
_publ_section_title
;
Structure prediction by ZEFSAII (Michael W. Deem and Ramdas Pophale) SiO2 
 PCOD9432336
Probable space group: P C C N
;
_chemical_formula_sum "Si O2"
_cell_formula_units_Z 64
_cell_length_a 16.920870
_cell_length_b 21.078075
_cell_length_c 9.182777
_cell_angle_alpha 90.000000
_cell_angle_beta 90.000000
_cell_angle_gamma 90.000000
_cell_volume 3275.123431
_symmetry_space_group_name_H-M "P C C N"
_symmetry_group_IT_number 56
_symmetry_cell_setting 'orthorhombic'
loop_
_space_group_symop_operation_xyz
x,y,z
1/2-x,1/2-y,z
1/2+x,-y,1/2-z
-x,1/2+y,1/2-z
-x,-y,-z
1/2+x,1/2+y,-z
1/2-x,y,1/2+z
x,1/2-y,1/2+z
loop_
_atom_site_type_symbol
_atom_site_label
_atom_site_fract_x
_atom_site_fract_y
_atom_site_fract_z
Si Si1 0.479577 0.699817 0.728530
Si Si2 0.500168 0.072030 0.607762
Si Si3 0.708883 0.312260 0.242771
Si Si4 0.640960 0.492659 0.999812
Si Si5 0.459564 0.032129 0.139015
Si Si6 0.297721 0.512148 0.674150
Si Si7 0.977597 0.328436 0.107179
Si Si8 0.804153 0.133754 0.523553
O O1 0.510848 0.640512 0.821928
O O2 0.384507 0.693508 0.747447
O O3 0.501060 0.688747 0.559677
O O4 0.499191 0.769372 0.789954
O O5 0.421305 0.049647 0.525965
O O6 0.579547 0.066901 0.508336
O O7 0.519503 0.018226 0.731702
O O8 0.750000 0.250000 0.182561
O O9 0.737524 0.321236 0.406641
O O10 0.741145 0.371547 0.151413
O O11 0.687702 0.494597 0.152726
O O12 0.706649 0.493827 0.873584
O O13 0.365011 0.036329 0.117979
O O14 0.490419 0.103448 0.158139
O O15 0.500000 0.000000 0.000000
O O16 0.324408 0.574400 0.579905
O O17 0.883100 0.338691 0.093645
#
# Coordination Sequence:
#
# PCOD9432336 Si02
#       8
#     8   8   8   8   8   8   8   8
#     4  11  23  38  57  85 124 164 215 257 318 383
#     4  10  22  43  64  89 131 172 216 271 322 384
#     4  11  21  33  50  77 119 162 202 246 295 374
#     4  10  23  39  62  95 123 165 210 267 326 380
#     4  11  20  39  66  88 122 169 219 262 319 374
#     4  11  22  38  61  92 124 157 216 266 318 383
#     4  11  23  37  57  87 117 168 210 263 314 388
#     4  11  21  34  51  79 118 161 203 247 308 365
#
# _framework density 19.541246999999998
#
# number of rings (size 3 to 8) (size 9 to 14) (size 15 to 20)
#    0.000    1.250    3.750    4.125    3.500    4.000 
#    0.000    0.000    0.000    0.750    0.000    5.250 
#    0.000    0.000    0.000    0.000    0.000    0.000 
#
# Total GULP energy -356695.697094 kJ/mol
# GULP energy per Si atom -5573.370267 kJ/mol
# Density = 1.949677 g / cm^3
# Si number density = 19.541247 Si / 1000 Ang^3
#
#
#
# Elastic Constant Matrix: (Units=GPa)
#
#
# Indices 1 2 3 4 5 6 
#
# 1 82.5864 22.1923 37.9267 0.0000 0.0000 0.0000
# 2 22.1923 109.5613 26.8924 0.0000 0.0000 0.0000
# 3 37.9267 26.8924 56.7286 0.0000 0.0000 0.0000
# 4 0.0000 0.0000 0.0000 29.5589 0.0000 0.0000
# 5 0.0000 0.0000 0.0000 0.0000 32.6086 0.0000
# 6 0.0000 0.0000 0.0000 0.0000 0.0000 26.9985
#
#
#
# Elastic Compliance Matrix: (Units=1/GPa)
#
#
# Indices 1 2 3 4 5 6 
#
# 1 0.017530 -0.000763 -0.011358 0.000000 0.000000 0.000000
# 2 -0.000763 0.010362 -0.004402 0.000000 0.000000 0.000000
# 3 -0.011358 -0.004402 0.027308 0.000000 0.000000 0.000000
# 4 0.000000 0.000000 0.000000 0.033831 0.000000 0.000000
# 5 0.000000 0.000000 0.000000 0.000000 0.030667 0.000000
# 6 0.000000 0.000000 0.000000 0.000000 0.000000 0.037039
#
#
# Mechanical properties :
#
#
# Convention : Reuss Voigt Hill
#
# Bulk Modulus (GPa) = 45.13878 46.98880 46.06379
# Shear Modulus (GPa) = 25.35910 28.62418 26.99164
#
# Velocity S-wave (km/s) = 3.60630 3.83143 3.72057
# Velocity P-wave (km/s) = 6.36317 6.60843 6.48696
#
# Compressibility (1/GPa) = 0.02215390
#
# Stress axis : x y z
#
# Youngs Moduli (GPa) = 57.04658 96.50274 36.61887
#
# Poissons Ratio (x) = 0.07362 0.41592
# Poissons Ratio (y) = 0.04352 0.16121
# Poissons Ratio (z) = 0.64794 0.42484
#
# Static dielectric constant tensor:
#      x y z
#    x 1.699180 0.000000 0.000000 
#    y 0.000000 1.759330 0.000000 
#    z 0.000000 0.000000 1.755510 
# 
# From -- ./inp_files/4230.got.cif
#   From: 2010.05.17/outbox.cif.g08.bks.cpg/sg56_3_cif.got.tgz:4230.got - 2010.06.03 13:42:01.
