data_PCOD9432035
_publ_section_title
;
Structure prediction by ZEFSAII (Michael W. Deem and Ramdas Pophale) SiO2 
 PCOD9432035
Probable space group: P C C N
;
_chemical_formula_sum "Si O2"
_cell_formula_units_Z 40
_cell_length_a 12.833078
_cell_length_b 5.545399
_cell_length_c 26.708532
_cell_angle_alpha 90.000000
_cell_angle_beta 90.000000
_cell_angle_gamma 90.000000
_cell_volume 1900.700338
_symmetry_space_group_name_H-M "P C C N"
_symmetry_group_IT_number 56
_symmetry_cell_setting 'orthorhombic'
loop_
_space_group_symop_operation_xyz
x,y,z
1/2-x,1/2-y,z
1/2+x,-y,1/2-z
-x,1/2+y,1/2-z
-x,-y,-z
1/2+x,1/2+y,-z
1/2-x,y,1/2+z
x,1/2-y,1/2+z
loop_
_atom_site_type_symbol
_atom_site_label
_atom_site_fract_x
_atom_site_fract_y
_atom_site_fract_z
Si Si1 0.584688 0.693726 0.981740
Si Si2 0.684398 0.996908 0.283070
Si Si3 0.853937 0.090080 0.892648
Si Si4 0.816418 0.001714 0.674159
Si Si5 0.451958 0.083960 0.921591
O O1 0.660858 0.574875 0.941673
O O2 0.519246 0.882014 0.949172
O O3 0.500000 0.500000 0.000000
O O4 0.621046 0.810666 0.033950
O O5 0.750000 0.750000 0.280675
O O6 0.750000 0.250000 0.283783
O O7 0.631231 0.978840 0.337363
O O8 0.627856 0.001807 0.228962
O O9 0.750000 0.250000 0.890163
O O10 0.960823 0.229573 0.903039
O O11 0.750000 0.250000 0.672544
O O12 0.750000 0.750000 0.670997
O O13 0.890390 0.004314 0.626385
#
# Coordination Sequence:
#
# PCOD9432035 Si02
#       5
#     8   8   8   8   8
#     4   9  21  41  60  88 133 160 210 278 308 380
#     4   9  20  40  63  93 132 162 211 268 311 379
#     4  10  22  39  64  94 126 171 208 263 328 384
#     4  10  23  44  67  94 129 175 216 267 326 376
#     4  10  22  43  61  93 130 164 218 271 313 390
#
# _framework density 21.044875000000001
#
# number of rings (size 3 to 8) (size 9 to 14) (size 15 to 20)
#    0.000    2.400    0.000    0.000   11.200    0.000 
#   14.400    0.000    0.000    0.000    0.000    0.000 
#    0.000    0.000    0.000    0.000    0.000    0.000 
#
# Total GULP energy -222711.794616 kJ/mol
# GULP energy per Si atom -5567.794865 kJ/mol
# Density = 2.099698 g / cm^3
# Si number density = 21.044875 Si / 1000 Ang^3
#
#
#
# Elastic Constant Matrix: (Units=GPa)
#
#
# Indices 1 2 3 4 5 6 
#
# 1 37.9670 11.7675 54.7897 0.0000 0.0000 0.0000
# 2 11.7675 85.9779 41.1570 0.0000 0.0000 0.0000
# 3 54.7897 41.1570 261.9438 0.0000 0.0000 0.0000
# 4 0.0000 0.0000 0.0000 26.9696 0.0000 0.0000
# 5 0.0000 0.0000 0.0000 0.0000 34.4491 0.0000
# 6 0.0000 0.0000 0.0000 0.0000 0.0000 18.5380
#
#
#
# Elastic Compliance Matrix: (Units=1/GPa)
#
#
# Indices 1 2 3 4 5 6 
#
# 1 0.037906 -0.001506 -0.007692 0.000000 0.000000 0.000000
# 2 -0.001506 0.012637 -0.001671 0.000000 0.000000 0.000000
# 3 -0.007692 -0.001671 0.005689 0.000000 0.000000 0.000000
# 4 0.000000 0.000000 0.000000 0.037079 0.000000 0.000000
# 5 0.000000 0.000000 0.000000 0.000000 0.029028 0.000000
# 6 0.000000 0.000000 0.000000 0.000000 0.000000 0.053943
#
#
# Mechanical properties :
#
#
# Convention : Reuss Voigt Hill
#
# Bulk Modulus (GPa) = 28.99018 66.81301 47.90159
# Shear Modulus (GPa) = 23.86450 34.53631 29.20040
#
# Velocity S-wave (km/s) = 3.37112 4.05542 3.72900
# Velocity P-wave (km/s) = 5.38125 7.33112 6.43052
#
# Compressibility (1/GPa) = 0.03449444
#
# Stress axis : x y z
#
# Youngs Moduli (GPa) = 26.38139 79.13480 175.77852
#
# Poissons Ratio (x) = 0.11917 1.35208
# Poissons Ratio (y) = 0.03973 0.29364
# Poissons Ratio (z) = 0.20292 0.13220
#
# Static dielectric constant tensor:
#      x y z
#    x 1.768070 0.000000 0.000000 
#    y 0.000000 1.812950 0.000000 
#    z 0.000000 0.000000 1.268220 
# 
# From -- ./inp_files/21054.got.cif
#   From: 2010.05.17/outbox.cif.g08.bks.cpg/sg56_11_cif.got.tgz:21054.got - 2010.06.03 13:42:01.
