data_PCOD9432728
_publ_section_title
;
Structure prediction by ZEFSAII (Michael W. Deem and Ramdas Pophale) SiO2 
 PCOD9432728
Probable space group: P C C N
;
_chemical_formula_sum "Si O2"
_cell_formula_units_Z 64
_cell_length_a 12.084501
_cell_length_b 13.141384
_cell_length_c 18.282025
_cell_angle_alpha 90.000000
_cell_angle_beta 90.000000
_cell_angle_gamma 90.000000
_cell_volume 2903.314789
_symmetry_space_group_name_H-M "P C C N"
_symmetry_group_IT_number 56
_symmetry_cell_setting 'orthorhombic'
loop_
_space_group_symop_operation_xyz
x,y,z
1/2-x,1/2-y,z
1/2+x,-y,1/2-z
-x,1/2+y,1/2-z
-x,-y,-z
1/2+x,1/2+y,-z
1/2-x,y,1/2+z
x,1/2-y,1/2+z
loop_
_atom_site_type_symbol
_atom_site_label
_atom_site_fract_x
_atom_site_fract_y
_atom_site_fract_z
Si Si1 0.446035 0.378024 0.069496
Si Si2 0.133274 0.963742 0.419448
Si Si3 0.122318 0.719741 0.681220
Si Si4 0.683973 0.644108 0.235826
Si Si5 0.981427 0.300652 0.170851
Si Si6 0.578992 0.104591 0.918960
Si Si7 0.876811 0.559164 0.584375
Si Si8 0.786189 0.495337 0.334826
O O1 0.489193 0.275591 0.105996
O O2 0.540849 0.463083 0.080568
O O3 0.340314 0.419549 0.113850
O O4 0.410502 0.373126 0.985271
O O5 0.113324 0.907125 0.496841
O O6 0.108917 0.881052 0.356755
O O7 0.252936 0.014378 0.421910
O O8 0.038178 0.048910 0.410636
O O9 0.250000 0.750000 0.689333
O O10 0.076729 0.781346 0.612120
O O11 0.128632 0.598404 0.672052
O O12 0.061988 0.752878 0.755465
O O13 0.750000 0.750000 0.232129
O O14 0.594710 0.649091 0.300997
O O15 0.623499 0.620418 0.160019
O O16 0.761938 0.549813 0.257979
O O17 0.674809 0.048705 0.871578
#
# Coordination Sequence:
#
# PCOD9432728 Si02
#       8
#     8   8   8   8   8   8   8   8
#     4  11  26  48  71  99 147 188 237 299 366 430
#     4  11  24  45  73 106 146 185 246 298 364 432
#     4  10  25  42  71 107 139 187 241 292 365 440
#     4  12  26  46  72 108 142 190 244 299 372 442
#     4  12  26  42  70 107 143 191 232 307 366 436
#     4  10  23  44  74 104 138 190 239 300 361 430
#     4  11  27  47  71 103 142 193 242 301 357 436
#     4  11  21  48  73  99 147 188 236 303 362 431
#
# _framework density 22.043769999999999
#
# number of rings (size 3 to 8) (size 9 to 14) (size 15 to 20)
#    0.000    1.000    3.750    1.500    7.000    4.000 
#    6.750    0.000    0.000    0.000    0.000    0.000 
#    0.000    0.000    0.000    0.000    0.000    0.000 
#
# Total GULP energy -358108.587626 kJ/mol
# GULP energy per Si atom -5595.446682 kJ/mol
# Density = 2.199360 g / cm^3
# Si number density = 22.043770 Si / 1000 Ang^3
#
#
#
# Elastic Constant Matrix: (Units=GPa)
#
#
# Indices 1 2 3 4 5 6 
#
# 1 109.2109 34.2172 40.8744 0.0000 0.0000 0.0000
# 2 34.2172 92.8236 57.5187 0.0000 0.0000 0.0000
# 3 40.8744 57.5187 113.1911 0.0000 0.0000 0.0000
# 4 0.0000 0.0000 0.0000 36.1415 0.0000 0.0000
# 5 0.0000 0.0000 0.0000 0.0000 37.6159 0.0000
# 6 0.0000 0.0000 0.0000 0.0000 0.0000 28.9225
#
#
#
# Elastic Compliance Matrix: (Units=1/GPa)
#
#
# Indices 1 2 3 4 5 6 
#
# 1 0.010916 -0.002308 -0.002769 0.000000 0.000000 0.000000
# 2 -0.002308 0.016213 -0.007405 0.000000 0.000000 0.000000
# 3 -0.002769 -0.007405 0.013597 0.000000 0.000000 0.000000
# 4 0.000000 0.000000 0.000000 0.027669 0.000000 0.000000
# 5 0.000000 0.000000 0.000000 0.000000 0.026585 0.000000
# 6 0.000000 0.000000 0.000000 0.000000 0.000000 0.034575
#
#
# Mechanical properties :
#
#
# Convention : Reuss Voigt Hill
#
# Bulk Modulus (GPa) = 63.44468 64.49404 63.96936
# Shear Modulus (GPa) = 31.29439 32.71031 32.00235
#
# Velocity S-wave (km/s) = 3.77191 3.85630 3.81434
# Velocity P-wave (km/s) = 6.91473 7.01062 6.96284
#
# Compressibility (1/GPa) = 0.01576176
#
# Stress axis : x y z
#
# Youngs Moduli (GPa) = 91.60760 61.68077 73.54329
#
# Poissons Ratio (x) = 0.14237 0.20364
# Poissons Ratio (y) = 0.21144 0.54459
# Poissons Ratio (z) = 0.25366 0.45675
#
# Static dielectric constant tensor:
#      x y z
#    x 1.807150 0.000000 0.000000 
#    y 0.000000 1.814940 0.000000 
#    z 0.000000 0.000000 1.789320 
# 
# From -- ./inp_files/15794.got.cif
#   From: 2010.05.17/outbox.cif.g08.bks.cpg/sg56_8_cif.got.tgz:15794.got - 2010.06.03 13:42:01.
