data_PCOD9432403
_publ_section_title
;
Structure prediction by ZEFSAII (Michael W. Deem and Ramdas Pophale) SiO2 
 PCOD9432403
Probable space group: P C C N
;
_chemical_formula_sum "Si O2"
_cell_formula_units_Z 56
_cell_length_a 13.944544
_cell_length_b 6.750207
_cell_length_c 27.565836
_cell_angle_alpha 90.000000
_cell_angle_beta 90.000000
_cell_angle_gamma 90.000000
_cell_volume 2594.732407
_symmetry_space_group_name_H-M "P C C N"
_symmetry_group_IT_number 56
_symmetry_cell_setting 'orthorhombic'
loop_
_space_group_symop_operation_xyz
x,y,z
1/2-x,1/2-y,z
1/2+x,-y,1/2-z
-x,1/2+y,1/2-z
-x,-y,-z
1/2+x,1/2+y,-z
1/2-x,y,1/2+z
x,1/2-y,1/2+z
loop_
_atom_site_type_symbol
_atom_site_label
_atom_site_fract_x
_atom_site_fract_y
_atom_site_fract_z
Si Si1 0.925483 0.459672 0.717823
Si Si2 0.862596 0.789561 0.125242
Si Si3 0.136996 0.766966 0.105485
Si Si4 0.495867 0.065282 0.108697
Si Si5 0.488250 0.964425 0.443401
Si Si6 0.851488 0.360576 0.285216
Si Si7 0.613285 0.738808 0.801620
O O1 0.888258 0.554016 0.668110
O O2 0.900316 0.240338 0.735829
O O3 0.890678 0.610523 0.758353
O O4 0.042440 0.451874 0.714835
O O5 0.750000 0.750000 0.125034
O O6 0.920656 0.580868 0.128672
O O7 0.903862 0.897272 0.077686
O O8 0.250000 0.750000 0.098475
O O9 0.113392 0.764590 0.163051
O O10 0.080647 0.580056 0.083531
O O11 0.085734 0.959022 0.083090
O O12 0.530394 0.239348 0.073363
O O13 0.437535 0.172883 0.151979
O O14 0.500000 0.000000 0.500000
O O15 0.750000 0.250000 0.276417
O O16 0.803547 0.579090 0.303340
#
# Coordination Sequence:
#
# PCOD9432403 Si02
#       7
#     8   8   8   8   8   8   8
#     4  12  23  37  63  92 132 186 226 267 329 409
#     4  11  27  45  67 106 144 179 235 288 351 423
#     4  10  22  44  67 104 137 174 231 288 346 408
#     4  11  22  45  73  93 138 185 220 293 348 407
#     4  11  25  50  74 100 133 180 235 290 361 421
#     4  11  24  37  57  94 137 173 221 274 325 407
#     4  12  21  38  63  90 127 186 229 266 336 398
#
# _framework density 21.582187000000001
#
# number of rings (size 3 to 8) (size 9 to 14) (size 15 to 20)
#    0.000    0.857    5.714    1.714    2.000    3.429 
#    5.143    0.000    0.000    0.000    0.000    0.000 
#    0.000    0.000    0.000    0.000    0.000    0.000 
#
# Total GULP energy -312108.225463 kJ/mol
# GULP energy per Si atom -5573.361169 kJ/mol
# Density = 2.153306 g / cm^3
# Si number density = 21.582187 Si / 1000 Ang^3
#
#
#
# Elastic Constant Matrix: (Units=GPa)
#
#
# Indices 1 2 3 4 5 6 
#
# 1 71.0278 20.3842 1.4547 0.0000 0.0000 0.0000
# 2 20.3842 153.3571 30.2217 0.0000 0.0000 0.0000
# 3 1.4547 30.2217 112.0446 0.0000 0.0000 0.0000
# 4 0.0000 0.0000 0.0000 21.7537 0.0000 0.0000
# 5 0.0000 0.0000 0.0000 0.0000 19.9356 0.0000
# 6 0.0000 0.0000 0.0000 0.0000 0.0000 18.6430
#
#
#
# Elastic Compliance Matrix: (Units=1/GPa)
#
#
# Indices 1 2 3 4 5 6 
#
# 1 0.014651 -0.002017 0.000354 0.000000 0.000000 0.000000
# 2 -0.002017 0.007165 -0.001906 0.000000 0.000000 0.000000
# 3 0.000354 -0.001906 0.009435 0.000000 0.000000 0.000000
# 4 0.000000 0.000000 0.000000 0.045969 0.000000 0.000000
# 5 0.000000 0.000000 0.000000 0.000000 0.050162 0.000000
# 6 0.000000 0.000000 0.000000 0.000000 0.000000 0.053640
#
#
# Mechanical properties :
#
#
# Convention : Reuss Voigt Hill
#
# Bulk Modulus (GPa) = 41.47537 48.95008 45.21272
# Shear Modulus (GPa) = 25.48470 31.02436 28.25453
#
# Velocity S-wave (km/s) = 3.44004 3.79555 3.62216
# Velocity P-wave (km/s) = 5.91926 6.47598 6.20386
#
# Compressibility (1/GPa) = 0.02411070
#
# Stress axis : x y z
#
# Youngs Moduli (GPa) = 68.25639 139.57690 105.99276
#
# Poissons Ratio (x) = 0.28154 -0.03751
# Poissons Ratio (y) = 0.13768 0.20205
# Poissons Ratio (z) = -0.02415 0.26607
#
# Static dielectric constant tensor:
#      x y z
#    x 2.090380 0.000000 0.000000 
#    y 0.000000 2.146190 0.000000 
#    z 0.000000 0.000000 1.771240 
# 
# From -- ./inp_files/23618.got.cif
#   From: 2010.05.17/outbox.cif.g08.bks.cpg/sg56_12_cif.got.tgz:23618.got - 2010.06.03 13:42:01.
