data_PCOD9432548
_publ_section_title
;
Structure prediction by ZEFSAII (Michael W. Deem and Ramdas Pophale) SiO2 
 PCOD9432548
Probable space group: P C C N
;
_chemical_formula_sum "Si O2"
_cell_formula_units_Z 64
_cell_length_a 8.526922
_cell_length_b 16.120930
_cell_length_c 23.085588
_cell_angle_alpha 90.000000
_cell_angle_beta 90.000000
_cell_angle_gamma 90.000000
_cell_volume 3173.389082
_symmetry_space_group_name_H-M "P C C N"
_symmetry_group_IT_number 56
_symmetry_cell_setting 'orthorhombic'
loop_
_space_group_symop_operation_xyz
x,y,z
1/2-x,1/2-y,z
1/2+x,-y,1/2-z
-x,1/2+y,1/2-z
-x,-y,-z
1/2+x,1/2+y,-z
1/2-x,y,1/2+z
x,1/2-y,1/2+z
loop_
_atom_site_type_symbol
_atom_site_label
_atom_site_fract_x
_atom_site_fract_y
_atom_site_fract_z
Si Si1 0.724560 0.980970 0.544217
Si Si2 0.409118 0.917131 0.868544
Si Si3 0.839166 0.337577 0.716206
Si Si4 0.124354 0.545799 0.569851
Si Si5 0.066085 0.237913 0.125457
Si Si6 0.388707 0.921737 0.161013
Si Si7 0.117938 0.186715 0.415314
Si Si8 0.080578 0.789506 0.993345
O O1 0.552130 0.988407 0.573053
O O2 0.789451 0.892336 0.561545
O O3 0.836337 0.050156 0.571494
O O4 0.716514 0.987558 0.475127
O O5 0.269397 0.893715 0.824974
O O6 0.497511 0.830976 0.876969
O O7 0.515347 0.991994 0.843972
O O8 0.750000 0.250000 0.728585
O O9 0.867928 0.388669 0.774361
O O10 0.992606 0.310734 0.679905
O O11 0.224680 0.563222 0.626961
O O12 0.106627 0.630050 0.532700
O O13 0.250000 0.250000 0.128631
O O14 0.007360 0.194051 0.066742
O O15 0.489332 0.850257 0.128418
O O16 0.250000 0.250000 0.391278
O O17 0.026484 0.229510 0.467935
O O18 0.250000 0.750000 0.980678
#
# Coordination Sequence:
#
# PCOD9432548 Si02
#       8
#     8   8   8   8   8   8   8   8
#     4  10  23  40  61  92 139 166 216 269 327 391
#     4  10  24  45  64  95 127 174 217 278 324 390
#     4  10  24  47  67  92 128 172 230 275 328 389
#     4  11  23  38  61  98 128 181 214 267 333 399
#     4  11  25  43  72  98 127 174 225 278 328 396
#     4  11  26  41  69  98 134 180 220 278 340 400
#     4  11  23  39  61  98 137 175 216 266 333 402
#     4  12  22  39  66  95 134 170 216 270 329 398
#
# _framework density 20.167714
#
# number of rings (size 3 to 8) (size 9 to 14) (size 15 to 20)
#    0.000    1.250    2.500    3.000    3.500    5.500 
#    0.000    5.000    0.000    0.000    0.000    0.000 
#    0.000    0.000    0.000    0.000    0.000    0.000 
#
# Total GULP energy -357912.372073 kJ/mol
# GULP energy per Si atom -5592.380814 kJ/mol
# Density = 2.012181 g / cm^3
# Si number density = 20.167714 Si / 1000 Ang^3
#
#
#
# Elastic Constant Matrix: (Units=GPa)
#
#
# Indices 1 2 3 4 5 6 
#
# 1 99.9196 20.5595 32.1733 0.0000 0.0000 0.0000
# 2 20.5595 70.0071 28.8043 0.0000 0.0000 0.0000
# 3 32.1733 28.8043 55.1408 0.0000 0.0000 0.0000
# 4 0.0000 0.0000 0.0000 27.4808 0.0000 0.0000
# 5 0.0000 0.0000 0.0000 0.0000 10.0411 0.0000
# 6 0.0000 0.0000 0.0000 0.0000 0.0000 16.2912
#
#
#
# Elastic Compliance Matrix: (Units=1/GPa)
#
#
# Indices 1 2 3 4 5 6 
#
# 1 0.012362 -0.000844 -0.006772 0.000000 0.000000 0.000000
# 2 -0.000844 0.018253 -0.009042 0.000000 0.000000 0.000000
# 3 -0.006772 -0.009042 0.026810 0.000000 0.000000 0.000000
# 4 0.000000 0.000000 0.000000 0.036389 0.000000 0.000000
# 5 0.000000 0.000000 0.000000 0.000000 0.099591 0.000000
# 6 0.000000 0.000000 0.000000 0.000000 0.000000 0.061383
#
#
# Mechanical properties :
#
#
# Convention : Reuss Voigt Hill
#
# Bulk Modulus (GPa) = 41.47978 43.12686 42.30332
# Shear Modulus (GPa) = 16.88384 20.33131 18.60758
#
# Velocity S-wave (km/s) = 2.89653 3.17852 3.04080
# Velocity P-wave (km/s) = 5.63902 5.90772 5.77494
#
# Compressibility (1/GPa) = 0.02410813
#
# Stress axis : x y z
#
# Youngs Moduli (GPa) = 80.89099 54.78682 37.29918
#
# Poissons Ratio (x) = 0.04625 0.25260
# Poissons Ratio (y) = 0.06828 0.33727
# Poissons Ratio (z) = 0.54781 0.49539
#
# Static dielectric constant tensor:
#      x y z
#    x 1.728390 0.000000 0.000000 
#    y 0.000000 1.730830 0.000000 
#    z 0.000000 0.000000 1.686340 
# 
# From -- ./inp_files/20681.got.cif
#   From: 2010.05.17/outbox.cif.g08.bks.cpg/sg56_11_cif.got.tgz:20681.got - 2010.06.03 13:42:01.
