data_PCOD9432961
_publ_section_title
;
Structure prediction by ZEFSAII (Michael W. Deem and Ramdas Pophale) SiO2 
 PCOD9432961
Probable space group: P C C N
;
_chemical_formula_sum "Si O2"
_cell_formula_units_Z 24
_cell_length_a 7.819804
_cell_length_b 8.049646
_cell_length_c 14.334542
_cell_angle_alpha 90.000000
_cell_angle_beta 90.000000
_cell_angle_gamma 90.000000
_cell_volume 902.311455
_symmetry_space_group_name_H-M "P C C N"
_symmetry_group_IT_number 56
_symmetry_cell_setting 'orthorhombic'
loop_
_space_group_symop_operation_xyz
x,y,z
1/2-x,1/2-y,z
1/2+x,-y,1/2-z
-x,1/2+y,1/2-z
-x,-y,-z
1/2+x,1/2+y,-z
1/2-x,y,1/2+z
x,1/2-y,1/2+z
loop_
_atom_site_type_symbol
_atom_site_label
_atom_site_fract_x
_atom_site_fract_y
_atom_site_fract_z
Si Si1 0.814574 0.561954 0.963336
Si Si2 0.359990 0.971011 0.366711
Si Si3 0.001463 0.132152 0.708741
O O1 0.750000 0.750000 0.985304
O O2 0.845202 0.554616 0.852966
O O3 0.677693 0.459245 0.023513
O O4 0.000000 0.500000 0.000000
O O5 0.173213 0.959209 0.319571
O O6 0.467856 0.815021 0.330912
O O7 0.453217 0.125318 0.317527
#
# Coordination Sequence:
#
# PCOD9432961 Si02
#       3
#     8   8   8
#     4  10  24  44  72 105 147 190 245 307 379 450
#     4  10  24  45  71 105 142 190 247 305 374 448
#     4  10  24  45  70 106 143 190 246 302 375 452
#
# _framework density 26.598354
#
# number of rings (size 3 to 8) (size 9 to 14) (size 15 to 20)
#    0.000    2.000    0.000    0.000   14.000    1.333 
#    0.000    3.333    0.000    0.000    0.000    0.000 
#    0.000    0.000    0.000    0.000    0.000    0.000 
#
# Total GULP energy -134048.190045 kJ/mol
# GULP energy per Si atom -5585.341252 kJ/mol
# Density = 2.653781 g / cm^3
# Si number density = 26.598354 Si / 1000 Ang^3
#
#
#
# Elastic Constant Matrix: (Units=GPa)
#
#
# Indices 1 2 3 4 5 6 
#
# 1 158.9636 24.3275 53.9722 0.0000 0.0000 0.0000
# 2 24.3275 68.7890 6.1933 0.0000 0.0000 0.0000
# 3 53.9722 6.1933 148.9274 0.0000 0.0000 0.0000
# 4 0.0000 0.0000 0.0000 25.7728 0.0000 0.0000
# 5 0.0000 0.0000 0.0000 0.0000 54.3537 0.0000
# 6 0.0000 0.0000 0.0000 0.0000 0.0000 44.6163
#
#
#
# Elastic Compliance Matrix: (Units=1/GPa)
#
#
# Indices 1 2 3 4 5 6 
#
# 1 0.007559 -0.002436 -0.002638 0.000000 0.000000 0.000000
# 2 -0.002436 0.015377 0.000243 0.000000 0.000000 0.000000
# 3 -0.002638 0.000243 0.007661 0.000000 0.000000 0.000000
# 4 0.000000 0.000000 0.000000 0.038801 0.000000 0.000000
# 5 0.000000 0.000000 0.000000 0.000000 0.018398 0.000000
# 6 0.000000 0.000000 0.000000 0.000000 0.000000 0.022413
#
#
# Mechanical properties :
#
#
# Convention : Reuss Voigt Hill
#
# Bulk Modulus (GPa) = 47.76651 60.62956 54.19803
# Shear Modulus (GPa) = 39.41709 44.42769 41.92239
#
# Velocity S-wave (km/s) = 3.85377 4.09139 3.97435
# Velocity P-wave (km/s) = 6.14813 6.72036 6.44060
#
# Compressibility (1/GPa) = 0.02093517
#
# Stress axis : x y z
#
# Youngs Moduli (GPa) = 132.28789 65.03327 130.53679
#
# Poissons Ratio (x) = 0.15841 0.34439
# Poissons Ratio (y) = 0.32223 -0.03176
# Poissons Ratio (z) = 0.34901 -0.01582
#
# Static dielectric constant tensor:
#      x y z
#    x 2.079020 0.000000 0.000000 
#    y 0.000000 2.272140 0.000000 
#    z 0.000000 0.000000 2.036750 
# 
# From -- ./inp_files/9910.got.cif
#   From: 2010.05.17/outbox.cif.g08.bks.cpg/sg56_5_cif.got.tgz:9910.got - 2010.06.03 13:42:01.
