data_PCOD9432364
_publ_section_title
;
Structure prediction by ZEFSAII (Michael W. Deem and Ramdas Pophale) SiO2 
 PCOD9432364
Probable space group: P C C N
;
_chemical_formula_sum "Si O2"
_cell_formula_units_Z 56
_cell_length_a 14.361979
_cell_length_b 5.330997
_cell_length_c 32.089194
_cell_angle_alpha 90.000000
_cell_angle_beta 90.000000
_cell_angle_gamma 90.000000
_cell_volume 2456.866363
_symmetry_space_group_name_H-M "P C C N"
_symmetry_group_IT_number 56
_symmetry_cell_setting 'orthorhombic'
loop_
_space_group_symop_operation_xyz
x,y,z
1/2-x,1/2-y,z
1/2+x,-y,1/2-z
-x,1/2+y,1/2-z
-x,-y,-z
1/2+x,1/2+y,-z
1/2-x,y,1/2+z
x,1/2-y,1/2+z
loop_
_atom_site_type_symbol
_atom_site_label
_atom_site_fract_x
_atom_site_fract_y
_atom_site_fract_z
Si Si1 0.195164 0.008458 0.967837
Si Si2 0.102197 0.210962 0.398056
Si Si3 0.356693 0.672477 0.335992
Si Si4 0.363071 0.751047 0.739042
Si Si5 0.965594 0.181354 0.535619
Si Si6 0.138335 0.246573 0.193183
Si Si7 0.532344 0.602416 0.885597
O O1 0.250000 0.750000 0.972625
O O2 0.092845 0.917023 0.982249
O O3 0.250000 0.250000 0.985832
O O4 0.169482 0.087513 0.920236
O O5 0.996702 0.313404 0.392577
O O6 0.135961 0.110529 0.353716
O O7 0.097938 0.993042 0.433297
O O8 0.250000 0.750000 0.342726
O O9 0.380323 0.728606 0.288139
O O10 0.437271 0.806052 0.362580
O O11 0.250000 0.750000 0.735077
O O12 0.396502 0.503947 0.714393
O O13 0.398610 0.004852 0.717933
O O14 0.040666 0.281663 0.568622
O O15 0.000000 0.000000 0.500000
O O16 0.250000 0.250000 0.196718
O O17 0.110938 0.192827 0.145590
#
# Coordination Sequence:
#
# PCOD9432364 Si02
#       7
#     8   8   8   8   8   8   8
#     4  11  22  39  65  97 130 173 219 258 337 415
#     4  10  23  38  66  96 135 171 217 264 338 405
#     4  10  23  37  60  98 138 170 215 269 327 407
#     4   9  21  40  63  92 127 173 219 270 333 381
#     4  10  23  43  68  94 134 175 216 280 342 415
#     4  10  22  43  68  89 126 175 227 280 322 383
#     4  10  24  37  65 100 125 177 225 267 344 402
#
# _framework density 22.793263
#
# number of rings (size 3 to 8) (size 9 to 14) (size 15 to 20)
#    0.000    2.000    1.429    0.000   12.000    3.429 
#    0.000    0.000    6.286    0.000    0.000    0.000 
#    0.000    0.000    0.000    0.000    0.000    0.000 
#
# Total GULP energy -312344.169595 kJ/mol
# GULP energy per Si atom -5577.574457 kJ/mol
# Density = 2.274138 g / cm^3
# Si number density = 22.793263 Si / 1000 Ang^3
#
#
#
# Elastic Constant Matrix: (Units=GPa)
#
#
# Indices 1 2 3 4 5 6 
#
# 1 38.4798 32.9801 14.6629 0.0000 0.0000 0.0000
# 2 32.9801 147.8204 57.2964 0.0000 0.0000 0.0000
# 3 14.6629 57.2964 114.5216 0.0000 0.0000 0.0000
# 4 0.0000 0.0000 0.0000 30.8791 0.0000 0.0000
# 5 0.0000 0.0000 0.0000 0.0000 22.9790 0.0000
# 6 0.0000 0.0000 0.0000 0.0000 0.0000 29.5695
#
#
#
# Elastic Compliance Matrix: (Units=1/GPa)
#
#
# Indices 1 2 3 4 5 6 
#
# 1 0.032172 -0.006924 -0.000655 0.000000 0.000000 0.000000
# 2 -0.006924 0.009883 -0.004058 0.000000 0.000000 0.000000
# 3 -0.000655 -0.004058 0.010846 0.000000 0.000000 0.000000
# 4 0.000000 0.000000 0.000000 0.032384 0.000000 0.000000
# 5 0.000000 0.000000 0.000000 0.000000 0.043518 0.000000
# 6 0.000000 0.000000 0.000000 0.000000 0.000000 0.033819
#
#
# Mechanical properties :
#
#
# Convention : Reuss Voigt Hill
#
# Bulk Modulus (GPa) = 33.75338 56.74450 45.24894
# Shear Modulus (GPa) = 25.54014 29.74436 27.64225
#
# Velocity S-wave (km/s) = 3.35104 3.61635 3.48622
# Velocity P-wave (km/s) = 5.46015 6.51050 6.00832
#
# Compressibility (1/GPa) = 0.02962666
#
# Stress axis : x y z
#
# Youngs Moduli (GPa) = 31.08335 101.18784 92.19959
#
# Poissons Ratio (x) = 0.70061 0.06039
# Poissons Ratio (y) = 0.21522 0.37413
# Poissons Ratio (z) = 0.02036 0.41061
#
# Static dielectric constant tensor:
#      x y z
#    x 1.955710 0.000000 0.000000 
#    y 0.000000 2.044030 0.000000 
#    z 0.000000 0.000000 1.824950 
# 
# From -- ./inp_files/23622.got.cif
#   From: 2010.05.17/outbox.cif.g08.bks.cpg/sg56_12_cif.got.tgz:23622.got - 2010.06.03 13:42:01.
