data_PCOD9432612
_publ_section_title
;
Structure prediction by ZEFSAII (Michael W. Deem and Ramdas Pophale) SiO2 
 PCOD9432612
Probable space group: P C C N
;
_chemical_formula_sum "Si O2"
_cell_formula_units_Z 56
_cell_length_a 9.529932
_cell_length_b 13.994503
_cell_length_c 20.536569
_cell_angle_alpha 90.000000
_cell_angle_beta 90.000000
_cell_angle_gamma 90.000000
_cell_volume 2738.893656
_symmetry_space_group_name_H-M "P C C N"
_symmetry_group_IT_number 56
_symmetry_cell_setting 'orthorhombic'
loop_
_space_group_symop_operation_xyz
x,y,z
1/2-x,1/2-y,z
1/2+x,-y,1/2-z
-x,1/2+y,1/2-z
-x,-y,-z
1/2+x,1/2+y,-z
1/2-x,y,1/2+z
x,1/2-y,1/2+z
loop_
_atom_site_type_symbol
_atom_site_label
_atom_site_fract_x
_atom_site_fract_y
_atom_site_fract_z
Si Si1 0.632352 0.668396 0.790747
Si Si2 0.006513 0.950970 0.570657
Si Si3 0.731225 0.848194 0.025428
Si Si4 0.938419 0.900032 0.137466
Si Si5 0.104377 0.702084 0.746389
Si Si6 0.303001 0.478998 0.093267
Si Si7 0.180979 0.499722 0.810427
O O1 0.750000 0.750000 0.780261
O O2 0.485505 0.726442 0.792336
O O3 0.676204 0.604671 0.853287
O O4 0.629237 0.590612 0.732417
O O5 0.927696 0.853448 0.552469
O O6 0.899948 0.999865 0.621026
O O7 0.000000 0.000000 0.500000
O O8 0.159673 0.959708 0.601727
O O9 0.750000 0.750000 0.988001
O O10 0.831301 0.852944 0.087490
O O11 0.779876 0.931297 0.976984
O O12 0.004636 0.823687 0.186140
O O13 0.845121 0.977956 0.177109
O O14 0.063263 0.953657 0.100359
O O15 0.250000 0.750000 0.726657
O O16 0.145037 0.599617 0.777020
#
# Coordination Sequence:
#
# PCOD9432612 Si02
#       7
#     8   8   8   8   8   8   8
#     4  12  24  40  68  97 132 178 222 274 344 410
#     4   9  22  41  68  92 126 175 219 266 332 394
#     4  10  23  42  64  94 130 171 224 276 329 404
#     4  11  24  41  65  92 132 177 213 278 341 395
#     4  12  27  40  65 102 133 174 231 279 337 406
#     4  11  22  42  68  95 128 175 225 271 338 404
#     4  11  24  44  64  94 141 170 216 278 343 392
#
# _framework density 20.446211000000002
#
# number of rings (size 3 to 8) (size 9 to 14) (size 15 to 20)
#    0.000    1.143    2.857    2.571    6.000    1.143 
#    0.000    0.000    0.000    0.857    0.000    0.000 
#    0.000    0.000    0.000    0.000    0.000    0.000 
#
# Total GULP energy -312483.172847 kJ/mol
# GULP energy per Si atom -5580.056658 kJ/mol
# Density = 2.039967 g / cm^3
# Si number density = 20.446211 Si / 1000 Ang^3
#
#
#
# Elastic Constant Matrix: (Units=GPa)
#
#
# Indices 1 2 3 4 5 6 
#
# 1 143.6123 38.2991 15.1980 0.0000 0.0000 0.0000
# 2 38.2991 84.9815 13.1203 0.0000 0.0000 0.0000
# 3 15.1980 13.1203 77.2982 0.0000 0.0000 0.0000
# 4 0.0000 0.0000 0.0000 17.2369 0.0000 0.0000
# 5 0.0000 0.0000 0.0000 0.0000 32.7117 0.0000
# 6 0.0000 0.0000 0.0000 0.0000 0.0000 28.6789
#
#
#
# Elastic Compliance Matrix: (Units=1/GPa)
#
#
# Indices 1 2 3 4 5 6 
#
# 1 0.007987 -0.003447 -0.000985 0.000000 0.000000 0.000000
# 2 -0.003447 0.013572 -0.001626 0.000000 0.000000 0.000000
# 3 -0.000985 -0.001626 0.013407 0.000000 0.000000 0.000000
# 4 0.000000 0.000000 0.000000 0.058015 0.000000 0.000000
# 5 0.000000 0.000000 0.000000 0.000000 0.030570 0.000000
# 6 0.000000 0.000000 0.000000 0.000000 0.000000 0.034869
#
#
# Mechanical properties :
#
#
# Convention : Reuss Voigt Hill
#
# Bulk Modulus (GPa) = 43.76648 48.79187 46.27917
# Shear Modulus (GPa) = 28.06590 31.67715 29.87152
#
# Velocity S-wave (km/s) = 3.70898 3.94037 3.82642
# Velocity P-wave (km/s) = 6.30826 6.67963 6.49660
#
# Compressibility (1/GPa) = 0.02284854
#
# Stress axis : x y z
#
# Youngs Moduli (GPa) = 125.20651 73.68151 74.59024
#
# Poissons Ratio (x) = 0.25401 0.07349
# Poissons Ratio (y) = 0.43163 0.12127
# Poissons Ratio (z) = 0.12335 0.11979
#
# Static dielectric constant tensor:
#      x y z
#    x 1.792340 0.000000 0.000000 
#    y 0.000000 1.762640 0.000000 
#    z 0.000000 0.000000 1.734080 
# 
# From -- ./inp_files/18250.got.cif
#   From: 2010.05.17/outbox.cif.g08.bks.cpg/sg56_10_cif.got.tgz:18250.got - 2010.06.03 13:42:01.
