data_PCOD9432522
_publ_section_title
;
Structure prediction by ZEFSAII (Michael W. Deem and Ramdas Pophale) SiO2 
 PCOD9432522
Probable space group: P C C N
;
_chemical_formula_sum "Si O2"
_cell_formula_units_Z 52
_cell_length_a 8.337819
_cell_length_b 15.168661
_cell_length_c 19.107281
_cell_angle_alpha 90.000000
_cell_angle_beta 90.000000
_cell_angle_gamma 90.000000
_cell_volume 2416.565657
_symmetry_space_group_name_H-M "P C C N"
_symmetry_group_IT_number 56
_symmetry_cell_setting 'orthorhombic'
loop_
_space_group_symop_operation_xyz
x,y,z
1/2-x,1/2-y,z
1/2+x,-y,1/2-z
-x,1/2+y,1/2-z
-x,-y,-z
1/2+x,1/2+y,-z
1/2-x,y,1/2+z
x,1/2-y,1/2+z
loop_
_atom_site_type_symbol
_atom_site_label
_atom_site_fract_x
_atom_site_fract_y
_atom_site_fract_z
Si Si1 0.927513 0.500372 0.097423
Si Si2 0.051950 0.348196 0.814303
Si Si3 0.250000 0.750000 0.736656
Si Si4 0.773207 0.492644 0.468745
Si Si5 0.250000 0.250000 0.434773
Si Si6 0.250000 0.250000 0.197282
Si Si7 0.501089 0.646431 0.967702
Si Si8 0.945879 0.195331 0.632807
O O1 0.922292 0.548257 0.172050
O O2 0.906044 0.395601 0.096416
O O3 0.106676 0.522145 0.070878
O O4 0.790441 0.530670 0.043401
O O5 0.138034 0.305575 0.881715
O O6 0.144376 0.312727 0.746425
O O7 0.870269 0.312382 0.806537
O O8 0.359375 0.803192 0.792046
O O9 0.894295 0.564870 0.436344
O O10 0.870311 0.403470 0.484558
O O11 0.123771 0.298531 0.485003
O O12 0.365801 0.193898 0.149027
O O13 0.424771 0.714309 0.911431
#
# Coordination Sequence:
#
# PCOD9432522 Si02
#       8
#     8   8   4   8   4   4   8   8
#     4  11  22  40  59  97 131 160 206 272 320 386
#     4  10  23  40  63  87 130 162 214 269 308 384
#     4  10  24  44  60  96 120 178 226 260 318 382
#     4  10  23  38  58  97 132 157 212 254 330 396
#     4  11  21  40  64  92 121 175 208 252 344 389
#     4   9  21  42  62  84 113 179 218 242 306 385
#     4  11  22  40  64  92 125 170 204 265 319 397
#     4  11  22  40  67  88 128 168 216 257 324 377
#
# _framework density 21.518141
#
# number of rings (size 3 to 8) (size 9 to 14) (size 15 to 20)
#    0.000    1.538    1.538    3.231    4.308    1.231 
#    0.000    0.000    0.000    0.000    0.000    0.000 
#    0.000    0.000    0.000    0.000    0.000    0.000 
#
# Total GULP energy -290151.851107 kJ/mol
# GULP energy per Si atom -5579.843291 kJ/mol
# Density = 2.146916 g / cm^3
# Si number density = 21.518141 Si / 1000 Ang^3
#
#
#
# Elastic Constant Matrix: (Units=GPa)
#
#
# Indices 1 2 3 4 5 6 
#
# 1 91.0144 34.3981 7.8271 0.0000 0.0000 0.0000
# 2 34.3981 106.8875 32.9901 0.0000 0.0000 0.0000
# 3 7.8271 32.9901 48.3911 0.0000 0.0000 0.0000
# 4 0.0000 0.0000 0.0000 18.0752 0.0000 0.0000
# 5 0.0000 0.0000 0.0000 0.0000 15.1413 0.0000
# 6 0.0000 0.0000 0.0000 0.0000 0.0000 34.0137
#
#
#
# Elastic Compliance Matrix: (Units=1/GPa)
#
#
# Indices 1 2 3 4 5 6 
#
# 1 0.012541 -0.004318 0.000916 0.000000 0.000000 0.000000
# 2 -0.004318 0.013336 -0.008393 0.000000 0.000000 0.000000
# 3 0.000916 -0.008393 0.026239 0.000000 0.000000 0.000000
# 4 0.000000 0.000000 0.000000 0.055325 0.000000 0.000000
# 5 0.000000 0.000000 0.000000 0.000000 0.066044 0.000000
# 6 0.000000 0.000000 0.000000 0.000000 0.000000 0.029400
#
#
# Mechanical properties :
#
#
# Convention : Reuss Voigt Hill
#
# Bulk Modulus (GPa) = 35.05880 44.08040 39.56960
# Shear Modulus (GPa) = 21.18792 24.85123 23.01957
#
# Velocity S-wave (km/s) = 3.14132 3.40206 3.27429
# Velocity P-wave (km/s) = 5.43003 5.99681 5.72045
#
# Compressibility (1/GPa) = 0.02852351
#
# Stress axis : x y z
#
# Youngs Moduli (GPa) = 79.74084 74.98611 38.11162
#
# Poissons Ratio (x) = 0.32382 -0.03489
# Poissons Ratio (y) = 0.34435 0.31987
# Poissons Ratio (z) = -0.07301 0.62936
#
# Static dielectric constant tensor:
#      x y z
#    x 1.850810 0.000000 0.000000 
#    y 0.000000 1.856260 0.000000 
#    z 0.000000 0.000000 1.746340 
# 
# From -- ./inp_files/18197.got.cif
#   From: 2010.05.17/outbox.cif.g08.bks.cpg/sg56_10_cif.got.tgz:18197.got - 2010.06.03 13:42:01.
