data_PCOD9432170
_publ_section_title
;
Structure prediction by ZEFSAII (Michael W. Deem and Ramdas Pophale) SiO2 
 PCOD9432170
Probable space group: P C C N
;
_chemical_formula_sum "Si O2"
_cell_formula_units_Z 56
_cell_length_a 5.315838
_cell_length_b 14.957304
_cell_length_c 28.230312
_cell_angle_alpha 90.000000
_cell_angle_beta 90.000000
_cell_angle_gamma 90.000000
_cell_volume 2244.609186
_symmetry_space_group_name_H-M "P C C N"
_symmetry_group_IT_number 56
_symmetry_cell_setting 'orthorhombic'
loop_
_space_group_symop_operation_xyz
x,y,z
1/2-x,1/2-y,z
1/2+x,-y,1/2-z
-x,1/2+y,1/2-z
-x,-y,-z
1/2+x,1/2+y,-z
1/2-x,y,1/2+z
x,1/2-y,1/2+z
loop_
_atom_site_type_symbol
_atom_site_label
_atom_site_fract_x
_atom_site_fract_y
_atom_site_fract_z
Si Si1 0.250000 0.250000 0.096461
Si Si2 0.496983 0.198391 0.794902
Si Si3 0.063561 0.583769 0.122972
Si Si4 0.179858 0.545723 0.269625
Si Si5 0.750000 0.250000 0.431722
Si Si6 0.410835 0.065548 0.635612
Si Si7 0.723586 0.003053 0.545811
Si Si8 0.510253 0.341295 0.010739
O O1 0.234196 0.160420 0.129018
O O2 0.456134 0.283056 0.057452
O O3 0.250000 0.250000 0.779355
O O4 0.399319 0.136876 0.838690
O O5 0.601607 0.139286 0.752865
O O6 0.750000 0.250000 0.810877
O O7 0.221066 0.661452 0.098240
O O8 0.223751 0.512300 0.151518
O O9 0.934413 0.531231 0.080726
O O10 0.958382 0.480898 0.248399
O O11 0.135245 0.560461 0.326061
O O12 0.527936 0.227524 0.467902
O O13 0.506523 0.031013 0.584082
O O14 0.660333 0.923619 0.509217
O O15 0.761107 0.098023 0.519870
#
# Coordination Sequence:
#
# PCOD9432170 Si02
#       8
#     4   8   8   8   4   8   8   8
#     4  10  24  46  68  94 144 186 240 304 360 446
#     4  12  28  48  76 111 153 192 249 311 377 454
#     4  12  25  42  70 100 141 188 240 303 375 436
#     4  12  26  49  79 109 150 197 248 306 380 452
#     4  12  24  36  68 102 134 182 242 294 366 428
#     4  11  25  47  68 104 136 188 241 298 373 445
#     4  10  23  43  67  95 140 187 234 302 358 446
#     4  10  22  41  63 100 137 183 243 293 365 430
#
# _framework density 24.948661999999999
#
# number of rings (size 3 to 8) (size 9 to 14) (size 15 to 20)
#    0.000    0.857    3.571    2.571    7.000    0.571 
#    0.000    0.000    0.000    0.000    0.000    0.000 
#    0.000    0.000    0.000    0.000    0.000    0.000 
#
# Total GULP energy -312420.757016 kJ/mol
# GULP energy per Si atom -5578.942090 kJ/mol
# Density = 2.489188 g / cm^3
# Si number density = 24.948662 Si / 1000 Ang^3
#
#
#
# Elastic Constant Matrix: (Units=GPa)
#
#
# Indices 1 2 3 4 5 6 
#
# 1 66.5422 30.9394 0.9598 0.0000 0.0000 0.0000
# 2 30.9394 125.6981 11.0281 0.0000 0.0000 0.0000
# 3 0.9598 11.0281 109.5659 0.0000 0.0000 0.0000
# 4 0.0000 0.0000 0.0000 119.7246 0.0000 0.0000
# 5 0.0000 0.0000 0.0000 0.0000 36.8988 0.0000
# 6 0.0000 0.0000 0.0000 0.0000 0.0000 34.3900
#
#
#
# Elastic Compliance Matrix: (Units=1/GPa)
#
#
# Indices 1 2 3 4 5 6 
#
# 1 0.016978 -0.004203 0.000274 0.000000 0.000000 0.000000
# 2 -0.004203 0.009067 -0.000876 0.000000 0.000000 0.000000
# 3 0.000274 -0.000876 0.009213 0.000000 0.000000 0.000000
# 4 0.000000 0.000000 0.000000 0.008353 0.000000 0.000000
# 5 0.000000 0.000000 0.000000 0.000000 0.027101 0.000000
# 6 0.000000 0.000000 0.000000 0.000000 0.000000 0.029078
#
#
# Mechanical properties :
#
#
# Convention : Reuss Voigt Hill
#
# Bulk Modulus (GPa) = 38.98814 43.07342 41.03078
# Shear Modulus (GPa) = 42.39131 55.46128 48.92630
#
# Velocity S-wave (km/s) = 4.12654 4.72000 4.43321
# Velocity P-wave (km/s) = 6.19400 6.85616 6.53347
#
# Compressibility (1/GPa) = 0.02564882
#
# Stress axis : x y z
#
# Youngs Moduli (GPa) = 58.89840 110.29040 108.54614
#
# Poissons Ratio (x) = 0.46357 -0.02978
# Poissons Ratio (y) = 0.24756 0.09506
# Poissons Ratio (z) = -0.01616 0.09659
#
# Static dielectric constant tensor:
#      x y z
#    x 2.171510 0.000000 0.000000 
#    y 0.000000 2.053730 0.000000 
#    z 0.000000 0.000000 2.066860 
# 
# From -- ./inp_files/22896.got.cif
#   From: 2010.05.17/outbox.cif.g08.bks.cpg/sg56_12_cif.got.tgz:22896.got - 2010.06.03 13:42:01.
