data_PCOD9432473
_publ_section_title
;
Structure prediction by ZEFSAII (Michael W. Deem and Ramdas Pophale) SiO2 
 PCOD9432473
Probable space group: P C C N
;
_chemical_formula_sum "Si O2"
_cell_formula_units_Z 60
_cell_length_a 25.923747
_cell_length_b 6.549356
_cell_length_c 18.816906
_cell_angle_alpha 90.000000
_cell_angle_beta 90.000000
_cell_angle_gamma 90.000000
_cell_volume 3194.806707
_symmetry_space_group_name_H-M "P C C N"
_symmetry_group_IT_number 56
_symmetry_cell_setting 'orthorhombic'
loop_
_space_group_symop_operation_xyz
x,y,z
1/2-x,1/2-y,z
1/2+x,-y,1/2-z
-x,1/2+y,1/2-z
-x,-y,-z
1/2+x,1/2+y,-z
1/2-x,y,1/2+z
x,1/2-y,1/2+z
loop_
_atom_site_type_symbol
_atom_site_label
_atom_site_fract_x
_atom_site_fract_y
_atom_site_fract_z
Si Si1 0.658127 0.519840 0.859156
Si Si2 0.101590 0.092746 0.840958
Si Si3 0.486061 0.704061 0.462096
Si Si4 0.426468 0.752199 0.724240
Si Si5 0.586540 0.524934 0.992089
Si Si6 0.250000 0.750000 0.680426
Si Si7 0.520332 0.538143 0.675554
Si Si8 0.196696 0.362220 0.245928
O O1 0.619704 0.375430 0.812713
O O2 0.711747 0.396150 0.863230
O O3 0.669906 0.732913 0.818294
O O4 0.631212 0.550874 0.934903
O O5 0.101829 0.062597 0.925883
O O6 0.059367 0.272320 0.831292
O O7 0.157316 0.154580 0.810918
O O8 0.089415 0.897971 0.789361
O O9 0.500000 0.500000 0.500000
O O10 0.536874 0.843436 0.467159
O O11 0.471875 0.635450 0.383322
O O12 0.438125 0.801268 0.503036
O O13 0.461548 0.613674 0.673072
O O14 0.465722 0.926262 0.751529
O O15 0.286143 0.592358 0.724993
O O16 0.250000 0.250000 0.262472
#
# Coordination Sequence:
#
# PCOD9432473 Si02
#       8
#     8   8   8   8   8   4   8   8
#     4  11  24  42  67  94 123 170 218 267 325 390
#     4  12  23  43  62  94 130 166 213 271 322 383
#     4  11  23  40  56  86 138 179 204 249 317 378
#     4  12  24  37  63  95 130 169 220 265 313 383
#     4  11  26  39  62  96 134 173 216 256 321 397
#     4  10  22  46  68  92 120 164 220 276 336 380
#     4  12  24  37  60  96 132 177 216 259 310 384
#     4  10  23  43  70  93 120 162 221 275 330 388
#
# _framework density 18.780480000000001
#
# number of rings (size 3 to 8) (size 9 to 14) (size 15 to 20)
#    0.000    0.800    6.667    0.800    5.600    1.067 
#    0.000    2.667    0.000    0.000    0.000    0.000 
#    0.000    0.000    0.000    0.000    0.000    0.000 
#
# Total GULP energy -334566.640125 kJ/mol
# GULP energy per Si atom -5576.110669 kJ/mol
# Density = 1.873774 g / cm^3
# Si number density = 18.780480 Si / 1000 Ang^3
#
#
#
# Elastic Constant Matrix: (Units=GPa)
#
#
# Indices 1 2 3 4 5 6 
#
# 1 90.5516 22.3130 36.1330 0.0000 0.0000 0.0000
# 2 22.3130 79.1437 32.3314 0.0000 0.0000 0.0000
# 3 36.1330 32.3314 73.4310 0.0000 0.0000 0.0000
# 4 0.0000 0.0000 0.0000 25.9134 0.0000 0.0000
# 5 0.0000 0.0000 0.0000 0.0000 25.8421 0.0000
# 6 0.0000 0.0000 0.0000 0.0000 0.0000 31.9013
#
#
#
# Elastic Compliance Matrix: (Units=1/GPa)
#
#
# Indices 1 2 3 4 5 6 
#
# 1 0.013862 -0.001368 -0.006219 0.000000 0.000000 0.000000
# 2 -0.001368 0.015541 -0.006170 0.000000 0.000000 0.000000
# 3 -0.006219 -0.006170 0.019395 0.000000 0.000000 0.000000
# 4 0.000000 0.000000 0.000000 0.038590 0.000000 0.000000
# 5 0.000000 0.000000 0.000000 0.000000 0.038697 0.000000
# 6 0.000000 0.000000 0.000000 0.000000 0.000000 0.031347
#
#
# Mechanical properties :
#
#
# Convention : Reuss Voigt Hill
#
# Bulk Modulus (GPa) = 46.98025 47.18679 47.08352
# Shear Modulus (GPa) = 26.03635 26.88794 26.46215
#
# Velocity S-wave (km/s) = 3.72741 3.78788 3.75777
# Velocity P-wave (km/s) = 6.60262 6.65663 6.62968
#
# Compressibility (1/GPa) = 0.02128554
#
# Stress axis : x y z
#
# Youngs Moduli (GPa) = 72.13993 64.34483 51.56010
#
# Poissons Ratio (x) = 0.08800 0.32064
# Poissons Ratio (y) = 0.09866 0.31812
# Poissons Ratio (z) = 0.44863 0.39699
#
# Static dielectric constant tensor:
#      x y z
#    x 1.636900 0.000000 0.000000 
#    y 0.000000 1.682340 0.000000 
#    z 0.000000 0.000000 1.595940 
# 
# From -- ./inp_files/17030.got.cif
#   From: 2010.05.17/outbox.cif.g08.bks.cpg/sg56_9_cif.got.tgz:17030.got - 2010.06.03 13:42:01.
