data_PCOD9432074
_publ_section_title
;
Structure prediction by ZEFSAII (Michael W. Deem and Ramdas Pophale) SiO2 
 PCOD9432074
Probable space group: P C C N
;
_chemical_formula_sum "Si O2"
_cell_formula_units_Z 60
_cell_length_a 15.286521
_cell_length_b 12.113316
_cell_length_c 12.163829
_cell_angle_alpha 90.000000
_cell_angle_beta 90.000000
_cell_angle_gamma 90.000000
_cell_volume 2252.381804
_symmetry_space_group_name_H-M "P C C N"
_symmetry_group_IT_number 56
_symmetry_cell_setting 'orthorhombic'
loop_
_space_group_symop_operation_xyz
x,y,z
1/2-x,1/2-y,z
1/2+x,-y,1/2-z
-x,1/2+y,1/2-z
-x,-y,-z
1/2+x,1/2+y,-z
1/2-x,y,1/2+z
x,1/2-y,1/2+z
loop_
_atom_site_type_symbol
_atom_site_label
_atom_site_fract_x
_atom_site_fract_y
_atom_site_fract_z
Si Si1 0.331054 0.911686 0.338967
Si Si2 0.557270 0.258905 0.400131
Si Si3 0.101890 0.172643 0.249325
Si Si4 0.659338 0.944331 0.458807
Si Si5 0.750000 0.750000 0.593954
Si Si6 0.037132 0.340395 0.090496
Si Si7 0.636123 0.347869 0.705316
Si Si8 0.848290 0.027738 0.401254
O O1 0.352405 0.781382 0.330504
O O2 0.224380 0.910604 0.327614
O O3 0.364508 0.971715 0.229538
O O4 0.370640 0.973185 0.444283
O O5 0.488189 0.317556 0.316781
O O6 0.497321 0.246397 0.507082
O O7 0.609357 0.165933 0.334143
O O8 0.629258 0.348427 0.435300
O O9 0.107083 0.082218 0.152981
O O10 0.185254 0.178642 0.328687
O O11 0.100167 0.286043 0.179537
O O12 0.690750 0.831032 0.519955
O O13 0.749803 0.997965 0.420516
O O14 0.090711 0.439657 0.038584
O O15 0.951852 0.389493 0.149187
#
# Coordination Sequence:
#
# PCOD9432074 Si02
#       8
#     8   8   8   8   4   8   8   8
#     4  10  22  43  64  92 127 165 216 271 313 375
#     4  10  22  40  61  88 126 164 206 263 312 374
#     4  11  23  39  60  90 122 159 205 253 321 378
#     4  12  23  38  66  93 122 166 212 262 316 383
#     4  12  24  42  62  92 130 164 206 266 318 380
#     4  11  21  38  61  88 122 166 208 257 320 382
#     4   9  22  42  65  91 127 170 215 262 320 376
#     4  11  23  37  59  91 122 161 211 254 313 374
#
# _framework density 26.638469000000001
#
# number of rings (size 3 to 8) (size 9 to 14) (size 15 to 20)
#    0.000    1.333    0.000    6.400    0.000    4.267 
#    0.000   10.000    0.000    0.000    0.000    0.000 
#    0.000    0.000    0.000    0.000    0.000    0.000 
#
# Total GULP energy -335941.084220 kJ/mol
# GULP energy per Si atom -5599.018070 kJ/mol
# Density = 2.657784 g / cm^3
# Si number density = 26.638469 Si / 1000 Ang^3
#
#
#
# Elastic Constant Matrix: (Units=GPa)
#
#
# Indices 1 2 3 4 5 6 
#
# 1 100.4677 12.2395 14.6611 0.0000 0.0000 0.0000
# 2 12.2395 98.3542 20.0753 0.0000 0.0000 0.0000
# 3 14.6611 20.0753 117.8619 0.0000 0.0000 0.0000
# 4 0.0000 0.0000 0.0000 44.8111 0.0000 0.0000
# 5 0.0000 0.0000 0.0000 0.0000 50.0711 0.0000
# 6 0.0000 0.0000 0.0000 0.0000 0.0000 26.4940
#
#
#
# Elastic Compliance Matrix: (Units=1/GPa)
#
#
# Indices 1 2 3 4 5 6 
#
# 1 0.010241 -0.001051 -0.001095 0.000000 0.000000 0.000000
# 2 -0.001051 0.010641 -0.001682 0.000000 0.000000 0.000000
# 3 -0.001095 -0.001682 0.008907 0.000000 0.000000 0.000000
# 4 0.000000 0.000000 0.000000 0.022316 0.000000 0.000000
# 5 0.000000 0.000000 0.000000 0.000000 0.019972 0.000000
# 6 0.000000 0.000000 0.000000 0.000000 0.000000 0.037744
#
#
# Mechanical properties :
#
#
# Convention : Reuss Voigt Hill
#
# Bulk Modulus (GPa) = 45.17846 45.62616 45.40231
# Shear Modulus (GPa) = 40.04639 42.25577 41.15108
#
# Velocity S-wave (km/s) = 3.88149 3.98712 3.93466
# Velocity P-wave (km/s) = 6.08971 6.19365 6.14190
#
# Compressibility (1/GPa) = 0.02213444
#
# Stress axis : x y z
#
# Youngs Moduli (GPa) = 97.64421 93.97262 112.26919
#
# Poissons Ratio (x) = 0.09876 0.12293
# Poissons Ratio (y) = 0.10262 0.18881
# Poissons Ratio (z) = 0.10691 0.15804
#
# Static dielectric constant tensor:
#      x y z
#    x 2.022990 0.000000 0.000000 
#    y 0.000000 2.071610 0.000000 
#    z 0.000000 0.000000 2.151130 
# 
# From -- ./inp_files/8406.got.cif
#   From: 2010.05.17/outbox.cif.g08.bks.cpg/sg56_5_cif.got.tgz:8406.got - 2010.06.03 13:42:01.
