data_PCOD9432109
_publ_section_title
;
Structure prediction by ZEFSAII (Michael W. Deem and Ramdas Pophale) SiO2 
 PCOD9432109
Probable space group: P C C N
;
_chemical_formula_sum "Si O2"
_cell_formula_units_Z 40
_cell_length_a 7.850455
_cell_length_b 8.773723
_cell_length_c 26.614627
_cell_angle_alpha 90.000000
_cell_angle_beta 90.000000
_cell_angle_gamma 90.000000
_cell_volume 1833.154762
_symmetry_space_group_name_H-M "P C C N"
_symmetry_group_IT_number 56
_symmetry_cell_setting 'orthorhombic'
loop_
_space_group_symop_operation_xyz
x,y,z
1/2-x,1/2-y,z
1/2+x,-y,1/2-z
-x,1/2+y,1/2-z
-x,-y,-z
1/2+x,1/2+y,-z
1/2-x,y,1/2+z
x,1/2-y,1/2+z
loop_
_atom_site_type_symbol
_atom_site_label
_atom_site_fract_x
_atom_site_fract_y
_atom_site_fract_z
Si Si1 0.975235 0.302894 0.703833
Si Si2 0.734105 0.083638 0.397564
Si Si3 0.397236 0.593591 0.908339
Si Si4 0.179890 0.001709 0.711791
Si Si5 0.971405 0.409254 0.051348
O O1 0.027329 0.126506 0.710154
O O2 0.150129 0.396493 0.713252
O O3 0.911840 0.332044 0.647173
O O4 0.850809 0.385887 0.742906
O O5 0.750000 0.250000 0.421287
O O6 0.540364 0.034407 0.405847
O O7 0.796437 0.089182 0.339952
O O8 0.859882 0.955096 0.418586
O O9 0.207214 0.540871 0.922398
O O10 0.451410 0.726065 0.947786
O O11 0.000000 0.500000 0.000000
#
# Coordination Sequence:
#
# PCOD9432109 Si02
#       5
#     8   8   8   8   8
#     4  10  22  40  65 100 140 185 230 285 352 419
#     4  11  25  46  68 103 147 180 236 294 353 435
#     4  10  24  48  72 100 146 187 229 307 366 424
#     4  10  23  39  64  99 137 189 234 279 346 424
#     4  11  25  46  76 102 128 187 247 293 374 426
#
# _framework density 21.820308000000001
#
# number of rings (size 3 to 8) (size 9 to 14) (size 15 to 20)
#    0.000    1.600    2.000    0.600   11.200    1.600 
#    3.600    0.000    0.000    0.000    0.000    0.000 
#    0.000    0.000    0.000    0.000    0.000    0.000 
#
# Total GULP energy -223328.737205 kJ/mol
# GULP energy per Si atom -5583.218430 kJ/mol
# Density = 2.177064 g / cm^3
# Si number density = 21.820308 Si / 1000 Ang^3
#
#
#
# Elastic Constant Matrix: (Units=GPa)
#
#
# Indices 1 2 3 4 5 6 
#
# 1 125.6090 12.9045 11.5650 0.0000 0.0000 0.0000
# 2 12.9045 54.6285 17.7012 0.0000 0.0000 0.0000
# 3 11.5650 17.7012 91.4659 0.0000 0.0000 0.0000
# 4 0.0000 0.0000 0.0000 28.0478 0.0000 0.0000
# 5 0.0000 0.0000 0.0000 0.0000 23.2381 0.0000
# 6 0.0000 0.0000 0.0000 0.0000 0.0000 37.9060
#
#
#
# Elastic Compliance Matrix: (Units=1/GPa)
#
#
# Indices 1 2 3 4 5 6 
#
# 1 0.008202 -0.001709 -0.000706 0.000000 0.000000 0.000000
# 2 -0.001709 0.019886 -0.003632 0.000000 0.000000 0.000000
# 3 -0.000706 -0.003632 0.011725 0.000000 0.000000 0.000000
# 4 0.000000 0.000000 0.000000 0.035653 0.000000 0.000000
# 5 0.000000 0.000000 0.000000 0.000000 0.043033 0.000000
# 6 0.000000 0.000000 0.000000 0.000000 0.000000 0.026381
#
#
# Mechanical properties :
#
#
# Convention : Reuss Voigt Hill
#
# Bulk Modulus (GPa) = 36.07715 39.56053 37.81884
# Shear Modulus (GPa) = 30.08154 33.14055 31.61105
#
# Velocity S-wave (km/s) = 3.71698 3.90140 3.81031
# Velocity P-wave (km/s) = 5.91531 6.20194 6.06032
#
# Compressibility (1/GPa) = 0.02771837
#
# Stress axis : x y z
#
# Youngs Moduli (GPa) = 121.92479 50.28637 85.28537
#
# Poissons Ratio (x) = 0.08592 0.06024
# Poissons Ratio (y) = 0.20831 0.30980
# Poissons Ratio (z) = 0.08613 0.18266
#
# Static dielectric constant tensor:
#      x y z
#    x 1.825390 0.000000 0.000000 
#    y 0.000000 1.628950 0.000000 
#    z 0.000000 0.000000 1.826020 
# 
# From -- ./inp_files/20303.got.cif
#   From: 2010.05.17/outbox.cif.g08.bks.cpg/sg56_11_cif.got.tgz:20303.got - 2010.06.03 13:42:01.
