data_PCOD9432460
_publ_section_title
;
Structure prediction by ZEFSAII (Michael W. Deem and Ramdas Pophale) SiO2 
 PCOD9432460
Probable space group: P C C N
;
_chemical_formula_sum "Si O2"
_cell_formula_units_Z 32
_cell_length_a 14.750473
_cell_length_b 6.617590
_cell_length_c 13.749737
_cell_angle_alpha 90.000000
_cell_angle_beta 90.000000
_cell_angle_gamma 90.000000
_cell_volume 1342.147339
_symmetry_space_group_name_H-M "P C C N"
_symmetry_group_IT_number 56
_symmetry_cell_setting 'orthorhombic'
loop_
_space_group_symop_operation_xyz
x,y,z
1/2-x,1/2-y,z
1/2+x,-y,1/2-z
-x,1/2+y,1/2-z
-x,-y,-z
1/2+x,1/2+y,-z
1/2-x,y,1/2+z
x,1/2-y,1/2+z
loop_
_atom_site_type_symbol
_atom_site_label
_atom_site_fract_x
_atom_site_fract_y
_atom_site_fract_z
Si Si1 0.511639 0.547710 0.629890
Si Si2 0.851297 0.297407 0.411188
Si Si3 0.158005 0.129928 0.940072
Si Si4 0.104966 0.685638 0.296232
O O1 0.419161 0.607302 0.574217
O O2 0.582665 0.717271 0.599469
O O3 0.558308 0.332756 0.627241
O O4 0.475736 0.566371 0.741299
O O5 0.750000 0.250000 0.444520
O O6 0.876481 0.502035 0.466874
O O7 0.851876 0.311156 0.293261
O O8 0.250000 0.250000 0.961422
O O9 0.169995 0.966230 0.853107
#
# Coordination Sequence:
#
# PCOD9432460 Si02
#       4
#     8   8   8   8
#     4  10  22  45  77 103 151 199 243 313 376 447
#     4  10  25  48  70 112 150 195 254 311 377 455
#     4  12  27  46  74 112 152 199 254 311 385 454
#     4  10  23  48  76 109 146 203 251 313 381 442
#
# _framework density 23.842390000000002
#
# number of rings (size 3 to 8) (size 9 to 14) (size 15 to 20)
#    1.500    0.000    2.500    0.750    7.000    1.000 
#   13.500    0.000    0.000    0.000    0.000    0.000 
#    0.000    0.000    0.000    0.000    0.000    0.000 
#
# Total GULP energy -178645.155158 kJ/mol
# GULP energy per Si atom -5582.661099 kJ/mol
# Density = 2.378812 g / cm^3
# Si number density = 23.842390 Si / 1000 Ang^3
#
#
#
# Elastic Constant Matrix: (Units=GPa)
#
#
# Indices 1 2 3 4 5 6 
#
# 1 45.7857 8.3680 -8.1776 0.0000 0.0000 0.0000
# 2 8.3680 82.0583 27.6010 0.0000 0.0000 0.0000
# 3 -8.1776 27.6010 120.6859 0.0000 0.0000 0.0000
# 4 0.0000 0.0000 0.0000 45.6962 0.0000 0.0000
# 5 0.0000 0.0000 0.0000 0.0000 -22.3257 0.0000
# 6 0.0000 0.0000 0.0000 0.0000 0.0000 49.9226
#
#
#
# Elastic Compliance Matrix: (Units=1/GPa)
#
#
# Indices 1 2 3 4 5 6 
#
# 1 0.022806 -0.003083 0.002250 0.000000 0.000000 0.000000
# 2 -0.003083 0.013619 -0.003323 0.000000 0.000000 0.000000
# 3 0.002250 -0.003323 0.009199 0.000000 0.000000 0.000000
# 4 0.000000 0.000000 0.000000 0.021884 0.000000 0.000000
# 5 0.000000 0.000000 0.000000 0.000000 -0.044791 0.000000
# 6 0.000000 0.000000 0.000000 0.000000 0.000000 0.020031
#
#
# Mechanical properties :
#
#
# Convention : Reuss Voigt Hill
#
# Bulk Modulus (GPa) = 26.80111 33.79030 30.29570
# Shear Modulus (GPa) = 78.74563 29.37450 54.06007
#
# Velocity S-wave (km/s) = 5.75320 3.51383 4.76688
# Velocity P-wave (km/s) = 7.44296 5.53767 6.55986
#
# Compressibility (1/GPa) = 0.03731189
#
# Stress axis : x y z
#
# Youngs Moduli (GPa) = 43.84770 73.42848 108.71297
#
# Poissons Ratio (x) = 0.22635 -0.24464
# Poissons Ratio (y) = 0.13517 0.36131
# Poissons Ratio (z) = -0.09867 0.24404
#
# Static dielectric constant tensor:
#      x y z
#    x 1.913990 0.000000 0.000000 
#    y 0.000000 1.899800 0.000000 
#    z 0.000000 0.000000 1.976740 
# 
# From -- ./inp_files/15987.got.cif
#   From: 2010.05.17/outbox.cif.g08.bks.cpg/sg56_8_cif.got.tgz:15987.got - 2010.06.03 13:42:01.
