data_PCOD9432470
_publ_section_title
;
Structure prediction by ZEFSAII (Michael W. Deem and Ramdas Pophale) SiO2 
 PCOD9432470
Probable space group: P C C N
;
_chemical_formula_sum "Si O2"
_cell_formula_units_Z 60
_cell_length_a 12.331871
_cell_length_b 9.119290
_cell_length_c 26.571137
_cell_angle_alpha 90.000000
_cell_angle_beta 90.000000
_cell_angle_gamma 90.000000
_cell_volume 2988.134477
_symmetry_space_group_name_H-M "P C C N"
_symmetry_group_IT_number 56
_symmetry_cell_setting 'orthorhombic'
loop_
_space_group_symop_operation_xyz
x,y,z
1/2-x,1/2-y,z
1/2+x,-y,1/2-z
-x,1/2+y,1/2-z
-x,-y,-z
1/2+x,1/2+y,-z
1/2-x,y,1/2+z
x,1/2-y,1/2+z
loop_
_atom_site_type_symbol
_atom_site_label
_atom_site_fract_x
_atom_site_fract_y
_atom_site_fract_z
Si Si1 0.250000 0.750000 0.418136
Si Si2 0.023819 0.950075 0.673334
Si Si3 0.523697 0.507802 0.787692
Si Si4 0.699692 0.922325 0.549826
Si Si5 0.731530 0.086774 0.348175
Si Si6 0.477980 0.743181 0.869947
Si Si7 0.660054 0.877192 0.438251
Si Si8 0.628412 0.812903 0.652659
O O1 0.259283 0.584910 0.444716
O O2 0.146268 0.731579 0.383339
O O3 0.153665 0.946002 0.677970
O O4 0.972941 0.967052 0.728655
O O5 0.960917 0.814679 0.648214
O O6 0.002278 0.088564 0.638984
O O7 0.631700 0.430133 0.809433
O O8 0.511683 0.656758 0.819558
O O9 0.418429 0.412480 0.802722
O O10 0.750000 0.750000 0.549492
O O11 0.646477 0.933245 0.494985
O O12 0.630572 0.905693 0.600957
O O13 0.750000 0.250000 0.366822
O O14 0.704118 0.989993 0.396650
O O15 0.548761 0.683177 0.915863
O O16 0.750000 0.750000 0.439377
O O17 0.750000 0.750000 0.661445
#
# Coordination Sequence:
#
# PCOD9432470 Si02
#       8
#     4   8   8   8   8   8   8   8
#     4  12  24  44  68 104 132 180 230 280 338 412
#     4  12  25  43  70  97 129 186 225 277 352 405
#     4  11  25  43  64 100 134 177 227 279 343 406
#     4  10  23  45  70  98 139 178 232 285 350 409
#     4  11  24  44  66  98 137 168 230 285 336 418
#     4  11  24  42  65  95 136 173 226 281 338 417
#     4  10  22  46  67  95 134 177 217 286 346 407
#     4  11  23  45  66  97 139 177 224 289 340 408
#
# _framework density 20.079416999999999
#
# number of rings (size 3 to 8) (size 9 to 14) (size 15 to 20)
#    0.000    1.067    4.000    2.400    2.800    0.533 
#    2.400    2.000    0.000    0.000    0.000    0.000 
#    0.000    0.000    0.000    0.000    0.000    0.000 
#
# Total GULP energy -334333.413011 kJ/mol
# GULP energy per Si atom -5572.223550 kJ/mol
# Density = 2.003372 g / cm^3
# Si number density = 20.079417 Si / 1000 Ang^3
#
#
#
# Elastic Constant Matrix: (Units=GPa)
#
#
# Indices 1 2 3 4 5 6 
#
# 1 120.4093 16.4728 37.7406 0.0000 0.0000 0.0000
# 2 16.4728 108.5388 36.6492 0.0000 0.0000 0.0000
# 3 37.7406 36.6492 89.0950 0.0000 0.0000 0.0000
# 4 0.0000 0.0000 0.0000 82.7450 0.0000 0.0000
# 5 0.0000 0.0000 0.0000 0.0000 22.9070 0.0000
# 6 0.0000 0.0000 0.0000 0.0000 0.0000 32.0966
#
#
#
# Elastic Compliance Matrix: (Units=1/GPa)
#
#
# Indices 1 2 3 4 5 6 
#
# 1 0.009577 -0.000097 -0.004017 0.000000 0.000000 0.000000
# 2 -0.000097 0.010700 -0.004360 0.000000 0.000000 0.000000
# 3 -0.004017 -0.004360 0.014719 0.000000 0.000000 0.000000
# 4 0.000000 0.000000 0.000000 0.012085 0.000000 0.000000
# 5 0.000000 0.000000 0.000000 0.000000 0.043655 0.000000
# 6 0.000000 0.000000 0.000000 0.000000 0.000000 0.031156
#
#
# Mechanical properties :
#
#
# Convention : Reuss Voigt Hill
#
# Bulk Modulus (GPa) = 55.40848 55.52983 55.46916
# Shear Modulus (GPa) = 34.51654 42.69509 38.60581
#
# Velocity S-wave (km/s) = 4.15058 4.61620 4.38957
# Velocity P-wave (km/s) = 7.11508 7.49183 7.30588
#
# Compressibility (1/GPa) = 0.01804778
#
# Stress axis : x y z
#
# Youngs Moduli (GPa) = 104.41280 93.45460 67.93835
#
# Poissons Ratio (x) = 0.00908 0.27291
# Poissons Ratio (y) = 0.01015 0.29624
# Poissons Ratio (z) = 0.41943 0.40750
#
# Static dielectric constant tensor:
#      x y z
#    x 1.671290 0.000000 0.000000 
#    y 0.000000 1.792520 0.000000 
#    z 0.000000 0.000000 1.689620 
# 
# From -- ./inp_files/22305.got.cif
#   From: 2010.05.17/outbox.cif.g08.bks.cpg/sg56_12_cif.got.tgz:22305.got - 2010.06.03 13:42:01.
