data_PCOD9432289
_publ_section_title
;
Structure prediction by ZEFSAII (Michael W. Deem and Ramdas Pophale) SiO2 
 PCOD9432289
Probable space group: P C C N
;
_chemical_formula_sum "Si O2"
_cell_formula_units_Z 48
_cell_length_a 9.103626
_cell_length_b 21.078406
_cell_length_c 10.404370
_cell_angle_alpha 90.000000
_cell_angle_beta 90.000000
_cell_angle_gamma 90.000000
_cell_volume 1996.493778
_symmetry_space_group_name_H-M "P C C N"
_symmetry_group_IT_number 56
_symmetry_cell_setting 'orthorhombic'
loop_
_space_group_symop_operation_xyz
x,y,z
1/2-x,1/2-y,z
1/2+x,-y,1/2-z
-x,1/2+y,1/2-z
-x,-y,-z
1/2+x,1/2+y,-z
1/2-x,y,1/2+z
x,1/2-y,1/2+z
loop_
_atom_site_type_symbol
_atom_site_label
_atom_site_fract_x
_atom_site_fract_y
_atom_site_fract_z
Si Si1 0.847863 0.875560 0.246973
Si Si2 0.723496 0.450516 0.355160
Si Si3 0.942279 0.555720 0.303965
Si Si4 0.490485 0.163789 0.499617
Si Si5 0.627138 0.380515 0.615697
Si Si6 0.750000 0.750000 0.365331
Si Si7 0.250000 0.750000 0.963458
O O1 0.694157 0.910871 0.231004
O O2 0.937171 0.878459 0.117022
O O3 0.820726 0.801794 0.273535
O O4 0.953265 0.893066 0.365991
O O5 0.847689 0.503751 0.382646
O O6 0.568548 0.471697 0.288492
O O7 0.682533 0.412763 0.484053
O O8 0.795473 0.409639 0.240604
O O9 0.012784 0.612802 0.386698
O O10 0.364332 0.211289 0.548190
O O11 0.628255 0.207950 0.464862
O O12 0.662218 0.305145 0.612029
#
# Coordination Sequence:
#
# PCOD9432289 Si02
#       7
#     8   8   8   8   8   4   4
#     4  11  25  44  74 111 154 203 254 317 392 467
#     4  12  29  51  78 113 152 206 259 321 392 465
#     4  11  28  49  79 111 154 204 266 321 386 465
#     4  11  24  46  74 112 153 201 251 328 387 464
#     4  12  28  49  77 115 153 206 255 324 394 463
#     4  10  22  42  68 110 148 204 250 318 388 472
#     4  12  24  48  74 114 154 194 258 314 394 468
#
# _framework density 24.042149999999999
#
# number of rings (size 3 to 8) (size 9 to 14) (size 15 to 20)
#    0.000    0.667    3.333    2.500    7.000    7.333 
#    0.000    0.000    0.000    0.000    0.000    0.000 
#    0.000    0.000    0.000    0.000    0.000    0.000 
#
# Total GULP energy -268310.089877 kJ/mol
# GULP energy per Si atom -5589.793539 kJ/mol
# Density = 2.398743 g / cm^3
# Si number density = 24.042150 Si / 1000 Ang^3
#
#
#
# Elastic Constant Matrix: (Units=GPa)
#
#
# Indices 1 2 3 4 5 6 
#
# 1 104.3439 25.5452 17.9776 0.0000 0.0000 0.0000
# 2 25.5452 110.9668 10.4307 0.0000 0.0000 0.0000
# 3 17.9776 10.4307 60.5488 0.0000 0.0000 0.0000
# 4 0.0000 0.0000 0.0000 22.9541 0.0000 0.0000
# 5 0.0000 0.0000 0.0000 0.0000 -16.0449 0.0000
# 6 0.0000 0.0000 0.0000 0.0000 0.0000 56.1272
#
#
#
# Elastic Compliance Matrix: (Units=1/GPa)
#
#
# Indices 1 2 3 4 5 6 
#
# 1 0.010594 -0.002178 -0.002770 0.000000 0.000000 0.000000
# 2 -0.002178 0.009608 -0.001008 0.000000 0.000000 0.000000
# 3 -0.002770 -0.001008 0.017512 0.000000 0.000000 0.000000
# 4 0.000000 0.000000 0.000000 0.043565 0.000000 0.000000
# 5 0.000000 0.000000 0.000000 0.000000 -0.062325 0.000000
# 6 0.000000 0.000000 0.000000 0.000000 0.000000 0.017817
#
#
# Mechanical properties :
#
#
# Convention : Reuss Voigt Hill
#
# Bulk Modulus (GPa) = 38.75981 42.64073 40.70027
# Shear Modulus (GPa) = 87.28283 27.40102 57.34193
#
# Velocity S-wave (km/s) = 6.03182 3.37962 4.88900
# Velocity P-wave (km/s) = 8.04159 5.74486 6.98822
#
# Compressibility (1/GPa) = 0.02579992
#
# Stress axis : x y z
#
# Youngs Moduli (GPa) = 94.39020 104.08006 57.10426
#
# Poissons Ratio (x) = 0.22674 0.15820
# Poissons Ratio (y) = 0.20563 0.05758
# Poissons Ratio (z) = 0.26149 0.10495
#
# Static dielectric constant tensor:
#      x y z
#    x 1.971420 0.000000 0.000000 
#    y 0.000000 1.910450 0.000000 
#    z 0.000000 0.000000 1.908440 
# 
# From -- ./inp_files/6442.got.cif
#   From: 2010.05.17/outbox.cif.g08.bks.cpg/sg56_4_cif.got.tgz:6442.got - 2010.06.03 13:42:01.
