data_PCOD9432810
_publ_section_title
;
Structure prediction by ZEFSAII (Michael W. Deem and Ramdas Pophale) SiO2 
 PCOD9432810
Probable space group: P C C N
;
_chemical_formula_sum "Si O2"
_cell_formula_units_Z 52
_cell_length_a 9.627693
_cell_length_b 10.077091
_cell_length_c 19.697410
_cell_angle_alpha 90.000000
_cell_angle_beta 90.000000
_cell_angle_gamma 90.000000
_cell_volume 1911.025749
_symmetry_space_group_name_H-M "P C C N"
_symmetry_group_IT_number 56
_symmetry_cell_setting 'orthorhombic'
loop_
_space_group_symop_operation_xyz
x,y,z
1/2-x,1/2-y,z
1/2+x,-y,1/2-z
-x,1/2+y,1/2-z
-x,-y,-z
1/2+x,1/2+y,-z
1/2-x,y,1/2+z
x,1/2-y,1/2+z
loop_
_atom_site_type_symbol
_atom_site_label
_atom_site_fract_x
_atom_site_fract_y
_atom_site_fract_z
Si Si1 0.639522 0.956626 0.865529
Si Si2 0.147038 0.070865 0.484279
Si Si3 0.485632 0.274154 0.366374
Si Si4 0.439128 0.499424 0.926170
Si Si5 0.109314 0.914617 0.288679
Si Si6 0.075626 0.885030 0.797144
Si Si7 0.250000 0.250000 0.749627
O O1 0.615649 0.119633 0.859934
O O2 0.707756 0.867871 0.804593
O O3 0.699819 0.913962 0.937795
O O4 0.475730 0.923025 0.858329
O O5 0.274628 0.009820 0.442061
O O6 0.096798 0.188989 0.435963
O O7 0.000000 0.000000 0.500000
O O8 0.511077 0.120540 0.383524
O O9 0.373151 0.279133 0.304442
O O10 0.464989 0.622420 0.876083
O O11 0.500000 0.500000 0.000000
O O12 0.025152 0.013220 0.240329
O O13 0.094069 0.761797 0.267819
O O14 0.230274 0.944251 0.796212
#
# Coordination Sequence:
#
# PCOD9432810 Si02
#       7
#     8   8   8   8   8   8   4
#     4  11  28  45  82 125 160 224 299 358 435 539
#     4  10  23  49  80 113 162 222 289 349 432 523
#     4  11  25  52  80 119 167 232 289 364 449 535
#     4  12  27  49  84 117 170 223 290 364 435 520
#     4  11  28  49  86 118 176 215 284 354 433 522
#     4  11  28  53  78 129 166 227 282 352 439 518
#     4  12  26  48  86 118 182 234 284 366 462 540
#
# _framework density 27.210518
#
# number of rings (size 3 to 8) (size 9 to 14) (size 15 to 20)
#    0.000    0.923    1.538    2.769   10.769    1.846 
#    5.538    0.000    0.000    0.000    0.000    0.000 
#    0.000    0.000    0.000    0.000    0.000    0.000 
#
# Total GULP energy -290250.863188 kJ/mol
# GULP energy per Si atom -5581.747369 kJ/mol
# Density = 2.714859 g / cm^3
# Si number density = 27.210518 Si / 1000 Ang^3
#
#
#
# Elastic Constant Matrix: (Units=GPa)
#
#
# Indices 1 2 3 4 5 6 
#
# 1 125.9400 38.2264 39.9409 0.0000 0.0000 0.0000
# 2 38.2264 127.0749 83.5397 0.0000 0.0000 0.0000
# 3 39.9409 83.5397 218.7875 0.0000 0.0000 0.0000
# 4 0.0000 0.0000 0.0000 45.6629 0.0000 0.0000
# 5 0.0000 0.0000 0.0000 0.0000 51.2573 0.0000
# 6 0.0000 0.0000 0.0000 0.0000 0.0000 43.4682
#
#
#
# Elastic Compliance Matrix: (Units=1/GPa)
#
#
# Indices 1 2 3 4 5 6 
#
# 1 0.008842 -0.002134 -0.000799 0.000000 0.000000 0.000000
# 2 -0.002134 0.011022 -0.003819 0.000000 0.000000 0.000000
# 3 -0.000799 -0.003819 0.006175 0.000000 0.000000 0.000000
# 4 0.000000 0.000000 0.000000 0.021900 0.000000 0.000000
# 5 0.000000 0.000000 0.000000 0.000000 0.019509 0.000000
# 6 0.000000 0.000000 0.000000 0.000000 0.000000 0.023005
#
#
# Mechanical properties :
#
#
# Convention : Reuss Voigt Hill
#
# Bulk Modulus (GPa) = 79.78605 88.35737 84.07171
# Shear Modulus (GPa) = 46.23844 48.75072 47.49458
#
# Velocity S-wave (km/s) = 4.12671 4.23734 4.18239
# Velocity P-wave (km/s) = 7.21746 7.51547 7.36797
#
# Compressibility (1/GPa) = 0.01253352
#
# Stress axis : x y z
#
# Youngs Moduli (GPa) = 113.10223 90.72776 161.95124
#
# Poissons Ratio (x) = 0.19365 0.12942
# Poissons Ratio (y) = 0.24140 0.61847
# Poissons Ratio (z) = 0.09038 0.34648
#
# Static dielectric constant tensor:
#      x y z
#    x 2.199110 0.000000 0.000000 
#    y 0.000000 2.326200 0.000000 
#    z 0.000000 0.000000 2.234510 
# 
# From -- ./inp_files/18127.got.cif
#   From: 2010.05.17/outbox.cif.g08.bks.cpg/sg56_10_cif.got.tgz:18127.got - 2010.06.03 13:42:01.
