data_PCOD9432078
_publ_section_title
;
Structure prediction by ZEFSAII (Michael W. Deem and Ramdas Pophale) SiO2 
 PCOD9432078
Probable space group: P C C N
;
_chemical_formula_sum "Si O2"
_cell_formula_units_Z 40
_cell_length_a 8.648005
_cell_length_b 14.171699
_cell_length_c 14.694231
_cell_angle_alpha 90.000000
_cell_angle_beta 90.000000
_cell_angle_gamma 90.000000
_cell_volume 1800.879749
_symmetry_space_group_name_H-M "P C C N"
_symmetry_group_IT_number 56
_symmetry_cell_setting 'orthorhombic'
loop_
_space_group_symop_operation_xyz
x,y,z
1/2-x,1/2-y,z
1/2+x,-y,1/2-z
-x,1/2+y,1/2-z
-x,-y,-z
1/2+x,1/2+y,-z
1/2-x,y,1/2+z
x,1/2-y,1/2+z
loop_
_atom_site_type_symbol
_atom_site_label
_atom_site_fract_x
_atom_site_fract_y
_atom_site_fract_z
Si Si1 0.668755 0.341008 0.397530
Si Si2 0.169609 0.971811 0.968721
Si Si3 0.171455 0.159893 0.460254
Si Si4 0.941695 0.031134 0.232654
Si Si5 0.259099 0.141422 0.249443
O O1 0.750000 0.250000 0.357138
O O2 0.780483 0.382989 0.473330
O O3 0.508222 0.321604 0.448563
O O4 0.629115 0.411258 0.316189
O O5 0.155239 0.955757 0.860582
O O6 0.285902 0.056851 0.996971
O O7 0.000000 0.000000 0.000000
O O8 0.250000 0.250000 0.506215
O O9 0.239935 0.152605 0.358196
O O10 0.113771 0.075098 0.218995
O O11 0.915854 0.920718 0.260368
O O12 0.250000 0.250000 0.214588
#
# Coordination Sequence:
#
# PCOD9432078 Si02
#       5
#     8   8   8   8   8
#     4  11  23  40  62  89 123 167 213 261 320 388
#     4  11  22  39  63  93 125 161 208 263 323 386
#     4   9  19  38  61  85 118 159 203 258 317 380
#     4  10  22  40  62  90 126 166 209 263 320 384
#     4   9  19  37  62  91 123 163 208 255 315 380
#
# _framework density 22.211365000000001
#
# number of rings (size 3 to 8) (size 9 to 14) (size 15 to 20)
#    0.000    2.000    0.000    3.000    0.000    7.200 
#    0.000   12.000    0.000    0.000    0.000    0.000 
#    0.000    0.000    0.000    0.000    0.000    0.000 
#
# Total GULP energy -223243.215025 kJ/mol
# GULP energy per Si atom -5581.080376 kJ/mol
# Density = 2.216081 g / cm^3
# Si number density = 22.211365 Si / 1000 Ang^3
#
#
#
# Elastic Constant Matrix: (Units=GPa)
#
#
# Indices 1 2 3 4 5 6 
#
# 1 75.7847 56.0064 7.7573 0.0000 0.0000 0.0000
# 2 56.0064 116.3671 4.1117 0.0000 0.0000 0.0000
# 3 7.7573 4.1117 78.2965 0.0000 0.0000 0.0000
# 4 0.0000 0.0000 0.0000 -13.2333 0.0000 0.0000
# 5 0.0000 0.0000 0.0000 0.0000 30.1429 0.0000
# 6 0.0000 0.0000 0.0000 0.0000 0.0000 32.8201
#
#
#
# Elastic Compliance Matrix: (Units=1/GPa)
#
#
# Indices 1 2 3 4 5 6 
#
# 1 0.020660 -0.009890 -0.001528 0.000000 0.000000 0.000000
# 2 -0.009890 0.013343 0.000279 0.000000 0.000000 0.000000
# 3 -0.001528 0.000279 0.012909 0.000000 0.000000 0.000000
# 4 0.000000 0.000000 0.000000 -0.075567 0.000000 0.000000
# 5 0.000000 0.000000 0.000000 0.000000 0.033175 0.000000
# 6 0.000000 0.000000 0.000000 0.000000 0.000000 0.030469
#
#
# Mechanical properties :
#
#
# Convention : Reuss Voigt Hill
#
# Bulk Modulus (GPa) = 40.59080 45.13322 42.86201
# Shear Modulus (GPa) = 76.36180 23.45082 49.90631
#
# Velocity S-wave (km/s) = 5.86977 3.25284 4.74527
# Velocity P-wave (km/s) = 8.01583 5.87128 7.02586
#
# Compressibility (1/GPa) = 0.02463612
#
# Stress axis : x y z
#
# Youngs Moduli (GPa) = 48.40212 74.94338 77.46745
#
# Poissons Ratio (x) = 0.74116 0.11834
# Poissons Ratio (y) = 0.47868 -0.02162
# Poissons Ratio (z) = 0.07394 -0.02092
#
# Static dielectric constant tensor:
#      x y z
#    x 1.811930 0.000000 0.000000 
#    y 0.000000 1.855770 0.000000 
#    z 0.000000 0.000000 1.806900 
# 
# From -- ./inp_files/10377.got.cif
#   From: 2010.05.17/outbox.cif.g08.bks.cpg/sg56_6_cif.got.tgz:10377.got - 2010.06.03 13:42:01.
