data_PCOD9432614
_publ_section_title
;
Structure prediction by ZEFSAII (Michael W. Deem and Ramdas Pophale) SiO2 
 PCOD9432614
Probable space group: P C C N
;
_chemical_formula_sum "Si O2"
_cell_formula_units_Z 64
_cell_length_a 23.206201
_cell_length_b 13.340462
_cell_length_c 9.793997
_cell_angle_alpha 90.000000
_cell_angle_beta 90.000000
_cell_angle_gamma 90.000000
_cell_volume 3032.039720
_symmetry_space_group_name_H-M "P C C N"
_symmetry_group_IT_number 56
_symmetry_cell_setting 'orthorhombic'
loop_
_space_group_symop_operation_xyz
x,y,z
1/2-x,1/2-y,z
1/2+x,-y,1/2-z
-x,1/2+y,1/2-z
-x,-y,-z
1/2+x,1/2+y,-z
1/2-x,y,1/2+z
x,1/2-y,1/2+z
loop_
_atom_site_type_symbol
_atom_site_label
_atom_site_fract_x
_atom_site_fract_y
_atom_site_fract_z
Si Si1 0.988169 0.134262 0.239350
Si Si2 0.561411 0.557091 0.974296
Si Si3 0.132446 0.887122 0.393656
Si Si4 0.487646 0.677437 0.447566
Si Si5 0.306996 0.812610 0.384228
Si Si6 0.080833 0.424276 0.236153
Si Si7 0.678871 0.040260 0.386953
Si Si8 0.306528 0.982670 0.154501
O O1 0.049497 0.099751 0.176620
O O2 0.973509 0.216809 0.124208
O O3 0.990518 0.181351 0.389316
O O4 0.944878 0.038847 0.251208
O O5 0.622512 0.500715 0.965176
O O6 0.500000 0.500000 0.000000
O O7 0.569336 0.620941 0.112880
O O8 0.143682 0.769358 0.368233
O O9 0.158288 0.944238 0.266140
O O10 0.165836 0.923281 0.527352
O O11 0.064326 0.898555 0.411123
O O12 0.544605 0.634078 0.376993
O O13 0.250000 0.750000 0.360063
O O14 0.308050 0.855328 0.537059
O O15 0.305981 0.905076 0.280828
O O16 0.147506 0.432634 0.195855
O O17 0.741149 0.986112 0.382826
#
# Coordination Sequence:
#
# PCOD9432614 Si02
#       8
#     8   8   8   8   8   8   8   8
#     4  11  24  44  66  98 130 171 225 282 341 392
#     4  10  23  42  65  87 126 174 223 273 330 392
#     4  12  25  34  60  88 133 170 221 262 331 387
#     4  12  26  42  68  99 131 176 227 281 339 401
#     4  12  23  40  56  89 136 180 217 266 315 408
#     4  11  23  45  65  92 139 174 228 274 335 398
#     4  12  24  39  60  91 127 181 218 264 335 396
#     4  12  23  40  58  92 129 178 215 270 324 402
#
# _framework density 21.107901999999999
#
# number of rings (size 3 to 8) (size 9 to 14) (size 15 to 20)
#    0.000    0.500    5.000    4.125    5.250    0.000 
#    0.000    0.000    0.000    0.750    0.000    3.500 
#    0.000    0.000    0.000    0.000    0.000    0.000 
#
# Total GULP energy -357231.688397 kJ/mol
# GULP energy per Si atom -5581.745131 kJ/mol
# Density = 2.105986 g / cm^3
# Si number density = 21.107902 Si / 1000 Ang^3
#
#
#
# Elastic Constant Matrix: (Units=GPa)
#
#
# Indices 1 2 3 4 5 6 
#
# 1 132.5133 0.0935 -6.0611 0.0000 0.0000 0.0000
# 2 0.0935 17.6617 -5.4977 0.0000 0.0000 0.0000
# 3 -6.0611 -5.4977 85.8219 0.0000 0.0000 0.0000
# 4 0.0000 0.0000 0.0000 27.4310 0.0000 0.0000
# 5 0.0000 0.0000 0.0000 0.0000 26.2196 0.0000
# 6 0.0000 0.0000 0.0000 0.0000 0.0000 28.3904
#
#
#
# Elastic Compliance Matrix: (Units=1/GPa)
#
#
# Indices 1 2 3 4 5 6 
#
# 1 0.007571 0.000129 0.000543 0.000000 0.000000 0.000000
# 2 0.000129 0.057774 0.003710 0.000000 0.000000 0.000000
# 3 0.000543 0.003710 0.011928 0.000000 0.000000 0.000000
# 4 0.000000 0.000000 0.000000 0.036455 0.000000 0.000000
# 5 0.000000 0.000000 0.000000 0.000000 0.038139 0.000000
# 6 0.000000 0.000000 0.000000 0.000000 0.000000 0.035223
#
#
# Mechanical properties :
#
#
# Convention : Reuss Voigt Hill
#
# Bulk Modulus (GPa) = 11.62288 23.67402 17.64845
# Shear Modulus (GPa) = 24.15390 32.90568 28.52979
#
# Velocity S-wave (km/s) = 3.38643 3.95261 3.68042
# Velocity P-wave (km/s) = 4.56168 5.66312 5.14197
#
# Compressibility (1/GPa) = 0.08603721
#
# Stress axis : x y z
#
# Youngs Moduli (GPa) = 132.08023 17.30883 83.83599
#
# Poissons Ratio (x) = -0.00223 -0.04552
# Poissons Ratio (y) = -0.01703 -0.31104
# Poissons Ratio (z) = -0.07172 -0.06422
#
# Static dielectric constant tensor:
#      x y z
#    x 1.835280 0.000000 0.000000 
#    y 0.000000 1.812710 0.000000 
#    z 0.000000 0.000000 1.795060 
# 
# From -- ./inp_files/4838.got.cif
#   From: 2010.05.17/outbox.cif.g08.bks.cpg/sg56_3_cif.got.tgz:4838.got - 2010.06.03 13:42:01.
