data_PCOD9432552
_publ_section_title
;
Structure prediction by ZEFSAII (Michael W. Deem and Ramdas Pophale) SiO2 
 PCOD9432552
Probable space group: P C C N
;
_chemical_formula_sum "Si O2"
_cell_formula_units_Z 48
_cell_length_a 13.497253
_cell_length_b 12.948959
_cell_length_c 13.730551
_cell_angle_alpha 90.000000
_cell_angle_beta 90.000000
_cell_angle_gamma 90.000000
_cell_volume 2399.762210
_symmetry_space_group_name_H-M "P C C N"
_symmetry_group_IT_number 56
_symmetry_cell_setting 'orthorhombic'
loop_
_space_group_symop_operation_xyz
x,y,z
1/2-x,1/2-y,z
1/2+x,-y,1/2-z
-x,1/2+y,1/2-z
-x,-y,-z
1/2+x,1/2+y,-z
1/2-x,y,1/2+z
x,1/2-y,1/2+z
loop_
_atom_site_type_symbol
_atom_site_label
_atom_site_fract_x
_atom_site_fract_y
_atom_site_fract_z
Si Si1 0.837538 0.537245 0.855500
Si Si2 0.853624 0.203763 0.407164
Si Si3 0.137596 0.737712 0.311757
Si Si4 0.974378 0.702547 0.941964
Si Si5 0.121464 0.426795 0.571850
Si Si6 0.416923 0.500837 0.856876
O O1 0.844182 0.417965 0.886878
O O2 0.900741 0.607250 0.930071
O O3 0.722603 0.564978 0.868563
O O4 0.879038 0.549948 0.744435
O O5 0.750000 0.250000 0.447898
O O6 0.865740 0.255404 0.302594
O O7 0.955289 0.218107 0.465089
O O8 0.250000 0.750000 0.342510
O O9 0.108826 0.621366 0.340828
O O10 0.058824 0.811712 0.360578
O O11 0.914549 0.808245 0.926615
O O12 0.131367 0.460163 0.457847
O O13 0.034877 0.497209 0.620183
#
# Coordination Sequence:
#
# PCOD9432552 Si02
#       6
#     8   8   8   8   8   8
#     4  11  24  42  64  99 127 165 221 273 318 388
#     4  10  23  40  63  93 127 167 214 271 324 381
#     4   9  20  38  62  93 125 167 219 262 324 386
#     4  11  23  39  63  92 131 166 214 270 325 389
#     4  10  23  43  65  92 129 173 216 253 337 389
#     4   9  22  42  66  91 126 173 214 268 317 395
#
# _framework density 20.001982999999999
#
# number of rings (size 3 to 8) (size 9 to 14) (size 15 to 20)
#    0.000    2.000    0.000    1.500   11.667    2.667 
#    9.000    1.667    0.000    0.000    0.000    0.000 
#    0.000    0.000    0.000    0.000    0.000    0.000 
#
# Total GULP energy -267726.032129 kJ/mol
# GULP energy per Si atom -5577.625669 kJ/mol
# Density = 1.995646 g / cm^3
# Si number density = 20.001983 Si / 1000 Ang^3
#
#
#
# Elastic Constant Matrix: (Units=GPa)
#
#
# Indices 1 2 3 4 5 6 
#
# 1 122.1787 16.6593 40.5912 0.0000 0.0000 0.0000
# 2 16.6593 30.1650 3.3744 0.0000 0.0000 0.0000
# 3 40.5912 3.3744 83.0279 0.0000 0.0000 0.0000
# 4 0.0000 0.0000 0.0000 18.6705 0.0000 0.0000
# 5 0.0000 0.0000 0.0000 0.0000 29.7514 0.0000
# 6 0.0000 0.0000 0.0000 0.0000 0.0000 33.9726
#
#
#
# Elastic Compliance Matrix: (Units=1/GPa)
#
#
# Indices 1 2 3 4 5 6 
#
# 1 0.010545 -0.005271 -0.004941 0.000000 0.000000 0.000000
# 2 -0.005271 0.035937 0.001116 0.000000 0.000000 0.000000
# 3 -0.004941 0.001116 0.014414 0.000000 0.000000 0.000000
# 4 0.000000 0.000000 0.000000 0.053561 0.000000 0.000000
# 5 0.000000 0.000000 0.000000 0.000000 0.033612 0.000000
# 6 0.000000 0.000000 0.000000 0.000000 0.000000 0.029436
#
#
# Mechanical properties :
#
#
# Convention : Reuss Voigt Hill
#
# Bulk Modulus (GPa) = 23.41643 39.62461 31.52052
# Shear Modulus (GPa) = 23.81738 28.12869 25.97303
#
# Velocity S-wave (km/s) = 3.45447 3.75413 3.60741
# Velocity P-wave (km/s) = 5.25772 6.21648 5.75709
#
# Compressibility (1/GPa) = 0.04270506
#
# Stress axis : x y z
#
# Youngs Moduli (GPa) = 94.83169 27.82642 69.37512
#
# Poissons Ratio (x) = 0.14667 0.34279
# Poissons Ratio (y) = 0.49985 -0.07745
# Poissons Ratio (z) = 0.46857 -0.03106
#
# Static dielectric constant tensor:
#      x y z
#    x 1.732620 0.000000 0.000000 
#    y 0.000000 1.722290 0.000000 
#    z 0.000000 0.000000 1.757050 
# 
# From -- ./inp_files/11601.got.cif
#   From: 2010.05.17/outbox.cif.g08.bks.cpg/sg56_6_cif.got.tgz:11601.got - 2010.06.03 13:42:01.
