data_PCOD9432816
_publ_section_title
;
Structure prediction by ZEFSAII (Michael W. Deem and Ramdas Pophale) SiO2 
 PCOD9432816
Probable space group: P C C N
;
_chemical_formula_sum "Si O2"
_cell_formula_units_Z 52
_cell_length_a 8.386017
_cell_length_b 17.359393
_cell_length_c 16.527115
_cell_angle_alpha 90.000000
_cell_angle_beta 90.000000
_cell_angle_gamma 90.000000
_cell_volume 2405.954017
_symmetry_space_group_name_H-M "P C C N"
_symmetry_group_IT_number 56
_symmetry_cell_setting 'orthorhombic'
loop_
_space_group_symop_operation_xyz
x,y,z
1/2-x,1/2-y,z
1/2+x,-y,1/2-z
-x,1/2+y,1/2-z
-x,-y,-z
1/2+x,1/2+y,-z
1/2-x,y,1/2+z
x,1/2-y,1/2+z
loop_
_atom_site_type_symbol
_atom_site_label
_atom_site_fract_x
_atom_site_fract_y
_atom_site_fract_z
Si Si1 0.585220 0.725871 0.995401
Si Si2 0.394912 0.642636 0.795404
Si Si3 0.947660 0.303306 0.147193
Si Si4 0.216006 0.540979 0.687405
Si Si5 0.417035 0.443778 0.062613
Si Si6 0.250000 0.250000 0.349665
Si Si7 0.131313 0.399246 0.260704
O O1 0.750000 0.750000 0.952065
O O2 0.454735 0.768168 0.942151
O O3 0.596137 0.634513 0.988503
O O4 0.602177 0.754425 0.086670
O O5 0.222392 0.659052 0.835602
O O6 0.470551 0.727926 0.794964
O O7 0.349436 0.604297 0.710097
O O8 0.491345 0.587734 0.856571
O O9 0.078693 0.365210 0.173335
O O10 0.220634 0.497066 0.601946
O O11 0.257254 0.473549 0.752111
O O12 0.038802 0.577372 0.698497
O O13 0.500000 0.500000 0.000000
O O14 0.222291 0.329258 0.303241
#
# Coordination Sequence:
#
# PCOD9432816 Si02
#       7
#     8   8   8   8   8   4   8
#     4   9  20  36  56  86 114 160 204 245 308 374
#     4   9  20  37  59  89 119 160 211 260 305 375
#     4   9  19  38  61  84 118 163 211 252 309 375
#     4  11  22  39  62  92 128 163 208 263 317 374
#     4  11  21  37  61  87 125 164 200 254 320 375
#     4  10  24  36  58  94 126 154 214 266 298 376
#     4  11  23  38  63  92 122 163 206 262 309 371
#
# _framework density 21.613047000000002
#
# number of rings (size 3 to 8) (size 9 to 14) (size 15 to 20)
#    0.462    1.538    1.538    1.846    5.385    0.000 
#    0.000    3.077    0.000   13.846    0.000    0.000 
#    0.000    0.000    0.000    0.000    0.000    0.000 
#
# Total GULP energy -289519.022185 kJ/mol
# GULP energy per Si atom -5567.673504 kJ/mol
# Density = 2.156385 g / cm^3
# Si number density = 21.613047 Si / 1000 Ang^3
#
#
#
# Elastic Constant Matrix: (Units=GPa)
#
#
# Indices 1 2 3 4 5 6 
#
# 1 40.4034 20.4883 0.7993 0.0000 0.0000 0.0000
# 2 20.4883 100.2757 -5.8161 0.0000 0.0000 0.0000
# 3 0.7993 -5.8161 9.0090 0.0000 0.0000 0.0000
# 4 0.0000 0.0000 0.0000 9.6683 0.0000 0.0000
# 5 0.0000 0.0000 0.0000 0.0000 19.5818 0.0000
# 6 0.0000 0.0000 0.0000 0.0000 0.0000 44.4444
#
#
#
# Elastic Compliance Matrix: (Units=1/GPa)
#
#
# Indices 1 2 3 4 5 6 
#
# 1 0.027963 -0.006085 -0.006409 0.000000 0.000000 0.000000
# 2 -0.006085 0.011685 0.008083 0.000000 0.000000 0.000000
# 3 -0.006409 0.008083 0.116787 0.000000 0.000000 0.000000
# 4 0.000000 0.000000 0.000000 0.103431 0.000000 0.000000
# 5 0.000000 0.000000 0.000000 0.000000 0.051068 0.000000
# 6 0.000000 0.000000 0.000000 0.000000 0.000000 0.022500
#
#
# Mechanical properties :
#
#
# Convention : Reuss Voigt Hill
#
# Bulk Modulus (GPa) = 6.77451 20.07010 13.42230
# Shear Modulus (GPa) = 12.77273 23.68667 18.22970
#
# Velocity S-wave (km/s) = 2.43363 3.31409 2.90739
# Velocity P-wave (km/s) = 3.32235 4.89393 4.18262
#
# Compressibility (1/GPa) = 0.14761219
#
# Stress axis : x y z
#
# Youngs Moduli (GPa) = 35.76164 85.58230 8.56262
#
# Poissons Ratio (x) = 0.52078 0.05488
# Poissons Ratio (y) = 0.21761 -0.06921
# Poissons Ratio (z) = 0.22921 -0.69179
#
# Static dielectric constant tensor:
#      x y z
#    x 1.837710 0.000000 0.000000 
#    y 0.000000 1.722730 0.000000 
#    z 0.000000 0.000000 1.797150 
# 
# From -- ./inp_files/15028.got.cif
#   From: 2010.05.17/outbox.cif.g08.bks.cpg/sg56_8_cif.got.tgz:15028.got - 2010.06.03 13:42:01.
