data_PCOD9432604
_publ_section_title
;
Structure prediction by ZEFSAII (Michael W. Deem and Ramdas Pophale) SiO2 
 PCOD9432604
Probable space group: P C C N
;
_chemical_formula_sum "Si O2"
_cell_formula_units_Z 48
_cell_length_a 26.933489
_cell_length_b 15.187665
_cell_length_c 5.307564
_cell_angle_alpha 90.000000
_cell_angle_beta 90.000000
_cell_angle_gamma 90.000000
_cell_volume 2171.095189
_symmetry_space_group_name_H-M "P C C N"
_symmetry_group_IT_number 56
_symmetry_cell_setting 'orthorhombic'
loop_
_space_group_symop_operation_xyz
x,y,z
1/2-x,1/2-y,z
1/2+x,-y,1/2-z
-x,1/2+y,1/2-z
-x,-y,-z
1/2+x,1/2+y,-z
1/2-x,y,1/2+z
x,1/2-y,1/2+z
loop_
_atom_site_type_symbol
_atom_site_label
_atom_site_fract_x
_atom_site_fract_y
_atom_site_fract_z
Si Si1 0.023487 0.546526 0.749659
Si Si2 0.731285 0.848544 0.897146
Si Si3 0.046270 0.305339 0.219498
Si Si4 0.692746 0.287685 0.844135
Si Si5 0.357123 0.969719 0.776421
Si Si6 0.361123 0.424266 0.777925
O O1 0.083266 0.546185 0.750164
O O2 0.000000 0.500000 0.500000
O O3 0.006550 0.647947 0.756053
O O4 0.000000 0.500000 0.000000
O O5 0.750000 0.750000 0.939613
O O6 0.760078 0.893111 0.665606
O O7 0.675299 0.845930 0.804433
O O8 0.053692 0.236556 0.445324
O O9 0.084449 0.385223 0.260055
O O10 0.750000 0.250000 0.865040
O O11 0.670208 0.231170 0.616879
O O12 0.679926 0.387936 0.773519
O O13 0.349033 0.040395 0.553295
O O14 0.351164 0.003876 0.061681
#
# Coordination Sequence:
#
# PCOD9432604 Si02
#       6
#     8   8   8   8   8   8
#     4  12  23  46  67 100 146 180 233 293 349 411
#     4  10  23  42  60  90 134 181 212 280 336 389
#     4  12  26  41  70 104 141 185 230 284 345 417
#     4  10  23  46  70  99 139 175 227 295 360 408
#     4  12  24  45  76  99 135 188 227 289 357 412
#     4  12  25  44  69 104 136 179 236 275 347 422
#
# _framework density 22.108656
#
# number of rings (size 3 to 8) (size 9 to 14) (size 15 to 20)
#    0.000    0.667    3.333    4.000    4.667    1.333 
#   18.000    0.000    0.000    0.000    0.000    0.000 
#    0.000    0.000    0.000    0.000    0.000    0.000 
#
# Total GULP energy -267893.760126 kJ/mol
# GULP energy per Si atom -5581.120003 kJ/mol
# Density = 2.205834 g / cm^3
# Si number density = 22.108656 Si / 1000 Ang^3
#
#
#
# Elastic Constant Matrix: (Units=GPa)
#
#
# Indices 1 2 3 4 5 6 
#
# 1 89.7222 18.0927 15.4646 0.0000 0.0000 0.0000
# 2 18.0927 45.9949 -9.7034 0.0000 0.0000 0.0000
# 3 15.4646 -9.7034 133.2024 0.0000 0.0000 0.0000
# 4 0.0000 0.0000 0.0000 45.0465 0.0000 0.0000
# 5 0.0000 0.0000 0.0000 0.0000 27.1923 0.0000
# 6 0.0000 0.0000 0.0000 0.0000 0.0000 52.4610
#
#
#
# Elastic Compliance Matrix: (Units=1/GPa)
#
#
# Indices 1 2 3 4 5 6 
#
# 1 0.012536 -0.005320 -0.001843 0.000000 0.000000 0.000000
# 2 -0.005320 0.024339 0.002391 0.000000 0.000000 0.000000
# 3 -0.001843 0.002391 0.007895 0.000000 0.000000 0.000000
# 4 0.000000 0.000000 0.000000 0.022199 0.000000 0.000000
# 5 0.000000 0.000000 0.000000 0.000000 0.036775 0.000000
# 6 0.000000 0.000000 0.000000 0.000000 0.000000 0.019062
#
#
# Mechanical properties :
#
#
# Convention : Reuss Voigt Hill
#
# Bulk Modulus (GPa) = 28.38859 35.18081 31.78470
# Shear Modulus (GPa) = 34.69989 41.27765 37.98877
#
# Velocity S-wave (km/s) = 3.96601 4.32561 4.14971
# Velocity P-wave (km/s) = 5.81727 6.39493 6.11293
#
# Compressibility (1/GPa) = 0.03522543
#
# Stress axis : x y z
#
# Youngs Moduli (GPa) = 79.77049 41.08702 126.65456
#
# Poissons Ratio (x) = 0.21858 0.23342
# Poissons Ratio (y) = 0.42438 -0.30279
# Poissons Ratio (z) = 0.14701 -0.09822
#
# Static dielectric constant tensor:
#      x y z
#    x 1.889510 0.000000 0.000000 
#    y 0.000000 1.804540 0.000000 
#    z 0.000000 0.000000 1.860590 
# 
# From -- ./inp_files/1209.got.cif
#   From: 2010.05.17/outbox.cif.g08.bks.cpg/sg56_1_cif.got.tgz:1209.got - 2010.06.03 13:42:01.
