data_PCOD9432966
_publ_section_title
;
Structure prediction by ZEFSAII (Michael W. Deem and Ramdas Pophale) SiO2 
 PCOD9432966
Probable space group: P C C N
;
_chemical_formula_sum "Si O2"
_cell_formula_units_Z 40
_cell_length_a 13.029226
_cell_length_b 7.928775
_cell_length_c 15.040123
_cell_angle_alpha 90.000000
_cell_angle_beta 90.000000
_cell_angle_gamma 90.000000
_cell_volume 1553.731959
_symmetry_space_group_name_H-M "P C C N"
_symmetry_group_IT_number 56
_symmetry_cell_setting 'orthorhombic'
loop_
_space_group_symop_operation_xyz
x,y,z
1/2-x,1/2-y,z
1/2+x,-y,1/2-z
-x,1/2+y,1/2-z
-x,-y,-z
1/2+x,1/2+y,-z
1/2-x,y,1/2+z
x,1/2-y,1/2+z
loop_
_atom_site_type_symbol
_atom_site_label
_atom_site_fract_x
_atom_site_fract_y
_atom_site_fract_z
Si Si1 0.095881 0.941958 0.559542
Si Si2 0.656835 0.455526 0.740561
Si Si3 0.318975 0.080718 0.392487
Si Si4 0.446075 0.321042 0.728212
Si Si5 0.830014 0.086393 0.939628
O O1 0.212079 0.929137 0.519962
O O2 0.090013 0.740257 0.570935
O O3 0.092433 0.068920 0.643814
O O4 0.000000 0.000000 0.500000
O O5 0.739304 0.463297 0.663216
O O6 0.568220 0.322924 0.719763
O O7 0.600361 0.635318 0.758650
O O8 0.702642 0.430487 0.837502
O O9 0.250000 0.250000 0.403176
O O10 0.408521 0.095996 0.319434
O O11 0.372426 0.039062 0.486469
#
# Coordination Sequence:
#
# PCOD9432966 Si02
#       5
#     8   8   8   8   8
#     4  11  25  46  71 108 146 192 253 310 378 452
#     4  11  24  46  73 104 147 191 249 313 379 461
#     4  10  24  44  73 105 141 191 247 306 377 455
#     4  11  24  45  72 104 144 195 242 313 378 450
#     4  11  25  46  73 106 147 199 244 312 387 451
#
# _framework density 25.744467
#
# number of rings (size 3 to 8) (size 9 to 14) (size 15 to 20)
#    0.000    1.200    2.000    2.400    5.600    2.400 
#    7.200    0.000    0.000    0.000    0.000    0.000 
#    0.000    0.000    0.000    0.000    0.000    0.000 
#
# Total GULP energy -222732.968944 kJ/mol
# GULP energy per Si atom -5568.324224 kJ/mol
# Density = 2.568587 g / cm^3
# Si number density = 25.744467 Si / 1000 Ang^3
#
#
#
# Elastic Constant Matrix: (Units=GPa)
#
#
# Indices 1 2 3 4 5 6 
#
# 1 95.0814 16.5939 -3.7918 0.0000 0.0000 0.0000
# 2 16.5939 69.5954 29.4423 0.0000 0.0000 0.0000
# 3 -3.7918 29.4423 134.1866 0.0000 0.0000 0.0000
# 4 0.0000 0.0000 0.0000 36.8145 0.0000 0.0000
# 5 0.0000 0.0000 0.0000 0.0000 35.8956 0.0000
# 6 0.0000 0.0000 0.0000 0.0000 0.0000 45.1929
#
#
#
# Elastic Compliance Matrix: (Units=1/GPa)
#
#
# Indices 1 2 3 4 5 6 
#
# 1 0.011091 -0.003061 0.000985 0.000000 0.000000 0.000000
# 2 -0.003061 0.016684 -0.003747 0.000000 0.000000 0.000000
# 3 0.000985 -0.003747 0.008302 0.000000 0.000000 0.000000
# 4 0.000000 0.000000 0.000000 0.027163 0.000000 0.000000
# 5 0.000000 0.000000 0.000000 0.000000 0.027859 0.000000
# 6 0.000000 0.000000 0.000000 0.000000 0.000000 0.022127
#
#
# Mechanical properties :
#
#
# Convention : Reuss Voigt Hill
#
# Bulk Modulus (GPa) = 40.93245 42.59472 41.76358
# Shear Modulus (GPa) = 37.58940 40.68854 39.13897
#
# Velocity S-wave (km/s) = 3.82527 3.97983 3.90332
# Velocity P-wave (km/s) = 5.95351 6.14002 6.04748
#
# Compressibility (1/GPa) = 0.02443050
#
# Stress axis : x y z
#
# Youngs Moduli (GPa) = 90.16460 59.93801 120.44823
#
# Poissons Ratio (x) = 0.18348 -0.11865
# Poissons Ratio (y) = 0.27601 0.45134
# Poissons Ratio (z) = -0.08882 0.22460
#
# Static dielectric constant tensor:
#      x y z
#    x 2.091630 0.000000 0.000000 
#    y 0.000000 2.544300 0.000000 
#    z 0.000000 0.000000 2.391520 
# 
# From -- ./inp_files/12051.got.cif
#   From: 2010.05.17/outbox.cif.g08.bks.cpg/sg56_7_cif.got.tgz:12051.got - 2010.06.03 13:42:01.
