data_PCOD9432970
_publ_section_title
;
Structure prediction by ZEFSAII (Michael W. Deem and Ramdas Pophale) SiO2 
 PCOD9432970
Probable space group: P C C N
;
_chemical_formula_sum "Si O2"
_cell_formula_units_Z 32
_cell_length_a 11.931170
_cell_length_b 6.363842
_cell_length_c 17.057063
_cell_angle_alpha 90.000000
_cell_angle_beta 90.000000
_cell_angle_gamma 90.000000
_cell_volume 1295.110057
_symmetry_space_group_name_H-M "P C C N"
_symmetry_group_IT_number 56
_symmetry_cell_setting 'orthorhombic'
loop_
_space_group_symop_operation_xyz
x,y,z
1/2-x,1/2-y,z
1/2+x,-y,1/2-z
-x,1/2+y,1/2-z
-x,-y,-z
1/2+x,1/2+y,-z
1/2-x,y,1/2+z
x,1/2-y,1/2+z
loop_
_atom_site_type_symbol
_atom_site_label
_atom_site_fract_x
_atom_site_fract_y
_atom_site_fract_z
Si Si1 0.134971 0.859158 0.209006
Si Si2 0.683536 0.047472 0.005686
Si Si3 0.250000 0.250000 0.122878
Si Si4 0.750000 0.750000 0.624214
Si Si5 0.033746 0.044060 0.352626
O O1 0.250000 0.750000 0.238471
O O2 0.072431 0.697215 0.150360
O O3 0.177009 0.076055 0.168919
O O4 0.329570 0.118404 0.064164
O O5 0.750000 0.250000 0.977201
O O6 0.577001 0.054113 0.064682
O O7 0.772737 0.944616 0.066923
O O8 0.861216 0.801865 0.668416
O O9 0.952601 0.384498 0.219160
#
# Coordination Sequence:
#
# PCOD9432970 Si02
#       5
#     8   8   4   4   8
#     4  12  28  46  72 113 147 189 250 314 367 431
#     4   9  19  44  73 101 141 195 236 291 364 440
#     4  11  25  46  70 105 157 178 248 311 359 450
#     4   7  19  40  66 103 125 184 238 281 351 434
#     4  10  24  44  77  99 144 196 241 301 368 440
#
# _framework density 24.708327000000001
#
# number of rings (size 3 to 8) (size 9 to 14) (size 15 to 20)
#    1.500    0.500    0.000    2.250    7.000    1.000 
#    0.000    2.500    0.000    0.000    0.000    0.000 
#    0.000    0.000    0.000    0.000    0.000    0.000 
#
# Total GULP energy -178182.333965 kJ/mol
# GULP energy per Si atom -5568.197936 kJ/mol
# Density = 2.465209 g / cm^3
# Si number density = 24.708327 Si / 1000 Ang^3
#
#
#
# Elastic Constant Matrix: (Units=GPa)
#
#
# Indices 1 2 3 4 5 6 
#
# 1 94.9441 49.8388 35.6920 0.0000 0.0000 0.0000
# 2 49.8388 108.8618 59.7043 0.0000 0.0000 0.0000
# 3 35.6920 59.7043 122.3172 0.0000 0.0000 0.0000
# 4 0.0000 0.0000 0.0000 35.8927 0.0000 0.0000
# 5 0.0000 0.0000 0.0000 0.0000 45.5781 0.0000
# 6 0.0000 0.0000 0.0000 0.0000 0.0000 52.3447
#
#
#
# Elastic Compliance Matrix: (Units=1/GPa)
#
#
# Indices 1 2 3 4 5 6 
#
# 1 0.014016 -0.005699 -0.001308 0.000000 0.000000 0.000000
# 2 -0.005699 0.014862 -0.005591 0.000000 0.000000 0.000000
# 3 -0.001308 -0.005591 0.011286 0.000000 0.000000 0.000000
# 4 0.000000 0.000000 0.000000 0.027861 0.000000 0.000000
# 5 0.000000 0.000000 0.000000 0.000000 0.021940 0.000000
# 6 0.000000 0.000000 0.000000 0.000000 0.000000 0.019104
#
#
# Mechanical properties :
#
#
# Convention : Reuss Voigt Hill
#
# Bulk Modulus (GPa) = 66.81357 68.51038 67.66197
# Shear Modulus (GPa) = 35.90541 38.82230 37.36385
#
# Velocity S-wave (km/s) = 3.81618 3.96817 3.89292
# Velocity P-wave (km/s) = 6.82036 6.98448 6.90291
#
# Compressibility (1/GPa) = 0.01496702
#
# Stress axis : x y z
#
# Youngs Moduli (GPa) = 71.34703 67.28741 88.60435
#
# Poissons Ratio (x) = 0.38350 0.11588
# Poissons Ratio (y) = 0.40664 0.49539
# Poissons Ratio (z) = 0.09331 0.37620
#
# Static dielectric constant tensor:
#      x y z
#    x 2.068120 0.000000 0.000000 
#    y 0.000000 2.232930 0.000000 
#    z 0.000000 0.000000 1.981180 
# 
# From -- ./inp_files/15977.got.cif
#   From: 2010.05.17/outbox.cif.g08.bks.cpg/sg56_8_cif.got.tgz:15977.got - 2010.06.03 13:42:01.
