data_PCOD9432885
_publ_section_title
;
Structure prediction by ZEFSAII (Michael W. Deem and Ramdas Pophale) SiO2 
 PCOD9432885
Probable space group: P C C N
;
_chemical_formula_sum "Si O2"
_cell_formula_units_Z 24
_cell_length_a 4.824038
_cell_length_b 11.072595
_cell_length_c 14.801576
_cell_angle_alpha 90.000000
_cell_angle_beta 90.000000
_cell_angle_gamma 90.000000
_cell_volume 790.620543
_symmetry_space_group_name_H-M "P C C N"
_symmetry_group_IT_number 56
_symmetry_cell_setting 'orthorhombic'
loop_
_space_group_symop_operation_xyz
x,y,z
1/2-x,1/2-y,z
1/2+x,-y,1/2-z
-x,1/2+y,1/2-z
-x,-y,-z
1/2+x,1/2+y,-z
1/2-x,y,1/2+z
x,1/2-y,1/2+z
loop_
_atom_site_type_symbol
_atom_site_label
_atom_site_fract_x
_atom_site_fract_y
_atom_site_fract_z
Si Si1 0.555323 0.142965 0.091392
Si Si2 0.822389 0.073871 0.773462
Si Si3 0.846675 0.619000 0.563538
O O1 0.750000 0.250000 0.051815
O O2 0.544016 0.161669 0.198742
O O3 0.707669 0.013092 0.080999
O O4 0.264375 0.131281 0.040126
O O5 0.871024 0.106545 0.877620
O O6 0.008531 0.954630 0.751968
O O7 0.750000 0.750000 0.599980
#
# Coordination Sequence:
#
# PCOD9432885 Si02
#       3
#     8   8   8
#     4  10  24  45  70 104 144 188 241 298 359 430
#     4  10  24  46  73 106 145 190 243 302 363 428
#     4  10  24  42  68 102 140 186 237 293 358 425
#
# _framework density 30.355899999999998
#
# number of rings (size 3 to 8) (size 9 to 14) (size 15 to 20)
#    0.000    2.000    0.000    0.000    0.000   28.000 
#    0.000    0.000    0.000    0.000    0.000    0.000 
#    0.000    0.000    0.000    0.000    0.000    0.000 
#
# Total GULP energy -133827.565237 kJ/mol
# GULP energy per Si atom -5576.148552 kJ/mol
# Density = 3.028681 g / cm^3
# Si number density = 30.355900 Si / 1000 Ang^3
#
#
#
# Elastic Constant Matrix: (Units=GPa)
#
#
# Indices 1 2 3 4 5 6 
#
# 1 151.7619 48.7828 44.7967 0.0000 0.0000 0.0000
# 2 48.7828 214.8563 32.8416 0.0000 0.0000 0.0000
# 3 44.7967 32.8416 203.3486 0.0000 0.0000 0.0000
# 4 0.0000 0.0000 0.0000 33.5769 0.0000 0.0000
# 5 0.0000 0.0000 0.0000 0.0000 2.9824 0.0000
# 6 0.0000 0.0000 0.0000 0.0000 0.0000 53.1718
#
#
#
# Elastic Compliance Matrix: (Units=1/GPa)
#
#
# Indices 1 2 3 4 5 6 
#
# 1 0.007482 -0.001483 -0.001409 0.000000 0.000000 0.000000
# 2 -0.001483 0.005066 -0.000491 0.000000 0.000000 0.000000
# 3 -0.001409 -0.000491 0.005307 0.000000 0.000000 0.000000
# 4 0.000000 0.000000 0.000000 0.029782 0.000000 0.000000
# 5 0.000000 0.000000 0.000000 0.000000 0.335306 0.000000
# 6 0.000000 0.000000 0.000000 0.000000 0.000000 0.018807
#
#
# Mechanical properties :
#
#
# Convention : Reuss Voigt Hill
#
# Bulk Modulus (GPa) = 90.18391 91.42322 90.80357
# Shear Modulus (GPa) = 12.12963 47.51593 29.82278
#
# Velocity S-wave (km/s) = 2.00112 3.96067 3.13779
# Velocity P-wave (km/s) = 5.92559 7.14831 6.56548
#
# Compressibility (1/GPa) = 0.01108845
#
# Stress axis : x y z
#
# Youngs Moduli (GPa) = 133.65564 197.38655 188.41802
#
# Poissons Ratio (x) = 0.29281 0.26541
# Poissons Ratio (y) = 0.19827 0.09259
# Poissons Ratio (z) = 0.18827 0.09700
#
# Static dielectric constant tensor:
#      x y z
#    x 2.392620 0.000000 0.000000 
#    y 0.000000 2.415720 0.000000 
#    z 0.000000 0.000000 2.442910 
# 
# From -- ./inp_files/13574.got.cif
#   From: 2010.05.17/outbox.cif.g08.bks.cpg/sg56_7_cif.got.tgz:13574.got - 2010.06.03 13:42:01.
