data_PCOD9432294
_publ_section_title
;
Structure prediction by ZEFSAII (Michael W. Deem and Ramdas Pophale) SiO2 
 PCOD9432294
Probable space group: P C C N
;
_chemical_formula_sum "Si O2"
_cell_formula_units_Z 56
_cell_length_a 11.128405
_cell_length_b 15.265536
_cell_length_c 15.190504
_cell_angle_alpha 90.000000
_cell_angle_beta 90.000000
_cell_angle_gamma 90.000000
_cell_volume 2580.579030
_symmetry_space_group_name_H-M "P C C N"
_symmetry_group_IT_number 56
_symmetry_cell_setting 'orthorhombic'
loop_
_space_group_symop_operation_xyz
x,y,z
1/2-x,1/2-y,z
1/2+x,-y,1/2-z
-x,1/2+y,1/2-z
-x,-y,-z
1/2+x,1/2+y,-z
1/2-x,y,1/2+z
x,1/2-y,1/2+z
loop_
_atom_site_type_symbol
_atom_site_label
_atom_site_fract_x
_atom_site_fract_y
_atom_site_fract_z
Si Si1 0.285522 0.621068 0.660630
Si Si2 0.696732 0.573680 0.151163
Si Si3 0.052426 0.579369 0.557429
Si Si4 0.172341 0.167479 0.502889
Si Si5 0.098246 0.728382 0.006838
Si Si6 0.672326 0.387579 0.655622
Si Si7 0.393428 0.057053 0.165570
O O1 0.340133 0.694053 0.596506
O O2 0.233037 0.648537 0.755158
O O3 0.387754 0.547742 0.672456
O O4 0.174852 0.570355 0.612502
O O5 0.559228 0.591134 0.123008
O O6 0.749925 0.475576 0.134854
O O7 0.691455 0.589949 0.255112
O O8 0.773455 0.635444 0.088695
O O9 0.000000 0.500000 0.500000
O O10 0.081871 0.667090 0.502241
O O11 0.250000 0.250000 0.535442
O O12 0.163377 0.091044 0.574856
O O13 0.036781 0.195341 0.489913
O O14 0.162956 0.679569 0.925679
O O15 0.532267 0.413396 0.672157
#
# Coordination Sequence:
#
# PCOD9432294 Si02
#       7
#     8   8   8   8   8   8   8
#     4  11  23  42  71 102 141 182 234 291 356 427
#     4  11  22  41  68  99 137 178 229 291 349 416
#     4  12  24  42  66  95 139 184 230 285 350 421
#     4  11  22  40  68  98 135 181 232 288 346 419
#     4  11  24  44  71 101 137 186 230 293 359 417
#     4  10  22  44  73 103 137 182 241 291 358 427
#     4  10  22  42  68  99 136 184 231 288 352 427
#
# _framework density 21.700555999999999
#
# number of rings (size 3 to 8) (size 9 to 14) (size 15 to 20)
#    0.000    1.143    2.857    3.857    0.000    2.857 
#    0.000    8.571    0.000    0.000    0.000    0.000 
#    0.000    0.000    0.000    0.000    0.000    0.000 
#
# Total GULP energy -312736.171307 kJ/mol
# GULP energy per Si atom -5584.574488 kJ/mol
# Density = 2.165116 g / cm^3
# Si number density = 21.700556 Si / 1000 Ang^3
#
#
#
# Elastic Constant Matrix: (Units=GPa)
#
#
# Indices 1 2 3 4 5 6 
#
# 1 116.0322 36.4988 32.0160 0.0000 0.0000 0.0000
# 2 36.4988 98.0843 45.9273 0.0000 0.0000 0.0000
# 3 32.0160 45.9273 96.6265 0.0000 0.0000 0.0000
# 4 0.0000 0.0000 0.0000 -7.9940 0.0000 0.0000
# 5 0.0000 0.0000 0.0000 0.0000 35.7953 0.0000
# 6 0.0000 0.0000 0.0000 0.0000 0.0000 44.5933
#
#
#
# Elastic Compliance Matrix: (Units=1/GPa)
#
#
# Indices 1 2 3 4 5 6 
#
# 1 0.010052 -0.002805 -0.001997 0.000000 0.000000 0.000000
# 2 -0.002805 0.013897 -0.005676 0.000000 0.000000 0.000000
# 3 -0.001997 -0.005676 0.013709 0.000000 0.000000 0.000000
# 4 0.000000 0.000000 0.000000 -0.125093 0.000000 0.000000
# 5 0.000000 0.000000 0.000000 0.000000 0.027937 0.000000
# 6 0.000000 0.000000 0.000000 0.000000 0.000000 0.022425
#
#
# Mechanical properties :
#
#
# Convention : Reuss Voigt Hill
#
# Bulk Modulus (GPa) = 59.87740 59.95856 59.91798
# Shear Modulus (GPa) = -473.88889 27.56564 -223.16162
#
# Velocity S-wave (km/s) = -14.79360 3.56796 -10.15185
# Velocity P-wave (km/s) = 16.25264 6.68309 10.47579
#
# Compressibility (1/GPa) = 0.01670079
#
# Stress axis : x y z
#
# Youngs Moduli (GPa) = 99.48481 71.95880 72.94689
#
# Poissons Ratio (x) = 0.20186 0.14569
# Poissons Ratio (y) = 0.27908 0.41403
# Poissons Ratio (z) = 0.19869 0.40842
#
# Static dielectric constant tensor:
#      x y z
#    x 1.766990 0.000000 0.000000 
#    y 0.000000 1.829410 0.000000 
#    z 0.000000 0.000000 1.826700 
# 
# From -- ./inp_files/11695.got.cif
#   From: 2010.05.17/outbox.cif.g08.bks.cpg/sg56_6_cif.got.tgz:11695.got - 2010.06.03 13:42:01.
