data_PCOD9432213
_publ_section_title
;
Structure prediction by ZEFSAII (Michael W. Deem and Ramdas Pophale) SiO2 
 PCOD9432213
Probable space group: P C C N
;
_chemical_formula_sum "Si O2"
_cell_formula_units_Z 60
_cell_length_a 8.905708
_cell_length_b 21.801289
_cell_length_c 15.253327
_cell_angle_alpha 90.000000
_cell_angle_beta 90.000000
_cell_angle_gamma 90.000000
_cell_volume 2961.523643
_symmetry_space_group_name_H-M "P C C N"
_symmetry_group_IT_number 56
_symmetry_cell_setting 'orthorhombic'
loop_
_space_group_symop_operation_xyz
x,y,z
1/2-x,1/2-y,z
1/2+x,-y,1/2-z
-x,1/2+y,1/2-z
-x,-y,-z
1/2+x,1/2+y,-z
1/2-x,y,1/2+z
x,1/2-y,1/2+z
loop_
_atom_site_type_symbol
_atom_site_label
_atom_site_fract_x
_atom_site_fract_y
_atom_site_fract_z
Si Si1 0.926543 0.988722 0.595751
Si Si2 0.043278 0.415166 0.243579
Si Si3 0.068762 0.497275 0.404162
Si Si4 0.915182 0.763834 0.944556
Si Si5 0.250000 0.250000 0.888009
Si Si6 0.050785 0.631765 0.357302
Si Si7 0.849828 0.193872 0.676056
Si Si8 0.854686 0.870995 0.702834
O O1 0.931105 0.919193 0.635489
O O2 0.748046 0.997258 0.587243
O O3 0.000000 0.000000 0.500000
O O4 0.992846 0.036720 0.667723
O O5 0.015498 0.443404 0.340030
O O6 0.223377 0.405083 0.241786
O O7 0.953079 0.351622 0.232258
O O8 0.028639 0.560117 0.356215
O O9 0.000000 0.500000 0.500000
O O10 0.750000 0.750000 0.904869
O O11 0.956330 0.834538 0.931765
O O12 0.041309 0.724887 0.895660
O O13 0.892326 0.750546 0.046256
O O14 0.267924 0.186732 0.837883
O O15 0.223079 0.650400 0.366372
O O16 0.981989 0.655321 0.266360
O O17 0.750000 0.250000 0.715711
#
# Coordination Sequence:
#
# PCOD9432213 Si02
#       8
#     8   8   8   8   4   8   8   8
#     4  11  26  44  71 102 136 184 232 289 347 419
#     4  11  24  46  68  98 141 182 232 285 352 418
#     4  11  26  42  68 100 138 180 227 287 351 412
#     4   9  22  41  68  92 133 174 227 281 336 410
#     4  10  26  42  68 104 134 176 246 276 348 418
#     4  11  22  41  66  95 133 176 228 282 350 402
#     4  10  22  41  69  96 129 181 228 285 353 406
#     4  11  26  41  70  98 138 185 235 287 348 426
#
# _framework density 20.259841999999999
#
# number of rings (size 3 to 8) (size 9 to 14) (size 15 to 20)
#    0.400    1.067    2.667    0.800   12.133    1.067 
#    0.000    0.000    2.933    0.000    0.000    0.000 
#    0.000    0.000    0.000    0.000    0.000    0.000 
#
# Total GULP energy -334510.048685 kJ/mol
# GULP energy per Si atom -5575.167478 kJ/mol
# Density = 2.021373 g / cm^3
# Si number density = 20.259842 Si / 1000 Ang^3
#
#
#
# Elastic Constant Matrix: (Units=GPa)
#
#
# Indices 1 2 3 4 5 6 
#
# 1 88.4270 21.2431 43.8798 0.0000 0.0000 0.0000
# 2 21.2431 92.6853 33.0096 0.0000 0.0000 0.0000
# 3 43.8798 33.0096 106.2954 0.0000 0.0000 0.0000
# 4 0.0000 0.0000 0.0000 23.9938 0.0000 0.0000
# 5 0.0000 0.0000 0.0000 0.0000 29.2246 0.0000
# 6 0.0000 0.0000 0.0000 0.0000 0.0000 37.9620
#
#
#
# Elastic Compliance Matrix: (Units=1/GPa)
#
#
# Indices 1 2 3 4 5 6 
#
# 1 0.014366 -0.001327 -0.005518 0.000000 0.000000 0.000000
# 2 -0.001327 0.012254 -0.003257 0.000000 0.000000 0.000000
# 3 -0.005518 -0.003257 0.012697 0.000000 0.000000 0.000000
# 4 0.000000 0.000000 0.000000 0.041677 0.000000 0.000000
# 5 0.000000 0.000000 0.000000 0.000000 0.034218 0.000000
# 6 0.000000 0.000000 0.000000 0.000000 0.000000 0.026342
#
#
# Mechanical properties :
#
#
# Convention : Reuss Voigt Hill
#
# Bulk Modulus (GPa) = 52.32597 53.74138 53.03368
# Shear Modulus (GPa) = 29.73890 30.85444 30.29667
#
# Velocity S-wave (km/s) = 3.83544 3.90671 3.87124
# Velocity P-wave (km/s) = 6.74519 6.85081 6.79821
#
# Compressibility (1/GPa) = 0.01911097
#
# Stress axis : x y z
#
# Youngs Moduli (GPa) = 69.60925 81.60931 78.75709
#
# Poissons Ratio (x) = 0.10832 0.43460
# Poissons Ratio (y) = 0.09239 0.25654
# Poissons Ratio (z) = 0.38412 0.26583
#
# Static dielectric constant tensor:
#      x y z
#    x 1.714170 0.000000 0.000000 
#    y 0.000000 1.802030 0.000000 
#    z 0.000000 0.000000 1.735120 
# 
# From -- ./inp_files/10997.got.cif
#   From: 2010.05.17/outbox.cif.g08.bks.cpg/sg56_6_cif.got.tgz:10997.got - 2010.06.03 13:42:01.
