data_PCOD9432174
_publ_section_title
;
Structure prediction by ZEFSAII (Michael W. Deem and Ramdas Pophale) SiO2 
 PCOD9432174
Probable space group: P C C N
;
_chemical_formula_sum "Si O2"
_cell_formula_units_Z 64
_cell_length_a 24.725722
_cell_length_b 5.109913
_cell_length_c 27.027609
_cell_angle_alpha 90.000000
_cell_angle_beta 90.000000
_cell_angle_gamma 90.000000
_cell_volume 3414.838078
_symmetry_space_group_name_H-M "P C C N"
_symmetry_group_IT_number 56
_symmetry_cell_setting 'orthorhombic'
loop_
_space_group_symop_operation_xyz
x,y,z
1/2-x,1/2-y,z
1/2+x,-y,1/2-z
-x,1/2+y,1/2-z
-x,-y,-z
1/2+x,1/2+y,-z
1/2-x,y,1/2+z
x,1/2-y,1/2+z
loop_
_atom_site_type_symbol
_atom_site_label
_atom_site_fract_x
_atom_site_fract_y
_atom_site_fract_z
Si Si1 0.288994 0.498207 0.102248
Si Si2 0.883318 0.122574 0.082401
Si Si3 0.962098 0.248847 0.494166
Si Si4 0.461187 0.191358 0.754383
Si Si5 0.449761 0.933455 0.111665
Si Si6 0.925637 0.899387 0.635057
Si Si7 0.600338 0.561195 0.843257
Si Si8 0.212043 0.000418 0.989836
O O1 0.250000 0.750000 0.106737
O O2 0.337690 0.489974 0.141545
O O3 0.250000 0.250000 0.108263
O O4 0.312275 0.485563 0.045713
O O5 0.885303 0.364223 0.120798
O O6 0.828821 0.032340 0.055445
O O7 0.909571 0.868000 0.107551
O O8 0.918366 0.230028 0.036657
O O9 0.936716 0.202979 0.440487
O O10 0.000000 0.500000 0.500000
O O11 0.000000 0.000000 0.500000
O O12 0.493387 0.464938 0.751892
O O13 0.432038 0.151947 0.806836
O O14 0.417297 0.165391 0.710544
O O15 0.513895 0.975841 0.117064
O O16 0.430785 0.713682 0.150260
O O17 0.421303 0.210371 0.120125
O O18 0.250000 0.750000 0.990491
O O19 0.250000 0.250000 0.983335
#
# Coordination Sequence:
#
# PCOD9432174 Si02
#       8
#     8   8   8   8   8   8   8   8
#     4  10  22  41  65  90 118 151 202 260 313 361
#     4  12  23  39  59  85 123 164 198 247 306 352
#     4  12  22  33  51  82 123 161 189 228 292 368
#     4  12  23  39  61  88 123 165 207 245 296 363
#     4  12  22  36  57  87 125 161 200 235 298 371
#     4  12  23  38  58  86 126 165 201 245 291 358
#     4  12  23  39  63  88 120 160 202 257 308 362
#     4  10  22  41  64  88 115 155 208 255 300 366
#
# _framework density 18.741736
#
# number of rings (size 3 to 8) (size 9 to 14) (size 15 to 20)
#    0.000    0.500    5.000    4.500    0.000    3.000 
#    0.000    0.000    0.000    4.500    0.000    0.000 
#    0.000    0.000    0.000    0.000    0.000    0.000 
#
# Total GULP energy -357630.380045 kJ/mol
# GULP energy per Si atom -5587.974688 kJ/mol
# Density = 1.869908 g / cm^3
# Si number density = 18.741736 Si / 1000 Ang^3
#
#
#
# Elastic Constant Matrix: (Units=GPa)
#
#
# Indices 1 2 3 4 5 6 
#
# 1 74.9846 32.0388 49.8738 0.0000 0.0000 0.0000
# 2 32.0388 130.7109 14.0915 0.0000 0.0000 0.0000
# 3 49.8738 14.0915 108.8149 0.0000 0.0000 0.0000
# 4 0.0000 0.0000 0.0000 24.2280 0.0000 0.0000
# 5 0.0000 0.0000 0.0000 0.0000 28.0443 0.0000
# 6 0.0000 0.0000 0.0000 0.0000 0.0000 22.3712
#
#
#
# Elastic Compliance Matrix: (Units=1/GPa)
#
#
# Indices 1 2 3 4 5 6 
#
# 1 0.021255 -0.004218 -0.009195 0.000000 0.000000 0.000000
# 2 -0.004218 0.008596 0.000820 0.000000 0.000000 0.000000
# 3 -0.009195 0.000820 0.013298 0.000000 0.000000 0.000000
# 4 0.000000 0.000000 0.000000 0.041275 0.000000 0.000000
# 5 0.000000 0.000000 0.000000 0.000000 0.035658 0.000000
# 6 0.000000 0.000000 0.000000 0.000000 0.000000 0.044700
#
#
# Mechanical properties :
#
#
# Convention : Reuss Voigt Hill
#
# Bulk Modulus (GPa) = 55.67402 56.27983 55.97692
# Shear Modulus (GPa) = 25.51592 29.49578 27.50585
#
# Velocity S-wave (km/s) = 3.69378 3.97142 3.83512
# Velocity P-wave (km/s) = 6.92549 7.15010 7.03869
#
# Compressibility (1/GPa) = 0.01796170
#
# Stress axis : x y z
#
# Youngs Moduli (GPa) = 47.04868 116.33283 75.19753
#
# Poissons Ratio (x) = 0.49074 0.69148
# Poissons Ratio (y) = 0.19847 -0.06168
# Poissons Ratio (z) = 0.43263 -0.09542
#
# Static dielectric constant tensor:
#      x y z
#    x 1.643750 0.000000 0.000000 
#    y 0.000000 1.680940 0.000000 
#    z 0.000000 0.000000 1.708560 
# 
# From -- ./inp_files/22607.got.cif
#   From: 2010.05.17/outbox.cif.g08.bks.cpg/sg56_12_cif.got.tgz:22607.got - 2010.06.03 13:42:01.
