data_PCOD9432016
_publ_section_title
;
Structure prediction by ZEFSAII (Michael W. Deem and Ramdas Pophale) SiO2 
 PCOD9432016
Probable space group: P C C N
;
_chemical_formula_sum "Si O2"
_cell_formula_units_Z 40
_cell_length_a 9.860931
_cell_length_b 8.887596
_cell_length_c 17.654422
_cell_angle_alpha 90.000000
_cell_angle_beta 90.000000
_cell_angle_gamma 90.000000
_cell_volume 1547.233031
_symmetry_space_group_name_H-M "P C C N"
_symmetry_group_IT_number 56
_symmetry_cell_setting 'orthorhombic'
loop_
_space_group_symop_operation_xyz
x,y,z
1/2-x,1/2-y,z
1/2+x,-y,1/2-z
-x,1/2+y,1/2-z
-x,-y,-z
1/2+x,1/2+y,-z
1/2-x,y,1/2+z
x,1/2-y,1/2+z
loop_
_atom_site_type_symbol
_atom_site_label
_atom_site_fract_x
_atom_site_fract_y
_atom_site_fract_z
Si Si1 0.532760 0.617331 0.606300
Si Si2 0.700428 0.901580 0.892658
Si Si3 0.620930 0.363945 0.957296
Si Si4 0.199060 0.580788 0.377042
Si Si5 0.390826 0.173452 0.276116
O O1 0.419195 0.503168 0.576037
O O2 0.513623 0.767518 0.557465
O O3 0.666591 0.518639 0.608456
O O4 0.507096 0.701780 0.688837
O O5 0.750000 0.750000 0.931459
O O6 0.630889 0.850124 0.813066
O O7 0.831492 0.010579 0.896502
O O8 0.750000 0.250000 0.953992
O O9 0.620142 0.416237 0.043720
O O10 0.250000 0.750000 0.356661
O O11 0.112396 0.489998 0.314979
O O12 0.250000 0.250000 0.300712
#
# Coordination Sequence:
#
# PCOD9432016 Si02
#       5
#     8   8   8   8   8
#     4  10  22  40  60  85 125 163 198 251 316 360
#     4  10  22  39  61  90 119 156 207 251 295 363
#     4   9  21  39  60  88 123 160 202 254 304 360
#     4  10  22  39  61  90 121 159 207 254 301 365
#     4   9  21  39  58  87 122 154 196 249 300 360
#
# _framework density 25.852602000000001
#
# number of rings (size 3 to 8) (size 9 to 14) (size 15 to 20)
#    0.000    2.400    0.000    0.000    0.000   20.800 
#    0.000    0.000    0.000    3.600    0.000    0.000 
#    0.000    0.000    0.000    0.000    0.000    0.000 
#
# Total GULP energy -223027.976302 kJ/mol
# GULP energy per Si atom -5575.699408 kJ/mol
# Density = 2.579376 g / cm^3
# Si number density = 25.852602 Si / 1000 Ang^3
#
#
#
# Elastic Constant Matrix: (Units=GPa)
#
#
# Indices 1 2 3 4 5 6 
#
# 1 72.5091 39.8270 12.5114 0.0000 0.0000 0.0000
# 2 39.8270 164.0104 47.3567 0.0000 0.0000 0.0000
# 3 12.5114 47.3567 67.9506 0.0000 0.0000 0.0000
# 4 0.0000 0.0000 0.0000 36.7754 0.0000 0.0000
# 5 0.0000 0.0000 0.0000 0.0000 25.5255 0.0000
# 6 0.0000 0.0000 0.0000 0.0000 0.0000 44.7972
#
#
#
# Elastic Compliance Matrix: (Units=1/GPa)
#
#
# Indices 1 2 3 4 5 6 
#
# 1 0.015919 -0.003780 -0.000297 0.000000 0.000000 0.000000
# 2 -0.003780 0.008531 -0.005249 0.000000 0.000000 0.000000
# 3 -0.000297 -0.005249 0.018430 0.000000 0.000000 0.000000
# 4 0.000000 0.000000 0.000000 0.027192 0.000000 0.000000
# 5 0.000000 0.000000 0.000000 0.000000 0.039176 0.000000
# 6 0.000000 0.000000 0.000000 0.000000 0.000000 0.022323
#
#
# Mechanical properties :
#
#
# Convention : Reuss Voigt Hill
#
# Bulk Modulus (GPa) = 41.27593 55.98448 48.63021
# Shear Modulus (GPa) = 31.58595 35.07129 33.32862
#
# Velocity S-wave (km/s) = 3.49918 3.68718 3.59441
# Velocity P-wave (km/s) = 5.68561 6.31105 6.00648
#
# Compressibility (1/GPa) = 0.02422720
#
# Stress axis : x y z
#
# Youngs Moduli (GPa) = 62.81894 117.22270 54.26047
#
# Poissons Ratio (x) = 0.44309 0.01610
# Poissons Ratio (y) = 0.23745 0.28483
# Poissons Ratio (z) = 0.01864 0.61534
#
# Static dielectric constant tensor:
#      x y z
#    x 2.084840 0.000000 0.000000 
#    y 0.000000 2.073660 0.000000 
#    z 0.000000 0.000000 2.084150 
# 
# From -- ./inp_files/15408.got.cif
#   From: 2010.05.17/outbox.cif.g08.bks.cpg/sg56_8_cif.got.tgz:15408.got - 2010.06.03 13:42:01.
