data_PCOD9432773
_publ_section_title
;
Structure prediction by ZEFSAII (Michael W. Deem and Ramdas Pophale) SiO2 
 PCOD9432773
Probable space group: P C C N
;
_chemical_formula_sum "Si O2"
_cell_formula_units_Z 28
_cell_length_a 13.522722
_cell_length_b 8.277383
_cell_length_c 8.996684
_cell_angle_alpha 90.000000
_cell_angle_beta 90.000000
_cell_angle_gamma 90.000000
_cell_volume 1007.023574
_symmetry_space_group_name_H-M "P C C N"
_symmetry_group_IT_number 56
_symmetry_cell_setting 'orthorhombic'
loop_
_space_group_symop_operation_xyz
x,y,z
1/2-x,1/2-y,z
1/2+x,-y,1/2-z
-x,1/2+y,1/2-z
-x,-y,-z
1/2+x,1/2+y,-z
1/2-x,y,1/2+z
x,1/2-y,1/2+z
loop_
_atom_site_type_symbol
_atom_site_label
_atom_site_fract_x
_atom_site_fract_y
_atom_site_fract_z
Si Si1 0.074612 0.882961 0.601851
Si Si2 0.458997 0.146925 0.598297
Si Si3 0.749044 0.583553 0.280575
Si Si4 0.750000 0.250000 0.251124
O O1 0.155089 0.746971 0.643695
O O2 0.149392 0.034850 0.629330
O O3 0.014634 0.811150 0.462119
O O4 0.996466 0.880415 0.734553
O O5 0.341491 0.120155 0.611927
O O6 0.500000 0.000000 0.500000
O O7 0.750000 0.750000 0.191314
O O8 0.756248 0.423842 0.176089
#
# Coordination Sequence:
#
# PCOD9432773 Si02
#       4
#     8   8   8   4
#     4  10  25  46  77 110 151 211 259 330 413 472
#     4  12  24  50  78 110 160 211 265 339 409 486
#     4  10  23  46  72 116 146 204 260 327 388 496
#     4   8  20  46  66 110 150 196 246 332 392 466
#
# _framework density 27.804714000000001
#
# number of rings (size 3 to 8) (size 9 to 14) (size 15 to 20)
#    1.714    0.000    2.857    0.000    4.000    4.571 
#    5.143    0.000    0.000    0.000    0.000    0.000 
#    0.000    0.000    0.000    0.000    0.000    0.000 
#
# Total GULP energy -155995.669824 kJ/mol
# GULP energy per Si atom -5571.273922 kJ/mol
# Density = 2.774143 g / cm^3
# Si number density = 27.804714 Si / 1000 Ang^3
#
#
#
# Elastic Constant Matrix: (Units=GPa)
#
#
# Indices 1 2 3 4 5 6 
#
# 1 215.8642 43.1000 64.3596 0.0000 0.0000 0.0000
# 2 43.1000 245.0627 56.6597 0.0000 0.0000 0.0000
# 3 64.3596 56.6597 99.1538 0.0000 0.0000 0.0000
# 4 0.0000 0.0000 0.0000 18.1427 0.0000 0.0000
# 5 0.0000 0.0000 0.0000 0.0000 9.5048 0.0000
# 6 0.0000 0.0000 0.0000 0.0000 0.0000 45.0120
#
#
#
# Elastic Compliance Matrix: (Units=1/GPa)
#
#
# Indices 1 2 3 4 5 6 
#
# 1 0.005750 -0.000171 -0.003635 0.000000 0.000000 0.000000
# 2 -0.000171 0.004707 -0.002579 0.000000 0.000000 0.000000
# 3 -0.003635 -0.002579 0.013918 0.000000 0.000000 0.000000
# 4 0.000000 0.000000 0.000000 0.055118 0.000000 0.000000
# 5 0.000000 0.000000 0.000000 0.000000 0.105210 0.000000
# 6 0.000000 0.000000 0.000000 0.000000 0.000000 0.022216
#
#
# Mechanical properties :
#
#
# Convention : Reuss Voigt Hill
#
# Bulk Modulus (GPa) = 86.15838 98.70214 92.43026
# Shear Modulus (GPa) = 22.36555 40.92934 31.64745
#
# Velocity S-wave (km/s) = 2.83924 3.84087 3.37739
# Velocity P-wave (km/s) = 6.46549 7.43270 6.96590
#
# Compressibility (1/GPa) = 0.01160653
#
# Stress axis : x y z
#
# Youngs Moduli (GPa) = 173.90116 212.45593 71.84830
#
# Poissons Ratio (x) = 0.03632 0.26116
# Poissons Ratio (y) = 0.02973 0.18527
# Poissons Ratio (z) = 0.63210 0.54786
#
# Static dielectric constant tensor:
#      x y z
#    x 2.105290 0.000000 0.000000 
#    y 0.000000 2.372680 0.000000 
#    z 0.000000 0.000000 1.997260 
# 
# From -- ./inp_files/11185.got.cif
#   From: 2010.05.17/outbox.cif.g08.bks.cpg/sg56_6_cif.got.tgz:11185.got - 2010.06.03 13:42:01.
