data_PCOD9432666
_publ_section_title
;
Structure prediction by ZEFSAII (Michael W. Deem and Ramdas Pophale) SiO2 
 PCOD9432666
Probable space group: P C C N
;
_chemical_formula_sum "Si O2"
_cell_formula_units_Z 48
_cell_length_a 9.815007
_cell_length_b 8.195092
_cell_length_c 27.958980
_cell_angle_alpha 90.000000
_cell_angle_beta 90.000000
_cell_angle_gamma 90.000000
_cell_volume 2248.877351
_symmetry_space_group_name_H-M "P C C N"
_symmetry_group_IT_number 56
_symmetry_cell_setting 'orthorhombic'
loop_
_space_group_symop_operation_xyz
x,y,z
1/2-x,1/2-y,z
1/2+x,-y,1/2-z
-x,1/2+y,1/2-z
-x,-y,-z
1/2+x,1/2+y,-z
1/2-x,y,1/2+z
x,1/2-y,1/2+z
loop_
_atom_site_type_symbol
_atom_site_label
_atom_site_fract_x
_atom_site_fract_y
_atom_site_fract_z
Si Si1 0.629823 0.977193 0.937926
Si Si2 0.664932 0.586347 0.262703
Si Si3 0.906490 0.428061 0.304023
Si Si4 0.250000 0.750000 0.894986
Si Si5 0.250000 0.750000 0.124710
Si Si6 0.044883 0.237060 0.644881
Si Si7 0.818838 0.576504 0.047842
O O1 0.726287 0.096811 0.908825
O O2 0.480836 0.064841 0.941041
O O3 0.604024 0.817636 0.905980
O O4 0.686156 0.942837 0.990442
O O5 0.750000 0.750000 0.251867
O O6 0.778389 0.446906 0.268084
O O7 0.547077 0.569441 0.224057
O O8 0.591356 0.611683 0.313973
O O9 0.877567 0.281253 0.340085
O O10 0.902747 0.590936 0.336088
O O11 0.383997 0.754688 0.862666
O O12 0.247005 0.583703 0.926926
O O13 0.750000 0.750000 0.061555
#
# Coordination Sequence:
#
# PCOD9432666 Si02
#       7
#     8   8   8   4   4   8   8
#     4  10  23  44  64  97 132 171 230 275 338 418
#     4  10  24  44  66  96 134 174 230 277 346 407
#     4  11  26  42  68  98 130 183 224 282 346 407
#     4  10  23  43  68 104 136 176 234 277 359 406
#     4  12  25  39  66  98 128 172 230 273 335 422
#     4  10  23  44  66  92 134 177 221 285 340 411
#     4  10  23  43  69  97 138 178 219 291 342 409
#
# _framework density 21.343985
#
# number of rings (size 3 to 8) (size 9 to 14) (size 15 to 20)
#    0.000    1.667    1.667    0.500   11.667    0.000 
#    3.000    3.333    0.000    0.000    0.000    0.000 
#    0.000    0.000    0.000    0.000    0.000    0.000 
#
# Total GULP energy -268215.877888 kJ/mol
# GULP energy per Si atom -5587.830789 kJ/mol
# Density = 2.129541 g / cm^3
# Si number density = 21.343985 Si / 1000 Ang^3
#
#
#
# Elastic Constant Matrix: (Units=GPa)
#
#
# Indices 1 2 3 4 5 6 
#
# 1 125.4513 32.8656 45.9314 0.0000 0.0000 0.0000
# 2 32.8656 101.9913 27.9904 0.0000 0.0000 0.0000
# 3 45.9314 27.9904 87.2497 0.0000 0.0000 0.0000
# 4 0.0000 0.0000 0.0000 11.7048 0.0000 0.0000
# 5 0.0000 0.0000 0.0000 0.0000 34.2499 0.0000
# 6 0.0000 0.0000 0.0000 0.0000 0.0000 28.0719
#
#
#
# Elastic Compliance Matrix: (Units=1/GPa)
#
#
# Indices 1 2 3 4 5 6 
#
# 1 0.010232 -0.001994 -0.004746 0.000000 0.000000 0.000000
# 2 -0.001994 0.011140 -0.002524 0.000000 0.000000 0.000000
# 3 -0.004746 -0.002524 0.014770 0.000000 0.000000 0.000000
# 4 0.000000 0.000000 0.000000 0.085435 0.000000 0.000000
# 5 0.000000 0.000000 0.000000 0.000000 0.029197 0.000000
# 6 0.000000 0.000000 0.000000 0.000000 0.000000 0.035623
#
#
# Mechanical properties :
#
#
# Convention : Reuss Voigt Hill
#
# Bulk Modulus (GPa) = 56.77981 58.69633 57.73807
# Shear Modulus (GPa) = 23.71958 28.66566 26.19262
#
# Velocity S-wave (km/s) = 3.33723 3.66872 3.50689
# Velocity P-wave (km/s) = 6.44279 6.74580 6.59604
#
# Compressibility (1/GPa) = 0.01761190
#
# Stress axis : x y z
#
# Youngs Moduli (GPa) = 97.73729 89.76593 67.70600
#
# Poissons Ratio (x) = 0.17903 0.32136
# Poissons Ratio (y) = 0.19493 0.17088
# Poissons Ratio (z) = 0.46390 0.22656
#
# Static dielectric constant tensor:
#      x y z
#    x 1.796670 0.000000 0.000000 
#    y 0.000000 1.800050 0.000000 
#    z 0.000000 0.000000 1.754030 
# 
# From -- ./inp_files/23295.got.cif
#   From: 2010.05.17/outbox.cif.g08.bks.cpg/sg56_12_cif.got.tgz:23295.got - 2010.06.03 13:42:01.
