data_PCOD9432919
_publ_section_title
;
Structure prediction by ZEFSAII (Michael W. Deem and Ramdas Pophale) SiO2 
 PCOD9432919
Probable space group: P C C N
;
_chemical_formula_sum "Si O2"
_cell_formula_units_Z 36
_cell_length_a 16.853206
_cell_length_b 8.618345
_cell_length_c 10.160775
_cell_angle_alpha 90.000000
_cell_angle_beta 90.000000
_cell_angle_gamma 90.000000
_cell_volume 1475.819482
_symmetry_space_group_name_H-M "P C C N"
_symmetry_group_IT_number 56
_symmetry_cell_setting 'orthorhombic'
loop_
_space_group_symop_operation_xyz
x,y,z
1/2-x,1/2-y,z
1/2+x,-y,1/2-z
-x,1/2+y,1/2-z
-x,-y,-z
1/2+x,1/2+y,-z
1/2-x,y,1/2+z
x,1/2-y,1/2+z
loop_
_atom_site_type_symbol
_atom_site_label
_atom_site_fract_x
_atom_site_fract_y
_atom_site_fract_z
Si Si1 0.770381 0.988924 0.575609
Si Si2 0.128448 0.204468 0.884441
Si Si3 0.105827 0.699900 0.768330
Si Si4 0.250000 0.750000 0.108168
Si Si5 0.458196 0.386156 0.147467
O O1 0.829150 0.111340 0.642839
O O2 0.729574 0.089694 0.463951
O O3 0.697961 0.914262 0.656024
O O4 0.825919 0.845179 0.540563
O O5 0.089240 0.281208 0.756083
O O6 0.072654 0.136236 0.998934
O O7 0.166026 0.789914 0.674421
O O8 0.046719 0.817286 0.839713
O O9 0.056316 0.561617 0.698314
#
# Coordination Sequence:
#
# PCOD9432919 Si02
#       5
#     8   8   8   4   8
#     4  10  24  43  70 101 139 187 241 291 347 427
#     4  10  24  46  75  99 141 188 243 287 356 417
#     4  11  27  43  70 105 144 187 234 293 361 420
#     4  12  24  44  68 102 142 188 236 298 344 434
#     4  11  26  46  71 108 143 188 232 298 356 422
#
# _framework density 24.393225999999999
#
# number of rings (size 3 to 8) (size 9 to 14) (size 15 to 20)
#    0.000    1.333    2.222    0.667    9.333    6.222 
#    0.000    0.000    0.000    0.000    0.000    0.000 
#    0.000    0.000    0.000    0.000    0.000    0.000 
#
# Total GULP energy -201145.714676 kJ/mol
# GULP energy per Si atom -5587.380963 kJ/mol
# Density = 2.433771 g / cm^3
# Si number density = 24.393226 Si / 1000 Ang^3
#
#
#
# Elastic Constant Matrix: (Units=GPa)
#
#
# Indices 1 2 3 4 5 6 
#
# 1 133.4275 51.8113 39.2328 0.0000 0.0000 0.0000
# 2 51.8113 97.7927 27.7539 0.0000 0.0000 0.0000
# 3 39.2328 27.7539 71.2074 0.0000 0.0000 0.0000
# 4 0.0000 0.0000 0.0000 23.8097 0.0000 0.0000
# 5 0.0000 0.0000 0.0000 0.0000 53.7631 0.0000
# 6 0.0000 0.0000 0.0000 0.0000 0.0000 65.3449
#
#
#
# Elastic Compliance Matrix: (Units=1/GPa)
#
#
# Indices 1 2 3 4 5 6 
#
# 1 0.010365 -0.004352 -0.004015 0.000000 0.000000 0.000000
# 2 -0.004352 0.013325 -0.002796 0.000000 0.000000 0.000000
# 3 -0.004015 -0.002796 0.017345 0.000000 0.000000 0.000000
# 4 0.000000 0.000000 0.000000 0.042000 0.000000 0.000000
# 5 0.000000 0.000000 0.000000 0.000000 0.018600 0.000000
# 6 0.000000 0.000000 0.000000 0.000000 0.000000 0.015303
#
#
# Mechanical properties :
#
#
# Convention : Reuss Voigt Hill
#
# Bulk Modulus (GPa) = 53.44633 60.00263 56.72448
# Shear Modulus (GPa) = 34.36434 40.82554 37.59494
#
# Velocity S-wave (km/s) = 3.75742 4.09546 3.93008
# Velocity P-wave (km/s) = 6.38609 6.85676 6.62561
#
# Compressibility (1/GPa) = 0.01871036
#
# Stress axis : x y z
#
# Youngs Moduli (GPa) = 96.47733 75.04720 57.65361
#
# Poissons Ratio (x) = 0.32662 0.23145
# Poissons Ratio (y) = 0.41989 0.16118
# Poissons Ratio (z) = 0.38731 0.20980
#
# Static dielectric constant tensor:
#      x y z
#    x 1.895730 0.000000 0.000000 
#    y 0.000000 1.964440 0.000000 
#    z 0.000000 0.000000 2.093080 
# 
# From -- ./inp_files/12554.got.cif
#   From: 2010.05.17/outbox.cif.g08.bks.cpg/sg56_7_cif.got.tgz:12554.got - 2010.06.03 13:42:01.
