data_PCOD9432351
_publ_section_title
;
Structure prediction by ZEFSAII (Michael W. Deem and Ramdas Pophale) SiO2 
 PCOD9432351
Probable space group: P C C N
;
_chemical_formula_sum "Si O2"
_cell_formula_units_Z 64
_cell_length_a 11.710457
_cell_length_b 8.910983
_cell_length_c 29.810576
_cell_angle_alpha 90.000000
_cell_angle_beta 90.000000
_cell_angle_gamma 90.000000
_cell_volume 3110.783784
_symmetry_space_group_name_H-M "P C C N"
_symmetry_group_IT_number 56
_symmetry_cell_setting 'orthorhombic'
loop_
_space_group_symop_operation_xyz
x,y,z
1/2-x,1/2-y,z
1/2+x,-y,1/2-z
-x,1/2+y,1/2-z
-x,-y,-z
1/2+x,1/2+y,-z
1/2-x,y,1/2+z
x,1/2-y,1/2+z
loop_
_atom_site_type_symbol
_atom_site_label
_atom_site_fract_x
_atom_site_fract_y
_atom_site_fract_z
Si Si1 0.308978 0.588922 0.839846
Si Si2 0.237428 0.572611 0.589641
Si Si3 0.489743 0.761012 0.279695
Si Si4 0.966756 0.130359 0.967080
Si Si5 0.129435 0.560240 0.000409
Si Si6 0.663864 0.996432 0.241064
Si Si7 0.797118 0.901413 0.073235
Si Si8 0.314917 0.093039 0.178220
O O1 0.250000 0.750000 0.847396
O O2 0.421775 0.622984 0.810907
O O3 0.222720 0.497296 0.807592
O O4 0.330974 0.512933 0.887160
O O5 0.250000 0.750000 0.595530
O O6 0.106488 0.561112 0.573814
O O7 0.309564 0.516116 0.546930
O O8 0.284842 0.496361 0.633824
O O9 0.579020 0.856653 0.250297
O O10 0.402005 0.654650 0.253420
O O11 0.556491 0.641463 0.311157
O O12 0.892683 0.259004 0.992593
O O13 0.092464 0.172445 0.950801
O O14 0.000000 0.000000 0.000000
O O15 0.210166 0.492016 0.960686
O O16 0.000000 0.500000 0.000000
O O17 0.762585 0.986775 0.278262
O O18 0.750000 0.750000 0.095313
O O19 0.250000 0.250000 0.173642
#
# Coordination Sequence:
#
# PCOD9432351 Si02
#       8
#     8   8   8   8   8   8   8   8
#     4  10  25  43  65 100 137 174 227 280 334 411
#     4  10  24  43  63  97 132 171 222 275 333 399
#     4  10  22  43  68  96 131 181 220 277 348 396
#     4  11  24  43  70  96 132 181 222 278 346 398
#     4  11  24  45  65  97 139 173 228 283 332 410
#     4  10  22  43  66  97 134 173 222 273 336 402
#     4  12  26  44  70 102 134 183 229 278 350 409
#     4  10  23  40  64  96 129 171 222 270 328 400
#
# _framework density 20.573594
#
# number of rings (size 3 to 8) (size 9 to 14) (size 15 to 20)
#    0.000    1.500    2.500    0.750    5.250    8.500 
#    0.000    0.000    0.000    0.000    0.000    0.000 
#    0.000    0.000    0.000    0.000    0.000    0.000 
#
# Total GULP energy -356819.210955 kJ/mol
# GULP energy per Si atom -5575.300171 kJ/mol
# Density = 2.052677 g / cm^3
# Si number density = 20.573594 Si / 1000 Ang^3
#
#
#
# Elastic Constant Matrix: (Units=GPa)
#
#
# Indices 1 2 3 4 5 6 
#
# 1 100.0909 32.3136 23.4525 0.0000 0.0000 0.0000
# 2 32.3136 67.3540 56.4009 0.0000 0.0000 0.0000
# 3 23.4525 56.4009 88.1335 0.0000 0.0000 0.0000
# 4 0.0000 0.0000 0.0000 30.4774 0.0000 0.0000
# 5 0.0000 0.0000 0.0000 0.0000 12.4679 0.0000
# 6 0.0000 0.0000 0.0000 0.0000 0.0000 38.3625
#
#
#
# Elastic Compliance Matrix: (Units=1/GPa)
#
#
# Indices 1 2 3 4 5 6 
#
# 1 0.011867 -0.006569 0.001046 0.000000 0.000000 0.000000
# 2 -0.006569 0.035626 -0.021051 0.000000 0.000000 0.000000
# 3 0.001046 -0.021051 0.024539 0.000000 0.000000 0.000000
# 4 0.000000 0.000000 0.000000 0.032811 0.000000 0.000000
# 5 0.000000 0.000000 0.000000 0.000000 0.080206 0.000000
# 6 0.000000 0.000000 0.000000 0.000000 0.000000 0.026067
#
#
# Mechanical properties :
#
#
# Convention : Reuss Voigt Hill
#
# Bulk Modulus (GPa) = 52.95318 53.32362 53.13840
# Shear Modulus (GPa) = 18.48027 25.82232 22.15130
#
# Velocity S-wave (km/s) = 3.00034 3.54661 3.28485
# Velocity P-wave (km/s) = 6.14793 6.53804 6.34598
#
# Compressibility (1/GPa) = 0.01888461
#
# Stress axis : x y z
#
# Youngs Moduli (GPa) = 84.27018 28.06932 40.75072
#
# Poissons Ratio (x) = 0.18439 -0.04263
# Poissons Ratio (y) = 0.55359 0.85783
# Poissons Ratio (z) = -0.08816 0.59088
#
# Static dielectric constant tensor:
#      x y z
#    x 3.430420 0.000000 0.000000 
#    y 0.000000 1.312200 0.000000 
#    z 0.000000 0.000000 1.716000 
# 
# From -- ./inp_files/23542.got.cif
#   From: 2010.05.17/outbox.cif.g08.bks.cpg/sg56_12_cif.got.tgz:23542.got - 2010.06.03 13:42:01.
