data_PCOD9432705
_publ_section_title
;
Structure prediction by ZEFSAII (Michael W. Deem and Ramdas Pophale) SiO2 
 PCOD9432705
Probable space group: P C C N
;
_chemical_formula_sum "Si O2"
_cell_formula_units_Z 40
_cell_length_a 5.258581
_cell_length_b 14.548755
_cell_length_c 23.660116
_cell_angle_alpha 90.000000
_cell_angle_beta 90.000000
_cell_angle_gamma 90.000000
_cell_volume 1810.136259
_symmetry_space_group_name_H-M "P C C N"
_symmetry_group_IT_number 56
_symmetry_cell_setting 'orthorhombic'
loop_
_space_group_symop_operation_xyz
x,y,z
1/2-x,1/2-y,z
1/2+x,-y,1/2-z
-x,1/2+y,1/2-z
-x,-y,-z
1/2+x,1/2+y,-z
1/2-x,y,1/2+z
x,1/2-y,1/2+z
loop_
_atom_site_type_symbol
_atom_site_label
_atom_site_fract_x
_atom_site_fract_y
_atom_site_fract_z
Si Si1 0.750000 0.750000 0.318470
Si Si2 0.937934 0.001305 0.596022
Si Si3 0.355936 0.541147 0.718584
Si Si4 0.064133 0.835861 0.905943
Si Si5 0.699016 0.583928 0.999306
Si Si6 0.750000 0.250000 0.752449
O O1 0.662117 0.828272 0.361368
O O2 0.504113 0.725804 0.282691
O O3 0.709255 0.070971 0.608524
O O4 0.097148 0.054758 0.547964
O O5 0.825667 0.913846 0.560894
O O6 0.085516 0.980572 0.653033
O O7 0.603706 0.507599 0.755044
O O8 0.320775 0.652094 0.720042
O O9 0.250000 0.750000 0.898192
O O10 0.957056 0.834896 0.969771
O O11 0.500000 0.500000 0.000000
#
# Coordination Sequence:
#
# PCOD9432705 Si02
#       6
#     4   8   8   8   8   4
#     4  12  24  42  70 106 148 180 248 320 350 424
#     4  10  23  44  68 105 140 192 240 300 371 452
#     4  12  29  46  79 110 148 203 250 303 381 440
#     4  11  22  36  73 108 141 184 240 312 367 426
#     4   9  21  40  70  98 141 183 237 302 373 435
#     4  12  28  48  70 110 150 198 250 308 366 450
#
# _framework density 22.097785999999999
#
# number of rings (size 3 to 8) (size 9 to 14) (size 15 to 20)
#    0.000    1.200    1.000    3.600   14.000    0.000 
#    0.000    0.000   37.400    0.000    0.000    0.000 
#    0.000    0.000    0.000    0.000    0.000    0.000 
#
# Total GULP energy -223365.158877 kJ/mol
# GULP energy per Si atom -5584.128972 kJ/mol
# Density = 2.204749 g / cm^3
# Si number density = 22.097786 Si / 1000 Ang^3
#
#
#
# Elastic Constant Matrix: (Units=GPa)
#
#
# Indices 1 2 3 4 5 6 
#
# 1 132.2193 42.9073 55.8774 0.0000 0.0000 0.0000
# 2 42.9073 112.1483 63.4197 0.0000 0.0000 0.0000
# 3 55.8774 63.4197 137.0837 0.0000 0.0000 0.0000
# 4 0.0000 0.0000 0.0000 142.7307 0.0000 0.0000
# 5 0.0000 0.0000 0.0000 0.0000 28.6329 0.0000
# 6 0.0000 0.0000 0.0000 0.0000 0.0000 41.1017
#
#
#
# Elastic Compliance Matrix: (Units=1/GPa)
#
#
# Indices 1 2 3 4 5 6 
#
# 1 0.009440 -0.001944 -0.002948 0.000000 0.000000 0.000000
# 2 -0.001944 0.012477 -0.004980 0.000000 0.000000 0.000000
# 3 -0.002948 -0.004980 0.010800 0.000000 0.000000 0.000000
# 4 0.000000 0.000000 0.000000 0.007006 0.000000 0.000000
# 5 0.000000 0.000000 0.000000 0.000000 0.034925 0.000000
# 6 0.000000 0.000000 0.000000 0.000000 0.000000 0.024330
#
#
# Mechanical properties :
#
#
# Convention : Reuss Voigt Hill
#
# Bulk Modulus (GPa) = 77.08679 78.42892 77.75786
# Shear Modulus (GPa) = 40.63484 57.10952 48.87218
#
# Velocity S-wave (km/s) = 4.29285 5.08921 4.70790
# Velocity P-wave (km/s) = 7.71567 8.37271 8.05090
#
# Compressibility (1/GPa) = 0.01297239
#
# Stress axis : x y z
#
# Youngs Moduli (GPa) = 105.92957 80.14993 92.58974
#
# Poissons Ratio (x) = 0.15585 0.27299
# Poissons Ratio (y) = 0.20598 0.46105
# Poissons Ratio (z) = 0.31232 0.39911
#
# Static dielectric constant tensor:
#      x y z
#    x 2.007550 0.000000 0.000000 
#    y 0.000000 1.841390 0.000000 
#    z 0.000000 0.000000 1.881470 
# 
# From -- ./inp_files/20002.got.cif
#   From: 2010.05.17/outbox.cif.g08.bks.cpg/sg56_11_cif.got.tgz:20002.got - 2010.06.03 13:42:01.
