data_PCOD9432906
_publ_section_title
;
Structure prediction by ZEFSAII (Michael W. Deem and Ramdas Pophale) SiO2 
 PCOD9432906
Probable space group: P C C N
;
_chemical_formula_sum "Si O2"
_cell_formula_units_Z 40
_cell_length_a 9.928928
_cell_length_b 9.451463
_cell_length_c 19.890007
_cell_angle_alpha 90.000000
_cell_angle_beta 90.000000
_cell_angle_gamma 90.000000
_cell_volume 1866.535851
_symmetry_space_group_name_H-M "P C C N"
_symmetry_group_IT_number 56
_symmetry_cell_setting 'orthorhombic'
loop_
_space_group_symop_operation_xyz
x,y,z
1/2-x,1/2-y,z
1/2+x,-y,1/2-z
-x,1/2+y,1/2-z
-x,-y,-z
1/2+x,1/2+y,-z
1/2-x,y,1/2+z
x,1/2-y,1/2+z
loop_
_atom_site_type_symbol
_atom_site_label
_atom_site_fract_x
_atom_site_fract_y
_atom_site_fract_z
Si Si1 0.750000 0.750000 0.410660
Si Si2 0.496863 0.892453 0.440040
Si Si3 0.900808 0.804239 0.689491
Si Si4 0.344042 0.558497 0.621198
Si Si5 0.250000 0.750000 0.998950
Si Si6 0.083664 0.958587 0.197469
O O1 0.628385 0.802799 0.453806
O O2 0.681689 0.612255 0.375242
O O3 0.366710 0.800203 0.450051
O O4 0.517598 0.965499 0.368045
O O5 0.500000 0.000000 0.500000
O O6 0.750000 0.750000 0.668477
O O7 0.889686 0.923251 0.746819
O O8 0.008116 0.878622 0.637684
O O9 0.982032 0.666879 0.716549
O O10 0.299108 0.624812 0.549388
O O11 0.226932 0.602760 0.673485
#
# Coordination Sequence:
#
# PCOD9432906 Si02
#       6
#     4   8   8   8   4   8
#     4  10  24  42  78 100 138 188 244 288 374 424
#     4  11  23  46  70 102 142 189 239 301 364 439
#     4  12  26  44  75 110 145 193 250 301 367 444
#     4  11  23  48  72 100 147 197 232 308 365 432
#     4  12  22  48  74  98 146 196 236 304 366 430
#     4  11  25  46  73 104 153 190 243 304 373 436
#
# _framework density 21.430074000000001
#
# number of rings (size 3 to 8) (size 9 to 14) (size 15 to 20)
#    0.000    0.800    6.000    1.200   11.200    2.400 
#   10.800    0.000    0.000    0.000    0.000    0.000 
#    0.000    0.000    0.000    0.000    0.000    0.000 
#
# Total GULP energy -222972.985651 kJ/mol
# GULP energy per Si atom -5574.324641 kJ/mol
# Density = 2.138130 g / cm^3
# Si number density = 21.430074 Si / 1000 Ang^3
#
#
#
# Elastic Constant Matrix: (Units=GPa)
#
#
# Indices 1 2 3 4 5 6 
#
# 1 194.7945 78.7265 31.8546 0.0000 0.0000 0.0000
# 2 78.7265 134.7104 18.7697 0.0000 0.0000 0.0000
# 3 31.8546 18.7697 42.5672 0.0000 0.0000 0.0000
# 4 0.0000 0.0000 0.0000 21.3513 0.0000 0.0000
# 5 0.0000 0.0000 0.0000 0.0000 25.1532 0.0000
# 6 0.0000 0.0000 0.0000 0.0000 0.0000 52.8199
#
#
#
# Elastic Compliance Matrix: (Units=1/GPa)
#
#
# Indices 1 2 3 4 5 6 
#
# 1 0.007253 -0.003711 -0.003792 0.000000 0.000000 0.000000
# 2 -0.003711 0.009808 -0.001548 0.000000 0.000000 0.000000
# 3 -0.003792 -0.001548 0.027012 0.000000 0.000000 0.000000
# 4 0.000000 0.000000 0.000000 0.046836 0.000000 0.000000
# 5 0.000000 0.000000 0.000000 0.000000 0.039756 0.000000
# 6 0.000000 0.000000 0.000000 0.000000 0.000000 0.018932
#
#
# Mechanical properties :
#
#
# Convention : Reuss Voigt Hill
#
# Bulk Modulus (GPa) = 38.50177 70.08597 54.29387
# Shear Modulus (GPa) = 28.35188 36.04630 32.19909
#
# Velocity S-wave (km/s) = 3.64125 4.10572 3.88044
# Velocity P-wave (km/s) = 5.97356 7.43313 6.74295
#
# Compressibility (1/GPa) = 0.02597283
#
# Stress axis : x y z
#
# Youngs Moduli (GPa) = 137.86770 101.96256 37.02019
#
# Poissons Ratio (x) = 0.37834 0.14037
# Poissons Ratio (y) = 0.51157 0.05730
# Poissons Ratio (z) = 0.52276 0.15781
#
# Static dielectric constant tensor:
#      x y z
#    x 1.767900 0.000000 0.000000 
#    y 0.000000 2.012750 0.000000 
#    z 0.000000 0.000000 1.796500 
# 
# From -- ./inp_files/20362.got.cif
#   From: 2010.05.17/outbox.cif.g08.bks.cpg/sg56_11_cif.got.tgz:20362.got - 2010.06.03 13:42:01.
