data_PCOD9432090
_publ_section_title
;
Structure prediction by ZEFSAII (Michael W. Deem and Ramdas Pophale) SiO2 
 PCOD9432090
Probable space group: P C C N
;
_chemical_formula_sum "Si O2"
_cell_formula_units_Z 48
_cell_length_a 5.121083
_cell_length_b 17.488047
_cell_length_c 24.559179
_cell_angle_alpha 90.000000
_cell_angle_beta 90.000000
_cell_angle_gamma 90.000000
_cell_volume 2199.464572
_symmetry_space_group_name_H-M "P C C N"
_symmetry_group_IT_number 56
_symmetry_cell_setting 'orthorhombic'
loop_
_space_group_symop_operation_xyz
x,y,z
1/2-x,1/2-y,z
1/2+x,-y,1/2-z
-x,1/2+y,1/2-z
-x,-y,-z
1/2+x,1/2+y,-z
1/2-x,y,1/2+z
x,1/2-y,1/2+z
loop_
_atom_site_type_symbol
_atom_site_label
_atom_site_fract_x
_atom_site_fract_y
_atom_site_fract_z
Si Si1 0.682123 0.338770 0.512431
Si Si2 0.996504 0.452607 0.377595
Si Si3 0.341211 0.061022 0.538269
Si Si4 0.641770 0.462262 0.222533
Si Si5 0.876846 0.831949 0.591141
Si Si6 0.328122 0.662961 0.697704
O O1 0.750000 0.250000 0.523951
O O2 0.420919 0.388393 0.528258
O O3 0.633955 0.339883 0.446331
O O4 0.925645 0.378489 0.541151
O O5 0.151246 0.513387 0.340027
O O6 0.184170 0.403305 0.416833
O O7 0.794014 0.505759 0.409953
O O8 0.867343 0.391170 0.336868
O O9 0.500000 0.000000 0.500000
O O10 0.376844 0.494965 0.247875
O O11 0.643407 0.375478 0.243486
O O12 0.750000 0.750000 0.576738
O O13 0.931394 0.834843 0.655559
O O14 0.250000 0.750000 0.702916
#
# Coordination Sequence:
#
# PCOD9432090 Si02
#       6
#     8   8   8   8   8   8
#     4  12  27  45  66  94 138 182 227 280 346 411
#     4  11  24  40  65  99 137 174 230 281 343 405
#     4  12  25  43  67  99 134 181 230 286 339 408
#     4  10  22  40  63  92 134 174 212 270 340 409
#     4  12  22  38  66 100 135 170 219 288 350 398
#     4  11  22  39  65  99 134 170 217 280 348 408
#
# _framework density 21.823495000000001
#
# number of rings (size 3 to 8) (size 9 to 14) (size 15 to 20)
#    0.000    0.667    5.000    3.500    2.333    0.000 
#    0.000    0.833    0.000   10.000    0.000    0.000 
#    0.000    0.000    0.000    0.000    0.000    0.000 
#
# Total GULP energy -267321.940009 kJ/mol
# GULP energy per Si atom -5569.207084 kJ/mol
# Density = 2.177382 g / cm^3
# Si number density = 21.823495 Si / 1000 Ang^3
#
#
#
# Elastic Constant Matrix: (Units=GPa)
#
#
# Indices 1 2 3 4 5 6 
#
# 1 106.5527 44.3748 7.3445 0.0000 0.0000 0.0000
# 2 44.3748 198.8912 55.2415 0.0000 0.0000 0.0000
# 3 7.3445 55.2415 32.7971 0.0000 0.0000 0.0000
# 4 0.0000 0.0000 0.0000 31.7012 0.0000 0.0000
# 5 0.0000 0.0000 0.0000 0.0000 25.3515 0.0000
# 6 0.0000 0.0000 0.0000 0.0000 0.0000 39.1026
#
#
#
# Elastic Compliance Matrix: (Units=1/GPa)
#
#
# Indices 1 2 3 4 5 6 
#
# 1 0.010501 -0.003175 0.002996 0.000000 0.000000 0.000000
# 2 -0.003175 0.010408 -0.016819 0.000000 0.000000 0.000000
# 3 0.002996 -0.016819 0.058149 0.000000 0.000000 0.000000
# 4 0.000000 0.000000 0.000000 0.031545 0.000000 0.000000
# 5 0.000000 0.000000 0.000000 0.000000 0.039445 0.000000
# 6 0.000000 0.000000 0.000000 0.000000 0.000000 0.025574
#
#
# Mechanical properties :
#
#
# Convention : Reuss Voigt Hill
#
# Bulk Modulus (GPa) = 22.19185 61.35138 41.77161
# Shear Modulus (GPa) = 22.25810 34.64974 28.45392
#
# Velocity S-wave (km/s) = 3.19707 3.98895 3.61476
# Velocity P-wave (km/s) = 4.88050 7.02775 6.05014
#
# Compressibility (1/GPa) = 0.04506160
#
# Stress axis : x y z
#
# Youngs Moduli (GPa) = 95.23102 96.08216 17.19725
#
# Poissons Ratio (x) = 0.30507 -0.05153
# Poissons Ratio (y) = 0.30237 0.28924
# Poissons Ratio (z) = -0.28535 1.61603
#
# Static dielectric constant tensor:
#      x y z
#    x 1.854740 0.000000 0.000000 
#    y 0.000000 1.855550 0.000000 
#    z 0.000000 0.000000 1.897880 
# 
# From -- ./inp_files/21674.got.cif
#   From: 2010.05.17/outbox.cif.g08.bks.cpg/sg56_11_cif.got.tgz:21674.got - 2010.06.03 13:42:01.
