data_PCOD9432596
_publ_section_title
;
Structure prediction by ZEFSAII (Michael W. Deem and Ramdas Pophale) SiO2 
 PCOD9432596
Probable space group: P C C N
;
_chemical_formula_sum "Si O2"
_cell_formula_units_Z 64
_cell_length_a 10.007297
_cell_length_b 11.307131
_cell_length_c 24.722305
_cell_angle_alpha 90.000000
_cell_angle_beta 90.000000
_cell_angle_gamma 90.000000
_cell_volume 2797.423204
_symmetry_space_group_name_H-M "P C C N"
_symmetry_group_IT_number 56
_symmetry_cell_setting 'orthorhombic'
loop_
_space_group_symop_operation_xyz
x,y,z
1/2-x,1/2-y,z
1/2+x,-y,1/2-z
-x,1/2+y,1/2-z
-x,-y,-z
1/2+x,1/2+y,-z
1/2-x,y,1/2+z
x,1/2-y,1/2+z
loop_
_atom_site_type_symbol
_atom_site_label
_atom_site_fract_x
_atom_site_fract_y
_atom_site_fract_z
Si Si1 0.250130 0.479200 0.848605
Si Si2 0.951748 0.191656 0.974725
Si Si3 0.646250 0.647519 0.248043
Si Si4 0.827154 0.062996 0.457261
Si Si5 0.738188 0.619883 0.045819
Si Si6 0.250269 0.391806 0.633278
Si Si7 0.461273 0.646884 0.898040
Si Si8 0.610822 0.184291 0.195455
O O1 0.351763 0.437832 0.802744
O O2 0.207948 0.384125 0.892926
O O3 0.326383 0.575459 0.885304
O O4 0.135926 0.546688 0.816059
O O5 0.815237 0.130514 0.955820
O O6 0.935719 0.331557 0.961092
O O7 0.076175 0.116825 0.951577
O O8 0.964998 0.180213 0.039491
O O9 0.750000 0.750000 0.233806
O O10 0.701411 0.594567 0.304850
O O11 0.500959 0.699206 0.259649
O O12 0.809211 0.978622 0.509640
O O13 0.835780 0.973715 0.406758
O O14 0.750000 0.750000 0.020088
O O15 0.250000 0.250000 0.621344
O O16 0.094432 0.419963 0.621751
O O17 0.447076 0.760383 0.859472
O O18 0.750000 0.250000 0.208148
#
# Coordination Sequence:
#
# PCOD9432596 Si02
#       8
#     8   8   8   8   8   8   8   8
#     4  11  25  40  69  94 135 179 229 283 343 408
#     4  11  24  41  67  96 136 177 225 278 350 414
#     4  11  24  45  68  96 137 181 229 288 350 404
#     4  11  23  41  66 100 130 178 225 280 340 419
#     4  12  24  41  61  99 138 175 219 283 352 410
#     4  11  22  41  69  97 133 178 225 284 348 410
#     4  11  20  42  68  92 130 178 232 276 339 423
#     4  10  23  41  68 101 123 175 238 281 335 416
#
# _framework density 22.878197
#
# number of rings (size 3 to 8) (size 9 to 14) (size 15 to 20)
#    0.000    1.000    5.000    2.625    5.250    1.500 
#    0.000    2.500    2.750    0.000    0.000    0.000 
#    0.000    0.000    0.000    0.000    0.000    0.000 
#
# Total GULP energy -357663.608392 kJ/mol
# GULP energy per Si atom -5588.493881 kJ/mol
# Density = 2.282613 g / cm^3
# Si number density = 22.878197 Si / 1000 Ang^3
#
#
#
# Elastic Constant Matrix: (Units=GPa)
#
#
# Indices 1 2 3 4 5 6 
#
# 1 71.9412 1.0527 0.9010 0.0000 0.0000 0.0000
# 2 1.0527 87.6095 33.8303 0.0000 0.0000 0.0000
# 3 0.9010 33.8303 98.5646 0.0000 0.0000 0.0000
# 4 0.0000 0.0000 0.0000 16.5773 0.0000 0.0000
# 5 0.0000 0.0000 0.0000 0.0000 1.2930 0.0000
# 6 0.0000 0.0000 0.0000 0.0000 0.0000 27.8381
#
#
#
# Elastic Compliance Matrix: (Units=1/GPa)
#
#
# Indices 1 2 3 4 5 6 
#
# 1 0.013903 -0.000136 -0.000080 0.000000 0.000000 0.000000
# 2 -0.000136 0.013160 -0.004516 0.000000 0.000000 0.000000
# 3 -0.000080 -0.004516 0.011696 0.000000 0.000000 0.000000
# 4 0.000000 0.000000 0.000000 0.060324 0.000000 0.000000
# 5 0.000000 0.000000 0.000000 0.000000 0.773376 0.000000
# 6 0.000000 0.000000 0.000000 0.000000 0.000000 0.035922
#
#
# Mechanical properties :
#
#
# Convention : Reuss Voigt Hill
#
# Bulk Modulus (GPa) = 34.13532 36.63148 35.38340
# Shear Modulus (GPa) = 5.39020 23.96376 14.67698
#
# Velocity S-wave (km/s) = 1.53661 3.23994 2.53559
# Velocity P-wave (km/s) = 4.25453 5.48111 4.90631
#
# Compressibility (1/GPa) = 0.02929517
#
# Stress axis : x y z
#
# Youngs Moduli (GPa) = 71.92573 75.99023 85.49766
#
# Poissons Ratio (x) = 0.01034 0.00687
# Poissons Ratio (y) = 0.00978 0.38607
# Poissons Ratio (z) = 0.00578 0.34314
#
# Static dielectric constant tensor:
#      x y z
#    x 1.954150 0.000000 0.000000 
#    y 0.000000 1.986130 0.000000 
#    z 0.000000 0.000000 1.812550 
# 
# From -- ./inp_files/21013.got.cif
#   From: 2010.05.17/outbox.cif.g08.bks.cpg/sg56_11_cif.got.tgz:21013.got - 2010.06.03 13:42:01.
