data_PCOD9432616
_publ_section_title
;
Structure prediction by ZEFSAII (Michael W. Deem and Ramdas Pophale) SiO2 
 PCOD9432616
Probable space group: P C C N
;
_chemical_formula_sum "Si O2"
_cell_formula_units_Z 48
_cell_length_a 8.527797
_cell_length_b 9.816737
_cell_length_c 26.783906
_cell_angle_alpha 90.000000
_cell_angle_beta 90.000000
_cell_angle_gamma 90.000000
_cell_volume 2242.218450
_symmetry_space_group_name_H-M "P C C N"
_symmetry_group_IT_number 56
_symmetry_cell_setting 'orthorhombic'
loop_
_space_group_symop_operation_xyz
x,y,z
1/2-x,1/2-y,z
1/2+x,-y,1/2-z
-x,1/2+y,1/2-z
-x,-y,-z
1/2+x,1/2+y,-z
1/2-x,y,1/2+z
x,1/2-y,1/2+z
loop_
_atom_site_type_symbol
_atom_site_label
_atom_site_fract_x
_atom_site_fract_y
_atom_site_fract_z
Si Si1 0.925160 0.785876 0.893599
Si Si2 0.560183 0.532894 0.054255
Si Si3 0.933960 0.713976 0.121927
Si Si4 0.423985 0.536084 0.446229
Si Si5 0.354444 0.368331 0.215080
Si Si6 0.360114 0.633197 0.714180
O O1 0.750000 0.750000 0.910295
O O2 0.922162 0.789638 0.833710
O O3 0.969926 0.937121 0.907841
O O4 0.034634 0.683884 0.924537
O O5 0.537270 0.682569 0.076104
O O6 0.740266 0.490929 0.051326
O O7 0.500000 0.500000 0.000000
O O8 0.750000 0.750000 0.135366
O O9 0.969720 0.567838 0.097599
O O10 0.052173 0.711808 0.168471
O O11 0.500000 0.500000 0.500000
O O12 0.250000 0.250000 0.240773
O O13 0.499516 0.411697 0.249293
O O14 0.246025 0.499698 0.202211
O O15 0.250000 0.750000 0.737917
#
# Coordination Sequence:
#
# PCOD9432616 Si02
#       6
#     8   8   8   8   8   8
#     4  11  23  41  62  90 128 169 217 267 320 386
#     4  11  23  40  64  95 129 169 214 267 326 386
#     4  10  23  42  65  94 130 169 217 269 323 387
#     4  11  23  40  64  94 128 170 214 268 327 386
#     4  11  25  44  67  98 132 173 218 272 330 393
#     4  12  25  43  68  97 130 174 219 271 333 394
#
# _framework density 21.407371000000001
#
# number of rings (size 3 to 8) (size 9 to 14) (size 15 to 20)
#    0.000    1.000    0.000    7.000    0.000    6.667 
#    0.000    0.000    0.000    0.000    0.000    0.000 
#    0.000    0.000    0.000    0.000    0.000    0.000 
#
# Total GULP energy -267873.517788 kJ/mol
# GULP energy per Si atom -5580.698287 kJ/mol
# Density = 2.135865 g / cm^3
# Si number density = 21.407371 Si / 1000 Ang^3
#
#
#
# Elastic Constant Matrix: (Units=GPa)
#
#
# Indices 1 2 3 4 5 6 
#
# 1 53.3246 -6.0834 27.0953 0.0000 0.0000 0.0000
# 2 -6.0834 51.3630 -8.5923 0.0000 0.0000 0.0000
# 3 27.0953 -8.5923 74.7496 0.0000 0.0000 0.0000
# 4 0.0000 0.0000 0.0000 38.3040 0.0000 0.0000
# 5 0.0000 0.0000 0.0000 0.0000 54.5745 0.0000
# 6 0.0000 0.0000 0.0000 0.0000 0.0000 38.8263
#
#
#
# Elastic Compliance Matrix: (Units=1/GPa)
#
#
# Indices 1 2 3 4 5 6 
#
# 1 0.023080 0.001360 -0.008210 0.000000 0.000000 0.000000
# 2 0.001360 0.019931 0.001798 0.000000 0.000000 0.000000
# 3 -0.008210 0.001798 0.016560 0.000000 0.000000 0.000000
# 4 0.000000 0.000000 0.000000 0.026107 0.000000 0.000000
# 5 0.000000 0.000000 0.000000 0.000000 0.018324 0.000000
# 6 0.000000 0.000000 0.000000 0.000000 0.000000 0.025756
#
#
# Mechanical properties :
#
#
# Convention : Reuss Voigt Hill
#
# Bulk Modulus (GPa) = 20.21485 22.69737 21.45611
# Shear Modulus (GPa) = 31.97957 37.47547 34.72752
#
# Velocity S-wave (km/s) = 3.86924 4.18854 4.03205
# Velocity P-wave (km/s) = 5.42446 5.83245 5.63215
#
# Compressibility (1/GPa) = 0.04946857
#
# Stress axis : x y z
#
# Youngs Moduli (GPa) = 43.32815 50.17268 60.38475
#
# Poissons Ratio (x) = -0.06825 0.49573
# Poissons Ratio (y) = -0.05894 -0.10857
# Poissons Ratio (z) = 0.35571 -0.09021
#
# Static dielectric constant tensor:
#      x y z
#    x 1.707380 0.000000 0.000000 
#    y 0.000000 1.742880 0.000000 
#    z 0.000000 0.000000 1.873410 
# 
# From -- ./inp_files/23248.got.cif
#   From: 2010.05.17/outbox.cif.g08.bks.cpg/sg56_12_cif.got.tgz:23248.got - 2010.06.03 13:42:01.
