data_PCOD9432055
_publ_section_title
;
Structure prediction by ZEFSAII (Michael W. Deem and Ramdas Pophale) SiO2 
 PCOD9432055
Probable space group: P C C N
;
_chemical_formula_sum "Si O2"
_cell_formula_units_Z 64
_cell_length_a 9.021818
_cell_length_b 22.415520
_cell_length_c 14.611410
_cell_angle_alpha 90.000000
_cell_angle_beta 90.000000
_cell_angle_gamma 90.000000
_cell_volume 2954.847060
_symmetry_space_group_name_H-M "P C C N"
_symmetry_group_IT_number 56
_symmetry_cell_setting 'orthorhombic'
loop_
_space_group_symop_operation_xyz
x,y,z
1/2-x,1/2-y,z
1/2+x,-y,1/2-z
-x,1/2+y,1/2-z
-x,-y,-z
1/2+x,1/2+y,-z
1/2-x,y,1/2+z
x,1/2-y,1/2+z
loop_
_atom_site_type_symbol
_atom_site_label
_atom_site_fract_x
_atom_site_fract_y
_atom_site_fract_z
Si Si1 0.895123 0.711512 0.088339
Si Si2 0.334741 0.015686 0.035541
Si Si3 0.906775 0.437254 0.738394
Si Si4 0.901189 0.604000 0.792935
Si Si5 0.626676 0.474998 0.823672
Si Si6 0.379115 0.798905 0.254115
Si Si7 0.325610 0.416659 0.365283
Si Si8 0.079445 0.268144 0.116994
O O1 0.750000 0.750000 0.113589
O O2 0.847853 0.643335 0.077188
O O3 0.019614 0.711945 0.165238
O O4 0.953848 0.730374 0.990109
O O5 0.362450 0.064239 0.117184
O O6 0.221443 0.968439 0.083039
O O7 0.260280 0.039307 0.941433
O O8 0.500000 0.000000 0.000000
O O9 0.763148 0.478771 0.750784
O O10 0.849013 0.369530 0.734465
O O11 0.019235 0.467599 0.666806
O O12 0.015272 0.438707 0.827171
O O13 0.761520 0.605900 0.724424
O O14 0.944370 0.669011 0.830972
O O15 0.024578 0.574620 0.725468
O O16 0.250000 0.750000 0.251285
O O17 0.480193 0.782087 0.339069
O O18 0.250000 0.250000 0.127647
#
# Coordination Sequence:
#
# PCOD9432055 Si02
#       8
#     8   8   8   8   8   8   8   8
#     4  10  22  39  68  97 130 181 241 291 349 432
#     4  12  24  41  68 100 139 185 234 294 361 426
#     4  11  22  40  66  96 135 186 233 289 356 420
#     4  12  24  43  70 102 141 189 236 299 363 429
#     4  12  23  41  68  99 137 185 240 292 352 428
#     4  11  24  42  64  99 144 183 228 298 366 428
#     4  11  21  41  65  96 136 182 235 291 356 424
#     4  11  23  42  70 102 135 186 241 294 359 436
#
# _framework density 21.659327999999999
#
# number of rings (size 3 to 8) (size 9 to 14) (size 15 to 20)
#    0.000    0.750    5.000    3.375    0.000    1.000 
#    0.000    0.000    0.000    1.500    0.000    0.000 
#    0.000    0.000    0.000    0.000    0.000    0.000 
#
# Total GULP energy -356828.308023 kJ/mol
# GULP energy per Si atom -5575.442313 kJ/mol
# Density = 2.161003 g / cm^3
# Si number density = 21.659328 Si / 1000 Ang^3
#
#
#
# Elastic Constant Matrix: (Units=GPa)
#
#
# Indices 1 2 3 4 5 6 
#
# 1 73.7562 9.8456 13.0894 0.0000 0.0000 0.0000
# 2 9.8456 55.9086 14.4259 0.0000 0.0000 0.0000
# 3 13.0894 14.4259 93.1478 0.0000 0.0000 0.0000
# 4 0.0000 0.0000 0.0000 33.1457 0.0000 0.0000
# 5 0.0000 0.0000 0.0000 0.0000 20.6712 0.0000
# 6 0.0000 0.0000 0.0000 0.0000 0.0000 41.3071
#
#
#
# Elastic Compliance Matrix: (Units=1/GPa)
#
#
# Indices 1 2 3 4 5 6 
#
# 1 0.014129 -0.002058 -0.001667 0.000000 0.000000 0.000000
# 2 -0.002058 0.018931 -0.002643 0.000000 0.000000 0.000000
# 3 -0.001667 -0.002643 0.011379 0.000000 0.000000 0.000000
# 4 0.000000 0.000000 0.000000 0.030170 0.000000 0.000000
# 5 0.000000 0.000000 0.000000 0.000000 0.048376 0.000000
# 6 0.000000 0.000000 0.000000 0.000000 0.000000 0.024209
#
#
# Mechanical properties :
#
#
# Convention : Reuss Voigt Hill
#
# Bulk Modulus (GPa) = 31.54198 33.05937 32.30068
# Shear Modulus (GPa) = 29.32619 31.38826 30.35722
#
# Velocity S-wave (km/s) = 3.68363 3.81094 3.74783
# Velocity P-wave (km/s) = 5.71722 5.88734 5.80290
#
# Compressibility (1/GPa) = 0.03170378
#
# Stress axis : x y z
#
# Youngs Moduli (GPa) = 70.77794 52.82451 87.88052
#
# Poissons Ratio (x) = 0.10872 0.14647
# Poissons Ratio (y) = 0.14566 0.23223
# Poissons Ratio (z) = 0.11796 0.13959
#
# Static dielectric constant tensor:
#      x y z
#    x 1.787750 0.000000 0.000000 
#    y 0.000000 1.862730 0.000000 
#    z 0.000000 0.000000 1.792700 
# 
# From -- ./inp_files/11034.got.cif
#   From: 2010.05.17/outbox.cif.g08.bks.cpg/sg56_6_cif.got.tgz:11034.got - 2010.06.03 13:42:01.
