data_PCOD9432508
_publ_section_title
;
Structure prediction by ZEFSAII (Michael W. Deem and Ramdas Pophale) SiO2 
 PCOD9432508
Probable space group: P C C N
;
_chemical_formula_sum "Si O2"
_cell_formula_units_Z 44
_cell_length_a 10.290100
_cell_length_b 17.576793
_cell_length_c 10.209937
_cell_angle_alpha 90.000000
_cell_angle_beta 90.000000
_cell_angle_gamma 90.000000
_cell_volume 1846.640243
_symmetry_space_group_name_H-M "P C C N"
_symmetry_group_IT_number 56
_symmetry_cell_setting 'orthorhombic'
loop_
_space_group_symop_operation_xyz
x,y,z
1/2-x,1/2-y,z
1/2+x,-y,1/2-z
-x,1/2+y,1/2-z
-x,-y,-z
1/2+x,1/2+y,-z
1/2-x,y,1/2+z
x,1/2-y,1/2+z
loop_
_atom_site_type_symbol
_atom_site_label
_atom_site_fract_x
_atom_site_fract_y
_atom_site_fract_z
Si Si1 0.978284 0.716258 0.954741
Si Si2 0.313294 0.583798 0.992537
Si Si3 0.073906 0.453634 0.656150
Si Si4 0.250000 0.750000 0.010148
Si Si5 0.134162 0.302537 0.774225
Si Si6 0.535235 0.055614 0.117136
O O1 0.124652 0.737842 0.921715
O O2 0.954933 0.632183 0.902112
O O3 0.891544 0.771883 0.871315
O O4 0.971380 0.713036 0.112175
O O5 0.456858 0.586041 0.925605
O O6 0.281156 0.664388 0.067957
O O7 0.189844 0.573389 0.896597
O O8 0.326408 0.505284 0.074183
O O9 0.142728 0.392382 0.750701
O O10 0.004507 0.515444 0.747803
O O11 0.250000 0.250000 0.825844
O O12 0.500000 0.000000 0.000000
#
# Coordination Sequence:
#
# PCOD9432508 Si02
#       6
#     8   8   8   4   8   8
#     4  11  26  46  71 107 139 192 238 306 366 436
#     4  10  25  45  74 104 145 188 239 308 358 438
#     4  11  25  47  71 108 141 192 244 297 370 438
#     4  10  22  48  72 104 140 190 246 308 360 438
#     4  12  27  45  71 102 151 191 242 297 369 447
#     4  11  25  43  71 104 140 183 237 296 363 435
#
# _framework density 23.827055000000001
#
# number of rings (size 3 to 8) (size 9 to 14) (size 15 to 20)
#    0.000    1.091    3.636    0.545    7.636    2.182 
#    0.000    0.000    0.000    0.000    0.000    0.000 
#    0.000    0.000    0.000    0.000    0.000    0.000 
#
# Total GULP energy -245278.748987 kJ/mol
# GULP energy per Si atom -5574.517022 kJ/mol
# Density = 2.377282 g / cm^3
# Si number density = 23.827055 Si / 1000 Ang^3
#
#
#
# Elastic Constant Matrix: (Units=GPa)
#
#
# Indices 1 2 3 4 5 6 
#
# 1 67.2690 22.3197 1.9253 0.0000 0.0000 0.0000
# 2 22.3197 123.5945 16.1090 0.0000 0.0000 0.0000
# 3 1.9253 16.1090 67.1204 0.0000 0.0000 0.0000
# 4 0.0000 0.0000 0.0000 28.0369 0.0000 0.0000
# 5 0.0000 0.0000 0.0000 0.0000 11.4384 0.0000
# 6 0.0000 0.0000 0.0000 0.0000 0.0000 37.3889
#
#
#
# Elastic Compliance Matrix: (Units=1/GPa)
#
#
# Indices 1 2 3 4 5 6 
#
# 1 0.015817 -0.002888 0.000239 0.000000 0.000000 0.000000
# 2 -0.002888 0.008879 -0.002048 0.000000 0.000000 0.000000
# 3 0.000239 -0.002048 0.015383 0.000000 0.000000 0.000000
# 4 0.000000 0.000000 0.000000 0.035667 0.000000 0.000000
# 5 0.000000 0.000000 0.000000 0.000000 0.087425 0.000000
# 6 0.000000 0.000000 0.000000 0.000000 0.000000 0.026746
#
#
# Mechanical properties :
#
#
# Convention : Reuss Voigt Hill
#
# Bulk Modulus (GPa) = 32.58740 37.63243 35.10992
# Shear Modulus (GPa) = 23.86188 29.88151 26.87170
#
# Velocity S-wave (km/s) = 3.16802 3.54517 3.36189
# Velocity P-wave (km/s) = 5.20463 5.70841 5.46233
#
# Compressibility (1/GPa) = 0.03068671
#
# Stress axis : x y z
#
# Youngs Moduli (GPa) = 63.22350 112.62035 65.00549
#
# Poissons Ratio (x) = 0.32520 -0.01556
# Poissons Ratio (y) = 0.18256 0.13315
# Poissons Ratio (z) = -0.01513 0.23067
#
# Static dielectric constant tensor:
#      x y z
#    x 1.915380 0.000000 0.000000 
#    y 0.000000 2.061080 0.000000 
#    z 0.000000 0.000000 1.905600 
# 
# From -- ./inp_files/7088.got.cif
#   From: 2010.05.17/outbox.cif.g08.bks.cpg/sg56_4_cif.got.tgz:7088.got - 2010.06.03 13:42:01.
