data_PCOD9432156
_publ_section_title
;
Structure prediction by ZEFSAII (Michael W. Deem and Ramdas Pophale) SiO2 
 PCOD9432156
Probable space group: P C C N
;
_chemical_formula_sum "Si O2"
_cell_formula_units_Z 40
_cell_length_a 10.539053
_cell_length_b 18.361959
_cell_length_c 9.019732
_cell_angle_alpha 90.000000
_cell_angle_beta 90.000000
_cell_angle_gamma 90.000000
_cell_volume 1745.477422
_symmetry_space_group_name_H-M "P C C N"
_symmetry_group_IT_number 56
_symmetry_cell_setting 'orthorhombic'
loop_
_space_group_symop_operation_xyz
x,y,z
1/2-x,1/2-y,z
1/2+x,-y,1/2-z
-x,1/2+y,1/2-z
-x,-y,-z
1/2+x,1/2+y,-z
1/2-x,y,1/2+z
x,1/2-y,1/2+z
loop_
_atom_site_type_symbol
_atom_site_label
_atom_site_fract_x
_atom_site_fract_y
_atom_site_fract_z
Si Si1 0.532950 0.602142 0.898204
Si Si2 0.987838 0.338798 0.060469
Si Si3 0.740825 0.166664 0.695581
Si Si4 0.051367 0.557139 0.714315
Si Si5 0.383641 0.277601 0.270804
O O1 0.397786 0.638036 0.849038
O O2 0.561102 0.528572 0.808572
O O3 0.635669 0.662155 0.856604
O O4 0.526442 0.584144 0.071142
O O5 0.047627 0.315646 0.907894
O O6 0.010398 0.418512 0.129797
O O7 0.036586 0.285690 0.191675
O O8 0.835972 0.329455 0.053202
O O9 0.750000 0.250000 0.754129
O O10 0.816857 0.103358 0.785254
O O11 0.250000 0.250000 0.324185
#
# Coordination Sequence:
#
# PCOD9432156 Si02
#       5
#     8   8   8   8   8
#     4  11  22  44  71 102 142 179 234 292 358 421
#     4  10  24  42  66 104 130 179 239 276 357 405
#     4  10  22  40  74  98 134 174 233 292 339 416
#     4   9  24  42  67 106 135 180 228 290 359 416
#     4  12  25  43  69  99 143 187 230 292 343 427
#
# _framework density 22.916367000000001
#
# number of rings (size 3 to 8) (size 9 to 14) (size 15 to 20)
#    1.200    0.400    2.000    1.800    2.800    3.200 
#    0.000    5.000    0.000    0.000    0.000    0.000 
#    0.000    0.000    0.000    0.000    0.000    0.000 
#
# Total GULP energy -223184.111748 kJ/mol
# GULP energy per Si atom -5579.602794 kJ/mol
# Density = 2.286421 g / cm^3
# Si number density = 22.916367 Si / 1000 Ang^3
#
#
#
# Elastic Constant Matrix: (Units=GPa)
#
#
# Indices 1 2 3 4 5 6 
#
# 1 65.6755 21.8479 25.1028 0.0000 0.0000 0.0000
# 2 21.8479 111.3841 -3.9982 0.0000 0.0000 0.0000
# 3 25.1028 -3.9982 33.7066 0.0000 0.0000 0.0000
# 4 0.0000 0.0000 0.0000 37.0704 0.0000 0.0000
# 5 0.0000 0.0000 0.0000 0.0000 20.8770 0.0000
# 6 0.0000 0.0000 0.0000 0.0000 0.0000 30.2530
#
#
#
# Elastic Compliance Matrix: (Units=1/GPa)
#
#
# Indices 1 2 3 4 5 6 
#
# 1 0.024141 -0.005404 -0.018620 0.000000 0.000000 0.000000
# 2 -0.005404 0.010226 0.005237 0.000000 0.000000 0.000000
# 3 -0.018620 0.005237 0.044156 0.000000 0.000000 0.000000
# 4 0.000000 0.000000 0.000000 0.026976 0.000000 0.000000
# 5 0.000000 0.000000 0.000000 0.000000 0.047900 0.000000
# 6 0.000000 0.000000 0.000000 0.000000 0.000000 0.033055
#
#
# Mechanical properties :
#
#
# Convention : Reuss Voigt Hill
#
# Bulk Modulus (GPa) = 24.41969 32.96344 28.69157
# Shear Modulus (GPa) = 21.03717 28.82767 24.93242
#
# Velocity S-wave (km/s) = 3.03313 3.55061 3.30202
# Velocity P-wave (km/s) = 4.79016 5.58789 5.20434
#
# Compressibility (1/GPa) = 0.04095057
#
# Stress axis : x y z
#
# Youngs Moduli (GPa) = 41.42361 97.79144 22.64703
#
# Poissons Ratio (x) = 0.52842 0.42168
# Poissons Ratio (y) = 0.22384 -0.11861
# Poissons Ratio (z) = 0.77129 -0.51216
#
# Static dielectric constant tensor:
#      x y z
#    x 1.875960 0.000000 0.000000 
#    y 0.000000 1.855520 0.000000 
#    z 0.000000 0.000000 1.880980 
# 
# From -- ./inp_files/2590.got.cif
#   From: 2010.05.17/outbox.cif.g08.bks.cpg/sg56_2_cif.got.tgz:2590.got - 2010.06.03 13:42:01.
