data_PCOD9432308
_publ_section_title
;
Structure prediction by ZEFSAII (Michael W. Deem and Ramdas Pophale) SiO2 
 PCOD9432308
Probable space group: P C C N
;
_chemical_formula_sum "Si O2"
_cell_formula_units_Z 48
_cell_length_a 8.810774
_cell_length_b 13.347291
_cell_length_c 17.321266
_cell_angle_alpha 90.000000
_cell_angle_beta 90.000000
_cell_angle_gamma 90.000000
_cell_volume 2036.980267
_symmetry_space_group_name_H-M "P C C N"
_symmetry_group_IT_number 56
_symmetry_cell_setting 'orthorhombic'
loop_
_space_group_symop_operation_xyz
x,y,z
1/2-x,1/2-y,z
1/2+x,-y,1/2-z
-x,1/2+y,1/2-z
-x,-y,-z
1/2+x,1/2+y,-z
1/2-x,y,1/2+z
x,1/2-y,1/2+z
loop_
_atom_site_type_symbol
_atom_site_label
_atom_site_fract_x
_atom_site_fract_y
_atom_site_fract_z
Si Si1 0.484874 0.827155 0.405759
Si Si2 0.503742 0.900608 0.760694
Si Si3 0.750000 0.250000 0.705122
Si Si4 0.940271 0.473892 0.913713
Si Si5 0.925307 0.467110 0.394815
Si Si6 0.068003 0.745866 0.065086
Si Si7 0.750000 0.750000 0.797242
O O1 0.341095 0.822075 0.351196
O O2 0.469689 0.747332 0.474085
O O3 0.627813 0.800367 0.353703
O O4 0.498427 0.939036 0.436398
O O5 0.370003 0.818069 0.751115
O O6 0.467518 0.981730 0.695762
O O7 0.659245 0.837222 0.752983
O O8 0.505438 0.951853 0.845551
O O9 0.755387 0.473502 0.910663
O O10 0.987014 0.357632 0.897967
O O11 0.000000 0.500000 0.000000
O O12 0.986500 0.354764 0.407918
O O13 0.250000 0.750000 0.072827
#
# Coordination Sequence:
#
# PCOD9432308 Si02
#       7
#     8   8   4   8   8   8   4
#     4  11  21  43  68 102 140 189 243 293 368 433
#     4  11  25  45  73 110 146 196 241 302 373 447
#     4  10  24  38  74  98 146 192 236 296 370 434
#     4  11  24  47  75 103 146 197 250 305 370 448
#     4  11  26  42  73 105 148 188 244 311 369 452
#     4  10  23  43  70 101 141 183 244 306 367 430
#     4  10  22  42  70  98 148 184 242 294 362 442
#
# _framework density 23.564294
#
# number of rings (size 3 to 8) (size 9 to 14) (size 15 to 20)
#    0.000    1.333    2.500    2.500    8.167    1.333 
#    0.000    0.833    0.000    0.000    0.000    0.000 
#    0.000    0.000    0.000    0.000    0.000    0.000 
#
# Total GULP energy -268214.768677 kJ/mol
# GULP energy per Si atom -5587.807681 kJ/mol
# Density = 2.351066 g / cm^3
# Si number density = 23.564294 Si / 1000 Ang^3
#
#
#
# Elastic Constant Matrix: (Units=GPa)
#
#
# Indices 1 2 3 4 5 6 
#
# 1 53.6789 16.9231 13.0836 0.0000 0.0000 0.0000
# 2 16.9231 135.1881 18.2432 0.0000 0.0000 0.0000
# 3 13.0836 18.2432 79.4868 0.0000 0.0000 0.0000
# 4 0.0000 0.0000 0.0000 34.9665 0.0000 0.0000
# 5 0.0000 0.0000 0.0000 0.0000 14.8502 0.0000
# 6 0.0000 0.0000 0.0000 0.0000 0.0000 31.7465
#
#
#
# Elastic Compliance Matrix: (Units=1/GPa)
#
#
# Indices 1 2 3 4 5 6 
#
# 1 0.019982 -0.002123 -0.002802 0.000000 0.000000 0.000000
# 2 -0.002123 0.007859 -0.001454 0.000000 0.000000 0.000000
# 3 -0.002802 -0.001454 0.013376 0.000000 0.000000 0.000000
# 4 0.000000 0.000000 0.000000 0.028599 0.000000 0.000000
# 5 0.000000 0.000000 0.000000 0.000000 0.067339 0.000000
# 6 0.000000 0.000000 0.000000 0.000000 0.000000 0.031500
#
#
# Mechanical properties :
#
#
# Convention : Reuss Voigt Hill
#
# Bulk Modulus (GPa) = 35.13958 40.53929 37.83943
# Shear Modulus (GPa) = 26.19196 30.98623 28.58910
#
# Velocity S-wave (km/s) = 3.33755 3.63018 3.48694
# Velocity P-wave (km/s) = 5.45865 5.90017 5.68370
#
# Compressibility (1/GPa) = 0.02845794
#
# Stress axis : x y z
#
# Youngs Moduli (GPa) = 50.04618 127.24032 74.76281
#
# Poissons Ratio (x) = 0.27016 0.20946
# Poissons Ratio (y) = 0.10626 0.10873
# Poissons Ratio (z) = 0.14021 0.18504
#
# Static dielectric constant tensor:
#      x y z
#    x 1.970170 0.000000 0.000000 
#    y 0.000000 1.929380 0.000000 
#    z 0.000000 0.000000 1.977500 
# 
# From -- ./inp_files/14897.got.cif
#   From: 2010.05.17/outbox.cif.g08.bks.cpg/sg56_8_cif.got.tgz:14897.got - 2010.06.03 13:42:01.
