data_PCOD9432669
_publ_section_title
;
Structure prediction by ZEFSAII (Michael W. Deem and Ramdas Pophale) SiO2 
 PCOD9432669
Probable space group: P C C N
;
_chemical_formula_sum "Si O2"
_cell_formula_units_Z 36
_cell_length_a 7.996956
_cell_length_b 13.121350
_cell_length_c 16.164755
_cell_angle_alpha 90.000000
_cell_angle_beta 90.000000
_cell_angle_gamma 90.000000
_cell_volume 1696.181621
_symmetry_space_group_name_H-M "P C C N"
_symmetry_group_IT_number 56
_symmetry_cell_setting 'orthorhombic'
loop_
_space_group_symop_operation_xyz
x,y,z
1/2-x,1/2-y,z
1/2+x,-y,1/2-z
-x,1/2+y,1/2-z
-x,-y,-z
1/2+x,1/2+y,-z
1/2-x,y,1/2+z
x,1/2-y,1/2+z
loop_
_atom_site_type_symbol
_atom_site_label
_atom_site_fract_x
_atom_site_fract_y
_atom_site_fract_z
Si Si1 0.250889 0.027201 0.294590
Si Si2 0.250000 0.750000 0.061928
Si Si3 0.590566 0.150397 0.288893
Si Si4 0.635539 0.430157 0.049243
Si Si5 0.921363 0.808869 0.818045
O O1 0.431505 0.077986 0.293790
O O2 0.131783 0.112956 0.255065
O O3 0.236713 0.927882 0.235574
O O4 0.238083 0.991141 0.389714
O O5 0.108622 0.782626 0.128685
O O6 0.255616 0.648991 0.005395
O O7 0.552073 0.227135 0.215584
O O8 0.511515 0.366203 0.108155
O O9 0.500000 0.500000 0.000000
O O10 0.750000 0.750000 0.841993
#
# Coordination Sequence:
#
# PCOD9432669 Si02
#       5
#     8   4   8   8   8
#     4  11  21  44  70  96 134 180 238 280 328 428
#     4  12  24  40  66 104 146 178 220 296 364 404
#     4  11  23  42  71  98 134 186 234 275 344 418
#     4  12  23  43  63 100 142 172 225 290 353 408
#     4  10  23  43  68  97 128 181 236 274 336 422
#
# _framework density 21.224142000000001
#
# number of rings (size 3 to 8) (size 9 to 14) (size 15 to 20)
#    0.000    0.889    4.444    2.667    0.000    0.000 
#    4.000    1.111    0.000    0.000    0.000    0.000 
#    0.000    0.000    0.000    0.000    0.000    0.000 
#
# Total GULP energy -200690.985712 kJ/mol
# GULP energy per Si atom -5574.749603 kJ/mol
# Density = 2.117584 g / cm^3
# Si number density = 21.224142 Si / 1000 Ang^3
#
#
#
# Elastic Constant Matrix: (Units=GPa)
#
#
# Indices 1 2 3 4 5 6 
#
# 1 82.1515 47.1609 26.5626 0.0000 0.0000 0.0000
# 2 47.1609 132.0620 58.3986 0.0000 0.0000 0.0000
# 3 26.5626 58.3986 109.9344 0.0000 0.0000 0.0000
# 4 0.0000 0.0000 0.0000 53.8069 0.0000 0.0000
# 5 0.0000 0.0000 0.0000 0.0000 -13.7496 0.0000
# 6 0.0000 0.0000 0.0000 0.0000 0.0000 37.9826
#
#
#
# Elastic Compliance Matrix: (Units=1/GPa)
#
#
# Indices 1 2 3 4 5 6 
#
# 1 0.015403 -0.005038 -0.001045 0.000000 0.000000 0.000000
# 2 -0.005038 0.011545 -0.004916 0.000000 0.000000 0.000000
# 3 -0.001045 -0.004916 0.011960 0.000000 0.000000 0.000000
# 4 0.000000 0.000000 0.000000 0.018585 0.000000 0.000000
# 5 0.000000 0.000000 0.000000 0.000000 -0.072730 0.000000
# 6 0.000000 0.000000 0.000000 0.000000 0.000000 0.026328
#
#
# Mechanical properties :
#
#
# Convention : Reuss Voigt Hill
#
# Bulk Modulus (GPa) = 59.13701 65.37689 62.25695
# Shear Modulus (GPa) = 129.11033 28.40968 78.76001
#
# Velocity S-wave (km/s) = 7.80794 3.66260 6.09830
# Velocity P-wave (km/s) = 10.45030 6.98256 8.88721
#
# Compressibility (1/GPa) = 0.01690988
#
# Stress axis : x y z
#
# Youngs Moduli (GPa) = 64.92243 86.61637 83.61128
#
# Poissons Ratio (x) = 0.43641 0.08739
# Poissons Ratio (y) = 0.32710 0.41100
# Poissons Ratio (z) = 0.06786 0.42577
#
# Static dielectric constant tensor:
#      x y z
#    x 1.893340 0.000000 0.000000 
#    y 0.000000 1.825230 0.000000 
#    z 0.000000 0.000000 1.795920 
# 
# From -- ./inp_files/10323.got.cif
#   From: 2010.05.17/outbox.cif.g08.bks.cpg/sg56_6_cif.got.tgz:10323.got - 2010.06.03 13:42:01.
