data_PCOD9432711
_publ_section_title
;
Structure prediction by ZEFSAII (Michael W. Deem and Ramdas Pophale) SiO2 
 PCOD9432711
Probable space group: P C C N
;
_chemical_formula_sum "Si O2"
_cell_formula_units_Z 32
_cell_length_a 16.657251
_cell_length_b 12.923769
_cell_length_c 5.505025
_cell_angle_alpha 90.000000
_cell_angle_beta 90.000000
_cell_angle_gamma 90.000000
_cell_volume 1185.091307
_symmetry_space_group_name_H-M "P C C N"
_symmetry_group_IT_number 56
_symmetry_cell_setting 'orthorhombic'
loop_
_space_group_symop_operation_xyz
x,y,z
1/2-x,1/2-y,z
1/2+x,-y,1/2-z
-x,1/2+y,1/2-z
-x,-y,-z
1/2+x,1/2+y,-z
1/2-x,y,1/2+z
x,1/2-y,1/2+z
loop_
_atom_site_type_symbol
_atom_site_label
_atom_site_fract_x
_atom_site_fract_y
_atom_site_fract_z
Si Si1 0.587893 0.497024 0.121547
Si Si2 0.656271 0.290068 0.363488
Si Si3 0.561651 0.785123 0.848155
Si Si4 0.201958 0.381639 0.656283
O O1 0.629616 0.402515 0.261655
O O2 0.582089 0.596029 0.301868
O O3 0.500000 0.500000 0.000000
O O4 0.645589 0.520726 0.893427
O O5 0.750000 0.250000 0.386875
O O6 0.626685 0.281587 0.640430
O O7 0.521643 0.738784 0.605626
O O8 0.643005 0.716477 0.858030
O O9 0.255930 0.382531 0.414286
#
# Coordination Sequence:
#
# PCOD9432711 Si02
#       4
#     8   8   8   8
#     4  11  27  48  79 115 161 211 262 331 408 475
#     4  10  25  48  73 106 146 206 262 313 374 467
#     4  10  23  44  69 110 150 191 249 320 402 457
#     4  11  25  45  75 111 148 193 255 326 390 468
#
# _framework density 27.002137999999999
#
# number of rings (size 3 to 8) (size 9 to 14) (size 15 to 20)
#    0.000    1.500    0.000    3.000    7.000   20.000 
#    0.000   15.000    0.000    0.000    0.000    0.000 
#    0.000    0.000    0.000    0.000    0.000    0.000 
#
# Total GULP energy -179018.987437 kJ/mol
# GULP energy per Si atom -5594.343357 kJ/mol
# Density = 2.694068 g / cm^3
# Si number density = 27.002138 Si / 1000 Ang^3
#
#
#
# Elastic Constant Matrix: (Units=GPa)
#
#
# Indices 1 2 3 4 5 6 
#
# 1 145.2191 21.7505 68.5170 0.0000 0.0000 0.0000
# 2 21.7505 168.7481 26.5945 0.0000 0.0000 0.0000
# 3 68.5170 26.5945 213.1972 0.0000 0.0000 0.0000
# 4 0.0000 0.0000 0.0000 56.9006 0.0000 0.0000
# 5 0.0000 0.0000 0.0000 0.0000 45.4666 0.0000
# 6 0.0000 0.0000 0.0000 0.0000 0.0000 21.9709
#
#
#
# Elastic Compliance Matrix: (Units=1/GPa)
#
#
# Indices 1 2 3 4 5 6 
#
# 1 0.008187 -0.000653 -0.002550 0.000000 0.000000 0.000000
# 2 -0.000653 0.006097 -0.000551 0.000000 0.000000 0.000000
# 3 -0.002550 -0.000551 0.005579 0.000000 0.000000 0.000000
# 4 0.000000 0.000000 0.000000 0.017575 0.000000 0.000000
# 5 0.000000 0.000000 0.000000 0.000000 0.021994 0.000000
# 6 0.000000 0.000000 0.000000 0.000000 0.000000 0.045515
#
#
# Mechanical properties :
#
#
# Convention : Reuss Voigt Hill
#
# Bulk Modulus (GPa) = 80.93668 84.54316 82.73992
# Shear Modulus (GPa) = 42.89212 52.22111 47.55662
#
# Velocity S-wave (km/s) = 3.98989 4.40245 4.20124
# Velocity P-wave (km/s) = 7.15995 7.56438 7.36494
#
# Compressibility (1/GPa) = 0.01235534
#
# Stress axis : x y z
#
# Youngs Moduli (GPa) = 122.14541 164.01558 179.25782
#
# Poissons Ratio (x) = 0.10717 0.45704
# Poissons Ratio (y) = 0.07981 0.09869
# Poissons Ratio (z) = 0.31142 0.09030
#
# Static dielectric constant tensor:
#      x y z
#    x 2.406240 0.000000 0.000000 
#    y 0.000000 2.133690 0.000000 
#    z 0.000000 0.000000 2.158540 
# 
# From -- ./inp_files/603.got.cif
#   From: 2010.05.17/outbox.cif.g08.bks.cpg/sg56_1_cif.got.tgz:603.got - 2010.06.03 13:42:01.
