data_PCOD9432960
_publ_section_title
;
Structure prediction by ZEFSAII (Michael W. Deem and Ramdas Pophale) SiO2 
 PCOD9432960
Probable space group: P C C N
;
_chemical_formula_sum "Si O2"
_cell_formula_units_Z 36
_cell_length_a 4.903752
_cell_length_b 17.039236
_cell_length_c 18.207168
_cell_angle_alpha 90.000000
_cell_angle_beta 90.000000
_cell_angle_gamma 90.000000
_cell_volume 1521.321545
_symmetry_space_group_name_H-M "P C C N"
_symmetry_group_IT_number 56
_symmetry_cell_setting 'orthorhombic'
loop_
_space_group_symop_operation_xyz
x,y,z
1/2-x,1/2-y,z
1/2+x,-y,1/2-z
-x,1/2+y,1/2-z
-x,-y,-z
1/2+x,1/2+y,-z
1/2-x,y,1/2+z
x,1/2-y,1/2+z
loop_
_atom_site_type_symbol
_atom_site_label
_atom_site_fract_x
_atom_site_fract_y
_atom_site_fract_z
Si Si1 0.877656 0.166300 0.891600
Si Si2 0.250000 0.250000 0.506352
Si Si3 0.706486 0.431407 0.023232
Si Si4 0.318136 0.381168 0.603425
Si Si5 0.534643 0.557227 0.244573
O O1 0.750000 0.250000 0.867477
O O2 0.972961 0.111162 0.825818
O O3 0.108838 0.191703 0.949343
O O4 0.705189 0.114200 0.948767
O O5 0.423038 0.302487 0.562965
O O6 0.498413 0.387566 0.080493
O O7 0.983488 0.446835 0.067631
O O8 0.500000 0.500000 0.000000
O O9 0.361213 0.387993 0.689375
O O10 0.765868 0.491383 0.232850
#
# Coordination Sequence:
#
# PCOD9432960 Si02
#       5
#     8   4   8   8   8
#     4  11  24  45  71 104 146 185 246 301 364 427
#     4  10  24  44  72 104 140 186 246 306 358 418
#     4  11  22  41  71  99 135 184 235 292 352 427
#     4  11  23  43  66  99 139 179 235 287 355 425
#     4  12  28  48  70 106 148 193 237 296 372 442
#
# _framework density 23.663639
#
# number of rings (size 3 to 8) (size 9 to 14) (size 15 to 20)
#    0.000    0.889    2.222    4.667    3.111    2.667 
#    8.000    0.000    0.000    0.000    0.000    0.000 
#    0.000    0.000    0.000    0.000    0.000    0.000 
#
# Total GULP energy -200869.904881 kJ/mol
# GULP energy per Si atom -5579.719580 kJ/mol
# Density = 2.360978 g / cm^3
# Si number density = 23.663639 Si / 1000 Ang^3
#
#
#
# Elastic Constant Matrix: (Units=GPa)
#
#
# Indices 1 2 3 4 5 6 
#
# 1 109.8091 29.6606 28.4578 0.0000 0.0000 0.0000
# 2 29.6606 108.4485 67.9558 0.0000 0.0000 0.0000
# 3 28.4578 67.9558 198.7495 0.0000 0.0000 0.0000
# 4 0.0000 0.0000 0.0000 42.6703 0.0000 0.0000
# 5 0.0000 0.0000 0.0000 0.0000 27.3827 0.0000
# 6 0.0000 0.0000 0.0000 0.0000 0.0000 35.3998
#
#
#
# Elastic Compliance Matrix: (Units=1/GPa)
#
#
# Indices 1 2 3 4 5 6 
#
# 1 0.009894 -0.002314 -0.000625 0.000000 0.000000 0.000000
# 2 -0.002314 0.012276 -0.003866 0.000000 0.000000 0.000000
# 3 -0.000625 -0.003866 0.006443 0.000000 0.000000 0.000000
# 4 0.000000 0.000000 0.000000 0.023435 0.000000 0.000000
# 5 0.000000 0.000000 0.000000 0.000000 0.036519 0.000000
# 6 0.000000 0.000000 0.000000 0.000000 0.000000 0.028249
#
#
# Mechanical properties :
#
#
# Convention : Reuss Voigt Hill
#
# Bulk Modulus (GPa) = 66.65826 74.35062 70.50444
# Shear Modulus (GPa) = 36.91972 40.48609 38.70291
#
# Velocity S-wave (km/s) = 3.95421 4.14079 4.04857
# Velocity P-wave (km/s) = 7.00556 7.37221 7.19122
#
# Compressibility (1/GPa) = 0.01500189
#
# Stress axis : x y z
#
# Youngs Moduli (GPa) = 101.07294 81.45646 155.20890
#
# Poissons Ratio (x) = 0.18850 0.09707
# Poissons Ratio (y) = 0.23389 0.60007
# Poissons Ratio (z) = 0.06321 0.31493
#
# Static dielectric constant tensor:
#      x y z
#    x 2.031650 0.000000 0.000000 
#    y 0.000000 2.175660 0.000000 
#    z 0.000000 0.000000 1.851050 
# 
# From -- ./inp_files/9494.got.cif
#   From: 2010.05.17/outbox.cif.g08.bks.cpg/sg56_5_cif.got.tgz:9494.got - 2010.06.03 13:42:01.
