data_PCOD9432930
_publ_section_title
;
Structure prediction by ZEFSAII (Michael W. Deem and Ramdas Pophale) SiO2 
 PCOD9432930
Probable space group: P C C N
;
_chemical_formula_sum "Si O2"
_cell_formula_units_Z 28
_cell_length_a 6.135586
_cell_length_b 22.981626
_cell_length_c 9.187076
_cell_angle_alpha 90.000000
_cell_angle_beta 90.000000
_cell_angle_gamma 90.000000
_cell_volume 1295.430475
_symmetry_space_group_name_H-M "P C C N"
_symmetry_group_IT_number 56
_symmetry_cell_setting 'orthorhombic'
loop_
_space_group_symop_operation_xyz
x,y,z
1/2-x,1/2-y,z
1/2+x,-y,1/2-z
-x,1/2+y,1/2-z
-x,-y,-z
1/2+x,1/2+y,-z
1/2-x,y,1/2+z
x,1/2-y,1/2+z
loop_
_atom_site_type_symbol
_atom_site_label
_atom_site_fract_x
_atom_site_fract_y
_atom_site_fract_z
Si Si1 0.750000 0.750000 0.854349
Si Si2 0.056352 0.796536 0.601504
Si Si3 0.805862 0.531437 0.415417
Si Si4 0.030954 0.576434 0.153868
O O1 0.586033 0.716952 0.745448
O O2 0.602626 0.789035 0.962537
O O3 0.250000 0.750000 0.590192
O O4 0.140474 0.862483 0.615847
O O5 0.897287 0.578202 0.303086
O O6 0.690878 0.478321 0.330369
O O7 0.634771 0.559825 0.525045
O O8 0.000000 0.500000 0.500000
#
# Coordination Sequence:
#
# PCOD9432930 Si02
#       4
#     4   8   8   8
#     4  10  24  44  64 100 126 176 230 268 346 394
#     4  11  24  44  68  96 135 178 223 282 336 397
#     4  11  23  42  65  99 129 174 215 273 336 391
#     4  11  24  42  67  96 131 170 223 270 330 402
#
# _framework density 21.614439000000001
#
# number of rings (size 3 to 8) (size 9 to 14) (size 15 to 20)
#    0.000    1.143    2.857    2.571    0.000    9.143 
#    0.000    0.000    0.000    0.000    0.000    0.000 
#    0.000    0.000    0.000    0.000    0.000    0.000 
#
# Total GULP energy -156592.532722 kJ/mol
# GULP energy per Si atom -5592.590454 kJ/mol
# Density = 2.156524 g / cm^3
# Si number density = 21.614439 Si / 1000 Ang^3
#
#
#
# Elastic Constant Matrix: (Units=GPa)
#
#
# Indices 1 2 3 4 5 6 
#
# 1 67.6201 22.2619 11.6663 0.0000 0.0000 0.0000
# 2 22.2619 91.9710 7.7274 0.0000 0.0000 0.0000
# 3 11.6663 7.7274 94.9070 0.0000 0.0000 0.0000
# 4 0.0000 0.0000 0.0000 6.5770 0.0000 0.0000
# 5 0.0000 0.0000 0.0000 0.0000 21.1787 0.0000
# 6 0.0000 0.0000 0.0000 0.0000 0.0000 30.5271
#
#
#
# Elastic Compliance Matrix: (Units=1/GPa)
#
#
# Indices 1 2 3 4 5 6 
#
# 1 0.016336 -0.003812 -0.001698 0.000000 0.000000 0.000000
# 2 -0.003812 0.011837 -0.000495 0.000000 0.000000 0.000000
# 3 -0.001698 -0.000495 0.010786 0.000000 0.000000 0.000000
# 4 0.000000 0.000000 0.000000 0.152044 0.000000 0.000000
# 5 0.000000 0.000000 0.000000 0.000000 0.047217 0.000000
# 6 0.000000 0.000000 0.000000 0.000000 0.000000 0.032758
#
#
# Mechanical properties :
#
#
# Convention : Reuss Voigt Hill
#
# Bulk Modulus (GPa) = 37.10592 37.53436 37.32014
# Shear Modulus (GPa) = 17.12498 25.84609 21.48553
#
# Velocity S-wave (km/s) = 2.81782 3.46175 3.15625
# Velocity P-wave (km/s) = 5.27175 5.77767 5.53049
#
# Compressibility (1/GPa) = 0.02694988
#
# Stress axis : x y z
#
# Youngs Moduli (GPa) = 61.21353 84.47940 92.71581
#
# Poissons Ratio (x) = 0.32200 0.15741
# Poissons Ratio (y) = 0.23332 0.04592
# Poissons Ratio (z) = 0.10393 0.04184
#
# Static dielectric constant tensor:
#      x y z
#    x 1.790570 0.000000 0.000000 
#    y 0.000000 1.838830 0.000000 
#    z 0.000000 0.000000 1.787860 
# 
# From -- ./inp_files/1521.got.cif
#   From: 2010.05.17/outbox.cif.g08.bks.cpg/sg56_1_cif.got.tgz:1521.got - 2010.06.03 13:42:01.
