data_PCOD9432471
_publ_section_title
;
Structure prediction by ZEFSAII (Michael W. Deem and Ramdas Pophale) SiO2 
 PCOD9432471
Probable space group: P C C N
;
_chemical_formula_sum "Si O2"
_cell_formula_units_Z 28
_cell_length_a 16.301342
_cell_length_b 6.097777
_cell_length_c 12.998794
_cell_angle_alpha 90.000000
_cell_angle_beta 90.000000
_cell_angle_gamma 90.000000
_cell_volume 1292.105449
_symmetry_space_group_name_H-M "P C C N"
_symmetry_group_IT_number 56
_symmetry_cell_setting 'orthorhombic'
loop_
_space_group_symop_operation_xyz
x,y,z
1/2-x,1/2-y,z
1/2+x,-y,1/2-z
-x,1/2+y,1/2-z
-x,-y,-z
1/2+x,1/2+y,-z
1/2-x,y,1/2+z
x,1/2-y,1/2+z
loop_
_atom_site_type_symbol
_atom_site_label
_atom_site_fract_x
_atom_site_fract_y
_atom_site_fract_z
Si Si1 0.661577 0.852280 0.450260
Si Si2 0.092909 0.000863 0.692259
Si Si3 0.250000 0.750000 0.638274
Si Si4 0.527550 0.846461 0.595892
O O1 0.750000 0.750000 0.449815
O O2 0.609975 0.738022 0.358824
O O3 0.813074 0.396861 0.429291
O O4 0.616429 0.779213 0.553716
O O5 0.183993 0.893361 0.702154
O O6 0.034581 0.850695 0.619990
O O7 0.045645 0.025851 0.799126
O O8 0.500000 0.000000 0.500000
#
# Coordination Sequence:
#
# PCOD9432471 Si02
#       4
#     8   8   4   8
#     4  10  23  44  69 102 140 182 232 289 352 432
#     4  11  25  44  70 101 144 180 239 296 353 422
#     4  10  22  46  68 104 142 178 240 286 358 424
#     4  12  24  45  70 101 137 190 235 293 359 421
#
# _framework density 21.670057
#
# number of rings (size 3 to 8) (size 9 to 14) (size 15 to 20)
#    0.000    1.143    2.857    2.571    0.000    4.571 
#    0.000    0.000    0.000    0.000    0.000    0.000 
#    0.000    0.000    0.000    0.000    0.000    0.000 
#
# Total GULP energy -156030.146730 kJ/mol
# GULP energy per Si atom -5572.505240 kJ/mol
# Density = 2.162073 g / cm^3
# Si number density = 21.670057 Si / 1000 Ang^3
#
#
#
# Elastic Constant Matrix: (Units=GPa)
#
#
# Indices 1 2 3 4 5 6 
#
# 1 133.7589 52.6418 55.9216 0.0000 0.0000 0.0000
# 2 52.6418 78.8060 49.0170 0.0000 0.0000 0.0000
# 3 55.9216 49.0170 108.0231 0.0000 0.0000 0.0000
# 4 0.0000 0.0000 0.0000 31.9203 0.0000 0.0000
# 5 0.0000 0.0000 0.0000 0.0000 33.9180 0.0000
# 6 0.0000 0.0000 0.0000 0.0000 0.0000 43.5639
#
#
#
# Elastic Compliance Matrix: (Units=1/GPa)
#
#
# Indices 1 2 3 4 5 6 
#
# 1 0.010909 -0.005259 -0.003261 0.000000 0.000000 0.000000
# 2 -0.005259 0.020214 -0.006450 0.000000 0.000000 0.000000
# 3 -0.003261 -0.006450 0.013872 0.000000 0.000000 0.000000
# 4 0.000000 0.000000 0.000000 0.031328 0.000000 0.000000
# 5 0.000000 0.000000 0.000000 0.000000 0.029483 0.000000
# 6 0.000000 0.000000 0.000000 0.000000 0.000000 0.022955
#
#
# Mechanical properties :
#
#
# Convention : Reuss Voigt Hill
#
# Bulk Modulus (GPa) = 66.42086 70.63875 68.52980
# Shear Modulus (GPa) = 30.53991 32.74761 31.64376
#
# Velocity S-wave (km/s) = 3.75816 3.89162 3.82547
# Velocity P-wave (km/s) = 7.03912 7.27057 7.15578
#
# Compressibility (1/GPa) = 0.01505551
#
# Stress axis : x y z
#
# Youngs Moduli (GPa) = 91.66549 49.47032 72.08568
#
# Poissons Ratio (x) = 0.26015 0.23509
# Poissons Ratio (y) = 0.48205 0.46496
# Poissons Ratio (z) = 0.29894 0.31909
#
# Static dielectric constant tensor:
#      x y z
#    x 1.950250 0.000000 0.000000 
#    y 0.000000 1.951990 0.000000 
#    z 0.000000 0.000000 1.808450 
# 
# From -- ./inp_files/3844.got.cif
#   From: 2010.05.17/outbox.cif.g08.bks.cpg/sg56_2_cif.got.tgz:3844.got - 2010.06.03 13:42:01.
