data_PCOD9432466
_publ_section_title
;
Structure prediction by ZEFSAII (Michael W. Deem and Ramdas Pophale) SiO2 
 PCOD9432466
Probable space group: P C C N
;
_chemical_formula_sum "Si O2"
_cell_formula_units_Z 32
_cell_length_a 9.514448
_cell_length_b 11.756466
_cell_length_c 14.045843
_cell_angle_alpha 90.000000
_cell_angle_beta 90.000000
_cell_angle_gamma 90.000000
_cell_volume 1571.115810
_symmetry_space_group_name_H-M "P C C N"
_symmetry_group_IT_number 56
_symmetry_cell_setting 'orthorhombic'
loop_
_space_group_symop_operation_xyz
x,y,z
1/2-x,1/2-y,z
1/2+x,-y,1/2-z
-x,1/2+y,1/2-z
-x,-y,-z
1/2+x,1/2+y,-z
1/2-x,y,1/2+z
x,1/2-y,1/2+z
loop_
_atom_site_type_symbol
_atom_site_label
_atom_site_fract_x
_atom_site_fract_y
_atom_site_fract_z
Si Si1 0.750000 0.250000 0.479264
Si Si2 0.403987 0.084810 0.733194
Si Si3 0.250000 0.250000 0.880494
Si Si4 0.785296 0.374276 0.791939
Si Si5 0.033989 0.368068 0.525376
O O1 0.705297 0.350211 0.405321
O O2 0.612553 0.202078 0.530767
O O3 0.328906 0.160962 0.812254
O O4 0.568610 0.079563 0.754757
O O5 0.390231 0.135105 0.627251
O O6 0.337210 0.960632 0.731393
O O7 0.365824 0.313323 0.945495
O O8 0.750000 0.250000 0.751127
O O9 0.000000 0.500000 0.500000
#
# Coordination Sequence:
#
# PCOD9432466 Si02
#       5
#     4   8   4   8   8
#     4  10  22  46  66 102 144 178 234 298 346 434
#     4  12  25  44  76 101 144 195 232 303 365 419
#     4  12  26  48  68 108 146 182 252 296 356 442
#     4  10  23  45  67 106 142 182 239 291 361 428
#     4  12  24  48  72 103 144 189 240 298 358 429
#
# _framework density 20.367688999999999
#
# number of rings (size 3 to 8) (size 9 to 14) (size 15 to 20)
#    0.750    0.000    5.000    2.250    5.250    0.000 
#    0.000    2.500    0.000    0.000    0.000    0.000 
#    0.000    0.000    0.000    0.000    0.000    0.000 
#
# Total GULP energy -178845.471469 kJ/mol
# GULP energy per Si atom -5588.920983 kJ/mol
# Density = 2.032133 g / cm^3
# Si number density = 20.367689 Si / 1000 Ang^3
#
#
#
# Elastic Constant Matrix: (Units=GPa)
#
#
# Indices 1 2 3 4 5 6 
#
# 1 148.4752 98.5909 48.7689 0.0000 0.0000 0.0000
# 2 98.5909 154.9582 59.1448 0.0000 0.0000 0.0000
# 3 48.7689 59.1448 120.5180 0.0000 0.0000 0.0000
# 4 0.0000 0.0000 0.0000 19.7181 0.0000 0.0000
# 5 0.0000 0.0000 0.0000 0.0000 15.8342 0.0000
# 6 0.0000 0.0000 0.0000 0.0000 0.0000 49.7734
#
#
#
# Elastic Compliance Matrix: (Units=1/GPa)
#
#
# Indices 1 2 3 4 5 6 
#
# 1 0.011837 -0.007017 -0.001346 0.000000 0.000000 0.000000
# 2 -0.007017 0.012101 -0.003099 0.000000 0.000000 0.000000
# 3 -0.001346 -0.003099 0.010363 0.000000 0.000000 0.000000
# 4 0.000000 0.000000 0.000000 0.050715 0.000000 0.000000
# 5 0.000000 0.000000 0.000000 0.000000 0.063154 0.000000
# 6 0.000000 0.000000 0.000000 0.000000 0.000000 0.020091
#
#
# Mechanical properties :
#
#
# Convention : Reuss Voigt Hill
#
# Bulk Modulus (GPa) = 87.90395 92.99561 90.44978
# Shear Modulus (GPa) = 25.64388 31.56159 28.60274
#
# Velocity S-wave (km/s) = 3.55215 3.94076 3.75149
# Velocity P-wave (km/s) = 7.75087 8.15252 7.95423
#
# Compressibility (1/GPa) = 0.01137605
#
# Stress axis : x y z
#
# Youngs Moduli (GPa) = 84.48085 82.63832 96.49655
#
# Poissons Ratio (x) = 0.57991 0.12990
# Poissons Ratio (y) = 0.59284 0.29904
# Poissons Ratio (z) = 0.11372 0.25609
#
# Static dielectric constant tensor:
#      x y z
#    x 1.648130 0.000000 0.000000 
#    y 0.000000 1.700800 0.000000 
#    z 0.000000 0.000000 1.756340 
# 
# From -- ./inp_files/10114.got.cif
#   From: 2010.05.17/outbox.cif.g08.bks.cpg/sg56_6_cif.got.tgz:10114.got - 2010.06.03 13:42:01.
