data_PCOD9432323
_publ_section_title
;
Structure prediction by ZEFSAII (Michael W. Deem and Ramdas Pophale) SiO2 
 PCOD9432323
Probable space group: P C C N
;
_chemical_formula_sum "Si O2"
_cell_formula_units_Z 40
_cell_length_a 18.717001
_cell_length_b 5.294019
_cell_length_c 17.529521
_cell_angle_alpha 90.000000
_cell_angle_beta 90.000000
_cell_angle_gamma 90.000000
_cell_volume 1736.967963
_symmetry_space_group_name_H-M "P C C N"
_symmetry_group_IT_number 56
_symmetry_cell_setting 'orthorhombic'
loop_
_space_group_symop_operation_xyz
x,y,z
1/2-x,1/2-y,z
1/2+x,-y,1/2-z
-x,1/2+y,1/2-z
-x,-y,-z
1/2+x,1/2+y,-z
1/2-x,y,1/2+z
x,1/2-y,1/2+z
loop_
_atom_site_type_symbol
_atom_site_label
_atom_site_fract_x
_atom_site_fract_y
_atom_site_fract_z
Si Si1 0.811754 0.065663 0.016103
Si Si2 0.037698 0.749869 0.032719
Si Si3 0.250000 0.250000 0.868870
Si Si4 0.750000 0.750000 0.881570
Si Si5 0.537276 0.258127 0.782170
Si Si6 0.807494 0.070276 0.265443
O O1 0.750000 0.250000 0.046875
O O2 0.882377 0.221970 0.000233
O O3 0.783352 0.954679 0.937337
O O4 0.814330 0.821012 0.072424
O O5 0.037188 0.752534 0.125237
O O6 0.000000 0.500000 0.000000
O O7 0.000000 0.000000 0.000000
O O8 0.265421 0.471047 0.808297
O O9 0.813278 0.656351 0.825958
O O10 0.510332 0.527107 0.750583
O O11 0.617387 0.199747 0.752807
O O12 0.750000 0.250000 0.303921
#
# Coordination Sequence:
#
# PCOD9432323 Si02
#       6
#     8   8   4   4   8   8
#     4  11  25  45  75 106 145 192 257 312 394 459
#     4  12  30  49  77 111 159 210 262 325 401 482
#     4  10  26  42  78 110 148 186 252 328 390 470
#     4  10  22  42  74 102 134 186 254 316 374 464
#     4  12  30  49  77 111 160 210 262 326 402 478
#     4  11  25  45  75 106 144 190 257 312 394 455
#
# _framework density 23.028634
#
# number of rings (size 3 to 8) (size 9 to 14) (size 15 to 20)
#    0.000    0.800    0.000    4.800   22.400    0.000 
#    0.000    0.000    0.000    0.000    0.000    0.000 
#    0.000    0.000    0.000    0.000    0.000    0.000 
#
# Total GULP energy -223305.737045 kJ/mol
# GULP energy per Si atom -5582.643426 kJ/mol
# Density = 2.297622 g / cm^3
# Si number density = 23.028634 Si / 1000 Ang^3
#
#
#
# Elastic Constant Matrix: (Units=GPa)
#
#
# Indices 1 2 3 4 5 6 
#
# 1 129.2230 60.0910 20.6039 0.0000 0.0000 0.0000
# 2 60.0910 120.6479 67.3094 0.0000 0.0000 0.0000
# 3 20.6039 67.3094 145.8376 0.0000 0.0000 0.0000
# 4 0.0000 0.0000 0.0000 4.8309 0.0000 0.0000
# 5 0.0000 0.0000 0.0000 0.0000 1.3713 0.0000
# 6 0.0000 0.0000 0.0000 0.0000 0.0000 49.9753
#
#
#
# Elastic Compliance Matrix: (Units=1/GPa)
#
#
# Indices 1 2 3 4 5 6 
#
# 1 0.010230 -0.005776 0.001221 0.000000 0.000000 0.000000
# 2 -0.005776 0.014424 -0.005841 0.000000 0.000000 0.000000
# 3 0.001221 -0.005841 0.009380 0.000000 0.000000 0.000000
# 4 0.000000 0.000000 0.000000 0.207002 0.000000 0.000000
# 5 0.000000 0.000000 0.000000 0.000000 0.729252 0.000000
# 6 0.000000 0.000000 0.000000 0.000000 0.000000 0.020010
#
#
# Mechanical properties :
#
#
# Convention : Reuss Voigt Hill
#
# Bulk Modulus (GPa) = 75.52270 76.85744 76.19007
# Shear Modulus (GPa) = 4.92365 27.74910 16.33638
#
# Velocity S-wave (km/s) = 1.46380 3.47505 2.66633
# Velocity P-wave (km/s) = 5.97689 7.03907 6.52962
#
# Compressibility (1/GPa) = 0.01324105
#
# Stress axis : x y z
#
# Youngs Moduli (GPa) = 97.75176 69.32679 106.60436
#
# Poissons Ratio (x) = 0.40045 -0.13013
# Poissons Ratio (y) = 0.56464 0.62271
# Poissons Ratio (z) = -0.11932 0.40496
#
# Static dielectric constant tensor:
#      x y z
#    x 1.964800 0.000000 0.000000 
#    y 0.000000 2.376090 0.000000 
#    z 0.000000 0.000000 1.915390 
# 
# From -- ./inp_files/16500.got.cif
#   From: 2010.05.17/outbox.cif.g08.bks.cpg/sg56_9_cif.got.tgz:16500.got - 2010.06.03 13:42:01.
