data_PCOD9432413
_publ_section_title
;
Structure prediction by ZEFSAII (Michael W. Deem and Ramdas Pophale) SiO2 
 PCOD9432413
Probable space group: P C C N
;
_chemical_formula_sum "Si O2"
_cell_formula_units_Z 40
_cell_length_a 14.384526
_cell_length_b 4.976739
_cell_length_c 24.640406
_cell_angle_alpha 90.000000
_cell_angle_beta 90.000000
_cell_angle_gamma 90.000000
_cell_volume 1763.958162
_symmetry_space_group_name_H-M "P C C N"
_symmetry_group_IT_number 56
_symmetry_cell_setting 'orthorhombic'
loop_
_space_group_symop_operation_xyz
x,y,z
1/2-x,1/2-y,z
1/2+x,-y,1/2-z
-x,1/2+y,1/2-z
-x,-y,-z
1/2+x,1/2+y,-z
1/2-x,y,1/2+z
x,1/2-y,1/2+z
loop_
_atom_site_type_symbol
_atom_site_label
_atom_site_fract_x
_atom_site_fract_y
_atom_site_fract_z
Si Si1 0.853776 0.344065 0.784053
Si Si2 0.030302 0.488505 0.319897
Si Si3 0.458678 0.024250 0.892573
Si Si4 0.310802 0.481116 0.482537
Si Si5 0.838307 0.053294 0.400713
O O1 0.750000 0.250000 0.768862
O O2 0.840072 0.532783 0.837610
O O3 0.910089 0.467764 0.734392
O O4 0.926085 0.110786 0.803762
O O5 0.080855 0.248022 0.352267
O O6 0.028891 0.752380 0.357764
O O7 0.400054 0.971164 0.945929
O O8 0.557261 0.160267 0.908366
O O9 0.250000 0.250000 0.455572
O O10 0.332614 0.383195 0.544082
O O11 0.250000 0.750000 0.485176
O O12 0.750000 0.250000 0.401759
#
# Coordination Sequence:
#
# PCOD9432413 Si02
#       5
#     8   8   8   8   8
#     4  10  22  44  68  97 134 174 217 275 331 386
#     4  11  24  44  69  99 133 174 225 268 326 403
#     4  11  24  44  68  95 134 175 215 273 330 387
#     4  11  24  43  67  97 133 172 221 271 325 394
#     4   9  21  41  65  94 125 167 217 267 322 382
#
# _framework density 22.676275
#
# number of rings (size 3 to 8) (size 9 to 14) (size 15 to 20)
#    0.000    1.600    0.000    4.200    0.000   10.400 
#    0.000   36.000    0.000    0.000    0.000    0.000 
#    0.000    0.000    0.000    0.000    0.000    0.000 
#
# Total GULP energy -222878.948992 kJ/mol
# GULP energy per Si atom -5571.973725 kJ/mol
# Density = 2.262466 g / cm^3
# Si number density = 22.676275 Si / 1000 Ang^3
#
#
#
# Elastic Constant Matrix: (Units=GPa)
#
#
# Indices 1 2 3 4 5 6 
#
# 1 134.3701 13.1970 85.4445 0.0000 0.0000 0.0000
# 2 13.1970 86.8477 43.6989 0.0000 0.0000 0.0000
# 3 85.4445 43.6989 151.8377 0.0000 0.0000 0.0000
# 4 0.0000 0.0000 0.0000 150.6671 0.0000 0.0000
# 5 0.0000 0.0000 0.0000 0.0000 33.8622 0.0000
# 6 0.0000 0.0000 0.0000 0.0000 0.0000 28.3152
#
#
#
# Elastic Compliance Matrix: (Units=1/GPa)
#
#
# Indices 1 2 3 4 5 6 
#
# 1 0.011829 0.001815 -0.007179 0.000000 0.000000 0.000000
# 2 0.001815 0.013743 -0.004976 0.000000 0.000000 0.000000
# 3 -0.007179 -0.004976 0.012058 0.000000 0.000000 0.000000
# 4 0.000000 0.000000 0.000000 0.006637 0.000000 0.000000
# 5 0.000000 0.000000 0.000000 0.000000 0.029531 0.000000
# 6 0.000000 0.000000 0.000000 0.000000 0.000000 0.035317
#
#
# Mechanical properties :
#
#
# Convention : Reuss Voigt Hill
#
# Bulk Modulus (GPa) = 59.00229 73.08181 66.04205
# Shear Modulus (GPa) = 36.91540 57.94989 47.43264
#
# Velocity S-wave (km/s) = 4.03914 5.06071 4.57851
# Velocity P-wave (km/s) = 6.91583 8.15144 7.55893
#
# Compressibility (1/GPa) = 0.01694850
#
# Stress axis : x y z
#
# Youngs Moduli (GPa) = 84.53956 72.76668 82.93335
#
# Poissons Ratio (x) = -0.13205 0.59536
# Poissons Ratio (y) = -0.15341 0.41270
# Poissons Ratio (z) = 0.60689 0.36211
#
# Static dielectric constant tensor:
#      x y z
#    x 1.846130 0.000000 0.000000 
#    y 0.000000 1.901160 0.000000 
#    z 0.000000 0.000000 1.890000 
# 
# From -- ./inp_files/21067.got.cif
#   From: 2010.05.17/outbox.cif.g08.bks.cpg/sg56_11_cif.got.tgz:21067.got - 2010.06.03 13:42:01.
