data_PCOD9432262
_publ_section_title
;
Structure prediction by ZEFSAII (Michael W. Deem and Ramdas Pophale) SiO2 
 PCOD9432262
Probable space group: P C C N
;
_chemical_formula_sum "Si O2"
_cell_formula_units_Z 28
_cell_length_a 5.382311
_cell_length_b 7.238177
_cell_length_c 32.576083
_cell_angle_alpha 90.000000
_cell_angle_beta 90.000000
_cell_angle_gamma 90.000000
_cell_volume 1269.102940
_symmetry_space_group_name_H-M "P C C N"
_symmetry_group_IT_number 56
_symmetry_cell_setting 'orthorhombic'
loop_
_space_group_symop_operation_xyz
x,y,z
1/2-x,1/2-y,z
1/2+x,-y,1/2-z
-x,1/2+y,1/2-z
-x,-y,-z
1/2+x,1/2+y,-z
1/2-x,y,1/2+z
x,1/2-y,1/2+z
loop_
_atom_site_type_symbol
_atom_site_label
_atom_site_fract_x
_atom_site_fract_y
_atom_site_fract_z
Si Si1 0.003006 0.062464 0.916912
Si Si2 0.672042 0.459261 0.724996
Si Si3 0.250000 0.250000 0.842415
Si Si4 0.498425 0.969372 0.048253
O O1 0.052025 0.145427 0.871728
O O2 0.250133 0.959071 0.930949
O O3 0.746712 0.965100 0.927664
O O4 0.999433 0.248368 0.944477
O O5 0.750000 0.250000 0.714188
O O6 0.414558 0.462478 0.750559
O O7 0.633737 0.592577 0.686174
O O8 0.500000 0.000000 0.000000
#
# Coordination Sequence:
#
# PCOD9432262 Si02
#       4
#     8   8   4   8
#     4   9  20  32  55  86 108 167 199 256 337 352
#     4  12  24  42  68 102 129 178 228 274 339 406
#     4  10  22  42  66  90 142 164 222 282 328 404
#     4   9  16  31  53  79 110 144 206 247 300 390
#
# _framework density 22.062830999999999
#
# number of rings (size 3 to 8) (size 9 to 14) (size 15 to 20)
#    0.000    2.286    2.857    0.857    0.000    9.143 
#    0.000    0.000   50.286    0.000    0.000    0.000 
#    0.000    0.000    0.000    0.000    0.000    0.000 
#
# Total GULP energy -156190.059307 kJ/mol
# GULP energy per Si atom -5578.216404 kJ/mol
# Density = 2.201261 g / cm^3
# Si number density = 22.062831 Si / 1000 Ang^3
#
#
#
# Elastic Constant Matrix: (Units=GPa)
#
#
# Indices 1 2 3 4 5 6 
#
# 1 229.5999 9.8627 59.3628 0.0000 0.0000 0.0000
# 2 9.8627 99.4527 33.6759 0.0000 0.0000 0.0000
# 3 59.3628 33.6759 148.3778 0.0000 0.0000 0.0000
# 4 0.0000 0.0000 0.0000 722.1003 0.0000 0.0000
# 5 0.0000 0.0000 0.0000 0.0000 -78.7031 0.0000
# 6 0.0000 0.0000 0.0000 0.0000 0.0000 3.6037
#
#
#
# Elastic Compliance Matrix: (Units=1/GPa)
#
#
# Indices 1 2 3 4 5 6 
#
# 1 0.004861 0.000191 -0.001988 0.000000 0.000000 0.000000
# 2 0.000191 0.010900 -0.002550 0.000000 0.000000 0.000000
# 3 -0.001988 -0.002550 0.008114 0.000000 0.000000 0.000000
# 4 0.000000 0.000000 0.000000 0.001385 0.000000 0.000000
# 5 0.000000 0.000000 0.000000 0.000000 -0.012706 0.000000
# 6 0.000000 0.000000 0.000000 0.000000 0.000000 0.277492
#
#
# Mechanical properties :
#
#
# Convention : Reuss Voigt Hill
#
# Bulk Modulus (GPa) = 65.87632 75.91480 70.89556
# Shear Modulus (GPa) = 16.45820 154.36879 85.41350
#
# Velocity S-wave (km/s) = 2.73421 8.37375 6.22879
# Velocity P-wave (km/s) = 6.31595 11.31265 9.16153
#
# Compressibility (1/GPa) = 0.01517996
#
# Stress axis : x y z
#
# Youngs Moduli (GPa) = 205.70818 91.74625 123.24642
#
# Poissons Ratio (x) = -0.01754 0.24505
# Poissons Ratio (y) = -0.03932 0.31431
# Poissons Ratio (z) = 0.40900 0.23398
#
# Static dielectric constant tensor:
#      x y z
#    x 2.541110 0.000000 0.000000 
#    y 0.000000 1.775810 0.000000 
#    z 0.000000 0.000000 1.792250 
# 
# From -- ./inp_files/21449.got.cif
#   From: 2010.05.17/outbox.cif.g08.bks.cpg/sg56_11_cif.got.tgz:21449.got - 2010.06.03 13:42:01.
