data_PCOD9432608
_publ_section_title
;
Structure prediction by ZEFSAII (Michael W. Deem and Ramdas Pophale) SiO2 
 PCOD9432608
Probable space group: P C C N
;
_chemical_formula_sum "Si O2"
_cell_formula_units_Z 48
_cell_length_a 8.677305
_cell_length_b 10.312498
_cell_length_c 28.094790
_cell_angle_alpha 90.000000
_cell_angle_beta 90.000000
_cell_angle_gamma 90.000000
_cell_volume 2514.053587
_symmetry_space_group_name_H-M "P C C N"
_symmetry_group_IT_number 56
_symmetry_cell_setting 'orthorhombic'
loop_
_space_group_symop_operation_xyz
x,y,z
1/2-x,1/2-y,z
1/2+x,-y,1/2-z
-x,1/2+y,1/2-z
-x,-y,-z
1/2+x,1/2+y,-z
1/2-x,y,1/2+z
x,1/2-y,1/2+z
loop_
_atom_site_type_symbol
_atom_site_label
_atom_site_fract_x
_atom_site_fract_y
_atom_site_fract_z
Si Si1 0.887958 0.349568 0.455281
Si Si2 0.915820 0.505889 0.708866
Si Si3 0.114480 0.146546 0.044861
Si Si4 0.434140 0.259317 0.860933
Si Si5 0.566998 0.724118 0.850468
Si Si6 0.447167 0.989542 0.812850
O O1 0.750000 0.250000 0.460932
O O2 0.829819 0.497789 0.452003
O O3 0.998510 0.342899 0.500987
O O4 0.981397 0.310316 0.407873
O O5 0.961990 0.637520 0.681337
O O6 0.733081 0.492451 0.700799
O O7 0.005197 0.385289 0.685273
O O8 0.956188 0.512386 0.764199
O O9 0.250000 0.250000 0.038271
O O10 0.038482 0.177270 0.095759
O O11 0.250000 0.250000 0.869553
O O12 0.485454 0.117339 0.843495
O O13 0.750000 0.750000 0.844631
O O14 0.482950 0.859134 0.841073
#
# Coordination Sequence:
#
# PCOD9432608 Si02
#       6
#     8   8   8   8   8   8
#     4  11  24  42  69  96 124 165 211 257 315 380
#     4  11  22  42  62  94 128 167 215 264 318 378
#     4  10  24  45  64  95 132 163 206 263 313 376
#     4  10  23  42  62  91 127 166 207 261 317 373
#     4  11  23  41  63  92 128 169 209 265 314 371
#     4  11  24  38  66  92 127 170 213 262 320 378
#
# _framework density 19.092670999999999
#
# number of rings (size 3 to 8) (size 9 to 14) (size 15 to 20)
#    0.000    1.333    1.667    3.000    4.667    4.667 
#    3.000    0.000    0.000    0.000    0.000    0.000 
#    0.000    0.000    0.000    0.000    0.000    0.000 
#
# Total GULP energy -268391.296682 kJ/mol
# GULP energy per Si atom -5591.485348 kJ/mol
# Density = 1.904922 g / cm^3
# Si number density = 19.092671 Si / 1000 Ang^3
#
#
#
# Elastic Constant Matrix: (Units=GPa)
#
#
# Indices 1 2 3 4 5 6 
#
# 1 38.6759 40.9266 23.7488 0.0000 0.0000 0.0000
# 2 40.9266 187.5481 62.0419 0.0000 0.0000 0.0000
# 3 23.7488 62.0419 85.1835 0.0000 0.0000 0.0000
# 4 0.0000 0.0000 0.0000 29.8801 0.0000 0.0000
# 5 0.0000 0.0000 0.0000 0.0000 11.6767 0.0000
# 6 0.0000 0.0000 0.0000 0.0000 0.0000 33.2897
#
#
#
# Elastic Compliance Matrix: (Units=1/GPa)
#
#
# Indices 1 2 3 4 5 6 
#
# 1 0.035546 -0.005900 -0.005613 0.000000 0.000000 0.000000
# 2 -0.005900 0.008004 -0.004184 0.000000 0.000000 0.000000
# 3 -0.005613 -0.004184 0.016352 0.000000 0.000000 0.000000
# 4 0.000000 0.000000 0.000000 0.033467 0.000000 0.000000
# 5 0.000000 0.000000 0.000000 0.000000 0.085640 0.000000
# 6 0.000000 0.000000 0.000000 0.000000 0.000000 0.030039
#
#
# Mechanical properties :
#
#
# Convention : Reuss Voigt Hill
#
# Bulk Modulus (GPa) = 35.07941 62.76022 48.91982
# Shear Modulus (GPa) = 20.00440 27.28199 23.64320
#
# Velocity S-wave (km/s) = 3.24041 3.78421 3.52282
# Velocity P-wave (km/s) = 5.69328 7.21363 6.49807
#
# Compressibility (1/GPa) = 0.02850675
#
# Stress axis : x y z
#
# Youngs Moduli (GPa) = 28.13272 124.94214 61.15507
#
# Poissons Ratio (x) = 0.73716 0.34325
# Poissons Ratio (y) = 0.16598 0.25590
# Poissons Ratio (z) = 0.15790 0.52281
#
# Static dielectric constant tensor:
#      x y z
#    x 1.639250 0.000000 0.000000 
#    y 0.000000 1.647840 0.000000 
#    z 0.000000 0.000000 1.636690 
# 
# From -- ./inp_files/23206.got.cif
#   From: 2010.05.17/outbox.cif.g08.bks.cpg/sg56_12_cif.got.tgz:23206.got - 2010.06.03 13:42:01.
