data_PCOD9432432
_publ_section_title
;
Structure prediction by ZEFSAII (Michael W. Deem and Ramdas Pophale) SiO2 
 PCOD9432432
Probable space group: P C C N
;
_chemical_formula_sum "Si O2"
_cell_formula_units_Z 48
_cell_length_a 5.270702
_cell_length_b 27.840306
_cell_length_c 13.950161
_cell_angle_alpha 90.000000
_cell_angle_beta 90.000000
_cell_angle_gamma 90.000000
_cell_volume 2047.018118
_symmetry_space_group_name_H-M "P C C N"
_symmetry_group_IT_number 56
_symmetry_cell_setting 'orthorhombic'
loop_
_space_group_symop_operation_xyz
x,y,z
1/2-x,1/2-y,z
1/2+x,-y,1/2-z
-x,1/2+y,1/2-z
-x,-y,-z
1/2+x,1/2+y,-z
1/2-x,y,1/2+z
x,1/2-y,1/2+z
loop_
_atom_site_type_symbol
_atom_site_label
_atom_site_fract_x
_atom_site_fract_y
_atom_site_fract_z
Si Si1 0.153129 0.202152 0.793680
Si Si2 0.372103 0.385823 0.194886
Si Si3 0.497429 0.533702 0.351401
Si Si4 0.725184 0.062157 0.837795
Si Si5 0.309917 0.609176 0.978851
Si Si6 0.349196 0.702017 0.576623
O O1 0.250000 0.250000 0.737184
O O2 0.179288 0.153757 0.732678
O O3 0.373991 0.203384 0.875279
O O4 0.874473 0.201108 0.841316
O O5 0.564427 0.397575 0.281650
O O6 0.498089 0.368779 0.097064
O O7 0.253684 0.436404 0.163363
O O8 0.375186 0.535502 0.246008
O O9 0.544022 0.479128 0.381336
O O10 0.332266 0.566942 0.421317
O O11 0.896328 0.084836 0.921201
O O12 0.148830 0.654322 0.013646
O O13 0.250000 0.750000 0.522249
#
# Coordination Sequence:
#
# PCOD9432432 Si02
#       6
#     8   8   8   8   8   8
#     4  10  22  44  72  99 132 184 228 275 343 411
#     4  11  24  41  65  97 132 180 226 283 343 410
#     4  11  24  41  65  95 127 179 234 276 353 404
#     4  11  22  44  65  90 136 177 225 286 339 416
#     4  11  25  40  65 100 132 176 227 286 347 409
#     4  10  22  44  71  98 136 182 224 278 348 406
#
# _framework density 23.448740000000001
#
# number of rings (size 3 to 8) (size 9 to 14) (size 15 to 20)
#    0.000    1.333    3.333    1.500    4.667    2.000 
#    3.000    0.000    0.000    0.000    0.000    0.000 
#    0.000    0.000    0.000    0.000    0.000    0.000 
#
# Total GULP energy -267929.516006 kJ/mol
# GULP energy per Si atom -5581.864917 kJ/mol
# Density = 2.339537 g / cm^3
# Si number density = 23.448740 Si / 1000 Ang^3
#
#
#
# Elastic Constant Matrix: (Units=GPa)
#
#
# Indices 1 2 3 4 5 6 
#
# 1 74.0472 -9.2814 14.6799 0.0000 0.0000 0.0000
# 2 -9.2814 62.5638 1.5226 0.0000 0.0000 0.0000
# 3 14.6799 1.5226 65.6116 0.0000 0.0000 0.0000
# 4 0.0000 0.0000 0.0000 -318.6989 0.0000 0.0000
# 5 0.0000 0.0000 0.0000 0.0000 18.7371 0.0000
# 6 0.0000 0.0000 0.0000 0.0000 0.0000 37.6205
#
#
#
# Elastic Compliance Matrix: (Units=1/GPa)
#
#
# Indices 1 2 3 4 5 6 
#
# 1 0.014434 0.002221 -0.003281 0.000000 0.000000 0.000000
# 2 0.002221 0.016334 -0.000876 0.000000 0.000000 0.000000
# 3 -0.003281 -0.000876 0.015996 0.000000 0.000000 0.000000
# 4 0.000000 0.000000 0.000000 -0.003138 0.000000 0.000000
# 5 0.000000 0.000000 0.000000 0.000000 0.053370 0.000000
# 6 0.000000 0.000000 0.000000 0.000000 0.000000 0.026581
#
#
# Mechanical properties :
#
#
# Convention : Reuss Voigt Hill
#
# Bulk Modulus (GPa) = 23.31429 24.00721 23.66075
# Shear Modulus (GPa) = 35.27425 -39.44817 -2.08696
#
# Velocity S-wave (km/s) = 3.88276 -4.10605 -0.94443
# Velocity P-wave (km/s) = 5.48318 3.49559 2.98715
#
# Compressibility (1/GPa) = 0.04289215
#
# Stress axis : x y z
#
# Youngs Moduli (GPa) = 69.28212 61.22014 62.51716
#
# Poissons Ratio (x) = -0.13598 0.20511
# Poissons Ratio (y) = -0.15388 0.05477
# Poissons Ratio (z) = 0.22731 0.05363
#
# Static dielectric constant tensor:
#      x y z
#    x 1.955980 0.000000 0.000000 
#    y 0.000000 1.371900 0.000000 
#    z 0.000000 0.000000 1.906730 
# 
# From -- ./inp_files/9692.got.cif
#   From: 2010.05.17/outbox.cif.g08.bks.cpg/sg56_5_cif.got.tgz:9692.got - 2010.06.03 13:42:01.
