data_PCOD9432697
_publ_section_title
;
Structure prediction by ZEFSAII (Michael W. Deem and Ramdas Pophale) SiO2 
 PCOD9432697
Probable space group: P C C N
;
_chemical_formula_sum "Si O2"
_cell_formula_units_Z 48
_cell_length_a 10.592769
_cell_length_b 21.243540
_cell_length_c 8.480039
_cell_angle_alpha 90.000000
_cell_angle_beta 90.000000
_cell_angle_gamma 90.000000
_cell_volume 1908.245470
_symmetry_space_group_name_H-M "P C C N"
_symmetry_group_IT_number 56
_symmetry_cell_setting 'orthorhombic'
loop_
_space_group_symop_operation_xyz
x,y,z
1/2-x,1/2-y,z
1/2+x,-y,1/2-z
-x,1/2+y,1/2-z
-x,-y,-z
1/2+x,1/2+y,-z
1/2-x,y,1/2+z
x,1/2-y,1/2+z
loop_
_atom_site_type_symbol
_atom_site_label
_atom_site_fract_x
_atom_site_fract_y
_atom_site_fract_z
Si Si1 0.750000 0.750000 0.736335
Si Si2 0.224726 0.547983 0.152940
Si Si3 0.505383 0.703654 0.595119
Si Si4 0.250000 0.750000 0.716504
Si Si5 0.638550 0.626726 0.835608
Si Si6 0.863688 0.366911 0.121455
Si Si7 0.320522 0.045294 0.386694
O O1 0.625346 0.747712 0.626683
O O2 0.731217 0.687206 0.839412
O O3 0.341116 0.576879 0.254354
O O4 0.129254 0.508740 0.266834
O O5 0.174668 0.604155 0.046186
O O6 0.265026 0.497278 0.024889
O O7 0.377338 0.742118 0.616856
O O8 0.520607 0.654371 0.740132
O O9 0.494246 0.667197 0.427982
O O10 0.227685 0.688041 0.820007
O O11 0.712273 0.580470 0.713944
O O12 0.608444 0.597073 0.006080
#
# Coordination Sequence:
#
# PCOD9432697 Si02
#       7
#     4   8   8   4   8   8   8
#     4   8  22  42  70 104 146 178 242 292 366 424
#     4   9  20  38  67  98 141 188 235 287 352 426
#     4  10  23  44  66 110 138 194 228 297 363 432
#     4  12  24  40  72 102 144 184 234 294 374 430
#     4   9  20  39  70 100 141 183 237 289 353 430
#     4  11  21  40  68  96 145 184 234 287 358 432
#     4   9  18  39  67  96 137 192 236 287 348 423
#
# _framework density 25.153995999999999
#
# number of rings (size 3 to 8) (size 9 to 14) (size 15 to 20)
#    1.000    1.333    1.667    0.500    0.000    3.333 
#    0.000    8.333    7.333    0.000    0.000    0.000 
#    0.000    0.000    0.000    0.000    0.000    0.000 
#
# Total GULP energy -267469.130520 kJ/mol
# GULP energy per Si atom -5572.273553 kJ/mol
# Density = 2.509674 g / cm^3
# Si number density = 25.153996 Si / 1000 Ang^3
#
#
#
# Elastic Constant Matrix: (Units=GPa)
#
#
# Indices 1 2 3 4 5 6 
#
# 1 85.2878 20.7103 18.2472 0.0000 0.0000 0.0000
# 2 20.7103 131.9090 54.2346 0.0000 0.0000 0.0000
# 3 18.2472 54.2346 113.5295 0.0000 0.0000 0.0000
# 4 0.0000 0.0000 0.0000 48.4513 0.0000 0.0000
# 5 0.0000 0.0000 0.0000 0.0000 31.8040 0.0000
# 6 0.0000 0.0000 0.0000 0.0000 0.0000 12.5918
#
#
#
# Elastic Compliance Matrix: (Units=1/GPa)
#
#
# Indices 1 2 3 4 5 6 
#
# 1 0.012346 -0.001397 -0.001317 0.000000 0.000000 0.000000
# 2 -0.001397 0.009592 -0.004358 0.000000 0.000000 0.000000
# 3 -0.001317 -0.004358 0.011102 0.000000 0.000000 0.000000
# 4 0.000000 0.000000 0.000000 0.020639 0.000000 0.000000
# 5 0.000000 0.000000 0.000000 0.000000 0.031443 0.000000
# 6 0.000000 0.000000 0.000000 0.000000 0.000000 0.079417
#
#
# Mechanical properties :
#
#
# Convention : Reuss Voigt Hill
#
# Bulk Modulus (GPa) = 52.91998 57.45672 55.18835
# Shear Modulus (GPa) = 27.02989 34.40504 30.71746
#
# Velocity S-wave (km/s) = 3.28163 3.70236 3.49832
# Velocity P-wave (km/s) = 5.95339 6.41624 6.18915
#
# Compressibility (1/GPa) = 0.01889645
#
# Stress axis : x y z
#
# Youngs Moduli (GPa) = 80.99805 104.25376 90.07634
#
# Poissons Ratio (x) = 0.14563 0.11863
# Poissons Ratio (y) = 0.11314 0.39253
# Poissons Ratio (z) = 0.10668 0.45431
#
# Static dielectric constant tensor:
#      x y z
#    x 2.034250 0.000000 0.000000 
#    y 0.000000 2.126680 0.000000 
#    z 0.000000 0.000000 2.008690 
# 
# From -- ./inp_files/2817.got.cif
#   From: 2010.05.17/outbox.cif.g08.bks.cpg/sg56_2_cif.got.tgz:2817.got - 2010.06.03 13:42:01.
