data_PCOD9432834
_publ_section_title
;
Structure prediction by ZEFSAII (Michael W. Deem and Ramdas Pophale) SiO2 
 PCOD9432834
Probable space group: P C C N
;
_chemical_formula_sum "Si O2"
_cell_formula_units_Z 60
_cell_length_a 8.421761
_cell_length_b 27.635584
_cell_length_c 12.352825
_cell_angle_alpha 90.000000
_cell_angle_beta 90.000000
_cell_angle_gamma 90.000000
_cell_volume 2874.999993
_symmetry_space_group_name_H-M "P C C N"
_symmetry_group_IT_number 56
_symmetry_cell_setting 'orthorhombic'
loop_
_space_group_symop_operation_xyz
x,y,z
1/2-x,1/2-y,z
1/2+x,-y,1/2-z
-x,1/2+y,1/2-z
-x,-y,-z
1/2+x,1/2+y,-z
1/2-x,y,1/2+z
x,1/2-y,1/2+z
loop_
_atom_site_type_symbol
_atom_site_label
_atom_site_fract_x
_atom_site_fract_y
_atom_site_fract_z
Si Si1 0.972128 0.999753 0.371387
Si Si2 0.480092 0.823252 0.994385
Si Si3 0.806235 0.554074 0.263568
Si Si4 0.722605 0.866121 0.602980
Si Si5 0.250000 0.750000 0.110166
Si Si6 0.989417 0.556994 0.475808
Si Si7 0.274706 0.594759 0.611610
Si Si8 0.072521 0.666483 0.738238
O O1 0.867262 0.047545 0.352887
O O2 0.138932 0.009516 0.312401
O O3 0.863730 0.957110 0.320736
O O4 0.000000 0.000000 0.500000
O O5 0.464690 0.827934 0.864829
O O6 0.660911 0.831838 0.034586
O O7 0.386374 0.775686 0.037034
O O8 0.389345 0.866935 0.054769
O O9 0.807196 0.603349 0.196924
O O10 0.941292 0.558900 0.352548
O O11 0.644955 0.910003 0.533682
O O12 0.584276 0.837469 0.664248
O O13 0.327974 0.710455 0.188399
O O14 0.000000 0.500000 0.500000
O O15 0.150766 0.579529 0.518714
O O16 0.176612 0.619082 0.709047
#
# Coordination Sequence:
#
# PCOD9432834 Si02
#       8
#     8   8   8   8   4   8   8   8
#     4  12  27  41  62  94 137 187 244 289 330 399
#     4  11  23  45  73  97 138 170 221 285 349 424
#     4  12  25  39  63  90 134 187 232 284 335 386
#     4  11  24  42  62 104 133 178 226 279 334 408
#     4  10  24  48  74 110 124 168 222 274 356 448
#     4  11  22  40  57  87 135 179 231 275 324 386
#     4  10  24  40  62  95 132 178 233 276 335 404
#     4  10  24  45  72  98 138 169 216 280 351 415
#
# _framework density 20.869567
#
# number of rings (size 3 to 8) (size 9 to 14) (size 15 to 20)
#    0.000    1.067    2.667    2.800    7.467    0.533 
#    0.000    5.333    0.000    0.000    0.000    0.000 
#    0.000    0.000    0.000    0.000    0.000    0.000 
#
# Total GULP energy -335243.321454 kJ/mol
# GULP energy per Si atom -5587.388691 kJ/mol
# Density = 2.082207 g / cm^3
# Si number density = 20.869567 Si / 1000 Ang^3
#
#
#
# Elastic Constant Matrix: (Units=GPa)
#
#
# Indices 1 2 3 4 5 6 
#
# 1 97.5622 32.3361 47.2925 0.0000 0.0000 0.0000
# 2 32.3361 70.7822 26.9570 0.0000 0.0000 0.0000
# 3 47.2925 26.9570 146.7191 0.0000 0.0000 0.0000
# 4 0.0000 0.0000 0.0000 23.5035 0.0000 0.0000
# 5 0.0000 0.0000 0.0000 0.0000 27.2641 0.0000
# 6 0.0000 0.0000 0.0000 0.0000 0.0000 37.7265
#
#
#
# Elastic Compliance Matrix: (Units=1/GPa)
#
#
# Indices 1 2 3 4 5 6 
#
# 1 0.013546 -0.004866 -0.003472 0.000000 0.000000 0.000000
# 2 -0.004866 0.016939 -0.001544 0.000000 0.000000 0.000000
# 3 -0.003472 -0.001544 0.008219 0.000000 0.000000 0.000000
# 4 0.000000 0.000000 0.000000 0.042547 0.000000 0.000000
# 5 0.000000 0.000000 0.000000 0.000000 0.036678 0.000000
# 6 0.000000 0.000000 0.000000 0.000000 0.000000 0.026507
#
#
# Mechanical properties :
#
#
# Convention : Reuss Voigt Hill
#
# Bulk Modulus (GPa) = 52.80012 58.69276 55.74644
# Shear Modulus (GPa) = 29.32352 31.59734 30.46043
#
# Velocity S-wave (km/s) = 3.75251 3.89529 3.82457
# Velocity P-wave (km/s) = 6.64305 6.95814 6.80242
#
# Compressibility (1/GPa) = 0.01893935
#
# Stress axis : x y z
#
# Youngs Moduli (GPa) = 73.82382 59.03647 121.67519
#
# Poissons Ratio (x) = 0.28726 0.42249
# Poissons Ratio (y) = 0.35922 0.18784
# Poissons Ratio (z) = 0.25633 0.09114
#
# Static dielectric constant tensor:
#      x y z
#    x 1.698740 0.000000 0.000000 
#    y 0.000000 1.684620 0.000000 
#    z 0.000000 0.000000 1.844630 
# 
# From -- ./inp_files/6533.got.cif
#   From: 2010.05.17/outbox.cif.g08.bks.cpg/sg56_4_cif.got.tgz:6533.got - 2010.06.03 13:42:01.
