data_PCOD9432238
_publ_section_title
;
Structure prediction by ZEFSAII (Michael W. Deem and Ramdas Pophale) SiO2 
 PCOD9432238
Probable space group: P C C N
;
_chemical_formula_sum "Si O2"
_cell_formula_units_Z 56
_cell_length_a 27.869037
_cell_length_b 6.168834
_cell_length_c 14.590641
_cell_angle_alpha 90.000000
_cell_angle_beta 90.000000
_cell_angle_gamma 90.000000
_cell_volume 2508.415165
_symmetry_space_group_name_H-M "P C C N"
_symmetry_group_IT_number 56
_symmetry_cell_setting 'orthorhombic'
loop_
_space_group_symop_operation_xyz
x,y,z
1/2-x,1/2-y,z
1/2+x,-y,1/2-z
-x,1/2+y,1/2-z
-x,-y,-z
1/2+x,1/2+y,-z
1/2-x,y,1/2+z
x,1/2-y,1/2+z
loop_
_atom_site_type_symbol
_atom_site_label
_atom_site_fract_x
_atom_site_fract_y
_atom_site_fract_z
Si Si1 0.549786 0.561391 0.044994
Si Si2 0.605711 0.675006 0.391213
Si Si3 0.203015 0.850737 0.337978
Si Si4 0.250000 0.250000 0.890186
Si Si5 0.376804 0.779800 0.981177
Si Si6 0.193808 0.073829 0.060353
Si Si7 0.975143 0.786801 0.238003
Si Si8 0.250000 0.750000 0.168650
O O1 0.541360 0.707908 0.132940
O O2 0.500000 0.500000 0.000000
O O3 0.581259 0.676768 0.968569
O O4 0.579045 0.343373 0.065625
O O5 0.606043 0.445025 0.441825
O O6 0.660432 0.760738 0.382853
O O7 0.571090 0.692119 0.304131
O O8 0.250000 0.750000 0.390698
O O9 0.156125 0.860861 0.397677
O O10 0.205165 0.731726 0.240358
O O11 0.221914 0.090330 0.324424
O O12 0.210184 0.168760 0.962807
O O13 0.340901 0.623675 0.035611
O O14 0.239156 0.962712 0.109708
O O15 0.998301 0.536406 0.253110
#
# Coordination Sequence:
#
# PCOD9432238 Si02
#       8
#     8   8   8   4   8   8   8   4
#     4  11  25  48  74 103 147 196 244 311 397 462
#     4  11  26  44  75 105 145 198 254 317 389 467
#     4  10  22  42  63  95 137 186 230 301 363 445
#     4  12  20  42  68  86 136 186 238 278 378 444
#     4  11  23  44  71 100 142 190 248 303 378 462
#     4  11  23  41  64 102 133 189 240 304 369 450
#     4  12  28  50  77 114 153 195 256 326 395 480
#     4  10  24  42  64  96 150 176 242 302 376 436
#
# _framework density 22.324852
#
# number of rings (size 3 to 8) (size 9 to 14) (size 15 to 20)
#    0.429    0.571    4.286    1.714    4.000    4.000 
#    0.000    0.000    0.000    0.000    0.000    0.000 
#    0.000    0.000    0.000    0.000    0.000    0.000 
#
# Total GULP energy -311831.630688 kJ/mol
# GULP energy per Si atom -5568.421977 kJ/mol
# Density = 2.227404 g / cm^3
# Si number density = 22.324852 Si / 1000 Ang^3
#
#
#
# Elastic Constant Matrix: (Units=GPa)
#
#
# Indices 1 2 3 4 5 6 
#
# 1 81.1442 29.0055 12.7322 0.0000 0.0000 0.0000
# 2 29.0055 66.2283 3.3832 0.0000 0.0000 0.0000
# 3 12.7322 3.3832 83.4391 0.0000 0.0000 0.0000
# 4 0.0000 0.0000 0.0000 31.7065 0.0000 0.0000
# 5 0.0000 0.0000 0.0000 0.0000 30.9560 0.0000
# 6 0.0000 0.0000 0.0000 0.0000 0.0000 24.4388
#
#
#
# Elastic Compliance Matrix: (Units=1/GPa)
#
#
# Indices 1 2 3 4 5 6 
#
# 1 0.014943 -0.006441 -0.002019 0.000000 0.000000 0.000000
# 2 -0.006441 0.017907 0.000257 0.000000 0.000000 0.000000
# 3 -0.002019 0.000257 0.012282 0.000000 0.000000 0.000000
# 4 0.000000 0.000000 0.000000 0.031539 0.000000 0.000000
# 5 0.000000 0.000000 0.000000 0.000000 0.032304 0.000000
# 6 0.000000 0.000000 0.000000 0.000000 0.000000 0.040918
#
#
# Mechanical properties :
#
#
# Convention : Reuss Voigt Hill
#
# Bulk Modulus (GPa) = 34.81210 35.67260 35.24235
# Shear Modulus (GPa) = 28.42899 29.79964 29.11432
#
# Velocity S-wave (km/s) = 3.57238 3.65748 3.61518
# Velocity P-wave (km/s) = 5.71342 5.81806 5.76597
#
# Compressibility (1/GPa) = 0.02872564
#
# Stress axis : x y z
#
# Youngs Moduli (GPa) = 66.92078 55.84332 81.41685
#
# Poissons Ratio (x) = 0.35971 0.16438
# Poissons Ratio (y) = 0.43106 -0.02091
# Poissons Ratio (z) = 0.13512 -0.01434
#
# Static dielectric constant tensor:
#      x y z
#    x 1.838890 0.000000 0.000000 
#    y 0.000000 2.022490 0.000000 
#    z 0.000000 0.000000 1.775670 
# 
# From -- ./inp_files/13481.got.cif
#   From: 2010.05.17/outbox.cif.g08.bks.cpg/sg56_7_cif.got.tgz:13481.got - 2010.06.03 13:42:01.
