data_PCOD9432709
_publ_section_title
;
Structure prediction by ZEFSAII (Michael W. Deem and Ramdas Pophale) SiO2 
 PCOD9432709
Probable space group: P C C N
;
_chemical_formula_sum "Si O2"
_cell_formula_units_Z 64
_cell_length_a 9.871134
_cell_length_b 10.068790
_cell_length_c 28.080308
_cell_angle_alpha 90.000000
_cell_angle_beta 90.000000
_cell_angle_gamma 90.000000
_cell_volume 2790.912351
_symmetry_space_group_name_H-M "P C C N"
_symmetry_group_IT_number 56
_symmetry_cell_setting 'orthorhombic'
loop_
_space_group_symop_operation_xyz
x,y,z
1/2-x,1/2-y,z
1/2+x,-y,1/2-z
-x,1/2+y,1/2-z
-x,-y,-z
1/2+x,1/2+y,-z
1/2-x,y,1/2+z
x,1/2-y,1/2+z
loop_
_atom_site_type_symbol
_atom_site_label
_atom_site_fract_x
_atom_site_fract_y
_atom_site_fract_z
Si Si1 0.816051 0.525044 0.644114
Si Si2 0.852179 0.657968 0.736512
Si Si3 0.480030 0.524639 0.342495
Si Si4 0.986184 0.685013 0.384619
Si Si5 0.372004 0.354238 0.951665
Si Si6 0.875337 0.334875 0.248548
Si Si7 0.233196 0.487693 0.671746
Si Si8 0.384086 0.657754 0.983018
O O1 0.866805 0.543017 0.698209
O O2 0.655493 0.532079 0.634933
O O3 0.880586 0.622281 0.605229
O O4 0.872784 0.380599 0.631600
O O5 0.750000 0.750000 0.708506
O O6 0.784471 0.608322 0.784934
O O7 0.985359 0.743652 0.745767
O O8 0.517750 0.668378 0.363917
O O9 0.426509 0.554056 0.288654
O O10 0.623851 0.452919 0.346616
O O11 0.862934 0.594271 0.364116
O O12 0.006519 0.688375 0.441039
O O13 0.250000 0.250000 0.961995
O O14 0.344465 0.501940 0.974761
O O15 0.522385 0.319877 0.970664
O O16 0.750000 0.250000 0.231503
O O17 0.841579 0.397929 0.299171
O O18 0.250000 0.750000 0.980836
#
# Coordination Sequence:
#
# PCOD9432709 Si02
#       8
#     8   8   8   8   8   8   8   8
#     4  11  21  39  62  89 129 168 213 259 331 394
#     4  11  23  36  58  83 120 169 209 259 313 384
#     4  11  23  35  63  90 120 169 221 273 320 394
#     4  11  21  41  64  91 125 165 222 274 323 385
#     4  10  23  44  69 104 138 172 214 281 348 413
#     4  11  23  38  57  84 123 170 221 270 322 384
#     4  11  23  39  54  90 126 163 216 273 321 378
#     4  10  23  46  75 102 133 176 228 282 351 417
#
# _framework density 22.931569
#
# number of rings (size 3 to 8) (size 9 to 14) (size 15 to 20)
#    0.000    1.250    2.500    4.875    1.750    1.500 
#    0.000    4.375    0.000    0.000    0.000    0.000 
#    0.000    0.000    0.000    0.000    0.000    0.000 
#
# Total GULP energy -357011.456538 kJ/mol
# GULP energy per Si atom -5578.304008 kJ/mol
# Density = 2.287938 g / cm^3
# Si number density = 22.931569 Si / 1000 Ang^3
#
#
#
# Elastic Constant Matrix: (Units=GPa)
#
#
# Indices 1 2 3 4 5 6 
#
# 1 165.5532 25.5084 47.8966 0.0000 0.0000 0.0000
# 2 25.5084 49.0394 6.0172 0.0000 0.0000 0.0000
# 3 47.8966 6.0172 94.7402 0.0000 0.0000 0.0000
# 4 0.0000 0.0000 0.0000 14.9516 0.0000 0.0000
# 5 0.0000 0.0000 0.0000 0.0000 31.1855 0.0000
# 6 0.0000 0.0000 0.0000 0.0000 0.0000 32.4598
#
#
#
# Elastic Compliance Matrix: (Units=1/GPa)
#
#
# Indices 1 2 3 4 5 6 
#
# 1 0.007636 -0.003526 -0.003636 0.000000 0.000000 0.000000
# 2 -0.003526 0.022180 0.000374 0.000000 0.000000 0.000000
# 3 -0.003636 0.000374 0.012370 0.000000 0.000000 0.000000
# 4 0.000000 0.000000 0.000000 0.066883 0.000000 0.000000
# 5 0.000000 0.000000 0.000000 0.000000 0.032066 0.000000
# 6 0.000000 0.000000 0.000000 0.000000 0.000000 0.030807
#
#
# Mechanical properties :
#
#
# Convention : Reuss Voigt Hill
#
# Bulk Modulus (GPa) = 34.95428 52.01968 43.48698
# Shear Modulus (GPa) = 25.63392 31.04675 28.34034
#
# Velocity S-wave (km/s) = 3.34704 3.68351 3.51930
# Velocity P-wave (km/s) = 5.49663 6.38944 5.95978
#
# Compressibility (1/GPa) = 0.02860880
#
# Stress axis : x y z
#
# Youngs Moduli (GPa) = 130.96544 45.08607 80.84195
#
# Poissons Ratio (x) = 0.15895 0.29397
# Poissons Ratio (y) = 0.46173 -0.03021
# Poissons Ratio (z) = 0.47623 -0.01685
#
# Static dielectric constant tensor:
#      x y z
#    x 2.017750 0.000000 0.000000 
#    y 0.000000 1.909330 0.000000 
#    z 0.000000 0.000000 1.910100 
# 
# From -- ./inp_files/23414.got.cif
#   From: 2010.05.17/outbox.cif.g08.bks.cpg/sg56_12_cif.got.tgz:23414.got - 2010.06.03 13:42:01.
