data_PCOD9432900
_publ_section_title
;
Structure prediction by ZEFSAII (Michael W. Deem and Ramdas Pophale) SiO2 
 PCOD9432900
Probable space group: P C C N
;
_chemical_formula_sum "Si O2"
_cell_formula_units_Z 52
_cell_length_a 13.422156
_cell_length_b 7.906710
_cell_length_c 21.595446
_cell_angle_alpha 90.000000
_cell_angle_beta 90.000000
_cell_angle_gamma 90.000000
_cell_volume 2291.818760
_symmetry_space_group_name_H-M "P C C N"
_symmetry_group_IT_number 56
_symmetry_cell_setting 'orthorhombic'
loop_
_space_group_symop_operation_xyz
x,y,z
1/2-x,1/2-y,z
1/2+x,-y,1/2-z
-x,1/2+y,1/2-z
-x,-y,-z
1/2+x,1/2+y,-z
1/2-x,y,1/2+z
x,1/2-y,1/2+z
loop_
_atom_site_type_symbol
_atom_site_label
_atom_site_fract_x
_atom_site_fract_y
_atom_site_fract_z
Si Si1 0.742452 0.444330 0.366071
Si Si2 0.354601 0.857986 0.390323
Si Si3 0.425427 0.546469 0.446696
Si Si4 0.750000 0.750000 0.273661
Si Si5 0.777950 0.947605 0.998528
Si Si6 0.978514 0.390751 0.840629
Si Si7 0.439892 0.082203 0.283874
O O1 0.750000 0.250000 0.345405
O O2 0.770251 0.586202 0.316393
O O3 0.799967 0.482451 0.430042
O O4 0.621973 0.456415 0.374101
O O5 0.250000 0.750000 0.381446
O O6 0.436854 0.727357 0.415105
O O7 0.347676 0.000703 0.444195
O O8 0.391310 0.939961 0.327096
O O9 0.500000 0.500000 0.500000
O O10 0.320608 0.545551 0.480345
O O11 0.433430 0.418160 0.389541
O O12 0.847941 0.795431 0.234742
O O13 0.750000 0.750000 0.995090
O O14 0.984322 0.500583 0.778132
O O15 0.980383 0.196067 0.820061
#
# Coordination Sequence:
#
# PCOD9432900 Si02
#       7
#     8   8   8   4   8   8   8
#     4  11  23  44  67  98 135 179 222 284 347 404
#     4  10  24  42  72  97 131 179 225 276 345 412
#     4  11  22  42  66  95 135 170 220 283 344 405
#     4  10  26  42  68  96 134 184 232 276 338 412
#     4  11  22  42  70  96 129 171 225 283 341 409
#     4  11  25  42  66  95 137 175 222 282 337 402
#     4  11  25  45  65 100 133 181 230 279 340 413
#
# _framework density 22.689404
#
# number of rings (size 3 to 8) (size 9 to 14) (size 15 to 20)
#    0.000    1.231    2.308    3.231    7.538    2.462 
#    2.769    1.538    0.000    0.000    0.000    0.000 
#    0.000    0.000    0.000    0.000    0.000    0.000 
#
# Total GULP energy -290458.237730 kJ/mol
# GULP energy per Si atom -5585.735341 kJ/mol
# Density = 2.263776 g / cm^3
# Si number density = 22.689404 Si / 1000 Ang^3
#
#
#
# Elastic Constant Matrix: (Units=GPa)
#
#
# Indices 1 2 3 4 5 6 
#
# 1 19.3018 -2.8809 17.1398 0.0000 0.0000 0.0000
# 2 -2.8809 120.8426 46.9753 0.0000 0.0000 0.0000
# 3 17.1398 46.9753 133.3355 0.0000 0.0000 0.0000
# 4 0.0000 0.0000 0.0000 -366.7401 0.0000 0.0000
# 5 0.0000 0.0000 0.0000 0.0000 73.4342 0.0000
# 6 0.0000 0.0000 0.0000 0.0000 0.0000 31.0918
#
#
#
# Elastic Compliance Matrix: (Units=1/GPa)
#
#
# Indices 1 2 3 4 5 6 
#
# 1 0.061216 0.005235 -0.009714 0.000000 0.000000 0.000000
# 2 0.005235 0.010036 -0.004209 0.000000 0.000000 0.000000
# 3 -0.009714 -0.004209 0.010231 0.000000 0.000000 0.000000
# 4 0.000000 0.000000 0.000000 -0.002727 0.000000 0.000000
# 5 0.000000 0.000000 0.000000 0.000000 0.013618 0.000000
# 6 0.000000 0.000000 0.000000 0.000000 0.000000 0.032163
#
#
# Mechanical properties :
#
#
# Convention : Reuss Voigt Hill
#
# Bulk Modulus (GPa) = 15.59842 43.99425 29.79633
# Shear Modulus (GPa) = 30.62218 -38.29310 -3.83546
#
# Velocity S-wave (km/s) = 3.67771 -4.11263 -1.30157
# Velocity P-wave (km/s) = 4.99237 1.76628 3.30182
#
# Compressibility (1/GPa) = 0.06410907
#
# Stress axis : x y z
#
# Youngs Moduli (GPa) = 16.33571 99.63995 97.73914
#
# Poissons Ratio (x) = -0.52165 0.94939
# Poissons Ratio (y) = -0.08552 0.41136
# Poissons Ratio (z) = 0.15868 0.41937
#
# Static dielectric constant tensor:
#      x y z
#    x 1.812830 0.000000 0.000000 
#    y 0.000000 1.809390 0.000000 
#    z 0.000000 0.000000 1.823330 
# 
# From -- ./inp_files/19040.got.cif
#   From: 2010.05.17/outbox.cif.g08.bks.cpg/sg56_10_cif.got.tgz:19040.got - 2010.06.03 13:42:01.
