data_PCOD9432638
_publ_section_title
;
Structure prediction by ZEFSAII (Michael W. Deem and Ramdas Pophale) SiO2 
 PCOD9432638
Probable space group: P C C N
;
_chemical_formula_sum "Si O2"
_cell_formula_units_Z 40
_cell_length_a 11.097026
_cell_length_b 17.327191
_cell_length_c 9.074932
_cell_angle_alpha 90.000000
_cell_angle_beta 90.000000
_cell_angle_gamma 90.000000
_cell_volume 1744.930548
_symmetry_space_group_name_H-M "P C C N"
_symmetry_group_IT_number 56
_symmetry_cell_setting 'orthorhombic'
loop_
_space_group_symop_operation_xyz
x,y,z
1/2-x,1/2-y,z
1/2+x,-y,1/2-z
-x,1/2+y,1/2-z
-x,-y,-z
1/2+x,1/2+y,-z
1/2-x,y,1/2+z
x,1/2-y,1/2+z
loop_
_atom_site_type_symbol
_atom_site_label
_atom_site_fract_x
_atom_site_fract_y
_atom_site_fract_z
Si Si1 0.619860 0.717963 0.869136
Si Si2 0.131335 0.926492 0.393441
Si Si3 0.613341 0.016424 0.607337
Si Si4 0.531433 0.903090 0.151826
Si Si5 0.531649 0.856529 0.670447
O O1 0.750000 0.750000 0.919645
O O2 0.619930 0.654432 0.737185
O O3 0.563141 0.789917 0.784695
O O4 0.548510 0.681190 0.008146
O O5 0.267382 0.940534 0.446927
O O6 0.045732 0.881622 0.508484
O O7 0.095450 0.890274 0.234280
O O8 0.092874 0.016021 0.384652
O O9 0.568892 0.074213 0.730782
O O10 0.500000 0.000000 0.500000
O O11 0.623908 0.929921 0.674971
#
# Coordination Sequence:
#
# PCOD9432638 Si02
#       5
#     8   8   8   8   8
#     4  12  24  43  71 107 152 196 251 309 378 459
#     4  10  24  43  70 105 147 194 247 311 370 455
#     4  11  23  43  76 107 145 191 259 304 376 442
#     4  10  23  42  70 107 147 191 247 304 385 437
#     4  11  25  43  71 107 150 193 254 309 386 438
#
# _framework density 22.923549999999999
#
# number of rings (size 3 to 8) (size 9 to 14) (size 15 to 20)
#    0.000    1.200    2.000    3.000    5.600    4.800 
#    0.000    2.000    4.400    0.000    0.000    0.000 
#    0.000    0.000    0.000    0.000    0.000    0.000 
#
# Total GULP energy -222751.340262 kJ/mol
# GULP energy per Si atom -5568.783507 kJ/mol
# Density = 2.287138 g / cm^3
# Si number density = 22.923550 Si / 1000 Ang^3
#
#
#
# Elastic Constant Matrix: (Units=GPa)
#
#
# Indices 1 2 3 4 5 6 
#
# 1 85.2126 21.6013 81.8026 0.0000 0.0000 0.0000
# 2 21.6013 82.3750 54.3847 0.0000 0.0000 0.0000
# 3 81.8026 54.3847 143.6887 0.0000 0.0000 0.0000
# 4 0.0000 0.0000 0.0000 42.7680 0.0000 0.0000
# 5 0.0000 0.0000 0.0000 0.0000 21.2989 0.0000
# 6 0.0000 0.0000 0.0000 0.0000 0.0000 19.1616
#
#
#
# Elastic Compliance Matrix: (Units=1/GPa)
#
#
# Indices 1 2 3 4 5 6 
#
# 1 0.026864 0.004069 -0.016834 0.000000 0.000000 0.000000
# 2 0.004069 0.016800 -0.008675 0.000000 0.000000 0.000000
# 3 -0.016834 -0.008675 0.019827 0.000000 0.000000 0.000000
# 4 0.000000 0.000000 0.000000 0.023382 0.000000 0.000000
# 5 0.000000 0.000000 0.000000 0.000000 0.046951 0.000000
# 6 0.000000 0.000000 0.000000 0.000000 0.000000 0.052188
#
#
# Mechanical properties :
#
#
# Convention : Reuss Voigt Hill
#
# Bulk Modulus (GPa) = 48.51814 69.65040 59.08427
# Shear Modulus (GPa) = 21.20780 26.87821 24.04301
#
# Velocity S-wave (km/s) = 3.04493 3.42792 3.24208
# Velocity P-wave (km/s) = 5.79425 6.79097 6.31231
#
# Compressibility (1/GPa) = 0.02061085
#
# Stress axis : x y z
#
# Youngs Moduli (GPa) = 37.22405 59.52368 50.43666
#
# Poissons Ratio (x) = -0.24223 0.84906
# Poissons Ratio (y) = -0.15148 0.43756
# Poissons Ratio (z) = 0.62664 0.51639
#
# Static dielectric constant tensor:
#      x y z
#    x 2.025690 0.000000 0.000000 
#    y 0.000000 1.932040 0.000000 
#    z 0.000000 0.000000 1.965550 
# 
# From -- ./inp_files/2572.got.cif
#   From: 2010.05.17/outbox.cif.g08.bks.cpg/sg56_2_cif.got.tgz:2572.got - 2010.06.03 13:42:01.
