data_PCOD9432018
_publ_section_title
;
Structure prediction by ZEFSAII (Michael W. Deem and Ramdas Pophale) SiO2 
 PCOD9432018
Probable space group: P C C N
;
_chemical_formula_sum "Si O2"
_cell_formula_units_Z 40
_cell_length_a 14.119447
_cell_length_b 5.046487
_cell_length_c 25.094523
_cell_angle_alpha 90.000000
_cell_angle_beta 90.000000
_cell_angle_gamma 90.000000
_cell_volume 1788.075248
_symmetry_space_group_name_H-M "P C C N"
_symmetry_group_IT_number 56
_symmetry_cell_setting 'orthorhombic'
loop_
_space_group_symop_operation_xyz
x,y,z
1/2-x,1/2-y,z
1/2+x,-y,1/2-z
-x,1/2+y,1/2-z
-x,-y,-z
1/2+x,1/2+y,-z
1/2-x,y,1/2+z
x,1/2-y,1/2+z
loop_
_atom_site_type_symbol
_atom_site_label
_atom_site_fract_x
_atom_site_fract_y
_atom_site_fract_z
Si Si1 0.978129 0.248969 0.375914
Si Si2 0.861930 0.759418 0.048113
Si Si3 0.184829 0.006396 0.191281
Si Si4 0.637764 0.258363 0.479435
Si Si5 0.458335 0.955824 0.774463
O O1 0.906932 0.447948 0.345367
O O2 0.917435 0.158698 0.426756
O O3 0.075097 0.350138 0.402257
O O4 0.012331 0.027641 0.334008
O O5 0.750000 0.750000 0.059838
O O6 0.884007 0.466923 0.026147
O O7 0.883764 0.964807 0.000579
O O8 0.250000 0.250000 0.174624
O O9 0.143195 0.041589 0.251033
O O10 0.250000 0.750000 0.189007
O O11 0.750000 0.250000 0.468378
O O12 0.528447 0.149787 0.740711
#
# Coordination Sequence:
#
# PCOD9432018 Si02
#       5
#     8   8   8   8   8
#     4  11  23  41  68  93 122 168 212 255 313 375
#     4  10  23  41  60  91 129 166 208 257 310 370
#     4  11  24  42  64  95 129 164 210 265 318 376
#     4  10  22  39  61  91 127 162 205 257 311 370
#     4  10  23  41  61  90 126 162 206 258 313 373
#
# _framework density 22.370424
#
# number of rings (size 3 to 8) (size 9 to 14) (size 15 to 20)
#    0.000    1.600    0.000    4.200    0.000   12.800 
#    0.000    3.000    0.000    0.000    0.000    0.000 
#    0.000    0.000    0.000    0.000    0.000    0.000 
#
# Total GULP energy -223384.360434 kJ/mol
# GULP energy per Si atom -5584.609011 kJ/mol
# Density = 2.231951 g / cm^3
# Si number density = 22.370424 Si / 1000 Ang^3
#
#
#
# Elastic Constant Matrix: (Units=GPa)
#
#
# Indices 1 2 3 4 5 6 
#
# 1 128.7796 30.7863 68.5078 0.0000 0.0000 0.0000
# 2 30.7863 91.1090 19.5610 0.0000 0.0000 0.0000
# 3 68.5078 19.5610 85.4100 0.0000 0.0000 0.0000
# 4 0.0000 0.0000 0.0000 5.9526 0.0000 0.0000
# 5 0.0000 0.0000 0.0000 0.0000 -8.6819 0.0000
# 6 0.0000 0.0000 0.0000 0.0000 0.0000 15.9851
#
#
#
# Elastic Compliance Matrix: (Units=1/GPa)
#
#
# Indices 1 2 3 4 5 6 
#
# 1 0.014045 -0.002448 -0.010705 0.000000 0.000000 0.000000
# 2 -0.002448 0.011970 -0.000778 0.000000 0.000000 0.000000
# 3 -0.010705 -0.000778 0.020473 0.000000 0.000000 0.000000
# 4 0.000000 0.000000 0.000000 0.167993 0.000000 0.000000
# 5 0.000000 0.000000 0.000000 0.000000 -0.115182 0.000000
# 6 0.000000 0.000000 0.000000 0.000000 0.000000 0.062558
#
#
# Mechanical properties :
#
#
# Convention : Reuss Voigt Hill
#
# Bulk Modulus (GPa) = 53.68722 60.33433 57.01077
# Shear Modulus (GPa) = 25.51952 15.08073 20.30013
#
# Velocity S-wave (km/s) = 3.38119 2.59923 3.01567
# Velocity P-wave (km/s) = 6.26854 6.00309 6.13725
#
# Compressibility (1/GPa) = 0.01862641
#
# Stress axis : x y z
#
# Youngs Moduli (GPa) = 71.19842 83.54217 48.84446
#
# Poissons Ratio (x) = 0.20448 0.52289
# Poissons Ratio (y) = 0.17426 0.03801
# Poissons Ratio (z) = 0.76219 0.06501
#
# Static dielectric constant tensor:
#      x y z
#    x 1.805520 0.000000 0.000000 
#    y 0.000000 1.804810 0.000000 
#    z 0.000000 0.000000 1.841250 
# 
# From -- ./inp_files/21063.got.cif
#   From: 2010.05.17/outbox.cif.g08.bks.cpg/sg56_11_cif.got.tgz:21063.got - 2010.06.03 13:42:01.
