data_PCOD9432951
_publ_section_title
;
Structure prediction by ZEFSAII (Michael W. Deem and Ramdas Pophale) SiO2 
 PCOD9432951
Probable space group: P C C N
;
_chemical_formula_sum "Si O2"
_cell_formula_units_Z 24
_cell_length_a 5.133856
_cell_length_b 18.270497
_cell_length_c 8.861645
_cell_angle_alpha 90.000000
_cell_angle_beta 90.000000
_cell_angle_gamma 90.000000
_cell_volume 831.205470
_symmetry_space_group_name_H-M "P C C N"
_symmetry_group_IT_number 56
_symmetry_cell_setting 'orthorhombic'
loop_
_space_group_symop_operation_xyz
x,y,z
1/2-x,1/2-y,z
1/2+x,-y,1/2-z
-x,1/2+y,1/2-z
-x,-y,-z
1/2+x,1/2+y,-z
1/2-x,y,1/2+z
x,1/2-y,1/2+z
loop_
_atom_site_type_symbol
_atom_site_label
_atom_site_fract_x
_atom_site_fract_y
_atom_site_fract_z
Si Si1 0.716331 0.438559 0.648795
Si Si2 0.982182 0.796744 0.310583
Si Si3 0.387883 0.092207 0.428054
O O1 0.537438 0.370370 0.591080
O O2 0.998686 0.410765 0.595783
O O3 0.642795 0.434769 0.824681
O O4 0.702236 0.523064 0.602213
O O5 0.750000 0.750000 0.374646
O O6 0.250000 0.750000 0.293691
O O7 0.867753 0.830551 0.154509
#
# Coordination Sequence:
#
# PCOD9432951 Si02
#       3
#     8   8   8
#     4   9  21  41  71 102 143 190 247 297 364 431
#     4  10  24  44  70 102 148 191 237 299 366 438
#     4   9  21  41  71 104 143 189 246 299 361 437
#
# _framework density 28.873726000000001
#
# number of rings (size 3 to 8) (size 9 to 14) (size 15 to 20)
#    2.000    0.667    0.000    0.000    4.667    2.667 
#    0.000    6.667    0.000    0.000    0.000    0.000 
#    0.000    0.000    0.000    0.000    0.000    0.000 
#
# Total GULP energy -133849.299325 kJ/mol
# GULP energy per Si atom -5577.054139 kJ/mol
# Density = 2.880801 g / cm^3
# Si number density = 28.873726 Si / 1000 Ang^3
#
#
#
# Elastic Constant Matrix: (Units=GPa)
#
#
# Indices 1 2 3 4 5 6 
#
# 1 136.9311 90.2583 18.2037 0.0000 0.0000 0.0000
# 2 90.2583 252.6919 55.9117 0.0000 0.0000 0.0000
# 3 18.2037 55.9117 76.5658 0.0000 0.0000 0.0000
# 4 0.0000 0.0000 0.0000 69.8290 0.0000 0.0000
# 5 0.0000 0.0000 0.0000 0.0000 28.0444 0.0000
# 6 0.0000 0.0000 0.0000 0.0000 0.0000 82.9883
#
#
#
# Elastic Compliance Matrix: (Units=1/GPa)
#
#
# Indices 1 2 3 4 5 6 
#
# 1 0.009556 -0.003472 0.000263 0.000000 0.000000 0.000000
# 2 -0.003472 0.005981 -0.003542 0.000000 0.000000 0.000000
# 3 0.000263 -0.003542 0.015585 0.000000 0.000000 0.000000
# 4 0.000000 0.000000 0.000000 0.014321 0.000000 0.000000
# 5 0.000000 0.000000 0.000000 0.000000 0.035658 0.000000
# 6 0.000000 0.000000 0.000000 0.000000 0.000000 0.012050
#
#
# Mechanical properties :
#
#
# Convention : Reuss Voigt Hill
#
# Bulk Modulus (GPa) = 56.75162 88.32624 72.53893
# Shear Modulus (GPa) = 44.43420 56.29333 50.36377
#
# Velocity S-wave (km/s) = 3.92716 4.42026 4.18098
# Velocity P-wave (km/s) = 6.34517 7.53051 6.96311
#
# Compressibility (1/GPa) = 0.01762064
#
# Stress axis : x y z
#
# Youngs Moduli (GPa) = 104.64334 167.19082 64.16471
#
# Poissons Ratio (x) = 0.58042 -0.01688
# Poissons Ratio (y) = 0.36328 0.22729
# Poissons Ratio (z) = -0.02753 0.59225
#
# Static dielectric constant tensor:
#      x y z
#    x 2.573240 0.000000 0.000000 
#    y 0.000000 2.334230 0.000000 
#    z 0.000000 0.000000 2.369800 
# 
# From -- ./inp_files/5330.got.cif
#   From: 2010.05.17/outbox.cif.g08.bks.cpg/sg56_3_cif.got.tgz:5330.got - 2010.06.03 13:42:01.
