data_PCOD9432252
_publ_section_title
;
Structure prediction by ZEFSAII (Michael W. Deem and Ramdas Pophale) SiO2 
 PCOD9432252
Probable space group: P C C N
;
_chemical_formula_sum "Si O2"
_cell_formula_units_Z 48
_cell_length_a 13.211766
_cell_length_b 8.469401
_cell_length_c 17.387884
_cell_angle_alpha 90.000000
_cell_angle_beta 90.000000
_cell_angle_gamma 90.000000
_cell_volume 1945.630220
_symmetry_space_group_name_H-M "P C C N"
_symmetry_group_IT_number 56
_symmetry_cell_setting 'orthorhombic'
loop_
_space_group_symop_operation_xyz
x,y,z
1/2-x,1/2-y,z
1/2+x,-y,1/2-z
-x,1/2+y,1/2-z
-x,-y,-z
1/2+x,1/2+y,-z
1/2-x,y,1/2+z
x,1/2-y,1/2+z
loop_
_atom_site_type_symbol
_atom_site_label
_atom_site_fract_x
_atom_site_fract_y
_atom_site_fract_z
Si Si1 0.521306 0.762486 0.714731
Si Si2 0.693663 0.914773 0.125630
Si Si3 0.509471 0.173905 0.532000
Si Si4 0.664214 0.117112 0.970852
Si Si5 0.111208 0.921028 0.819141
Si Si6 0.147824 0.169711 0.633872
O O1 0.592794 0.635366 0.671676
O O2 0.418598 0.683120 0.745298
O O3 0.531029 0.931641 0.672989
O O4 0.574258 0.813768 0.794744
O O5 0.750000 0.750000 0.106326
O O6 0.775651 0.010684 0.177228
O O7 0.674422 0.012256 0.048143
O O8 0.556115 0.295436 0.471624
O O9 0.403860 0.233822 0.564566
O O10 0.500000 0.000000 0.500000
O O11 0.589689 0.174139 0.602565
O O12 0.750000 0.250000 0.968453
O O13 0.669178 0.001825 0.898808
O O14 0.250000 0.250000 0.658980
#
# Coordination Sequence:
#
# PCOD9432252 Si02
#       6
#     8   8   8   8   8   8
#     4  10  24  41  69  97 138 178 221 283 344 402
#     4  10  22  42  71  98 134 180 229 280 338 411
#     4  11  25  42  63 101 135 173 225 283 336 401
#     4  12  24  41  71 101 132 183 232 280 338 407
#     4  10  22  42  65  96 133 176 226 273 341 406
#     4  11  24  43  66  97 139 176 221 282 346 399
#
# _framework density 24.670670000000001
#
# number of rings (size 3 to 8) (size 9 to 14) (size 15 to 20)
#    0.000    1.333    1.667    3.500    9.333    1.333 
#    0.000    0.000    7.333    0.000    0.000    0.000 
#    0.000    0.000    0.000    0.000    0.000    0.000 
#
# Total GULP energy -268943.561519 kJ/mol
# GULP energy per Si atom -5602.990865 kJ/mol
# Density = 2.461452 g / cm^3
# Si number density = 24.670670 Si / 1000 Ang^3
#
#
#
# Elastic Constant Matrix: (Units=GPa)
#
#
# Indices 1 2 3 4 5 6 
#
# 1 35.2455 17.9003 19.1911 0.0000 0.0000 0.0000
# 2 17.9003 99.8443 47.3749 0.0000 0.0000 0.0000
# 3 19.1911 47.3749 90.8102 0.0000 0.0000 0.0000
# 4 0.0000 0.0000 0.0000 52.6947 0.0000 0.0000
# 5 0.0000 0.0000 0.0000 0.0000 403.0329 0.0000
# 6 0.0000 0.0000 0.0000 0.0000 0.0000 45.3145
#
#
#
# Elastic Compliance Matrix: (Units=1/GPa)
#
#
# Indices 1 2 3 4 5 6 
#
# 1 0.032936 -0.003458 -0.005156 0.000000 0.000000 0.000000
# 2 -0.003458 0.013674 -0.006403 0.000000 0.000000 0.000000
# 3 -0.005156 -0.006403 0.015442 0.000000 0.000000 0.000000
# 4 0.000000 0.000000 0.000000 0.018977 0.000000 0.000000
# 5 0.000000 0.000000 0.000000 0.000000 0.002481 0.000000
# 6 0.000000 0.000000 0.000000 0.000000 0.000000 0.022068
#
#
# Mechanical properties :
#
#
# Convention : Reuss Voigt Hill
#
# Bulk Modulus (GPa) = 31.23300 43.87030 37.55165
# Shear Modulus (GPa) = 34.17987 109.63732 71.90860
#
# Velocity S-wave (km/s) = 3.72620 6.67359 5.40469
# Velocity P-wave (km/s) = 5.58571 8.78655 7.36219
#
# Compressibility (1/GPa) = 0.03201741
#
# Stress axis : x y z
#
# Youngs Moduli (GPa) = 30.36158 73.13401 64.75918
#
# Poissons Ratio (x) = 0.25292 0.33392
# Poissons Ratio (y) = 0.10500 0.41462
# Poissons Ratio (z) = 0.15655 0.46824
#
# Static dielectric constant tensor:
#      x y z
#    x 1.956720 0.000000 0.000000 
#    y 0.000000 1.988560 0.000000 
#    z 0.000000 0.000000 1.985380 
# 
# From -- ./inp_files/16150.got.cif
#   From: 2010.05.17/outbox.cif.g08.bks.cpg/sg56_9_cif.got.tgz:16150.got - 2010.06.03 13:42:01.
