data_PCOD9432033
_publ_section_title
;
Structure prediction by ZEFSAII (Michael W. Deem and Ramdas Pophale) SiO2 
 PCOD9432033
Probable space group: P C C N
;
_chemical_formula_sum "Si O2"
_cell_formula_units_Z 48
_cell_length_a 8.907521
_cell_length_b 14.477191
_cell_length_c 15.305368
_cell_angle_alpha 90.000000
_cell_angle_beta 90.000000
_cell_angle_gamma 90.000000
_cell_volume 1973.717243
_symmetry_space_group_name_H-M "P C C N"
_symmetry_group_IT_number 56
_symmetry_cell_setting 'orthorhombic'
loop_
_space_group_symop_operation_xyz
x,y,z
1/2-x,1/2-y,z
1/2+x,-y,1/2-z
-x,1/2+y,1/2-z
-x,-y,-z
1/2+x,1/2+y,-z
1/2-x,y,1/2+z
x,1/2-y,1/2+z
loop_
_atom_site_type_symbol
_atom_site_label
_atom_site_fract_x
_atom_site_fract_y
_atom_site_fract_z
Si Si1 0.250000 0.250000 0.441771
Si Si2 0.329153 0.939977 0.863165
Si Si3 0.869385 0.546600 0.774161
Si Si4 0.399126 0.591814 0.992380
Si Si5 0.250000 0.750000 0.290234
Si Si6 0.978447 0.208891 0.840579
Si Si7 0.665862 0.842630 0.394839
O O1 0.393411 0.268091 0.385061
O O2 0.275229 0.163552 0.505411
O O3 0.489799 0.980559 0.835703
O O4 0.262346 0.942733 0.959963
O O5 0.325140 0.830624 0.844491
O O6 0.204178 0.980100 0.796918
O O7 0.732264 0.577193 0.836491
O O8 0.938401 0.630935 0.717189
O O9 0.488406 0.649960 0.915437
O O10 0.500000 0.500000 0.000000
O O11 0.396795 0.652946 0.080394
O O12 0.119867 0.726095 0.220488
O O13 0.750000 0.750000 0.358336
#
# Coordination Sequence:
#
# PCOD9432033 Si02
#       7
#     4   8   8   8   4   8   8
#     4   8  20  36  60  92 124 168 202 256 312 382
#     4  11  25  42  66  91 132 164 220 259 327 376
#     4  11  23  41  64  95 122 172 212 264 312 383
#     4  11  22  43  65  90 129 172 204 268 321 381
#     4  10  26  40  60 100 118 164 212 268 306 376
#     4  10  22  39  64  88 126 158 214 252 324 360
#     4   9  22  39  62  94 126 165 214 253 321 384
#
# _framework density 24.319592
#
# number of rings (size 3 to 8) (size 9 to 14) (size 15 to 20)
#    0.500    1.333    1.667    1.000    8.167    3.333 
#    0.000    0.833    0.000    0.000    0.000    0.000 
#    0.000    0.000    0.000    0.000    0.000    0.000 
#
# Total GULP energy -267760.372864 kJ/mol
# GULP energy per Si atom -5578.341101 kJ/mol
# Density = 2.426424 g / cm^3
# Si number density = 24.319592 Si / 1000 Ang^3
#
#
#
# Elastic Constant Matrix: (Units=GPa)
#
#
# Indices 1 2 3 4 5 6 
#
# 1 33.4909 -12.0055 10.3948 0.0000 0.0000 0.0000
# 2 -12.0055 41.1480 -11.1711 0.0000 0.0000 0.0000
# 3 10.3948 -11.1711 62.4598 0.0000 0.0000 0.0000
# 4 0.0000 0.0000 0.0000 2.3034 0.0000 0.0000
# 5 0.0000 0.0000 0.0000 0.0000 -46.6826 0.0000
# 6 0.0000 0.0000 0.0000 0.0000 0.0000 29.2672
#
#
#
# Elastic Compliance Matrix: (Units=1/GPa)
#
#
# Indices 1 2 3 4 5 6 
#
# 1 0.034327 0.008896 -0.004122 0.000000 0.000000 0.000000
# 2 0.008896 0.027848 0.003500 0.000000 0.000000 0.000000
# 3 -0.004122 0.003500 0.017322 0.000000 0.000000 0.000000
# 4 0.000000 0.000000 0.000000 0.434136 0.000000 0.000000
# 5 0.000000 0.000000 0.000000 0.000000 -0.021421 0.000000
# 6 0.000000 0.000000 0.000000 0.000000 0.000000 0.034168
#
#
# Mechanical properties :
#
#
# Convention : Reuss Voigt Hill
#
# Bulk Modulus (GPa) = 10.41147 12.39278 11.40213
# Shear Modulus (GPa) = 9.22770 6.96963 8.09866
#
# Velocity S-wave (km/s) = 1.95002 1.69472 1.82684
# Velocity P-wave (km/s) = 3.05950 2.98936 3.02463
#
# Compressibility (1/GPa) = 0.09604787
#
# Stress axis : x y z
#
# Youngs Moduli (GPa) = 29.13136 35.90863 57.72917
#
# Poissons Ratio (x) = -0.31946 0.23794
# Poissons Ratio (y) = -0.25917 -0.20206
# Poissons Ratio (z) = 0.12007 -0.12569
#
# Static dielectric constant tensor:
#      x y z
#    x 2.083160 0.000000 0.000000 
#    y 0.000000 1.724890 0.000000 
#    z 0.000000 0.000000 1.962250 
# 
# From -- ./inp_files/10717.got.cif
#   From: 2010.05.17/outbox.cif.g08.bks.cpg/sg56_6_cif.got.tgz:10717.got - 2010.06.03 13:42:01.
