data_PCOD9432230
_publ_section_title
;
Structure prediction by ZEFSAII (Michael W. Deem and Ramdas Pophale) SiO2 
 PCOD9432230
Probable space group: P C C N
;
_chemical_formula_sum "Si O2"
_cell_formula_units_Z 36
_cell_length_a 5.052071
_cell_length_b 12.032361
_cell_length_c 25.922226
_cell_angle_alpha 90.000000
_cell_angle_beta 90.000000
_cell_angle_gamma 90.000000
_cell_volume 1575.769141
_symmetry_space_group_name_H-M "P C C N"
_symmetry_group_IT_number 56
_symmetry_cell_setting 'orthorhombic'
loop_
_space_group_symop_operation_xyz
x,y,z
1/2-x,1/2-y,z
1/2+x,-y,1/2-z
-x,1/2+y,1/2-z
-x,-y,-z
1/2+x,1/2+y,-z
1/2-x,y,1/2+z
x,1/2-y,1/2+z
loop_
_atom_site_type_symbol
_atom_site_label
_atom_site_fract_x
_atom_site_fract_y
_atom_site_fract_z
Si Si1 0.453809 0.577063 0.574583
Si Si2 0.497208 0.326126 0.538906
Si Si3 0.750000 0.250000 0.781179
Si Si4 0.449565 0.093694 0.361255
Si Si5 0.026611 0.444955 0.726697
O O1 0.500524 0.445507 0.566707
O O2 0.513695 0.640556 0.521737
O O3 0.152204 0.596507 0.591216
O O4 0.655096 0.615501 0.619179
O O5 0.750000 0.250000 0.548381
O O6 0.250000 0.250000 0.552790
O O7 0.932613 0.176022 0.818551
O O8 0.936429 0.325438 0.745651
O O9 0.469505 0.974819 0.332474
O O10 0.827463 0.525562 0.759278
#
# Coordination Sequence:
#
# PCOD9432230 Si02
#       5
#     8   8   4   8   8
#     4  11  25  43  66 104 131 166 220 278 306 390
#     4  11  24  45  69  94 140 173 206 262 345 385
#     4  10  24  42  70  94 128 182 210 276 334 376
#     4  11  23  41  68  99 132 166 228 269 310 396
#     4  10  22  42  61  93 134 168 206 270 327 376
#
# _framework density 22.845984999999999
#
# number of rings (size 3 to 8) (size 9 to 14) (size 15 to 20)
#    0.000    1.333    0.000    5.333    4.667   10.667 
#    6.000    0.000    4.889    0.000    0.000    0.000 
#    0.000    0.000    0.000    0.000    0.000    0.000 
#
# Total GULP energy -201633.830741 kJ/mol
# GULP energy per Si atom -5600.939743 kJ/mol
# Density = 2.279399 g / cm^3
# Si number density = 22.845985 Si / 1000 Ang^3
#
#
#
# Elastic Constant Matrix: (Units=GPa)
#
#
# Indices 1 2 3 4 5 6 
#
# 1 107.4299 25.6875 -1.0279 0.0000 0.0000 0.0000
# 2 25.6875 112.3106 1.4000 0.0000 0.0000 0.0000
# 3 -1.0279 1.4000 40.6096 0.0000 0.0000 0.0000
# 4 0.0000 0.0000 0.0000 27.2968 0.0000 0.0000
# 5 0.0000 0.0000 0.0000 0.0000 46.1744 0.0000
# 6 0.0000 0.0000 0.0000 0.0000 0.0000 32.9884
#
#
#
# Elastic Compliance Matrix: (Units=1/GPa)
#
#
# Indices 1 2 3 4 5 6 
#
# 1 0.009851 -0.002257 0.000327 0.000000 0.000000 0.000000
# 2 -0.002257 0.009425 -0.000382 0.000000 0.000000 0.000000
# 3 0.000327 -0.000382 0.024646 0.000000 0.000000 0.000000
# 4 0.000000 0.000000 0.000000 0.036634 0.000000 0.000000
# 5 0.000000 0.000000 0.000000 0.000000 0.021657 0.000000
# 6 0.000000 0.000000 0.000000 0.000000 0.000000 0.030314
#
#
# Mechanical properties :
#
#
# Convention : Reuss Voigt Hill
#
# Bulk Modulus (GPa) = 25.44653 34.71882 30.08268
# Shear Modulus (GPa) = 33.27764 36.91128 35.09446
#
# Velocity S-wave (km/s) = 3.82069 4.02388 3.92360
# Velocity P-wave (km/s) = 5.53408 6.06785 5.80710
#
# Compressibility (1/GPa) = 0.03929808
#
# Stress axis : x y z
#
# Youngs Moduli (GPa) = 101.50991 106.10181 40.57424
#
# Poissons Ratio (x) = 0.23950 -0.01327
# Poissons Ratio (y) = 0.22913 0.01550
# Poissons Ratio (z) = -0.03321 0.04054
#
# Static dielectric constant tensor:
#      x y z
#    x 1.731060 0.000000 0.000000 
#    y 0.000000 1.899110 0.000000 
#    z 0.000000 0.000000 1.821210 
# 
# From -- ./inp_files/19883.got.cif
#   From: 2010.05.17/outbox.cif.g08.bks.cpg/sg56_10_cif.got.tgz:19883.got - 2010.06.03 13:42:01.
