data_PCOD9432588
_publ_section_title
;
Structure prediction by ZEFSAII (Michael W. Deem and Ramdas Pophale) SiO2 
 PCOD9432588
Probable space group: P C C N
;
_chemical_formula_sum "Si O2"
_cell_formula_units_Z 56
_cell_length_a 14.243786
_cell_length_b 12.999908
_cell_length_c 14.445461
_cell_angle_alpha 90.000000
_cell_angle_beta 90.000000
_cell_angle_gamma 90.000000
_cell_volume 2674.835787
_symmetry_space_group_name_H-M "P C C N"
_symmetry_group_IT_number 56
_symmetry_cell_setting 'orthorhombic'
loop_
_space_group_symop_operation_xyz
x,y,z
1/2-x,1/2-y,z
1/2+x,-y,1/2-z
-x,1/2+y,1/2-z
-x,-y,-z
1/2+x,1/2+y,-z
1/2-x,y,1/2+z
x,1/2-y,1/2+z
loop_
_atom_site_type_symbol
_atom_site_label
_atom_site_fract_x
_atom_site_fract_y
_atom_site_fract_z
Si Si1 0.334396 0.177888 0.860476
Si Si2 0.392396 0.161462 0.208724
Si Si3 0.346273 0.813692 0.297709
Si Si4 0.358395 0.777586 0.503142
Si Si5 0.067083 0.870758 0.185823
Si Si6 0.239970 0.490528 0.744300
Si Si7 0.513781 0.621319 0.488185
O O1 0.250000 0.250000 0.895995
O O2 0.369184 0.233183 0.764668
O O3 0.290168 0.066535 0.838716
O O4 0.418686 0.164767 0.931651
O O5 0.462324 0.102877 0.281318
O O6 0.295134 0.100408 0.192483
O O7 0.444533 0.157894 0.110526
O O8 0.250000 0.750000 0.304037
O O9 0.372442 0.830863 0.403916
O O10 0.412620 0.736392 0.241812
O O11 0.316445 0.918920 0.250264
O O12 0.250000 0.750000 0.524846
O O13 0.410491 0.843172 0.580823
O O14 0.411575 0.670033 0.496801
O O15 0.143861 0.957139 0.210693
O O16 0.500000 0.500000 0.500000
#
# Coordination Sequence:
#
# PCOD9432588 Si02
#       7
#     8   8   8   8   8   8   8
#     4  10  24  46  68  95 140 179 224 277 331 399
#     4  11  24  43  67  96 134 178 221 275 335 396
#     4   9  20  37  60  89 131 162 208 276 334 386
#     4  11  23  39  64  98 133 166 217 276 344 383
#     4  11  21  40  64  94 131 168 215 281 334 390
#     4  10  23  41  66  96 128 179 222 268 334 402
#     4  12  26  42  73 103 131 180 233 273 332 415
#
# _framework density 20.935866000000001
#
# number of rings (size 3 to 8) (size 9 to 14) (size 15 to 20)
#    0.000    1.429    2.857    2.143    8.000    2.857 
#    0.000    2.143    0.000    0.000    0.000    0.000 
#    0.000    0.000    0.000    0.000    0.000    0.000 
#
# Total GULP energy -312343.628119 kJ/mol
# GULP energy per Si atom -5577.564788 kJ/mol
# Density = 2.088821 g / cm^3
# Si number density = 20.935866 Si / 1000 Ang^3
#
#
#
# Elastic Constant Matrix: (Units=GPa)
#
#
# Indices 1 2 3 4 5 6 
#
# 1 112.4595 28.5945 11.4887 0.0000 0.0000 0.0000
# 2 28.5945 60.8605 18.6128 0.0000 0.0000 0.0000
# 3 11.4887 18.6128 72.5318 0.0000 0.0000 0.0000
# 4 0.0000 0.0000 0.0000 3.9663 0.0000 0.0000
# 5 0.0000 0.0000 0.0000 0.0000 7.7908 0.0000
# 6 0.0000 0.0000 0.0000 0.0000 0.0000 41.6293
#
#
#
# Elastic Compliance Matrix: (Units=1/GPa)
#
#
# Indices 1 2 3 4 5 6 
#
# 1 0.010110 -0.004623 -0.000415 0.000000 0.000000 0.000000
# 2 -0.004623 0.019944 -0.004386 0.000000 0.000000 0.000000
# 3 -0.000415 -0.004386 0.014978 0.000000 0.000000 0.000000
# 4 0.000000 0.000000 0.000000 0.252125 0.000000 0.000000
# 5 0.000000 0.000000 0.000000 0.000000 0.128356 0.000000
# 6 0.000000 0.000000 0.000000 0.000000 0.000000 0.024022
#
#
# Mechanical properties :
#
#
# Convention : Reuss Voigt Hill
#
# Bulk Modulus (GPa) = 38.19001 40.36040 39.27520
# Shear Modulus (GPa) = 10.47973 23.15433 16.81703
#
# Velocity S-wave (km/s) = 2.23976 3.32921 2.83727
# Velocity P-wave (km/s) = 4.99697 5.83936 5.43451
#
# Compressibility (1/GPa) = 0.02618486
#
# Stress axis : x y z
#
# Youngs Moduli (GPa) = 98.91216 50.13935 66.76348
#
# Poissons Ratio (x) = 0.23180 0.02771
# Poissons Ratio (y) = 0.45728 0.29281
# Poissons Ratio (z) = 0.04105 0.21990
#
# Static dielectric constant tensor:
#      x y z
#    x 1.814200 0.000000 0.000000 
#    y 0.000000 1.798660 0.000000 
#    z 0.000000 0.000000 1.774010 
# 
# From -- ./inp_files/12264.got.cif
#   From: 2010.05.17/outbox.cif.g08.bks.cpg/sg56_7_cif.got.tgz:12264.got - 2010.06.03 13:42:01.
