data_PCOD9432216
_publ_section_title
;
Structure prediction by ZEFSAII (Michael W. Deem and Ramdas Pophale) SiO2 
 PCOD9432216
Probable space group: P C C N
;
_chemical_formula_sum "Si O2"
_cell_formula_units_Z 36
_cell_length_a 7.846719
_cell_length_b 8.030192
_cell_length_c 21.188886
_cell_angle_alpha 90.000000
_cell_angle_beta 90.000000
_cell_angle_gamma 90.000000
_cell_volume 1335.125694
_symmetry_space_group_name_H-M "P C C N"
_symmetry_group_IT_number 56
_symmetry_cell_setting 'orthorhombic'
loop_
_space_group_symop_operation_xyz
x,y,z
1/2-x,1/2-y,z
1/2+x,-y,1/2-z
-x,1/2+y,1/2-z
-x,-y,-z
1/2+x,1/2+y,-z
1/2-x,y,1/2+z
x,1/2-y,1/2+z
loop_
_atom_site_type_symbol
_atom_site_label
_atom_site_fract_x
_atom_site_fract_y
_atom_site_fract_z
Si Si1 0.563960 0.197073 0.654522
Si Si2 0.541355 0.458539 0.283112
Si Si3 0.750000 0.750000 0.150579
Si Si4 0.750000 0.750000 0.932754
Si Si5 0.250000 0.750000 0.130021
Si Si6 0.946734 0.663053 0.539571
O O1 0.750000 0.250000 0.626618
O O2 0.512401 0.361557 0.694371
O O3 0.577836 0.059453 0.709431
O O4 0.395061 0.169958 0.611638
O O5 0.393805 0.332998 0.306949
O O6 0.705622 0.399746 0.322858
O O7 0.682882 0.618360 0.097013
O O8 0.616578 0.803685 0.989007
O O9 0.402885 0.731819 0.081594
O O10 0.000000 0.500000 0.500000
#
# Coordination Sequence:
#
# PCOD9432216 Si02
#       6
#     8   8   4   4   4   8
#     4  12  29  45  74 104 148 191 239 306 360 444
#     4  11  25  46  69 107 138 191 246 292 375 426
#     4   9  23  40  68  96 137 183 232 300 346 429
#     4  11  27  44  66 110 137 187 242 288 364 433
#     4  10  22  44  74 102 144 190 244 306 360 434
#     4  10  22  41  69  98 138 185 232 294 356 422
#
# _framework density 26.963754999999999
#
# number of rings (size 3 to 8) (size 9 to 14) (size 15 to 20)
#    0.000    1.333    1.111    2.000   10.889    1.778 
#    0.000    6.667    0.000    0.000    0.000    0.000 
#    0.000    0.000    0.000    0.000    0.000    0.000 
#
# Total GULP energy -200818.967513 kJ/mol
# GULP energy per Si atom -5578.304653 kJ/mol
# Density = 2.690238 g / cm^3
# Si number density = 26.963755 Si / 1000 Ang^3
#
#
#
# Elastic Constant Matrix: (Units=GPa)
#
#
# Indices 1 2 3 4 5 6 
#
# 1 146.3309 2.1075 82.0401 0.0000 0.0000 0.0000
# 2 2.1075 59.8327 14.3334 0.0000 0.0000 0.0000
# 3 82.0401 14.3334 205.0176 0.0000 0.0000 0.0000
# 4 0.0000 0.0000 0.0000 22.2932 0.0000 0.0000
# 5 0.0000 0.0000 0.0000 0.0000 35.7596 0.0000
# 6 0.0000 0.0000 0.0000 0.0000 0.0000 29.1040
#
#
#
# Elastic Compliance Matrix: (Units=1/GPa)
#
#
# Indices 1 2 3 4 5 6 
#
# 1 0.008828 0.000544 -0.003571 0.000000 0.000000 0.000000
# 2 0.000544 0.017032 -0.001409 0.000000 0.000000 0.000000
# 3 -0.003571 -0.001409 0.006405 0.000000 0.000000 0.000000
# 4 0.000000 0.000000 0.000000 0.044857 0.000000 0.000000
# 5 0.000000 0.000000 0.000000 0.000000 0.027965 0.000000
# 6 0.000000 0.000000 0.000000 0.000000 0.000000 0.034360
#
#
# Mechanical properties :
#
#
# Convention : Reuss Voigt Hill
#
# Bulk Modulus (GPa) = 42.74464 67.57147 55.15806
# Shear Modulus (GPa) = 32.02810 38.27804 35.15307
#
# Velocity S-wave (km/s) = 3.45022 3.77186 3.61462
# Velocity P-wave (km/s) = 5.63552 6.63956 6.15803
#
# Compressibility (1/GPa) = 0.02339475
#
# Stress axis : x y z
#
# Youngs Moduli (GPa) = 113.27781 58.71465 156.12955
#
# Poissons Ratio (x) = -0.03197 0.55748
# Poissons Ratio (y) = -0.06167 0.21992
# Poissons Ratio (z) = 0.40447 0.08270
#
# Static dielectric constant tensor:
#      x y z
#    x 2.320540 0.000000 0.000000 
#    y 0.000000 2.237310 0.000000 
#    z 0.000000 0.000000 2.074100 
# 
# From -- ./inp_files/17902.got.cif
#   From: 2010.05.17/outbox.cif.g08.bks.cpg/sg56_9_cif.got.tgz:17902.got - 2010.06.03 13:42:01.
