data_PCOD9432409
_publ_section_title
;
Structure prediction by ZEFSAII (Michael W. Deem and Ramdas Pophale) SiO2 
 PCOD9432409
Probable space group: P C C N
;
_chemical_formula_sum "Si O2"
_cell_formula_units_Z 56
_cell_length_a 13.261981
_cell_length_b 15.836079
_cell_length_c 10.959983
_cell_angle_alpha 90.000000
_cell_angle_beta 90.000000
_cell_angle_gamma 90.000000
_cell_volume 2301.791285
_symmetry_space_group_name_H-M "P C C N"
_symmetry_group_IT_number 56
_symmetry_cell_setting 'orthorhombic'
loop_
_space_group_symop_operation_xyz
x,y,z
1/2-x,1/2-y,z
1/2+x,-y,1/2-z
-x,1/2+y,1/2-z
-x,-y,-z
1/2+x,1/2+y,-z
1/2-x,y,1/2+z
x,1/2-y,1/2+z
loop_
_atom_site_type_symbol
_atom_site_label
_atom_site_fract_x
_atom_site_fract_y
_atom_site_fract_z
Si Si1 0.250000 0.750000 0.279622
Si Si2 0.250000 0.250000 0.912761
Si Si3 0.524506 0.926308 0.846108
Si Si4 0.739783 0.580834 0.247456
Si Si5 0.033722 0.285810 0.967811
Si Si6 0.831378 0.079439 0.103886
Si Si7 0.035398 0.408429 0.754720
Si Si8 0.906268 0.146482 0.878514
O O1 0.284432 0.830652 0.357555
O O2 0.164219 0.788617 0.193091
O O3 0.271843 0.332483 0.829834
O O4 0.150906 0.268299 0.991247
O O5 0.645821 0.928491 0.838767
O O6 0.481533 0.896925 0.715184
O O7 0.477289 0.018747 0.858340
O O8 0.492061 0.855558 0.941126
O O9 0.729969 0.499175 0.158741
O O10 0.852916 0.585043 0.299505
O O11 0.028149 0.321297 0.829340
O O12 0.971092 0.201070 0.973230
O O13 0.942090 0.075972 0.166024
O O14 0.842123 0.081157 0.958329
#
# Coordination Sequence:
#
# PCOD9432409 Si02
#       8
#     4   4   8   8   8   8   8   8
#     4  12  24  46  68 104 140 184 234 290 352 420
#     4  10  22  44  68 100 142 182 230 276 344 416
#     4  11  24  44  68  99 140 180 235 289 346 414
#     4  10  23  45  69 104 138 183 236 283 345 412
#     4  11  23  43  68 100 137 184 230 282 347 416
#     4  11  25  46  72 104 140 184 233 293 346 415
#     4  10  23  46  70  99 138 183 233 284 347 412
#     4  12  25  43  69 103 136 181 232 288 355 409
#
# _framework density 24.328880000000002
#
# number of rings (size 3 to 8) (size 9 to 14) (size 15 to 20)
#    0.000    1.143    2.857    2.571    0.000    5.143 
#   15.429    0.000    0.000    0.000    0.000    0.000 
#    0.000    0.000    0.000    0.000    0.000    0.000 
#
# Total GULP energy -313610.400593 kJ/mol
# GULP energy per Si atom -5600.185725 kJ/mol
# Density = 2.427351 g / cm^3
# Si number density = 24.328880 Si / 1000 Ang^3
#
#
#
# Elastic Constant Matrix: (Units=GPa)
#
#
# Indices 1 2 3 4 5 6 
#
# 1 108.8542 12.7540 -1.2066 0.0000 0.0000 0.0000
# 2 12.7540 127.3171 16.5432 0.0000 0.0000 0.0000
# 3 -1.2066 16.5432 41.5222 0.0000 0.0000 0.0000
# 4 0.0000 0.0000 0.0000 25.9446 0.0000 0.0000
# 5 0.0000 0.0000 0.0000 0.0000 6.6010 0.0000
# 6 0.0000 0.0000 0.0000 0.0000 0.0000 39.4474
#
#
#
# Elastic Compliance Matrix: (Units=1/GPa)
#
#
# Indices 1 2 3 4 5 6 
#
# 1 0.009314 -0.001021 0.000677 0.000000 0.000000 0.000000
# 2 -0.001021 0.008395 -0.003374 0.000000 0.000000 0.000000
# 3 0.000677 -0.003374 0.025448 0.000000 0.000000 0.000000
# 4 0.000000 0.000000 0.000000 0.038544 0.000000 0.000000
# 5 0.000000 0.000000 0.000000 0.000000 0.151491 0.000000
# 6 0.000000 0.000000 0.000000 0.000000 0.000000 0.025350
#
#
# Mechanical properties :
#
#
# Convention : Reuss Voigt Hill
#
# Bulk Modulus (GPa) = 27.99517 37.09720 32.54619
# Shear Modulus (GPa) = 17.99307 31.03878 24.51593
#
# Velocity S-wave (km/s) = 2.72247 3.57571 3.17785
# Velocity P-wave (km/s) = 4.62757 5.68585 5.18379
#
# Compressibility (1/GPa) = 0.03572044
#
# Stress axis : x y z
#
# Youngs Moduli (GPa) = 107.36826 119.11641 39.29638
#
# Poissons Ratio (x) = 0.12162 -0.02662
# Poissons Ratio (y) = 0.10963 0.13260
# Poissons Ratio (z) = -0.07274 0.40195
#
# Static dielectric constant tensor:
#      x y z
#    x 1.917810 0.000000 0.000000 
#    y 0.000000 1.927010 0.000000 
#    z 0.000000 0.000000 1.953260 
# 
# From -- ./inp_files/7918.got.cif
#   From: 2010.05.17/outbox.cif.g08.bks.cpg/sg56_4_cif.got.tgz:7918.got - 2010.06.03 13:42:01.
