data_PCOD9432412
_publ_section_title
;
Structure prediction by ZEFSAII (Michael W. Deem and Ramdas Pophale) SiO2 
 PCOD9432412
Probable space group: P C C N
;
_chemical_formula_sum "Si O2"
_cell_formula_units_Z 32
_cell_length_a 8.408208
_cell_length_b 8.794714
_cell_length_c 22.057475
_cell_angle_alpha 90.000000
_cell_angle_beta 90.000000
_cell_angle_gamma 90.000000
_cell_volume 1631.101410
_symmetry_space_group_name_H-M "P C C N"
_symmetry_group_IT_number 56
_symmetry_cell_setting 'orthorhombic'
loop_
_space_group_symop_operation_xyz
x,y,z
1/2-x,1/2-y,z
1/2+x,-y,1/2-z
-x,1/2+y,1/2-z
-x,-y,-z
1/2+x,1/2+y,-z
1/2-x,y,1/2+z
x,1/2-y,1/2+z
loop_
_atom_site_type_symbol
_atom_site_label
_atom_site_fract_x
_atom_site_fract_y
_atom_site_fract_z
Si Si1 0.033776 0.502246 0.570977
Si Si2 0.292247 0.429097 0.829837
Si Si3 0.750000 0.250000 0.861955
Si Si4 0.555466 0.507783 0.294129
Si Si5 0.750000 0.750000 0.870732
O O1 0.140255 0.643176 0.595774
O O2 0.132929 0.353372 0.589712
O O3 0.000000 0.500000 0.500000
O O4 0.869197 0.515528 0.607916
O O5 0.250000 0.250000 0.831674
O O6 0.418307 0.469240 0.777170
O O7 0.128259 0.508421 0.811489
O O8 0.861587 0.354988 0.819738
O O9 0.646378 0.642839 0.327718
#
# Coordination Sequence:
#
# PCOD9432412 Si02
#       5
#     8   8   4   8   4
#     4  11  26  44  68  97 137 183 235 275 335 408
#     4  12  25  42  69 102 135 179 224 287 348 407
#     4  10  22  44  68  96 136 180 218 292 340 402
#     4  11  23  41  69  98 136 165 225 283 355 405
#     4  10  24  44  64 100 130 178 224 284 338 410
#
# _framework density 19.618644
#
# number of rings (size 3 to 8) (size 9 to 14) (size 15 to 20)
#    0.000    1.000    3.750    3.000    1.750    3.000 
#    0.000    5.000    0.000    0.000    0.000    0.000 
#    0.000    0.000    0.000    0.000    0.000    0.000 
#
# Total GULP energy -179088.658732 kJ/mol
# GULP energy per Si atom -5596.520585 kJ/mol
# Density = 1.957399 g / cm^3
# Si number density = 19.618644 Si / 1000 Ang^3
#
#
#
# Elastic Constant Matrix: (Units=GPa)
#
#
# Indices 1 2 3 4 5 6 
#
# 1 128.2695 26.3942 54.0792 0.0000 0.0000 0.0000
# 2 26.3942 94.3742 40.9307 0.0000 0.0000 0.0000
# 3 54.0792 40.9307 179.5548 0.0000 0.0000 0.0000
# 4 0.0000 0.0000 0.0000 9.8208 0.0000 0.0000
# 5 0.0000 0.0000 0.0000 0.0000 27.6390 0.0000
# 6 0.0000 0.0000 0.0000 0.0000 0.0000 21.8503
#
#
#
# Elastic Compliance Matrix: (Units=1/GPa)
#
#
# Indices 1 2 3 4 5 6 
#
# 1 0.009120 -0.001508 -0.002403 0.000000 0.000000 0.000000
# 2 -0.001508 0.012008 -0.002283 0.000000 0.000000 0.000000
# 3 -0.002403 -0.002283 0.006813 0.000000 0.000000 0.000000
# 4 0.000000 0.000000 0.000000 0.101824 0.000000 0.000000
# 5 0.000000 0.000000 0.000000 0.000000 0.036181 0.000000
# 6 0.000000 0.000000 0.000000 0.000000 0.000000 0.045766
#
#
# Mechanical properties :
#
#
# Convention : Reuss Voigt Hill
#
# Bulk Modulus (GPa) = 64.29777 71.66739 67.98258
# Shear Modulus (GPa) = 21.80693 30.58167 26.19430
#
# Velocity S-wave (km/s) = 3.33760 3.95246 3.65797
# Velocity P-wave (km/s) = 6.90635 7.57884 7.25039
#
# Compressibility (1/GPa) = 0.01555264
#
# Stress axis : x y z
#
# Youngs Moduli (GPa) = 109.65501 83.27686 146.76854
#
# Poissons Ratio (x) = 0.12561 0.35266
# Poissons Ratio (y) = 0.16540 0.33508
# Poissons Ratio (z) = 0.26348 0.19012
#
# Static dielectric constant tensor:
#      x y z
#    x 1.567590 0.000000 0.000000 
#    y 0.000000 1.694230 0.000000 
#    z 0.000000 0.000000 1.643310 
# 
# From -- ./inp_files/17759.got.cif
#   From: 2010.05.17/outbox.cif.g08.bks.cpg/sg56_9_cif.got.tgz:17759.got - 2010.06.03 13:42:01.
