data_PCOD9432982
_publ_section_title
;
Structure prediction by ZEFSAII (Michael W. Deem and Ramdas Pophale) SiO2 
 PCOD9432982
Probable space group: P C C N
;
_chemical_formula_sum "Si O2"
_cell_formula_units_Z 32
_cell_length_a 5.547928
_cell_length_b 14.062153
_cell_length_c 18.202843
_cell_angle_alpha 90.000000
_cell_angle_beta 90.000000
_cell_angle_gamma 90.000000
_cell_volume 1420.109584
_symmetry_space_group_name_H-M "P C C N"
_symmetry_group_IT_number 56
_symmetry_cell_setting 'orthorhombic'
loop_
_space_group_symop_operation_xyz
x,y,z
1/2-x,1/2-y,z
1/2+x,-y,1/2-z
-x,1/2+y,1/2-z
-x,-y,-z
1/2+x,1/2+y,-z
1/2-x,y,1/2+z
x,1/2-y,1/2+z
loop_
_atom_site_type_symbol
_atom_site_label
_atom_site_fract_x
_atom_site_fract_y
_atom_site_fract_z
Si Si1 0.039504 0.588786 0.849953
Si Si2 0.629141 0.101659 0.776575
Si Si3 0.750000 0.750000 0.769371
Si Si4 0.750000 0.250000 0.875640
Si Si5 0.994371 0.301667 0.019204
O O1 0.294991 0.585842 0.807848
O O2 0.908359 0.497302 0.816705
O O3 0.921523 0.686314 0.820693
O O4 0.018380 0.598944 0.937332
O O5 0.402025 0.172103 0.775319
O O6 0.824058 0.163160 0.822636
O O7 0.557922 0.203825 0.932075
O O8 0.250000 0.250000 0.030868
O O9 0.750000 0.250000 0.049100
#
# Coordination Sequence:
#
# PCOD9432982 Si02
#       5
#     8   8   4   4   8
#     4  12  24  43  73 105 135 188 245 292 365 421
#     4  12  25  42  72 108 132 187 239 306 352 432
#     4  12  22  42  72  96 148 172 236 304 356 410
#     4  10  26  42  68 102 148 186 234 292 364 422
#     4  10  24  45  70  99 142 197 230 284 363 425
#
# _framework density 22.533470999999999
#
# number of rings (size 3 to 8) (size 9 to 14) (size 15 to 20)
#    0.750    0.000    6.250    1.500    1.750    1.000 
#    0.000    1.250    0.000    0.000    0.000    0.000 
#    0.000    0.000    0.000    0.000    0.000    0.000 
#
# Total GULP energy -178270.785044 kJ/mol
# GULP energy per Si atom -5570.962033 kJ/mol
# Density = 2.248218 g / cm^3
# Si number density = 22.533471 Si / 1000 Ang^3
#
#
#
# Elastic Constant Matrix: (Units=GPa)
#
#
# Indices 1 2 3 4 5 6 
#
# 1 77.3950 13.0809 18.0013 0.0000 0.0000 0.0000
# 2 13.0809 88.4860 14.9228 0.0000 0.0000 0.0000
# 3 18.0013 14.9228 108.7779 0.0000 0.0000 0.0000
# 4 0.0000 0.0000 0.0000 17.7151 0.0000 0.0000
# 5 0.0000 0.0000 0.0000 0.0000 12.3431 0.0000
# 6 0.0000 0.0000 0.0000 0.0000 0.0000 38.1868
#
#
#
# Elastic Compliance Matrix: (Units=1/GPa)
#
#
# Indices 1 2 3 4 5 6 
#
# 1 0.013677 -0.001679 -0.002033 0.000000 0.000000 0.000000
# 2 -0.001679 0.011775 -0.001338 0.000000 0.000000 0.000000
# 3 -0.002033 -0.001338 0.009713 0.000000 0.000000 0.000000
# 4 0.000000 0.000000 0.000000 0.056449 0.000000 0.000000
# 5 0.000000 0.000000 0.000000 0.000000 0.081017 0.000000
# 6 0.000000 0.000000 0.000000 0.000000 0.000000 0.026187
#
#
# Mechanical properties :
#
#
# Convention : Reuss Voigt Hill
#
# Bulk Modulus (GPa) = 39.89456 40.74100 40.31778
# Shear Modulus (GPa) = 23.01248 28.89257 25.95253
#
# Velocity S-wave (km/s) = 3.19918 3.58468 3.39740
# Velocity P-wave (km/s) = 5.60262 5.93740 5.77244
#
# Compressibility (1/GPa) = 0.02506608
#
# Stress axis : x y z
#
# Youngs Moduli (GPa) = 73.11334 84.92568 102.95503
#
# Poissons Ratio (x) = 0.14260 0.20932
# Poissons Ratio (y) = 0.12276 0.13770
# Poissons Ratio (z) = 0.14865 0.11359
#
# Static dielectric constant tensor:
#      x y z
#    x 1.940950 0.000000 0.000000 
#    y 0.000000 1.813380 0.000000 
#    z 0.000000 0.000000 1.916800 
# 
# From -- ./inp_files/13724.got.cif
#   From: 2010.05.17/outbox.cif.g08.bks.cpg/sg56_7_cif.got.tgz:13724.got - 2010.06.03 13:42:01.
