data_PCOD9432841
_publ_section_title
;
Structure prediction by ZEFSAII (Michael W. Deem and Ramdas Pophale) SiO2 
 PCOD9432841
Probable space group: P C C N
;
_chemical_formula_sum "Si O2"
_cell_formula_units_Z 48
_cell_length_a 15.671864
_cell_length_b 6.095160
_cell_length_c 24.866304
_cell_angle_alpha 90.000000
_cell_angle_beta 90.000000
_cell_angle_gamma 90.000000
_cell_volume 2375.291986
_symmetry_space_group_name_H-M "P C C N"
_symmetry_group_IT_number 56
_symmetry_cell_setting 'orthorhombic'
loop_
_space_group_symop_operation_xyz
x,y,z
1/2-x,1/2-y,z
1/2+x,-y,1/2-z
-x,1/2+y,1/2-z
-x,-y,-z
1/2+x,1/2+y,-z
1/2-x,y,1/2+z
x,1/2-y,1/2+z
loop_
_atom_site_type_symbol
_atom_site_label
_atom_site_fract_x
_atom_site_fract_y
_atom_site_fract_z
Si Si1 0.750000 0.750000 0.987346
Si Si2 0.841164 0.141215 0.929880
Si Si3 0.342296 0.634745 0.465308
Si Si4 0.970206 0.173797 0.832895
Si Si5 0.407688 0.994274 0.780534
Si Si6 0.628790 0.383153 0.140269
Si Si7 0.250000 0.250000 0.824586
O O1 0.689220 0.597397 0.950618
O O2 0.816465 0.614868 0.024259
O O3 0.750000 0.250000 0.918116
O O4 0.898633 0.172938 0.878152
O O5 0.884404 0.265926 0.980894
O O6 0.250000 0.750000 0.465818
O O7 0.380178 0.717385 0.409829
O O8 0.935153 0.048766 0.780285
O O9 0.011068 0.402896 0.812182
O O10 0.048875 0.042973 0.858402
O O11 0.376482 0.767591 0.806983
O O12 0.329100 0.161978 0.789253
O O13 0.712000 0.542306 0.141915
#
# Coordination Sequence:
#
# PCOD9432841 Si02
#       7
#     4   8   8   8   8   8   4
#     4   8  18  38  62  90 126 163 210 261 318 380
#     4   9  21  39  61  92 125 168 209 260 317 385
#     4   9  19  37  62  93 127 159 210 261 315 383
#     4  11  24  42  60  88 131 167 213 268 320 374
#     4  11  23  43  62  89 127 167 216 267 319 370
#     4  11  23  40  65  93 125 166 209 265 324 376
#     4  10  24  40  66  94 116 169 216 263 320 380
#
# _framework density 20.208041000000001
#
# number of rings (size 3 to 8) (size 9 to 14) (size 15 to 20)
#    0.000    2.333    1.667    1.500    0.000   14.000 
#    0.000    1.667    0.000    0.000    0.000    0.000 
#    0.000    0.000    0.000    0.000    0.000    0.000 
#
# Total GULP energy -267652.887182 kJ/mol
# GULP energy per Si atom -5576.101816 kJ/mol
# Density = 2.016205 g / cm^3
# Si number density = 20.208041 Si / 1000 Ang^3
#
#
#
# Elastic Constant Matrix: (Units=GPa)
#
#
# Indices 1 2 3 4 5 6 
#
# 1 74.4791 25.7252 50.3393 0.0000 0.0000 0.0000
# 2 25.7252 94.7755 40.7802 0.0000 0.0000 0.0000
# 3 50.3393 40.7802 139.9784 0.0000 0.0000 0.0000
# 4 0.0000 0.0000 0.0000 6.3863 0.0000 0.0000
# 5 0.0000 0.0000 0.0000 0.0000 28.6199 0.0000
# 6 0.0000 0.0000 0.0000 0.0000 0.0000 21.9262
#
#
#
# Elastic Compliance Matrix: (Units=1/GPa)
#
#
# Indices 1 2 3 4 5 6 
#
# 1 0.018215 -0.002430 -0.005842 0.000000 0.000000 0.000000
# 2 -0.002430 0.012388 -0.002735 0.000000 0.000000 0.000000
# 3 -0.005842 -0.002735 0.010042 0.000000 0.000000 0.000000
# 4 0.000000 0.000000 0.000000 0.156585 0.000000 0.000000
# 5 0.000000 0.000000 0.000000 0.000000 0.034941 0.000000
# 6 0.000000 0.000000 0.000000 0.000000 0.000000 0.045607
#
#
# Mechanical properties :
#
#
# Convention : Reuss Voigt Hill
#
# Bulk Modulus (GPa) = 53.67955 60.32471 57.00213
# Shear Modulus (GPa) = 16.33976 24.21238 20.27607
#
# Velocity S-wave (km/s) = 2.84663 3.46519 3.17103
# Velocity P-wave (km/s) = 6.11764 6.77693 6.45571
#
# Compressibility (1/GPa) = 0.01862907
#
# Stress axis : x y z
#
# Youngs Moduli (GPa) = 54.90043 80.72519 99.58345
#
# Poissons Ratio (x) = 0.19618 0.58181
# Poissons Ratio (y) = 0.13342 0.27236
# Poissons Ratio (z) = 0.32075 0.22078
#
# Static dielectric constant tensor:
#      x y z
#    x 1.717680 0.000000 0.000000 
#    y 0.000000 1.803990 0.000000 
#    z 0.000000 0.000000 1.757050 
# 
# From -- ./inp_files/22438.got.cif
#   From: 2010.05.17/outbox.cif.g08.bks.cpg/sg56_12_cif.got.tgz:22438.got - 2010.06.03 13:42:01.
