data_PCOD9432369
_publ_section_title
;
Structure prediction by ZEFSAII (Michael W. Deem and Ramdas Pophale) SiO2 
 PCOD9432369
Probable space group: P C C N
;
_chemical_formula_sum "Si O2"
_cell_formula_units_Z 56
_cell_length_a 15.616777
_cell_length_b 8.628343
_cell_length_c 18.794432
_cell_angle_alpha 90.000000
_cell_angle_beta 90.000000
_cell_angle_gamma 90.000000
_cell_volume 2532.491609
_symmetry_space_group_name_H-M "P C C N"
_symmetry_group_IT_number 56
_symmetry_cell_setting 'orthorhombic'
loop_
_space_group_symop_operation_xyz
x,y,z
1/2-x,1/2-y,z
1/2+x,-y,1/2-z
-x,1/2+y,1/2-z
-x,-y,-z
1/2+x,1/2+y,-z
1/2-x,y,1/2+z
x,1/2-y,1/2+z
loop_
_atom_site_type_symbol
_atom_site_label
_atom_site_fract_x
_atom_site_fract_y
_atom_site_fract_z
Si Si1 0.903987 0.078876 0.507913
Si Si2 0.787605 0.903016 0.399790
Si Si3 0.040302 0.345062 0.175283
Si Si4 0.454851 0.601998 0.937845
Si Si5 0.730000 0.429028 0.770304
Si Si6 0.622489 0.891400 0.682361
Si Si7 0.110192 0.045046 0.343600
O O1 0.911520 0.262477 0.515602
O O2 0.839326 0.019995 0.448693
O O3 0.862413 0.023244 0.581573
O O4 0.000000 0.000000 0.500000
O O5 0.750000 0.750000 0.436822
O O6 0.861691 0.840183 0.347949
O O7 0.723117 0.989120 0.346808
O O8 0.046032 0.351764 0.260878
O O9 0.000033 0.208962 0.125517
O O10 0.991240 0.505608 0.156680
O O11 0.402707 0.483937 0.888370
O O12 0.500000 0.500000 0.000000
O O13 0.750000 0.250000 0.780155
O O14 0.805491 0.510190 0.723742
O O15 0.646403 0.450888 0.722867
O O16 0.645234 0.717094 0.661377
#
# Coordination Sequence:
#
# PCOD9432369 Si02
#       7
#     8   8   8   8   8   8   8
#     4  11  22  46  68 102 144 192 243 307 381 458
#     4  11  24  45  71 101 145 188 244 306 385 452
#     4  10  22  43  69 101 140 194 242 304 366 457
#     4  11  23  41  70 107 143 184 255 314 375 459
#     4  11  24  45  65 100 142 181 243 309 371 455
#     4  11  23  40  67 103 138 190 239 297 380 456
#     4  11  22  41  72  94 137 189 245 294 365 456
#
# _framework density 22.112608999999999
#
# number of rings (size 3 to 8) (size 9 to 14) (size 15 to 20)
#    0.000    1.143    2.857    5.571    0.000    2.286 
#    5.143    0.714    0.000    0.000    0.000    0.000 
#    0.000    0.000    0.000    0.000    0.000    0.000 
#
# Total GULP energy -311972.365205 kJ/mol
# GULP energy per Si atom -5570.935093 kJ/mol
# Density = 2.206228 g / cm^3
# Si number density = 22.112609 Si / 1000 Ang^3
#
#
#
# Elastic Constant Matrix: (Units=GPa)
#
#
# Indices 1 2 3 4 5 6 
#
# 1 36.4952 12.7736 23.7681 0.0000 0.0000 0.0000
# 2 12.7736 155.4834 48.6829 0.0000 0.0000 0.0000
# 3 23.7681 48.6829 120.3835 0.0000 0.0000 0.0000
# 4 0.0000 0.0000 0.0000 32.3958 0.0000 0.0000
# 5 0.0000 0.0000 0.0000 0.0000 11.5340 0.0000
# 6 0.0000 0.0000 0.0000 0.0000 0.0000 14.8532
#
#
#
# Elastic Compliance Matrix: (Units=1/GPa)
#
#
# Indices 1 2 3 4 5 6 
#
# 1 0.031517 -0.000734 -0.005926 0.000000 0.000000 0.000000
# 2 -0.000734 0.007381 -0.002840 0.000000 0.000000 0.000000
# 3 -0.005926 -0.002840 0.010625 0.000000 0.000000 0.000000
# 4 0.000000 0.000000 0.000000 0.030868 0.000000 0.000000
# 5 0.000000 0.000000 0.000000 0.000000 0.086700 0.000000
# 6 0.000000 0.000000 0.000000 0.000000 0.000000 0.067326
#
#
# Mechanical properties :
#
#
# Convention : Reuss Voigt Hill
#
# Bulk Modulus (GPa) = 32.76111 53.64570 43.20341
# Shear Modulus (GPa) = 18.96876 26.89910 22.93393
#
# Velocity S-wave (km/s) = 2.93204 3.49156 3.22396
# Velocity P-wave (km/s) = 5.12935 6.36927 5.78264
#
# Compressibility (1/GPa) = 0.03052399
#
# Stress axis : x y z
#
# Youngs Moduli (GPa) = 31.72886 135.48170 94.11526
#
# Poissons Ratio (x) = 0.09942 0.55771
# Poissons Ratio (y) = 0.02328 0.26729
# Poissons Ratio (z) = 0.18802 0.38477
#
# Static dielectric constant tensor:
#      x y z
#    x 1.891460 0.000000 0.000000 
#    y 0.000000 1.793980 0.000000 
#    z 0.000000 0.000000 1.879820 
# 
# From -- ./inp_files/19280.got.cif
#   From: 2010.05.17/outbox.cif.g08.bks.cpg/sg56_10_cif.got.tgz:19280.got - 2010.06.03 13:42:01.
