data_PCOD9432407
_publ_section_title
;
Structure prediction by ZEFSAII (Michael W. Deem and Ramdas Pophale) SiO2 
 PCOD9432407
Probable space group: P C C N
;
_chemical_formula_sum "Si O2"
_cell_formula_units_Z 40
_cell_length_a 11.136667
_cell_length_b 9.848856
_cell_length_c 18.283954
_cell_angle_alpha 90.000000
_cell_angle_beta 90.000000
_cell_angle_gamma 90.000000
_cell_volume 2005.446781
_symmetry_space_group_name_H-M "P C C N"
_symmetry_group_IT_number 56
_symmetry_cell_setting 'orthorhombic'
loop_
_space_group_symop_operation_xyz
x,y,z
1/2-x,1/2-y,z
1/2+x,-y,1/2-z
-x,1/2+y,1/2-z
-x,-y,-z
1/2+x,1/2+y,-z
1/2-x,y,1/2+z
x,1/2-y,1/2+z
loop_
_atom_site_type_symbol
_atom_site_label
_atom_site_fract_x
_atom_site_fract_y
_atom_site_fract_z
Si Si1 0.018711 0.135186 0.181126
Si Si2 0.619536 0.385703 0.752582
Si Si3 0.282967 0.904543 0.383252
Si Si4 0.750000 0.250000 0.887481
Si Si5 0.250000 0.250000 0.604656
Si Si6 0.141524 0.502325 0.017567
O O1 0.148033 0.175762 0.151608
O O2 0.954251 0.265504 0.215036
O O3 0.926008 0.081978 0.119665
O O4 0.037018 0.016315 0.238925
O O5 0.729825 0.421381 0.698602
O O6 0.664856 0.333788 0.831348
O O7 0.250000 0.750000 0.403644
O O8 0.215228 0.994750 0.441726
O O9 0.819571 0.362947 0.936097
O O10 0.318255 0.366769 0.559534
O O11 0.000000 0.500000 0.000000
#
# Coordination Sequence:
#
# PCOD9432407 Si02
#       6
#     8   8   8   4   4   8
#     4  11  25  43  70  98 144 174 238 296 349 420
#     4  11  24  44  70 101 134 185 234 288 356 417
#     4  10  22  44  67  95 136 183 225 285 356 412
#     4  12  24  46  72 102 136 200 230 282 370 426
#     4  12  28  44  68 110 142 184 244 296 346 438
#     4  12  27  46  72 101 147 191 239 290 360 430
#
# _framework density 19.945679999999999
#
# number of rings (size 3 to 8) (size 9 to 14) (size 15 to 20)
#    0.000    0.800    6.000    2.400    8.400    2.400 
#    0.000    0.000    0.000    0.000    0.000    0.000 
#    0.000    0.000    0.000    0.000    0.000    0.000 
#
# Total GULP energy -223460.420897 kJ/mol
# GULP energy per Si atom -5586.510522 kJ/mol
# Density = 1.990028 g / cm^3
# Si number density = 19.945680 Si / 1000 Ang^3
#
#
#
# Elastic Constant Matrix: (Units=GPa)
#
#
# Indices 1 2 3 4 5 6 
#
# 1 124.0340 14.6879 38.2654 0.0000 0.0000 0.0000
# 2 14.6879 73.6621 25.7067 0.0000 0.0000 0.0000
# 3 38.2654 25.7067 84.9067 0.0000 0.0000 0.0000
# 4 0.0000 0.0000 0.0000 20.9482 0.0000 0.0000
# 5 0.0000 0.0000 0.0000 0.0000 20.1020 0.0000
# 6 0.0000 0.0000 0.0000 0.0000 0.0000 27.8358
#
#
#
# Elastic Compliance Matrix: (Units=1/GPa)
#
#
# Indices 1 2 3 4 5 6 
#
# 1 0.009377 -0.000442 -0.004092 0.000000 0.000000 0.000000
# 2 -0.000442 0.015200 -0.004403 0.000000 0.000000 0.000000
# 3 -0.004092 -0.004403 0.014955 0.000000 0.000000 0.000000
# 4 0.000000 0.000000 0.000000 0.047737 0.000000 0.000000
# 5 0.000000 0.000000 0.000000 0.000000 0.049746 0.000000
# 6 0.000000 0.000000 0.000000 0.000000 0.000000 0.035925
#
#
# Mechanical properties :
#
#
# Convention : Reuss Voigt Hill
#
# Bulk Modulus (GPa) = 46.17164 48.88033 47.52598
# Shear Modulus (GPa) = 25.24822 27.37338 26.31080
#
# Velocity S-wave (km/s) = 3.56174 3.70861 3.63591
# Velocity P-wave (km/s) = 6.33353 6.54968 6.44251
#
# Compressibility (1/GPa) = 0.02165832
#
# Stress axis : x y z
#
# Youngs Moduli (GPa) = 106.64263 65.78888 66.86714
#
# Poissons Ratio (x) = 0.02905 0.27364
# Poissons Ratio (y) = 0.04709 0.29442
# Poissons Ratio (z) = 0.43642 0.28967
#
# Static dielectric constant tensor:
#      x y z
#    x 1.714780 0.000000 0.000000 
#    y 0.000000 1.711540 0.000000 
#    z 0.000000 0.000000 1.717720 
# 
# From -- ./inp_files/14501.got.cif
#   From: 2010.05.17/outbox.cif.g08.bks.cpg/sg56_8_cif.got.tgz:14501.got - 2010.06.03 13:42:01.
