data_PCOD9432846
_publ_section_title
;
Structure prediction by ZEFSAII (Michael W. Deem and Ramdas Pophale) SiO2 
 PCOD9432846
Probable space group: P C C N
;
_chemical_formula_sum "Si O2"
_cell_formula_units_Z 60
_cell_length_a 6.403204
_cell_length_b 25.696588
_cell_length_c 18.733057
_cell_angle_alpha 90.000000
_cell_angle_beta 90.000000
_cell_angle_gamma 90.000000
_cell_volume 3082.346473
_symmetry_space_group_name_H-M "P C C N"
_symmetry_group_IT_number 56
_symmetry_cell_setting 'orthorhombic'
loop_
_space_group_symop_operation_xyz
x,y,z
1/2-x,1/2-y,z
1/2+x,-y,1/2-z
-x,1/2+y,1/2-z
-x,-y,-z
1/2+x,1/2+y,-z
1/2-x,y,1/2+z
x,1/2-y,1/2+z
loop_
_atom_site_type_symbol
_atom_site_label
_atom_site_fract_x
_atom_site_fract_y
_atom_site_fract_z
Si Si1 0.750712 0.093244 0.901414
Si Si2 0.668500 0.519950 0.440392
Si Si3 0.908074 0.824644 0.616964
Si Si4 0.982460 0.655293 0.714052
Si Si5 0.750000 0.250000 0.819398
Si Si6 0.030706 0.898634 0.947686
Si Si7 0.797295 0.691020 0.954217
Si Si8 0.932769 0.385576 0.131653
O O1 0.527601 0.120501 0.889969
O O2 0.906999 0.118838 0.844920
O O3 0.732689 0.031419 0.897657
O O4 0.831772 0.106384 0.980775
O O5 0.500000 0.500000 0.500000
O O6 0.549977 0.563386 0.395624
O O7 0.879205 0.551646 0.461751
O O8 0.737696 0.828156 0.679532
O O9 0.814396 0.811505 0.540023
O O10 0.082091 0.781467 0.634029
O O11 0.123038 0.706863 0.723481
O O12 0.989350 0.626850 0.789279
O O13 0.190361 0.899342 0.881482
O O14 0.889001 0.848258 0.936093
O O15 0.750000 0.750000 0.931854
O O16 0.997846 0.663949 0.917201
#
# Coordination Sequence:
#
# PCOD9432846 Si02
#       8
#     8   8   8   8   4   8   8   8
#     4  11  22  40  67  97 123 180 223 269 334 406
#     4  11  23  41  69  99 130 177 225 280 337 398
#     4  11  22  41  67  98 134 172 232 272 334 403
#     4  11  25  43  64  96 137 176 220 284 337 411
#     4  10  24  40  68  94 134 182 226 264 344 408
#     4  11  22  42  67  95 132 171 229 271 332 408
#     4  11  23  37  66  98 131 173 222 281 330 399
#     4  11  26  44  62 100 134 174 224 280 344 398
#
# _framework density 19.465689999999999
#
# number of rings (size 3 to 8) (size 9 to 14) (size 15 to 20)
#    0.000    1.067    4.000    2.400    1.867    6.933 
#    4.800    0.000    0.000    0.000    0.000    0.000 
#    0.000    0.000    0.000    0.000    0.000    0.000 
#
# Total GULP energy -334951.533300 kJ/mol
# GULP energy per Si atom -5582.525555 kJ/mol
# Density = 1.942139 g / cm^3
# Si number density = 19.465690 Si / 1000 Ang^3
#
#
#
# Elastic Constant Matrix: (Units=GPa)
#
#
# Indices 1 2 3 4 5 6 
#
# 1 109.7798 42.2664 28.3105 0.0000 0.0000 0.0000
# 2 42.2664 150.3756 23.3993 0.0000 0.0000 0.0000
# 3 28.3105 23.3993 67.8899 0.0000 0.0000 0.0000
# 4 0.0000 0.0000 0.0000 18.2899 0.0000 0.0000
# 5 0.0000 0.0000 0.0000 0.0000 15.1980 0.0000
# 6 0.0000 0.0000 0.0000 0.0000 0.0000 21.8141
#
#
#
# Elastic Compliance Matrix: (Units=1/GPa)
#
#
# Indices 1 2 3 4 5 6 
#
# 1 0.011044 -0.002523 -0.003736 0.000000 0.000000 0.000000
# 2 -0.002523 0.007603 -0.001569 0.000000 0.000000 0.000000
# 3 -0.003736 -0.001569 0.016828 0.000000 0.000000 0.000000
# 4 0.000000 0.000000 0.000000 0.054675 0.000000 0.000000
# 5 0.000000 0.000000 0.000000 0.000000 0.065798 0.000000
# 6 0.000000 0.000000 0.000000 0.000000 0.000000 0.045842
#
#
# Mechanical properties :
#
#
# Convention : Reuss Voigt Hill
#
# Bulk Modulus (GPa) = 50.45171 57.33306 53.89238
# Shear Modulus (GPa) = 22.31629 26.66501 24.49065
#
# Velocity S-wave (km/s) = 3.38959 3.70516 3.55088
# Velocity P-wave (km/s) = 6.42601 6.91532 6.67515
#
# Compressibility (1/GPa) = 0.01982093
#
# Stress axis : x y z
#
# Youngs Moduli (GPa) = 90.54798 131.52394 59.42398
#
# Poissons Ratio (x) = 0.33181 0.22200
# Poissons Ratio (y) = 0.22844 0.09321
# Poissons Ratio (z) = 0.33827 0.20630
#
# Static dielectric constant tensor:
#      x y z
#    x 1.986370 0.000000 0.000000 
#    y 0.000000 1.673370 0.000000 
#    z 0.000000 0.000000 1.663500 
# 
# From -- ./inp_files/14108.got.cif
#   From: 2010.05.17/outbox.cif.g08.bks.cpg/sg56_8_cif.got.tgz:14108.got - 2010.06.03 13:42:01.
