data_PCOD9432373
_publ_section_title
;
Structure prediction by ZEFSAII (Michael W. Deem and Ramdas Pophale) SiO2 
 PCOD9432373
Probable space group: P C C N
;
_chemical_formula_sum "Si O2"
_cell_formula_units_Z 60
_cell_length_a 9.082297
_cell_length_b 11.719548
_cell_length_c 27.588523
_cell_angle_alpha 90.000000
_cell_angle_beta 90.000000
_cell_angle_gamma 90.000000
_cell_volume 2936.533855
_symmetry_space_group_name_H-M "P C C N"
_symmetry_group_IT_number 56
_symmetry_cell_setting 'orthorhombic'
loop_
_space_group_symop_operation_xyz
x,y,z
1/2-x,1/2-y,z
1/2+x,-y,1/2-z
-x,1/2+y,1/2-z
-x,-y,-z
1/2+x,1/2+y,-z
1/2-x,y,1/2+z
x,1/2-y,1/2+z
loop_
_atom_site_type_symbol
_atom_site_label
_atom_site_fract_x
_atom_site_fract_y
_atom_site_fract_z
Si Si1 0.418339 0.756611 0.849102
Si Si2 0.026238 0.111098 0.384314
Si Si3 0.698494 0.985997 0.945076
Si Si4 0.232523 0.118128 0.958117
Si Si5 0.387743 0.506793 0.292087
Si Si6 0.750000 0.750000 0.396734
Si Si7 0.549794 0.371283 0.903893
Si Si8 0.552970 0.004579 0.691924
O O1 0.250000 0.750000 0.874184
O O2 0.403385 0.867456 0.815256
O O3 0.584322 0.764232 0.872866
O O4 0.431436 0.637438 0.821182
O O5 0.964437 0.237140 0.393525
O O6 0.190778 0.112654 0.405593
O O7 0.952245 0.015524 0.418318
O O8 0.021948 0.074908 0.328671
O O9 0.764879 0.867978 0.925529
O O10 0.797246 0.088861 0.925598
O O11 0.699094 0.966805 0.002543
O O12 0.250000 0.250000 0.974508
O O13 0.064308 0.095311 0.946343
O O14 0.218373 0.466664 0.294465
O O15 0.448620 0.507906 0.238144
O O16 0.511012 0.438352 0.854578
#
# Coordination Sequence:
#
# PCOD9432373 Si02
#       8
#     8   8   8   8   8   4   8   8
#     4  10  24  46  64  99 135 173 233 282 346 404
#     4  11  24  43  66  98 137 175 217 279 342 406
#     4  12  23  42  68  99 131 172 228 276 334 405
#     4  10  22  43  69  96 131 175 227 274 338 410
#     4  11  25  43  67  97 132 176 223 283 340 408
#     4  12  22  40  76  94 126 184 226 286 334 400
#     4  11  24  43  66  98 137 175 217 279 342 406
#     4  11  25  43  67  97 132 176 223 283 340 408
#
# _framework density 20.432251999999998
#
# number of rings (size 3 to 8) (size 9 to 14) (size 15 to 20)
#    0.000    1.067    4.667    1.200    5.600    0.000 
#    0.000    0.000    2.933    0.000    0.000    0.000 
#    0.000    0.000    0.000    0.000    0.000    0.000 
#
# Total GULP energy -334318.239595 kJ/mol
# GULP energy per Si atom -5571.970660 kJ/mol
# Density = 2.038575 g / cm^3
# Si number density = 20.432252 Si / 1000 Ang^3
#
#
#
# Elastic Constant Matrix: (Units=GPa)
#
#
# Indices 1 2 3 4 5 6 
#
# 1 76.7237 -18.6751 6.3002 0.0000 0.0000 0.0000
# 2 -18.6751 45.5316 -15.3733 0.0000 0.0000 0.0000
# 3 6.3002 -15.3733 55.9401 0.0000 0.0000 0.0000
# 4 0.0000 0.0000 0.0000 6.3633 0.0000 0.0000
# 5 0.0000 0.0000 0.0000 0.0000 12.6992 0.0000
# 6 0.0000 0.0000 0.0000 0.0000 0.0000 26.5536
#
#
#
# Elastic Compliance Matrix: (Units=1/GPa)
#
#
# Indices 1 2 3 4 5 6 
#
# 1 0.014479 0.005939 0.000002 0.000000 0.000000 0.000000
# 2 0.005939 0.026645 0.006654 0.000000 0.000000 0.000000
# 3 0.000002 0.006654 0.019705 0.000000 0.000000 0.000000
# 4 0.000000 0.000000 0.000000 0.157150 0.000000 0.000000
# 5 0.000000 0.000000 0.000000 0.000000 0.078745 0.000000
# 6 0.000000 0.000000 0.000000 0.000000 0.000000 0.037660
#
#
# Mechanical properties :
#
#
# Convention : Reuss Voigt Hill
#
# Bulk Modulus (GPa) = 11.62544 13.63323 12.62934
# Shear Modulus (GPa) = 14.79867 22.85280 18.82574
#
# Velocity S-wave (km/s) = 2.69416 3.34798 3.03871
# Velocity P-wave (km/s) = 3.92175 4.65104 4.30188
#
# Compressibility (1/GPa) = 0.08601827
#
# Stress axis : x y z
#
# Youngs Moduli (GPa) = 69.06404 37.52998 50.74949
#
# Poissons Ratio (x) = -0.22290 -0.00008
# Poissons Ratio (y) = -0.41019 -0.33767
# Poissons Ratio (z) = -0.00010 -0.24971
#
# Static dielectric constant tensor:
#      x y z
#    x 1.779130 0.000000 0.000000 
#    y 0.000000 1.696550 0.000000 
#    z 0.000000 0.000000 1.708350 
# 
# From -- ./inp_files/22097.got.cif
#   From: 2010.05.17/outbox.cif.g08.bks.cpg/sg56_12_cif.got.tgz:22097.got - 2010.06.03 13:42:01.
