data_PCOD9432445
_publ_section_title
;
Structure prediction by ZEFSAII (Michael W. Deem and Ramdas Pophale) SiO2 
 PCOD9432445
Probable space group: P C C N
;
_chemical_formula_sum "Si O2"
_cell_formula_units_Z 36
_cell_length_a 11.087916
_cell_length_b 4.995603
_cell_length_c 24.665775
_cell_angle_alpha 90.000000
_cell_angle_beta 90.000000
_cell_angle_gamma 90.000000
_cell_volume 1366.257662
_symmetry_space_group_name_H-M "P C C N"
_symmetry_group_IT_number 56
_symmetry_cell_setting 'orthorhombic'
loop_
_space_group_symop_operation_xyz
x,y,z
1/2-x,1/2-y,z
1/2+x,-y,1/2-z
-x,1/2+y,1/2-z
-x,-y,-z
1/2+x,1/2+y,-z
1/2-x,y,1/2+z
x,1/2-y,1/2+z
loop_
_atom_site_type_symbol
_atom_site_label
_atom_site_fract_x
_atom_site_fract_y
_atom_site_fract_z
Si Si1 0.902550 0.902397 0.805595
Si Si2 0.067411 0.397682 0.814348
Si Si3 0.750000 0.250000 0.884568
Si Si4 0.880054 0.873497 0.456230
Si Si5 0.128498 0.907618 0.428072
O O1 0.865526 0.940260 0.742673
O O2 0.802757 0.020325 0.845454
O O3 0.016985 0.098284 0.814214
O O4 0.953227 0.603398 0.813090
O O5 0.136871 0.462775 0.869191
O O6 0.858415 0.348229 0.923838
O O7 0.750000 0.750000 0.446386
O O8 0.001540 0.746528 0.432211
O O9 0.889777 0.895931 0.520919
O O10 0.250000 0.750000 0.439469
#
# Coordination Sequence:
#
# PCOD9432445 Si02
#       5
#     8   8   4   8   8
#     4  10  23  40  72  95 141 183 243 285 364 432
#     4  10  22  45  63 104 137 186 229 306 357 430
#     4  12  22  42  68  98 132 196 242 296 348 462
#     4  11  25  45  70 100 139 192 242 294 366 440
#     4  11  24  44  68 104 142 179 240 300 364 424
#
# _framework density 26.349350000000001
#
# number of rings (size 3 to 8) (size 9 to 14) (size 15 to 20)
#    0.000    1.333    3.333    1.333    1.556    2.667 
#    0.000    0.000    0.000    0.000    0.000    0.000 
#    0.000    0.000    0.000    0.000    0.000    0.000 
#
# Total GULP energy -201602.821785 kJ/mol
# GULP energy per Si atom -5600.078383 kJ/mol
# Density = 2.628938 g / cm^3
# Si number density = 26.349350 Si / 1000 Ang^3
#
#
#
# Elastic Constant Matrix: (Units=GPa)
#
#
# Indices 1 2 3 4 5 6 
#
# 1 153.5916 28.6625 29.6636 0.0000 0.0000 0.0000
# 2 28.6625 63.2821 9.9166 0.0000 0.0000 0.0000
# 3 29.6636 9.9166 221.9937 0.0000 0.0000 0.0000
# 4 0.0000 0.0000 0.0000 15.7912 0.0000 0.0000
# 5 0.0000 0.0000 0.0000 0.0000 35.4744 0.0000
# 6 0.0000 0.0000 0.0000 0.0000 0.0000 43.5334
#
#
#
# Elastic Compliance Matrix: (Units=1/GPa)
#
#
# Indices 1 2 3 4 5 6 
#
# 1 0.007260 -0.003159 -0.000829 0.000000 0.000000 0.000000
# 2 -0.003159 0.017288 -0.000350 0.000000 0.000000 0.000000
# 3 -0.000829 -0.000350 0.004631 0.000000 0.000000 0.000000
# 4 0.000000 0.000000 0.000000 0.063326 0.000000 0.000000
# 5 0.000000 0.000000 0.000000 0.000000 0.028189 0.000000
# 6 0.000000 0.000000 0.000000 0.000000 0.000000 0.022971
#
#
# Mechanical properties :
#
#
# Convention : Reuss Voigt Hill
#
# Bulk Modulus (GPa) = 48.77205 63.92811 56.35008
# Shear Modulus (GPa) = 31.41181 43.66812 37.53996
#
# Velocity S-wave (km/s) = 3.45647 4.07538 3.77862
# Velocity P-wave (km/s) = 5.87193 6.81611 6.36156
#
# Compressibility (1/GPa) = 0.02050355
#
# Stress axis : x y z
#
# Youngs Moduli (GPa) = 137.73498 57.84451 215.93336
#
# Poissons Ratio (x) = 0.18270 0.17902
# Poissons Ratio (y) = 0.43504 0.07562
# Poissons Ratio (z) = 0.11419 0.02026
#
# Static dielectric constant tensor:
#      x y z
#    x 2.104280 0.000000 0.000000 
#    y 0.000000 2.167960 0.000000 
#    z 0.000000 0.000000 2.039130 
# 
# From -- ./inp_files/19878.got.cif
#   From: 2010.05.17/outbox.cif.g08.bks.cpg/sg56_10_cif.got.tgz:19878.got - 2010.06.03 13:42:01.
