data_PCOD9432307
_publ_section_title
;
Structure prediction by ZEFSAII (Michael W. Deem and Ramdas Pophale) SiO2 
 PCOD9432307
Probable space group: P C C N
;
_chemical_formula_sum "Si O2"
_cell_formula_units_Z 36
_cell_length_a 15.572449
_cell_length_b 7.105651
_cell_length_c 14.243308
_cell_angle_alpha 90.000000
_cell_angle_beta 90.000000
_cell_angle_gamma 90.000000
_cell_volume 1576.056041
_symmetry_space_group_name_H-M "P C C N"
_symmetry_group_IT_number 56
_symmetry_cell_setting 'orthorhombic'
loop_
_space_group_symop_operation_xyz
x,y,z
1/2-x,1/2-y,z
1/2+x,-y,1/2-z
-x,1/2+y,1/2-z
-x,-y,-z
1/2+x,1/2+y,-z
1/2-x,y,1/2+z
x,1/2-y,1/2+z
loop_
_atom_site_type_symbol
_atom_site_label
_atom_site_fract_x
_atom_site_fract_y
_atom_site_fract_z
Si Si1 0.802358 0.086986 0.840384
Si Si2 0.447190 0.340530 0.055436
Si Si3 0.250000 0.250000 0.751718
Si Si4 0.933532 0.320522 0.717875
Si Si5 0.416621 0.252114 0.856856
O O1 0.750000 0.250000 0.894082
O O2 0.853787 0.199897 0.757497
O O3 0.872417 0.958464 0.893050
O O4 0.731753 0.932597 0.810277
O O5 0.507890 0.241049 0.131777
O O6 0.500000 0.500000 0.000000
O O7 0.415655 0.218613 0.967930
O O8 0.328851 0.180629 0.813007
O O9 0.913578 0.526676 0.675584
O O10 0.999861 0.327709 0.804976
#
# Coordination Sequence:
#
# PCOD9432307 Si02
#       5
#     8   8   4   8   8
#     4  12  24  43  71 100 134 183 219 283 346 388
#     4  10  22  42  70  95 133 178 229 274 330 411
#     4  12  24  42  68  98 142 170 224 282 338 400
#     4  11  20  42  70  91 131 178 222 271 338 397
#     4  11  22  42  68  98 133 180 220 279 336 403
#
# _framework density 22.841828
#
# number of rings (size 3 to 8) (size 9 to 14) (size 15 to 20)
#    0.000    0.889    8.889    0.000    0.000    0.889 
#    8.000    4.444    9.778    0.000    0.000    0.000 
#    0.000    0.000    0.000    0.000    0.000    0.000 
#
# Total GULP energy -200659.188252 kJ/mol
# GULP energy per Si atom -5573.866340 kJ/mol
# Density = 2.278984 g / cm^3
# Si number density = 22.841828 Si / 1000 Ang^3
#
#
#
# Elastic Constant Matrix: (Units=GPa)
#
#
# Indices 1 2 3 4 5 6 
#
# 1 49.3470 3.8608 -1.2733 0.0000 0.0000 0.0000
# 2 3.8608 77.8113 21.1344 0.0000 0.0000 0.0000
# 3 -1.2733 21.1344 101.0559 0.0000 0.0000 0.0000
# 4 0.0000 0.0000 0.0000 22.7572 0.0000 0.0000
# 5 0.0000 0.0000 0.0000 0.0000 21.8810 0.0000
# 6 0.0000 0.0000 0.0000 0.0000 0.0000 25.5067
#
#
#
# Elastic Compliance Matrix: (Units=1/GPa)
#
#
# Indices 1 2 3 4 5 6 
#
# 1 0.020367 -0.001145 0.000496 0.000000 0.000000 0.000000
# 2 -0.001145 0.013690 -0.002877 0.000000 0.000000 0.000000
# 3 0.000496 -0.002877 0.010504 0.000000 0.000000 0.000000
# 4 0.000000 0.000000 0.000000 0.043942 0.000000 0.000000
# 5 0.000000 0.000000 0.000000 0.000000 0.045702 0.000000
# 6 0.000000 0.000000 0.000000 0.000000 0.000000 0.039205
#
#
# Mechanical properties :
#
#
# Convention : Reuss Voigt Hill
#
# Bulk Modulus (GPa) = 26.66148 30.62865 28.64506
# Shear Modulus (GPa) = 25.91131 27.66177 26.78654
#
# Velocity S-wave (km/s) = 3.37171 3.48374 3.42818
# Velocity P-wave (km/s) = 5.18223 5.44243 5.31392
#
# Compressibility (1/GPa) = 0.03750730
#
# Stress axis : x y z
#
# Youngs Moduli (GPa) = 49.09884 73.04602 95.20585
#
# Poissons Ratio (x) = 0.08366 -0.04724
# Poissons Ratio (y) = 0.05623 0.27395
# Poissons Ratio (z) = -0.02436 0.21019
#
# Static dielectric constant tensor:
#      x y z
#    x 1.919490 0.000000 0.000000 
#    y 0.000000 8.015650 0.000000 
#    z 0.000000 0.000000 0.863400 
# 
# From -- ./inp_files/12015.got.cif
#   From: 2010.05.17/outbox.cif.g08.bks.cpg/sg56_7_cif.got.tgz:12015.got - 2010.06.03 13:42:01.
