data_PCOD9432959
_publ_section_title
;
Structure prediction by ZEFSAII (Michael W. Deem and Ramdas Pophale) SiO2 
 PCOD9432959
Probable space group: P C C N
;
_chemical_formula_sum "Si O2"
_cell_formula_units_Z 24
_cell_length_a 5.153259
_cell_length_b 13.793155
_cell_length_c 13.643644
_cell_angle_alpha 90.000000
_cell_angle_beta 90.000000
_cell_angle_gamma 90.000000
_cell_volume 969.786124
_symmetry_space_group_name_H-M "P C C N"
_symmetry_group_IT_number 56
_symmetry_cell_setting 'orthorhombic'
loop_
_space_group_symop_operation_xyz
x,y,z
1/2-x,1/2-y,z
1/2+x,-y,1/2-z
-x,1/2+y,1/2-z
-x,-y,-z
1/2+x,1/2+y,-z
1/2-x,y,1/2+z
x,1/2-y,1/2+z
loop_
_atom_site_type_symbol
_atom_site_label
_atom_site_fract_x
_atom_site_fract_y
_atom_site_fract_z
Si Si1 0.283771 0.569407 0.426750
Si Si2 0.285443 0.137492 0.687992
Si Si3 0.624040 0.645961 0.580093
O O1 0.526321 0.583929 0.350300
O O2 0.351133 0.634129 0.522653
O O3 0.254223 0.456511 0.454667
O O4 0.033744 0.601439 0.369242
O O5 0.250000 0.250000 0.664757
O O6 0.353697 0.134363 0.803076
O O7 0.750000 0.750000 0.556984
#
# Coordination Sequence:
#
# PCOD9432959 Si02
#       3
#     8   8   8
#     4  11  24  45  71 102 141 181 229 287 345 410
#     4  11  24  44  70 102 140 182 230 284 345 411
#     4  10  24  44  72 104 139 183 231 283 346 415
#
# _framework density 24.747727000000001
#
# number of rings (size 3 to 8) (size 9 to 14) (size 15 to 20)
#    0.000    1.333    0.000    4.000    0.000    8.000 
#    0.000   15.000    0.000    2.000    0.000    0.000 
#    0.000    0.000    0.000    0.000    0.000    0.000 
#
# Total GULP energy -134295.043060 kJ/mol
# GULP energy per Si atom -5595.626794 kJ/mol
# Density = 2.469140 g / cm^3
# Si number density = 24.747727 Si / 1000 Ang^3
#
#
#
# Elastic Constant Matrix: (Units=GPa)
#
#
# Indices 1 2 3 4 5 6 
#
# 1 173.2143 71.0709 66.0361 0.0000 0.0000 0.0000
# 2 71.0709 224.1460 40.4989 0.0000 0.0000 0.0000
# 3 66.0361 40.4989 205.8717 0.0000 0.0000 0.0000
# 4 0.0000 0.0000 0.0000 56.9757 0.0000 0.0000
# 5 0.0000 0.0000 0.0000 0.0000 14.7357 0.0000
# 6 0.0000 0.0000 0.0000 0.0000 0.0000 39.6125
#
#
#
# Elastic Compliance Matrix: (Units=1/GPa)
#
#
# Indices 1 2 3 4 5 6 
#
# 1 0.007330 -0.001969 -0.001964 0.000000 0.000000 0.000000
# 2 -0.001969 0.005155 -0.000382 0.000000 0.000000 0.000000
# 3 -0.001964 -0.000382 0.005563 0.000000 0.000000 0.000000
# 4 0.000000 0.000000 0.000000 0.017551 0.000000 0.000000
# 5 0.000000 0.000000 0.000000 0.000000 0.067862 0.000000
# 6 0.000000 0.000000 0.000000 0.000000 0.000000 0.025245
#
#
# Mechanical properties :
#
#
# Convention : Reuss Voigt Hill
#
# Bulk Modulus (GPa) = 106.19781 106.49377 106.34579
# Shear Modulus (GPa) = 35.59344 50.63985 43.11665
#
# Velocity S-wave (km/s) = 3.79654 4.52845 4.17855
# Velocity P-wave (km/s) = 7.88819 8.39450 8.14528
#
# Compressibility (1/GPa) = 0.00941639
#
# Stress axis : x y z
#
# Youngs Moduli (GPa) = 136.42807 193.99086 179.77469
#
# Poissons Ratio (x) = 0.38203 0.35303
# Poissons Ratio (y) = 0.26867 0.06874
# Poissons Ratio (z) = 0.26791 0.07418
#
# Static dielectric constant tensor:
#      x y z
#    x 2.060550 0.000000 0.000000 
#    y 0.000000 1.949520 0.000000 
#    z 0.000000 0.000000 2.005680 
# 
# From -- ./inp_files/9284.got.cif
#   From: 2010.05.17/outbox.cif.g08.bks.cpg/sg56_5_cif.got.tgz:9284.got - 2010.06.03 13:42:01.
