data_PCOD9432261
_publ_section_title
;
Structure prediction by ZEFSAII (Michael W. Deem and Ramdas Pophale) SiO2 
 PCOD9432261
Probable space group: P C C N
;
_chemical_formula_sum "Si O2"
_cell_formula_units_Z 40
_cell_length_a 15.794961
_cell_length_b 7.535964
_cell_length_c 17.319269
_cell_angle_alpha 90.000000
_cell_angle_beta 90.000000
_cell_angle_gamma 90.000000
_cell_volume 2061.517048
_symmetry_space_group_name_H-M "P C C N"
_symmetry_group_IT_number 56
_symmetry_cell_setting 'orthorhombic'
loop_
_space_group_symop_operation_xyz
x,y,z
1/2-x,1/2-y,z
1/2+x,-y,1/2-z
-x,1/2+y,1/2-z
-x,-y,-z
1/2+x,1/2+y,-z
1/2-x,y,1/2+z
x,1/2-y,1/2+z
loop_
_atom_site_type_symbol
_atom_site_label
_atom_site_fract_x
_atom_site_fract_y
_atom_site_fract_z
Si Si1 0.750000 0.750000 0.828770
Si Si2 0.407055 0.147791 0.765271
Si Si3 0.317658 0.090899 0.921185
Si Si4 0.309562 0.581094 0.578258
Si Si5 0.401588 0.755183 0.220407
Si Si6 0.750000 0.250000 0.667005
O O1 0.833488 0.739913 0.775546
O O2 0.754210 0.572449 0.880161
O O3 0.386689 0.144303 0.856831
O O4 0.503624 0.201445 0.753832
O O5 0.395924 0.956595 0.725764
O O6 0.250000 0.250000 0.930887
O O7 0.273982 0.919483 0.882948
O O8 0.348163 0.017792 0.003801
O O9 0.250000 0.750000 0.558099
O O10 0.377748 0.657817 0.638767
O O11 0.327951 0.810505 0.279520
#
# Coordination Sequence:
#
# PCOD9432261 Si02
#       6
#     4   8   8   8   8   4
#     4  12  22  42  70  92 122 174 214 264 322 372
#     4  11  24  41  67  97 129 166 216 265 313 382
#     4  11  23  39  66  92 127 172 206 260 323 376
#     4  12  22  41  65  93 131 167 213 259 321 376
#     4  11  23  40  65  98 126 167 215 265 312 375
#     4  10  22  42  66  90 124 168 214 262 316 368
#
# _framework density 19.403186999999999
#
# number of rings (size 3 to 8) (size 9 to 14) (size 15 to 20)
#    0.000    0.800    6.000    2.400    2.800    0.800 
#    0.000    0.000    0.000    6.000    0.000    0.000 
#    0.000    0.000    0.000    0.000    0.000    0.000 
#
# Total GULP energy -223242.805954 kJ/mol
# GULP energy per Si atom -5581.070149 kJ/mol
# Density = 1.935902 g / cm^3
# Si number density = 19.403187 Si / 1000 Ang^3
#
#
#
# Elastic Constant Matrix: (Units=GPa)
#
#
# Indices 1 2 3 4 5 6 
#
# 1 80.1243 -7.5247 35.8899 0.0000 0.0000 0.0000
# 2 -7.5247 71.6278 30.2952 0.0000 0.0000 0.0000
# 3 35.8899 30.2952 118.9226 0.0000 0.0000 0.0000
# 4 0.0000 0.0000 0.0000 19.9587 0.0000 0.0000
# 5 0.0000 0.0000 0.0000 0.0000 19.0210 0.0000
# 6 0.0000 0.0000 0.0000 0.0000 0.0000 24.3483
#
#
#
# Elastic Compliance Matrix: (Units=1/GPa)
#
#
# Indices 1 2 3 4 5 6 
#
# 1 0.015397 0.004016 -0.005670 0.000000 0.000000 0.000000
# 2 0.004016 0.016694 -0.005465 0.000000 0.000000 0.000000
# 3 -0.005670 -0.005465 0.011512 0.000000 0.000000 0.000000
# 4 0.000000 0.000000 0.000000 0.050104 0.000000 0.000000
# 5 0.000000 0.000000 0.000000 0.000000 0.052573 0.000000
# 6 0.000000 0.000000 0.000000 0.000000 0.000000 0.041071
#
#
# Mechanical properties :
#
#
# Convention : Reuss Voigt Hill
#
# Bulk Modulus (GPa) = 34.05313 43.11063 38.58188
# Shear Modulus (GPa) = 23.65437 26.79989 25.22713
#
# Velocity S-wave (km/s) = 3.49535 3.72050 3.60968
# Velocity P-wave (km/s) = 5.82051 6.38143 6.10741
#
# Compressibility (1/GPa) = 0.02936588
#
# Stress axis : x y z
#
# Youngs Moduli (GPa) = 64.94615 59.90108 86.86565
#
# Poissons Ratio (x) = -0.24054 0.49251
# Poissons Ratio (y) = -0.26080 0.47469
# Poissons Ratio (z) = 0.36823 0.32734
#
# Static dielectric constant tensor:
#      x y z
#    x 1.778070 0.000000 0.000000 
#    y 0.000000 1.694390 0.000000 
#    z 0.000000 0.000000 1.704420 
# 
# From -- ./inp_files/10423.got.cif
#   From: 2010.05.17/outbox.cif.g08.bks.cpg/sg56_6_cif.got.tgz:10423.got - 2010.06.03 13:42:01.
