data_PCOD9432405
_publ_section_title
;
Structure prediction by ZEFSAII (Michael W. Deem and Ramdas Pophale) SiO2 
 PCOD9432405
Probable space group: P C C N
;
_chemical_formula_sum "Si O2"
_cell_formula_units_Z 40
_cell_length_a 9.369869
_cell_length_b 13.496669
_cell_length_c 14.469632
_cell_angle_alpha 90.000000
_cell_angle_beta 90.000000
_cell_angle_gamma 90.000000
_cell_volume 1829.858898
_symmetry_space_group_name_H-M "P C C N"
_symmetry_group_IT_number 56
_symmetry_cell_setting 'orthorhombic'
loop_
_space_group_symop_operation_xyz
x,y,z
1/2-x,1/2-y,z
1/2+x,-y,1/2-z
-x,1/2+y,1/2-z
-x,-y,-z
1/2+x,1/2+y,-z
1/2-x,y,1/2+z
x,1/2-y,1/2+z
loop_
_atom_site_type_symbol
_atom_site_label
_atom_site_fract_x
_atom_site_fract_y
_atom_site_fract_z
Si Si1 0.348018 0.333704 0.229323
Si Si2 0.708517 0.573996 0.953203
Si Si3 0.900921 0.300906 0.216480
Si Si4 0.021146 0.414401 0.391496
Si Si5 0.677071 0.501912 0.626425
O O1 0.250000 0.250000 0.276448
O O2 0.257422 0.374934 0.142789
O O3 0.487247 0.282751 0.187576
O O4 0.386278 0.419825 0.300729
O O5 0.611429 0.479157 0.926478
O O6 0.602654 0.635770 0.021546
O O7 0.833845 0.538650 0.020777
O O8 0.750000 0.250000 0.233142
O O9 0.964917 0.345131 0.311338
O O10 0.877803 0.393103 0.147914
O O11 0.150191 0.486400 0.356728
#
# Coordination Sequence:
#
# PCOD9432405 Si02
#       5
#     8   8   8   8   8
#     4  12  23  41  72  98 134 183 228 277 351 417
#     4   9  20  41  68  91 132 184 217 278 348 400
#     4  12  25  39  69 105 129 180 237 280 340 419
#     4   9  19  42  66  90 131 182 210 285 343 395
#     4  10  22  44  67  92 142 177 223 278 352 396
#
# _framework density 21.859608999999999
#
# number of rings (size 3 to 8) (size 9 to 14) (size 15 to 20)
#    1.200    0.400    4.000    1.200    0.000    2.400 
#    3.600    1.000    0.000    0.000    0.000    0.000 
#    0.000    0.000    0.000    0.000    0.000    0.000 
#
# Total GULP energy -223016.316015 kJ/mol
# GULP energy per Si atom -5575.407900 kJ/mol
# Density = 2.180986 g / cm^3
# Si number density = 21.859609 Si / 1000 Ang^3
#
#
#
# Elastic Constant Matrix: (Units=GPa)
#
#
# Indices 1 2 3 4 5 6 
#
# 1 73.4067 27.4995 6.3158 0.0000 0.0000 0.0000
# 2 27.4995 74.9388 30.0682 0.0000 0.0000 0.0000
# 3 6.3158 30.0682 88.0971 0.0000 0.0000 0.0000
# 4 0.0000 0.0000 0.0000 11.2481 0.0000 0.0000
# 5 0.0000 0.0000 0.0000 0.0000 16.2580 0.0000
# 6 0.0000 0.0000 0.0000 0.0000 0.0000 38.4286
#
#
#
# Elastic Compliance Matrix: (Units=1/GPa)
#
#
# Indices 1 2 3 4 5 6 
#
# 1 0.015867 -0.006218 0.000985 0.000000 0.000000 0.000000
# 2 -0.006218 0.017898 -0.005663 0.000000 0.000000 0.000000
# 3 0.000985 -0.005663 0.013213 0.000000 0.000000 0.000000
# 4 0.000000 0.000000 0.000000 0.088904 0.000000 0.000000
# 5 0.000000 0.000000 0.000000 0.000000 0.061508 0.000000
# 6 0.000000 0.000000 0.000000 0.000000 0.000000 0.026022
#
#
# Mechanical properties :
#
#
# Convention : Reuss Voigt Hill
#
# Bulk Modulus (GPa) = 39.70379 40.46773 40.08576
# Shear Modulus (GPa) = 19.71599 24.69087 22.20343
#
# Velocity S-wave (km/s) = 3.00648 3.36448 3.19051
# Velocity P-wave (km/s) = 5.50040 5.80049 5.65244
#
# Compressibility (1/GPa) = 0.02518651
#
# Stress axis : x y z
#
# Youngs Moduli (GPa) = 63.02275 55.87192 75.68111
#
# Poissons Ratio (x) = 0.34740 -0.07452
# Poissons Ratio (y) = 0.39186 0.42858
# Poissons Ratio (z) = -0.06205 0.31640
#
# Static dielectric constant tensor:
#      x y z
#    x 1.838270 0.000000 0.000000 
#    y 0.000000 1.822490 0.000000 
#    z 0.000000 0.000000 1.841130 
# 
# From -- ./inp_files/10410.got.cif
#   From: 2010.05.17/outbox.cif.g08.bks.cpg/sg56_6_cif.got.tgz:10410.got - 2010.06.03 13:42:01.
