data_PCOD9432347
_publ_section_title
;
Structure prediction by ZEFSAII (Michael W. Deem and Ramdas Pophale) SiO2 
 PCOD9432347
Probable space group: P C C N
;
_chemical_formula_sum "Si O2"
_cell_formula_units_Z 56
_cell_length_a 7.965646
_cell_length_b 21.734772
_cell_length_c 14.952587
_cell_angle_alpha 90.000000
_cell_angle_beta 90.000000
_cell_angle_gamma 90.000000
_cell_volume 2588.763811
_symmetry_space_group_name_H-M "P C C N"
_symmetry_group_IT_number 56
_symmetry_cell_setting 'orthorhombic'
loop_
_space_group_symop_operation_xyz
x,y,z
1/2-x,1/2-y,z
1/2+x,-y,1/2-z
-x,1/2+y,1/2-z
-x,-y,-z
1/2+x,1/2+y,-z
1/2-x,y,1/2+z
x,1/2-y,1/2+z
loop_
_atom_site_type_symbol
_atom_site_label
_atom_site_fract_x
_atom_site_fract_y
_atom_site_fract_z
Si Si1 0.388634 0.293327 0.548517
Si Si2 0.054614 0.625386 0.645762
Si Si3 0.069506 0.041787 0.360191
Si Si4 0.207710 0.008802 0.171489
Si Si5 0.297848 0.416394 0.006495
Si Si6 0.947064 0.233262 0.729161
Si Si7 0.912285 0.176220 0.386899
O O1 0.250000 0.250000 0.504708
O O2 0.311918 0.361858 0.550730
O O3 0.445021 0.262149 0.640149
O O4 0.543324 0.297735 0.482558
O O5 0.125270 0.558657 0.671803
O O6 0.006794 0.665345 0.732555
O O7 0.214455 0.665599 0.615454
O O8 0.922446 0.614487 0.566185
O O9 0.175994 0.036578 0.269225
O O10 0.186612 0.035657 0.447443
O O11 0.998187 0.110447 0.371446
O O12 0.905930 0.998700 0.350345
O O13 0.125319 0.047344 0.090495
O O14 0.750000 0.250000 0.708869
O O15 0.982355 0.280436 0.809000
#
# Coordination Sequence:
#
# PCOD9432347 Si02
#       7
#     8   8   8   8   8   8   8
#     4  11  25  39  64  97 125 172 211 267 330 389
#     4  10  22  43  66  94 129 175 215 277 325 386
#     4  10  23  41  64  91 135 171 221 275 324 388
#     4  11  23  41  64  96 129 179 223 266 330 390
#     4  11  24  40  65  96 131 171 221 270 331 388
#     4  10  23  42  67  92 127 167 217 269 325 389
#     4   9  22  46  63  92 131 167 219 276 327 387
#
# _framework density 21.631947
#
# number of rings (size 3 to 8) (size 9 to 14) (size 15 to 20)
#    0.000    1.714    0.000    2.571    6.000    4.571 
#    5.143    0.000    0.000    0.000    0.000    0.000 
#    0.000    0.000    0.000    0.000    0.000    0.000 
#
# Total GULP energy -312658.603379 kJ/mol
# GULP energy per Si atom -5583.189346 kJ/mol
# Density = 2.158271 g / cm^3
# Si number density = 21.631947 Si / 1000 Ang^3
#
#
#
# Elastic Constant Matrix: (Units=GPa)
#
#
# Indices 1 2 3 4 5 6 
#
# 1 37.3457 3.8266 25.4697 0.0000 0.0000 0.0000
# 2 3.8266 38.5363 12.8185 0.0000 0.0000 0.0000
# 3 25.4697 12.8185 80.9763 0.0000 0.0000 0.0000
# 4 0.0000 0.0000 0.0000 32.5042 0.0000 0.0000
# 5 0.0000 0.0000 0.0000 0.0000 33.8660 0.0000
# 6 0.0000 0.0000 0.0000 0.0000 0.0000 16.6021
#
#
#
# Elastic Compliance Matrix: (Units=1/GPa)
#
#
# Indices 1 2 3 4 5 6 
#
# 1 0.034091 0.000192 -0.010753 0.000000 0.000000 0.000000
# 2 0.000192 0.027393 -0.004397 0.000000 0.000000 0.000000
# 3 -0.010753 -0.004397 0.016427 0.000000 0.000000 0.000000
# 4 0.000000 0.000000 0.000000 0.030765 0.000000 0.000000
# 5 0.000000 0.000000 0.000000 0.000000 0.029528 0.000000
# 6 0.000000 0.000000 0.000000 0.000000 0.000000 0.060233
#
#
# Mechanical properties :
#
#
# Convention : Reuss Voigt Hill
#
# Bulk Modulus (GPa) = 20.83540 26.78758 23.81149
# Shear Modulus (GPa) = 20.46228 24.24401 22.35315
#
# Velocity S-wave (km/s) = 3.07893 3.35139 3.21805
# Velocity P-wave (km/s) = 4.72149 5.23316 4.98390
#
# Compressibility (1/GPa) = 0.04799523
#
# Stress axis : x y z
#
# Youngs Moduli (GPa) = 29.33350 36.50573 60.87375
#
# Poissons Ratio (x) = -0.00700 0.65458
# Poissons Ratio (y) = -0.00562 0.26764
# Poissons Ratio (z) = 0.31542 0.16050
#
# Static dielectric constant tensor:
#      x y z
#    x 1.822160 0.000000 0.000000 
#    y 0.000000 1.803920 0.000000 
#    z 0.000000 0.000000 1.745030 
# 
# From -- ./inp_files/10877.got.cif
#   From: 2010.05.17/outbox.cif.g08.bks.cpg/sg56_6_cif.got.tgz:10877.got - 2010.06.03 13:42:01.
