data_PCOD9432668
_publ_section_title
;
Structure prediction by ZEFSAII (Michael W. Deem and Ramdas Pophale) SiO2 
 PCOD9432668
Probable space group: P C C N
;
_chemical_formula_sum "Si O2"
_cell_formula_units_Z 52
_cell_length_a 18.171413
_cell_length_b 11.627319
_cell_length_c 9.112825
_cell_angle_alpha 90.000000
_cell_angle_beta 90.000000
_cell_angle_gamma 90.000000
_cell_volume 1925.401550
_symmetry_space_group_name_H-M "P C C N"
_symmetry_group_IT_number 56
_symmetry_cell_setting 'orthorhombic'
loop_
_space_group_symop_operation_xyz
x,y,z
1/2-x,1/2-y,z
1/2+x,-y,1/2-z
-x,1/2+y,1/2-z
-x,-y,-z
1/2+x,1/2+y,-z
1/2-x,y,1/2+z
x,1/2-y,1/2+z
loop_
_atom_site_type_symbol
_atom_site_label
_atom_site_fract_x
_atom_site_fract_y
_atom_site_fract_z
Si Si1 0.472446 0.096064 0.298988
Si Si2 0.873263 0.383510 0.657914
Si Si3 0.323825 0.693370 0.112733
Si Si4 0.250000 0.250000 0.668866
Si Si5 0.089570 0.255407 0.028647
Si Si6 0.071326 0.483019 0.897640
Si Si7 0.774465 0.505811 0.172963
O O1 0.611681 0.179514 0.505859
O O2 0.447403 0.185175 0.171095
O O3 0.430082 0.974742 0.283452
O O4 0.553053 0.054546 0.248528
O O5 0.852575 0.286506 0.772018
O O6 0.801730 0.458052 0.615302
O O7 0.052231 0.357074 0.458284
O O8 0.250000 0.750000 0.041596
O O9 0.296215 0.579602 0.195260
O O10 0.324428 0.247687 0.571111
O O11 0.241805 0.366032 0.766298
O O12 0.078518 0.346112 0.895407
O O13 0.156423 0.509237 0.938427
O O14 0.000000 0.500000 0.000000
#
# Coordination Sequence:
#
# PCOD9432668 Si02
#       7
#     8   8   8   4   8   8   8
#     4  11  25  50  73 115 160 217 269 339 421 506
#     4  11  24  45  75 109 156 202 273 340 410 483
#     4  10  23  43  68 108 149 198 259 331 398 482
#     4  12  24  44  80 126 158 212 274 368 418 500
#     4  11  25  45  75 113 161 206 276 338 419 491
#     4  10  26  46  72 108 159 218 265 325 412 505
#     4  11  24  44  74 115 158 204 275 339 421 488
#
# _framework density 27.007352000000001
#
# number of rings (size 3 to 8) (size 9 to 14) (size 15 to 20)
#    0.000    1.231    1.538    3.231    4.308    5.538 
#    0.000   16.154    0.000    0.000    0.000    0.000 
#    0.000    0.000    0.000    0.000    0.000    0.000 
#
# Total GULP energy -290871.648627 kJ/mol
# GULP energy per Si atom -5593.685551 kJ/mol
# Density = 2.694588 g / cm^3
# Si number density = 27.007352 Si / 1000 Ang^3
#
#
#
# Elastic Constant Matrix: (Units=GPa)
#
#
# Indices 1 2 3 4 5 6 
#
# 1 128.5240 11.8613 6.4202 0.0000 0.0000 0.0000
# 2 11.8613 133.3530 45.3190 0.0000 0.0000 0.0000
# 3 6.4202 45.3190 101.1632 0.0000 0.0000 0.0000
# 4 0.0000 0.0000 0.0000 26.3717 0.0000 0.0000
# 5 0.0000 0.0000 0.0000 0.0000 31.6172 0.0000
# 6 0.0000 0.0000 0.0000 0.0000 0.0000 34.7084
#
#
#
# Elastic Compliance Matrix: (Units=1/GPa)
#
#
# Indices 1 2 3 4 5 6 
#
# 1 0.007849 -0.000624 -0.000219 0.000000 0.000000 0.000000
# 2 -0.000624 0.008895 -0.003945 0.000000 0.000000 0.000000
# 3 -0.000219 -0.003945 0.011666 0.000000 0.000000 0.000000
# 4 0.000000 0.000000 0.000000 0.037919 0.000000 0.000000
# 5 0.000000 0.000000 0.000000 0.000000 0.031628 0.000000
# 6 0.000000 0.000000 0.000000 0.000000 0.000000 0.028811
#
#
# Mechanical properties :
#
#
# Convention : Reuss Voigt Hill
#
# Bulk Modulus (GPa) = 53.09249 54.47125 53.78187
# Shear Modulus (GPa) = 35.05730 38.50212 36.77971
#
# Velocity S-wave (km/s) = 3.60678 3.77983 3.69432
# Velocity P-wave (km/s) = 6.08657 6.26596 6.17692
#
# Compressibility (1/GPa) = 0.01883506
#
# Stress axis : x y z
#
# Youngs Moduli (GPa) = 127.40240 112.42092 85.71713
#
# Poissons Ratio (x) = 0.07013 0.01874
# Poissons Ratio (y) = 0.07948 0.33818
# Poissons Ratio (z) = 0.02786 0.44353
#
# Static dielectric constant tensor:
#      x y z
#    x 2.120190 0.000000 0.000000 
#    y 0.000000 2.124490 0.000000 
#    z 0.000000 0.000000 2.217680 
# 
# From -- ./inp_files/16273.got.cif
#   From: 2010.05.17/outbox.cif.g08.bks.cpg/sg56_9_cif.got.tgz:16273.got - 2010.06.03 13:42:01.
