data_PCOD9432505
_publ_section_title
;
Structure prediction by ZEFSAII (Michael W. Deem and Ramdas Pophale) SiO2 
 PCOD9432505
Probable space group: P C C N
;
_chemical_formula_sum "Si O2"
_cell_formula_units_Z 52
_cell_length_a 24.032359
_cell_length_b 7.529506
_cell_length_c 10.543373
_cell_angle_alpha 90.000000
_cell_angle_beta 90.000000
_cell_angle_gamma 90.000000
_cell_volume 1907.842231
_symmetry_space_group_name_H-M "P C C N"
_symmetry_group_IT_number 56
_symmetry_cell_setting 'orthorhombic'
loop_
_space_group_symop_operation_xyz
x,y,z
1/2-x,1/2-y,z
1/2+x,-y,1/2-z
-x,1/2+y,1/2-z
-x,-y,-z
1/2+x,1/2+y,-z
1/2-x,y,1/2+z
x,1/2-y,1/2+z
loop_
_atom_site_type_symbol
_atom_site_label
_atom_site_fract_x
_atom_site_fract_y
_atom_site_fract_z
Si Si1 0.417120 0.224150 0.005884
Si Si2 0.136038 0.875394 0.519877
Si Si3 0.210178 0.450688 0.219797
Si Si4 0.250000 0.750000 0.405450
Si Si5 0.464232 0.443788 0.768610
Si Si6 0.418618 0.677043 0.203271
Si Si7 0.325488 0.082820 0.666232
O O1 0.446597 0.328579 0.891868
O O2 0.366430 0.343144 0.059182
O O3 0.390967 0.042219 0.951634
O O4 0.449549 0.152687 0.133064
O O5 0.158599 0.959328 0.651917
O O6 0.191188 0.784048 0.471355
O O7 0.087935 0.739073 0.556787
O O8 0.236426 0.574203 0.324758
O O9 0.188653 0.254398 0.254963
O O10 0.262355 0.450943 0.120635
O O11 0.530957 0.456523 0.777286
O O12 0.437381 0.640555 0.771399
O O13 0.358280 0.585036 0.222454
#
# Coordination Sequence:
#
# PCOD9432505 Si02
#       7
#     8   8   8   4   8   8   8
#     4  10  25  51  79 120 159 217 271 345 416 496
#     4  10  24  47  72 115 158 202 266 342 414 488
#     4  10  23  46  71 113 153 205 271 326 414 494
#     4  12  22  42  80 116 160 208 264 346 406 510
#     4  11  26  49  80 122 163 213 283 339 419 489
#     4  11  24  48  79 114 163 215 272 346 412 494
#     4  10  22  47  75 106 162 205 267 334 407 490
#
# _framework density 27.255922999999999
#
# number of rings (size 3 to 8) (size 9 to 14) (size 15 to 20)
#    0.000    1.538    0.000    3.231    2.154    4.923 
#   30.462    3.077    0.000    0.000    0.000    0.000 
#    0.000    0.000    0.000    0.000    0.000    0.000 
#
# Total GULP energy -290789.606040 kJ/mol
# GULP energy per Si atom -5592.107808 kJ/mol
# Density = 2.719389 g / cm^3
# Si number density = 27.255923 Si / 1000 Ang^3
#
#
#
# Elastic Constant Matrix: (Units=GPa)
#
#
# Indices 1 2 3 4 5 6 
#
# 1 170.7373 58.4025 35.9267 0.0000 0.0000 0.0000
# 2 58.4025 180.1066 48.7629 0.0000 0.0000 0.0000
# 3 35.9267 48.7629 85.8823 0.0000 0.0000 0.0000
# 4 0.0000 0.0000 0.0000 27.2467 0.0000 0.0000
# 5 0.0000 0.0000 0.0000 0.0000 42.8167 0.0000
# 6 0.0000 0.0000 0.0000 0.0000 0.0000 63.2046
#
#
#
# Elastic Compliance Matrix: (Units=1/GPa)
#
#
# Indices 1 2 3 4 5 6 
#
# 1 0.006838 -0.001705 -0.001893 0.000000 0.000000 0.000000
# 2 -0.001705 0.006986 -0.003253 0.000000 0.000000 0.000000
# 3 -0.001893 -0.003253 0.014283 0.000000 0.000000 0.000000
# 4 0.000000 0.000000 0.000000 0.036702 0.000000 0.000000
# 5 0.000000 0.000000 0.000000 0.000000 0.023355 0.000000
# 6 0.000000 0.000000 0.000000 0.000000 0.000000 0.015822
#
#
# Mechanical properties :
#
#
# Convention : Reuss Voigt Hill
#
# Bulk Modulus (GPa) = 69.41892 80.32338 74.87115
# Shear Modulus (GPa) = 40.81987 46.22920 43.52454
#
# Velocity S-wave (km/s) = 3.87415 4.12286 4.00044
# Velocity P-wave (km/s) = 6.74808 7.22482 6.99052
#
# Compressibility (1/GPa) = 0.01440529
#
# Stress axis : x y z
#
# Youngs Moduli (GPa) = 146.23250 143.14396 70.01467
#
# Poissons Ratio (x) = 0.24407 0.13251
# Poissons Ratio (y) = 0.24934 0.22778
# Poissons Ratio (z) = 0.27675 0.46569
#
# Static dielectric constant tensor:
#      x y z
#    x 2.071500 0.000000 0.000000 
#    y 0.000000 2.205460 0.000000 
#    z 0.000000 0.000000 2.244730 
# 
# From -- ./inp_files/13211.got.cif
#   From: 2010.05.17/outbox.cif.g08.bks.cpg/sg56_7_cif.got.tgz:13211.got - 2010.06.03 13:42:01.
