data_PCOD9432056
_publ_section_title
;
Structure prediction by ZEFSAII (Michael W. Deem and Ramdas Pophale) SiO2 
 PCOD9432056
Probable space group: P C C N
;
_chemical_formula_sum "Si O2"
_cell_formula_units_Z 48
_cell_length_a 5.063891
_cell_length_b 27.207049
_cell_length_c 13.759528
_cell_angle_alpha 90.000000
_cell_angle_beta 90.000000
_cell_angle_gamma 90.000000
_cell_volume 1895.698752
_symmetry_space_group_name_H-M "P C C N"
_symmetry_group_IT_number 56
_symmetry_cell_setting 'orthorhombic'
loop_
_space_group_symop_operation_xyz
x,y,z
1/2-x,1/2-y,z
1/2+x,-y,1/2-z
-x,1/2+y,1/2-z
-x,-y,-z
1/2+x,1/2+y,-z
1/2-x,y,1/2+z
x,1/2-y,1/2+z
loop_
_atom_site_type_symbol
_atom_site_label
_atom_site_fract_x
_atom_site_fract_y
_atom_site_fract_z
Si Si1 0.527773 0.192192 0.223916
Si Si2 0.332287 0.828803 0.457156
Si Si3 0.866060 0.610630 0.231425
Si Si4 0.750000 0.250000 0.403279
Si Si5 0.365310 0.585401 0.101822
Si Si6 0.100359 0.487927 0.687149
Si Si7 0.250000 0.250000 0.574678
O O1 0.260593 0.161274 0.234577
O O2 0.595071 0.215383 0.327411
O O3 0.734182 0.163889 0.153490
O O4 0.473817 0.236771 0.152992
O O5 0.141833 0.792175 0.522955
O O6 0.341626 0.881789 0.506817
O O7 0.606352 0.798119 0.471156
O O8 0.648461 0.594708 0.150621
O O9 0.854133 0.570216 0.317714
O O10 0.144066 0.606708 0.176219
O O11 0.339259 0.526096 0.100628
O O12 0.304432 0.505119 0.772031
#
# Coordination Sequence:
#
# PCOD9432056 Si02
#       7
#     8   8   8   4   8   8   4
#     4  12  26  42  63  95 132 175 230 279 336 399
#     4  12  26  44  64  99 133 178 230 283 334 401
#     4  10  22  39  69  99 131 177 224 278 337 404
#     4  12  22  46  60  86 130 180 230 266 340 392
#     4  10  22  40  69  98 131 179 225 272 340 405
#     4   8  16  36  62  97 130 166 222 273 329 404
#     4  12  26  44  62  92 142 170 220 294 324 398
#
# _framework density 25.320475999999999
#
# number of rings (size 3 to 8) (size 9 to 14) (size 15 to 20)
#    0.000    1.333    5.000    0.000    7.000    0.667 
#    0.000    0.833    0.000    1.000    0.000    0.000 
#    0.000    0.000    0.000    0.000    0.000    0.000 
#
# Total GULP energy -267580.857969 kJ/mol
# GULP energy per Si atom -5574.601208 kJ/mol
# Density = 2.526285 g / cm^3
# Si number density = 25.320476 Si / 1000 Ang^3
#
#
#
# Elastic Constant Matrix: (Units=GPa)
#
#
# Indices 1 2 3 4 5 6 
#
# 1 62.8693 0.9521 32.7480 0.0000 0.0000 0.0000
# 2 0.9521 70.3283 20.3374 0.0000 0.0000 0.0000
# 3 32.7480 20.3374 129.5448 0.0000 0.0000 0.0000
# 4 0.0000 0.0000 0.0000 9.0036 0.0000 0.0000
# 5 0.0000 0.0000 0.0000 0.0000 6.8170 0.0000
# 6 0.0000 0.0000 0.0000 0.0000 0.0000 32.6500
#
#
#
# Elastic Compliance Matrix: (Units=1/GPa)
#
#
# Indices 1 2 3 4 5 6 
#
# 1 0.018406 0.001149 -0.004833 0.000000 0.000000 0.000000
# 2 0.001149 0.014967 -0.002640 0.000000 0.000000 0.000000
# 3 -0.004833 -0.002640 0.009356 0.000000 0.000000 0.000000
# 4 0.000000 0.000000 0.000000 0.111066 0.000000 0.000000
# 5 0.000000 0.000000 0.000000 0.000000 0.146693 0.000000
# 6 0.000000 0.000000 0.000000 0.000000 0.000000 0.030628
#
#
# Mechanical properties :
#
#
# Convention : Reuss Voigt Hill
#
# Bulk Modulus (GPa) = 33.24555 41.20192 37.22374
# Shear Modulus (GPa) = 14.13263 23.60778 18.87020
#
# Velocity S-wave (km/s) = 2.36508 3.05677 2.73290
# Velocity P-wave (km/s) = 4.54055 5.36339 4.96903
#
# Compressibility (1/GPa) = 0.03007921
#
# Stress axis : x y z
#
# Youngs Moduli (GPa) = 54.32943 66.81404 106.88768
#
# Poissons Ratio (x) = -0.07674 0.51662
# Poissons Ratio (y) = -0.06240 0.28218
# Poissons Ratio (z) = 0.26259 0.17639
#
# Static dielectric constant tensor:
#      x y z
#    x 2.143110 0.000000 0.000000 
#    y 0.000000 2.258070 0.000000 
#    z 0.000000 0.000000 1.981670 
# 
# From -- ./inp_files/9784.got.cif
#   From: 2010.05.17/outbox.cif.g08.bks.cpg/sg56_5_cif.got.tgz:9784.got - 2010.06.03 13:42:01.
