data_PCOD9432524
_publ_section_title
;
Structure prediction by ZEFSAII (Michael W. Deem and Ramdas Pophale) SiO2 
 PCOD9432524
Probable space group: P C C N
;
_chemical_formula_sum "Si O2"
_cell_formula_units_Z 48
_cell_length_a 13.338381
_cell_length_b 17.981808
_cell_length_c 8.463635
_cell_angle_alpha 90.000000
_cell_angle_beta 90.000000
_cell_angle_gamma 90.000000
_cell_volume 2029.987672
_symmetry_space_group_name_H-M "P C C N"
_symmetry_group_IT_number 56
_symmetry_cell_setting 'orthorhombic'
loop_
_space_group_symop_operation_xyz
x,y,z
1/2-x,1/2-y,z
1/2+x,-y,1/2-z
-x,1/2+y,1/2-z
-x,-y,-z
1/2+x,1/2+y,-z
1/2-x,y,1/2+z
x,1/2-y,1/2+z
loop_
_atom_site_type_symbol
_atom_site_label
_atom_site_fract_x
_atom_site_fract_y
_atom_site_fract_z
Si Si1 0.103842 0.876402 0.930888
Si Si2 0.443200 0.062845 0.791142
Si Si3 0.045547 0.604619 0.883811
Si Si4 0.945478 0.694754 0.633187
Si Si5 0.337398 0.191007 0.678508
Si Si6 0.775189 0.334060 0.294595
O O1 0.172305 0.858891 0.783308
O O2 0.016367 0.929267 0.862502
O O3 0.184826 0.890246 0.070003
O O4 0.042910 0.810892 0.021607
O O5 0.342699 0.109278 0.751292
O O6 0.422813 0.978339 0.835398
O O7 0.500121 0.098717 0.942201
O O8 0.137454 0.659715 0.840364
O O9 0.958243 0.630766 0.763027
O O10 0.930329 0.768926 0.732346
O O11 0.856718 0.685898 0.507825
O O12 0.250000 0.250000 0.703733
O O13 0.750000 0.250000 0.349148
#
# Coordination Sequence:
#
# PCOD9432524 Si02
#       6
#     8   8   8   8   8   8
#     4  10  23  38  64 100 135 182 224 280 344 407
#     4  10  23  44  73 100 141 184 227 288 357 421
#     4  10  23  45  70 103 139 184 230 282 358 420
#     4  10  23  39  69  95 136 180 227 288 342 413
#     4  11  23  41  68 102 134 180 236 291 345 412
#     4  11  23  37  64 101 141 183 232 286 339 414
#
# _framework density 23.645464
#
# number of rings (size 3 to 8) (size 9 to 14) (size 15 to 20)
#    0.000    1.667    0.000    3.000   11.667    6.000 
#    3.000    1.667   11.000    0.000    0.000    0.000 
#    0.000    0.000    0.000    0.000    0.000    0.000 
#
# Total GULP energy -267659.190209 kJ/mol
# GULP energy per Si atom -5576.233129 kJ/mol
# Density = 2.359165 g / cm^3
# Si number density = 23.645464 Si / 1000 Ang^3
#
#
#
# Elastic Constant Matrix: (Units=GPa)
#
#
# Indices 1 2 3 4 5 6 
#
# 1 64.6579 25.1357 34.8171 0.0000 0.0000 0.0000
# 2 25.1357 89.6161 47.1027 0.0000 0.0000 0.0000
# 3 34.8171 47.1027 118.2827 0.0000 0.0000 0.0000
# 4 0.0000 0.0000 0.0000 36.3851 0.0000 0.0000
# 5 0.0000 0.0000 0.0000 0.0000 20.4554 0.0000
# 6 0.0000 0.0000 0.0000 0.0000 0.0000 18.8873
#
#
#
# Elastic Compliance Matrix: (Units=1/GPa)
#
#
# Indices 1 2 3 4 5 6 
#
# 1 0.019005 -0.003023 -0.004391 0.000000 0.000000 0.000000
# 2 -0.003023 0.014593 -0.004922 0.000000 0.000000 0.000000
# 3 -0.004391 -0.004922 0.011707 0.000000 0.000000 0.000000
# 4 0.000000 0.000000 0.000000 0.027484 0.000000 0.000000
# 5 0.000000 0.000000 0.000000 0.000000 0.048887 0.000000
# 6 0.000000 0.000000 0.000000 0.000000 0.000000 0.052946
#
#
# Mechanical properties :
#
#
# Convention : Reuss Voigt Hill
#
# Bulk Modulus (GPa) = 48.46084 54.07419 51.26752
# Shear Modulus (GPa) = 24.25179 26.17897 25.21538
#
# Velocity S-wave (km/s) = 3.20604 3.33099 3.26911
# Velocity P-wave (km/s) = 5.85185 6.14104 5.99819
#
# Compressibility (1/GPa) = 0.02063522
#
# Stress axis : x y z
#
# Youngs Moduli (GPa) = 52.61655 68.52411 85.42216
#
# Poissons Ratio (x) = 0.20715 0.37505
# Poissons Ratio (y) = 0.15906 0.42041
# Poissons Ratio (z) = 0.23101 0.33725
#
# Static dielectric constant tensor:
#      x y z
#    x 2.014590 0.000000 0.000000 
#    y 0.000000 1.882930 0.000000 
#    z 0.000000 0.000000 1.934550 
# 
# From -- ./inp_files/3399.got.cif
#   From: 2010.05.17/outbox.cif.g08.bks.cpg/sg56_2_cif.got.tgz:3399.got - 2010.06.03 13:42:01.
