data_PCOD9432725
_publ_section_title
;
Structure prediction by ZEFSAII (Michael W. Deem and Ramdas Pophale) SiO2 
 PCOD9432725
Probable space group: P C C N
;
_chemical_formula_sum "Si O2"
_cell_formula_units_Z 32
_cell_length_a 4.797901
_cell_length_b 18.015322
_cell_length_c 13.772416
_cell_angle_alpha 90.000000
_cell_angle_beta 90.000000
_cell_angle_gamma 90.000000
_cell_volume 1190.428851
_symmetry_space_group_name_H-M "P C C N"
_symmetry_group_IT_number 56
_symmetry_cell_setting 'orthorhombic'
loop_
_space_group_symop_operation_xyz
x,y,z
1/2-x,1/2-y,z
1/2+x,-y,1/2-z
-x,1/2+y,1/2-z
-x,-y,-z
1/2+x,1/2+y,-z
1/2-x,y,1/2+z
x,1/2-y,1/2+z
loop_
_atom_site_type_symbol
_atom_site_label
_atom_site_fract_x
_atom_site_fract_y
_atom_site_fract_z
Si Si1 0.669132 0.611522 0.411421
Si Si2 0.033452 0.488528 0.312317
Si Si3 0.183400 0.831513 0.018398
Si Si4 0.602439 0.828646 0.697627
O O1 0.844713 0.537439 0.384070
O O2 0.292817 0.533281 0.266702
O O3 0.619023 0.658850 0.313004
O O4 0.873427 0.655653 0.481670
O O5 0.382428 0.607609 0.470360
O O6 0.189489 0.412030 0.338847
O O7 0.250000 0.750000 0.980974
O O8 0.184454 0.828442 0.135407
O O9 0.750000 0.750000 0.675686
#
# Coordination Sequence:
#
# PCOD9432725 Si02
#       4
#     8   8   8   8
#     4  11  25  46  72 101 146 193 236 304 368 427
#     4  10  23  44  72 107 144 192 250 294 360 452
#     4  12  26  44  69 107 141 185 251 297 357 446
#     4  11  25  46  74 105 145 189 238 304 368 423
#
# _framework density 26.881069
#
# number of rings (size 3 to 8) (size 9 to 14) (size 15 to 20)
#    0.000    1.000    0.000    6.750    0.000   15.000 
#    0.000    0.000    0.000    0.000    0.000    0.000 
#    0.000    0.000    0.000    0.000    0.000    0.000 
#
# Total GULP energy -178473.652742 kJ/mol
# GULP energy per Si atom -5577.301648 kJ/mol
# Density = 2.681989 g / cm^3
# Si number density = 26.881069 Si / 1000 Ang^3
#
#
#
# Elastic Constant Matrix: (Units=GPa)
#
#
# Indices 1 2 3 4 5 6 
#
# 1 136.9295 41.2471 58.0084 0.0000 0.0000 0.0000
# 2 41.2471 175.0143 63.1385 0.0000 0.0000 0.0000
# 3 58.0084 63.1385 150.0124 0.0000 0.0000 0.0000
# 4 0.0000 0.0000 0.0000 29.5028 0.0000 0.0000
# 5 0.0000 0.0000 0.0000 0.0000 44.8053 0.0000
# 6 0.0000 0.0000 0.0000 0.0000 0.0000 57.2843
#
#
#
# Elastic Compliance Matrix: (Units=1/GPa)
#
#
# Indices 1 2 3 4 5 6 
#
# 1 0.008882 -0.001007 -0.003011 0.000000 0.000000 0.000000
# 2 -0.001007 0.006851 -0.002494 0.000000 0.000000 0.000000
# 3 -0.003011 -0.002494 0.008880 0.000000 0.000000 0.000000
# 4 0.000000 0.000000 0.000000 0.033895 0.000000 0.000000
# 5 0.000000 0.000000 0.000000 0.000000 0.022319 0.000000
# 6 0.000000 0.000000 0.000000 0.000000 0.000000 0.017457
#
#
# Mechanical properties :
#
#
# Convention : Reuss Voigt Hill
#
# Bulk Modulus (GPa) = 86.28742 87.41603 86.85173
# Shear Modulus (GPa) = 43.41407 46.28929 44.85168
#
# Velocity S-wave (km/s) = 4.02312 4.15420 4.08919
# Velocity P-wave (km/s) = 7.33144 7.45654 7.39426
#
# Compressibility (1/GPa) = 0.01158917
#
# Stress axis : x y z
#
# Youngs Moduli (GPa) = 112.58957 145.96557 112.61254
#
# Poissons Ratio (x) = 0.14701 0.33903
# Poissons Ratio (y) = 0.11339 0.28086
# Poissons Ratio (z) = 0.33897 0.36404
#
# Static dielectric constant tensor:
#      x y z
#    x 2.091190 0.000000 0.000000 
#    y 0.000000 2.196330 0.000000 
#    z 0.000000 0.000000 2.210630 
# 
# From -- ./inp_files/13790.got.cif
#   From: 2010.05.17/outbox.cif.g08.bks.cpg/sg56_7_cif.got.tgz:13790.got - 2010.06.03 13:42:01.
