data_PCOD9432456
_publ_section_title
;
Structure prediction by ZEFSAII (Michael W. Deem and Ramdas Pophale) SiO2 
 PCOD9432456
Probable space group: P C C N
;
_chemical_formula_sum "Si O2"
_cell_formula_units_Z 48
_cell_length_a 12.200770
_cell_length_b 13.098027
_cell_length_c 13.042804
_cell_angle_alpha 90.000000
_cell_angle_beta 90.000000
_cell_angle_gamma 90.000000
_cell_volume 2084.318530
_symmetry_space_group_name_H-M "P C C N"
_symmetry_group_IT_number 56
_symmetry_cell_setting 'orthorhombic'
loop_
_space_group_symop_operation_xyz
x,y,z
1/2-x,1/2-y,z
1/2+x,-y,1/2-z
-x,1/2+y,1/2-z
-x,-y,-z
1/2+x,1/2+y,-z
1/2-x,y,1/2+z
x,1/2-y,1/2+z
loop_
_atom_site_type_symbol
_atom_site_label
_atom_site_fract_x
_atom_site_fract_y
_atom_site_fract_z
Si Si1 0.861919 0.561020 0.781617
Si Si2 0.140862 0.189350 0.916626
Si Si3 0.009518 0.825801 0.439352
Si Si4 0.241330 0.631565 0.007174
Si Si5 0.153278 0.450911 0.610461
Si Si6 0.916873 0.124217 0.166962
O O1 0.897563 0.623607 0.680540
O O2 0.924393 0.603613 0.880210
O O3 0.733054 0.583872 0.798685
O O4 0.886340 0.440307 0.767460
O O5 0.250000 0.250000 0.887402
O O6 0.049707 0.262387 0.969361
O O7 0.176275 0.113723 0.008289
O O8 0.114310 0.885903 0.482100
O O9 0.051430 0.742397 0.353647
O O10 0.250000 0.750000 0.034953
O O11 0.311007 0.611868 0.904314
O O12 0.305876 0.564154 0.088340
O O13 0.026295 0.434205 0.630087
#
# Coordination Sequence:
#
# PCOD9432456 Si02
#       6
#     8   8   8   8   8   8
#     4  12  26  42  70 104 132 181 234 287 338 415
#     4  11  24  44  70  97 137 181 227 285 351 413
#     4  10  25  45  70 102 139 176 232 287 351 415
#     4  10  22  45  70  98 139 183 220 284 352 412
#     4  11  24  45  70 100 136 180 232 279 354 413
#     4  10  24  43  68  97 139 184 221 277 351 420
#
# _framework density 23.029108999999998
#
# number of rings (size 3 to 8) (size 9 to 14) (size 15 to 20)
#    0.000    1.333    3.333    0.500   11.667    2.000 
#    0.000    0.000    0.000    0.000    0.000    0.000 
#    0.000    0.000    0.000    0.000    0.000    0.000 
#
# Total GULP energy -268094.019398 kJ/mol
# GULP energy per Si atom -5585.292071 kJ/mol
# Density = 2.297669 g / cm^3
# Si number density = 23.029109 Si / 1000 Ang^3
#
#
#
# Elastic Constant Matrix: (Units=GPa)
#
#
# Indices 1 2 3 4 5 6 
#
# 1 111.3363 33.6081 11.5037 0.0000 0.0000 0.0000
# 2 33.6081 58.8184 24.6734 0.0000 0.0000 0.0000
# 3 11.5037 24.6734 54.2187 0.0000 0.0000 0.0000
# 4 0.0000 0.0000 0.0000 23.0723 0.0000 0.0000
# 5 0.0000 0.0000 0.0000 0.0000 -54.2923 0.0000
# 6 0.0000 0.0000 0.0000 0.0000 0.0000 164.8820
#
#
#
# Elastic Compliance Matrix: (Units=1/GPa)
#
#
# Indices 1 2 3 4 5 6 
#
# 1 0.010872 -0.006482 0.000643 0.000000 0.000000 0.000000
# 2 -0.006482 0.024877 -0.009946 0.000000 0.000000 0.000000
# 3 0.000643 -0.009946 0.022833 0.000000 0.000000 0.000000
# 4 0.000000 0.000000 0.000000 0.043342 0.000000 0.000000
# 5 0.000000 0.000000 0.000000 0.000000 -0.018419 0.000000
# 6 0.000000 0.000000 0.000000 0.000000 0.000000 0.006065
#
#
# Mechanical properties :
#
#
# Convention : Reuss Voigt Hill
#
# Bulk Modulus (GPa) = 37.01851 40.43822 38.72836
# Shear Modulus (GPa) = 38.41890 37.03827 37.72858
#
# Velocity S-wave (km/s) = 4.08888 4.01474 4.05198
# Velocity P-wave (km/s) = 6.19690 6.25209 6.22455
#
# Compressibility (1/GPa) = 0.02701352
#
# Stress axis : x y z
#
# Youngs Moduli (GPa) = 91.97958 40.19745 43.79546
#
# Poissons Ratio (x) = 0.26055 -0.02816
# Poissons Ratio (y) = 0.59620 0.43558
# Poissons Ratio (z) = -0.05914 0.39979
#
# Static dielectric constant tensor:
#      x y z
#    x 1.856960 0.000000 0.000000 
#    y 0.000000 1.935610 0.000000 
#    z 0.000000 0.000000 1.870630 
# 
# From -- ./inp_files/11608.got.cif
#   From: 2010.05.17/outbox.cif.g08.bks.cpg/sg56_6_cif.got.tgz:11608.got - 2010.06.03 13:42:01.
