data_PCOD9432573
_publ_section_title
;
Structure prediction by ZEFSAII (Michael W. Deem and Ramdas Pophale) SiO2 
 PCOD9432573
Probable space group: P C C N
;
_chemical_formula_sum "Si O2"
_cell_formula_units_Z 52
_cell_length_a 7.972782
_cell_length_b 21.411788
_cell_length_c 13.698293
_cell_angle_alpha 90.000000
_cell_angle_beta 90.000000
_cell_angle_gamma 90.000000
_cell_volume 2338.456391
_symmetry_space_group_name_H-M "P C C N"
_symmetry_group_IT_number 56
_symmetry_cell_setting 'orthorhombic'
loop_
_space_group_symop_operation_xyz
x,y,z
1/2-x,1/2-y,z
1/2+x,-y,1/2-z
-x,1/2+y,1/2-z
-x,-y,-z
1/2+x,1/2+y,-z
1/2-x,y,1/2+z
x,1/2-y,1/2+z
loop_
_atom_site_type_symbol
_atom_site_label
_atom_site_fract_x
_atom_site_fract_y
_atom_site_fract_z
Si Si1 0.250000 0.250000 0.900263
Si Si2 0.026780 0.598562 0.719296
Si Si3 0.332173 0.343310 0.247457
Si Si4 0.485287 0.279718 0.064063
Si Si5 0.341020 0.849669 0.913784
Si Si6 0.202380 0.942720 0.032651
Si Si7 0.463016 0.034438 0.654920
O O1 0.135428 0.296560 0.836488
O O2 0.376084 0.288496 0.967962
O O3 0.146755 0.620753 0.806162
O O4 0.112256 0.601836 0.612857
O O5 0.983057 0.524709 0.719948
O O6 0.859261 0.637294 0.735028
O O7 0.372698 0.303592 0.152245
O O8 0.429223 0.407478 0.224399
O O9 0.529404 0.206667 0.074290
O O10 0.659612 0.317567 0.069209
O O11 0.361407 0.905391 0.992411
O O12 0.093160 0.952965 0.933571
O O13 0.198933 0.007796 0.093048
#
# Coordination Sequence:
#
# PCOD9432573 Si02
#       7
#     4   8   8   8   8   8   8
#     4  12  26  44  70  92 138 188 230 280 348 398
#     4  10  23  40  71 102 137 179 223 280 358 409
#     4  12  24  45  69 102 135 182 236 287 336 424
#     4  11  26  44  66  98 137 183 229 291 332 408
#     4  11  22  44  69  95 141 176 234 280 337 424
#     4   9  20  43  66 100 137 183 211 288 349 407
#     4   9  22  40  71  99 140 174 227 284 352 404
#
# _framework density 22.236891
#
# number of rings (size 3 to 8) (size 9 to 14) (size 15 to 20)
#    0.923    0.615    1.538    3.231    2.154    1.231 
#    2.769    3.846    0.000    0.000    0.000    0.000 
#    0.000    0.000    0.000    0.000    0.000    0.000 
#
# Total GULP energy -289872.174556 kJ/mol
# GULP energy per Si atom -5574.464895 kJ/mol
# Density = 2.218628 g / cm^3
# Si number density = 22.236891 Si / 1000 Ang^3
#
#
#
# Elastic Constant Matrix: (Units=GPa)
#
#
# Indices 1 2 3 4 5 6 
#
# 1 30.9238 3.8001 22.1329 0.0000 0.0000 0.0000
# 2 3.8001 85.2286 36.6191 0.0000 0.0000 0.0000
# 3 22.1329 36.6191 114.7306 0.0000 0.0000 0.0000
# 4 0.0000 0.0000 0.0000 3.4895 0.0000 0.0000
# 5 0.0000 0.0000 0.0000 0.0000 3.4081 0.0000
# 6 0.0000 0.0000 0.0000 0.0000 0.0000 31.2429
#
#
#
# Elastic Compliance Matrix: (Units=1/GPa)
#
#
# Indices 1 2 3 4 5 6 
#
# 1 0.037723 0.001674 -0.007812 0.000000 0.000000 0.000000
# 2 0.001674 0.013672 -0.004687 0.000000 0.000000 0.000000
# 3 -0.007812 -0.004687 0.011719 0.000000 0.000000 0.000000
# 4 0.000000 0.000000 0.000000 0.286572 0.000000 0.000000
# 5 0.000000 0.000000 0.000000 0.000000 0.293420 0.000000
# 6 0.000000 0.000000 0.000000 0.000000 0.000000 0.032007
#
#
# Mechanical properties :
#
#
# Convention : Reuss Voigt Hill
#
# Bulk Modulus (GPa) = 24.11627 39.55414 31.83520
# Shear Modulus (GPa) = 7.03647 18.85016 12.94332
#
# Velocity S-wave (km/s) = 1.78078 2.91468 2.41522
# Velocity P-wave (km/s) = 3.88548 5.39939 4.70374
#
# Compressibility (1/GPa) = 0.04146579
#
# Stress axis : x y z
#
# Youngs Moduli (GPa) = 26.50920 73.14100 85.33202
#
# Poissons Ratio (x) = -0.12246 0.66658
# Poissons Ratio (y) = -0.04439 0.39994
# Poissons Ratio (z) = 0.20708 0.34280
#
# Static dielectric constant tensor:
#      x y z
#    x 1.859720 0.000000 0.000000 
#    y 0.000000 1.938100 0.000000 
#    z 0.000000 0.000000 1.802650 
# 
# From -- ./inp_files/10963.got.cif
#   From: 2010.05.17/outbox.cif.g08.bks.cpg/sg56_6_cif.got.tgz:10963.got - 2010.06.03 13:42:01.
