data_PCOD9432459
_publ_section_title
;
Structure prediction by ZEFSAII (Michael W. Deem and Ramdas Pophale) SiO2 
 PCOD9432459
Probable space group: P C C N
;
_chemical_formula_sum "Si O2"
_cell_formula_units_Z 56
_cell_length_a 15.142731
_cell_length_b 11.333906
_cell_length_c 14.632643
_cell_angle_alpha 90.000000
_cell_angle_beta 90.000000
_cell_angle_gamma 90.000000
_cell_volume 2511.346227
_symmetry_space_group_name_H-M "P C C N"
_symmetry_group_IT_number 56
_symmetry_cell_setting 'orthorhombic'
loop_
_space_group_symop_operation_xyz
x,y,z
1/2-x,1/2-y,z
1/2+x,-y,1/2-z
-x,1/2+y,1/2-z
-x,-y,-z
1/2+x,1/2+y,-z
1/2-x,y,1/2+z
x,1/2-y,1/2+z
loop_
_atom_site_type_symbol
_atom_site_label
_atom_site_fract_x
_atom_site_fract_y
_atom_site_fract_z
Si Si1 0.122211 0.606640 0.482948
Si Si2 0.823135 0.834854 0.444403
Si Si3 0.869572 0.505974 0.779805
Si Si4 0.769496 0.985065 0.613504
Si Si5 0.645331 0.251945 0.847536
Si Si6 0.573154 0.472970 0.737951
Si Si7 0.560360 0.624222 0.902849
O O1 0.218697 0.589004 0.440872
O O2 0.112752 0.716288 0.551037
O O3 0.100312 0.483652 0.536592
O O4 0.045219 0.616401 0.409026
O O5 0.750000 0.750000 0.401544
O O6 0.835440 0.942044 0.375614
O O7 0.785915 0.880106 0.541071
O O8 0.907244 0.748204 0.443226
O O9 0.798960 0.534849 0.698960
O O10 0.881774 0.367562 0.798910
O O11 0.968994 0.552916 0.766615
O O12 0.867372 0.014254 0.648547
O O13 0.750000 0.250000 0.852070
O O14 0.615532 0.363250 0.789460
O O15 0.586350 0.590665 0.799735
#
# Coordination Sequence:
#
# PCOD9432459 Si02
#       7
#     8   8   8   8   8   8   8
#     4  10  22  45  76 101 142 203 253 301 384 462
#     4  12  27  47  74 111 155 193 255 329 382 458
#     4  12  28  51  75 117 155 198 260 322 391 466
#     4  12  25  48  77 109 147 208 259 306 396 461
#     4  11  24  49  73 105 153 196 254 322 374 461
#     4  11  26  47  78 110 153 201 256 316 383 462
#     4  10  22  47  71 107 150 196 248 310 381 459
#
# _framework density 22.298797
#
# number of rings (size 3 to 8) (size 9 to 14) (size 15 to 20)
#    0.000    0.857    4.286    1.714    4.000    2.286 
#   10.286    0.000    0.000    0.000    0.000    0.000 
#    0.000    0.000    0.000    0.000    0.000    0.000 
#
# Total GULP energy -312790.945342 kJ/mol
# GULP energy per Si atom -5585.552595 kJ/mol
# Density = 2.224804 g / cm^3
# Si number density = 22.298797 Si / 1000 Ang^3
#
#
#
# Elastic Constant Matrix: (Units=GPa)
#
#
# Indices 1 2 3 4 5 6 
#
# 1 55.9379 12.0234 25.8909 0.0000 0.0000 0.0000
# 2 12.0234 78.5169 42.0139 0.0000 0.0000 0.0000
# 3 25.8909 42.0139 91.2630 0.0000 0.0000 0.0000
# 4 0.0000 0.0000 0.0000 48.3462 0.0000 0.0000
# 5 0.0000 0.0000 0.0000 0.0000 38.4189 0.0000
# 6 0.0000 0.0000 0.0000 0.0000 0.0000 32.9588
#
#
#
# Elastic Compliance Matrix: (Units=1/GPa)
#
#
# Indices 1 2 3 4 5 6 
#
# 1 0.020579 -0.000036 -0.005822 0.000000 0.000000 0.000000
# 2 -0.000036 0.016899 -0.007769 0.000000 0.000000 0.000000
# 3 -0.005822 -0.007769 0.016186 0.000000 0.000000 0.000000
# 4 0.000000 0.000000 0.000000 0.020684 0.000000 0.000000
# 5 0.000000 0.000000 0.000000 0.000000 0.026029 0.000000
# 6 0.000000 0.000000 0.000000 0.000000 0.000000 0.030341
#
#
# Mechanical properties :
#
#
# Convention : Reuss Voigt Hill
#
# Bulk Modulus (GPa) = 37.86510 42.84157 40.35334
# Shear Modulus (GPa) = 29.98046 33.66408 31.82227
#
# Velocity S-wave (km/s) = 3.67070 3.88968 3.78178
# Velocity P-wave (km/s) = 5.91465 6.27909 6.09959
#
# Compressibility (1/GPa) = 0.02640954
#
# Stress axis : x y z
#
# Youngs Moduli (GPa) = 48.59258 59.17509 61.78331
#
# Poissons Ratio (x) = 0.00215 0.35967
# Poissons Ratio (y) = 0.00176 0.48002
# Poissons Ratio (z) = 0.28288 0.45975
#
# Static dielectric constant tensor:
#      x y z
#    x 1.933440 0.000000 0.000000 
#    y 0.000000 1.813810 0.000000 
#    z 0.000000 0.000000 2.286670 
# 
# From -- ./inp_files/11707.got.cif
#   From: 2010.05.17/outbox.cif.g08.bks.cpg/sg56_6_cif.got.tgz:11707.got - 2010.06.03 13:42:01.
