data_PCOD9432730
_publ_section_title
;
Structure prediction by ZEFSAII (Michael W. Deem and Ramdas Pophale) SiO2 
 PCOD9432730
Probable space group: P C C N
;
_chemical_formula_sum "Si O2"
_cell_formula_units_Z 44
_cell_length_a 9.040709
_cell_length_b 20.229241
_cell_length_c 7.830275
_cell_angle_alpha 90.000000
_cell_angle_beta 90.000000
_cell_angle_gamma 90.000000
_cell_volume 1432.053007
_symmetry_space_group_name_H-M "P C C N"
_symmetry_group_IT_number 56
_symmetry_cell_setting 'orthorhombic'
loop_
_space_group_symop_operation_xyz
x,y,z
1/2-x,1/2-y,z
1/2+x,-y,1/2-z
-x,1/2+y,1/2-z
-x,-y,-z
1/2+x,1/2+y,-z
1/2-x,y,1/2+z
x,1/2-y,1/2+z
loop_
_atom_site_type_symbol
_atom_site_label
_atom_site_fract_x
_atom_site_fract_y
_atom_site_fract_z
Si Si1 0.943071 0.448369 0.829931
Si Si2 0.250000 0.750000 0.917151
Si Si3 0.419518 0.210697 0.101663
Si Si4 0.346182 0.144190 0.724204
Si Si5 0.913451 0.585029 0.652660
Si Si6 0.205496 0.890764 0.985954
O O1 0.111894 0.426857 0.827191
O O2 0.870274 0.395068 0.698932
O O3 0.858524 0.429770 0.002182
O O4 0.894353 0.517645 0.754550
O O5 0.408142 0.777226 0.846336
O O6 0.212276 0.814092 0.025090
O O7 0.361086 0.285022 0.118902
O O8 0.352718 0.149553 0.231618
O O9 0.402372 0.185041 0.908959
O O10 0.358596 0.101107 0.536104
O O11 0.088441 0.581210 0.618117
#
# Coordination Sequence:
#
# PCOD9432730 Si02
#       6
#     8   4   8   8   8   8
#     4  12  25  51  73 117 155 206 260 327 394 481
#     4  12  24  44  76 116 154 200 270 318 400 478
#     4   9  21  45  72 108 149 200 253 323 389 464
#     4   9  21  43  75 105 152 196 257 315 392 458
#     4  10  23  44  75 107 153 201 258 322 393 463
#     4  12  28  44  81 110 156 204 261 322 397 471
#
# _framework density 30.725118999999999
#
# number of rings (size 3 to 8) (size 9 to 14) (size 15 to 20)
#    1.091    0.364    1.818    2.727    2.545    0.727 
#    3.273    6.364    0.000    0.000    0.000    0.000 
#    0.000    0.000    0.000    0.000    0.000    0.000 
#
# Total GULP energy -245361.796229 kJ/mol
# GULP energy per Si atom -5576.404460 kJ/mol
# Density = 3.065519 g / cm^3
# Si number density = 30.725119 Si / 1000 Ang^3
#
#
#
# Elastic Constant Matrix: (Units=GPa)
#
#
# Indices 1 2 3 4 5 6 
#
# 1 128.4887 55.0120 38.0442 0.0000 0.0000 0.0000
# 2 55.0120 198.7327 73.1410 0.0000 0.0000 0.0000
# 3 38.0442 73.1410 190.5940 0.0000 0.0000 0.0000
# 4 0.0000 0.0000 0.0000 64.1951 0.0000 0.0000
# 5 0.0000 0.0000 0.0000 0.0000 38.5049 0.0000
# 6 0.0000 0.0000 0.0000 0.0000 0.0000 59.5529
#
#
#
# Elastic Compliance Matrix: (Units=1/GPa)
#
#
# Indices 1 2 3 4 5 6 
#
# 1 0.008983 -0.002127 -0.000977 0.000000 0.000000 0.000000
# 2 -0.002127 0.006363 -0.002017 0.000000 0.000000 0.000000
# 3 -0.000977 -0.002017 0.006216 0.000000 0.000000 0.000000
# 4 0.000000 0.000000 0.000000 0.015578 0.000000 0.000000
# 5 0.000000 0.000000 0.000000 0.000000 0.025971 0.000000
# 6 0.000000 0.000000 0.000000 0.000000 0.000000 0.016792
#
#
# Mechanical properties :
#
#
# Convention : Reuss Voigt Hill
#
# Bulk Modulus (GPa) = 88.34335 94.46777 91.40556
# Shear Modulus (GPa) = 53.23847 55.89179 54.56513
#
# Velocity S-wave (km/s) = 4.16713 4.26971 4.21873
# Velocity P-wave (km/s) = 7.20892 7.42429 7.31740
#
# Compressibility (1/GPa) = 0.01131947
#
# Stress axis : x y z
#
# Youngs Moduli (GPa) = 111.32532 157.15563 160.87863
#
# Poissons Ratio (x) = 0.33428 0.15714
# Poissons Ratio (y) = 0.23679 0.32454
# Poissons Ratio (z) = 0.10874 0.31703
#
# Static dielectric constant tensor:
#      x y z
#    x 3.700730 0.000000 0.000000 
#    y 0.000000 1.985500 0.000000 
#    z 0.000000 0.000000 2.302780 
# 
# From -- ./inp_files/3331.got.cif
#   From: 2010.05.17/outbox.cif.g08.bks.cpg/sg56_2_cif.got.tgz:3331.got - 2010.06.03 13:42:01.
