data_PCOD9432171
_publ_section_title
;
Structure prediction by ZEFSAII (Michael W. Deem and Ramdas Pophale) SiO2 
 PCOD9432171
Probable space group: P C C N
;
_chemical_formula_sum "Si O2"
_cell_formula_units_Z 64
_cell_length_a 14.565207
_cell_length_b 23.563119
_cell_length_c 10.113134
_cell_angle_alpha 90.000000
_cell_angle_beta 90.000000
_cell_angle_gamma 90.000000
_cell_volume 3470.844840
_symmetry_space_group_name_H-M "P C C N"
_symmetry_group_IT_number 56
_symmetry_cell_setting 'orthorhombic'
loop_
_space_group_symop_operation_xyz
x,y,z
1/2-x,1/2-y,z
1/2+x,-y,1/2-z
-x,1/2+y,1/2-z
-x,-y,-z
1/2+x,1/2+y,-z
1/2-x,y,1/2+z
x,1/2-y,1/2+z
loop_
_atom_site_type_symbol
_atom_site_label
_atom_site_fract_x
_atom_site_fract_y
_atom_site_fract_z
Si Si1 0.242704 0.990901 0.842451
Si Si2 0.520393 0.250784 0.093087
Si Si3 0.371145 0.901677 0.728853
Si Si4 0.238372 0.070652 0.593062
Si Si5 0.144386 0.732200 0.666811
Si Si6 0.585281 0.643047 0.984885
Si Si7 0.566387 0.050794 0.540215
Si Si8 0.439067 0.366458 0.698622
O O1 0.299657 0.933570 0.820906
O O2 0.136215 0.972219 0.850989
O O3 0.259841 0.033141 0.721412
O O4 0.268444 0.026768 0.971900
O O5 0.589923 0.262641 0.214153
O O6 0.438931 0.295849 0.073520
O O7 0.474231 0.190236 0.125551
O O8 0.584221 0.255173 0.963206
O O9 0.355884 0.834917 0.702957
O O10 0.372754 0.931224 0.585865
O O11 0.472482 0.907169 0.790893
O O12 0.320911 0.113977 0.560683
O O13 0.145929 0.105045 0.625354
O O14 0.250000 0.750000 0.652118
O O15 0.500662 0.603570 0.935910
O O16 0.583780 0.645401 0.145805
O O17 0.500000 0.000000 0.500000
#
# Coordination Sequence:
#
# PCOD9432171 Si02
#       8
#     8   8   8   8   8   8   8   8
#     4  12  23  39  66 103 128 171 225 265 328 405
#     4  11  22  44  67  97 129 175 219 274 328 394
#     4  10  22  41  63  91 136 170 203 272 331 387
#     4  12  24  42  68  95 132 171 226 275 325 391
#     4  11  24  41  67  99 136 171 219 268 330 396
#     4  11  22  44  68  93 134 180 215 272 342 395
#     4  11  19  39  66  89 128 178 213 252 326 397
#     4  10  23  45  65  94 135 167 221 281 329 395
#
# _framework density 18.439316000000002
#
# number of rings (size 3 to 8) (size 9 to 14) (size 15 to 20)
#    0.000    1.000    7.500    1.125    1.750    4.000 
#    0.000    1.250    0.000    0.000    0.000    0.000 
#    0.000    0.000    0.000    0.000    0.000    0.000 
#
# Total GULP energy -357194.236105 kJ/mol
# GULP energy per Si atom -5581.159939 kJ/mol
# Density = 1.839735 g / cm^3
# Si number density = 18.439316 Si / 1000 Ang^3
#
#
#
# Elastic Constant Matrix: (Units=GPa)
#
#
# Indices 1 2 3 4 5 6 
#
# 1 123.4494 47.2890 48.5023 0.0000 0.0000 0.0000
# 2 47.2890 82.8336 46.7869 0.0000 0.0000 0.0000
# 3 48.5023 46.7869 112.6098 0.0000 0.0000 0.0000
# 4 0.0000 0.0000 0.0000 32.5849 0.0000 0.0000
# 5 0.0000 0.0000 0.0000 0.0000 26.7981 0.0000
# 6 0.0000 0.0000 0.0000 0.0000 0.0000 33.6978
#
#
#
# Elastic Compliance Matrix: (Units=1/GPa)
#
#
# Indices 1 2 3 4 5 6 
#
# 1 0.010996 -0.004707 -0.002780 0.000000 0.000000 0.000000
# 2 -0.004707 0.017789 -0.005364 0.000000 0.000000 0.000000
# 3 -0.002780 -0.005364 0.012306 0.000000 0.000000 0.000000
# 4 0.000000 0.000000 0.000000 0.030689 0.000000 0.000000
# 5 0.000000 0.000000 0.000000 0.000000 0.037316 0.000000
# 6 0.000000 0.000000 0.000000 0.000000 0.000000 0.029676
#
#
# Mechanical properties :
#
#
# Convention : Reuss Voigt Hill
#
# Bulk Modulus (GPa) = 64.98065 67.11659 66.04862
# Shear Modulus (GPa) = 29.48045 30.37047 29.92546
#
# Velocity S-wave (km/s) = 4.00282 4.06279 4.03291
# Velocity P-wave (km/s) = 7.52862 7.64761 7.58835
#
# Compressibility (1/GPa) = 0.01538920
#
# Stress axis : x y z
#
# Youngs Moduli (GPa) = 90.94227 56.21413 81.25961
#
# Poissons Ratio (x) = 0.26460 0.22594
# Poissons Ratio (y) = 0.42807 0.43584
# Poissons Ratio (z) = 0.25286 0.30151
#
# Static dielectric constant tensor:
#      x y z
#    x 1.636430 0.000000 0.000000 
#    y 0.000000 1.662870 0.000000 
#    z 0.000000 0.000000 1.634520 
# 
# From -- ./inp_files/3707.got.cif
#   From: 2010.05.17/outbox.cif.g08.bks.cpg/sg56_2_cif.got.tgz:3707.got - 2010.06.03 13:42:01.
