data_PCOD9432443
_publ_section_title
;
Structure prediction by ZEFSAII (Michael W. Deem and Ramdas Pophale) SiO2 
 PCOD9432443
Probable space group: P C C N
;
_chemical_formula_sum "Si O2"
_cell_formula_units_Z 48
_cell_length_a 8.455181
_cell_length_b 15.631516
_cell_length_c 16.928377
_cell_angle_alpha 90.000000
_cell_angle_beta 90.000000
_cell_angle_gamma 90.000000
_cell_volume 2237.377832
_symmetry_space_group_name_H-M "P C C N"
_symmetry_group_IT_number 56
_symmetry_cell_setting 'orthorhombic'
loop_
_space_group_symop_operation_xyz
x,y,z
1/2-x,1/2-y,z
1/2+x,-y,1/2-z
-x,1/2+y,1/2-z
-x,-y,-z
1/2+x,1/2+y,-z
1/2-x,y,1/2+z
x,1/2-y,1/2+z
loop_
_atom_site_type_symbol
_atom_site_label
_atom_site_fract_x
_atom_site_fract_y
_atom_site_fract_z
Si Si1 0.566271 0.272201 0.106060
Si Si2 0.852138 0.573670 0.096824
Si Si3 0.523989 0.401478 0.243642
Si Si4 0.008592 0.096954 0.966535
Si Si5 0.969893 0.588196 0.925431
Si Si6 0.702691 0.471760 0.845257
O O1 0.750000 0.250000 0.092949
O O2 0.542397 0.320829 0.187962
O O3 0.475849 0.182475 0.108113
O O4 0.508246 0.334055 0.035521
O O5 0.676221 0.602423 0.077372
O O6 0.917916 0.610914 0.177996
O O7 0.879531 0.470328 0.098590
O O8 0.957406 0.596742 0.020017
O O9 0.440820 0.475317 0.192076
O O10 0.691636 0.432792 0.276275
O O11 0.866415 0.099368 0.903783
O O12 0.000000 0.000000 0.000000
O O13 0.818080 0.536054 0.893476
#
# Coordination Sequence:
#
# PCOD9432443 Si02
#       6
#     8   8   8   8   8   8
#     4  12  28  45  73 105 148 185 239 302 359 409
#     4  10  22  44  77 101 138 184 244 283 355 434
#     4  11  25  43  70 106 140 179 233 298 364 411
#     4  12  22  45  74 102 138 195 242 280 352 439
#     4  10  23  45  73 103 136 185 237 292 345 427
#     4  11  24  42  76 101 137 190 240 283 354 435
#
# _framework density 21.453686000000001
#
# number of rings (size 3 to 8) (size 9 to 14) (size 15 to 20)
#    0.000    1.000    3.333    2.000    9.333    2.667 
#    3.000    1.667    0.000    0.000    0.000    0.000 
#    0.000    0.000    0.000    0.000    0.000    0.000 
#
# Total GULP energy -268649.031619 kJ/mol
# GULP energy per Si atom -5596.854825 kJ/mol
# Density = 2.140486 g / cm^3
# Si number density = 21.453686 Si / 1000 Ang^3
#
#
#
# Elastic Constant Matrix: (Units=GPa)
#
#
# Indices 1 2 3 4 5 6 
#
# 1 95.1373 46.0042 48.9852 0.0000 0.0000 0.0000
# 2 46.0042 119.1724 63.6632 0.0000 0.0000 0.0000
# 3 48.9852 63.6632 129.5735 0.0000 0.0000 0.0000
# 4 0.0000 0.0000 0.0000 26.6599 0.0000 0.0000
# 5 0.0000 0.0000 0.0000 0.0000 48.2716 0.0000
# 6 0.0000 0.0000 0.0000 0.0000 0.0000 19.4652
#
#
#
# Elastic Compliance Matrix: (Units=1/GPa)
#
#
# Indices 1 2 3 4 5 6 
#
# 1 0.014056 -0.003508 -0.003590 0.000000 0.000000 0.000000
# 2 -0.003508 0.012253 -0.004694 0.000000 0.000000 0.000000
# 3 -0.003590 -0.004694 0.011381 0.000000 0.000000 0.000000
# 4 0.000000 0.000000 0.000000 0.037509 0.000000 0.000000
# 5 0.000000 0.000000 0.000000 0.000000 0.020716 0.000000
# 6 0.000000 0.000000 0.000000 0.000000 0.000000 0.051374
#
#
# Mechanical properties :
#
#
# Convention : Reuss Voigt Hill
#
# Bulk Modulus (GPa) = 70.89409 73.46537 72.17973
# Shear Modulus (GPa) = 28.47764 31.22806 29.85285
#
# Velocity S-wave (km/s) = 3.64730 3.81938 3.73433
# Velocity P-wave (km/s) = 7.13120 7.33268 7.23264
#
# Compressibility (1/GPa) = 0.01410555
#
# Stress axis : x y z
#
# Youngs Moduli (GPa) = 71.14354 81.61227 87.86395
#
# Poissons Ratio (x) = 0.28631 0.31545
# Poissons Ratio (y) = 0.24958 0.41244
# Poissons Ratio (z) = 0.25542 0.38309
#
# Static dielectric constant tensor:
#      x y z
#    x 1.811890 0.000000 0.000000 
#    y 0.000000 1.767860 0.000000 
#    z 0.000000 0.000000 1.797180 
# 
# From -- ./inp_files/14833.got.cif
#   From: 2010.05.17/outbox.cif.g08.bks.cpg/sg56_8_cif.got.tgz:14833.got - 2010.06.03 13:42:01.
