data_PCOD9432649
_publ_section_title
;
Structure prediction by ZEFSAII (Michael W. Deem and Ramdas Pophale) SiO2 
 PCOD9432649
Probable space group: P C C N
;
_chemical_formula_sum "Si O2"
_cell_formula_units_Z 56
_cell_length_a 35.217745
_cell_length_b 5.418879
_cell_length_c 12.571613
_cell_angle_alpha 90.000000
_cell_angle_beta 90.000000
_cell_angle_gamma 90.000000
_cell_volume 2399.175410
_symmetry_space_group_name_H-M "P C C N"
_symmetry_group_IT_number 56
_symmetry_cell_setting 'orthorhombic'
loop_
_space_group_symop_operation_xyz
x,y,z
1/2-x,1/2-y,z
1/2+x,-y,1/2-z
-x,1/2+y,1/2-z
-x,-y,-z
1/2+x,1/2+y,-z
1/2-x,y,1/2+z
x,1/2-y,1/2+z
loop_
_atom_site_type_symbol
_atom_site_label
_atom_site_fract_x
_atom_site_fract_y
_atom_site_fract_z
Si Si1 0.153466 0.467092 0.133941
Si Si2 0.578910 0.745146 0.813777
Si Si3 0.790793 0.182769 0.983300
Si Si4 0.999160 0.251811 0.067618
Si Si5 0.787615 0.901555 0.763389
Si Si6 0.581279 0.255894 0.183217
Si Si7 0.339544 0.766040 0.351963
O O1 0.113723 0.332300 0.109503
O O2 0.179728 0.272835 0.193254
O O3 0.149385 0.661432 0.230702
O O4 0.179430 0.598783 0.046252
O O5 0.537344 0.753397 0.863210
O O6 0.584342 0.471224 0.767098
O O7 0.581028 0.961393 0.725436
O O8 0.750000 0.250000 0.029514
O O9 0.816718 0.044156 0.071597
O O10 0.779831 0.057131 0.871333
O O11 0.959878 0.267312 0.130945
O O12 0.000000 0.500000 0.000000
O O13 0.000000 0.000000 0.000000
O O14 0.750000 0.750000 0.733299
O O15 0.807280 0.062828 0.672381
O O16 0.617881 0.219381 0.106126
#
# Coordination Sequence:
#
# PCOD9432649 Si02
#       7
#     8   8   8   8   8   8   8
#     4  10  23  43  65  93 130 179 218 284 341 413
#     4  11  23  45  72  95 136 184 229 276 355 413
#     4  11  24  40  61  96 131 174 223 284 348 417
#     4  12  26  42  69 107 139 176 226 292 352 415
#     4  11  22  43  64  90 131 171 223 281 347 414
#     4  11  23  46  68  98 134 184 233 278 344 429
#     4  10  25  41  66  95 132 176 232 282 347 412
#
# _framework density 23.341353999999999
#
# number of rings (size 3 to 8) (size 9 to 14) (size 15 to 20)
#    0.000    1.143    2.857    2.571    4.000    2.286 
#    0.000    0.000    0.000    0.000    0.000    0.000 
#    0.000    0.000    0.000    0.000    0.000    0.000 
#
# Total GULP energy -312261.322178 kJ/mol
# GULP energy per Si atom -5576.095039 kJ/mol
# Density = 2.328823 g / cm^3
# Si number density = 23.341354 Si / 1000 Ang^3
#
#
#
# Elastic Constant Matrix: (Units=GPa)
#
#
# Indices 1 2 3 4 5 6 
#
# 1 235.4752 37.6746 39.5763 0.0000 0.0000 0.0000
# 2 37.6746 99.2195 17.8716 0.0000 0.0000 0.0000
# 3 39.5763 17.8716 48.9139 0.0000 0.0000 0.0000
# 4 0.0000 0.0000 0.0000 16.0845 0.0000 0.0000
# 5 0.0000 0.0000 0.0000 0.0000 72.8758 0.0000
# 6 0.0000 0.0000 0.0000 0.0000 0.0000 47.2989
#
#
#
# Elastic Compliance Matrix: (Units=1/GPa)
#
#
# Indices 1 2 3 4 5 6 
#
# 1 0.005060 -0.001267 -0.003631 0.000000 0.000000 0.000000
# 2 -0.001267 0.011106 -0.003032 0.000000 0.000000 0.000000
# 3 -0.003631 -0.003032 0.024490 0.000000 0.000000 0.000000
# 4 0.000000 0.000000 0.000000 0.062171 0.000000 0.000000
# 5 0.000000 0.000000 0.000000 0.000000 0.013722 0.000000
# 6 0.000000 0.000000 0.000000 0.000000 0.000000 0.021142
#
#
# Mechanical properties :
#
#
# Convention : Reuss Voigt Hill
#
# Bulk Modulus (GPa) = 40.33156 63.76152 52.04654
# Shear Modulus (GPa) = 30.89908 46.48425 38.69167
#
# Velocity S-wave (km/s) = 3.64234 4.46746 4.07584
# Velocity P-wave (km/s) = 5.91654 7.34760 6.67056
#
# Compressibility (1/GPa) = 0.02479448
#
# Stress axis : x y z
#
# Youngs Moduli (GPa) = 197.63970 90.04092 40.83334
#
# Poissons Ratio (x) = 0.11410 0.14826
# Poissons Ratio (y) = 0.25045 0.12383
# Poissons Ratio (z) = 0.71759 0.27305
#
# Static dielectric constant tensor:
#      x y z
#    x 1.873730 0.000000 0.000000 
#    y 0.000000 2.114420 0.000000 
#    z 0.000000 0.000000 2.172730 
# 
# From -- ./inp_files/13450.got.cif
#   From: 2010.05.17/outbox.cif.g08.bks.cpg/sg56_7_cif.got.tgz:13450.got - 2010.06.03 13:42:01.
