data_PCOD9432076
_publ_section_title
;
Structure prediction by ZEFSAII (Michael W. Deem and Ramdas Pophale) SiO2 
 PCOD9432076
Probable space group: P C C N
;
_chemical_formula_sum "Si O2"
_cell_formula_units_Z 48
_cell_length_a 13.527965
_cell_length_b 8.483001
_cell_length_c 20.128870
_cell_angle_alpha 90.000000
_cell_angle_beta 90.000000
_cell_angle_gamma 90.000000
_cell_volume 2309.943642
_symmetry_space_group_name_H-M "P C C N"
_symmetry_group_IT_number 56
_symmetry_cell_setting 'orthorhombic'
loop_
_space_group_symop_operation_xyz
x,y,z
1/2-x,1/2-y,z
1/2+x,-y,1/2-z
-x,1/2+y,1/2-z
-x,-y,-z
1/2+x,1/2+y,-z
1/2-x,y,1/2+z
x,1/2-y,1/2+z
loop_
_atom_site_type_symbol
_atom_site_label
_atom_site_fract_x
_atom_site_fract_y
_atom_site_fract_z
Si Si1 0.386535 0.531582 0.193563
Si Si2 0.482981 0.428259 0.927732
Si Si3 0.509502 0.726034 0.287025
Si Si4 0.075825 0.617710 0.033992
Si Si5 0.142827 0.699154 0.402909
Si Si6 0.307716 0.079346 0.143680
O O1 0.431119 0.508703 0.120165
O O2 0.438428 0.677569 0.227550
O O3 0.432002 0.383806 0.232530
O O4 0.270679 0.523920 0.184704
O O5 0.504924 0.243393 0.928438
O O6 0.380260 0.510811 0.906325
O O7 0.500000 0.500000 0.000000
O O8 0.439671 0.741426 0.351518
O O9 0.598033 0.612993 0.310189
O O10 0.151974 0.519447 0.080206
O O11 0.128213 0.718229 0.975050
O O12 0.000000 0.500000 0.000000
O O13 0.250000 0.750000 0.378775
O O14 0.250000 0.250000 0.129615
#
# Coordination Sequence:
#
# PCOD9432076 Si02
#       6
#     8   8   8   8   8   8
#     4  10  23  40  67  92 129 174 213 274 322 404
#     4   9  22  40  59  92 132 163 214 273 332 385
#     4  10  22  43  61  92 131 165 215 266 327 385
#     4  11  22  38  67  92 127 168 217 274 329 400
#     4  10  22  40  61  91 130 169 208 273 331 396
#     4  10  23  41  65  95 130 172 220 272 335 398
#
# _framework density 20.779729
#
# number of rings (size 3 to 8) (size 9 to 14) (size 15 to 20)
#    0.000    2.000    1.667    0.000    9.333    2.667 
#    0.000    0.000    0.000    0.000    0.000    0.000 
#    0.000    0.000    0.000    0.000    0.000    0.000 
#
# Total GULP energy -267429.669460 kJ/mol
# GULP energy per Si atom -5571.451447 kJ/mol
# Density = 2.073243 g / cm^3
# Si number density = 20.779729 Si / 1000 Ang^3
#
#
#
# Elastic Constant Matrix: (Units=GPa)
#
#
# Indices 1 2 3 4 5 6 
#
# 1 147.4170 58.8314 24.5501 0.0000 0.0000 0.0000
# 2 58.8314 73.8276 17.6810 0.0000 0.0000 0.0000
# 3 24.5501 17.6810 56.6309 0.0000 0.0000 0.0000
# 4 0.0000 0.0000 0.0000 26.1170 0.0000 0.0000
# 5 0.0000 0.0000 0.0000 0.0000 33.1226 0.0000
# 6 0.0000 0.0000 0.0000 0.0000 0.0000 32.1072
#
#
#
# Elastic Compliance Matrix: (Units=1/GPa)
#
#
# Indices 1 2 3 4 5 6 
#
# 1 0.010158 -0.007609 -0.002028 0.000000 0.000000 0.000000
# 2 -0.007609 0.020339 -0.003052 0.000000 0.000000 0.000000
# 3 -0.002028 -0.003052 0.019490 0.000000 0.000000 0.000000
# 4 0.000000 0.000000 0.000000 0.038289 0.000000 0.000000
# 5 0.000000 0.000000 0.000000 0.000000 0.030191 0.000000
# 6 0.000000 0.000000 0.000000 0.000000 0.000000 0.031146
#
#
# Mechanical properties :
#
#
# Convention : Reuss Voigt Hill
#
# Bulk Modulus (GPa) = 40.63351 53.33340 46.98346
# Shear Modulus (GPa) = 27.29363 30.05689 28.67526
#
# Velocity S-wave (km/s) = 3.62812 3.80735 3.71882
# Velocity P-wave (km/s) = 6.09490 6.71191 6.41083
#
# Compressibility (1/GPa) = 0.02461023
#
# Stress axis : x y z
#
# Youngs Moduli (GPa) = 98.44723 49.16619 51.30811
#
# Poissons Ratio (x) = 0.37409 0.10405
# Poissons Ratio (y) = 0.74906 0.15658
# Poissons Ratio (z) = 0.19964 0.15004
#
# Static dielectric constant tensor:
#      x y z
#    x 1.722150 0.000000 0.000000 
#    y 0.000000 1.904070 0.000000 
#    z 0.000000 0.000000 1.781120 
# 
# From -- ./inp_files/20918.got.cif
#   From: 2010.05.17/outbox.cif.g08.bks.cpg/sg56_11_cif.got.tgz:20918.got - 2010.06.03 13:42:01.
