data_PCOD9432680
_publ_section_title
;
Structure prediction by ZEFSAII (Michael W. Deem and Ramdas Pophale) SiO2 
 PCOD9432680
Probable space group: P C C N
;
_chemical_formula_sum "Si O2"
_cell_formula_units_Z 40
_cell_length_a 21.949057
_cell_length_b 7.463499
_cell_length_c 10.085100
_cell_angle_alpha 90.000000
_cell_angle_beta 90.000000
_cell_angle_gamma 90.000000
_cell_volume 1652.108456
_symmetry_space_group_name_H-M "P C C N"
_symmetry_group_IT_number 56
_symmetry_cell_setting 'orthorhombic'
loop_
_space_group_symop_operation_xyz
x,y,z
1/2-x,1/2-y,z
1/2+x,-y,1/2-z
-x,1/2+y,1/2-z
-x,-y,-z
1/2+x,1/2+y,-z
1/2-x,y,1/2+z
x,1/2-y,1/2+z
loop_
_atom_site_type_symbol
_atom_site_label
_atom_site_fract_x
_atom_site_fract_y
_atom_site_fract_z
Si Si1 0.991886 0.222549 0.074262
Si Si2 0.819299 0.688912 0.642690
Si Si3 0.061911 0.402123 0.832856
Si Si4 0.632468 0.103093 0.480312
Si Si5 0.181460 0.693689 0.257829
O O1 0.032776 0.148170 0.192265
O O2 0.957026 0.397774 0.130289
O O3 0.936706 0.094931 0.029886
O O4 0.029670 0.285784 0.947642
O O5 0.750000 0.750000 0.645399
O O6 0.867496 0.845185 0.666711
O O7 0.835704 0.588464 0.503461
O O8 0.828031 0.522112 0.746022
O O9 0.638420 0.197977 0.340419
O O10 0.668102 0.228007 0.587260
O O11 0.250000 0.750000 0.225372
#
# Coordination Sequence:
#
# PCOD9432680 Si02
#       5
#     8   8   8   8   8
#     4  11  25  46  76 105 146 187 247 298 364 435
#     4  10  26  48  71 107 147 191 240 296 363 438
#     4  11  26  46  73 108 143 190 241 302 363 434
#     4  10  23  43  77 101 139 187 243 292 362 423
#     4  10  23  43  71 101 139 192 237 289 358 435
#
# _framework density 24.211486000000001
#
# number of rings (size 3 to 8) (size 9 to 14) (size 15 to 20)
#    1.200    0.400    0.000    3.000    8.400    4.800 
#    0.000    0.000    0.000    0.000    0.000    0.000 
#    0.000    0.000    0.000    0.000    0.000    0.000 
#
# Total GULP energy -223932.328142 kJ/mol
# GULP energy per Si atom -5598.308204 kJ/mol
# Density = 2.415638 g / cm^3
# Si number density = 24.211486 Si / 1000 Ang^3
#
#
#
# Elastic Constant Matrix: (Units=GPa)
#
#
# Indices 1 2 3 4 5 6 
#
# 1 165.4140 34.0783 40.1940 0.0000 0.0000 0.0000
# 2 34.0783 128.2204 41.4403 0.0000 0.0000 0.0000
# 3 40.1940 41.4403 138.4551 0.0000 0.0000 0.0000
# 4 0.0000 0.0000 0.0000 13.5046 0.0000 0.0000
# 5 0.0000 0.0000 0.0000 0.0000 28.9901 0.0000
# 6 0.0000 0.0000 0.0000 0.0000 0.0000 41.0007
#
#
#
# Elastic Compliance Matrix: (Units=1/GPa)
#
#
# Indices 1 2 3 4 5 6 
#
# 1 0.006687 -0.001273 -0.001560 0.000000 0.000000 0.000000
# 2 -0.001273 0.008877 -0.002287 0.000000 0.000000 0.000000
# 3 -0.001560 -0.002287 0.008360 0.000000 0.000000 0.000000
# 4 0.000000 0.000000 0.000000 0.074049 0.000000 0.000000
# 5 0.000000 0.000000 0.000000 0.000000 0.034494 0.000000
# 6 0.000000 0.000000 0.000000 0.000000 0.000000 0.024390
#
#
# Mechanical properties :
#
#
# Convention : Reuss Voigt Hill
#
# Bulk Modulus (GPa) = 73.08526 73.72385 73.40455
# Shear Modulus (GPa) = 29.12761 37.79089 33.45925
#
# Velocity S-wave (km/s) = 3.47226 3.95507 3.72150
# Velocity P-wave (km/s) = 6.80641 7.16748 6.98928
#
# Compressibility (1/GPa) = 0.01368265
#
# Stress axis : x y z
#
# Youngs Moduli (GPa) = 149.54831 112.65533 119.61608
#
# Poissons Ratio (x) = 0.14341 0.18662
# Poissons Ratio (y) = 0.19037 0.27359
# Poissons Ratio (z) = 0.23332 0.25767
#
# Static dielectric constant tensor:
#      x y z
#    x 1.891240 0.000000 0.000000 
#    y 0.000000 1.961390 0.000000 
#    z 0.000000 0.000000 1.911840 
# 
# From -- ./inp_files/4690.got.cif
#   From: 2010.05.17/outbox.cif.g08.bks.cpg/sg56_3_cif.got.tgz:4690.got - 2010.06.03 13:42:01.
