data_PCOD9432586
_publ_section_title
;
Structure prediction by ZEFSAII (Michael W. Deem and Ramdas Pophale) SiO2 
 PCOD9432586
Probable space group: P C C N
;
_chemical_formula_sum "Si O2"
_cell_formula_units_Z 48
_cell_length_a 10.006146
_cell_length_b 10.928015
_cell_length_c 18.711091
_cell_angle_alpha 90.000000
_cell_angle_beta 90.000000
_cell_angle_gamma 90.000000
_cell_volume 2046.007535
_symmetry_space_group_name_H-M "P C C N"
_symmetry_group_IT_number 56
_symmetry_cell_setting 'orthorhombic'
loop_
_space_group_symop_operation_xyz
x,y,z
1/2-x,1/2-y,z
1/2+x,-y,1/2-z
-x,1/2+y,1/2-z
-x,-y,-z
1/2+x,1/2+y,-z
1/2-x,y,1/2+z
x,1/2-y,1/2+z
loop_
_atom_site_type_symbol
_atom_site_label
_atom_site_fract_x
_atom_site_fract_y
_atom_site_fract_z
Si Si1 0.550757 0.176842 0.320166
Si Si2 0.657351 0.078349 0.871158
Si Si3 0.659461 0.127788 0.032318
Si Si4 0.963401 0.259675 0.661672
Si Si5 0.301411 0.498925 0.850047
Si Si6 0.782739 0.883203 0.785599
O O1 0.689514 0.124088 0.352958
O O2 0.556962 0.320435 0.340140
O O3 0.546965 0.183425 0.234541
O O4 0.426141 0.095578 0.347298
O O5 0.667577 0.948403 0.831761
O O6 0.625027 0.077593 0.954577
O O7 0.750000 0.250000 0.018041
O O8 0.554120 0.181651 0.089647
O O9 0.733972 0.017502 0.073567
O O10 0.848078 0.362560 0.665591
O O11 0.093332 0.347787 0.664624
O O12 0.203779 0.461401 0.785808
O O13 0.750000 0.750000 0.756275
#
# Coordination Sequence:
#
# PCOD9432586 Si02
#       6
#     8   8   8   8   8   8
#     4  11  21  39  68  99 132 178 230 299 343 413
#     4  11  23  41  66 102 140 178 234 286 361 430
#     4  10  23  41  66 103 139 179 231 291 357 436
#     4  11  23  40  67 100 137 181 235 296 353 412
#     4  11  23  39  70 100 133 181 238 293 346 422
#     4  12  24  41  67  98 135 185 239 289 351 424
#
# _framework density 23.460324
#
# number of rings (size 3 to 8) (size 9 to 14) (size 15 to 20)
#    0.000    1.000    6.667    1.000    4.667    2.000 
#    0.000    1.667    0.000    0.000    0.000    0.000 
#    0.000    0.000    0.000    0.000    0.000    0.000 
#
# Total GULP energy -268009.509332 kJ/mol
# GULP energy per Si atom -5583.531444 kJ/mol
# Density = 2.340693 g / cm^3
# Si number density = 23.460324 Si / 1000 Ang^3
#
#
#
# Elastic Constant Matrix: (Units=GPa)
#
#
# Indices 1 2 3 4 5 6 
#
# 1 81.6198 53.7781 42.2184 0.0000 0.0000 0.0000
# 2 53.7781 137.6325 68.7244 0.0000 0.0000 0.0000
# 3 42.2184 68.7244 181.4185 0.0000 0.0000 0.0000
# 4 0.0000 0.0000 0.0000 26.0329 0.0000 0.0000
# 5 0.0000 0.0000 0.0000 0.0000 12.4445 0.0000
# 6 0.0000 0.0000 0.0000 0.0000 0.0000 46.7167
#
#
#
# Elastic Compliance Matrix: (Units=1/GPa)
#
#
# Indices 1 2 3 4 5 6 
#
# 1 0.016949 -0.005738 -0.001770 0.000000 0.000000 0.000000
# 2 -0.005738 0.010904 -0.002795 0.000000 0.000000 0.000000
# 3 -0.001770 -0.002795 0.006983 0.000000 0.000000 0.000000
# 4 0.000000 0.000000 0.000000 0.038413 0.000000 0.000000
# 5 0.000000 0.000000 0.000000 0.000000 0.080357 0.000000
# 6 0.000000 0.000000 0.000000 0.000000 0.000000 0.021406
#
#
# Mechanical properties :
#
#
# Convention : Reuss Voigt Hill
#
# Bulk Modulus (GPa) = 70.28670 81.12362 75.70516
# Shear Modulus (GPa) = 24.95499 32.76881 28.86190
#
# Velocity S-wave (km/s) = 3.26500 3.74140 3.51129
# Velocity P-wave (km/s) = 6.65120 7.30193 6.98415
#
# Compressibility (1/GPa) = 0.01422744
#
# Stress axis : x y z
#
# Youngs Moduli (GPa) = 59.00175 91.71263 143.20674
#
# Poissons Ratio (x) = 0.52629 0.25352
# Poissons Ratio (y) = 0.33858 0.40027
# Poissons Ratio (z) = 0.10445 0.25634
#
# Static dielectric constant tensor:
#      x y z
#    x 2.083660 0.000000 0.000000 
#    y 0.000000 1.947700 0.000000 
#    z 0.000000 0.000000 1.816400 
# 
# From -- ./inp_files/15614.got.cif
#   From: 2010.05.17/outbox.cif.g08.bks.cpg/sg56_8_cif.got.tgz:15614.got - 2010.06.03 13:42:01.
