data_PCOD9432768
_publ_section_title
;
Structure prediction by ZEFSAII (Michael W. Deem and Ramdas Pophale) SiO2 
 PCOD9432768
Probable space group: P C C N
;
_chemical_formula_sum "Si O2"
_cell_formula_units_Z 36
_cell_length_a 14.998371
_cell_length_b 7.879392
_cell_length_c 12.548653
_cell_angle_alpha 90.000000
_cell_angle_beta 90.000000
_cell_angle_gamma 90.000000
_cell_volume 1482.975272
_symmetry_space_group_name_H-M "P C C N"
_symmetry_group_IT_number 56
_symmetry_cell_setting 'orthorhombic'
loop_
_space_group_symop_operation_xyz
x,y,z
1/2-x,1/2-y,z
1/2+x,-y,1/2-z
-x,1/2+y,1/2-z
-x,-y,-z
1/2+x,1/2+y,-z
1/2-x,y,1/2+z
x,1/2-y,1/2+z
loop_
_atom_site_type_symbol
_atom_site_label
_atom_site_fract_x
_atom_site_fract_y
_atom_site_fract_z
Si Si1 0.985300 0.521665 0.655820
Si Si2 0.911612 0.144857 0.649821
Si Si3 0.633514 0.621356 0.985375
Si Si4 0.250000 0.750000 0.217270
Si Si5 0.171358 0.009405 0.551272
O O1 0.938202 0.340969 0.644455
O O2 0.917859 0.649652 0.597007
O O3 0.015062 0.557341 0.775261
O O4 0.074386 0.506693 0.584401
O O5 0.817163 0.141500 0.710948
O O6 0.895839 0.068771 0.534074
O O7 0.640372 0.799464 0.923010
O O8 0.730960 0.543841 0.000836
O O9 0.191646 0.621515 0.145409
#
# Coordination Sequence:
#
# PCOD9432768 Si02
#       5
#     8   8   8   4   8
#     4  11  24  44  66 107 134 178 228 292 342 410
#     4  12  26  42  71 100 138 179 230 284 344 416
#     4  10  23  46  69  93 142 174 232 283 347 407
#     4  12  24  44  68  98 134 182 232 276 334 424
#     4  11  24  46  68  97 132 191 220 283 342 417
#
# _framework density 24.275523
#
# number of rings (size 3 to 8) (size 9 to 14) (size 15 to 20)
#    0.000    0.889    2.222    4.667    6.222    0.889 
#    8.000    0.000    0.000    0.000    0.000    0.000 
#    0.000    0.000    0.000    0.000    0.000    0.000 
#
# Total GULP energy -201680.615541 kJ/mol
# GULP energy per Si atom -5602.239321 kJ/mol
# Density = 2.422027 g / cm^3
# Si number density = 24.275523 Si / 1000 Ang^3
#
#
#
# Elastic Constant Matrix: (Units=GPa)
#
#
# Indices 1 2 3 4 5 6 
#
# 1 82.3629 1.6475 21.5922 0.0000 0.0000 0.0000
# 2 1.6475 69.9402 2.8065 0.0000 0.0000 0.0000
# 3 21.5922 2.8065 53.5056 0.0000 0.0000 0.0000
# 4 0.0000 0.0000 0.0000 32.1506 0.0000 0.0000
# 5 0.0000 0.0000 0.0000 0.0000 48.5151 0.0000
# 6 0.0000 0.0000 0.0000 0.0000 0.0000 41.9908
#
#
#
# Elastic Compliance Matrix: (Units=1/GPa)
#
#
# Indices 1 2 3 4 5 6 
#
# 1 0.013579 -0.000100 -0.005474 0.000000 0.000000 0.000000
# 2 -0.000100 0.014329 -0.000711 0.000000 0.000000 0.000000
# 3 -0.005474 -0.000711 0.020936 0.000000 0.000000 0.000000
# 4 0.000000 0.000000 0.000000 0.031104 0.000000 0.000000
# 5 0.000000 0.000000 0.000000 0.000000 0.020612 0.000000
# 6 0.000000 0.000000 0.000000 0.000000 0.000000 0.023815
#
#
# Mechanical properties :
#
#
# Convention : Reuss Voigt Hill
#
# Bulk Modulus (GPa) = 27.56942 28.65569 28.11256
# Shear Modulus (GPa) = 33.54892 36.51547 35.03219
#
# Velocity S-wave (km/s) = 3.72157 3.88262 3.80295
# Velocity P-wave (km/s) = 5.46336 5.65063 5.55778
#
# Compressibility (1/GPa) = 0.03627207
#
# Stress axis : x y z
#
# Youngs Moduli (GPa) = 73.64560 69.78937 47.76436
#
# Poissons Ratio (x) = 0.00699 0.26148
# Poissons Ratio (y) = 0.00738 0.03397
# Poissons Ratio (z) = 0.40316 0.04963
#
# Static dielectric constant tensor:
#      x y z
#    x 1.973590 0.000000 0.000000 
#    y 0.000000 1.907420 0.000000 
#    z 0.000000 0.000000 1.940120 
# 
# From -- ./inp_files/10284.got.cif
#   From: 2010.05.17/outbox.cif.g08.bks.cpg/sg56_6_cif.got.tgz:10284.got - 2010.06.03 13:42:01.
