data_PCOD9432463
_publ_section_title
;
Structure prediction by ZEFSAII (Michael W. Deem and Ramdas Pophale) SiO2 
 PCOD9432463
Probable space group: P C C N
;
_chemical_formula_sum "Si O2"
_cell_formula_units_Z 36
_cell_length_a 11.953088
_cell_length_b 11.960726
_cell_length_c 10.362764
_cell_angle_alpha 90.000000
_cell_angle_beta 90.000000
_cell_angle_gamma 90.000000
_cell_volume 1481.539606
_symmetry_space_group_name_H-M "P C C N"
_symmetry_group_IT_number 56
_symmetry_cell_setting 'orthorhombic'
loop_
_space_group_symop_operation_xyz
x,y,z
1/2-x,1/2-y,z
1/2+x,-y,1/2-z
-x,1/2+y,1/2-z
-x,-y,-z
1/2+x,1/2+y,-z
1/2-x,y,1/2+z
x,1/2-y,1/2+z
loop_
_atom_site_type_symbol
_atom_site_label
_atom_site_fract_x
_atom_site_fract_y
_atom_site_fract_z
Si Si1 0.448611 0.102066 0.083260
Si Si2 0.134500 0.995632 0.844114
Si Si3 0.750000 0.750000 0.910683
Si Si4 0.169011 0.646881 0.774344
Si Si5 0.603358 0.933123 0.382645
O O1 0.384027 0.048774 0.205161
O O2 0.351524 0.179619 0.021835
O O3 0.556272 0.166475 0.143539
O O4 0.500000 0.000000 0.000000
O O5 0.247775 0.928456 0.859250
O O6 0.123788 0.077178 0.964853
O O7 0.025917 0.917203 0.855342
O O8 0.820571 0.837342 0.823938
O O9 0.250000 0.750000 0.733903
O O10 0.133801 0.559239 0.661719
#
# Coordination Sequence:
#
# PCOD9432463 Si02
#       5
#     8   8   4   8   8
#     4  11  25  46  71 108 145 194 250 304 384 457
#     4  10  22  46  64  97 141 182 244 298 360 440
#     4  12  22  46  72 108 146 186 242 312 368 450
#     4  11  23  43  70  99 142 193 244 304 368 450
#     4  10  23  42  68 101 137 189 239 305 371 435
#
# _framework density 24.299047999999999
#
# number of rings (size 3 to 8) (size 9 to 14) (size 15 to 20)
#    0.000    1.333    2.222    2.667    0.000    1.778 
#   20.000    0.000    0.000    0.000    0.000    0.000 
#    0.000    0.000    0.000    0.000    0.000    0.000 
#
# Total GULP energy -200737.368124 kJ/mol
# GULP energy per Si atom -5576.038003 kJ/mol
# Density = 2.424374 g / cm^3
# Si number density = 24.299048 Si / 1000 Ang^3
#
#
#
# Elastic Constant Matrix: (Units=GPa)
#
#
# Indices 1 2 3 4 5 6 
#
# 1 209.1157 57.2917 15.8176 0.0000 0.0000 0.0000
# 2 57.2917 133.9384 27.1746 0.0000 0.0000 0.0000
# 3 15.8176 27.1746 68.0238 0.0000 0.0000 0.0000
# 4 0.0000 0.0000 0.0000 -2.6457 0.0000 0.0000
# 5 0.0000 0.0000 0.0000 0.0000 16.0294 0.0000
# 6 0.0000 0.0000 0.0000 0.0000 0.0000 49.7194
#
#
#
# Elastic Compliance Matrix: (Units=1/GPa)
#
#
# Indices 1 2 3 4 5 6 
#
# 1 0.005425 -0.002247 -0.000364 0.000000 0.000000 0.000000
# 2 -0.002247 0.009055 -0.003095 0.000000 0.000000 0.000000
# 3 -0.000364 -0.003095 0.016022 0.000000 0.000000 0.000000
# 4 0.000000 0.000000 0.000000 -0.377972 0.000000 0.000000
# 5 0.000000 0.000000 0.000000 0.000000 0.062385 0.000000
# 6 0.000000 0.000000 0.000000 0.000000 0.000000 0.020113
#
#
# Mechanical properties :
#
#
# Convention : Reuss Voigt Hill
#
# Bulk Modulus (GPa) = 52.38165 67.96065 60.17115
# Shear Modulus (GPa) = -20.22683 33.34022 6.55670
#
# Velocity S-wave (km/s) = -2.88829 3.70818 1.64444
# Velocity P-wave (km/s) = 3.23743 6.80906 5.33124
#
# Compressibility (1/GPa) = 0.01909066
#
# Stress axis : x y z
#
# Youngs Moduli (GPa) = 184.32803 110.43525 62.41514
#
# Poissons Ratio (x) = 0.24812 0.02272
# Poissons Ratio (y) = 0.41414 0.19317
# Poissons Ratio (z) = 0.06709 0.34179
#
# Static dielectric constant tensor:
#      x y z
#    x 2.011440 0.000000 0.000000 
#    y 0.000000 2.133280 0.000000 
#    z 0.000000 0.000000 1.942250 
# 
# From -- ./inp_files/6874.got.cif
#   From: 2010.05.17/outbox.cif.g08.bks.cpg/sg56_4_cif.got.tgz:6874.got - 2010.06.03 13:42:01.
