data_PCOD9432949
_publ_section_title
;
Structure prediction by ZEFSAII (Michael W. Deem and Ramdas Pophale) SiO2 
 PCOD9432949
Probable space group: P C C N
;
_chemical_formula_sum "Si O2"
_cell_formula_units_Z 40
_cell_length_a 9.510112
_cell_length_b 8.328952
_cell_length_c 23.463037
_cell_angle_alpha 90.000000
_cell_angle_beta 90.000000
_cell_angle_gamma 90.000000
_cell_volume 1858.489947
_symmetry_space_group_name_H-M "P C C N"
_symmetry_group_IT_number 56
_symmetry_cell_setting 'orthorhombic'
loop_
_space_group_symop_operation_xyz
x,y,z
1/2-x,1/2-y,z
1/2+x,-y,1/2-z
-x,1/2+y,1/2-z
-x,-y,-z
1/2+x,1/2+y,-z
1/2-x,y,1/2+z
x,1/2-y,1/2+z
loop_
_atom_site_type_symbol
_atom_site_label
_atom_site_fract_x
_atom_site_fract_y
_atom_site_fract_z
Si Si1 0.953594 0.910633 0.819945
Si Si2 0.167874 0.072209 0.502366
Si Si3 0.215805 0.562439 0.385588
Si Si4 0.956884 0.456777 0.194571
Si Si5 0.297506 0.570133 0.623946
O O1 0.054438 0.970716 0.870960
O O2 0.995142 0.726227 0.812650
O O3 0.978194 0.991802 0.759077
O O4 0.797132 0.948961 0.839263
O O5 0.250000 0.250000 0.511643
O O6 0.228510 0.025476 0.441036
O O7 0.216713 0.976586 0.558252
O O8 0.000000 0.000000 0.500000
O O9 0.250000 0.750000 0.396198
O O10 0.298090 0.523787 0.327105
O O11 0.047122 0.554837 0.148889
O O12 0.250000 0.750000 0.634049
#
# Coordination Sequence:
#
# PCOD9432949 Si02
#       5
#     8   8   8   8   8
#     4  11  24  40  71 102 138 187 230 299 357 436
#     4  12  27  47  76 104 142 189 243 305 374 448
#     4  10  24  44  69  98 139 182 234 291 362 433
#     4  11  22  44  67 103 143 179 236 289 360 431
#     4  12  26  44  69 100 141 186 239 292 363 436
#
# _framework density 21.522850999999999
#
# number of rings (size 3 to 8) (size 9 to 14) (size 15 to 20)
#    0.000    0.800    2.000    4.800    5.600    4.000 
#    0.000    0.000    0.000    0.000    0.000    0.000 
#    0.000    0.000    0.000    0.000    0.000    0.000 
#
# Total GULP energy -222908.032507 kJ/mol
# GULP energy per Si atom -5572.700813 kJ/mol
# Density = 2.147386 g / cm^3
# Si number density = 21.522851 Si / 1000 Ang^3
#
#
#
# Elastic Constant Matrix: (Units=GPa)
#
#
# Indices 1 2 3 4 5 6 
#
# 1 55.0792 4.4469 -6.5305 0.0000 0.0000 0.0000
# 2 4.4469 49.6344 7.8611 0.0000 0.0000 0.0000
# 3 -6.5305 7.8611 99.9469 0.0000 0.0000 0.0000
# 4 0.0000 0.0000 0.0000 42.5666 0.0000 0.0000
# 5 0.0000 0.0000 0.0000 0.0000 96.0855 0.0000
# 6 0.0000 0.0000 0.0000 0.0000 0.0000 13.2148
#
#
#
# Elastic Compliance Matrix: (Units=1/GPa)
#
#
# Indices 1 2 3 4 5 6 
#
# 1 0.018467 -0.001869 0.001354 0.000000 0.000000 0.000000
# 2 -0.001869 0.020591 -0.001742 0.000000 0.000000 0.000000
# 3 0.001354 -0.001742 0.010231 0.000000 0.000000 0.000000
# 4 0.000000 0.000000 0.000000 0.023493 0.000000 0.000000
# 5 0.000000 0.000000 0.000000 0.000000 0.010407 0.000000
# 6 0.000000 0.000000 0.000000 0.000000 0.000000 0.075673
#
#
# Mechanical properties :
#
#
# Convention : Reuss Voigt Hill
#
# Bulk Modulus (GPa) = 22.33409 24.02394 23.17902
# Shear Modulus (GPa) = 28.04265 43.63225 35.83745
#
# Velocity S-wave (km/s) = 3.61352 4.50739 4.08498
# Velocity P-wave (km/s) = 5.27347 6.18668 5.74824
#
# Compressibility (1/GPa) = 0.04477460
#
# Stress axis : x y z
#
# Youngs Moduli (GPa) = 54.15047 48.56587 97.74463
#
# Poissons Ratio (x) = 0.09076 -0.13231
# Poissons Ratio (y) = 0.10120 0.17023
# Poissons Ratio (z) = -0.07330 0.08458
#
# Static dielectric constant tensor:
#      x y z
#    x 1.755720 0.000000 0.000000 
#    y 0.000000 1.792830 0.000000 
#    z 0.000000 0.000000 1.698990 
# 
# From -- ./inp_files/20289.got.cif
#   From: 2010.05.17/outbox.cif.g08.bks.cpg/sg56_11_cif.got.tgz:20289.got - 2010.06.03 13:42:01.
