data_PCOD9432002
_publ_section_title
;
Structure prediction by ZEFSAII (Michael W. Deem and Ramdas Pophale) SiO2 
 PCOD9432002
Probable space group: P C C N
;
_chemical_formula_sum "Si O2"
_cell_formula_units_Z 56
_cell_length_a 8.165404
_cell_length_b 13.595059
_cell_length_c 19.389041
_cell_angle_alpha 90.000000
_cell_angle_beta 90.000000
_cell_angle_gamma 90.000000
_cell_volume 2152.360944
_symmetry_space_group_name_H-M "P C C N"
_symmetry_group_IT_number 56
_symmetry_cell_setting 'orthorhombic'
loop_
_space_group_symop_operation_xyz
x,y,z
1/2-x,1/2-y,z
1/2+x,-y,1/2-z
-x,1/2+y,1/2-z
-x,-y,-z
1/2+x,1/2+y,-z
1/2-x,y,1/2+z
x,1/2-y,1/2+z
loop_
_atom_site_type_symbol
_atom_site_label
_atom_site_fract_x
_atom_site_fract_y
_atom_site_fract_z
Si Si1 0.616949 0.664397 0.642398
Si Si2 0.913551 0.442399 0.360320
Si Si3 0.440256 0.776084 0.532836
Si Si4 0.671597 0.523471 0.460895
Si Si5 0.989683 0.697577 0.896707
Si Si6 0.779710 0.036098 0.103556
Si Si7 0.569442 0.224204 0.248586
O O1 0.750000 0.750000 0.656034
O O2 0.543236 0.688340 0.567373
O O3 0.688279 0.555729 0.641444
O O4 0.481606 0.690526 0.698573
O O5 0.980949 0.366498 0.418365
O O6 0.736022 0.468250 0.391948
O O7 0.921553 0.378938 0.290513
O O8 0.040547 0.533099 0.362015
O O9 0.250000 0.750000 0.541404
O O10 0.474500 0.782437 0.452094
O O11 0.500000 0.500000 0.500000
O O12 0.651563 0.632661 0.431679
O O13 0.792886 0.493122 0.522465
O O14 0.153623 0.627348 0.893764
O O15 0.955757 0.722041 0.818124
O O16 0.750000 0.250000 0.223962
#
# Coordination Sequence:
#
# PCOD9432002 Si02
#       7
#     8   8   8   8   8   8   8
#     4  11  21  43  66  96 128 176 228 280 334 415
#     4  11  23  42  69  98 135 181 229 280 344 424
#     4  11  21  38  69  93 130 173 222 279 342 406
#     4  10  22  38  68 105 129 168 226 288 348 392
#     4  11  25  42  64 100 140 173 228 292 343 406
#     4  11  22  41  70  97 135 170 233 289 346 399
#     4  11  26  43  65  94 135 186 235 266 358 431
#
# _framework density 26.017938999999998
#
# number of rings (size 3 to 8) (size 9 to 14) (size 15 to 20)
#    0.000    1.143    4.286    4.286    6.000    1.143 
#    0.000    2.143    0.000    0.000    0.000    0.000 
#    0.000    0.000    0.000    0.000    0.000    0.000 
#
# Total GULP energy -313258.223337 kJ/mol
# GULP energy per Si atom -5593.896845 kJ/mol
# Density = 2.595872 g / cm^3
# Si number density = 26.017939 Si / 1000 Ang^3
#
#
#
# Elastic Constant Matrix: (Units=GPa)
#
#
# Indices 1 2 3 4 5 6 
#
# 1 72.3835 0.3895 -3.7190 0.0000 0.0000 0.0000
# 2 0.3895 53.6643 16.4420 0.0000 0.0000 0.0000
# 3 -3.7190 16.4420 141.8627 0.0000 0.0000 0.0000
# 4 0.0000 0.0000 0.0000 30.0195 0.0000 0.0000
# 5 0.0000 0.0000 0.0000 0.0000 11.0841 0.0000
# 6 0.0000 0.0000 0.0000 0.0000 0.0000 40.5645
#
#
#
# Elastic Compliance Matrix: (Units=1/GPa)
#
#
# Indices 1 2 3 4 5 6 
#
# 1 0.013836 -0.000219 0.000388 0.000000 0.000000 0.000000
# 2 -0.000219 0.019324 -0.002245 0.000000 0.000000 0.000000
# 3 0.000388 -0.002245 0.007319 0.000000 0.000000 0.000000
# 4 0.000000 0.000000 0.000000 0.033312 0.000000 0.000000
# 5 0.000000 0.000000 0.000000 0.000000 0.090219 0.000000
# 6 0.000000 0.000000 0.000000 0.000000 0.000000 0.024652
#
#
# Mechanical properties :
#
#
# Convention : Reuss Voigt Hill
#
# Bulk Modulus (GPa) = 27.52805 32.68174 30.10490
# Shear Modulus (GPa) = 24.39914 33.32014 28.85964
#
# Velocity S-wave (km/s) = 3.06564 3.58251 3.33411
# Velocity P-wave (km/s) = 4.80981 5.44987 5.13981
#
# Compressibility (1/GPa) = 0.03632658
#
# Stress axis : x y z
#
# Youngs Moduli (GPa) = 72.27298 51.74937 136.62158
#
# Poissons Ratio (x) = 0.01135 -0.05303
# Poissons Ratio (y) = 0.01585 0.30677
# Poissons Ratio (z) = -0.02805 0.11620
#
# Static dielectric constant tensor:
#      x y z
#    x 2.101740 0.000000 0.000000 
#    y 0.000000 2.136930 0.000000 
#    z 0.000000 0.000000 1.977100 
# 
# From -- ./inp_files/18219.got.cif
#   From: 2010.05.17/outbox.cif.g08.bks.cpg/sg56_10_cif.got.tgz:18219.got - 2010.06.03 13:42:01.
