data_PCOD9432499
_publ_section_title
;
Structure prediction by ZEFSAII (Michael W. Deem and Ramdas Pophale) SiO2 
 PCOD9432499
Probable space group: P C C N
;
_chemical_formula_sum "Si O2"
_cell_formula_units_Z 60
_cell_length_a 13.299757
_cell_length_b 20.888913
_cell_length_c 8.772167
_cell_angle_alpha 90.000000
_cell_angle_beta 90.000000
_cell_angle_gamma 90.000000
_cell_volume 2437.061215
_symmetry_space_group_name_H-M "P C C N"
_symmetry_group_IT_number 56
_symmetry_cell_setting 'orthorhombic'
loop_
_space_group_symop_operation_xyz
x,y,z
1/2-x,1/2-y,z
1/2+x,-y,1/2-z
-x,1/2+y,1/2-z
-x,-y,-z
1/2+x,1/2+y,-z
1/2-x,y,1/2+z
x,1/2-y,1/2+z
loop_
_atom_site_type_symbol
_atom_site_label
_atom_site_fract_x
_atom_site_fract_y
_atom_site_fract_z
Si Si1 0.750000 0.750000 0.569845
Si Si2 0.179101 0.158107 0.168310
Si Si3 0.444268 0.480330 0.845225
Si Si4 0.092711 0.835679 0.410964
Si Si5 0.147370 0.542775 0.794271
Si Si6 0.635132 0.236536 0.796227
Si Si7 0.247870 0.038119 0.027370
Si Si8 0.526465 0.387583 0.288261
O O1 0.672135 0.786890 0.459935
O O2 0.795247 0.803865 0.678975
O O3 0.260022 0.105749 0.111165
O O4 0.079468 0.117903 0.203439
O O5 0.531373 0.444899 0.752563
O O6 0.424761 0.544862 0.750162
O O7 0.500000 0.500000 0.000000
O O8 0.341091 0.450486 0.902721
O O9 0.175895 0.888349 0.362372
O O10 0.129636 0.779365 0.524388
O O11 0.066682 0.795699 0.260051
O O12 0.020144 0.872664 0.530784
O O13 0.205965 0.514478 0.648346
O O14 0.162020 0.491062 0.928677
O O15 0.750000 0.250000 0.758906
O O16 0.593406 0.170690 0.726850
#
# Coordination Sequence:
#
# PCOD9432499 Si02
#       8
#     4   8   8   8   8   8   8   8
#     4  10  26  42  76 100 134 184 236 296 348 432
#     4  11  22  48  69 105 139 180 238 292 362 428
#     4  10  22  47  69 102 146 189 230 300 363 433
#     4  10  26  42  69 100 136 189 233 299 341 436
#     4  11  25  45  71 109 139 188 241 294 368 427
#     4  10  24  45  64  98 140 188 236 287 348 410
#     4  11  25  45  75 105 146 189 230 299 370 427
#     4  10  24  43  67 100 141 179 239 289 352 429
#
# _framework density 24.619817000000001
#
# number of rings (size 3 to 8) (size 9 to 14) (size 15 to 20)
#    0.800    0.800    2.667    1.200    7.467    2.667 
#    2.400    0.000    0.000    0.000    0.000    0.000 
#    0.000    0.000    0.000    0.000    0.000    0.000 
#
# Total GULP energy -334847.211176 kJ/mol
# GULP energy per Si atom -5580.786853 kJ/mol
# Density = 2.456378 g / cm^3
# Si number density = 24.619817 Si / 1000 Ang^3
#
#
#
# Elastic Constant Matrix: (Units=GPa)
#
#
# Indices 1 2 3 4 5 6 
#
# 1 40.3586 0.1714 34.9105 0.0000 0.0000 0.0000
# 2 0.1714 86.5494 60.5615 0.0000 0.0000 0.0000
# 3 34.9105 60.5615 141.6336 0.0000 0.0000 0.0000
# 4 0.0000 0.0000 0.0000 64.4458 0.0000 0.0000
# 5 0.0000 0.0000 0.0000 0.0000 32.3507 0.0000
# 6 0.0000 0.0000 0.0000 0.0000 0.0000 32.3364
#
#
#
# Elastic Compliance Matrix: (Units=1/GPa)
#
#
# Indices 1 2 3 4 5 6 
#
# 1 0.035507 0.008638 -0.012445 0.000000 0.000000 0.000000
# 2 0.008638 0.018589 -0.010078 0.000000 0.000000 0.000000
# 3 -0.012445 -0.010078 0.014437 0.000000 0.000000 0.000000
# 4 0.000000 0.000000 0.000000 0.015517 0.000000 0.000000
# 5 0.000000 0.000000 0.000000 0.000000 0.030911 0.000000
# 6 0.000000 0.000000 0.000000 0.000000 0.000000 0.030925
#
#
# Mechanical properties :
#
#
# Convention : Reuss Voigt Hill
#
# Bulk Modulus (GPa) = 24.53221 51.09205 37.81213
# Shear Modulus (GPa) = 26.70334 37.35312 32.02823
#
# Velocity S-wave (km/s) = 3.29694 3.89935 3.61073
# Velocity P-wave (km/s) = 4.94764 6.40864 5.72494
#
# Compressibility (1/GPa) = 0.04076274
#
# Stress axis : x y z
#
# Youngs Moduli (GPa) = 28.16378 53.79656 69.26576
#
# Poissons Ratio (x) = -0.46470 0.86204
# Poissons Ratio (y) = -0.24328 0.69803
# Poissons Ratio (z) = 0.35051 0.54213
#
# Static dielectric constant tensor:
#      x y z
#    x 2.010470 0.000000 0.000000 
#    y 0.000000 1.968160 0.000000 
#    z 0.000000 0.000000 1.989640 
# 
# From -- ./inp_files/3690.got.cif
#   From: 2010.05.17/outbox.cif.g08.bks.cpg/sg56_2_cif.got.tgz:3690.got - 2010.06.03 13:42:01.
