data_PCOD9432527
_publ_section_title
;
Structure prediction by ZEFSAII (Michael W. Deem and Ramdas Pophale) SiO2 
 PCOD9432527
Probable space group: P C C N
;
_chemical_formula_sum "Si O2"
_cell_formula_units_Z 28
_cell_length_a 9.457786
_cell_length_b 8.376616
_cell_length_c 17.680391
_cell_angle_alpha 90.000000
_cell_angle_beta 90.000000
_cell_angle_gamma 90.000000
_cell_volume 1400.715567
_symmetry_space_group_name_H-M "P C C N"
_symmetry_group_IT_number 56
_symmetry_cell_setting 'orthorhombic'
loop_
_space_group_symop_operation_xyz
x,y,z
1/2-x,1/2-y,z
1/2+x,-y,1/2-z
-x,1/2+y,1/2-z
-x,-y,-z
1/2+x,1/2+y,-z
1/2-x,y,1/2+z
x,1/2-y,1/2+z
loop_
_atom_site_type_symbol
_atom_site_label
_atom_site_fract_x
_atom_site_fract_y
_atom_site_fract_z
Si Si1 0.750000 0.250000 0.968896
Si Si2 0.527508 0.418313 0.359669
Si Si3 0.272520 0.573705 0.887902
Si Si4 0.394829 0.346384 0.767534
O O1 0.863964 0.346975 0.920161
O O2 0.680043 0.377186 0.027595
O O3 0.374536 0.473458 0.392177
O O4 0.578133 0.569524 0.311614
O O5 0.507604 0.279310 0.297545
O O6 0.250000 0.750000 0.852197
O O7 0.375662 0.473968 0.835170
O O8 0.250000 0.250000 0.761413
#
# Coordination Sequence:
#
# PCOD9432527 Si02
#       4
#     4   8   8   8
#     4  10  24  36  66  86 134 160 200 252 318 376
#     4  11  22  40  63  94 120 166 210 250 317 361
#     4   9  21  42  59  89 125 158 204 259 304 369
#     4  10  23  38  65  89 122 160 207 261 296 368
#
# _framework density 19.989784
#
# number of rings (size 3 to 8) (size 9 to 14) (size 15 to 20)
#    0.857    1.143    0.000    2.571   10.000    1.143 
#    0.000    4.286    0.000    0.000    0.000    0.000 
#    0.000    0.000    0.000    0.000    0.000    0.000 
#
# Total GULP energy -155986.386250 kJ/mol
# GULP energy per Si atom -5570.942366 kJ/mol
# Density = 1.994429 g / cm^3
# Si number density = 19.989784 Si / 1000 Ang^3
#
#
#
# Elastic Constant Matrix: (Units=GPa)
#
#
# Indices 1 2 3 4 5 6 
#
# 1 12.4268 4.3568 12.4708 0.0000 0.0000 0.0000
# 2 4.3568 82.6835 20.0441 0.0000 0.0000 0.0000
# 3 12.4708 20.0441 85.9359 0.0000 0.0000 0.0000
# 4 0.0000 0.0000 0.0000 16.4597 0.0000 0.0000
# 5 0.0000 0.0000 0.0000 0.0000 -802.9888 0.0000
# 6 0.0000 0.0000 0.0000 0.0000 0.0000 24.2103
#
#
#
# Elastic Compliance Matrix: (Units=1/GPa)
#
#
# Indices 1 2 3 4 5 6 
#
# 1 0.094427 -0.001753 -0.013294 0.000000 0.000000 0.000000
# 2 -0.001753 0.012852 -0.002743 0.000000 0.000000 0.000000
# 3 -0.013294 -0.002743 0.014206 0.000000 0.000000 0.000000
# 4 0.000000 0.000000 0.000000 0.060755 0.000000 0.000000
# 5 0.000000 0.000000 0.000000 0.000000 -0.001245 0.000000
# 6 0.000000 0.000000 0.000000 0.000000 0.000000 0.041305
#
#
# Mechanical properties :
#
#
# Convention : Reuss Voigt Hill
#
# Bulk Modulus (GPa) = 11.64091 28.30995 19.97543
# Shear Modulus (GPa) = 17.45119 -142.85213 -62.70047
#
# Velocity S-wave (km/s) = 2.95787 -8.46272 -5.60663
# Velocity P-wave (km/s) = 4.18347 9.01650 5.64783
#
# Compressibility (1/GPa) = 0.08590391
#
# Stress axis : x y z
#
# Youngs Moduli (GPa) = 10.59019 77.81089 70.39462
#
# Poissons Ratio (x) = 0.13639 0.93584
# Poissons Ratio (y) = 0.01856 0.19311
# Poissons Ratio (z) = 0.14079 0.21345
#
# Static dielectric constant tensor:
#      x y z
#    x 1.718630 0.000000 0.000000 
#    y 0.000000 1.739360 0.000000 
#    z 0.000000 0.000000 1.703370 
# 
# From -- ./inp_files/9980.got.cif
#   From: 2010.05.17/outbox.cif.g08.bks.cpg/sg56_5_cif.got.tgz:9980.got - 2010.06.03 13:42:01.
