data_PCOD9432290
_publ_section_title
;
Structure prediction by ZEFSAII (Michael W. Deem and Ramdas Pophale) SiO2 
 PCOD9432290
Probable space group: P C C N
;
_chemical_formula_sum "Si O2"
_cell_formula_units_Z 40
_cell_length_a 13.329205
_cell_length_b 11.450540
_cell_length_c 10.871424
_cell_angle_alpha 90.000000
_cell_angle_beta 90.000000
_cell_angle_gamma 90.000000
_cell_volume 1659.268428
_symmetry_space_group_name_H-M "P C C N"
_symmetry_group_IT_number 56
_symmetry_cell_setting 'orthorhombic'
loop_
_space_group_symop_operation_xyz
x,y,z
1/2-x,1/2-y,z
1/2+x,-y,1/2-z
-x,1/2+y,1/2-z
-x,-y,-z
1/2+x,1/2+y,-z
1/2-x,y,1/2+z
x,1/2-y,1/2+z
loop_
_atom_site_type_symbol
_atom_site_label
_atom_site_fract_x
_atom_site_fract_y
_atom_site_fract_z
Si Si1 0.587714 0.948978 0.344182
Si Si2 0.760657 0.387846 0.466382
Si Si3 0.546918 0.065805 0.880315
Si Si4 0.240400 0.088658 0.360731
Si Si5 0.911175 0.734373 0.553774
O O1 0.502490 0.979272 0.245571
O O2 0.679057 0.899459 0.262718
O O3 0.560991 0.845424 0.437823
O O4 0.635937 0.059539 0.413429
O O5 0.750000 0.250000 0.478597
O O6 0.666126 0.430428 0.384491
O O7 0.745618 0.456091 0.594715
O O8 0.505734 0.198401 0.892708
O O9 0.500000 0.000000 0.000000
O O10 0.172212 0.161331 0.460577
O O11 0.348347 0.147414 0.359535
#
# Coordination Sequence:
#
# PCOD9432290 Si02
#       5
#     8   8   8   8   8
#     4  10  22  42  68  96 127 179 230 267 338 409
#     4  11  24  43  64  95 140 179 219 278 356 401
#     4  11  22  45  65  97 139 172 221 288 332 398
#     4   9  19  40  64  91 131 166 221 284 322 384
#     4   9  19  36  65  95 118 167 221 272 328 387
#
# _framework density 24.107009000000001
#
# number of rings (size 3 to 8) (size 9 to 14) (size 15 to 20)
#    0.000    2.000    4.000    0.000    0.000   15.200 
#    7.200    2.000    0.000    0.000    0.000    0.000 
#    0.000    0.000    0.000    0.000    0.000    0.000 
#
# Total GULP energy -223490.317871 kJ/mol
# GULP energy per Si atom -5587.257947 kJ/mol
# Density = 2.405214 g / cm^3
# Si number density = 24.107009 Si / 1000 Ang^3
#
#
#
# Elastic Constant Matrix: (Units=GPa)
#
#
# Indices 1 2 3 4 5 6 
#
# 1 85.3937 35.0910 35.1291 0.0000 0.0000 0.0000
# 2 35.0910 140.0016 31.8219 0.0000 0.0000 0.0000
# 3 35.1291 31.8219 54.6828 0.0000 0.0000 0.0000
# 4 0.0000 0.0000 0.0000 26.0108 0.0000 0.0000
# 5 0.0000 0.0000 0.0000 0.0000 38.4974 0.0000
# 6 0.0000 0.0000 0.0000 0.0000 0.0000 39.2296
#
#
#
# Elastic Compliance Matrix: (Units=1/GPa)
#
#
# Indices 1 2 3 4 5 6 
#
# 1 0.016377 -0.001975 -0.009372 0.000000 0.000000 0.000000
# 2 -0.001975 0.008470 -0.003660 0.000000 0.000000 0.000000
# 3 -0.009372 -0.003660 0.026438 0.000000 0.000000 0.000000
# 4 0.000000 0.000000 0.000000 0.038446 0.000000 0.000000
# 5 0.000000 0.000000 0.000000 0.000000 0.025976 0.000000
# 6 0.000000 0.000000 0.000000 0.000000 0.000000 0.025491
#
#
# Mechanical properties :
#
#
# Convention : Reuss Voigt Hill
#
# Bulk Modulus (GPa) = 47.01171 53.79579 50.40375
# Shear Modulus (GPa) = 28.04242 32.61663 30.32952
#
# Velocity S-wave (km/s) = 3.41434 3.68230 3.55085
# Velocity P-wave (km/s) = 5.92345 6.35948 6.14533
#
# Compressibility (1/GPa) = 0.02127130
#
# Stress axis : x y z
#
# Youngs Moduli (GPa) = 61.06005 118.06805 37.82443
#
# Poissons Ratio (x) = 0.23315 0.35449
# Poissons Ratio (y) = 0.12058 0.13845
# Poissons Ratio (z) = 0.57225 0.43215
#
# Static dielectric constant tensor:
#      x y z
#    x 1.955440 0.000000 0.000000 
#    y 0.000000 1.946520 0.000000 
#    z 0.000000 0.000000 1.936220 
# 
# From -- ./inp_files/7641.got.cif
#   From: 2010.05.17/outbox.cif.g08.bks.cpg/sg56_4_cif.got.tgz:7641.got - 2010.06.03 13:42:01.
