data_PCOD9432144
_publ_section_title
;
Structure prediction by ZEFSAII (Michael W. Deem and Ramdas Pophale) SiO2 
 PCOD9432144
Probable space group: P C C N
;
_chemical_formula_sum "Si O2"
_cell_formula_units_Z 60
_cell_length_a 7.981940
_cell_length_b 18.998482
_cell_length_c 18.696298
_cell_angle_alpha 90.000000
_cell_angle_beta 90.000000
_cell_angle_gamma 90.000000
_cell_volume 2835.195313
_symmetry_space_group_name_H-M "P C C N"
_symmetry_group_IT_number 56
_symmetry_cell_setting 'orthorhombic'
loop_
_space_group_symop_operation_xyz
x,y,z
1/2-x,1/2-y,z
1/2+x,-y,1/2-z
-x,1/2+y,1/2-z
-x,-y,-z
1/2+x,1/2+y,-z
1/2-x,y,1/2+z
x,1/2-y,1/2+z
loop_
_atom_site_type_symbol
_atom_site_label
_atom_site_fract_x
_atom_site_fract_y
_atom_site_fract_z
Si Si1 0.986318 0.063096 0.148606
Si Si2 0.227054 0.864067 0.949635
Si Si3 0.494558 0.265819 0.567402
Si Si4 0.132268 0.929588 0.100437
Si Si5 0.226777 0.378498 0.342310
Si Si6 0.682935 0.863243 0.821857
Si Si7 0.457665 0.977553 0.185162
Si Si8 0.750000 0.750000 0.056790
O O1 0.126285 0.123716 0.153143
O O2 0.963393 0.032371 0.228379
O O3 0.810241 0.082015 0.113708
O O4 0.075567 0.010084 0.093860
O O5 0.124169 0.796742 0.920673
O O6 0.412109 0.836180 0.959511
O O7 0.169003 0.893781 0.025281
O O8 0.397456 0.298890 0.634730
O O9 0.395544 0.236057 0.499748
O O10 0.298775 0.934751 0.150815
O O11 0.962333 0.897551 0.133597
O O12 0.201615 0.350534 0.262155
O O13 0.367684 0.440871 0.340561
O O14 0.287586 0.316853 0.394361
O O15 0.583709 0.939269 0.829246
#
# Coordination Sequence:
#
# PCOD9432144 Si02
#       8
#     8   8   8   8   8   8   8   4
#     4  10  22  40  70  97 134 168 217 273 333 400
#     4  11  24  42  62  98 128 179 222 263 340 393
#     4  11  25  42  66  86 136 176 221 274 322 398
#     4  11  22  42  67  98 134 169 215 273 332 386
#     4  11  24  41  73  96 131 177 215 277 333 386
#     4  10  23  42  67 100 128 175 216 273 331 393
#     4  10  23  43  67 105 130 165 223 273 330 395
#     4  12  24  46  62  96 130 176 226 272 326 400
#
# _framework density 21.162562000000001
#
# number of rings (size 3 to 8) (size 9 to 14) (size 15 to 20)
#    0.000    1.333    2.667    2.000    3.733    2.667 
#    0.000    2.000    0.000    0.000    0.000    0.000 
#    0.000    0.000    0.000    0.000    0.000    0.000 
#
# Total GULP energy -334293.598693 kJ/mol
# GULP energy per Si atom -5571.559978 kJ/mol
# Density = 2.111440 g / cm^3
# Si number density = 21.162562 Si / 1000 Ang^3
#
#
#
# Elastic Constant Matrix: (Units=GPa)
#
#
# Indices 1 2 3 4 5 6 
#
# 1 49.8115 9.6740 16.4394 0.0000 0.0000 0.0000
# 2 9.6740 30.3999 9.1125 0.0000 0.0000 0.0000
# 3 16.4394 9.1125 52.0717 0.0000 0.0000 0.0000
# 4 0.0000 0.0000 0.0000 18.3804 0.0000 0.0000
# 5 0.0000 0.0000 0.0000 0.0000 25.3976 0.0000
# 6 0.0000 0.0000 0.0000 0.0000 0.0000 45.5005
#
#
#
# Elastic Compliance Matrix: (Units=1/GPa)
#
#
# Indices 1 2 3 4 5 6 
#
# 1 0.023246 -0.005485 -0.006379 0.000000 0.000000 0.000000
# 2 -0.005485 0.036010 -0.004570 0.000000 0.000000 0.000000
# 3 -0.006379 -0.004570 0.022018 0.000000 0.000000 0.000000
# 4 0.000000 0.000000 0.000000 0.054406 0.000000 0.000000
# 5 0.000000 0.000000 0.000000 0.000000 0.039374 0.000000
# 6 0.000000 0.000000 0.000000 0.000000 0.000000 0.021978
#
#
# Mechanical properties :
#
#
# Convention : Reuss Voigt Hill
#
# Bulk Modulus (GPa) = 20.65875 22.52609 21.59242
# Shear Modulus (GPa) = 20.32223 24.32618 22.32420
#
# Velocity S-wave (km/s) = 3.10222 3.39409 3.25143
# Velocity P-wave (km/s) = 4.75550 5.10169 4.93163
#
# Compressibility (1/GPa) = 0.04840564
#
# Stress axis : x y z
#
# Youngs Moduli (GPa) = 43.01762 27.76985 45.41755
#
# Poissons Ratio (x) = 0.15233 0.28972
# Poissons Ratio (y) = 0.23597 0.20756
# Poissons Ratio (z) = 0.27441 0.12691
#
# Static dielectric constant tensor:
#      x y z
#    x 1.894760 0.000000 0.000000 
#    y 0.000000 2.021580 0.000000 
#    z 0.000000 0.000000 1.705060 
# 
# From -- ./inp_files/15101.got.cif
#   From: 2010.05.17/outbox.cif.g08.bks.cpg/sg56_8_cif.got.tgz:15101.got - 2010.06.03 13:42:01.
