data_PCOD9432360
_publ_section_title
;
Structure prediction by ZEFSAII (Michael W. Deem and Ramdas Pophale) SiO2 
 PCOD9432360
Probable space group: P C C N
;
_chemical_formula_sum "Si O2"
_cell_formula_units_Z 48
_cell_length_a 22.436494
_cell_length_b 8.961375
_cell_length_c 9.797374
_cell_angle_alpha 90.000000
_cell_angle_beta 90.000000
_cell_angle_gamma 90.000000
_cell_volume 1969.878009
_symmetry_space_group_name_H-M "P C C N"
_symmetry_group_IT_number 56
_symmetry_cell_setting 'orthorhombic'
loop_
_space_group_symop_operation_xyz
x,y,z
1/2-x,1/2-y,z
1/2+x,-y,1/2-z
-x,1/2+y,1/2-z
-x,-y,-z
1/2+x,1/2+y,-z
1/2-x,y,1/2+z
x,1/2-y,1/2+z
loop_
_atom_site_type_symbol
_atom_site_label
_atom_site_fract_x
_atom_site_fract_y
_atom_site_fract_z
Si Si1 0.695761 0.356478 0.569094
Si Si2 0.388578 0.254187 0.851366
Si Si3 0.464314 0.240299 0.605000
Si Si4 0.045109 0.520361 0.786913
Si Si5 0.719134 0.890404 0.494452
Si Si6 0.644676 0.161113 0.361360
O O1 0.750000 0.250000 0.524310
O O2 0.726231 0.516530 0.558026
O O3 0.647017 0.301434 0.461546
O O4 0.676580 0.306020 0.718508
O O5 0.407077 0.291547 0.696839
O O6 0.400984 0.074980 0.856009
O O7 0.325953 0.319253 0.895396
O O8 0.438759 0.308568 0.959902
O O9 0.489222 0.105605 0.699176
O O10 0.508961 0.377730 0.610731
O O11 0.077205 0.621374 0.674474
O O12 0.750000 0.750000 0.418192
O O13 0.677763 0.010219 0.415360
#
# Coordination Sequence:
#
# PCOD9432360 Si02
#       6
#     8   8   8   8   8   8
#     4  10  23  42  68  97 136 177 221 273 334 402
#     4  10  22  43  67  99 138 173 234 273 341 405
#     4  10  23  43  68  98 136 179 229 282 345 403
#     4  10  23  44  68  98 136 177 227 284 339 404
#     4  11  22  41  70 100 136 177 221 281 336 404
#     4  11  23  46  64 100 136 175 227 274 338 406
#
# _framework density 24.366989
#
# number of rings (size 3 to 8) (size 9 to 14) (size 15 to 20)
#    1.000    0.667    1.667    3.000    0.000    5.333 
#    9.000    0.000    0.000    0.000    0.000    0.000 
#    0.000    0.000    0.000    0.000    0.000    0.000 
#
# Total GULP energy -267828.003373 kJ/mol
# GULP energy per Si atom -5579.750070 kJ/mol
# Density = 2.431153 g / cm^3
# Si number density = 24.366989 Si / 1000 Ang^3
#
#
#
# Elastic Constant Matrix: (Units=GPa)
#
#
# Indices 1 2 3 4 5 6 
#
# 1 70.0524 49.2736 14.9678 0.0000 0.0000 0.0000
# 2 49.2736 99.1961 17.1913 0.0000 0.0000 0.0000
# 3 14.9678 17.1913 70.7890 0.0000 0.0000 0.0000
# 4 0.0000 0.0000 0.0000 -3.6032 0.0000 0.0000
# 5 0.0000 0.0000 0.0000 0.0000 23.2439 0.0000
# 6 0.0000 0.0000 0.0000 0.0000 0.0000 24.9244
#
#
#
# Elastic Compliance Matrix: (Units=1/GPa)
#
#
# Indices 1 2 3 4 5 6 
#
# 1 0.022238 -0.010681 -0.002108 0.000000 0.000000 0.000000
# 2 -0.010681 0.015654 -0.001543 0.000000 0.000000 0.000000
# 3 -0.002108 -0.001543 0.014947 0.000000 0.000000 0.000000
# 4 0.000000 0.000000 0.000000 -0.277532 0.000000 0.000000
# 5 0.000000 0.000000 0.000000 0.000000 0.043022 0.000000
# 6 0.000000 0.000000 0.000000 0.000000 0.000000 0.040121
#
#
# Mechanical properties :
#
#
# Convention : Reuss Voigt Hill
#
# Bulk Modulus (GPa) = 41.36592 44.76701 43.06647
# Shear Modulus (GPa) = -47.69819 19.48667 -14.10576
#
# Velocity S-wave (km/s) = -4.42916 2.83099 -2.40862
# Velocity P-wave (km/s) = 3.02382 5.39425 3.15867
#
# Compressibility (1/GPa) = 0.02417449
#
# Stress axis : x y z
#
# Youngs Moduli (GPa) = 44.96731 63.88105 66.90293
#
# Poissons Ratio (x) = 0.68232 0.14105
# Poissons Ratio (y) = 0.48030 0.10325
# Poissons Ratio (z) = 0.09480 0.09858
#
# Static dielectric constant tensor:
#      x y z
#    x 2.066970 0.000000 0.000000 
#    y 0.000000 2.035290 0.000000 
#    z 0.000000 0.000000 1.924660 
# 
# From -- ./inp_files/8872.got.cif
#   From: 2010.05.17/outbox.cif.g08.bks.cpg/sg56_5_cif.got.tgz:8872.got - 2010.06.03 13:42:01.
