data_PCOD9432260
_publ_section_title
;
Structure prediction by ZEFSAII (Michael W. Deem and Ramdas Pophale) SiO2 
 PCOD9432260
Probable space group: P C C N
;
_chemical_formula_sum "Si O2"
_cell_formula_units_Z 32
_cell_length_a 17.215172
_cell_length_b 13.398473
_cell_length_c 5.477623
_cell_angle_alpha 90.000000
_cell_angle_beta 90.000000
_cell_angle_gamma 90.000000
_cell_volume 1263.452183
_symmetry_space_group_name_H-M "P C C N"
_symmetry_group_IT_number 56
_symmetry_cell_setting 'orthorhombic'
loop_
_space_group_symop_operation_xyz
x,y,z
1/2-x,1/2-y,z
1/2+x,-y,1/2-z
-x,1/2+y,1/2-z
-x,-y,-z
1/2+x,1/2+y,-z
1/2-x,y,1/2+z
x,1/2-y,1/2+z
loop_
_atom_site_type_symbol
_atom_site_label
_atom_site_fract_x
_atom_site_fract_y
_atom_site_fract_z
Si Si1 0.226933 0.412409 0.299947
Si Si2 0.118545 0.724889 0.640026
Si Si3 0.447572 0.195951 0.856802
Si Si4 0.622891 0.500270 0.851322
O O1 0.239279 0.359442 0.042194
O O2 0.144094 0.455194 0.380400
O O3 0.290465 0.501569 0.266328
O O4 0.160510 0.748233 0.388929
O O5 0.091305 0.609885 0.641119
O O6 0.040521 0.791957 0.637217
O O7 0.420187 0.259184 0.617105
O O8 0.424171 0.082814 0.797050
#
# Coordination Sequence:
#
# PCOD9432260 Si02
#       4
#     8   8   8   8
#     4   8  20  36  62  90 110 174 200 230 324 344
#     4  10  24  39  60  95 119 164 207 242 313 362
#     4  10  24  39  60  95 119 164 207 242 313 362
#     4  10  22  42  66  82 138 150 204 264 290 368
#
# _framework density 25.327432999999999
#
# number of rings (size 3 to 8) (size 9 to 14) (size 15 to 20)
#    1.500    1.000    0.000    0.000    7.000    8.000 
#    0.000    7.500    0.000    0.000    0.000    0.000 
#    0.000    0.000    0.000    0.000    0.000    0.000 
#
# Total GULP energy -178374.012685 kJ/mol
# GULP energy per Si atom -5574.187896 kJ/mol
# Density = 2.526979 g / cm^3
# Si number density = 25.327433 Si / 1000 Ang^3
#
#
#
# Elastic Constant Matrix: (Units=GPa)
#
#
# Indices 1 2 3 4 5 6 
#
# 1 54.1263 9.1883 -20.1500 0.0000 0.0000 0.0000
# 2 9.1883 122.1255 40.2989 0.0000 0.0000 0.0000
# 3 -20.1500 40.2989 242.2117 0.0000 0.0000 0.0000
# 4 0.0000 0.0000 0.0000 5.9269 0.0000 0.0000
# 5 0.0000 0.0000 0.0000 0.0000 0.3921 0.0000
# 6 0.0000 0.0000 0.0000 0.0000 0.0000 -13.3196
#
#
#
# Elastic Compliance Matrix: (Units=1/GPa)
#
#
# Indices 1 2 3 4 5 6 
#
# 1 0.019574 -0.002127 0.001982 0.000000 0.000000 0.000000
# 2 -0.002127 0.008895 -0.001657 0.000000 0.000000 0.000000
# 3 0.001982 -0.001657 0.004569 0.000000 0.000000 0.000000
# 4 0.000000 0.000000 0.000000 0.168721 0.000000 0.000000
# 5 0.000000 0.000000 0.000000 0.000000 2.550372 0.000000
# 6 0.000000 0.000000 0.000000 0.000000 0.000000 -0.075077
#
#
# Mechanical properties :
#
#
# Convention : Reuss Voigt Hill
#
# Bulk Modulus (GPa) = 33.97233 53.01531 43.49382
# Shear Modulus (GPa) = 1.85841 24.54164 13.20003
#
# Velocity S-wave (km/s) = 0.85752 3.11621 2.28540
# Velocity P-wave (km/s) = 3.79774 5.82453 4.91670
#
# Compressibility (1/GPa) = 0.02943572
#
# Stress axis : x y z
#
# Youngs Moduli (GPa) = 51.08737 112.42212 218.85682
#
# Poissons Ratio (x) = 0.23910 -0.43383
# Poissons Ratio (y) = 0.10865 0.36262
# Poissons Ratio (z) = -0.10127 0.18627
#
# Static dielectric constant tensor:
#      x y z
#    x 2.019870 0.000000 0.000000 
#    y 0.000000 1.895720 0.000000 
#    z 0.000000 0.000000 2.182690 
# 
# From -- ./inp_files/421.got.cif
#   From: 2010.05.17/outbox.cif.g08.bks.cpg/sg56_1_cif.got.tgz:421.got - 2010.06.03 13:42:01.
