data_PCOD9432461
_publ_section_title
;
Structure prediction by ZEFSAII (Michael W. Deem and Ramdas Pophale) SiO2 
 PCOD9432461
Probable space group: P C C N
;
_chemical_formula_sum "Si O2"
_cell_formula_units_Z 40
_cell_length_a 11.125918
_cell_length_b 9.633349
_cell_length_c 14.831185
_cell_angle_alpha 90.000000
_cell_angle_beta 90.000000
_cell_angle_gamma 90.000000
_cell_volume 1589.604199
_symmetry_space_group_name_H-M "P C C N"
_symmetry_group_IT_number 56
_symmetry_cell_setting 'orthorhombic'
loop_
_space_group_symop_operation_xyz
x,y,z
1/2-x,1/2-y,z
1/2+x,-y,1/2-z
-x,1/2+y,1/2-z
-x,-y,-z
1/2+x,1/2+y,-z
1/2-x,y,1/2+z
x,1/2-y,1/2+z
loop_
_atom_site_type_symbol
_atom_site_label
_atom_site_fract_x
_atom_site_fract_y
_atom_site_fract_z
Si Si1 0.391865 0.850262 0.591204
Si Si2 0.521717 0.924002 0.127004
Si Si3 0.921538 0.420391 0.595950
Si Si4 0.231318 0.914308 0.266306
Si Si5 0.883042 0.814510 0.434245
O O1 0.436820 0.710553 0.640335
O O2 0.341514 0.864703 0.488848
O O3 0.302874 0.918489 0.661839
O O4 0.512819 0.935820 0.576512
O O5 0.625431 0.992179 0.188598
O O6 0.427224 0.048943 0.117011
O O7 0.589678 0.868700 0.036208
O O8 0.852662 0.461775 0.686478
O O9 0.023696 0.302625 0.601459
O O10 0.250000 0.750000 0.291248
O O11 0.750000 0.750000 0.426572
#
# Coordination Sequence:
#
# PCOD9432461 Si02
#       5
#     8   8   8   8   8
#     4  10  26  48  78 112 155 204 260 318 393 467
#     4  10  24  45  73 113 148 195 265 313 380 473
#     4  10  24  51  78 115 154 205 258 314 396 472
#     4  12  26  45  76 111 160 196 258 325 379 459
#     4  10  22  45  77 110 150 203 251 313 389 461
#
# _framework density 25.163498000000001
#
# number of rings (size 3 to 8) (size 9 to 14) (size 15 to 20)
#    0.000    1.600    2.000    0.000   11.200    2.400 
#    0.000    0.000    0.000    0.000    0.000    0.000 
#    0.000    0.000    0.000    0.000    0.000    0.000 
#
# Total GULP energy -222862.784019 kJ/mol
# GULP energy per Si atom -5571.569600 kJ/mol
# Density = 2.510623 g / cm^3
# Si number density = 25.163498 Si / 1000 Ang^3
#
#
#
# Elastic Constant Matrix: (Units=GPa)
#
#
# Indices 1 2 3 4 5 6 
#
# 1 146.7347 53.3274 87.4234 0.0000 0.0000 0.0000
# 2 53.3274 152.8889 33.0205 0.0000 0.0000 0.0000
# 3 87.4234 33.0205 129.7854 0.0000 0.0000 0.0000
# 4 0.0000 0.0000 0.0000 22.6647 0.0000 0.0000
# 5 0.0000 0.0000 0.0000 0.0000 26.3778 0.0000
# 6 0.0000 0.0000 0.0000 0.0000 0.0000 46.5360
#
#
#
# Elastic Compliance Matrix: (Units=1/GPa)
#
#
# Indices 1 2 3 4 5 6 
#
# 1 0.012322 -0.002651 -0.007625 0.000000 0.000000 0.000000
# 2 -0.002651 0.007491 -0.000120 0.000000 0.000000 0.000000
# 3 -0.007625 -0.000120 0.012872 0.000000 0.000000 0.000000
# 4 0.000000 0.000000 0.000000 0.044121 0.000000 0.000000
# 5 0.000000 0.000000 0.000000 0.000000 0.037911 0.000000
# 6 0.000000 0.000000 0.000000 0.000000 0.000000 0.021489
#
#
# Mechanical properties :
#
#
# Convention : Reuss Voigt Hill
#
# Bulk Modulus (GPa) = 84.09138 86.32797 85.20967
# Shear Modulus (GPa) = 31.06310 36.15823 33.61067
#
# Velocity S-wave (km/s) = 3.51729 3.79480 3.65868
# Velocity P-wave (km/s) = 7.07005 7.31997 7.19610
#
# Compressibility (1/GPa) = 0.01189183
#
# Stress axis : x y z
#
# Youngs Moduli (GPa) = 81.15883 133.48821 77.68756
#
# Poissons Ratio (x) = 0.35385 0.59239
# Poissons Ratio (y) = 0.21514 0.00935
# Poissons Ratio (z) = 0.61886 0.01607
#
# Static dielectric constant tensor:
#      x y z
#    x 2.062510 0.000000 0.000000 
#    y 0.000000 2.048860 0.000000 
#    z 0.000000 0.000000 2.155020 
# 
# From -- ./inp_files/15412.got.cif
#   From: 2010.05.17/outbox.cif.g08.bks.cpg/sg56_8_cif.got.tgz:15412.got - 2010.06.03 13:42:01.
