data_PCOD9432188
_publ_section_title
;
Structure prediction by ZEFSAII (Michael W. Deem and Ramdas Pophale) SiO2 
 PCOD9432188
Probable space group: P C C N
;
_chemical_formula_sum "Si O2"
_cell_formula_units_Z 32
_cell_length_a 8.097869
_cell_length_b 7.468212
_cell_length_c 20.261836
_cell_angle_alpha 90.000000
_cell_angle_beta 90.000000
_cell_angle_gamma 90.000000
_cell_volume 1225.367000
_symmetry_space_group_name_H-M "P C C N"
_symmetry_group_IT_number 56
_symmetry_cell_setting 'orthorhombic'
loop_
_space_group_symop_operation_xyz
x,y,z
1/2-x,1/2-y,z
1/2+x,-y,1/2-z
-x,1/2+y,1/2-z
-x,-y,-z
1/2+x,1/2+y,-z
1/2-x,y,1/2+z
x,1/2-y,1/2+z
loop_
_atom_site_type_symbol
_atom_site_label
_atom_site_fract_x
_atom_site_fract_y
_atom_site_fract_z
Si Si1 0.712024 0.538400 0.289565
Si Si2 0.437036 0.675998 0.597320
Si Si3 0.939051 0.006258 0.155325
Si Si4 0.445613 0.194397 0.531415
O O1 0.750000 0.750000 0.286109
O O2 0.582596 0.477035 0.346617
O O3 0.674448 0.463524 0.217394
O O4 0.886232 0.461976 0.310835
O O5 0.250000 0.750000 0.593836
O O6 0.478356 0.665737 0.519786
O O7 0.579272 0.816031 0.619286
O O8 0.969606 0.164059 0.102951
O O9 0.250000 0.250000 0.539805
O O10 0.500000 0.000000 0.500000
#
# Coordination Sequence:
#
# PCOD9432188 Si02
#       4
#     8   8   8   8
#     4  11  22  40  68 104 141 185 244 317 386 460
#     4   9  21  42  65  97 143 192 246 308 383 468
#     4  10  22  41  66 102 141 182 242 310 380 461
#     4  10  22  43  70 105 149 199 255 319 386 469
#
# _framework density 26.114626999999999
#
# number of rings (size 3 to 8) (size 9 to 14) (size 15 to 20)
#    0.000    2.000    0.000    2.250    0.000    8.000 
#    0.000   28.750    0.000    0.000    0.000    0.000 
#    0.000    0.000    0.000    0.000    0.000    0.000 
#
# Total GULP energy -178233.009860 kJ/mol
# GULP energy per Si atom -5569.781558 kJ/mol
# Density = 2.605519 g / cm^3
# Si number density = 26.114627 Si / 1000 Ang^3
#
#
#
# Elastic Constant Matrix: (Units=GPa)
#
#
# Indices 1 2 3 4 5 6 
#
# 1 59.2824 -7.6693 45.8934 0.0000 0.0000 0.0000
# 2 -7.6693 86.8794 60.5899 0.0000 0.0000 0.0000
# 3 45.8934 60.5899 244.3630 0.0000 0.0000 0.0000
# 4 0.0000 0.0000 0.0000 -104.8253 0.0000 0.0000
# 5 0.0000 0.0000 0.0000 0.0000 53.1200 0.0000
# 6 0.0000 0.0000 0.0000 0.0000 0.0000 31.4133
#
#
#
# Elastic Compliance Matrix: (Units=1/GPa)
#
#
# Indices 1 2 3 4 5 6 
#
# 1 0.021923 0.005812 -0.005558 0.000000 0.000000 0.000000
# 2 0.005812 0.015457 -0.004924 0.000000 0.000000 0.000000
# 3 -0.005558 -0.004924 0.006357 0.000000 0.000000 0.000000
# 4 0.000000 0.000000 0.000000 -0.009540 0.000000 0.000000
# 5 0.000000 0.000000 0.000000 0.000000 0.018825 0.000000
# 6 0.000000 0.000000 0.000000 0.000000 0.000000 0.031834
#
#
# Mechanical properties :
#
#
# Convention : Reuss Voigt Hill
#
# Bulk Modulus (GPa) = 29.07301 65.35032 47.21166
# Shear Modulus (GPa) = 47.31978 15.38899 31.35438
#
# Velocity S-wave (km/s) = 4.26138 2.43016 3.46879
# Velocity P-wave (km/s) = 5.94723 5.74047 5.84476
#
# Compressibility (1/GPa) = 0.03439616
#
# Stress axis : x y z
#
# Youngs Moduli (GPa) = 45.61357 64.69406 157.30355
#
# Poissons Ratio (x) = -0.37599 0.87436
# Poissons Ratio (y) = -0.26509 0.77459
# Poissons Ratio (z) = 0.25354 0.31856
#
# Static dielectric constant tensor:
#      x y z
#    x 1.816370 0.000000 0.000000 
#    y 0.000000 3.098050 0.000000 
#    z 0.000000 0.000000 2.198440 
# 
# From -- ./inp_files/17777.got.cif
#   From: 2010.05.17/outbox.cif.g08.bks.cpg/sg56_9_cif.got.tgz:17777.got - 2010.06.03 13:42:01.
