data_PCOD9432854
_publ_section_title
;
Structure prediction by ZEFSAII (Michael W. Deem and Ramdas Pophale) SiO2 
 PCOD9432854
Probable space group: P C C N
;
_chemical_formula_sum "Si O2"
_cell_formula_units_Z 40
_cell_length_a 11.558561
_cell_length_b 16.862018
_cell_length_c 9.466435
_cell_angle_alpha 90.000000
_cell_angle_beta 90.000000
_cell_angle_gamma 90.000000
_cell_volume 1845.014464
_symmetry_space_group_name_H-M "P C C N"
_symmetry_group_IT_number 56
_symmetry_cell_setting 'orthorhombic'
loop_
_space_group_symop_operation_xyz
x,y,z
1/2-x,1/2-y,z
1/2+x,-y,1/2-z
-x,1/2+y,1/2-z
-x,-y,-z
1/2+x,1/2+y,-z
1/2-x,y,1/2+z
x,1/2-y,1/2+z
loop_
_atom_site_type_symbol
_atom_site_label
_atom_site_fract_x
_atom_site_fract_y
_atom_site_fract_z
Si Si1 0.974485 0.644145 0.789922
Si Si2 0.114832 0.240180 0.980311
Si Si3 0.410858 0.977462 0.122282
Si Si4 0.522604 0.899759 0.365418
Si Si5 0.149711 0.932710 0.105176
O O1 0.938116 0.703393 0.663285
O O2 0.948709 0.686700 0.939395
O O3 0.902896 0.560526 0.788620
O O4 0.103698 0.614537 0.744184
O O5 0.250000 0.250000 0.952877
O O6 0.104657 0.171859 0.098907
O O7 0.471083 0.908825 0.212045
O O8 0.284711 0.946076 0.085244
O O9 0.500000 0.000000 0.000000
O O10 0.413956 0.893722 0.471680
O O11 0.593461 0.980130 0.388786
#
# Coordination Sequence:
#
# PCOD9432854 Si02
#       5
#     8   8   8   8   8
#     4  10  24  41  67 102 131 180 222 280 347 397
#     4  11  22  42  68  98 141 174 224 276 346 408
#     4  11  24  40  71  99 132 178 236 273 338 398
#     4   9  21  39  64  97 132 174 220 281 331 391
#     4   9  20  42  63  93 135 171 225 278 328 394
#
# _framework density 21.680049
#
# number of rings (size 3 to 8) (size 9 to 14) (size 15 to 20)
#    0.000    2.000    0.000    3.000    8.400    0.000 
#    7.200    1.000    0.000    0.000    0.000    0.000 
#    0.000    0.000    0.000    0.000    0.000    0.000 
#
# Total GULP energy -223066.723380 kJ/mol
# GULP energy per Si atom -5576.668085 kJ/mol
# Density = 2.163070 g / cm^3
# Si number density = 21.680049 Si / 1000 Ang^3
#
#
#
# Elastic Constant Matrix: (Units=GPa)
#
#
# Indices 1 2 3 4 5 6 
#
# 1 131.1325 5.2771 40.1516 0.0000 0.0000 0.0000
# 2 5.2771 73.3250 22.3025 0.0000 0.0000 0.0000
# 3 40.1516 22.3025 89.4853 0.0000 0.0000 0.0000
# 4 0.0000 0.0000 0.0000 45.9056 0.0000 0.0000
# 5 0.0000 0.0000 0.0000 0.0000 12.5235 0.0000
# 6 0.0000 0.0000 0.0000 0.0000 0.0000 28.2997
#
#
#
# Elastic Compliance Matrix: (Units=1/GPa)
#
#
# Indices 1 2 3 4 5 6 
#
# 1 0.008866 0.000619 -0.004132 0.000000 0.000000 0.000000
# 2 0.000619 0.014800 -0.003966 0.000000 0.000000 0.000000
# 3 -0.004132 -0.003966 0.014018 0.000000 0.000000 0.000000
# 4 0.000000 0.000000 0.000000 0.021784 0.000000 0.000000
# 5 0.000000 0.000000 0.000000 0.000000 0.079850 0.000000
# 6 0.000000 0.000000 0.000000 0.000000 0.000000 0.035336
#
#
# Mechanical properties :
#
#
# Convention : Reuss Voigt Hill
#
# Bulk Modulus (GPa) = 44.00627 47.71169 45.85898
# Shear Modulus (GPa) = 25.35651 32.42654 28.89153
#
# Velocity S-wave (km/s) = 3.42362 3.87161 3.65448
# Velocity P-wave (km/s) = 5.99753 6.48388 6.24544
#
# Compressibility (1/GPa) = 0.02272404
#
# Stress axis : x y z
#
# Youngs Moduli (GPa) = 112.78661 67.56875 71.33808
#
# Poissons Ratio (x) = -0.04181 0.29480
# Poissons Ratio (y) = -0.06980 0.28294
# Poissons Ratio (z) = 0.46609 0.26799
#
# Static dielectric constant tensor:
#      x y z
#    x 1.650010 0.000000 0.000000 
#    y 0.000000 1.835350 0.000000 
#    z 0.000000 0.000000 1.875580 
# 
# From -- ./inp_files/2560.got.cif
#   From: 2010.05.17/outbox.cif.g08.bks.cpg/sg56_2_cif.got.tgz:2560.got - 2010.06.03 13:42:01.
