data_PCOD9432792
_publ_section_title
;
Structure prediction by ZEFSAII (Michael W. Deem and Ramdas Pophale) SiO2 
 PCOD9432792
Probable space group: P C C N
;
_chemical_formula_sum "Si O2"
_cell_formula_units_Z 60
_cell_length_a 20.072728
_cell_length_b 10.785134
_cell_length_c 10.775597
_cell_angle_alpha 90.000000
_cell_angle_beta 90.000000
_cell_angle_gamma 90.000000
_cell_volume 2332.777327
_symmetry_space_group_name_H-M "P C C N"
_symmetry_group_IT_number 56
_symmetry_cell_setting 'orthorhombic'
loop_
_space_group_symop_operation_xyz
x,y,z
1/2-x,1/2-y,z
1/2+x,-y,1/2-z
-x,1/2+y,1/2-z
-x,-y,-z
1/2+x,1/2+y,-z
1/2-x,y,1/2+z
x,1/2-y,1/2+z
loop_
_atom_site_type_symbol
_atom_site_label
_atom_site_fract_x
_atom_site_fract_y
_atom_site_fract_z
Si Si1 0.250000 0.250000 0.808070
Si Si2 0.515205 0.654126 0.152146
Si Si3 0.854923 0.354339 0.091308
Si Si4 0.059901 0.079317 0.442624
Si Si5 0.614888 0.775741 0.848568
Si Si6 0.218371 0.512963 0.387005
Si Si7 0.404333 0.006687 0.549618
Si Si8 0.677077 0.316746 0.312500
O O1 0.182825 0.237348 0.727157
O O2 0.254575 0.374124 0.887710
O O3 0.551312 0.658759 0.283758
O O4 0.443365 0.601326 0.118490
O O5 0.525953 0.796791 0.111925
O O6 0.559058 0.554419 0.074900
O O7 0.899418 0.472526 0.127873
O O8 0.778522 0.394176 0.098056
O O9 0.861055 0.324003 0.944143
O O10 0.861694 0.250170 0.197335
O O11 0.117111 0.144308 0.527130
O O12 0.000000 0.000000 0.500000
O O13 0.596170 0.633312 0.873556
O O14 0.167936 0.530030 0.500683
O O15 0.188961 0.548017 0.250807
O O16 0.750000 0.250000 0.330159
#
# Coordination Sequence:
#
# PCOD9432792 Si02
#       8
#     4   8   8   8   8   8   8   8
#     4  12  24  44  76 118 160 202 268 342 424 498
#     4  10  23  50  68 107 147 198 266 322 407 489
#     4  11  25  48  78 109 160 201 272 335 407 495
#     4  11  27  49  70 110 149 201 269 329 409 487
#     4  11  25  45  75 111 152 209 265 341 414 492
#     4  11  24  42  74 113 157 203 262 334 415 486
#     4  10  24  43  77 102 151 203 261 328 411 486
#     4  10  23  47  72 114 156 203 260 325 412 492
#
# _framework density 25.720414999999999
#
# number of rings (size 3 to 8) (size 9 to 14) (size 15 to 20)
#    0.000    1.333    1.333    2.800    9.333    0.000 
#    4.800    0.000    5.867    0.000    0.000    0.000 
#    0.000    0.000    0.000    0.000    0.000    0.000 
#
# Total GULP energy -335534.122024 kJ/mol
# GULP energy per Si atom -5592.235367 kJ/mol
# Density = 2.566187 g / cm^3
# Si number density = 25.720415 Si / 1000 Ang^3
#
#
#
# Elastic Constant Matrix: (Units=GPa)
#
#
# Indices 1 2 3 4 5 6 
#
# 1 80.2797 23.7644 29.5086 0.0000 0.0000 0.0000
# 2 23.7644 137.7896 48.0702 0.0000 0.0000 0.0000
# 3 29.5086 48.0702 112.6924 0.0000 0.0000 0.0000
# 4 0.0000 0.0000 0.0000 36.1592 0.0000 0.0000
# 5 0.0000 0.0000 0.0000 0.0000 46.4885 0.0000
# 6 0.0000 0.0000 0.0000 0.0000 0.0000 43.4039
#
#
#
# Elastic Compliance Matrix: (Units=1/GPa)
#
#
# Indices 1 2 3 4 5 6 
#
# 1 0.013988 -0.001333 -0.003094 0.000000 0.000000 0.000000
# 2 -0.001333 0.008653 -0.003342 0.000000 0.000000 0.000000
# 3 -0.003094 -0.003342 0.011110 0.000000 0.000000 0.000000
# 4 0.000000 0.000000 0.000000 0.027656 0.000000 0.000000
# 5 0.000000 0.000000 0.000000 0.000000 0.021511 0.000000
# 6 0.000000 0.000000 0.000000 0.000000 0.000000 0.023039
#
#
# Mechanical properties :
#
#
# Convention : Reuss Voigt Hill
#
# Bulk Modulus (GPa) = 54.90751 59.27200 57.08976
# Shear Modulus (GPa) = 39.19523 40.50488 39.85006
#
# Velocity S-wave (km/s) = 3.90795 3.97270 3.94046
# Velocity P-wave (km/s) = 6.46196 6.64363 6.55343
#
# Compressibility (1/GPa) = 0.01821244
#
# Stress axis : x y z
#
# Youngs Moduli (GPa) = 71.48761 115.56286 90.01259
#
# Poissons Ratio (x) = 0.15405 0.27852
# Poissons Ratio (y) = 0.09530 0.30083
# Poissons Ratio (z) = 0.22120 0.38622
#
# Static dielectric constant tensor:
#      x y z
#    x 2.475270 0.000000 0.000000 
#    y 0.000000 2.047100 0.000000 
#    z 0.000000 0.000000 2.130410 
# 
# From -- ./inp_files/8692.got.cif
#   From: 2010.05.17/outbox.cif.g08.bks.cpg/sg56_5_cif.got.tgz:8692.got - 2010.06.03 13:42:01.
