data_PCOD9432346
_publ_section_title
;
Structure prediction by ZEFSAII (Michael W. Deem and Ramdas Pophale) SiO2 
 PCOD9432346
Probable space group: P C C N
;
_chemical_formula_sum "Si O2"
_cell_formula_units_Z 56
_cell_length_a 13.921097
_cell_length_b 14.689516
_cell_length_c 10.731495
_cell_angle_alpha 90.000000
_cell_angle_beta 90.000000
_cell_angle_gamma 90.000000
_cell_volume 2194.528239
_symmetry_space_group_name_H-M "P C C N"
_symmetry_group_IT_number 56
_symmetry_cell_setting 'orthorhombic'
loop_
_space_group_symop_operation_xyz
x,y,z
1/2-x,1/2-y,z
1/2+x,-y,1/2-z
-x,1/2+y,1/2-z
-x,-y,-z
1/2+x,1/2+y,-z
1/2-x,y,1/2+z
x,1/2-y,1/2+z
loop_
_atom_site_type_symbol
_atom_site_label
_atom_site_fract_x
_atom_site_fract_y
_atom_site_fract_z
Si Si1 0.884101 0.474415 0.361937
Si Si2 0.401841 0.394898 0.492624
Si Si3 0.550744 0.324111 0.694009
Si Si4 0.573338 0.799914 0.249224
Si Si5 0.673607 0.443831 0.352162
Si Si6 0.750000 0.750000 0.414366
Si Si7 0.941500 0.100323 0.108235
Si Si8 0.250000 0.750000 0.198637
O O1 0.929298 0.427221 0.244797
O O2 0.774465 0.495837 0.336687
O O3 0.886190 0.405672 0.480673
O O4 0.953826 0.554796 0.404926
O O5 0.488642 0.350185 0.569705
O O6 0.427208 0.379625 0.348617
O O7 0.379826 0.495328 0.544508
O O8 0.307988 0.327830 0.510505
O O9 0.466630 0.294701 0.802547
O O10 0.663353 0.290783 0.718143
O O11 0.669462 0.791375 0.323899
O O12 0.477382 0.802051 0.340319
O O13 0.618758 0.442881 0.220119
O O14 0.701002 0.336466 0.373390
#
# Coordination Sequence:
#
# PCOD9432346 Si02
#       8
#     8   8   8   8   8   4   8   4
#     4  10  24  43  71  95 143 192 235 301 366 444
#     4  11  24  44  72 109 143 185 245 319 365 443
#     4  10  22  43  66 102 141 191 237 296 371 433
#     4  11  24  42  69 102 142 183 237 304 368 443
#     4  11  23  45  69 107 137 195 251 301 372 443
#     4  10  24  44  70 106 144 188 240 296 390 454
#     4  11  23  46  68 103 139 190 242 300 370 451
#     4  10  22  46  68 100 152 190 248 300 366 456
#
# _framework density 25.518013
#
# number of rings (size 3 to 8) (size 9 to 14) (size 15 to 20)
#    0.000    1.429    2.857    1.286    4.000    2.857 
#    7.714    3.571    0.000    0.000    0.000    0.000 
#    0.000    0.000    0.000    0.000    0.000    0.000 
#
# Total GULP energy -312357.505465 kJ/mol
# GULP energy per Si atom -5577.812598 kJ/mol
# Density = 2.545993 g / cm^3
# Si number density = 25.518013 Si / 1000 Ang^3
#
#
#
# Elastic Constant Matrix: (Units=GPa)
#
#
# Indices 1 2 3 4 5 6 
#
# 1 146.7399 39.1538 36.3205 0.0000 0.0000 0.0000
# 2 39.1538 127.2793 22.8060 0.0000 0.0000 0.0000
# 3 36.3205 22.8060 83.5355 0.0000 0.0000 0.0000
# 4 0.0000 0.0000 0.0000 28.7255 0.0000 0.0000
# 5 0.0000 0.0000 0.0000 0.0000 17.1724 0.0000
# 6 0.0000 0.0000 0.0000 0.0000 0.0000 55.8728
#
#
#
# Elastic Compliance Matrix: (Units=1/GPa)
#
#
# Indices 1 2 3 4 5 6 
#
# 1 0.008072 -0.001950 -0.002977 0.000000 0.000000 0.000000
# 2 -0.001950 0.008732 -0.001536 0.000000 0.000000 0.000000
# 3 -0.002977 -0.001536 0.013685 0.000000 0.000000 0.000000
# 4 0.000000 0.000000 0.000000 0.034812 0.000000 0.000000
# 5 0.000000 0.000000 0.000000 0.000000 0.058233 0.000000
# 6 0.000000 0.000000 0.000000 0.000000 0.000000 0.017898
#
#
# Mechanical properties :
#
#
# Convention : Reuss Voigt Hill
#
# Bulk Modulus (GPa) = 56.94022 61.56837 59.25429
# Shear Modulus (GPa) = 31.20866 37.63910 34.42388
#
# Velocity S-wave (km/s) = 3.50094 3.84474 3.67686
# Velocity P-wave (km/s) = 6.22128 6.62489 6.42625
#
# Compressibility (1/GPa) = 0.01756228
#
# Stress axis : x y z
#
# Youngs Moduli (GPa) = 123.88616 114.52484 73.07338
#
# Poissons Ratio (x) = 0.22328 0.21756
# Poissons Ratio (y) = 0.24153 0.11225
# Poissons Ratio (z) = 0.36885 0.17593
#
# Static dielectric constant tensor:
#      x y z
#    x 2.115600 0.000000 0.000000 
#    y 0.000000 2.266440 0.000000 
#    z 0.000000 0.000000 2.066700 
# 
# From -- ./inp_files/7919.got.cif
#   From: 2010.05.17/outbox.cif.g08.bks.cpg/sg56_4_cif.got.tgz:7919.got - 2010.06.03 13:42:01.
