data_PCOD9432401
_publ_section_title
;
Structure prediction by ZEFSAII (Michael W. Deem and Ramdas Pophale) SiO2 
 PCOD9432401
Probable space group: P C C N
;
_chemical_formula_sum "Si O2"
_cell_formula_units_Z 40
_cell_length_a 15.471300
_cell_length_b 4.934318
_cell_length_c 22.826867
_cell_angle_alpha 90.000000
_cell_angle_beta 90.000000
_cell_angle_gamma 90.000000
_cell_volume 1742.610196
_symmetry_space_group_name_H-M "P C C N"
_symmetry_group_IT_number 56
_symmetry_cell_setting 'orthorhombic'
loop_
_space_group_symop_operation_xyz
x,y,z
1/2-x,1/2-y,z
1/2+x,-y,1/2-z
-x,1/2+y,1/2-z
-x,-y,-z
1/2+x,1/2+y,-z
1/2-x,y,1/2+z
x,1/2-y,1/2+z
loop_
_atom_site_type_symbol
_atom_site_label
_atom_site_fract_x
_atom_site_fract_y
_atom_site_fract_z
Si Si1 0.127549 0.170576 0.546870
Si Si2 0.549370 0.427154 0.234595
Si Si3 0.837214 0.140905 0.029134
Si Si4 0.849067 0.165172 0.346724
Si Si5 0.011805 0.969658 0.894379
O O1 0.180500 0.424597 0.522097
O O2 0.030343 0.274964 0.557091
O O3 0.130418 0.908341 0.505543
O O4 0.150204 0.102789 0.613880
O O5 0.528569 0.745608 0.239014
O O6 0.627305 0.368109 0.278486
O O7 0.547030 0.347813 0.166616
O O8 0.750000 0.250000 0.059075
O O9 0.899636 0.966249 0.071339
O O10 0.750000 0.250000 0.351821
O O11 0.931801 0.333777 0.374803
#
# Coordination Sequence:
#
# PCOD9432401 Si02
#       5
#     8   8   8   8   8
#     4  12  24  45  64 100 137 177 228 287 340 410
#     4  10  22  44  66  95 131 173 219 280 339 406
#     4  12  28  42  67 100 140 182 232 282 347 412
#     4  11  25  43  73 106 136 181 232 290 349 416
#     4  11  25  44  73  97 140 184 230 283 351 410
#
# _framework density 22.954073000000001
#
# number of rings (size 3 to 8) (size 9 to 14) (size 15 to 20)
#    0.000    0.800    4.000    2.400    5.600    0.800 
#    0.000    0.000    0.000    0.000    0.000    0.000 
#    0.000    0.000    0.000    0.000    0.000    0.000 
#
# Total GULP energy -222683.921260 kJ/mol
# GULP energy per Si atom -5567.098031 kJ/mol
# Density = 2.290183 g / cm^3
# Si number density = 22.954073 Si / 1000 Ang^3
#
#
#
# Elastic Constant Matrix: (Units=GPa)
#
#
# Indices 1 2 3 4 5 6 
#
# 1 113.1705 34.5031 44.7485 0.0000 0.0000 0.0000
# 2 34.5031 98.4032 24.4320 0.0000 0.0000 0.0000
# 3 44.7485 24.4320 69.9788 0.0000 0.0000 0.0000
# 4 0.0000 0.0000 0.0000 28.1421 0.0000 0.0000
# 5 0.0000 0.0000 0.0000 0.0000 37.8946 0.0000
# 6 0.0000 0.0000 0.0000 0.0000 0.0000 2.7640
#
#
#
# Elastic Compliance Matrix: (Units=1/GPa)
#
#
# Indices 1 2 3 4 5 6 
#
# 1 0.012409 -0.002607 -0.007025 0.000000 0.000000 0.000000
# 2 -0.002607 0.011674 -0.002409 0.000000 0.000000 0.000000
# 3 -0.007025 -0.002409 0.019623 0.000000 0.000000 0.000000
# 4 0.000000 0.000000 0.000000 0.035534 0.000000 0.000000
# 5 0.000000 0.000000 0.000000 0.000000 0.026389 0.000000
# 6 0.000000 0.000000 0.000000 0.000000 0.000000 0.361795
#
#
# Mechanical properties :
#
#
# Convention : Reuss Voigt Hill
#
# Bulk Modulus (GPa) = 50.95486 54.32441 52.63963
# Shear Modulus (GPa) = 10.03922 25.61807 17.82865
#
# Velocity S-wave (km/s) = 2.09359 3.34437 2.78997
# Velocity P-wave (km/s) = 5.30009 6.21539 5.77590
#
# Compressibility (1/GPa) = 0.01962521
#
# Stress axis : x y z
#
# Youngs Moduli (GPa) = 80.58964 85.65762 50.96037
#
# Poissons Ratio (x) = 0.22328 0.35798
# Poissons Ratio (y) = 0.21007 0.12277
# Poissons Ratio (z) = 0.56611 0.20635
#
# Static dielectric constant tensor:
#      x y z
#    x 2.015680 0.000000 0.000000 
#    y 0.000000 1.938060 0.000000 
#    z 0.000000 0.000000 1.883900 
# 
# From -- ./inp_files/21055.got.cif
#   From: 2010.05.17/outbox.cif.g08.bks.cpg/sg56_11_cif.got.tgz:21055.got - 2010.06.03 13:42:01.
