data_PCOD9432790
_publ_section_title
;
Structure prediction by ZEFSAII (Michael W. Deem and Ramdas Pophale) SiO2 
 PCOD9432790
Probable space group: P C C N
;
_chemical_formula_sum "Si O2"
_cell_formula_units_Z 48
_cell_length_a 10.983536
_cell_length_b 7.690716
_cell_length_c 24.851220
_cell_angle_alpha 90.000000
_cell_angle_beta 90.000000
_cell_angle_gamma 90.000000
_cell_volume 2099.213768
_symmetry_space_group_name_H-M "P C C N"
_symmetry_group_IT_number 56
_symmetry_cell_setting 'orthorhombic'
loop_
_space_group_symop_operation_xyz
x,y,z
1/2-x,1/2-y,z
1/2+x,-y,1/2-z
-x,1/2+y,1/2-z
-x,-y,-z
1/2+x,1/2+y,-z
1/2-x,y,1/2+z
x,1/2-y,1/2+z
loop_
_atom_site_type_symbol
_atom_site_label
_atom_site_fract_x
_atom_site_fract_y
_atom_site_fract_z
Si Si1 0.050201 0.538411 0.831454
Si Si2 0.799843 0.436127 0.482571
Si Si3 0.442719 0.400415 0.552172
Si Si4 0.473112 0.504825 0.927269
Si Si5 0.884416 0.318054 0.759454
Si Si6 0.689985 0.938190 0.670251
O O1 0.056470 0.689703 0.785526
O O2 0.191685 0.544313 0.848994
O O3 0.980219 0.542919 0.887838
O O4 0.988490 0.373033 0.801489
O O5 0.750000 0.250000 0.501147
O O6 0.698639 0.555527 0.455813
O O7 0.861036 0.532649 0.532995
O O8 0.908428 0.393893 0.440913
O O9 0.500000 0.500000 0.500000
O O10 0.484063 0.199116 0.556266
O O11 0.422387 0.473979 0.868596
O O12 0.750000 0.250000 0.779176
O O13 0.845926 0.493345 0.728370
O O14 0.750000 0.750000 0.670748
#
# Coordination Sequence:
#
# PCOD9432790 Si02
#       6
#     8   8   8   8   8   8
#     4  11  24  44  74 105 146 189 245 302 367 438
#     4  11  25  42  67 103 147 190 238 297 365 435
#     4  12  24  44  73 106 147 194 240 304 369 439
#     4  11  25  46  69 103 147 191 246 295 365 448
#     4  10  23  47  70 107 145 190 249 306 372 433
#     4  11  24  43  74 103 138 191 247 302 366 436
#
# _framework density 22.865703
#
# number of rings (size 3 to 8) (size 9 to 14) (size 15 to 20)
#    0.000    1.000    3.333    2.500    2.333    3.333 
#    6.000    0.000    0.000    0.000    0.000    0.000 
#    0.000    0.000    0.000    0.000    0.000    0.000 
#
# Total GULP energy -267775.602899 kJ/mol
# GULP energy per Si atom -5578.658394 kJ/mol
# Density = 2.281366 g / cm^3
# Si number density = 22.865703 Si / 1000 Ang^3
#
#
#
# Elastic Constant Matrix: (Units=GPa)
#
#
# Indices 1 2 3 4 5 6 
#
# 1 117.9575 9.6716 28.1134 0.0000 0.0000 0.0000
# 2 9.6716 79.7155 19.1733 0.0000 0.0000 0.0000
# 3 28.1134 19.1733 60.3200 0.0000 0.0000 0.0000
# 4 0.0000 0.0000 0.0000 25.1165 0.0000 0.0000
# 5 0.0000 0.0000 0.0000 0.0000 41.4894 0.0000
# 6 0.0000 0.0000 0.0000 0.0000 0.0000 31.0035
#
#
#
# Elastic Compliance Matrix: (Units=1/GPa)
#
#
# Indices 1 2 3 4 5 6 
#
# 1 0.009538 -0.000095 -0.004415 0.000000 0.000000 0.000000
# 2 -0.000095 0.013584 -0.004273 0.000000 0.000000 0.000000
# 3 -0.004415 -0.004273 0.019994 0.000000 0.000000 0.000000
# 4 0.000000 0.000000 0.000000 0.039814 0.000000 0.000000
# 5 0.000000 0.000000 0.000000 0.000000 0.024103 0.000000
# 6 0.000000 0.000000 0.000000 0.000000 0.000000 0.032254
#
#
# Mechanical properties :
#
#
# Convention : Reuss Voigt Hill
#
# Bulk Modulus (GPa) = 39.14096 41.32331 40.23213
# Shear Modulus (GPa) = 30.23506 32.92419 31.57963
#
# Velocity S-wave (km/s) = 3.64027 3.79871 3.72034
# Velocity P-wave (km/s) = 5.90116 6.11160 6.00730
#
# Compressibility (1/GPa) = 0.02554869
#
# Stress axis : x y z
#
# Youngs Moduli (GPa) = 104.84728 73.61591 50.01429
#
# Poissons Ratio (x) = 0.00701 0.22081
# Poissons Ratio (y) = 0.00999 0.21373
# Poissons Ratio (z) = 0.46290 0.31459
#
# Static dielectric constant tensor:
#      x y z
#    x 1.944070 0.000000 0.000000 
#    y 0.000000 2.095610 0.000000 
#    z 0.000000 0.000000 1.901000 
# 
# From -- ./inp_files/20886.got.cif
#   From: 2010.05.17/outbox.cif.g08.bks.cpg/sg56_11_cif.got.tgz:20886.got - 2010.06.03 13:42:01.
