data_PCOD9432244
_publ_section_title
;
Structure prediction by ZEFSAII (Michael W. Deem and Ramdas Pophale) SiO2 
 PCOD9432244
Probable space group: P C C N
;
_chemical_formula_sum "Si O2"
_cell_formula_units_Z 56
_cell_length_a 15.920627
_cell_length_b 13.766737
_cell_length_c 11.057940
_cell_angle_alpha 90.000000
_cell_angle_beta 90.000000
_cell_angle_gamma 90.000000
_cell_volume 2423.624937
_symmetry_space_group_name_H-M "P C C N"
_symmetry_group_IT_number 56
_symmetry_cell_setting 'orthorhombic'
loop_
_space_group_symop_operation_xyz
x,y,z
1/2-x,1/2-y,z
1/2+x,-y,1/2-z
-x,1/2+y,1/2-z
-x,-y,-z
1/2+x,1/2+y,-z
1/2-x,y,1/2+z
x,1/2-y,1/2+z
loop_
_atom_site_type_symbol
_atom_site_label
_atom_site_fract_x
_atom_site_fract_y
_atom_site_fract_z
Si Si1 0.686188 0.338312 0.313083
Si Si2 0.677881 0.014827 0.369461
Si Si3 0.721778 0.649420 0.267285
Si Si4 0.054695 0.294184 0.111471
Si Si5 0.003070 0.193054 0.362706
Si Si6 0.620778 0.487792 0.130341
Si Si7 0.036297 0.522399 0.802255
O O1 0.750000 0.250000 0.299075
O O2 0.737442 0.422461 0.383673
O O3 0.598035 0.309078 0.373072
O O4 0.658171 0.389416 0.188347
O O5 0.703653 0.905719 0.335377
O O6 0.622210 0.019126 0.488011
O O7 0.624058 0.052406 0.256474
O O8 0.750000 0.750000 0.209569
O O9 0.649966 0.674799 0.364368
O O10 0.682402 0.574282 0.172827
O O11 0.026856 0.235822 0.231378
O O12 0.998349 0.391850 0.115699
O O13 0.040070 0.250360 0.978653
O O14 0.039460 0.083306 0.362567
O O15 0.532751 0.508279 0.195631
#
# Coordination Sequence:
#
# PCOD9432244 Si02
#       7
#     8   8   8   8   8   8   8
#     4  10  23  40  59  91 125 162 208 260 313 366
#     4  11  22  38  64  95 124 162 209 263 309 362
#     4  10  23  40  59  91 125 162 208 260 313 366
#     4  11  25  44  66  92 125 169 212 254 311 378
#     4  11  25  44  66  92 125 169 212 254 311 378
#     4   9  22  40  61  90 127 166 210 252 308 376
#     4  10  22  42  64  89 126 166 206 251 313 378
#
# _framework density 23.105886999999999
#
# number of rings (size 3 to 8) (size 9 to 14) (size 15 to 20)
#    0.000    1.714    0.000    3.429    0.000   17.143 
#    0.000    0.000    0.000    0.000    0.000    0.000 
#    0.000    0.000    0.000    0.000    0.000    0.000 
#
# Total GULP energy -313272.103560 kJ/mol
# GULP energy per Si atom -5594.144706 kJ/mol
# Density = 2.305330 g / cm^3
# Si number density = 23.105887 Si / 1000 Ang^3
#
#
#
# Elastic Constant Matrix: (Units=GPa)
#
#
# Indices 1 2 3 4 5 6 
#
# 1 50.5974 -20.6927 9.3312 0.0000 0.0000 0.0000
# 2 -20.6927 73.4508 7.1543 0.0000 0.0000 0.0000
# 3 9.3312 7.1543 101.9186 0.0000 0.0000 0.0000
# 4 0.0000 0.0000 0.0000 6.2261 0.0000 0.0000
# 5 0.0000 0.0000 0.0000 0.0000 12.5366 0.0000
# 6 0.0000 0.0000 0.0000 0.0000 0.0000 12.4535
#
#
#
# Elastic Compliance Matrix: (Units=1/GPa)
#
#
# Indices 1 2 3 4 5 6 
#
# 1 0.022991 0.006728 -0.002577 0.000000 0.000000 0.000000
# 2 0.006728 0.015677 -0.001716 0.000000 0.000000 0.000000
# 3 -0.002577 -0.001716 0.010168 0.000000 0.000000 0.000000
# 4 0.000000 0.000000 0.000000 0.160614 0.000000 0.000000
# 5 0.000000 0.000000 0.000000 0.000000 0.079766 0.000000
# 6 0.000000 0.000000 0.000000 0.000000 0.000000 0.080299
#
#
# Mechanical properties :
#
#
# Convention : Reuss Voigt Hill
#
# Bulk Modulus (GPa) = 18.62032 24.17248 21.39640
# Shear Modulus (GPa) = 13.07024 21.58817 17.32920
#
# Velocity S-wave (km/s) = 2.38096 3.05997 2.74157
# Velocity P-wave (km/s) = 3.95408 4.79259 4.39339
#
# Compressibility (1/GPa) = 0.05370477
#
# Stress axis : x y z
#
# Youngs Moduli (GPa) = 43.49584 63.78696 98.34577
#
# Poissons Ratio (x) = -0.42916 0.25346
# Poissons Ratio (y) = -0.29264 0.16881
# Poissons Ratio (z) = 0.11210 0.10949
#
# Static dielectric constant tensor:
#      x y z
#    x 1.846880 0.000000 0.000000 
#    y 0.000000 1.888430 0.000000 
#    z 0.000000 0.000000 1.843470 
# 
# From -- ./inp_files/7889.got.cif
#   From: 2010.05.17/outbox.cif.g08.bks.cpg/sg56_4_cif.got.tgz:7889.got - 2010.06.03 13:42:01.
