data_PCOD9432110
_publ_section_title
;
Structure prediction by ZEFSAII (Michael W. Deem and Ramdas Pophale) SiO2 
 PCOD9432110
Probable space group: P C C N
;
_chemical_formula_sum "Si O2"
_cell_formula_units_Z 64
_cell_length_a 17.554615
_cell_length_b 15.309704
_cell_length_c 12.378549
_cell_angle_alpha 90.000000
_cell_angle_beta 90.000000
_cell_angle_gamma 90.000000
_cell_volume 3326.808814
_symmetry_space_group_name_H-M "P C C N"
_symmetry_group_IT_number 56
_symmetry_cell_setting 'orthorhombic'
loop_
_space_group_symop_operation_xyz
x,y,z
1/2-x,1/2-y,z
1/2+x,-y,1/2-z
-x,1/2+y,1/2-z
-x,-y,-z
1/2+x,1/2+y,-z
1/2-x,y,1/2+z
x,1/2-y,1/2+z
loop_
_atom_site_type_symbol
_atom_site_label
_atom_site_fract_x
_atom_site_fract_y
_atom_site_fract_z
Si Si1 0.238616 0.038630 0.301253
Si Si2 0.016295 0.406724 0.446688
Si Si3 0.141129 0.595554 0.676490
Si Si4 0.782976 0.118331 0.051612
Si Si5 0.963192 0.770386 0.424878
Si Si6 0.681919 0.801847 0.064967
Si Si7 0.131662 0.343001 0.272888
Si Si8 0.135928 0.791538 0.385193
O O1 0.208016 0.105279 0.391522
O O2 0.300407 0.093830 0.231622
O O3 0.169639 0.992895 0.236185
O O4 0.280661 0.962075 0.366716
O O5 0.027409 0.331278 0.537847
O O6 0.087740 0.397087 0.366332
O O7 0.000000 0.500000 0.500000
O O8 0.943758 0.394563 0.368892
O O9 0.191278 0.600056 0.569163
O O10 0.149385 0.672659 0.764214
O O11 0.697468 0.155559 0.045745
O O12 0.838770 0.191646 0.101148
O O13 0.899134 0.806664 0.506282
O O14 0.926521 0.800343 0.311593
O O15 0.049633 0.805203 0.423493
O O16 0.750000 0.750000 0.001590
O O17 0.668636 0.738846 0.166857
#
# Coordination Sequence:
#
# PCOD9432110 Si02
#       8
#     8   8   8   8   8   8   8   8
#     4  10  23  41  62  96 125 165 221 257 323 392
#     4  11  23  40  66  94 126 166 220 269 320 385
#     4  11  22  41  66  89 126 170 206 275 324 383
#     4  10  22  40  65  90 127 164 214 272 315 391
#     4  11  22  41  67  91 128 173 210 270 324 386
#     4   9  22  42  62  91 130 166 214 262 314 393
#     4  10  22  41  62  95 127 170 217 259 322 387
#     4  10  22  41  61  95 123 163 220 258 326 393
#
# _framework density 19.237655
#
# number of rings (size 3 to 8) (size 9 to 14) (size 15 to 20)
#    0.000    1.750    2.500    0.750    3.500    5.500 
#    0.000    3.750    0.000    0.000    0.000    0.000 
#    0.000    0.000    0.000    0.000    0.000    0.000 
#
# Total GULP energy -356544.837857 kJ/mol
# GULP energy per Si atom -5571.013092 kJ/mol
# Density = 1.919387 g / cm^3
# Si number density = 19.237655 Si / 1000 Ang^3
#
#
#
# Elastic Constant Matrix: (Units=GPa)
#
#
# Indices 1 2 3 4 5 6 
#
# 1 115.9663 8.7551 9.4546 0.0000 0.0000 0.0000
# 2 8.7551 53.2746 10.4914 0.0000 0.0000 0.0000
# 3 9.4546 10.4914 34.1034 0.0000 0.0000 0.0000
# 4 0.0000 0.0000 0.0000 15.7272 0.0000 0.0000
# 5 0.0000 0.0000 0.0000 0.0000 10.6664 0.0000
# 6 0.0000 0.0000 0.0000 0.0000 0.0000 20.3055
#
#
#
# Elastic Compliance Matrix: (Units=1/GPa)
#
#
# Indices 1 2 3 4 5 6 
#
# 1 0.008876 -0.001037 -0.002142 0.000000 0.000000 0.000000
# 2 -0.001037 0.020102 -0.005897 0.000000 0.000000 0.000000
# 3 -0.002142 -0.005897 0.031730 0.000000 0.000000 0.000000
# 4 0.000000 0.000000 0.000000 0.063584 0.000000 0.000000
# 5 0.000000 0.000000 0.000000 0.000000 0.093752 0.000000
# 6 0.000000 0.000000 0.000000 0.000000 0.000000 0.049248
#
#
# Mechanical properties :
#
#
# Convention : Reuss Voigt Hill
#
# Bulk Modulus (GPa) = 23.49733 28.97184 26.23458
# Shear Modulus (GPa) = 16.68726 20.98270 18.83498
#
# Velocity S-wave (km/s) = 2.94841 3.30617 3.13240
# Velocity P-wave (km/s) = 4.88176 5.44674 5.17197
#
# Compressibility (1/GPa) = 0.04255803
#
# Stress axis : x y z
#
# Youngs Moduli (GPa) = 112.66212 49.74553 31.51552
#
# Poissons Ratio (x) = 0.05158 0.06750
# Poissons Ratio (y) = 0.11682 0.18584
# Poissons Ratio (z) = 0.24129 0.29333
#
# Static dielectric constant tensor:
#      x y z
#    x 1.740590 0.000000 0.000000 
#    y 0.000000 1.681020 0.000000 
#    z 0.000000 0.000000 1.708220 
# 
# From -- ./inp_files/8431.got.cif
#   From: 2010.05.17/outbox.cif.g08.bks.cpg/sg56_5_cif.got.tgz:8431.got - 2010.06.03 13:42:01.
