data_PCOD9432633
_publ_section_title
;
Structure prediction by ZEFSAII (Michael W. Deem and Ramdas Pophale) SiO2 
 PCOD9432633
Probable space group: P C C N
;
_chemical_formula_sum "Si O2"
_cell_formula_units_Z 40
_cell_length_a 9.860474
_cell_length_b 15.924222
_cell_length_c 12.023005
_cell_angle_alpha 90.000000
_cell_angle_beta 90.000000
_cell_angle_gamma 90.000000
_cell_volume 1887.856778
_symmetry_space_group_name_H-M "P C C N"
_symmetry_group_IT_number 56
_symmetry_cell_setting 'orthorhombic'
loop_
_space_group_symop_operation_xyz
x,y,z
1/2-x,1/2-y,z
1/2+x,-y,1/2-z
-x,1/2+y,1/2-z
-x,-y,-z
1/2+x,1/2+y,-z
1/2-x,y,1/2+z
x,1/2-y,1/2+z
loop_
_atom_site_type_symbol
_atom_site_label
_atom_site_fract_x
_atom_site_fract_y
_atom_site_fract_z
Si Si1 0.940613 0.123747 0.761417
Si Si2 0.463611 0.752838 0.534214
Si Si3 0.859285 0.988616 0.936956
Si Si4 0.186076 0.331549 0.116371
Si Si5 0.755352 0.134657 0.554762
O O1 0.970302 0.196018 0.851984
O O2 0.886225 0.041287 0.824394
O O3 0.826566 0.147410 0.671936
O O4 0.079459 0.116985 0.691502
O O5 0.598147 0.710950 0.483712
O O6 0.390408 0.819943 0.451055
O O7 0.351223 0.679554 0.536427
O O8 0.802287 0.895967 0.920250
O O9 0.756097 0.039411 0.016132
O O10 0.000000 0.000000 0.000000
O O11 0.250000 0.250000 0.175985
#
# Coordination Sequence:
#
# PCOD9432633 Si02
#       5
#     8   8   8   8   8
#     4  10  23  42  68  98 129 182 223 275 340 404
#     4   9  20  40  66  98 132 173 218 286 324 398
#     4  11  25  43  65  94 140 174 220 287 334 396
#     4  11  24  43  65 100 134 176 228 278 345 402
#     4   9  20  40  67  93 132 176 229 264 335 403
#
# _framework density 21.188047000000001
#
# number of rings (size 3 to 8) (size 9 to 14) (size 15 to 20)
#    0.000    2.000    0.000    2.400    2.800   18.400 
#    3.600    0.000    0.000    0.000    0.000    0.000 
#    0.000    0.000    0.000    0.000    0.000    0.000 
#
# Total GULP energy -223118.031158 kJ/mol
# GULP energy per Si atom -5577.950779 kJ/mol
# Density = 2.113982 g / cm^3
# Si number density = 21.188047 Si / 1000 Ang^3
#
#
#
# Elastic Constant Matrix: (Units=GPa)
#
#
# Indices 1 2 3 4 5 6 
#
# 1 114.4350 47.3600 40.4360 0.0000 0.0000 0.0000
# 2 47.3600 127.8024 31.4947 0.0000 0.0000 0.0000
# 3 40.4360 31.4947 69.1161 0.0000 0.0000 0.0000
# 4 0.0000 0.0000 0.0000 2.3930 0.0000 0.0000
# 5 0.0000 0.0000 0.0000 0.0000 22.5272 0.0000
# 6 0.0000 0.0000 0.0000 0.0000 0.0000 39.3275
#
#
#
# Elastic Compliance Matrix: (Units=1/GPa)
#
#
# Indices 1 2 3 4 5 6 
#
# 1 0.011991 -0.003058 -0.005622 0.000000 0.000000 0.000000
# 2 -0.003058 0.009594 -0.002583 0.000000 0.000000 0.000000
# 3 -0.005622 -0.002583 0.018934 0.000000 0.000000 0.000000
# 4 0.000000 0.000000 0.000000 0.417888 0.000000 0.000000
# 5 0.000000 0.000000 0.000000 0.000000 0.044391 0.000000
# 6 0.000000 0.000000 0.000000 0.000000 0.000000 0.025428
#
#
# Mechanical properties :
#
#
# Convention : Reuss Voigt Hill
#
# Bulk Modulus (GPa) = 55.57325 61.10388 58.33857
# Shear Modulus (GPa) = 8.98072 25.65371 17.31722
#
# Velocity S-wave (km/s) = 2.06101 3.48338 2.86197
# Velocity P-wave (km/s) = 5.65237 6.71416 6.20602
#
# Compressibility (1/GPa) = 0.01799427
#
# Stress axis : x y z
#
# Youngs Moduli (GPa) = 83.39882 104.22864 52.81447
#
# Poissons Ratio (x) = 0.31874 0.29690
# Poissons Ratio (y) = 0.25504 0.13641
# Poissons Ratio (z) = 0.46883 0.26920
#
# Static dielectric constant tensor:
#      x y z
#    x 1.809650 0.000000 0.000000 
#    y 0.000000 1.828590 0.000000 
#    z 0.000000 0.000000 1.789800 
# 
# From -- ./inp_files/6182.got.cif
#   From: 2010.05.17/outbox.cif.g08.bks.cpg/sg56_4_cif.got.tgz:6182.got - 2010.06.03 13:42:01.
