data_PCOD9432339
_publ_section_title
;
Structure prediction by ZEFSAII (Michael W. Deem and Ramdas Pophale) SiO2 
 PCOD9432339
Probable space group: P C C N
;
_chemical_formula_sum "Si O2"
_cell_formula_units_Z 60
_cell_length_a 16.877314
_cell_length_b 9.082101
_cell_length_c 15.238777
_cell_angle_alpha 90.000000
_cell_angle_beta 90.000000
_cell_angle_gamma 90.000000
_cell_volume 2335.822145
_symmetry_space_group_name_H-M "P C C N"
_symmetry_group_IT_number 56
_symmetry_cell_setting 'orthorhombic'
loop_
_space_group_symop_operation_xyz
x,y,z
1/2-x,1/2-y,z
1/2+x,-y,1/2-z
-x,1/2+y,1/2-z
-x,-y,-z
1/2+x,1/2+y,-z
1/2-x,y,1/2+z
x,1/2-y,1/2+z
loop_
_atom_site_type_symbol
_atom_site_label
_atom_site_fract_x
_atom_site_fract_y
_atom_site_fract_z
Si Si1 0.104807 0.857683 0.242151
Si Si2 0.994271 0.401867 0.779171
Si Si3 0.659633 0.206906 0.063916
Si Si4 0.904261 0.531355 0.933502
Si Si5 0.750000 0.250000 0.287576
Si Si6 0.064423 0.982422 0.897851
Si Si7 0.900654 0.861614 0.950372
Si Si8 0.248457 0.087821 0.179556
O O1 0.151147 0.808895 0.330571
O O2 0.161525 0.775177 0.170779
O O3 0.021178 0.770556 0.235556
O O4 0.079151 0.026326 0.257014
O O5 0.969007 0.447448 0.875685
O O6 0.932856 0.466747 0.706325
O O7 0.750000 0.250000 0.041718
O O8 0.604612 0.347116 0.051075
O O9 0.625569 0.065283 0.014960
O O10 0.934473 0.697151 0.945291
O O11 0.826082 0.566612 0.878086
O O12 0.749486 0.432613 0.266946
O O13 0.107875 0.115546 0.945103
O O14 0.970736 0.969324 0.917367
O O15 0.823825 0.897265 0.891790
O O16 0.250000 0.250000 0.224730
#
# Coordination Sequence:
#
# PCOD9432339 Si02
#       8
#     8   8   8   8   4   8   8   8
#     4  11  25  44  70 101 146 185 253 303 380 452
#     4  11  24  43  66 103 139 182 237 311 364 453
#     4  11  24  42  67  98 138 186 242 307 354 456
#     4  11  23  40  67  99 137 184 240 301 376 442
#     4  12  22  44  74 106 140 208 244 300 396 444
#     4  10  23  41  66  94 137 183 229 299 373 444
#     4  10  22  43  64  97 138 180 238 301 374 446
#     4  10  23  41  68 106 142 182 246 308 361 460
#
# _framework density 25.686886999999999
#
# number of rings (size 3 to 8) (size 9 to 14) (size 15 to 20)
#    0.000    1.333    2.000    3.200    2.800    6.400 
#    0.000    0.000    0.000    4.000    0.000    0.000 
#    0.000    0.000    0.000    0.000    0.000    0.000 
#
# Total GULP energy -334008.142176 kJ/mol
# GULP energy per Si atom -5566.802370 kJ/mol
# Density = 2.562842 g / cm^3
# Si number density = 25.686887 Si / 1000 Ang^3
#
#
#
# Elastic Constant Matrix: (Units=GPa)
#
#
# Indices 1 2 3 4 5 6 
#
# 1 109.2865 23.8521 9.4222 0.0000 0.0000 0.0000
# 2 23.8521 143.4411 22.6785 0.0000 0.0000 0.0000
# 3 9.4222 22.6785 39.7179 0.0000 0.0000 0.0000
# 4 0.0000 0.0000 0.0000 20.5420 0.0000 0.0000
# 5 0.0000 0.0000 0.0000 0.0000 19.9033 0.0000
# 6 0.0000 0.0000 0.0000 0.0000 0.0000 44.8280
#
#
#
# Elastic Compliance Matrix: (Units=1/GPa)
#
#
# Indices 1 2 3 4 5 6 
#
# 1 0.009575 -0.001355 -0.001498 0.000000 0.000000 0.000000
# 2 -0.001355 0.007855 -0.004164 0.000000 0.000000 0.000000
# 3 -0.001498 -0.004164 0.027910 0.000000 0.000000 0.000000
# 4 0.000000 0.000000 0.000000 0.048681 0.000000 0.000000
# 5 0.000000 0.000000 0.000000 0.000000 0.050243 0.000000
# 6 0.000000 0.000000 0.000000 0.000000 0.000000 0.022307
#
#
# Mechanical properties :
#
#
# Convention : Reuss Voigt Hill
#
# Bulk Modulus (GPa) = 31.94145 44.92790 38.43467
# Shear Modulus (GPa) = 26.17241 32.82084 29.49663
#
# Velocity S-wave (km/s) = 3.19549 3.57841 3.39236
# Velocity P-wave (km/s) = 5.10654 5.88234 5.50812
#
# Compressibility (1/GPa) = 0.03130728
#
# Stress axis : x y z
#
# Youngs Moduli (GPa) = 104.43639 127.30445 35.82908
#
# Poissons Ratio (x) = 0.17255 0.05366
# Poissons Ratio (y) = 0.14156 0.14918
# Poissons Ratio (z) = 0.15640 0.53006
#
# Static dielectric constant tensor:
#      x y z
#    x 2.423630 0.000000 0.000000 
#    y 0.000000 2.145690 0.000000 
#    z 0.000000 0.000000 2.230000 
# 
# From -- ./inp_files/16665.got.cif
#   From: 2010.05.17/outbox.cif.g08.bks.cpg/sg56_9_cif.got.tgz:16665.got - 2010.06.03 13:42:01.
