data_PCOD9432974
_publ_section_title
;
Structure prediction by ZEFSAII (Michael W. Deem and Ramdas Pophale) SiO2 
 PCOD9432974
Probable space group: P C C N
;
_chemical_formula_sum "Si O2"
_cell_formula_units_Z 40
_cell_length_a 14.634476
_cell_length_b 11.927231
_cell_length_c 10.644464
_cell_angle_alpha 90.000000
_cell_angle_beta 90.000000
_cell_angle_gamma 90.000000
_cell_volume 1857.978160
_symmetry_space_group_name_H-M "P C C N"
_symmetry_group_IT_number 56
_symmetry_cell_setting 'orthorhombic'
loop_
_space_group_symop_operation_xyz
x,y,z
1/2-x,1/2-y,z
1/2+x,-y,1/2-z
-x,1/2+y,1/2-z
-x,-y,-z
1/2+x,1/2+y,-z
1/2-x,y,1/2+z
x,1/2-y,1/2+z
loop_
_atom_site_type_symbol
_atom_site_label
_atom_site_fract_x
_atom_site_fract_y
_atom_site_fract_z
Si Si1 0.068898 0.091874 0.943114
Si Si2 0.235708 0.485270 0.007732
Si Si3 0.948425 0.852375 0.540033
Si Si4 0.977877 0.454981 0.206192
Si Si5 0.720894 0.379395 0.750969
O O1 0.041714 0.220367 0.958801
O O2 0.063589 0.068801 0.794178
O O3 0.167570 0.076876 0.003573
O O4 0.000000 0.000000 0.000000
O O5 0.152875 0.398112 0.992477
O O6 0.238052 0.565893 0.885520
O O7 0.229184 0.556734 0.134983
O O8 0.012925 0.897915 0.429542
O O9 0.970019 0.913529 0.672321
O O10 0.887648 0.403133 0.269912
O O11 0.750000 0.250000 0.751444
#
# Coordination Sequence:
#
# PCOD9432974 Si02
#       5
#     8   8   8   8   8
#     4  12  25  41  71 100 132 178 238 277 345 417
#     4  11  24  45  65 102 134 186 231 284 354 409
#     4  10  25  45  69  96 143 180 225 293 345 414
#     4  10  24  45  67 101 135 183 231 284 356 405
#     4  11  24  41  69  98 141 179 233 289 347 414
#
# _framework density 21.528777999999999
#
# number of rings (size 3 to 8) (size 9 to 14) (size 15 to 20)
#    0.000    1.200    2.000    2.400    5.600    4.800 
#    0.000    4.000    0.000    0.000    0.000    0.000 
#    0.000    0.000    0.000    0.000    0.000    0.000 
#
# Total GULP energy -223588.456852 kJ/mol
# GULP energy per Si atom -5589.711421 kJ/mol
# Density = 2.147978 g / cm^3
# Si number density = 21.528778 Si / 1000 Ang^3
#
#
#
# Elastic Constant Matrix: (Units=GPa)
#
#
# Indices 1 2 3 4 5 6 
#
# 1 40.9413 27.0840 4.7262 0.0000 0.0000 0.0000
# 2 27.0840 180.6858 44.9649 0.0000 0.0000 0.0000
# 3 4.7262 44.9649 99.2211 0.0000 0.0000 0.0000
# 4 0.0000 0.0000 0.0000 16.7682 0.0000 0.0000
# 5 0.0000 0.0000 0.0000 0.0000 37.3139 0.0000
# 6 0.0000 0.0000 0.0000 0.0000 0.0000 16.2849
#
#
#
# Elastic Compliance Matrix: (Units=1/GPa)
#
#
# Indices 1 2 3 4 5 6 
#
# 1 0.027148 -0.004224 0.000621 0.000000 0.000000 0.000000
# 2 -0.004224 0.006895 -0.002924 0.000000 0.000000 0.000000
# 3 0.000621 -0.002924 0.011374 0.000000 0.000000 0.000000
# 4 0.000000 0.000000 0.000000 0.059637 0.000000 0.000000
# 5 0.000000 0.000000 0.000000 0.000000 0.026800 0.000000
# 6 0.000000 0.000000 0.000000 0.000000 0.000000 0.061407
#
#
# Mechanical properties :
#
#
# Convention : Reuss Voigt Hill
#
# Bulk Modulus (GPa) = 30.89857 52.71095 41.80476
# Shear Modulus (GPa) = 23.03080 30.34493 26.68787
#
# Velocity S-wave (km/s) = 3.27428 3.75841 3.52467
# Velocity P-wave (km/s) = 5.35518 6.58569 6.00205
#
# Compressibility (1/GPa) = 0.03236395
#
# Stress axis : x y z
#
# Youngs Moduli (GPa) = 36.83546 145.02940 87.92135
#
# Poissons Ratio (x) = 0.61259 -0.05460
# Poissons Ratio (y) = 0.15559 0.25704
# Poissons Ratio (z) = -0.02288 0.42400
#
# Static dielectric constant tensor:
#      x y z
#    x 1.837600 0.000000 0.000000 
#    y 0.000000 1.750680 0.000000 
#    z 0.000000 0.000000 1.810930 
# 
# From -- ./inp_files/7000.got.cif
#   From: 2010.05.17/outbox.cif.g08.bks.cpg/sg56_4_cif.got.tgz:7000.got - 2010.06.03 13:42:01.
