data_PCOD9432972
_publ_section_title
;
Structure prediction by ZEFSAII (Michael W. Deem and Ramdas Pophale) SiO2 
 PCOD9432972
Probable space group: P C C N
;
_chemical_formula_sum "Si O2"
_cell_formula_units_Z 20
_cell_length_a 7.490185
_cell_length_b 5.145961
_cell_length_c 20.234766
_cell_angle_alpha 90.000000
_cell_angle_beta 90.000000
_cell_angle_gamma 90.000000
_cell_volume 779.932865
_symmetry_space_group_name_H-M "P C C N"
_symmetry_group_IT_number 56
_symmetry_cell_setting 'orthorhombic'
loop_
_space_group_symop_operation_xyz
x,y,z
1/2-x,1/2-y,z
1/2+x,-y,1/2-z
-x,1/2+y,1/2-z
-x,-y,-z
1/2+x,1/2+y,-z
1/2-x,y,1/2+z
x,1/2-y,1/2+z
loop_
_atom_site_type_symbol
_atom_site_label
_atom_site_fract_x
_atom_site_fract_y
_atom_site_fract_z
Si Si1 0.750000 0.750000 0.482102
Si Si2 0.577481 0.126155 0.589347
Si Si3 0.546324 0.677736 0.210349
O O1 0.825192 0.525391 0.529516
O O2 0.576511 0.685429 0.437891
O O3 0.750000 0.250000 0.624762
O O4 0.480623 0.933270 0.640332
O O5 0.750000 0.750000 0.199308
O O6 0.541263 0.437960 0.261632
#
# Coordination Sequence:
#
# PCOD9432972 Si02
#       3
#     4   8   8
#     4  10  24  44  78 112 150 204 254 312 406 454
#     4  11  23  47  73 113 156 199 258 325 382 468
#     4  12  27  50  77 111 154 206 260 321 386 458
#
# _framework density 25.643234
#
# number of rings (size 3 to 8) (size 9 to 14) (size 15 to 20)
#    0.000    0.800    2.000    4.800    2.800    0.000 
#    7.200    0.000    0.000    0.000    0.000    0.000 
#    0.000    0.000    0.000    0.000    0.000    0.000 
#
# Total GULP energy -111927.839202 kJ/mol
# GULP energy per Si atom -5596.391960 kJ/mol
# Density = 2.558487 g / cm^3
# Si number density = 25.643234 Si / 1000 Ang^3
#
#
#
# Elastic Constant Matrix: (Units=GPa)
#
#
# Indices 1 2 3 4 5 6 
#
# 1 94.0519 17.4169 27.6066 0.0000 0.0000 0.0000
# 2 17.4169 113.4562 32.4783 0.0000 0.0000 0.0000
# 3 27.6066 32.4783 73.4091 0.0000 0.0000 0.0000
# 4 0.0000 0.0000 0.0000 54.2702 0.0000 0.0000
# 5 0.0000 0.0000 0.0000 0.0000 22.6446 0.0000
# 6 0.0000 0.0000 0.0000 0.0000 0.0000 48.8585
#
#
#
# Elastic Compliance Matrix: (Units=1/GPa)
#
#
# Indices 1 2 3 4 5 6 
#
# 1 0.011991 -0.000630 -0.004231 0.000000 0.000000 0.000000
# 2 -0.000630 0.010125 -0.004243 0.000000 0.000000 0.000000
# 3 -0.004231 -0.004243 0.017091 0.000000 0.000000 0.000000
# 4 0.000000 0.000000 0.000000 0.018426 0.000000 0.000000
# 5 0.000000 0.000000 0.000000 0.000000 0.044161 0.000000
# 6 0.000000 0.000000 0.000000 0.000000 0.000000 0.020467
#
#
# Mechanical properties :
#
#
# Convention : Reuss Voigt Hill
#
# Bulk Modulus (GPa) = 47.61909 48.43564 48.02736
# Shear Modulus (GPa) = 33.90579 38.71569 36.31074
#
# Velocity S-wave (km/s) = 3.64017 3.88981 3.76706
# Velocity P-wave (km/s) = 6.02312 6.25327 6.13927
#
# Compressibility (1/GPa) = 0.02099998
#
# Stress axis : x y z
#
# Youngs Moduli (GPa) = 83.39688 98.76331 58.51195
#
# Poissons Ratio (x) = 0.06218 0.24755
# Poissons Ratio (y) = 0.05251 0.24826
# Poissons Ratio (z) = 0.35283 0.41904
#
# Static dielectric constant tensor:
#      x y z
#    x 2.016910 0.000000 0.000000 
#    y 0.000000 2.116630 0.000000 
#    z 0.000000 0.000000 2.100210 
# 
# From -- ./inp_files/14214.got.cif
#   From: 2010.05.17/outbox.cif.g08.bks.cpg/sg56_8_cif.got.tgz:14214.got - 2010.06.03 13:42:01.
