data_PCOD9432314
_publ_section_title
;
Structure prediction by ZEFSAII (Michael W. Deem and Ramdas Pophale) SiO2 
 PCOD9432314
Probable space group: P C C N
;
_chemical_formula_sum "Si O2"
_cell_formula_units_Z 56
_cell_length_a 6.625160
_cell_length_b 12.543802
_cell_length_c 31.009243
_cell_angle_alpha 90.000000
_cell_angle_beta 90.000000
_cell_angle_gamma 90.000000
_cell_volume 2577.013690
_symmetry_space_group_name_H-M "P C C N"
_symmetry_group_IT_number 56
_symmetry_cell_setting 'orthorhombic'
loop_
_space_group_symop_operation_xyz
x,y,z
1/2-x,1/2-y,z
1/2+x,-y,1/2-z
-x,1/2+y,1/2-z
-x,-y,-z
1/2+x,1/2+y,-z
1/2-x,y,1/2+z
x,1/2-y,1/2+z
loop_
_atom_site_type_symbol
_atom_site_label
_atom_site_fract_x
_atom_site_fract_y
_atom_site_fract_z
Si Si1 0.793059 0.921831 0.303822
Si Si2 0.750000 0.750000 0.025133
Si Si3 0.250000 0.750000 0.175080
Si Si4 0.500003 0.170300 0.551361
Si Si5 0.590593 0.871632 0.898662
Si Si6 0.260820 0.478035 0.428983
Si Si7 0.964497 0.922096 0.155153
Si Si8 0.411829 0.107771 0.782439
O O1 0.865501 0.864135 0.347575
O O2 0.688097 0.865915 0.263316
O O3 0.612506 0.998551 0.319945
O O4 0.981197 0.991234 0.285381
O O5 0.780691 0.639038 0.050618
O O6 0.561663 0.724695 0.993620
O O7 0.393281 0.677880 0.146311
O O8 0.406172 0.814745 0.204718
O O9 0.293937 0.125264 0.573014
O O10 0.965096 0.230768 0.584347
O O11 0.659600 0.075454 0.544200
O O12 0.469258 0.977925 0.909834
O O13 0.113513 0.470953 0.388407
O O14 0.770342 0.890793 0.183389
#
# Coordination Sequence:
#
# PCOD9432314 Si02
#       8
#     8   4   4   8   8   8   8   8
#     4  11  21  40  66  97 128 185 229 287 349 405
#     4  10  26  42  74 104 136 178 236 282 364 440
#     4  10  26  42  60  92 138 188 226 294 340 418
#     4  10  24  48  64 103 144 173 229 296 350 434
#     4  10  22  42  71  99 136 183 230 285 349 422
#     4  12  23  44  74 101 135 188 226 293 357 424
#     4  11  23  40  65  94 135 177 229 288 345 410
#     4  11  22  41  63  94 137 176 238 291 345 410
#
# _framework density 21.73058
#
# number of rings (size 3 to 8) (size 9 to 14) (size 15 to 20)
#    0.000    1.429    4.286    1.286    2.000    2.286 
#    5.143    2.857    0.000    0.000    0.000    0.000 
#    0.000    0.000    0.000    0.000    0.000    0.000 
#
# Total GULP energy -312557.971240 kJ/mol
# GULP energy per Si atom -5581.392344 kJ/mol
# Density = 2.168112 g / cm^3
# Si number density = 21.730580 Si / 1000 Ang^3
#
#
#
# Elastic Constant Matrix: (Units=GPa)
#
#
# Indices 1 2 3 4 5 6 
#
# 1 105.5443 42.5946 24.4929 0.0000 0.0000 0.0000
# 2 42.5946 102.3517 24.9451 0.0000 0.0000 0.0000
# 3 24.4929 24.9451 55.0771 0.0000 0.0000 0.0000
# 4 0.0000 0.0000 0.0000 44.5573 0.0000 0.0000
# 5 0.0000 0.0000 0.0000 0.0000 -0.4148 0.0000
# 6 0.0000 0.0000 0.0000 0.0000 0.0000 -7.2630
#
#
#
# Elastic Compliance Matrix: (Units=1/GPa)
#
#
# Indices 1 2 3 4 5 6 
#
# 1 0.011940 -0.004131 -0.003439 0.000000 0.000000 0.000000
# 2 -0.004131 0.012412 -0.003784 0.000000 0.000000 0.000000
# 3 -0.003439 -0.003784 0.021400 0.000000 0.000000 0.000000
# 4 0.000000 0.000000 0.000000 0.022443 0.000000 0.000000
# 5 0.000000 0.000000 0.000000 0.000000 -2.410819 0.000000
# 6 0.000000 0.000000 0.000000 0.000000 0.000000 -0.137684
#
#
# Mechanical properties :
#
#
# Convention : Reuss Voigt Hill
#
# Bulk Modulus (GPa) = 43.39690 49.67089 46.53390
# Shear Modulus (GPa) = -2.04088 18.77194 8.36553
#
# Velocity S-wave (km/s) = -0.97016 2.94232 1.96418
# Velocity P-wave (km/s) = 4.33115 5.86943 5.15796
#
# Compressibility (1/GPa) = 0.02304312
#
# Stress axis : x y z
#
# Youngs Moduli (GPa) = 83.75386 80.56972 46.72981
#
# Poissons Ratio (x) = 0.33281 0.16069
# Poissons Ratio (y) = 0.34597 0.17685
# Poissons Ratio (z) = 0.28801 0.30491
#
# Static dielectric constant tensor:
#      x y z
#    x 1.797860 0.000000 0.000000 
#    y 0.000000 1.896980 0.000000 
#    z 0.000000 0.000000 1.765030 
# 
# From -- ./inp_files/22919.got.cif
#   From: 2010.05.17/outbox.cif.g08.bks.cpg/sg56_12_cif.got.tgz:22919.got - 2010.06.03 13:42:01.
