data_PCOD9432057
_publ_section_title
;
Structure prediction by ZEFSAII (Michael W. Deem and Ramdas Pophale) SiO2 
 PCOD9432057
Probable space group: P C C N
;
_chemical_formula_sum "Si O2"
_cell_formula_units_Z 40
_cell_length_a 7.278644
_cell_length_b 14.132559
_cell_length_c 16.360202
_cell_angle_alpha 90.000000
_cell_angle_beta 90.000000
_cell_angle_gamma 90.000000
_cell_volume 1682.906343
_symmetry_space_group_name_H-M "P C C N"
_symmetry_group_IT_number 56
_symmetry_cell_setting 'orthorhombic'
loop_
_space_group_symop_operation_xyz
x,y,z
1/2-x,1/2-y,z
1/2+x,-y,1/2-z
-x,1/2+y,1/2-z
-x,-y,-z
1/2+x,1/2+y,-z
1/2-x,y,1/2+z
x,1/2-y,1/2+z
loop_
_atom_site_type_symbol
_atom_site_label
_atom_site_fract_x
_atom_site_fract_y
_atom_site_fract_z
Si Si1 0.190557 0.440625 0.858044
Si Si2 0.715314 0.354615 0.377078
Si Si3 0.290138 0.139892 0.688673
Si Si4 0.205080 0.468503 0.027965
Si Si5 0.274190 0.642985 0.810339
O O1 0.278395 0.410531 0.771760
O O2 0.174922 0.554519 0.851509
O O3 0.999978 0.381962 0.864306
O O4 0.287500 0.425034 0.945167
O O5 0.750000 0.250000 0.409834
O O6 0.790971 0.435475 0.436111
O O7 0.789579 0.356498 0.284415
O O8 0.250000 0.250000 0.697366
O O9 0.209049 0.101656 0.604269
O O10 0.508718 0.122425 0.684526
O O11 0.000000 0.500000 0.000000
O O12 0.250000 0.750000 0.842655
#
# Coordination Sequence:
#
# PCOD9432057 Si02
#       5
#     8   8   8   8   8
#     4  10  22  42  69 102 139 188 238 304 361 429
#     4   9  19  40  66 104 139 191 241 290 358 437
#     4  11  25  43  69 102 141 192 244 298 366 443
#     4  10  22  42  71  99 140 186 235 300 358 436
#     4  10  22  39  70 104 140 187 242 296 368 434
#
# _framework density 23.768404
#
# number of rings (size 3 to 8) (size 9 to 14) (size 15 to 20)
#    0.000    2.000    2.000    0.000    5.600    2.400 
#    7.200    0.000    0.000    0.000    0.000    0.000 
#    0.000    0.000    0.000    0.000    0.000    0.000 
#
# Total GULP energy -223381.789835 kJ/mol
# GULP energy per Si atom -5584.544746 kJ/mol
# Density = 2.371431 g / cm^3
# Si number density = 23.768404 Si / 1000 Ang^3
#
#
#
# Elastic Constant Matrix: (Units=GPa)
#
#
# Indices 1 2 3 4 5 6 
#
# 1 98.3410 19.0168 12.4965 0.0000 0.0000 0.0000
# 2 19.0168 173.2446 65.0328 0.0000 0.0000 0.0000
# 3 12.4965 65.0328 192.5017 0.0000 0.0000 0.0000
# 4 0.0000 0.0000 0.0000 7.3215 0.0000 0.0000
# 5 0.0000 0.0000 0.0000 0.0000 2.9148 0.0000
# 6 0.0000 0.0000 0.0000 0.0000 0.0000 27.0636
#
#
#
# Elastic Compliance Matrix: (Units=1/GPa)
#
#
# Indices 1 2 3 4 5 6 
#
# 1 0.010408 -0.001018 -0.000332 0.000000 0.000000 0.000000
# 2 -0.001018 0.006710 -0.002201 0.000000 0.000000 0.000000
# 3 -0.000332 -0.002201 0.005960 0.000000 0.000000 0.000000
# 4 0.000000 0.000000 0.000000 0.136584 0.000000 0.000000
# 5 0.000000 0.000000 0.000000 0.000000 0.343078 0.000000
# 6 0.000000 0.000000 0.000000 0.000000 0.000000 0.036950
#
#
# Mechanical properties :
#
#
# Convention : Reuss Voigt Hill
#
# Bulk Modulus (GPa) = 62.59129 73.01995 67.80562
# Shear Modulus (GPa) = 9.05607 31.96272 20.50939
#
# Velocity S-wave (km/s) = 1.95407 3.67107 2.94068
# Velocity P-wave (km/s) = 5.61090 6.98263 6.33401
#
# Compressibility (1/GPa) = 0.01597666
#
# Stress axis : x y z
#
# Youngs Moduli (GPa) = 96.08276 149.03016 167.79137
#
# Poissons Ratio (x) = 0.15170 0.05566
# Poissons Ratio (y) = 0.09780 0.36927
# Poissons Ratio (z) = 0.03188 0.32798
#
# Static dielectric constant tensor:
#      x y z
#    x 2.055560 0.000000 0.000000 
#    y 0.000000 1.888780 0.000000 
#    z 0.000000 0.000000 1.983630 
# 
# From -- ./inp_files/10404.got.cif
#   From: 2010.05.17/outbox.cif.g08.bks.cpg/sg56_6_cif.got.tgz:10404.got - 2010.06.03 13:42:01.
