data_PCOD9432164
_publ_section_title
;
Structure prediction by ZEFSAII (Michael W. Deem and Ramdas Pophale) SiO2 
 PCOD9432164
Probable space group: P C C N
;
_chemical_formula_sum "Si O2"
_cell_formula_units_Z 32
_cell_length_a 10.250696
_cell_length_b 5.130725
_cell_length_c 25.145408
_cell_angle_alpha 90.000000
_cell_angle_beta 90.000000
_cell_angle_gamma 90.000000
_cell_volume 1322.485072
_symmetry_space_group_name_H-M "P C C N"
_symmetry_group_IT_number 56
_symmetry_cell_setting 'orthorhombic'
loop_
_space_group_symop_operation_xyz
x,y,z
1/2-x,1/2-y,z
1/2+x,-y,1/2-z
-x,1/2+y,1/2-z
-x,-y,-z
1/2+x,1/2+y,-z
1/2-x,y,1/2+z
x,1/2-y,1/2+z
loop_
_atom_site_type_symbol
_atom_site_label
_atom_site_fract_x
_atom_site_fract_y
_atom_site_fract_z
Si Si1 0.386527 0.631068 0.300649
Si Si2 0.457919 0.630071 0.178922
Si Si3 0.830478 0.012185 0.048942
Si Si4 0.363092 0.462471 0.076209
O O1 0.250000 0.750000 0.316874
O O2 0.390538 0.652159 0.236271
O O3 0.425101 0.340842 0.318358
O O4 0.495242 0.830611 0.321547
O O5 0.375872 0.663048 0.125409
O O6 0.750000 0.250000 0.070750
O O7 0.979187 0.067471 0.066361
O O8 0.750000 0.750000 0.063571
O O9 0.825962 0.025614 0.984565
O O10 0.250000 0.250000 0.091214
#
# Coordination Sequence:
#
# PCOD9432164 Si02
#       4
#     8   8   8   8
#     4  10  22  41  61  88 129 169 212 269 330 395
#     4  10  23  39  62  94 124 166 218 269 328 394
#     4  10  24  45  67  96 134 173 217 272 335 402
#     4  10  24  43  69  99 132 173 222 276 333 398
#
# _framework density 24.196871000000002
#
# number of rings (size 3 to 8) (size 9 to 14) (size 15 to 20)
#    0.000    2.000    0.000    0.750    0.000   25.000 
#    0.000    0.000    0.000    0.000    0.000    0.000 
#    0.000    0.000    0.000    0.000    0.000    0.000 
#
# Total GULP energy -178258.455946 kJ/mol
# GULP energy per Si atom -5570.576748 kJ/mol
# Density = 2.414180 g / cm^3
# Si number density = 24.196871 Si / 1000 Ang^3
#
#
#
# Elastic Constant Matrix: (Units=GPa)
#
#
# Indices 1 2 3 4 5 6 
#
# 1 167.4590 67.1669 21.3104 0.0000 0.0000 0.0000
# 2 67.1669 115.0971 26.8512 0.0000 0.0000 0.0000
# 3 21.3104 26.8512 182.0498 0.0000 0.0000 0.0000
# 4 0.0000 0.0000 0.0000 -215.2662 0.0000 0.0000
# 5 0.0000 0.0000 0.0000 0.0000 -123.2252 0.0000
# 6 0.0000 0.0000 0.0000 0.0000 0.0000 30.7587
#
#
#
# Elastic Compliance Matrix: (Units=1/GPa)
#
#
# Indices 1 2 3 4 5 6 
#
# 1 0.007808 -0.004498 -0.000251 0.000000 0.000000 0.000000
# 2 -0.004498 0.011589 -0.001183 0.000000 0.000000 0.000000
# 3 -0.000251 -0.001183 0.005697 0.000000 0.000000 0.000000
# 4 0.000000 0.000000 0.000000 -0.004645 0.000000 0.000000
# 5 0.000000 0.000000 0.000000 0.000000 -0.008115 0.000000
# 6 0.000000 0.000000 0.000000 0.000000 0.000000 0.032511
#
#
# Mechanical properties :
#
#
# Convention : Reuss Voigt Hill
#
# Bulk Modulus (GPa) = 75.57956 77.25142 76.41549
# Shear Modulus (GPa) = 81.81117 -38.26136 21.77491
#
# Velocity S-wave (km/s) = 5.82100 -3.98081 3.00310
# Velocity P-wave (km/s) = 8.74539 3.29642 6.60864
#
# Compressibility (1/GPa) = 0.01323109
#
# Stress axis : x y z
#
# Youngs Moduli (GPa) = 128.08159 86.28867 175.53760
#
# Poissons Ratio (x) = 0.38811 0.04398
# Poissons Ratio (y) = 0.57608 0.20763
# Poissons Ratio (z) = 0.03209 0.10206
#
# Static dielectric constant tensor:
#      x y z
#    x 1.842390 0.000000 0.000000 
#    y 0.000000 1.884230 0.000000 
#    z 0.000000 0.000000 1.958140 
# 
# From -- ./inp_files/23042.got.cif
#   From: 2010.05.17/outbox.cif.g08.bks.cpg/sg56_12_cif.got.tgz:23042.got - 2010.06.03 13:42:01.
