data_PCOD9432569
_publ_section_title
;
Structure prediction by ZEFSAII (Michael W. Deem and Ramdas Pophale) SiO2 
 PCOD9432569
Probable space group: P C C N
;
_chemical_formula_sum "Si O2"
_cell_formula_units_Z 32
_cell_length_a 16.847679
_cell_length_b 4.920252
_cell_length_c 16.469954
_cell_angle_alpha 90.000000
_cell_angle_beta 90.000000
_cell_angle_gamma 90.000000
_cell_volume 1365.273976
_symmetry_space_group_name_H-M "P C C N"
_symmetry_group_IT_number 56
_symmetry_cell_setting 'orthorhombic'
loop_
_space_group_symop_operation_xyz
x,y,z
1/2-x,1/2-y,z
1/2+x,-y,1/2-z
-x,1/2+y,1/2-z
-x,-y,-z
1/2+x,1/2+y,-z
1/2-x,y,1/2+z
x,1/2-y,1/2+z
loop_
_atom_site_type_symbol
_atom_site_label
_atom_site_fract_x
_atom_site_fract_y
_atom_site_fract_z
Si Si1 0.250000 0.250000 0.741299
Si Si2 0.750000 0.250000 0.142501
Si Si3 0.503875 0.144183 0.409890
Si Si4 0.837437 0.869298 0.048400
Si Si5 0.896674 0.684032 0.875419
O O1 0.229832 0.505860 0.797168
O O2 0.326369 0.337194 0.688760
O O3 0.677449 0.328049 0.082555
O O4 0.412785 0.234112 0.400520
O O5 0.561707 0.401973 0.401241
O O6 0.500000 0.000000 0.500000
O O7 0.535841 0.904616 0.352141
O O8 0.750000 0.750000 0.059305
O O9 0.856181 0.820316 0.954680
#
# Coordination Sequence:
#
# PCOD9432569 Si02
#       5
#     4   4   8   8   8
#     4  12  26  48  68 102 142 194 232 284 354 422
#     4  12  28  42  70 102 146 182 238 294 340 430
#     4  10  23  40  69 109 140 165 233 300 342 405
#     4  11  24  43  74 102 133 181 236 284 354 404
#     4  11  24  44  73 102 138 184 233 288 345 421
#
# _framework density 23.43852
#
# number of rings (size 3 to 8) (size 9 to 14) (size 15 to 20)
#    0.000    1.000    2.500    4.500   10.500    1.000 
#    0.000    5.000    0.000    0.000    0.000    0.000 
#    0.000    0.000    0.000    0.000    0.000    0.000 
#
# Total GULP energy -178540.083142 kJ/mol
# GULP energy per Si atom -5579.377598 kJ/mol
# Density = 2.338517 g / cm^3
# Si number density = 23.438520 Si / 1000 Ang^3
#
#
#
# Elastic Constant Matrix: (Units=GPa)
#
#
# Indices 1 2 3 4 5 6 
#
# 1 128.5847 51.9171 20.5016 0.0000 0.0000 0.0000
# 2 51.9171 159.3889 44.1119 0.0000 0.0000 0.0000
# 3 20.5016 44.1119 56.4352 0.0000 0.0000 0.0000
# 4 0.0000 0.0000 0.0000 27.2229 0.0000 0.0000
# 5 0.0000 0.0000 0.0000 0.0000 4.9993 0.0000
# 6 0.0000 0.0000 0.0000 0.0000 0.0000 50.3532
#
#
#
# Elastic Compliance Matrix: (Units=1/GPa)
#
#
# Indices 1 2 3 4 5 6 
#
# 1 0.009023 -0.002593 -0.001251 0.000000 0.000000 0.000000
# 2 -0.002593 0.008751 -0.005898 0.000000 0.000000 0.000000
# 3 -0.001251 -0.005898 0.022784 0.000000 0.000000 0.000000
# 4 0.000000 0.000000 0.000000 0.036734 0.000000 0.000000
# 5 0.000000 0.000000 0.000000 0.000000 0.200027 0.000000
# 6 0.000000 0.000000 0.000000 0.000000 0.000000 0.019860
#
#
# Mechanical properties :
#
#
# Convention : Reuss Voigt Hill
#
# Bulk Modulus (GPa) = 47.45202 64.16332 55.80767
# Shear Modulus (GPa) = 15.44697 31.70696 23.57696
#
# Velocity S-wave (km/s) = 2.56997 3.68199 3.17504
# Velocity P-wave (km/s) = 5.39403 6.74616 6.10763
#
# Compressibility (1/GPa) = 0.02107392
#
# Stress axis : x y z
#
# Youngs Moduli (GPa) = 110.82349 114.27471 43.89016
#
# Poissons Ratio (x) = 0.29629 0.05492
# Poissons Ratio (y) = 0.28735 0.25887
# Poissons Ratio (z) = 0.13868 0.67400
#
# Static dielectric constant tensor:
#      x y z
#    x 2.004760 0.000000 0.000000 
#    y 0.000000 2.112130 0.000000 
#    z 0.000000 0.000000 1.907190 
# 
# From -- ./inp_files/12493.got.cif
#   From: 2010.05.17/outbox.cif.g08.bks.cpg/sg56_7_cif.got.tgz:12493.got - 2010.06.03 13:42:01.
