data_PCOD9432341
_publ_section_title
;
Structure prediction by ZEFSAII (Michael W. Deem and Ramdas Pophale) SiO2 
 PCOD9432341
Probable space group: P C C N
;
_chemical_formula_sum "Si O2"
_cell_formula_units_Z 56
_cell_length_a 13.809326
_cell_length_b 8.289911
_cell_length_c 22.845466
_cell_angle_alpha 90.000000
_cell_angle_beta 90.000000
_cell_angle_gamma 90.000000
_cell_volume 2615.305165
_symmetry_space_group_name_H-M "P C C N"
_symmetry_group_IT_number 56
_symmetry_cell_setting 'orthorhombic'
loop_
_space_group_symop_operation_xyz
x,y,z
1/2-x,1/2-y,z
1/2+x,-y,1/2-z
-x,1/2+y,1/2-z
-x,-y,-z
1/2+x,1/2+y,-z
1/2-x,y,1/2+z
x,1/2-y,1/2+z
loop_
_atom_site_type_symbol
_atom_site_label
_atom_site_fract_x
_atom_site_fract_y
_atom_site_fract_z
Si Si1 0.869410 0.597374 0.058260
Si Si2 0.574557 0.420684 0.758780
Si Si3 0.010298 0.808916 0.840839
Si Si4 0.930491 0.585200 0.927430
Si Si5 0.353029 0.839236 0.160614
Si Si6 0.660310 0.565825 0.116830
Si Si7 0.278428 0.079408 0.251212
O O1 0.764357 0.542881 0.083864
O O2 0.885913 0.774309 0.087380
O O3 0.956014 0.469135 0.068700
O O4 0.877661 0.619311 0.988406
O O5 0.526856 0.571960 0.790231
O O6 0.540178 0.345325 0.698050
O O7 0.574822 0.288796 0.810788
O O8 0.683767 0.470849 0.744036
O O9 0.931538 0.742837 0.886440
O O10 0.092943 0.907006 0.876964
O O11 0.882187 0.429639 0.897738
O O12 0.250000 0.750000 0.153943
O O13 0.346183 0.978556 0.209341
O O14 0.679755 0.608561 0.184756
O O15 0.250000 0.250000 0.224468
#
# Coordination Sequence:
#
# PCOD9432341 Si02
#       7
#     8   8   8   8   8   8   8
#     4  10  24  46  70  89 135 178 241 282 329 395
#     4  11  24  38  63 106 140 178 207 274 343 420
#     4  12  25  38  70  99 143 175 225 275 351 413
#     4  11  24  46  65 100 134 180 227 288 337 397
#     4  10  22  43  64  99 141 174 220 271 345 409
#     4  11  23  44  67  98 128 185 226 283 330 411
#     4  11  21  38  67  97 134 174 218 271 341 405
#
# _framework density 21.412416
#
# number of rings (size 3 to 8) (size 9 to 14) (size 15 to 20)
#    0.000    1.143    2.857    3.429    2.000    2.286 
#   18.000    0.000    0.000    0.000    0.000    0.000 
#    0.000    0.000    0.000    0.000    0.000    0.000 
#
# Total GULP energy -312677.835412 kJ/mol
# GULP energy per Si atom -5583.532775 kJ/mol
# Density = 2.136368 g / cm^3
# Si number density = 21.412416 Si / 1000 Ang^3
#
#
#
# Elastic Constant Matrix: (Units=GPa)
#
#
# Indices 1 2 3 4 5 6 
#
# 1 43.1764 3.5793 14.6581 0.0000 0.0000 0.0000
# 2 3.5793 68.4331 23.5131 0.0000 0.0000 0.0000
# 3 14.6581 23.5131 104.5239 0.0000 0.0000 0.0000
# 4 0.0000 0.0000 0.0000 32.6662 0.0000 0.0000
# 5 0.0000 0.0000 0.0000 0.0000 7.1657 0.0000
# 6 0.0000 0.0000 0.0000 0.0000 0.0000 31.1749
#
#
#
# Elastic Compliance Matrix: (Units=1/GPa)
#
#
# Indices 1 2 3 4 5 6 
#
# 1 0.024319 -0.000109 -0.003386 0.000000 0.000000 0.000000
# 2 -0.000109 0.015837 -0.003547 0.000000 0.000000 0.000000
# 3 -0.003386 -0.003547 0.010840 0.000000 0.000000 0.000000
# 4 0.000000 0.000000 0.000000 0.030613 0.000000 0.000000
# 5 0.000000 0.000000 0.000000 0.000000 0.139554 0.000000
# 6 0.000000 0.000000 0.000000 0.000000 0.000000 0.032077
#
#
# Mechanical properties :
#
#
# Convention : Reuss Voigt Hill
#
# Bulk Modulus (GPa) = 27.09102 33.29271 30.19187
# Shear Modulus (GPa) = 17.88085 25.82687 21.85386
#
# Velocity S-wave (km/s) = 2.89289 3.47675 3.19817
# Velocity P-wave (km/s) = 4.88241 5.63020 5.26959
#
# Compressibility (1/GPa) = 0.03691260
#
# Stress axis : x y z
#
# Youngs Moduli (GPa) = 41.11956 63.14177 92.25042
#
# Poissons Ratio (x) = 0.00686 0.31236
# Poissons Ratio (y) = 0.00446 0.32725
# Poissons Ratio (z) = 0.13923 0.22399
#
# Static dielectric constant tensor:
#      x y z
#    x 1.855820 0.000000 0.000000 
#    y 0.000000 1.804390 0.000000 
#    z 0.000000 0.000000 1.750750 
# 
# From -- ./inp_files/19122.got.cif
#   From: 2010.05.17/outbox.cif.g08.bks.cpg/sg56_10_cif.got.tgz:19122.got - 2010.06.03 13:42:01.
