data_PCOD9432106
_publ_section_title
;
Structure prediction by ZEFSAII (Michael W. Deem and Ramdas Pophale) SiO2 
 PCOD9432106
Probable space group: P C C N
;
_chemical_formula_sum "Si O2"
_cell_formula_units_Z 36
_cell_length_a 25.121360
_cell_length_b 5.460605
_cell_length_c 10.798603
_cell_angle_alpha 90.000000
_cell_angle_beta 90.000000
_cell_angle_gamma 90.000000
_cell_volume 1481.328862
_symmetry_space_group_name_H-M "P C C N"
_symmetry_group_IT_number 56
_symmetry_cell_setting 'orthorhombic'
loop_
_space_group_symop_operation_xyz
x,y,z
1/2-x,1/2-y,z
1/2+x,-y,1/2-z
-x,1/2+y,1/2-z
-x,-y,-z
1/2+x,1/2+y,-z
1/2-x,y,1/2+z
x,1/2-y,1/2+z
loop_
_atom_site_type_symbol
_atom_site_label
_atom_site_fract_x
_atom_site_fract_y
_atom_site_fract_z
Si Si1 0.966361 0.617661 0.112179
Si Si2 0.337431 0.079384 0.178935
Si Si3 0.436910 0.627647 0.799818
Si Si4 0.250000 0.750000 0.065243
Si Si5 0.190704 0.356608 0.447423
O O1 0.926591 0.393645 0.141739
O O2 0.007459 0.641923 0.226885
O O3 0.942520 0.893897 0.106335
O O4 0.000000 0.500000 0.000000
O O5 0.329638 0.203257 0.312163
O O6 0.342875 0.253491 0.061349
O O7 0.390410 0.925146 0.201701
O O8 0.283086 0.930998 0.153204
O O9 0.296283 0.638813 0.977818
O O10 0.250000 0.250000 0.456561
#
# Coordination Sequence:
#
# PCOD9432106 Si02
#       5
#     8   8   8   4   8
#     4  10  22  44  66  92 135 170 220 279 340 401
#     4  11  24  40  66  96 131 175 227 277 344 407
#     4  10  24  40  66  99 126 173 224 273 342 405
#     4  10  22  40  64  94 132 172 224 280 338 402
#     4  10  22  41  62  89 131 170 222 276 337 403
#
# _framework density 24.302503000000002
#
# number of rings (size 3 to 8) (size 9 to 14) (size 15 to 20)
#    0.000    1.778    0.000    3.333    6.222    3.556 
#    0.000    0.000    0.000    0.000    0.000    0.000 
#    0.000    0.000    0.000    0.000    0.000    0.000 
#
# Total GULP energy -200885.633384 kJ/mol
# GULP energy per Si atom -5580.156483 kJ/mol
# Density = 2.424719 g / cm^3
# Si number density = 24.302503 Si / 1000 Ang^3
#
#
#
# Elastic Constant Matrix: (Units=GPa)
#
#
# Indices 1 2 3 4 5 6 
#
# 1 53.5679 18.7711 2.3320 0.0000 0.0000 0.0000
# 2 18.7711 84.8115 32.3561 0.0000 0.0000 0.0000
# 3 2.3320 32.3561 124.3794 0.0000 0.0000 0.0000
# 4 0.0000 0.0000 0.0000 19.0463 0.0000 0.0000
# 5 0.0000 0.0000 0.0000 0.0000 3.4718 0.0000
# 6 0.0000 0.0000 0.0000 0.0000 0.0000 32.5134
#
#
#
# Elastic Compliance Matrix: (Units=1/GPa)
#
#
# Indices 1 2 3 4 5 6 
#
# 1 0.020323 -0.004832 0.000876 0.000000 0.000000 0.000000
# 2 -0.004832 0.014239 -0.003614 0.000000 0.000000 0.000000
# 3 0.000876 -0.003614 0.008964 0.000000 0.000000 0.000000
# 4 0.000000 0.000000 0.000000 0.052504 0.000000 0.000000
# 5 0.000000 0.000000 0.000000 0.000000 0.288033 0.000000
# 6 0.000000 0.000000 0.000000 0.000000 0.000000 0.030757
#
#
# Mechanical properties :
#
#
# Convention : Reuss Voigt Hill
#
# Bulk Modulus (GPa) = 35.22863 41.07526 38.15195
# Shear Modulus (GPa) = 11.37862 24.95961 18.16912
#
# Velocity S-wave (km/s) = 2.16616 3.20822 2.73724
# Velocity P-wave (km/s) = 4.55891 5.53732 5.07177
#
# Compressibility (1/GPa) = 0.02838600
#
# Stress axis : x y z
#
# Youngs Moduli (GPa) = 49.20519 70.22992 111.56337
#
# Poissons Ratio (x) = 0.33937 -0.09773
# Poissons Ratio (y) = 0.23777 0.40314
# Poissons Ratio (z) = -0.04311 0.25378
#
# Static dielectric constant tensor:
#      x y z
#    x 1.895310 0.000000 0.000000 
#    y 0.000000 2.389730 0.000000 
#    z 0.000000 0.000000 1.914140 
# 
# From -- ./inp_files/5566.got.cif
#   From: 2010.05.17/outbox.cif.g08.bks.cpg/sg56_3_cif.got.tgz:5566.got - 2010.06.03 13:42:01.
