data_PCOD9432639
_publ_section_title
;
Structure prediction by ZEFSAII (Michael W. Deem and Ramdas Pophale) SiO2 
 PCOD9432639
Probable space group: P C C N
;
_chemical_formula_sum "Si O2"
_cell_formula_units_Z 40
_cell_length_a 7.834402
_cell_length_b 17.869954
_cell_length_c 11.516275
_cell_angle_alpha 90.000000
_cell_angle_beta 90.000000
_cell_angle_gamma 90.000000
_cell_volume 1612.283145
_symmetry_space_group_name_H-M "P C C N"
_symmetry_group_IT_number 56
_symmetry_cell_setting 'orthorhombic'
loop_
_space_group_symop_operation_xyz
x,y,z
1/2-x,1/2-y,z
1/2+x,-y,1/2-z
-x,1/2+y,1/2-z
-x,-y,-z
1/2+x,1/2+y,-z
1/2-x,y,1/2+z
x,1/2-y,1/2+z
loop_
_atom_site_type_symbol
_atom_site_label
_atom_site_fract_x
_atom_site_fract_y
_atom_site_fract_z
Si Si1 0.332537 0.090043 0.418917
Si Si2 0.225376 0.613682 0.655864
Si Si3 0.750000 0.250000 0.006564
Si Si4 0.250000 0.250000 0.356304
Si Si5 0.707529 0.952731 0.835621
Si Si6 0.480604 0.694006 0.324705
O O1 0.531213 0.091163 0.380484
O O2 0.256177 0.173784 0.427016
O O3 0.318173 0.054179 0.545924
O O4 0.241327 0.056809 0.301534
O O5 0.278271 0.675330 0.565116
O O6 0.340544 0.540502 0.661629
O O7 0.195717 0.659603 0.774182
O O8 0.926215 0.248624 0.077255
O O9 0.412343 0.239041 0.271356
O O10 0.581918 0.882082 0.853658
#
# Coordination Sequence:
#
# PCOD9432639 Si02
#       6
#     8   8   4   4   8   8
#     4  10  23  42  71 104 138 189 232 301 355 430
#     4  10  24  45  62 104 140 183 238 300 363 426
#     4  12  26  42  74  96 150 184 244 300 372 430
#     4   8  20  42  70  98 142 174 252 284 360 436
#     4  10  23  44  71  99 140 184 243 284 363 432
#     4  10  25  45  68 109 137 195 240 299 366 431
#
# _framework density 24.809536000000001
#
# number of rings (size 3 to 8) (size 9 to 14) (size 15 to 20)
#    0.000    2.400    0.000    1.200   14.000    1.600 
#    3.600    0.000    0.000    0.000    0.000    0.000 
#    0.000    0.000    0.000    0.000    0.000    0.000 
#
# Total GULP energy -222941.792600 kJ/mol
# GULP energy per Si atom -5573.544815 kJ/mol
# Density = 2.475307 g / cm^3
# Si number density = 24.809536 Si / 1000 Ang^3
#
#
#
# Elastic Constant Matrix: (Units=GPa)
#
#
# Indices 1 2 3 4 5 6 
#
# 1 62.0002 31.3388 37.0714 0.0000 0.0000 0.0000
# 2 31.3388 135.0506 -0.4132 0.0000 0.0000 0.0000
# 3 37.0714 -0.4132 54.4815 0.0000 0.0000 0.0000
# 4 0.0000 0.0000 0.0000 4423.8946 0.0000 0.0000
# 5 0.0000 0.0000 0.0000 0.0000 0.6497 0.0000
# 6 0.0000 0.0000 0.0000 0.0000 0.0000 6.0987
#
#
#
# Elastic Compliance Matrix: (Units=1/GPa)
#
#
# Indices 1 2 3 4 5 6 
#
# 1 0.034046 -0.007972 -0.023227 0.000000 0.000000 0.000000
# 2 -0.007972 0.009271 0.005494 0.000000 0.000000 0.000000
# 3 -0.023227 0.005494 0.034201 0.000000 0.000000 0.000000
# 4 0.000000 0.000000 0.000000 0.000226 0.000000 0.000000
# 5 0.000000 0.000000 0.000000 0.000000 1.539184 0.000000
# 6 0.000000 0.000000 0.000000 0.000000 0.000000 0.163969
#
#
# Mechanical properties :
#
#
# Convention : Reuss Voigt Hill
#
# Bulk Modulus (GPa) = 38.29862 43.05847 40.67854
# Shear Modulus (GPa) = 2.71590 898.36429 450.54010
#
# Velocity S-wave (km/s) = 1.04741 19.04969 13.49051
# Velocity P-wave (km/s) = 4.11501 22.38855 16.09628
#
# Compressibility (1/GPa) = 0.02611060
#
# Stress axis : x y z
#
# Youngs Moduli (GPa) = 29.37198 107.86031 29.23901
#
# Poissons Ratio (x) = 0.85981 0.67913
# Poissons Ratio (y) = 0.23414 -0.16065
# Poissons Ratio (z) = 0.68221 -0.59263
#
# Static dielectric constant tensor:
#      x y z
#    x 2.035070 0.000000 0.000000 
#    y 0.000000 1.913770 0.000000 
#    z 0.000000 0.000000 2.107950 
# 
# From -- ./inp_files/6239.got.cif
#   From: 2010.05.17/outbox.cif.g08.bks.cpg/sg56_4_cif.got.tgz:6239.got - 2010.06.03 13:42:01.
