data_PCOD9432246
_publ_section_title
;
Structure prediction by ZEFSAII (Michael W. Deem and Ramdas Pophale) SiO2 
 PCOD9432246
Probable space group: P C C N
;
_chemical_formula_sum "Si O2"
_cell_formula_units_Z 56
_cell_length_a 9.245795
_cell_length_b 19.364359
_cell_length_c 14.005723
_cell_angle_alpha 90.000000
_cell_angle_beta 90.000000
_cell_angle_gamma 90.000000
_cell_volume 2507.569150
_symmetry_space_group_name_H-M "P C C N"
_symmetry_group_IT_number 56
_symmetry_cell_setting 'orthorhombic'
loop_
_space_group_symop_operation_xyz
x,y,z
1/2-x,1/2-y,z
1/2+x,-y,1/2-z
-x,1/2+y,1/2-z
-x,-y,-z
1/2+x,1/2+y,-z
1/2-x,y,1/2+z
x,1/2-y,1/2+z
loop_
_atom_site_type_symbol
_atom_site_label
_atom_site_fract_x
_atom_site_fract_y
_atom_site_fract_z
Si Si1 0.442206 0.365100 0.304366
Si Si2 0.318332 0.178249 0.433583
Si Si3 0.611571 0.484755 0.224936
Si Si4 0.604758 0.406273 0.697153
Si Si5 0.909659 0.227314 0.821699
Si Si6 0.898280 0.434873 0.981276
Si Si7 0.343692 0.470354 0.987510
O O1 0.282361 0.344445 0.342209
O O2 0.483123 0.426148 0.230144
O O3 0.516375 0.294153 0.274972
O O4 0.527076 0.389643 0.400764
O O5 0.250000 0.250000 0.471195
O O6 0.480720 0.197445 0.401571
O O7 0.317769 0.110952 0.501720
O O8 0.537618 0.546890 0.283436
O O9 0.757797 0.442979 0.247991
O O10 0.669010 0.517618 0.126295
O O11 0.597815 0.332352 0.744365
O O12 0.624902 0.399270 0.583293
O O13 0.750000 0.250000 0.855874
O O14 0.753906 0.475924 0.955218
O O15 0.000000 0.500000 0.000000
O O16 0.500000 0.500000 0.000000
#
# Coordination Sequence:
#
# PCOD9432246 Si02
#       7
#     8   8   8   8   8   8   8
#     4  11  22  43  67  96 136 182 219 273 354 408
#     4  10  22  42  64  93 130 176 224 269 336 427
#     4  11  22  38  66  93 129 169 222 280 332 402
#     4  11  23  40  65  99 131 169 230 278 336 414
#     4  11  23  41  68  93 130 180 224 270 340 412
#     4  11  22  40  66 100 133 173 220 287 342 403
#     4  11  24  39  62 102 132 163 228 288 335 395
#
# _framework density 22.332384999999999
#
# number of rings (size 3 to 8) (size 9 to 14) (size 15 to 20)
#    0.000    1.143    5.714    0.857    4.000    0.000 
#    0.000    3.571    0.000    4.286    0.000    0.000 
#    0.000    0.000    0.000    0.000    0.000    0.000 
#
# Total GULP energy -312212.349813 kJ/mol
# GULP energy per Si atom -5575.220532 kJ/mol
# Density = 2.228156 g / cm^3
# Si number density = 22.332385 Si / 1000 Ang^3
#
#
#
# Elastic Constant Matrix: (Units=GPa)
#
#
# Indices 1 2 3 4 5 6 
#
# 1 108.5289 34.3926 -4.1366 0.0000 0.0000 0.0000
# 2 34.3926 165.5207 34.8756 0.0000 0.0000 0.0000
# 3 -4.1366 34.8756 38.0631 0.0000 0.0000 0.0000
# 4 0.0000 0.0000 0.0000 10.3864 0.0000 0.0000
# 5 0.0000 0.0000 0.0000 0.0000 18.3889 0.0000
# 6 0.0000 0.0000 0.0000 0.0000 0.0000 45.1302
#
#
#
# Elastic Compliance Matrix: (Units=1/GPa)
#
#
# Indices 1 2 3 4 5 6 
#
# 1 0.010292 -0.002942 0.003814 0.000000 0.000000 0.000000
# 2 -0.002942 0.008328 -0.007950 0.000000 0.000000 0.000000
# 3 0.003814 -0.007950 0.033971 0.000000 0.000000 0.000000
# 4 0.000000 0.000000 0.000000 0.096280 0.000000 0.000000
# 5 0.000000 0.000000 0.000000 0.000000 0.054381 0.000000
# 6 0.000000 0.000000 0.000000 0.000000 0.000000 0.022158
#
#
# Mechanical properties :
#
#
# Convention : Reuss Voigt Hill
#
# Bulk Modulus (GPa) = 26.01820 49.15289 37.58554
# Shear Modulus (GPa) = 19.81159 31.24651 25.52905
#
# Velocity S-wave (km/s) = 2.98169 3.74459 3.38470
# Velocity P-wave (km/s) = 4.85074 6.38384 5.66935
#
# Compressibility (1/GPa) = 0.03843464
#
# Stress axis : x y z
#
# Youngs Moduli (GPa) = 97.16394 120.07630 29.43666
#
# Poissons Ratio (x) = 0.35328 -0.11228
# Poissons Ratio (y) = 0.28587 0.23403
# Poissons Ratio (z) = -0.37061 0.95465
#
# Static dielectric constant tensor:
#      x y z
#    x 1.703170 0.000000 0.000000 
#    y 0.000000 1.828350 0.000000 
#    z 0.000000 0.000000 1.832420 
# 
# From -- ./inp_files/10886.got.cif
#   From: 2010.05.17/outbox.cif.g08.bks.cpg/sg56_6_cif.got.tgz:10886.got - 2010.06.03 13:42:01.
