data_PCOD9432976
_publ_section_title
;
Structure prediction by ZEFSAII (Michael W. Deem and Ramdas Pophale) SiO2 
 PCOD9432976
Probable space group: P C C N
;
_chemical_formula_sum "Si O2"
_cell_formula_units_Z 64
_cell_length_a 8.417633
_cell_length_b 21.386045
_cell_length_c 15.960578
_cell_angle_alpha 90.000000
_cell_angle_beta 90.000000
_cell_angle_gamma 90.000000
_cell_volume 2873.221306
_symmetry_space_group_name_H-M "P C C N"
_symmetry_group_IT_number 56
_symmetry_cell_setting 'orthorhombic'
loop_
_space_group_symop_operation_xyz
x,y,z
1/2-x,1/2-y,z
1/2+x,-y,1/2-z
-x,1/2+y,1/2-z
-x,-y,-z
1/2+x,1/2+y,-z
1/2-x,y,1/2+z
x,1/2-y,1/2+z
loop_
_atom_site_type_symbol
_atom_site_label
_atom_site_fract_x
_atom_site_fract_y
_atom_site_fract_z
Si Si1 0.577480 0.297046 0.948266
Si Si2 0.736834 0.142202 0.600600
Si Si3 0.199194 0.397976 0.452636
Si Si4 0.387915 0.200046 0.857137
Si Si5 0.463299 0.443551 0.564446
Si Si6 0.073234 0.516880 0.369687
Si Si7 0.724872 0.485395 0.302513
Si Si8 0.290158 0.662108 0.709723
O O1 0.442983 0.349478 0.955567
O O2 0.481270 0.232424 0.935629
O O3 0.677099 0.309410 0.862570
O O4 0.684807 0.309599 0.029302
O O5 0.599836 0.088863 0.607700
O O6 0.767253 0.168084 0.694303
O O7 0.888726 0.102102 0.572536
O O8 0.310700 0.366175 0.381345
O O9 0.313203 0.404690 0.531474
O O10 0.125150 0.466211 0.437755
O O11 0.250000 0.250000 0.833014
O O12 0.531005 0.188712 0.793134
O O13 0.500000 0.500000 0.500000
O O14 0.410491 0.476327 0.649724
O O15 0.198049 0.503349 0.295063
O O16 0.896555 0.504222 0.337194
O O17 0.703393 0.411218 0.313583
#
# Coordination Sequence:
#
# PCOD9432976 Si02
#       8
#     8   8   8   8   8   8   8   8
#     4  11  23  46  68  92 135 179 235 287 338 397
#     4  11  25  41  68 107 138 179 228 281 348 419
#     4  11  23  40  67  95 132 180 225 281 343 410
#     4  10  24  45  68  93 127 186 236 287 343 399
#     4  12  23  37  62  99 142 180 221 267 345 419
#     4  11  23  38  65  99 140 174 217 273 349 420
#     4  11  23  38  61 101 141 173 213 275 345 423
#     4  11  23  42  70  99 134 178 230 282 350 412
#
# _framework density 22.274650999999999
#
# number of rings (size 3 to 8) (size 9 to 14) (size 15 to 20)
#    0.000    1.000    2.500    4.875    3.500    1.000 
#    0.000    6.875    0.000    0.000    0.000    0.000 
#    0.000    0.000    0.000    0.000    0.000    0.000 
#
# Total GULP energy -357844.374919 kJ/mol
# GULP energy per Si atom -5591.318358 kJ/mol
# Density = 2.222395 g / cm^3
# Si number density = 22.274651 Si / 1000 Ang^3
#
#
#
# Elastic Constant Matrix: (Units=GPa)
#
#
# Indices 1 2 3 4 5 6 
#
# 1 139.7641 34.9241 38.0655 0.0000 0.0000 0.0000
# 2 34.9241 88.7334 22.4806 0.0000 0.0000 0.0000
# 3 38.0655 22.4806 81.4049 0.0000 0.0000 0.0000
# 4 0.0000 0.0000 0.0000 -23.7748 0.0000 0.0000
# 5 0.0000 0.0000 0.0000 0.0000 29.7569 0.0000
# 6 0.0000 0.0000 0.0000 0.0000 0.0000 35.8172
#
#
#
# Elastic Compliance Matrix: (Units=1/GPa)
#
#
# Indices 1 2 3 4 5 6 
#
# 1 0.008715 -0.002578 -0.003363 0.000000 0.000000 0.000000
# 2 -0.002578 0.012880 -0.002351 0.000000 0.000000 0.000000
# 3 -0.003363 -0.002351 0.014506 0.000000 0.000000 0.000000
# 4 0.000000 0.000000 0.000000 -0.042061 0.000000 0.000000
# 5 0.000000 0.000000 0.000000 0.000000 0.033606 0.000000
# 6 0.000000 0.000000 0.000000 0.000000 0.000000 0.027920
#
#
# Mechanical properties :
#
#
# Convention : Reuss Voigt Hill
#
# Bulk Modulus (GPa) = 51.23993 55.64920 53.44457
# Shear Modulus (GPa) = 63.56755 22.65533 43.11144
#
# Velocity S-wave (km/s) = 5.34790 3.19264 4.40415
# Velocity P-wave (km/s) = 7.82221 6.21515 7.06453
#
# Compressibility (1/GPa) = 0.01951603
#
# Stress axis : x y z
#
# Youngs Moduli (GPa) = 114.74302 77.63893 68.93532
#
# Poissons Ratio (x) = 0.20016 0.23185
# Poissons Ratio (y) = 0.29581 0.16210
# Poissons Ratio (z) = 0.38592 0.18256
#
# Static dielectric constant tensor:
#      x y z
#    x 1.822090 0.000000 0.000000 
#    y 0.000000 1.798210 0.000000 
#    z 0.000000 0.000000 1.837140 
# 
# From -- ./inp_files/11033.got.cif
#   From: 2010.05.17/outbox.cif.g08.bks.cpg/sg56_6_cif.got.tgz:11033.got - 2010.06.03 13:42:01.
