data_PCOD9432541
_publ_section_title
;
Structure prediction by ZEFSAII (Michael W. Deem and Ramdas Pophale) SiO2 
 PCOD9432541
Probable space group: P C C N
;
_chemical_formula_sum "Si O2"
_cell_formula_units_Z 48
_cell_length_a 14.212966
_cell_length_b 7.924511
_cell_length_c 18.107192
_cell_angle_alpha 90.000000
_cell_angle_beta 90.000000
_cell_angle_gamma 90.000000
_cell_volume 2039.427619
_symmetry_space_group_name_H-M "P C C N"
_symmetry_group_IT_number 56
_symmetry_cell_setting 'orthorhombic'
loop_
_space_group_symop_operation_xyz
x,y,z
1/2-x,1/2-y,z
1/2+x,-y,1/2-z
-x,1/2+y,1/2-z
-x,-y,-z
1/2+x,1/2+y,-z
1/2-x,y,1/2+z
x,1/2-y,1/2+z
loop_
_atom_site_type_symbol
_atom_site_label
_atom_site_fract_x
_atom_site_fract_y
_atom_site_fract_z
Si Si1 0.036874 0.649566 0.075367
Si Si2 0.849755 0.827477 0.055693
Si Si3 0.857236 0.266556 0.786980
Si Si4 0.853342 0.299464 0.547764
Si Si5 0.018523 0.820654 0.333082
Si Si6 0.347625 0.157458 0.265238
O O1 0.075772 0.759468 0.143267
O O2 0.942233 0.720284 0.038786
O O3 0.014319 0.474714 0.115852
O O4 0.116719 0.663182 0.013305
O O5 0.750000 0.750000 0.034619
O O6 0.851810 0.834539 0.145835
O O7 0.852501 0.010786 0.018910
O O8 0.750000 0.250000 0.809471
O O9 0.894541 0.143210 0.722782
O O10 0.859257 0.460031 0.756843
O O11 0.750000 0.250000 0.577266
O O12 0.933266 0.305046 0.609980
O O13 0.934186 0.760296 0.280468
O O14 0.250000 0.250000 0.243684
#
# Coordination Sequence:
#
# PCOD9432541 Si02
#       6
#     8   8   8   8   8   8
#     4  11  25  44  65  99 141 178 226 286 339 408
#     4  11  23  41  68  99 134 179 225 281 339 410
#     4  11  23  39  66  99 132 181 228 281 339 399
#     4  12  25  45  69  98 136 185 230 279 345 414
#     4  11  23  42  67 100 131 181 230 282 342 401
#     4  10  23  39  65 102 141 173 224 284 339 401
#
# _framework density 23.536014000000002
#
# number of rings (size 3 to 8) (size 9 to 14) (size 15 to 20)
#    0.000    1.000    3.333    3.000    4.667    1.333 
#    0.000    4.167    0.000    0.000    0.000    0.000 
#    0.000    0.000    0.000    0.000    0.000    0.000 
#
# Total GULP energy -268153.527872 kJ/mol
# GULP energy per Si atom -5586.531831 kJ/mol
# Density = 2.348244 g / cm^3
# Si number density = 23.536014 Si / 1000 Ang^3
#
#
#
# Elastic Constant Matrix: (Units=GPa)
#
#
# Indices 1 2 3 4 5 6 
#
# 1 145.1204 33.0214 26.8352 0.0000 0.0000 0.0000
# 2 33.0214 67.6519 16.5327 0.0000 0.0000 0.0000
# 3 26.8352 16.5327 58.9655 0.0000 0.0000 0.0000
# 4 0.0000 0.0000 0.0000 15.0448 0.0000 0.0000
# 5 0.0000 0.0000 0.0000 0.0000 28.5642 0.0000
# 6 0.0000 0.0000 0.0000 0.0000 0.0000 33.2867
#
#
#
# Elastic Compliance Matrix: (Units=1/GPa)
#
#
# Indices 1 2 3 4 5 6 
#
# 1 0.008157 -0.003301 -0.002787 0.000000 0.000000 0.000000
# 2 -0.003301 0.017204 -0.003322 0.000000 0.000000 0.000000
# 3 -0.002787 -0.003322 0.019159 0.000000 0.000000 0.000000
# 4 0.000000 0.000000 0.000000 0.066468 0.000000 0.000000
# 5 0.000000 0.000000 0.000000 0.000000 0.035009 0.000000
# 6 0.000000 0.000000 0.000000 0.000000 0.000000 0.030042
#
#
# Mechanical properties :
#
#
# Convention : Reuss Voigt Hill
#
# Bulk Modulus (GPa) = 38.90753 47.16851 43.03802
# Shear Modulus (GPa) = 24.57909 28.40237 26.49073
#
# Velocity S-wave (km/s) = 3.23510 3.47762 3.35855
# Velocity P-wave (km/s) = 5.52462 6.01744 5.77629
#
# Compressibility (1/GPa) = 0.02570196
#
# Stress axis : x y z
#
# Youngs Moduli (GPa) = 122.59109 58.12492 52.19554
#
# Poissons Ratio (x) = 0.19184 0.14547
# Poissons Ratio (y) = 0.40461 0.17338
# Poissons Ratio (z) = 0.34165 0.19307
#
# Static dielectric constant tensor:
#      x y z
#    x 1.888140 0.000000 0.000000 
#    y 0.000000 1.905110 0.000000 
#    z 0.000000 0.000000 1.889510 
# 
# From -- ./inp_files/16186.got.cif
#   From: 2010.05.17/outbox.cif.g08.bks.cpg/sg56_9_cif.got.tgz:16186.got - 2010.06.03 13:42:01.
