data_PCOD9432065
_publ_section_title
;
Structure prediction by ZEFSAII (Michael W. Deem and Ramdas Pophale) SiO2 
 PCOD9432065
Probable space group: P C C N
;
_chemical_formula_sum "Si O2"
_cell_formula_units_Z 52
_cell_length_a 10.736214
_cell_length_b 21.649391
_cell_length_c 9.041783
_cell_angle_alpha 90.000000
_cell_angle_beta 90.000000
_cell_angle_gamma 90.000000
_cell_volume 2101.604180
_symmetry_space_group_name_H-M "P C C N"
_symmetry_group_IT_number 56
_symmetry_cell_setting 'orthorhombic'
loop_
_space_group_symop_operation_xyz
x,y,z
1/2-x,1/2-y,z
1/2+x,-y,1/2-z
-x,1/2+y,1/2-z
-x,-y,-z
1/2+x,1/2+y,-z
1/2-x,y,1/2+z
x,1/2-y,1/2+z
loop_
_atom_site_type_symbol
_atom_site_label
_atom_site_fract_x
_atom_site_fract_y
_atom_site_fract_z
Si Si1 0.327274 0.080213 0.609010
Si Si2 0.255453 0.626483 0.568094
Si Si3 0.582060 0.365437 0.182541
Si Si4 0.361686 0.488671 0.807662
Si Si5 0.750000 0.750000 0.140027
Si Si6 0.875482 0.823069 0.400293
Si Si7 0.579409 0.086104 0.170518
O O1 0.434278 0.128753 0.661049
O O2 0.267371 0.036832 0.736247
O O3 0.375264 0.040660 0.470613
O O4 0.212009 0.120361 0.550479
O O5 0.165387 0.660637 0.451658
O O6 0.358920 0.661074 0.667314
O O7 0.334192 0.576429 0.472290
O O8 0.160383 0.596750 0.683927
O O9 0.616441 0.438643 0.187523
O O10 0.472699 0.462237 0.705899
O O11 0.813933 0.798865 0.248928
O O12 0.643002 0.774178 0.029701
O O13 0.009974 0.849350 0.365499
#
# Coordination Sequence:
#
# PCOD9432065 Si02
#       7
#     8   8   8   8   4   8   8
#     4  11  23  37  61  86 124 162 200 260 297 363
#     4  10  23  38  56  84 113 175 196 248 285 352
#     4  11  23  37  56  83 123 167 216 246 292 344
#     4  11  23  36  55  87 122 165 210 260 290 337
#     4  10  22  40  70  96 116 144 180 264 320 378
#     4  10  22  41  65  98 117 146 197 247 325 360
#     4  10  22  40  59  85 124 155 208 243 295 370
#
# _framework density 24.743003999999999
#
# number of rings (size 3 to 8) (size 9 to 14) (size 15 to 20)
#    0.000    1.538    1.538    3.231   10.769    0.615 
#    0.000    0.000    0.000    2.769    0.000    0.000 
#    0.000    0.000    0.000    0.000    0.000    0.000 
#
# Total GULP energy -290752.415732 kJ/mol
# GULP energy per Si atom -5591.392610 kJ/mol
# Density = 2.468669 g / cm^3
# Si number density = 24.743004 Si / 1000 Ang^3
#
#
#
# Elastic Constant Matrix: (Units=GPa)
#
#
# Indices 1 2 3 4 5 6 
#
# 1 138.7769 3.3309 54.0299 0.0000 0.0000 0.0000
# 2 3.3309 28.2333 16.0277 0.0000 0.0000 0.0000
# 3 54.0299 16.0277 143.8568 0.0000 0.0000 0.0000
# 4 0.0000 0.0000 0.0000 14.9124 0.0000 0.0000
# 5 0.0000 0.0000 0.0000 0.0000 45.8505 0.0000
# 6 0.0000 0.0000 0.0000 0.0000 0.0000 18.8930
#
#
#
# Elastic Compliance Matrix: (Units=1/GPa)
#
#
# Indices 1 2 3 4 5 6 
#
# 1 0.008459 0.000860 -0.003273 0.000000 0.000000 0.000000
# 2 0.000860 0.037898 -0.004545 0.000000 0.000000 0.000000
# 3 -0.003273 -0.004545 0.008687 0.000000 0.000000 0.000000
# 4 0.000000 0.000000 0.000000 0.067058 0.000000 0.000000
# 5 0.000000 0.000000 0.000000 0.000000 0.021810 0.000000
# 6 0.000000 0.000000 0.000000 0.000000 0.000000 0.052930
#
#
# Mechanical properties :
#
#
# Convention : Reuss Voigt Hill
#
# Bulk Modulus (GPa) = 24.31442 50.84933 37.58188
# Shear Modulus (GPa) = 22.27483 31.76307 27.01895
#
# Velocity S-wave (km/s) = 3.00367 3.58679 3.30810
# Velocity P-wave (km/s) = 4.67734 6.14402 5.46015
#
# Compressibility (1/GPa) = 0.04112785
#
# Stress axis : x y z
#
# Youngs Moduli (GPa) = 118.21090 26.38651 115.11357
#
# Poissons Ratio (x) = -0.02269 0.37677
# Poissons Ratio (y) = -0.10167 0.52324
# Poissons Ratio (z) = 0.38691 0.11994
#
# Static dielectric constant tensor:
#      x y z
#    x 2.035100 0.000000 0.000000 
#    y 0.000000 1.990900 0.000000 
#    z 0.000000 0.000000 1.981800 
# 
# From -- ./inp_files/2860.got.cif
#   From: 2010.05.17/outbox.cif.g08.bks.cpg/sg56_2_cif.got.tgz:2860.got - 2010.06.03 13:42:01.
