data_PCOD9432423
_publ_section_title
;
Structure prediction by ZEFSAII (Michael W. Deem and Ramdas Pophale) SiO2 
 PCOD9432423
Probable space group: P C C N
;
_chemical_formula_sum "Si O2"
_cell_formula_units_Z 24
_cell_length_a 11.272876
_cell_length_b 4.871925
_cell_length_c 18.854103
_cell_angle_alpha 90.000000
_cell_angle_beta 90.000000
_cell_angle_gamma 90.000000
_cell_volume 1035.478770
_symmetry_space_group_name_H-M "P C C N"
_symmetry_group_IT_number 56
_symmetry_cell_setting 'orthorhombic'
loop_
_space_group_symop_operation_xyz
x,y,z
1/2-x,1/2-y,z
1/2+x,-y,1/2-z
-x,1/2+y,1/2-z
-x,-y,-z
1/2+x,1/2+y,-z
1/2-x,y,1/2+z
x,1/2-y,1/2+z
loop_
_atom_site_type_symbol
_atom_site_label
_atom_site_fract_x
_atom_site_fract_y
_atom_site_fract_z
Si Si1 0.332005 0.483660 0.589933
Si Si2 0.750000 0.250000 0.642028
Si Si3 0.973120 0.959293 0.705464
Si Si4 0.250000 0.250000 0.455216
O O1 0.250000 0.750000 0.584499
O O2 0.447978 0.539648 0.634741
O O3 0.348111 0.365570 0.510423
O O4 0.250000 0.250000 0.626628
O O5 0.849173 0.101954 0.688376
O O6 0.795444 0.497638 0.591618
O O7 0.035774 0.156989 0.762870
#
# Coordination Sequence:
#
# PCOD9432423 Si02
#       4
#     8   4   8   4
#     4  10  22  44  70  97 135 183 224 276 353 405
#     4  12  26  44  68 106 136 174 242 284 344 404
#     4  12  28  44  70 100 143 187 226 290 339 422
#     4  10  22  44  70 104 134 178 226 294 340 416
#
# _framework density 23.177682000000001
#
# number of rings (size 3 to 8) (size 9 to 14) (size 15 to 20)
#    1.000    0.000    1.667    4.000    7.000    2.667 
#    0.000    0.000    0.000    0.000    0.000    0.000 
#    0.000    0.000    0.000    0.000    0.000    0.000 
#
# Total GULP energy -134226.713424 kJ/mol
# GULP energy per Si atom -5592.779726 kJ/mol
# Density = 2.312493 g / cm^3
# Si number density = 23.177682 Si / 1000 Ang^3
#
#
#
# Elastic Constant Matrix: (Units=GPa)
#
#
# Indices 1 2 3 4 5 6 
#
# 1 58.7990 -5.2677 17.2265 0.0000 0.0000 0.0000
# 2 -5.2677 121.6947 9.3557 0.0000 0.0000 0.0000
# 3 17.2265 9.3557 76.3147 0.0000 0.0000 0.0000
# 4 0.0000 0.0000 0.0000 -22.7331 0.0000 0.0000
# 5 0.0000 0.0000 0.0000 0.0000 72.6214 0.0000
# 6 0.0000 0.0000 0.0000 0.0000 0.0000 8.1588
#
#
#
# Elastic Compliance Matrix: (Units=1/GPa)
#
#
# Indices 1 2 3 4 5 6 
#
# 1 0.018363 0.001124 -0.004283 0.000000 0.000000 0.000000
# 2 0.001124 0.008364 -0.001279 0.000000 0.000000 0.000000
# 3 -0.004283 -0.001279 0.014227 0.000000 0.000000 0.000000
# 4 0.000000 0.000000 0.000000 -0.043989 0.000000 0.000000
# 5 0.000000 0.000000 0.000000 0.000000 0.013770 0.000000
# 6 0.000000 0.000000 0.000000 0.000000 0.000000 0.122567
#
#
# Mechanical properties :
#
#
# Convention : Reuss Voigt Hill
#
# Bulk Modulus (GPa) = 31.17367 33.27083 32.22225
# Shear Modulus (GPa) = 32.70740 27.30901 30.00820
#
# Velocity S-wave (km/s) = 3.76062 3.43628 3.60210
# Velocity P-wave (km/s) = 5.68642 5.48907 5.58862
#
# Compressibility (1/GPa) = 0.03207836
#
# Stress axis : x y z
#
# Youngs Moduli (GPa) = 54.45865 119.55599 70.28783
#
# Poissons Ratio (x) = -0.13439 0.30103
# Poissons Ratio (y) = -0.06122 0.08991
# Poissons Ratio (z) = 0.23324 0.15293
#
# Static dielectric constant tensor:
#      x y z
#    x 2.060870 0.000000 0.000000 
#    y 0.000000 1.854570 0.000000 
#    z 0.000000 0.000000 1.901210 
# 
# From -- ./inp_files/13607.got.cif
#   From: 2010.05.17/outbox.cif.g08.bks.cpg/sg56_7_cif.got.tgz:13607.got - 2010.06.03 13:42:01.
