data_PCOD9432915
_publ_section_title
;
Structure prediction by ZEFSAII (Michael W. Deem and Ramdas Pophale) SiO2 
 PCOD9432915
Probable space group: P C C N
;
_chemical_formula_sum "Si O2"
_cell_formula_units_Z 40
_cell_length_a 5.100716
_cell_length_b 17.036288
_cell_length_c 19.869590
_cell_angle_alpha 90.000000
_cell_angle_beta 90.000000
_cell_angle_gamma 90.000000
_cell_volume 1726.613063
_symmetry_space_group_name_H-M "P C C N"
_symmetry_group_IT_number 56
_symmetry_cell_setting 'orthorhombic'
loop_
_space_group_symop_operation_xyz
x,y,z
1/2-x,1/2-y,z
1/2+x,-y,1/2-z
-x,1/2+y,1/2-z
-x,-y,-z
1/2+x,1/2+y,-z
1/2-x,y,1/2+z
x,1/2-y,1/2+z
loop_
_atom_site_type_symbol
_atom_site_label
_atom_site_fract_x
_atom_site_fract_y
_atom_site_fract_z
Si Si1 0.069453 0.923779 0.907847
Si Si2 0.003020 0.197565 0.197584
Si Si3 0.309641 0.941505 0.039235
Si Si4 0.381979 0.477022 0.791011
Si Si5 0.246586 0.656417 0.165808
O O1 0.931217 0.855873 0.866206
O O2 0.893850 0.996548 0.930332
O O3 0.240300 0.968247 0.850628
O O4 0.194108 0.892382 0.976492
O O5 0.250000 0.250000 0.214802
O O6 0.750000 0.250000 0.179317
O O7 0.911570 0.152441 0.264493
O O8 0.382349 0.886807 0.101761
O O9 0.500000 0.000000 0.000000
O O10 0.162796 0.486049 0.733274
O O11 0.480775 0.391075 0.817425
O O12 0.250000 0.750000 0.152004
#
# Coordination Sequence:
#
# PCOD9432915 Si02
#       5
#     8   8   8   8   8
#     4  10  24  43  68 103 139 186 249 288 355 436
#     4  11  26  44  72 108 145 186 241 303 364 423
#     4  10  24  46  72 102 143 196 242 292 361 444
#     4  11  24  40  74 105 137 184 236 296 355 423
#     4  10  24  45  70 104 149 181 240 302 367 422
#
# _framework density 23.166740999999998
#
# number of rings (size 3 to 8) (size 9 to 14) (size 15 to 20)
#    0.000    1.600    2.000    0.000   14.000    0.800 
#   14.400    0.000    0.000    0.000    0.000    0.000 
#    0.000    0.000    0.000    0.000    0.000    0.000 
#
# Total GULP energy -223029.323933 kJ/mol
# GULP energy per Si atom -5575.733098 kJ/mol
# Density = 2.311401 g / cm^3
# Si number density = 23.166741 Si / 1000 Ang^3
#
#
#
# Elastic Constant Matrix: (Units=GPa)
#
#
# Indices 1 2 3 4 5 6 
#
# 1 62.8027 20.3477 19.2754 0.0000 0.0000 0.0000
# 2 20.3477 109.8618 48.5311 0.0000 0.0000 0.0000
# 3 19.2754 48.5311 170.1504 0.0000 0.0000 0.0000
# 4 0.0000 0.0000 0.0000 -173.8543 0.0000 0.0000
# 5 0.0000 0.0000 0.0000 0.0000 -576.0828 0.0000
# 6 0.0000 0.0000 0.0000 0.0000 0.0000 34.9135
#
#
#
# Elastic Compliance Matrix: (Units=1/GPa)
#
#
# Indices 1 2 3 4 5 6 
#
# 1 0.017146 -0.002652 -0.001186 0.000000 0.000000 0.000000
# 2 -0.002652 0.010825 -0.002787 0.000000 0.000000 0.000000
# 3 -0.001186 -0.002787 0.006806 0.000000 0.000000 0.000000
# 4 0.000000 0.000000 0.000000 -0.005752 0.000000 0.000000
# 5 0.000000 0.000000 0.000000 0.000000 -0.001736 0.000000
# 6 0.000000 0.000000 0.000000 0.000000 0.000000 0.028642
#
#
# Mechanical properties :
#
#
# Convention : Reuss Voigt Hill
#
# Bulk Modulus (GPa) = 46.45221 57.68036 52.06629
# Shear Modulus (GPa) = 65.48184 -126.02735 -30.27276
#
# Velocity S-wave (km/s) = 5.32229 -7.38365 -3.61880
# Velocity P-wave (km/s) = 7.60683 6.90934 2.24999
#
# Compressibility (1/GPa) = 0.02152750
#
# Stress axis : x y z
#
# Youngs Moduli (GPa) = 58.32250 92.38169 146.91939
#
# Poissons Ratio (x) = 0.24497 0.17425
# Poissons Ratio (y) = 0.15466 0.40947
# Poissons Ratio (z) = 0.06917 0.25747
#
# Static dielectric constant tensor:
#      x y z
#    x 1.892890 0.000000 0.000000 
#    y 0.000000 1.972650 0.000000 
#    z 0.000000 0.000000 2.182470 
# 
# From -- ./inp_files/13814.got.cif
#   From: 2010.05.17/outbox.cif.g08.bks.cpg/sg56_7_cif.got.tgz:13814.got - 2010.06.03 13:42:01.
