data_PCOD9432000
_publ_section_title
;
Structure prediction by ZEFSAII (Michael W. Deem and Ramdas Pophale) SiO2 
 PCOD9432000
Probable space group: P C C N
;
_chemical_formula_sum "Si O2"
_cell_formula_units_Z 64
_cell_length_a 12.564763
_cell_length_b 14.779092
_cell_length_c 14.883556
_cell_angle_alpha 90.000000
_cell_angle_beta 90.000000
_cell_angle_gamma 90.000000
_cell_volume 2763.813665
_symmetry_space_group_name_H-M "P C C N"
_symmetry_group_IT_number 56
_symmetry_cell_setting 'orthorhombic'
loop_
_space_group_symop_operation_xyz
x,y,z
1/2-x,1/2-y,z
1/2+x,-y,1/2-z
-x,1/2+y,1/2-z
-x,-y,-z
1/2+x,1/2+y,-z
1/2-x,y,1/2+z
x,1/2-y,1/2+z
loop_
_atom_site_type_symbol
_atom_site_label
_atom_site_fract_x
_atom_site_fract_y
_atom_site_fract_z
Si Si1 0.098560 0.476089 0.059541
Si Si2 0.005950 0.333680 0.502405
Si Si3 0.908972 0.350514 0.319550
Si Si4 0.944367 0.805981 0.336858
Si Si5 0.987341 0.559525 0.332329
Si Si6 0.271009 0.371526 0.244533
Si Si7 0.311944 0.574497 0.710681
Si Si8 0.241652 0.149495 0.950816
O O1 0.046060 0.410239 0.132693
O O2 0.152070 0.560384 0.108065
O O3 0.190013 0.420199 0.008357
O O4 0.000000 0.500000 0.000000
O O5 0.027144 0.251858 0.573810
O O6 0.115925 0.365107 0.455080
O O7 0.926841 0.313634 0.420484
O O8 0.974413 0.415274 0.568017
O O9 0.787234 0.358440 0.287609
O O10 0.977213 0.294866 0.247249
O O11 0.953147 0.454913 0.323367
O O12 0.824030 0.811373 0.297655
O O13 0.082645 0.588940 0.267839
O O14 0.882307 0.620203 0.308815
O O15 0.229916 0.475535 0.241899
O O16 0.284811 0.348783 0.349265
O O17 0.250000 0.250000 0.990486
#
# Coordination Sequence:
#
# PCOD9432000 Si02
#       8
#     8   8   8   8   8   8   8   8
#     4  11  23  43  69 103 139 188 240 289 357 447
#     4  12  25  42  70 106 141 181 238 303 375 422
#     4  11  23  46  71 101 141 186 243 297 354 450
#     4  11  23  46  65  99 150 180 229 304 367 429
#     4  11  22  40  74 101 139 185 238 293 364 436
#     4  10  22  38  67 102 140 177 224 291 367 419
#     4  10  22  44  67  99 136 185 237 297 345 427
#     4  12  23  37  65 105 145 177 229 296 363 426
#
# _framework density 23.156410000000001
#
# number of rings (size 3 to 8) (size 9 to 14) (size 15 to 20)
#    0.000    1.000    5.000    3.375    3.500    1.000 
#    2.250    0.625    0.000    0.000    0.000    0.000 
#    0.000    0.000    0.000    0.000    0.000    0.000 
#
# Total GULP energy -357783.761934 kJ/mol
# GULP energy per Si atom -5590.371280 kJ/mol
# Density = 2.310371 g / cm^3
# Si number density = 23.156410 Si / 1000 Ang^3
#
#
#
# Elastic Constant Matrix: (Units=GPa)
#
#
# Indices 1 2 3 4 5 6 
#
# 1 112.5090 36.6283 21.5576 0.0000 0.0000 0.0000
# 2 36.6283 54.1511 17.0143 0.0000 0.0000 0.0000
# 3 21.5576 17.0143 107.3124 0.0000 0.0000 0.0000
# 4 0.0000 0.0000 0.0000 35.1952 0.0000 0.0000
# 5 0.0000 0.0000 0.0000 0.0000 40.1681 0.0000
# 6 0.0000 0.0000 0.0000 0.0000 0.0000 26.4627
#
#
#
# Elastic Compliance Matrix: (Units=1/GPa)
#
#
# Indices 1 2 3 4 5 6 
#
# 1 0.011528 -0.007441 -0.001136 0.000000 0.000000 0.000000
# 2 -0.007441 0.024238 -0.002348 0.000000 0.000000 0.000000
# 3 -0.001136 -0.002348 0.009919 0.000000 0.000000 0.000000
# 4 0.000000 0.000000 0.000000 0.028413 0.000000 0.000000
# 5 0.000000 0.000000 0.000000 0.000000 0.024895 0.000000
# 6 0.000000 0.000000 0.000000 0.000000 0.000000 0.037789
#
#
# Mechanical properties :
#
#
# Convention : Reuss Voigt Hill
#
# Bulk Modulus (GPa) = 41.95532 47.15257 44.55394
# Shear Modulus (GPa) = 30.01602 33.61668 31.81635
#
# Velocity S-wave (km/s) = 3.60422 3.81428 3.71074
# Velocity P-wave (km/s) = 5.95635 6.30913 6.13528
#
# Compressibility (1/GPa) = 0.02383488
#
# Stress axis : x y z
#
# Youngs Moduli (GPa) = 86.74293 41.25805 100.81547
#
# Poissons Ratio (x) = 0.30700 0.11454
# Poissons Ratio (y) = 0.64544 0.23672
# Poissons Ratio (z) = 0.09855 0.09688
#
# Static dielectric constant tensor:
#      x y z
#    x 1.900260 0.000000 0.000000 
#    y 0.000000 1.909260 0.000000 
#    z 0.000000 0.000000 1.898890 
# 
# From -- ./inp_files/11832.got.cif
#   From: 2010.05.17/outbox.cif.g08.bks.cpg/sg56_6_cif.got.tgz:11832.got - 2010.06.03 13:42:01.
