data_PCOD9432023
_publ_section_title
;
Structure prediction by ZEFSAII (Michael W. Deem and Ramdas Pophale) SiO2 
 PCOD9432023
Probable space group: P C C N
;
_chemical_formula_sum "Si O2"
_cell_formula_units_Z 64
_cell_length_a 11.824300
_cell_length_b 28.775551
_cell_length_c 8.627660
_cell_angle_alpha 90.000000
_cell_angle_beta 90.000000
_cell_angle_gamma 90.000000
_cell_volume 2935.567766
_symmetry_space_group_name_H-M "P C C N"
_symmetry_group_IT_number 56
_symmetry_cell_setting 'orthorhombic'
loop_
_space_group_symop_operation_xyz
x,y,z
1/2-x,1/2-y,z
1/2+x,-y,1/2-z
-x,1/2+y,1/2-z
-x,-y,-z
1/2+x,1/2+y,-z
1/2-x,y,1/2+z
x,1/2-y,1/2+z
loop_
_atom_site_type_symbol
_atom_site_label
_atom_site_fract_x
_atom_site_fract_y
_atom_site_fract_z
Si Si1 0.867538 0.995505 0.013256
Si Si2 0.976906 0.183653 0.881651
Si Si3 0.722005 0.199576 0.923323
Si Si4 0.508820 0.274854 0.220648
Si Si5 0.387887 0.610731 0.491926
Si Si6 0.150962 0.388151 0.491612
Si Si7 0.760576 0.444509 0.258201
Si Si8 0.384398 0.139343 0.849303
O O1 0.824846 0.032072 0.138963
O O2 0.838346 0.942345 0.047652
O O3 0.812024 0.013474 0.855705
O O4 0.000000 0.000000 0.000000
O O5 0.842055 0.177595 0.878534
O O6 0.999905 0.211089 0.042779
O O7 0.049317 0.137036 0.897916
O O8 0.010605 0.220578 0.750535
O O9 0.750000 0.250000 0.992931
O O10 0.657690 0.162975 0.029584
O O11 0.633407 0.210809 0.785501
O O12 0.424280 0.307939 0.316419
O O13 0.357738 0.581402 0.340064
O O14 0.310692 0.589139 0.629782
O O15 0.515743 0.614098 0.553422
O O16 0.128001 0.382485 0.676075
O O17 0.267467 0.364011 0.440738
#
# Coordination Sequence:
#
# PCOD9432023 Si02
#       8
#     8   8   8   8   8   8   8   8
#     4  11  24  43  64  94 126 160 219 267 325 384
#     4  10  22  39  62  90 127 170 208 259 316 374
#     4   9  20  36  60  94 129 163 202 258 313 378
#     4   9  21  40  59  91 129 165 208 259 311 375
#     4  10  22  42  67  94 132 164 210 259 330 385
#     4  11  24  42  66  87 125 171 215 269 320 371
#     4  10  24  41  66  96 122 169 207 267 328 387
#     4  10  23  43  62  91 128 166 214 263 311 377
#
# _framework density 21.801576000000001
#
# number of rings (size 3 to 8) (size 9 to 14) (size 15 to 20)
#    0.000    2.000    0.000    1.500    8.750    8.000 
#    4.500    5.625    0.000    0.000    0.000    0.000 
#    0.000    0.000    0.000    0.000    0.000    0.000 
#
# Total GULP energy -357945.474687 kJ/mol
# GULP energy per Si atom -5592.898042 kJ/mol
# Density = 2.175195 g / cm^3
# Si number density = 21.801576 Si / 1000 Ang^3
#
#
#
# Elastic Constant Matrix: (Units=GPa)
#
#
# Indices 1 2 3 4 5 6 
#
# 1 124.4097 29.2527 20.6118 0.0000 0.0000 0.0000
# 2 29.2527 102.1318 28.5425 0.0000 0.0000 0.0000
# 3 20.6118 28.5425 68.1211 0.0000 0.0000 0.0000
# 4 0.0000 0.0000 0.0000 25.7260 0.0000 0.0000
# 5 0.0000 0.0000 0.0000 0.0000 21.3674 0.0000
# 6 0.0000 0.0000 0.0000 0.0000 0.0000 30.3987
#
#
#
# Elastic Compliance Matrix: (Units=1/GPa)
#
#
# Indices 1 2 3 4 5 6 
#
# 1 0.008814 -0.002015 -0.001823 0.000000 0.000000 0.000000
# 2 -0.002015 0.011551 -0.004230 0.000000 0.000000 0.000000
# 3 -0.001823 -0.004230 0.017003 0.000000 0.000000 0.000000
# 4 0.000000 0.000000 0.000000 0.038871 0.000000 0.000000
# 5 0.000000 0.000000 0.000000 0.000000 0.046800 0.000000
# 6 0.000000 0.000000 0.000000 0.000000 0.000000 0.032896
#
#
# Mechanical properties :
#
#
# Convention : Reuss Voigt Hill
#
# Bulk Modulus (GPa) = 47.09710 50.16407 48.63059
# Shear Modulus (GPa) = 27.90988 29.91545 28.91267
#
# Velocity S-wave (km/s) = 3.58184 3.70830 3.64562
# Velocity P-wave (km/s) = 6.22540 6.43387 6.33049
#
# Compressibility (1/GPa) = 0.02123273
#
# Stress axis : x y z
#
# Youngs Moduli (GPa) = 113.45944 86.57584 58.81143
#
# Poissons Ratio (x) = 0.17446 0.10718
# Poissons Ratio (y) = 0.22863 0.24877
# Poissons Ratio (z) = 0.20678 0.36621
#
# Static dielectric constant tensor:
#      x y z
#    x 1.753850 0.000000 0.000000 
#    y 0.000000 1.833060 0.000000 
#    z 0.000000 0.000000 1.815480 
# 
# From -- ./inp_files/2973.got.cif
#   From: 2010.05.17/outbox.cif.g08.bks.cpg/sg56_2_cif.got.tgz:2973.got - 2010.06.03 13:42:01.
