data_PCOD9432454
_publ_section_title
;
Structure prediction by ZEFSAII (Michael W. Deem and Ramdas Pophale) SiO2 
 PCOD9432454
Probable space group: P C C N
;
_chemical_formula_sum "Si O2"
_cell_formula_units_Z 44
_cell_length_a 19.083358
_cell_length_b 6.783421
_cell_length_c 14.179868
_cell_angle_alpha 90.000000
_cell_angle_beta 90.000000
_cell_angle_gamma 90.000000
_cell_volume 1835.590314
_symmetry_space_group_name_H-M "P C C N"
_symmetry_group_IT_number 56
_symmetry_cell_setting 'orthorhombic'
loop_
_space_group_symop_operation_xyz
x,y,z
1/2-x,1/2-y,z
1/2+x,-y,1/2-z
-x,1/2+y,1/2-z
-x,-y,-z
1/2+x,1/2+y,-z
1/2-x,y,1/2+z
x,1/2-y,1/2+z
loop_
_atom_site_type_symbol
_atom_site_label
_atom_site_fract_x
_atom_site_fract_y
_atom_site_fract_z
Si Si1 0.343829 0.909759 0.386927
Si Si2 0.515073 0.307159 0.181348
Si Si3 0.250000 0.250000 0.635831
Si Si4 0.108385 0.147598 0.046224
Si Si5 0.555920 0.868358 0.133798
Si Si6 0.705791 0.985185 0.189637
O O1 0.416659 0.942222 0.332458
O O2 0.275867 0.044973 0.371523
O O3 0.319299 0.701631 0.343674
O O4 0.365743 0.946343 0.495251
O O5 0.445004 0.384956 0.131203
O O6 0.498622 0.281870 0.291046
O O7 0.533775 0.098657 0.132628
O O8 0.321813 0.266162 0.577065
O O9 0.233690 0.435437 0.705433
O O10 0.064740 0.268118 0.967278
O O11 0.635035 0.863653 0.174855
#
# Coordination Sequence:
#
# PCOD9432454 Si02
#       6
#     8   8   4   8   8   8
#     4  10  23  43  70  98 145 185 243 301 361 443
#     4  11  24  42  69 102 141 192 239 303 378 445
#     4  12  24  42  74 104 142 184 256 296 360 448
#     4  12  24  42  69 107 139 190 244 306 370 439
#     4  11  23  44  69 100 145 189 243 301 374 444
#     4  10  22  45  69  98 137 201 233 295 373 428
#
# _framework density 23.970490000000002
#
# number of rings (size 3 to 8) (size 9 to 14) (size 15 to 20)
#    0.000    1.091    1.818    4.364    2.545    0.000 
#    0.000    9.091    0.000    0.000    0.000    0.000 
#    0.000    0.000    0.000    0.000    0.000    0.000 
#
# Total GULP energy -245502.109406 kJ/mol
# GULP energy per Si atom -5579.593396 kJ/mol
# Density = 2.391593 g / cm^3
# Si number density = 23.970490 Si / 1000 Ang^3
#
#
#
# Elastic Constant Matrix: (Units=GPa)
#
#
# Indices 1 2 3 4 5 6 
#
# 1 174.8213 29.9038 50.4116 0.0000 0.0000 0.0000
# 2 29.9038 99.8746 30.4362 0.0000 0.0000 0.0000
# 3 50.4116 30.4362 101.5221 0.0000 0.0000 0.0000
# 4 0.0000 0.0000 0.0000 34.0356 0.0000 0.0000
# 5 0.0000 0.0000 0.0000 0.0000 53.3703 0.0000
# 6 0.0000 0.0000 0.0000 0.0000 0.0000 21.6006
#
#
#
# Elastic Compliance Matrix: (Units=1/GPa)
#
#
# Indices 1 2 3 4 5 6 
#
# 1 0.006785 -0.001106 -0.003038 0.000000 0.000000 0.000000
# 2 -0.001106 0.011200 -0.002808 0.000000 0.000000 0.000000
# 3 -0.003038 -0.002808 0.012200 0.000000 0.000000 0.000000
# 4 0.000000 0.000000 0.000000 0.029381 0.000000 0.000000
# 5 0.000000 0.000000 0.000000 0.000000 0.018737 0.000000
# 6 0.000000 0.000000 0.000000 0.000000 0.000000 0.046295
#
#
# Mechanical properties :
#
#
# Convention : Reuss Voigt Hill
#
# Bulk Modulus (GPa) = 61.42096 66.41347 63.91721
# Shear Modulus (GPa) = 34.73921 39.49904 37.11913
#
# Velocity S-wave (km/s) = 3.81103 4.06374 3.93941
# Velocity P-wave (km/s) = 6.71152 7.05586 6.88584
#
# Compressibility (1/GPa) = 0.01628109
#
# Stress axis : x y z
#
# Youngs Moduli (GPa) = 147.37841 89.28940 81.96407
#
# Poissons Ratio (x) = 0.09874 0.24899
# Poissons Ratio (y) = 0.16298 0.23019
# Poissons Ratio (z) = 0.44770 0.25077
#
# Static dielectric constant tensor:
#      x y z
#    x 1.899820 0.000000 0.000000 
#    y 0.000000 2.163680 0.000000 
#    z 0.000000 0.000000 1.916110 
# 
# From -- ./inp_files/12623.got.cif
#   From: 2010.05.17/outbox.cif.g08.bks.cpg/sg56_7_cif.got.tgz:12623.got - 2010.06.03 13:42:01.
