data_PCOD9432042
_publ_section_title
;
Structure prediction by ZEFSAII (Michael W. Deem and Ramdas Pophale) SiO2 
 PCOD9432042
Probable space group: P C C N
;
_chemical_formula_sum "Si O2"
_cell_formula_units_Z 48
_cell_length_a 12.971722
_cell_length_b 11.011391
_cell_length_c 17.895076
_cell_angle_alpha 90.000000
_cell_angle_beta 90.000000
_cell_angle_gamma 90.000000
_cell_volume 2556.073654
_symmetry_space_group_name_H-M "P C C N"
_symmetry_group_IT_number 56
_symmetry_cell_setting 'orthorhombic'
loop_
_space_group_symop_operation_xyz
x,y,z
1/2-x,1/2-y,z
1/2+x,-y,1/2-z
-x,1/2+y,1/2-z
-x,-y,-z
1/2+x,1/2+y,-z
1/2-x,y,1/2+z
x,1/2-y,1/2+z
loop_
_atom_site_type_symbol
_atom_site_label
_atom_site_fract_x
_atom_site_fract_y
_atom_site_fract_z
Si Si1 0.931075 0.554405 0.349061
Si Si2 0.793710 0.052121 0.581330
Si Si3 0.911507 0.286255 0.558357
Si Si4 0.161521 0.149380 0.303905
Si Si5 0.782772 0.885480 0.971607
Si Si6 0.463144 0.177809 0.411235
O O1 0.897461 0.599648 0.268299
O O2 0.830165 0.546749 0.401299
O O3 0.000998 0.655313 0.390010
O O4 0.992315 0.428381 0.358408
O O5 0.882604 0.151820 0.584340
O O6 0.689273 0.128912 0.567393
O O7 0.789858 0.966043 0.653304
O O8 0.806158 0.962324 0.510825
O O9 0.951139 0.287042 0.472878
O O10 0.250000 0.250000 0.286771
O O11 0.082909 0.215056 0.361171
O O12 0.750000 0.750000 0.951099
O O13 0.869811 0.872109 0.036566
#
# Coordination Sequence:
#
# PCOD9432042 Si02
#       6
#     8   8   8   8   8   8
#     4  11  23  38  61  91 122 159 205 246 309 366
#     4  11  20  40  64  88 122 156 204 251 301 356
#     4  10  22  39  66  90 115 162 206 251 300 361
#     4  12  24  40  61  91 128 163 198 251 315 363
#     4  11  18  39  65  83 112 163 210 246 292 364
#     4  11  20  41  64  85 121 160 201 252 299 358
#
# _framework density 18.778801999999999
#
# number of rings (size 3 to 8) (size 9 to 14) (size 15 to 20)
#    0.000    1.000    6.667    1.500    2.333    0.667 
#    0.000    3.333    0.000    0.000    0.000    0.000 
#    0.000    0.000    0.000    0.000    0.000    0.000 
#
# Total GULP energy -267924.856846 kJ/mol
# GULP energy per Si atom -5581.767851 kJ/mol
# Density = 1.873606 g / cm^3
# Si number density = 18.778802 Si / 1000 Ang^3
#
#
#
# Elastic Constant Matrix: (Units=GPa)
#
#
# Indices 1 2 3 4 5 6 
#
# 1 48.9851 16.8666 33.6306 0.0000 0.0000 0.0000
# 2 16.8666 73.9996 26.1809 0.0000 0.0000 0.0000
# 3 33.6306 26.1809 115.8253 0.0000 0.0000 0.0000
# 4 0.0000 0.0000 0.0000 13.2819 0.0000 0.0000
# 5 0.0000 0.0000 0.0000 0.0000 28.6665 0.0000
# 6 0.0000 0.0000 0.0000 0.0000 0.0000 38.3533
#
#
#
# Elastic Compliance Matrix: (Units=1/GPa)
#
#
# Indices 1 2 3 4 5 6 
#
# 1 0.026344 -0.003585 -0.006839 0.000000 0.000000 0.000000
# 2 -0.003585 0.015176 -0.002389 0.000000 0.000000 0.000000
# 3 -0.006839 -0.002389 0.011159 0.000000 0.000000 0.000000
# 4 0.000000 0.000000 0.000000 0.075290 0.000000 0.000000
# 5 0.000000 0.000000 0.000000 0.000000 0.034884 0.000000
# 6 0.000000 0.000000 0.000000 0.000000 0.000000 0.026073
#
#
# Mechanical properties :
#
#
# Convention : Reuss Voigt Hill
#
# Bulk Modulus (GPa) = 36.96437 43.57401 40.26919
# Shear Modulus (GPa) = 22.36426 26.86916 24.61671
#
# Velocity S-wave (km/s) = 3.45473 3.78673 3.62453
# Velocity P-wave (km/s) = 5.96996 6.50948 6.24554
#
# Compressibility (1/GPa) = 0.02705308
#
# Stress axis : x y z
#
# Youngs Moduli (GPa) = 37.95946 65.89321 89.60996
#
# Poissons Ratio (x) = 0.23622 0.61282
# Poissons Ratio (y) = 0.13608 0.21412
# Poissons Ratio (z) = 0.25960 0.15745
#
# Static dielectric constant tensor:
#      x y z
#    x 1.682400 0.000000 0.000000 
#    y 0.000000 1.682520 0.000000 
#    z 0.000000 0.000000 1.629330 
# 
# From -- ./inp_files/12213.got.cif
#   From: 2010.05.17/outbox.cif.g08.bks.cpg/sg56_7_cif.got.tgz:12213.got - 2010.06.03 13:42:01.
