data_PCOD9432451
_publ_section_title
;
Structure prediction by ZEFSAII (Michael W. Deem and Ramdas Pophale) SiO2 
 PCOD9432451
Probable space group: P C C N
;
_chemical_formula_sum "Si O2"
_cell_formula_units_Z 40
_cell_length_a 19.882676
_cell_length_b 5.462792
_cell_length_c 15.325021
_cell_angle_alpha 90.000000
_cell_angle_beta 90.000000
_cell_angle_gamma 90.000000
_cell_volume 1664.525982
_symmetry_space_group_name_H-M "P C C N"
_symmetry_group_IT_number 56
_symmetry_cell_setting 'orthorhombic'
loop_
_space_group_symop_operation_xyz
x,y,z
1/2-x,1/2-y,z
1/2+x,-y,1/2-z
-x,1/2+y,1/2-z
-x,-y,-z
1/2+x,1/2+y,-z
1/2-x,y,1/2+z
x,1/2-y,1/2+z
loop_
_atom_site_type_symbol
_atom_site_label
_atom_site_fract_x
_atom_site_fract_y
_atom_site_fract_z
Si Si1 0.567920 0.702210 0.369196
Si Si2 0.612323 0.826102 0.053857
Si Si3 0.172555 0.688099 0.191753
Si Si4 0.933204 0.024881 0.716653
Si Si5 0.175997 0.663991 0.495065
O O1 0.561858 0.724467 0.473100
O O2 0.638950 0.571092 0.341678
O O3 0.504484 0.562224 0.328861
O O4 0.558206 0.951039 0.316667
O O5 0.664953 0.609856 0.037498
O O6 0.629745 0.113177 0.038948
O O7 0.594982 0.811201 0.155216
O O8 0.250000 0.750000 0.219103
O O9 0.169323 0.837545 0.100179
O O10 0.123717 0.769851 0.270297
O O11 0.250000 0.750000 0.472678
#
# Coordination Sequence:
#
# PCOD9432451 Si02
#       5
#     8   8   8   8   8
#     4  11  24  46  68 102 141 187 241 299 368 422
#     4  11  25  42  71 104 140 187 241 295 355 431
#     4  10  23  44  70  99 139 189 236 294 360 435
#     4  12  24  43  71 102 141 190 241 298 359 431
#     4  10  22  45  68  99 145 189 229 294 366 420
#
# _framework density 24.030864000000001
#
# number of rings (size 3 to 8) (size 9 to 14) (size 15 to 20)
#    0.000    1.200    4.000    1.200    2.800    1.600 
#    3.600    4.000    0.000    0.000    0.000    0.000 
#    0.000    0.000    0.000    0.000    0.000    0.000 
#
# Total GULP energy -222711.356072 kJ/mol
# GULP energy per Si atom -5567.783902 kJ/mol
# Density = 2.397617 g / cm^3
# Si number density = 24.030864 Si / 1000 Ang^3
#
#
#
# Elastic Constant Matrix: (Units=GPa)
#
#
# Indices 1 2 3 4 5 6 
#
# 1 65.4253 21.7457 -6.9133 0.0000 0.0000 0.0000
# 2 21.7457 58.0156 14.4936 0.0000 0.0000 0.0000
# 3 -6.9133 14.4936 42.7755 0.0000 0.0000 0.0000
# 4 0.0000 0.0000 0.0000 -11.1578 0.0000 0.0000
# 5 0.0000 0.0000 0.0000 0.0000 -0.1733 0.0000
# 6 0.0000 0.0000 0.0000 0.0000 0.0000 33.9846
#
#
#
# Elastic Compliance Matrix: (Units=1/GPa)
#
#
# Indices 1 2 3 4 5 6 
#
# 1 0.018733 -0.008497 0.005907 0.000000 0.000000 0.000000
# 2 -0.008497 0.022685 -0.009060 0.000000 0.000000 0.000000
# 3 0.005907 -0.009060 0.027402 0.000000 0.000000 0.000000
# 4 0.000000 0.000000 0.000000 -0.089624 0.000000 0.000000
# 5 0.000000 0.000000 0.000000 0.000000 -5.770726 0.000000
# 6 0.000000 0.000000 0.000000 0.000000 0.000000 0.029425
#
#
# Mechanical properties :
#
#
# Convention : Reuss Voigt Hill
#
# Bulk Modulus (GPa) = 21.96845 24.98540 23.47693
# Shear Modulus (GPa) = -0.87357 13.65672 6.39157
#
# Velocity S-wave (km/s) = -0.60358 2.38649 1.63264
# Velocity P-wave (km/s) = 2.94548 4.24424 3.65304
#
# Compressibility (1/GPa) = 0.04551982
#
# Stress axis : x y z
#
# Youngs Moduli (GPa) = 53.38167 44.08191 36.49342
#
# Poissons Ratio (x) = 0.37457 -0.21556
# Poissons Ratio (y) = 0.45360 0.33062
# Poissons Ratio (z) = -0.31531 0.39937
#
# Static dielectric constant tensor:
#      x y z
#    x 2.053000 0.000000 0.000000 
#    y 0.000000 2.050080 0.000000 
#    z 0.000000 0.000000 1.918430 
# 
# From -- ./inp_files/13836.got.cif
#   From: 2010.05.17/outbox.cif.g08.bks.cpg/sg56_7_cif.got.tgz:13836.got - 2010.06.03 13:42:01.
