data_PCOD9432250
_publ_section_title
;
Structure prediction by ZEFSAII (Michael W. Deem and Ramdas Pophale) SiO2 
 PCOD9432250
Probable space group: P C C N
;
_chemical_formula_sum "Si O2"
_cell_formula_units_Z 32
_cell_length_a 13.423234
_cell_length_b 6.840771
_cell_length_c 14.589104
_cell_angle_alpha 90.000000
_cell_angle_beta 90.000000
_cell_angle_gamma 90.000000
_cell_volume 1339.648412
_symmetry_space_group_name_H-M "P C C N"
_symmetry_group_IT_number 56
_symmetry_cell_setting 'orthorhombic'
loop_
_space_group_symop_operation_xyz
x,y,z
1/2-x,1/2-y,z
1/2+x,-y,1/2-z
-x,1/2+y,1/2-z
-x,-y,-z
1/2+x,1/2+y,-z
1/2-x,y,1/2+z
x,1/2-y,1/2+z
loop_
_atom_site_type_symbol
_atom_site_label
_atom_site_fract_x
_atom_site_fract_y
_atom_site_fract_z
Si Si1 0.542649 0.372777 0.884739
Si Si2 0.651804 0.123849 0.014565
Si Si3 0.854500 0.761596 0.388747
Si Si4 0.062493 0.728993 0.312844
O O1 0.552674 0.218676 0.966376
O O2 0.616385 0.543995 0.917823
O O3 0.582604 0.264223 0.793666
O O4 0.448177 0.507104 0.853560
O O5 0.750000 0.250000 0.991905
O O6 0.660693 0.910633 0.971609
O O7 0.633682 0.144709 0.122560
O O8 0.750000 0.750000 0.336174
O O9 0.950527 0.812857 0.328557
#
# Coordination Sequence:
#
# PCOD9432250 Si02
#       4
#     8   8   8   8
#     4  10  23  42  64  93 135 171 213 273 328 375
#     4  12  22  42  68  97 132 172 223 268 328 386
#     4  10  22  42  65  91 131 175 209 274 329 379
#     4  10  23  42  66  96 128 174 219 268 324 400
#
# _framework density 23.886866000000001
#
# number of rings (size 3 to 8) (size 9 to 14) (size 15 to 20)
#    1.500    0.000    2.500    3.000    0.000    1.000 
#    4.500    1.250    0.000    0.000    0.000    0.000 
#    0.000    0.000    0.000    0.000    0.000    0.000 
#
# Total GULP energy -178249.830688 kJ/mol
# GULP energy per Si atom -5570.307209 kJ/mol
# Density = 2.383250 g / cm^3
# Si number density = 23.886866 Si / 1000 Ang^3
#
#
#
# Elastic Constant Matrix: (Units=GPa)
#
#
# Indices 1 2 3 4 5 6 
#
# 1 70.9498 22.0764 -0.4131 0.0000 0.0000 0.0000
# 2 22.0764 90.8889 17.0774 0.0000 0.0000 0.0000
# 3 -0.4131 17.0774 107.8875 0.0000 0.0000 0.0000
# 4 0.0000 0.0000 0.0000 -72.8672 0.0000 0.0000
# 5 0.0000 0.0000 0.0000 0.0000 -11.6087 0.0000
# 6 0.0000 0.0000 0.0000 0.0000 0.0000 13.7567
#
#
#
# Elastic Compliance Matrix: (Units=1/GPa)
#
#
# Indices 1 2 3 4 5 6 
#
# 1 0.015293 -0.003840 0.000666 0.000000 0.000000 0.000000
# 2 -0.003840 0.012304 -0.001962 0.000000 0.000000 0.000000
# 3 0.000666 -0.001962 0.009582 0.000000 0.000000 0.000000
# 4 0.000000 0.000000 0.000000 -0.013724 0.000000 0.000000
# 5 0.000000 0.000000 0.000000 0.000000 -0.086142 0.000000
# 6 0.000000 0.000000 0.000000 0.000000 0.000000 0.072692
#
#
# Mechanical properties :
#
#
# Convention : Reuss Voigt Hill
#
# Bulk Modulus (GPa) = 37.16426 38.57861 37.87143
# Shear Modulus (GPa) = 170.96517 1.25520 86.11018
#
# Velocity S-wave (km/s) = 8.46925 0.72568 6.01061
# Velocity P-wave (km/s) = 10.54656 4.10947 8.00368
#
# Compressibility (1/GPa) = 0.02690757
#
# Stress axis : x y z
#
# Youngs Moduli (GPa) = 65.38890 81.27563 104.36156
#
# Poissons Ratio (x) = 0.31208 -0.06954
# Poissons Ratio (y) = 0.25108 0.20478
# Poissons Ratio (z) = -0.04357 0.15948
#
# Static dielectric constant tensor:
#      x y z
#    x 1.995850 0.000000 0.000000 
#    y 0.000000 1.938060 0.000000 
#    z 0.000000 0.000000 1.863100 
# 
# From -- ./inp_files/7558.got.cif
#   From: 2010.05.17/outbox.cif.g08.bks.cpg/sg56_4_cif.got.tgz:7558.got - 2010.06.03 13:42:01.
