data_PCOD9432563
_publ_section_title
;
Structure prediction by ZEFSAII (Michael W. Deem and Ramdas Pophale) SiO2 
 PCOD9432563
Probable space group: P C C N
;
_chemical_formula_sum "Si O2"
_cell_formula_units_Z 56
_cell_length_a 14.423017
_cell_length_b 21.534201
_cell_length_c 7.827433
_cell_angle_alpha 90.000000
_cell_angle_beta 90.000000
_cell_angle_gamma 90.000000
_cell_volume 2431.107912
_symmetry_space_group_name_H-M "P C C N"
_symmetry_group_IT_number 56
_symmetry_cell_setting 'orthorhombic'
loop_
_space_group_symop_operation_xyz
x,y,z
1/2-x,1/2-y,z
1/2+x,-y,1/2-z
-x,1/2+y,1/2-z
-x,-y,-z
1/2+x,1/2+y,-z
1/2-x,y,1/2+z
x,1/2-y,1/2+z
loop_
_atom_site_type_symbol
_atom_site_label
_atom_site_fract_x
_atom_site_fract_y
_atom_site_fract_z
Si Si1 0.041509 0.189439 0.693917
Si Si2 0.671505 0.906705 0.695507
Si Si3 0.140805 0.030591 0.445625
Si Si4 0.548855 0.184506 0.562371
Si Si5 0.773316 0.182691 0.860766
Si Si6 0.121695 0.883832 0.441419
Si Si7 0.534957 0.941224 0.390777
O O1 0.145710 0.162447 0.727209
O O2 0.009985 0.259535 0.647432
O O3 0.983037 0.142815 0.570988
O O4 0.996769 0.181375 0.877048
O O5 0.772807 0.931625 0.641381
O O6 0.616248 0.916231 0.517206
O O7 0.636560 0.947659 0.856996
O O8 0.063476 0.040839 0.300274
O O9 0.142547 0.956153 0.455996
O O10 0.656454 0.194216 0.519759
O O11 0.535014 0.115752 0.633765
O O12 0.750000 0.250000 0.793083
O O13 0.828105 0.138833 0.732187
O O14 0.677907 0.151921 0.914713
O O15 0.500000 0.000000 0.500000
#
# Coordination Sequence:
#
# PCOD9432563 Si02
#       7
#     8   8   8   8   8   8   8
#     4  10  23  43  63  97 132 171 226 280 340 418
#     4  11  25  45  72  99 137 177 236 284 343 411
#     4  12  24  46  72 100 138 183 231 296 342 404
#     4  10  23  40  65  93 134 176 220 283 342 408
#     4  11  21  38  61  93 135 178 216 271 338 411
#     4  11  24  39  61  99 134 172 226 271 336 421
#     4  11  25  46  71 103 140 181 228 286 353 414
#
# _framework density 23.034766000000001
#
# number of rings (size 3 to 8) (size 9 to 14) (size 15 to 20)
#    0.000    1.143    2.857    3.857    6.000    2.286 
#    0.000    0.714    0.000    0.000    0.000    0.000 
#    0.000    0.000    0.000    0.000    0.000    0.000 
#
# Total GULP energy -312258.534968 kJ/mol
# GULP energy per Si atom -5576.045267 kJ/mol
# Density = 2.298234 g / cm^3
# Si number density = 23.034766 Si / 1000 Ang^3
#
#
#
# Elastic Constant Matrix: (Units=GPa)
#
#
# Indices 1 2 3 4 5 6 
#
# 1 46.8346 27.5624 -9.1516 0.0000 0.0000 0.0000
# 2 27.5624 115.8968 4.3756 0.0000 0.0000 0.0000
# 3 -9.1516 4.3756 86.8551 0.0000 0.0000 0.0000
# 4 0.0000 0.0000 0.0000 47.4393 0.0000 0.0000
# 5 0.0000 0.0000 0.0000 0.0000 33.3140 0.0000
# 6 0.0000 0.0000 0.0000 0.0000 0.0000 93.0661
#
#
#
# Elastic Compliance Matrix: (Units=1/GPa)
#
#
# Indices 1 2 3 4 5 6 
#
# 1 0.025588 -0.006199 0.003008 0.000000 0.000000 0.000000
# 2 -0.006199 0.010147 -0.001164 0.000000 0.000000 0.000000
# 3 0.003008 -0.001164 0.011889 0.000000 0.000000 0.000000
# 4 0.000000 0.000000 0.000000 0.021080 0.000000 0.000000
# 5 0.000000 0.000000 0.000000 0.000000 0.030017 0.000000
# 6 0.000000 0.000000 0.000000 0.000000 0.000000 0.010745
#
#
# Mechanical properties :
#
#
# Convention : Reuss Voigt Hill
#
# Bulk Modulus (GPa) = 25.69789 32.79547 29.24668
# Shear Modulus (GPa) = 38.12547 49.88388 44.00468
#
# Velocity S-wave (km/s) = 4.07274 4.65864 4.37551
# Velocity P-wave (km/s) = 5.77032 6.57309 6.18475
#
# Compressibility (1/GPa) = 0.03891370
#
# Stress axis : x y z
#
# Youngs Moduli (GPa) = 39.08144 98.55609 84.11097
#
# Poissons Ratio (x) = 0.61093 -0.25304
# Poissons Ratio (y) = 0.24226 0.09793
# Poissons Ratio (z) = -0.11757 0.11475
#
# Static dielectric constant tensor:
#      x y z
#    x 1.962750 0.000000 0.000000 
#    y 0.000000 2.083330 0.000000 
#    z 0.000000 0.000000 1.685290 
# 
# From -- ./inp_files/3571.got.cif
#   From: 2010.05.17/outbox.cif.g08.bks.cpg/sg56_2_cif.got.tgz:3571.got - 2010.06.03 13:42:01.
