data_PCOD9432881
_publ_section_title
;
Structure prediction by ZEFSAII (Michael W. Deem and Ramdas Pophale) SiO2 
 PCOD9432881
Probable space group: P C C N
;
_chemical_formula_sum "Si O2"
_cell_formula_units_Z 32
_cell_length_a 15.800669
_cell_length_b 10.437360
_cell_length_c 8.270089
_cell_angle_alpha 90.000000
_cell_angle_beta 90.000000
_cell_angle_gamma 90.000000
_cell_volume 1363.880505
_symmetry_space_group_name_H-M "P C C N"
_symmetry_group_IT_number 56
_symmetry_cell_setting 'orthorhombic'
loop_
_space_group_symop_operation_xyz
x,y,z
1/2-x,1/2-y,z
1/2+x,-y,1/2-z
-x,1/2+y,1/2-z
-x,-y,-z
1/2+x,1/2+y,-z
1/2-x,y,1/2+z
x,1/2-y,1/2+z
loop_
_atom_site_type_symbol
_atom_site_label
_atom_site_fract_x
_atom_site_fract_y
_atom_site_fract_z
Si Si1 0.912635 0.935656 0.448380
Si Si2 0.876739 0.438835 0.440535
Si Si3 0.951617 0.680683 0.600422
Si Si4 0.720175 0.394609 0.277891
O O1 0.905815 0.813960 0.565904
O O2 0.926373 0.870166 0.274459
O O3 0.840511 0.040178 0.411840
O O4 0.000000 0.000000 0.500000
O O5 0.923150 0.573073 0.472222
O O6 0.810996 0.462297 0.296283
O O7 0.825957 0.405242 0.605522
O O8 0.945843 0.327723 0.407274
O O9 0.750000 0.250000 0.312212
#
# Coordination Sequence:
#
# PCOD9432881 Si02
#       4
#     8   8   8   8
#     4  11  26  44  73 105 142 198 242 307 368 442
#     4  10  24  42  67 101 141 191 239 307 360 435
#     4  10  25  44  68 102 147 192 247 299 372 442
#     4  11  24  42  68 106 139 187 242 305 366 431
#
# _framework density 23.462467
#
# number of rings (size 3 to 8) (size 9 to 14) (size 15 to 20)
#    0.000    1.500    0.000    2.250   17.500    1.000 
#    0.000    5.000    0.000    0.000    0.000    0.000 
#    0.000    0.000    0.000    0.000    0.000    0.000 
#
# Total GULP energy -178852.394071 kJ/mol
# GULP energy per Si atom -5589.137315 kJ/mol
# Density = 2.340907 g / cm^3
# Si number density = 23.462467 Si / 1000 Ang^3
#
#
#
# Elastic Constant Matrix: (Units=GPa)
#
#
# Indices 1 2 3 4 5 6 
#
# 1 121.4617 41.5805 18.4183 0.0000 0.0000 0.0000
# 2 41.5805 131.8700 22.7556 0.0000 0.0000 0.0000
# 3 18.4183 22.7556 67.3852 0.0000 0.0000 0.0000
# 4 0.0000 0.0000 0.0000 37.9605 0.0000 0.0000
# 5 0.0000 0.0000 0.0000 0.0000 43.4218 0.0000
# 6 0.0000 0.0000 0.0000 0.0000 0.0000 42.0519
#
#
#
# Elastic Compliance Matrix: (Units=1/GPa)
#
#
# Indices 1 2 3 4 5 6 
#
# 1 0.009402 -0.002677 -0.001666 0.000000 0.000000 0.000000
# 2 -0.002677 0.008815 -0.002245 0.000000 0.000000 0.000000
# 3 -0.001666 -0.002245 0.016053 0.000000 0.000000 0.000000
# 4 0.000000 0.000000 0.000000 0.026343 0.000000 0.000000
# 5 0.000000 0.000000 0.000000 0.000000 0.023030 0.000000
# 6 0.000000 0.000000 0.000000 0.000000 0.000000 0.023780
#
#
# Mechanical properties :
#
#
# Convention : Reuss Voigt Hill
#
# Bulk Modulus (GPa) = 47.40567 54.02507 50.71537
# Shear Modulus (GPa) = 39.17545 40.55101 39.86323
#
# Velocity S-wave (km/s) = 4.09064 4.16184 4.12639
# Velocity P-wave (km/s) = 6.52379 6.79490 6.66072
#
# Compressibility (1/GPa) = 0.02109452
#
# Stress axis : x y z
#
# Youngs Moduli (GPa) = 106.35876 113.44600 62.29181
#
# Poissons Ratio (x) = 0.30372 0.10377
# Poissons Ratio (y) = 0.28474 0.13984
# Poissons Ratio (z) = 0.17717 0.25468
#
# Static dielectric constant tensor:
#      x y z
#    x 2.011400 0.000000 0.000000 
#    y 0.000000 1.932200 0.000000 
#    z 0.000000 0.000000 1.895330 
# 
# From -- ./inp_files/3069.got.cif
#   From: 2010.05.17/outbox.cif.g08.bks.cpg/sg56_2_cif.got.tgz:3069.got - 2010.06.03 13:42:01.
