data_PCOD9432681
_publ_section_title
;
Structure prediction by ZEFSAII (Michael W. Deem and Ramdas Pophale) SiO2 
 PCOD9432681
Probable space group: P C C N
;
_chemical_formula_sum "Si O2"
_cell_formula_units_Z 40
_cell_length_a 5.004528
_cell_length_b 12.380359
_cell_length_c 28.273687
_cell_angle_alpha 90.000000
_cell_angle_beta 90.000000
_cell_angle_gamma 90.000000
_cell_volume 1751.776950
_symmetry_space_group_name_H-M "P C C N"
_symmetry_group_IT_number 56
_symmetry_cell_setting 'orthorhombic'
loop_
_space_group_symop_operation_xyz
x,y,z
1/2-x,1/2-y,z
1/2+x,-y,1/2-z
-x,1/2+y,1/2-z
-x,-y,-z
1/2+x,1/2+y,-z
1/2-x,y,1/2+z
x,1/2-y,1/2+z
loop_
_atom_site_type_symbol
_atom_site_label
_atom_site_fract_x
_atom_site_fract_y
_atom_site_fract_z
Si Si1 0.499760 0.327665 0.928146
Si Si2 0.500379 0.325870 0.033588
Si Si3 0.947180 0.044915 0.124695
Si Si4 0.508028 0.463389 0.776840
Si Si5 0.750000 0.750000 0.755892
Si Si6 0.750000 0.250000 0.173918
O O1 0.250000 0.250000 0.931218
O O2 0.395852 0.425229 0.895442
O O3 0.750000 0.250000 0.913440
O O4 0.562538 0.372783 0.981272
O O5 0.250000 0.250000 0.027514
O O6 0.430869 0.400453 0.078118
O O7 0.750000 0.250000 0.045513
O O8 0.742176 0.138763 0.142898
O O9 0.096333 0.012292 0.173046
O O10 0.775379 0.462200 0.745853
O O11 0.354545 0.348730 0.776500
O O12 0.505838 0.738383 0.792570
#
# Coordination Sequence:
#
# PCOD9432681 Si02
#       6
#     8   8   8   8   4   4
#     4  10  25  47  68 102 142 180 224 282 350 417
#     4  10  23  43  71 102 137 178 225 287 349 406
#     4  12  25  45  73 105 135 183 237 283 345 413
#     4  12  26  44  68  98 135 180 221 284 342 397
#     4  12  24  50  60 100 140 176 230 286 340 410
#     4  12  26  42  76  96 138 182 234 288 338 406
#
# _framework density 22.833959
#
# number of rings (size 3 to 8) (size 9 to 14) (size 15 to 20)
#    0.000    0.800    5.000    0.600    2.800    6.400 
#    1.800    6.000    0.000    0.000    0.000    0.000 
#    0.000    0.000    0.000    0.000    0.000    0.000 
#
# Total GULP energy -222684.698611 kJ/mol
# GULP energy per Si atom -5567.117465 kJ/mol
# Density = 2.278199 g / cm^3
# Si number density = 22.833959 Si / 1000 Ang^3
#
#
#
# Elastic Constant Matrix: (Units=GPa)
#
#
# Indices 1 2 3 4 5 6 
#
# 1 114.1919 21.2642 6.9618 0.0000 0.0000 0.0000
# 2 21.2642 133.7340 53.0074 0.0000 0.0000 0.0000
# 3 6.9618 53.0074 107.5909 0.0000 0.0000 0.0000
# 4 0.0000 0.0000 0.0000 72.3597 0.0000 0.0000
# 5 0.0000 0.0000 0.0000 0.0000 26.5048 0.0000
# 6 0.0000 0.0000 0.0000 0.0000 0.0000 13.9315
#
#
#
# Elastic Compliance Matrix: (Units=1/GPa)
#
#
# Indices 1 2 3 4 5 6 
#
# 1 0.009026 -0.001496 0.000153 0.000000 0.000000 0.000000
# 2 -0.001496 0.009540 -0.004603 0.000000 0.000000 0.000000
# 3 0.000153 -0.004603 0.011553 0.000000 0.000000 0.000000
# 4 0.000000 0.000000 0.000000 0.013820 0.000000 0.000000
# 5 0.000000 0.000000 0.000000 0.000000 0.037729 0.000000
# 6 0.000000 0.000000 0.000000 0.000000 0.000000 0.071780
#
#
# Mechanical properties :
#
#
# Convention : Reuss Voigt Hill
#
# Bulk Modulus (GPa) = 54.86553 57.55372 56.20963
# Shear Modulus (GPa) = 29.16887 40.84477 35.00682
#
# Velocity S-wave (km/s) = 3.57800 4.23398 3.91973
# Velocity P-wave (km/s) = 6.41480 7.01157 6.71981
#
# Compressibility (1/GPa) = 0.01822638
#
# Stress axis : x y z
#
# Youngs Moduli (GPa) = 110.78599 104.82223 86.56131
#
# Poissons Ratio (x) = 0.15680 -0.01323
# Poissons Ratio (y) = 0.16572 0.39847
# Poissons Ratio (z) = -0.01694 0.48253
#
# Static dielectric constant tensor:
#      x y z
#    x 1.778030 0.000000 0.000000 
#    y 0.000000 1.441300 0.000000 
#    z 0.000000 0.000000 1.922460 
# 
# From -- ./inp_files/21579.got.cif
#   From: 2010.05.17/outbox.cif.g08.bks.cpg/sg56_11_cif.got.tgz:21579.got - 2010.06.03 13:42:01.
