data_PCOD9432489
_publ_section_title
;
Structure prediction by ZEFSAII (Michael W. Deem and Ramdas Pophale) SiO2 
 PCOD9432489
Probable space group: P C C N
;
_chemical_formula_sum "Si O2"
_cell_formula_units_Z 56
_cell_length_a 14.370331
_cell_length_b 14.117295
_cell_length_c 11.733210
_cell_angle_alpha 90.000000
_cell_angle_beta 90.000000
_cell_angle_gamma 90.000000
_cell_volume 2380.318683
_symmetry_space_group_name_H-M "P C C N"
_symmetry_group_IT_number 56
_symmetry_cell_setting 'orthorhombic'
loop_
_space_group_symop_operation_xyz
x,y,z
1/2-x,1/2-y,z
1/2+x,-y,1/2-z
-x,1/2+y,1/2-z
-x,-y,-z
1/2+x,1/2+y,-z
1/2-x,y,1/2+z
x,1/2-y,1/2+z
loop_
_atom_site_type_symbol
_atom_site_label
_atom_site_fract_x
_atom_site_fract_y
_atom_site_fract_z
Si Si1 0.550641 0.780636 0.185787
Si Si2 0.093998 0.740374 0.853411
Si Si3 0.335927 0.057537 0.250649
Si Si4 0.790228 0.393788 0.305068
Si Si5 0.750000 0.750000 0.726863
Si Si6 0.510709 0.432407 0.890941
Si Si7 0.250000 0.750000 0.021723
Si Si8 0.052795 0.096262 0.533070
O O1 0.465583 0.805452 0.269075
O O2 0.643941 0.776633 0.265167
O O3 0.517383 0.681490 0.121750
O O4 0.575108 0.851144 0.084598
O O5 0.168220 0.683824 0.778731
O O6 0.019807 0.664776 0.901234
O O7 0.157793 0.779916 0.953355
O O8 0.286012 0.146024 0.314641
O O9 0.435778 0.031420 0.300407
O O10 0.359325 0.081605 0.117770
O O11 0.269167 0.969708 0.259656
O O12 0.729244 0.340476 0.399927
O O13 0.882228 0.440370 0.357125
O O14 0.500000 0.500000 0.000000
O O15 0.000000 0.000000 0.500000
#
# Coordination Sequence:
#
# PCOD9432489 Si02
#       8
#     8   8   8   8   4   8   4   8
#     4  10  24  47  73 101 142 186 240 291 357 425
#     4  11  23  48  68 101 144 185 236 294 353 431
#     4  11  25  45  72 107 142 185 236 298 354 425
#     4  11  25  46  69 110 140 183 242 288 366 425
#     4  10  22  46  74 102 138 184 238 284 354 424
#     4  10  23  47  71 105 144 186 238 290 357 430
#     4  12  26  44  74 104 140 188 238 296 358 430
#     4  12  25  45  71 102 143 186 236 294 362 422
#
# _framework density 23.526260000000001
#
# number of rings (size 3 to 8) (size 9 to 14) (size 15 to 20)
#    0.000    1.143    4.286    3.000    4.000    5.143 
#    7.714    1.429    0.000    0.000    0.000    0.000 
#    0.000    0.000    0.000    0.000    0.000    0.000 
#
# Total GULP energy -312077.944946 kJ/mol
# GULP energy per Si atom -5572.820445 kJ/mol
# Density = 2.347271 g / cm^3
# Si number density = 23.526260 Si / 1000 Ang^3
#
#
#
# Elastic Constant Matrix: (Units=GPa)
#
#
# Indices 1 2 3 4 5 6 
#
# 1 112.6185 20.4190 19.4636 0.0000 0.0000 0.0000
# 2 20.4190 52.3315 15.4828 0.0000 0.0000 0.0000
# 3 19.4636 15.4828 54.9294 0.0000 0.0000 0.0000
# 4 0.0000 0.0000 0.0000 24.3563 0.0000 0.0000
# 5 0.0000 0.0000 0.0000 0.0000 32.4969 0.0000
# 6 0.0000 0.0000 0.0000 0.0000 0.0000 30.1768
#
#
#
# Elastic Compliance Matrix: (Units=1/GPa)
#
#
# Indices 1 2 3 4 5 6 
#
# 1 0.009894 -0.003080 -0.002638 0.000000 0.000000 0.000000
# 2 -0.003080 0.021806 -0.005055 0.000000 0.000000 0.000000
# 3 -0.002638 -0.005055 0.020565 0.000000 0.000000 0.000000
# 4 0.000000 0.000000 0.000000 0.041057 0.000000 0.000000
# 5 0.000000 0.000000 0.000000 0.000000 0.030772 0.000000
# 6 0.000000 0.000000 0.000000 0.000000 0.000000 0.033138
#
#
# Mechanical properties :
#
#
# Convention : Reuss Voigt Hill
#
# Bulk Modulus (GPa) = 32.55283 36.73447 34.64365
# Shear Modulus (GPa) = 26.45256 28.37358 27.41307
#
# Velocity S-wave (km/s) = 3.35682 3.47657 3.41722
# Velocity P-wave (km/s) = 5.37505 5.63592 5.50703
#
# Compressibility (1/GPa) = 0.03071929
#
# Stress axis : x y z
#
# Youngs Moduli (GPa) = 101.07302 45.85819 48.62706
#
# Poissons Ratio (x) = 0.14125 0.12826
# Poissons Ratio (y) = 0.31131 0.24582
# Poissons Ratio (z) = 0.26659 0.23182
#
# Static dielectric constant tensor:
#      x y z
#    x 1.873690 0.000000 0.000000 
#    y 0.000000 1.923430 0.000000 
#    z 0.000000 0.000000 1.973290 
# 
# From -- ./inp_files/7933.got.cif
#   From: 2010.05.17/outbox.cif.g08.bks.cpg/sg56_4_cif.got.tgz:7933.got - 2010.06.03 13:42:01.
