data_PCOD9432458
_publ_section_title
;
Structure prediction by ZEFSAII (Michael W. Deem and Ramdas Pophale) SiO2 
 PCOD9432458
Probable space group: P C C N
;
_chemical_formula_sum "Si O2"
_cell_formula_units_Z 40
_cell_length_a 8.077274
_cell_length_b 18.433538
_cell_length_c 9.420270
_cell_angle_alpha 90.000000
_cell_angle_beta 90.000000
_cell_angle_gamma 90.000000
_cell_volume 1402.609786
_symmetry_space_group_name_H-M "P C C N"
_symmetry_group_IT_number 56
_symmetry_cell_setting 'orthorhombic'
loop_
_space_group_symop_operation_xyz
x,y,z
1/2-x,1/2-y,z
1/2+x,-y,1/2-z
-x,1/2+y,1/2-z
-x,-y,-z
1/2+x,1/2+y,-z
1/2-x,y,1/2+z
x,1/2-y,1/2+z
loop_
_atom_site_type_symbol
_atom_site_label
_atom_site_fract_x
_atom_site_fract_y
_atom_site_fract_z
Si Si1 0.418762 0.201786 0.841571
Si Si2 0.316914 0.450731 0.090849
Si Si3 0.955064 0.575459 0.692220
Si Si4 0.107689 0.697866 0.445554
Si Si5 0.119710 0.588778 0.982107
O O1 0.250000 0.250000 0.836865
O O2 0.481591 0.187567 0.682954
O O3 0.533909 0.259212 0.923204
O O4 0.472834 0.129260 0.932191
O O5 0.213681 0.416518 0.217482
O O6 0.472560 0.495333 0.154899
O O7 0.388280 0.402472 0.963329
O O8 0.178284 0.508241 0.028454
O O9 0.084245 0.598529 0.814150
O O10 0.250000 0.750000 0.381962
O O11 0.209873 0.631066 0.508021
#
# Coordination Sequence:
#
# PCOD9432458 Si02
#       5
#     8   8   8   8   8
#     4  11  24  45  69 106 138 173 237 302 345 414
#     4  11  24  46  71 104 144 185 235 292 345 427
#     4  11  24  45  69 103 144 181 239 289 346 419
#     4  10  22  45  72  96 138 182 231 285 353 437
#     4  11  23  45  74  99 138 197 230 281 364 423
#
# _framework density 28.518266000000001
#
# number of rings (size 3 to 8) (size 9 to 14) (size 15 to 20)
#    0.000    1.200    2.000    4.200    0.000    1.600 
#   18.000    0.000    0.000    0.000    0.000    0.000 
#    0.000    0.000    0.000    0.000    0.000    0.000 
#
# Total GULP energy -223861.404734 kJ/mol
# GULP energy per Si atom -5596.535118 kJ/mol
# Density = 2.845336 g / cm^3
# Si number density = 28.518266 Si / 1000 Ang^3
#
#
#
# Elastic Constant Matrix: (Units=GPa)
#
#
# Indices 1 2 3 4 5 6 
#
# 1 158.9638 13.0996 43.3119 0.0000 0.0000 0.0000
# 2 13.0996 101.4835 41.0097 0.0000 0.0000 0.0000
# 3 43.3119 41.0097 242.2723 0.0000 0.0000 0.0000
# 4 0.0000 0.0000 0.0000 45.9532 0.0000 0.0000
# 5 0.0000 0.0000 0.0000 0.0000 57.8067 0.0000
# 6 0.0000 0.0000 0.0000 0.0000 0.0000 48.5759
#
#
#
# Elastic Compliance Matrix: (Units=1/GPa)
#
#
# Indices 1 2 3 4 5 6 
#
# 1 0.006628 -0.000404 -0.001117 0.000000 0.000000 0.000000
# 2 -0.000404 0.010602 -0.001722 0.000000 0.000000 0.000000
# 3 -0.001117 -0.001722 0.004619 0.000000 0.000000 0.000000
# 4 0.000000 0.000000 0.000000 0.021761 0.000000 0.000000
# 5 0.000000 0.000000 0.000000 0.000000 0.017299 0.000000
# 6 0.000000 0.000000 0.000000 0.000000 0.000000 0.020586
#
#
# Mechanical properties :
#
#
# Convention : Reuss Voigt Hill
#
# Bulk Modulus (GPa) = 65.09331 77.50689 71.30010
# Shear Modulus (GPa) = 53.70397 57.48704 55.59550
#
# Velocity S-wave (km/s) = 4.34423 4.49463 4.42007
# Velocity P-wave (km/s) = 6.93093 7.36021 7.14879
#
# Compressibility (1/GPa) = 0.01536256
#
# Stress axis : x y z
#
# Youngs Moduli (GPa) = 150.86881 94.32168 216.50980
#
# Poissons Ratio (x) = 0.03814 0.24173
# Poissons Ratio (y) = 0.06101 0.37290
# Poissons Ratio (z) = 0.16845 0.16245
#
# Static dielectric constant tensor:
#      x y z
#    x 2.300680 0.000000 0.000000 
#    y 0.000000 2.384220 0.000000 
#    z 0.000000 0.000000 2.182100 
# 
# From -- ./inp_files/2047.got.cif
#   From: 2010.05.17/outbox.cif.g08.bks.cpg/sg56_2_cif.got.tgz:2047.got - 2010.06.03 13:42:01.
