data_PCOD9432311
_publ_section_title
;
Structure prediction by ZEFSAII (Michael W. Deem and Ramdas Pophale) SiO2 
 PCOD9432311
Probable space group: P C C N
;
_chemical_formula_sum "Si O2"
_cell_formula_units_Z 64
_cell_length_a 18.284293
_cell_length_b 10.723969
_cell_length_c 15.181103
_cell_angle_alpha 90.000000
_cell_angle_beta 90.000000
_cell_angle_gamma 90.000000
_cell_volume 2976.713581
_symmetry_space_group_name_H-M "P C C N"
_symmetry_group_IT_number 56
_symmetry_cell_setting 'orthorhombic'
loop_
_space_group_symop_operation_xyz
x,y,z
1/2-x,1/2-y,z
1/2+x,-y,1/2-z
-x,1/2+y,1/2-z
-x,-y,-z
1/2+x,1/2+y,-z
1/2-x,y,1/2+z
x,1/2-y,1/2+z
loop_
_atom_site_type_symbol
_atom_site_label
_atom_site_fract_x
_atom_site_fract_y
_atom_site_fract_z
Si Si1 0.972557 0.574303 0.415349
Si Si2 0.666593 0.032072 0.876151
Si Si3 0.566004 0.921913 0.724408
Si Si4 0.079071 0.019100 0.453520
Si Si5 0.826835 0.266597 0.263512
Si Si6 0.833500 0.726276 0.147558
Si Si7 0.458307 0.791238 0.840910
Si Si8 0.323714 0.051438 0.678216
O O1 0.012356 0.509225 0.331530
O O2 0.003515 0.714357 0.417773
O O3 0.000000 0.500000 0.500000
O O4 0.886579 0.579047 0.393535
O O5 0.604502 0.980783 0.809851
O O6 0.677544 0.175064 0.846837
O O7 0.741334 0.955857 0.859574
O O8 0.638029 0.022598 0.974341
O O9 0.628926 0.859126 0.666231
O O10 0.516017 0.811260 0.763315
O O11 0.071648 0.922732 0.373610
O O12 0.111323 0.148131 0.415086
O O13 0.000000 0.000000 0.500000
O O14 0.750000 0.250000 0.215578
O O15 0.889760 0.220828 0.199553
O O16 0.838366 0.409243 0.289949
O O17 0.750000 0.750000 0.115906
O O18 0.827743 0.647315 0.239717
#
# Coordination Sequence:
#
# PCOD9432311 Si02
#       8
#     8   8   8   8   8   8   8   8
#     4  12  28  43  69 107 143 186 242 305 361 430
#     4  11  25  46  71 100 138 186 241 291 366 437
#     4  12  24  43  73 100 132 187 239 287 357 445
#     4  12  28  45  70 110 143 184 238 308 372 432
#     4  10  22  42  71  95 132 185 233 281 349 434
#     4  12  26  47  76 104 143 190 245 301 370 445
#     4  12  24  44  73  99 139 188 236 296 361 442
#     4  11  23  48  69 101 141 188 235 293 363 435
#
# _framework density 21.500222000000001
#
# number of rings (size 3 to 8) (size 9 to 14) (size 15 to 20)
#    0.000    0.500    7.500    0.000    5.250    1.000 
#    4.500    0.000    0.000    0.000    0.000    0.000 
#    0.000    0.000    0.000    0.000    0.000    0.000 
#
# Total GULP energy -357514.010814 kJ/mol
# GULP energy per Si atom -5586.156419 kJ/mol
# Density = 2.145129 g / cm^3
# Si number density = 21.500222 Si / 1000 Ang^3
#
#
#
# Elastic Constant Matrix: (Units=GPa)
#
#
# Indices 1 2 3 4 5 6 
#
# 1 126.8554 -0.5502 30.4290 0.0000 0.0000 0.0000
# 2 -0.5502 40.5053 -16.0001 0.0000 0.0000 0.0000
# 3 30.4290 -16.0001 38.3249 0.0000 0.0000 0.0000
# 4 0.0000 0.0000 0.0000 29.8293 0.0000 0.0000
# 5 0.0000 0.0000 0.0000 0.0000 34.6811 0.0000
# 6 0.0000 0.0000 0.0000 0.0000 0.0000 32.9407
#
#
#
# Elastic Compliance Matrix: (Units=1/GPa)
#
#
# Indices 1 2 3 4 5 6 
#
# 1 0.010170 -0.003654 -0.009600 0.000000 0.000000 0.000000
# 2 -0.003654 0.030876 0.015792 0.000000 0.000000 0.000000
# 3 -0.009600 0.015792 0.040308 0.000000 0.000000 0.000000
# 4 0.000000 0.000000 0.000000 0.033524 0.000000 0.000000
# 5 0.000000 0.000000 0.000000 0.000000 0.028834 0.000000
# 6 0.000000 0.000000 0.000000 0.000000 0.000000 0.030358
#
#
# Mechanical properties :
#
#
# Convention : Reuss Voigt Hill
#
# Bulk Modulus (GPa) = 11.57018 25.93812 18.75415
# Shear Modulus (GPa) = 25.27743 32.27733 28.77738
#
# Velocity S-wave (km/s) = 3.43254 3.87881 3.66248
# Velocity P-wave (km/s) = 4.59379 5.67014 5.16011
#
# Compressibility (1/GPa) = 0.08642905
#
# Stress axis : x y z
#
# Youngs Moduli (GPa) = 98.32882 32.38715 24.80909
#
# Poissons Ratio (x) = 0.11834 0.23817
# Poissons Ratio (y) = 0.35930 -0.39178
# Poissons Ratio (z) = 0.94398 -0.51145
#
# Static dielectric constant tensor:
#      x y z
#    x 1.809030 0.000000 0.000000 
#    y 0.000000 1.685080 0.000000 
#    z 0.000000 0.000000 1.764410 
# 
# From -- ./inp_files/12875.got.cif
#   From: 2010.05.17/outbox.cif.g08.bks.cpg/sg56_7_cif.got.tgz:12875.got - 2010.06.03 13:42:01.
