data_PCOD9432491
_publ_section_title
;
Structure prediction by ZEFSAII (Michael W. Deem and Ramdas Pophale) SiO2 
 PCOD9432491
Probable space group: P C C N
;
_chemical_formula_sum "Si O2"
_cell_formula_units_Z 40
_cell_length_a 8.748738
_cell_length_b 10.059200
_cell_length_c 18.912898
_cell_angle_alpha 90.000000
_cell_angle_beta 90.000000
_cell_angle_gamma 90.000000
_cell_volume 1664.435362
_symmetry_space_group_name_H-M "P C C N"
_symmetry_group_IT_number 56
_symmetry_cell_setting 'orthorhombic'
loop_
_space_group_symop_operation_xyz
x,y,z
1/2-x,1/2-y,z
1/2+x,-y,1/2-z
-x,1/2+y,1/2-z
-x,-y,-z
1/2+x,1/2+y,-z
1/2-x,y,1/2+z
x,1/2-y,1/2+z
loop_
_atom_site_type_symbol
_atom_site_label
_atom_site_fract_x
_atom_site_fract_y
_atom_site_fract_z
Si Si1 0.792987 0.047559 0.813821
Si Si2 0.026354 0.630682 0.547774
Si Si3 0.250000 0.250000 0.142870
Si Si4 0.250000 0.250000 0.370925
Si Si5 0.537918 0.533225 0.683664
Si Si6 0.081121 0.800304 0.418952
O O1 0.862957 0.095634 0.887329
O O2 0.624136 0.104206 0.802678
O O3 0.746227 0.891744 0.819694
O O4 0.910460 0.058735 0.749259
O O5 0.081392 0.755949 0.500792
O O6 0.000000 0.500000 0.500000
O O7 0.865003 0.668763 0.580545
O O8 0.416746 0.261107 0.104904
O O9 0.343216 0.349812 0.323628
O O10 0.558016 0.449105 0.610839
O O11 0.250000 0.750000 0.392197
#
# Coordination Sequence:
#
# PCOD9432491 Si02
#       6
#     8   8   4   4   8   8
#     4  11  25  47  77 114 153 198 260 319 396 473
#     4  12  26  47  76 111 153 203 256 322 394 469
#     4  10  22  46  74 112 149 201 250 330 388 470
#     4  12  28  48  74 112 157 207 260 322 392 466
#     4  11  27  49  76 113 155 202 260 323 394 469
#     4  11  25  46  75 108 153 203 255 319 394 465
#
# _framework density 24.032173
#
# number of rings (size 3 to 8) (size 9 to 14) (size 15 to 20)
#    0.000    0.800    2.000    3.600    8.400    2.400 
#    0.000    0.000    0.000    0.000    0.000    0.000 
#    0.000    0.000    0.000    0.000    0.000    0.000 
#
# Total GULP energy -223406.667578 kJ/mol
# GULP energy per Si atom -5585.166689 kJ/mol
# Density = 2.397747 g / cm^3
# Si number density = 24.032173 Si / 1000 Ang^3
#
#
#
# Elastic Constant Matrix: (Units=GPa)
#
#
# Indices 1 2 3 4 5 6 
#
# 1 199.8573 3.5329 59.1120 0.0000 0.0000 0.0000
# 2 3.5329 44.2193 35.0062 0.0000 0.0000 0.0000
# 3 59.1120 35.0062 136.3616 0.0000 0.0000 0.0000
# 4 0.0000 0.0000 0.0000 -70.1011 0.0000 0.0000
# 5 0.0000 0.0000 0.0000 0.0000 41.4301 0.0000
# 6 0.0000 0.0000 0.0000 0.0000 0.0000 40.2289
#
#
#
# Elastic Compliance Matrix: (Units=1/GPa)
#
#
# Indices 1 2 3 4 5 6 
#
# 1 0.005869 0.001939 -0.003042 0.000000 0.000000 0.000000
# 2 0.001939 0.029024 -0.008292 0.000000 0.000000 0.000000
# 3 -0.003042 -0.008292 0.010781 0.000000 0.000000 0.000000
# 4 0.000000 0.000000 0.000000 -0.014265 0.000000 0.000000
# 5 0.000000 0.000000 0.000000 0.000000 0.024137 0.000000
# 6 0.000000 0.000000 0.000000 0.000000 0.000000 0.024858
#
#
# Mechanical properties :
#
#
# Convention : Reuss Voigt Hill
#
# Bulk Modulus (GPa) = 37.19562 63.97116 50.58339
# Shear Modulus (GPa) = 46.23074 21.16406 33.69740
#
# Velocity S-wave (km/s) = 4.39076 2.97080 3.74863
# Velocity P-wave (km/s) = 6.41997 6.20035 6.31112
#
# Compressibility (1/GPa) = 0.02688489
#
# Stress axis : x y z
#
# Youngs Moduli (GPa) = 170.38568 34.45471 92.75813
#
# Poissons Ratio (x) = -0.06682 0.28218
# Poissons Ratio (y) = -0.33043 0.76911
# Poissons Ratio (z) = 0.51832 0.28568
#
# Static dielectric constant tensor:
#      x y z
#    x 1.992920 0.000000 0.000000 
#    y 0.000000 1.904760 0.000000 
#    z 0.000000 0.000000 1.936470 
# 
# From -- ./inp_files/14505.got.cif
#   From: 2010.05.17/outbox.cif.g08.bks.cpg/sg56_8_cif.got.tgz:14505.got - 2010.06.03 13:42:01.
