data_PCOD9432856
_publ_section_title
;
Structure prediction by ZEFSAII (Michael W. Deem and Ramdas Pophale) SiO2 
 PCOD9432856
Probable space group: P C C N
;
_chemical_formula_sum "Si O2"
_cell_formula_units_Z 32
_cell_length_a 5.439797
_cell_length_b 26.653585
_cell_length_c 9.203836
_cell_angle_alpha 90.000000
_cell_angle_beta 90.000000
_cell_angle_gamma 90.000000
_cell_volume 1334.465026
_symmetry_space_group_name_H-M "P C C N"
_symmetry_group_IT_number 56
_symmetry_cell_setting 'orthorhombic'
loop_
_space_group_symop_operation_xyz
x,y,z
1/2-x,1/2-y,z
1/2+x,-y,1/2-z
-x,1/2+y,1/2-z
-x,-y,-z
1/2+x,1/2+y,-z
1/2-x,y,1/2+z
x,1/2-y,1/2+z
loop_
_atom_site_type_symbol
_atom_site_label
_atom_site_fract_x
_atom_site_fract_y
_atom_site_fract_z
Si Si1 0.075128 0.366709 0.573818
Si Si2 0.432934 0.888491 0.003849
Si Si3 0.169015 0.306832 0.850870
Si Si4 0.972643 0.017241 0.330506
O O1 0.326917 0.397633 0.593293
O O2 0.087611 0.322321 0.690437
O O3 0.112201 0.341941 0.413324
O O4 0.827198 0.397331 0.566270
O O5 0.456194 0.829179 0.044098
O O6 0.466065 0.922458 0.145238
O O7 0.250000 0.250000 0.862734
O O8 0.214905 0.999753 0.242360
O O9 0.000000 0.000000 0.500000
#
# Coordination Sequence:
#
# PCOD9432856 Si02
#       4
#     8   8   8   8
#     4  10  24  41  68  95 136 178 220 284 341 412
#     4  10  26  43  70  97 143 172 236 282 362 402
#     4  10  24  44  68  99 135 180 232 278 347 414
#     4  12  28  46  77 106 145 190 249 303 372 440
#
# _framework density 23.979645000000001
#
# number of rings (size 3 to 8) (size 9 to 14) (size 15 to 20)
#    1.500    0.000    0.000    3.000   10.500    1.000 
#    0.000    0.000    0.000    0.000    0.000    0.000 
#    0.000    0.000    0.000    0.000    0.000    0.000 
#
# Total GULP energy -178408.360073 kJ/mol
# GULP energy per Si atom -5575.261252 kJ/mol
# Density = 2.392507 g / cm^3
# Si number density = 23.979645 Si / 1000 Ang^3
#
#
#
# Elastic Constant Matrix: (Units=GPa)
#
#
# Indices 1 2 3 4 5 6 
#
# 1 204.8991 6.0478 53.4709 0.0000 0.0000 0.0000
# 2 6.0478 81.1222 19.6552 0.0000 0.0000 0.0000
# 3 53.4709 19.6552 115.1855 0.0000 0.0000 0.0000
# 4 0.0000 0.0000 0.0000 36.0464 0.0000 0.0000
# 5 0.0000 0.0000 0.0000 0.0000 6.6932 0.0000
# 6 0.0000 0.0000 0.0000 0.0000 0.0000 16.1705
#
#
#
# Elastic Compliance Matrix: (Units=1/GPa)
#
#
# Indices 1 2 3 4 5 6 
#
# 1 0.005557 0.000220 -0.002617 0.000000 0.000000 0.000000
# 2 0.000220 0.012867 -0.002298 0.000000 0.000000 0.000000
# 3 -0.002617 -0.002298 0.010289 0.000000 0.000000 0.000000
# 4 0.000000 0.000000 0.000000 0.027742 0.000000 0.000000
# 5 0.000000 0.000000 0.000000 0.000000 0.149404 0.000000
# 6 0.000000 0.000000 0.000000 0.000000 0.000000 0.061841
#
#
# Mechanical properties :
#
#
# Convention : Reuss Voigt Hill
#
# Bulk Modulus (GPa) = 51.75200 62.17271 56.96236
# Shear Modulus (GPa) = 17.63473 33.25090 25.44282
#
# Velocity S-wave (km/s) = 2.71478 3.72779 3.26086
# Velocity P-wave (km/s) = 5.60849 6.67174 6.16309
#
# Compressibility (1/GPa) = 0.01932292
#
# Stress axis : x y z
#
# Youngs Moduli (GPa) = 179.95543 77.71572 97.19453
#
# Poissons Ratio (x) = -0.01708 0.25437
# Poissons Ratio (y) = -0.03956 0.22333
# Poissons Ratio (z) = 0.47097 0.17857
#
# Static dielectric constant tensor:
#      x y z
#    x 1.971840 0.000000 0.000000 
#    y 0.000000 1.997910 0.000000 
#    z 0.000000 0.000000 1.950760 
# 
# From -- ./inp_files/1587.got.cif
#   From: 2010.05.17/outbox.cif.g08.bks.cpg/sg56_1_cif.got.tgz:1587.got - 2010.06.03 13:42:01.
