data_PCOD9432479
_publ_section_title
;
Structure prediction by ZEFSAII (Michael W. Deem and Ramdas Pophale) SiO2 
 PCOD9432479
Probable space group: P C C N
;
_chemical_formula_sum "Si O2"
_cell_formula_units_Z 40
_cell_length_a 13.433438
_cell_length_b 12.153060
_cell_length_c 9.364386
_cell_angle_alpha 90.000000
_cell_angle_beta 90.000000
_cell_angle_gamma 90.000000
_cell_volume 1528.805105
_symmetry_space_group_name_H-M "P C C N"
_symmetry_group_IT_number 56
_symmetry_cell_setting 'orthorhombic'
loop_
_space_group_symop_operation_xyz
x,y,z
1/2-x,1/2-y,z
1/2+x,-y,1/2-z
-x,1/2+y,1/2-z
-x,-y,-z
1/2+x,1/2+y,-z
1/2-x,y,1/2+z
x,1/2-y,1/2+z
loop_
_atom_site_type_symbol
_atom_site_label
_atom_site_fract_x
_atom_site_fract_y
_atom_site_fract_z
Si Si1 0.370212 0.862670 0.238545
Si Si2 0.489826 0.773080 0.979312
Si Si3 0.188795 0.514179 0.771745
Si Si4 0.298902 0.133939 0.046953
Si Si5 0.522209 0.937245 0.647429
O O1 0.415109 0.839177 0.082958
O O2 0.426396 0.789252 0.357328
O O3 0.251569 0.873860 0.246164
O O4 0.393892 0.989189 0.281650
O O5 0.585407 0.837008 0.917449
O O6 0.537111 0.685403 0.091938
O O7 0.197219 0.457789 0.924526
O O8 0.224573 0.419011 0.662690
O O9 0.075927 0.547486 0.741370
O O10 0.250000 0.250000 0.002153
O O11 0.500000 0.000000 0.500000
#
# Coordination Sequence:
#
# PCOD9432479 Si02
#       5
#     8   8   8   8   8
#     4  11  25  46  73 108 150 196 248 311 376 452
#     4  11  25  45  74 105 152 198 248 307 378 457
#     4  12  26  47  75 110 152 196 249 318 385 443
#     4  12  25  42  77 113 142 194 260 316 376 448
#     4  10  22  46  70 105 150 193 237 314 373 438
#
# _framework density 26.164224000000001
#
# number of rings (size 3 to 8) (size 9 to 14) (size 15 to 20)
#    0.000    0.800    2.000    6.600    5.600    3.200 
#    0.000    4.000    0.000    0.000    0.000    0.000 
#    0.000    0.000    0.000    0.000    0.000    0.000 
#
# Total GULP energy -224210.716615 kJ/mol
# GULP energy per Si atom -5605.267915 kJ/mol
# Density = 2.610467 g / cm^3
# Si number density = 26.164224 Si / 1000 Ang^3
#
#
#
# Elastic Constant Matrix: (Units=GPa)
#
#
# Indices 1 2 3 4 5 6 
#
# 1 113.1839 -3.1368 -6.8528 0.0000 0.0000 0.0000
# 2 -3.1368 103.4397 14.4675 0.0000 0.0000 0.0000
# 3 -6.8528 14.4675 58.8933 0.0000 0.0000 0.0000
# 4 0.0000 0.0000 0.0000 39.7929 0.0000 0.0000
# 5 0.0000 0.0000 0.0000 0.0000 32.7669 0.0000
# 6 0.0000 0.0000 0.0000 0.0000 0.0000 47.0437
#
#
#
# Elastic Compliance Matrix: (Units=1/GPa)
#
#
# Indices 1 2 3 4 5 6 
#
# 1 0.008900 0.000129 0.001004 0.000000 0.000000 0.000000
# 2 0.000129 0.010013 -0.002445 0.000000 0.000000 0.000000
# 3 0.001004 -0.002445 0.017697 0.000000 0.000000 0.000000
# 4 0.000000 0.000000 0.000000 0.025130 0.000000 0.000000
# 5 0.000000 0.000000 0.000000 0.000000 0.030519 0.000000
# 6 0.000000 0.000000 0.000000 0.000000 0.000000 0.021257
#
#
# Mechanical properties :
#
#
# Convention : Reuss Voigt Hill
#
# Bulk Modulus (GPa) = 29.42300 31.60808 30.51554
# Shear Modulus (GPa) = 39.22561 41.98996 40.60778
#
# Velocity S-wave (km/s) = 3.87616 4.01042 3.94386
# Velocity P-wave (km/s) = 5.59489 5.79236 5.69448
#
# Compressibility (1/GPa) = 0.03398702
#
# Stress axis : x y z
#
# Youngs Moduli (GPa) = 112.36538 99.86692 56.50607
#
# Poissons Ratio (x) = -0.01293 -0.05672
# Poissons Ratio (y) = -0.01455 0.13814
# Poissons Ratio (z) = -0.11279 0.24415
#
# Static dielectric constant tensor:
#      x y z
#    x 2.016640 0.000000 0.000000 
#    y 0.000000 2.039730 0.000000 
#    z 0.000000 0.000000 2.049320 
# 
# From -- ./inp_files/3236.got.cif
#   From: 2010.05.17/outbox.cif.g08.bks.cpg/sg56_2_cif.got.tgz:3236.got - 2010.06.03 13:42:01.
