data_PCOD9432160
_publ_section_title
;
Structure prediction by ZEFSAII (Michael W. Deem and Ramdas Pophale) SiO2 
 PCOD9432160
Probable space group: P C C N
;
_chemical_formula_sum "Si O2"
_cell_formula_units_Z 32
_cell_length_a 6.683944
_cell_length_b 13.210243
_cell_length_c 16.571415
_cell_angle_alpha 90.000000
_cell_angle_beta 90.000000
_cell_angle_gamma 90.000000
_cell_volume 1463.198350
_symmetry_space_group_name_H-M "P C C N"
_symmetry_group_IT_number 56
_symmetry_cell_setting 'orthorhombic'
loop_
_space_group_symop_operation_xyz
x,y,z
1/2-x,1/2-y,z
1/2+x,-y,1/2-z
-x,1/2+y,1/2-z
-x,-y,-z
1/2+x,1/2+y,-z
1/2-x,y,1/2+z
x,1/2-y,1/2+z
loop_
_atom_site_type_symbol
_atom_site_label
_atom_site_fract_x
_atom_site_fract_y
_atom_site_fract_z
Si Si1 0.239961 0.040514 0.366786
Si Si2 0.959908 0.874789 0.413466
Si Si3 0.750000 0.750000 0.548236
Si Si4 0.750000 0.250000 0.698051
Si Si5 0.426579 0.404927 0.196628
O O1 0.299289 0.152549 0.396899
O O2 0.162549 0.041506 0.274800
O O3 0.440530 0.975019 0.361336
O O4 0.064165 0.986191 0.418688
O O5 0.915919 0.802112 0.489677
O O6 0.756632 0.873601 0.360653
O O7 0.124141 0.822205 0.358637
O O8 0.574979 0.180597 0.735118
#
# Coordination Sequence:
#
# PCOD9432160 Si02
#       5
#     8   8   4   4   8
#     4  11  26  43  71 101 136 184 238 285 349 408
#     4  11  23  48  65 101 141 175 227 289 350 408
#     4  12  26  44  68 102 142 184 224 284 358 432
#     4  10  22  40  76  92 136 182 226 278 344 400
#     4  11  22  44  72 100 135 182 233 290 332 413
#
# _framework density 21.869897999999999
#
# number of rings (size 3 to 8) (size 9 to 14) (size 15 to 20)
#    0.000    1.000    5.000    0.750    3.500    1.000 
#    4.500    0.000    0.000    0.000    0.000    0.000 
#    0.000    0.000    0.000    0.000    0.000    0.000 
#
# Total GULP energy -178212.473666 kJ/mol
# GULP energy per Si atom -5569.139802 kJ/mol
# Density = 2.182012 g / cm^3
# Si number density = 21.869898 Si / 1000 Ang^3
#
#
#
# Elastic Constant Matrix: (Units=GPa)
#
#
# Indices 1 2 3 4 5 6 
#
# 1 132.0912 52.8454 25.0452 0.0000 0.0000 0.0000
# 2 52.8454 134.6840 20.1809 0.0000 0.0000 0.0000
# 3 25.0452 20.1809 55.9384 0.0000 0.0000 0.0000
# 4 0.0000 0.0000 0.0000 35.4120 0.0000 0.0000
# 5 0.0000 0.0000 0.0000 0.0000 -57.5127 0.0000
# 6 0.0000 0.0000 0.0000 0.0000 0.0000 33.8956
#
#
#
# Elastic Compliance Matrix: (Units=1/GPa)
#
#
# Indices 1 2 3 4 5 6 
#
# 1 0.009451 -0.003250 -0.003059 0.000000 0.000000 0.000000
# 2 -0.003250 0.008967 -0.001780 0.000000 0.000000 0.000000
# 3 -0.003059 -0.001780 0.019888 0.000000 0.000000 0.000000
# 4 0.000000 0.000000 0.000000 0.028239 0.000000 0.000000
# 5 0.000000 0.000000 0.000000 0.000000 -0.017387 0.000000
# 6 0.000000 0.000000 0.000000 0.000000 0.000000 0.029502
#
#
# Mechanical properties :
#
#
# Convention : Reuss Voigt Hill
#
# Bulk Modulus (GPa) = 45.19028 57.65074 51.42051
# Shear Modulus (GPa) = 48.91754 17.33514 33.12634
#
# Velocity S-wave (km/s) = 4.73456 2.81846 3.89614
# Velocity P-wave (km/s) = 7.11310 6.08355 6.61838
#
# Compressibility (1/GPa) = 0.02212865
#
# Stress axis : x y z
#
# Youngs Moduli (GPa) = 105.81299 111.52528 50.28034
#
# Poissons Ratio (x) = 0.36243 0.15380
# Poissons Ratio (y) = 0.34387 0.08949
# Poissons Ratio (z) = 0.32367 0.19850
#
# Static dielectric constant tensor:
#      x y z
#    x 1.693810 0.000000 0.000000 
#    y 0.000000 1.986180 0.000000 
#    z 0.000000 0.000000 1.779100 
# 
# From -- ./inp_files/13726.got.cif
#   From: 2010.05.17/outbox.cif.g08.bks.cpg/sg56_7_cif.got.tgz:13726.got - 2010.06.03 13:42:01.
