data_PCOD9432486
_publ_section_title
;
Structure prediction by ZEFSAII (Michael W. Deem and Ramdas Pophale) SiO2 
 PCOD9432486
Probable space group: P C C N
;
_chemical_formula_sum "Si O2"
_cell_formula_units_Z 32
_cell_length_a 4.928235
_cell_length_b 22.099788
_cell_length_c 10.380956
_cell_angle_alpha 90.000000
_cell_angle_beta 90.000000
_cell_angle_gamma 90.000000
_cell_volume 1130.620528
_symmetry_space_group_name_H-M "P C C N"
_symmetry_group_IT_number 56
_symmetry_cell_setting 'orthorhombic'
loop_
_space_group_symop_operation_xyz
x,y,z
1/2-x,1/2-y,z
1/2+x,-y,1/2-z
-x,1/2+y,1/2-z
-x,-y,-z
1/2+x,1/2+y,-z
1/2-x,y,1/2+z
x,1/2-y,1/2+z
loop_
_atom_site_type_symbol
_atom_site_label
_atom_site_fract_x
_atom_site_fract_y
_atom_site_fract_z
Si Si1 0.027164 0.022867 0.235332
Si Si2 0.988272 0.141286 0.521438
Si Si3 0.250000 0.250000 0.617360
Si Si4 0.119097 0.659100 0.244854
Si Si5 0.000000 0.500000 0.000000
O O1 0.051870 0.096058 0.232955
O O2 0.252388 0.995582 0.354973
O O3 0.779664 0.007764 0.354580
O O4 0.795537 0.158126 0.402801
O O5 0.864961 0.149790 0.660719
O O6 0.206926 0.193629 0.521641
O O7 0.058578 0.072613 0.503998
O O8 0.469409 0.219563 0.711876
#
# Coordination Sequence:
#
# PCOD9432486 Si02
#       5
#     8   8   4   8   4
#     4  11  23  44  72 109 151 197 250 323 389 474
#     4  11  25  49  74 112 149 207 257 332 398 484
#     4  12  26  46  74 110 152 208 264 326 394 488
#     4  11  26  46  76 108 153 202 261 320 399 478
#     4  10  22  46  72 110 148 202 258 324 402 470
#
# _framework density 28.303044
#
# number of rings (size 3 to 8) (size 9 to 14) (size 15 to 20)
#    0.000    1.000    2.500    3.000    0.000    7.000 
#   13.500    0.000    0.000    0.000    0.000    0.000 
#    0.000    0.000    0.000    0.000    0.000    0.000 
#
# Total GULP energy -178385.993788 kJ/mol
# GULP energy per Si atom -5574.562306 kJ/mol
# Density = 2.823863 g / cm^3
# Si number density = 28.303044 Si / 1000 Ang^3
#
#
#
# Elastic Constant Matrix: (Units=GPa)
#
#
# Indices 1 2 3 4 5 6 
#
# 1 180.6017 62.4597 17.4848 0.0000 0.0000 0.0000
# 2 62.4597 284.7292 42.6493 0.0000 0.0000 0.0000
# 3 17.4848 42.6493 169.7656 0.0000 0.0000 0.0000
# 4 0.0000 0.0000 0.0000 39.0860 0.0000 0.0000
# 5 0.0000 0.0000 0.0000 0.0000 29.0412 0.0000
# 6 0.0000 0.0000 0.0000 0.0000 0.0000 43.5619
#
#
#
# Elastic Compliance Matrix: (Units=1/GPa)
#
#
# Indices 1 2 3 4 5 6 
#
# 1 0.006006 -0.001273 -0.000299 0.000000 0.000000 0.000000
# 2 -0.001273 0.003919 -0.000853 0.000000 0.000000 0.000000
# 3 -0.000299 -0.000853 0.006136 0.000000 0.000000 0.000000
# 4 0.000000 0.000000 0.000000 0.025585 0.000000 0.000000
# 5 0.000000 0.000000 0.000000 0.000000 0.034434 0.000000
# 6 0.000000 0.000000 0.000000 0.000000 0.000000 0.022956
#
#
# Mechanical properties :
#
#
# Convention : Reuss Voigt Hill
#
# Bulk Modulus (GPa) = 89.20012 97.80932 93.50472
# Shear Modulus (GPa) = 46.45872 56.50467 51.48170
#
# Velocity S-wave (km/s) = 4.05591 4.47298 4.26954
# Velocity P-wave (km/s) = 7.31562 7.83004 7.57720
#
# Compressibility (1/GPa) = 0.01121075
#
# Stress axis : x y z
#
# Youngs Moduli (GPa) = 166.49577 255.15687 162.98127
#
# Poissons Ratio (x) = 0.32476 0.04871
# Poissons Ratio (y) = 0.21191 0.13910
# Poissons Ratio (z) = 0.04976 0.21778
#
# Static dielectric constant tensor:
#      x y z
#    x 5.539030 0.000000 0.000000 
#    y 0.000000 2.113470 0.000000 
#    z 0.000000 0.000000 3.296110 
# 
# From -- ./inp_files/5448.got.cif
#   From: 2010.05.17/outbox.cif.g08.bks.cpg/sg56_3_cif.got.tgz:5448.got - 2010.06.03 13:42:01.
