data_PCOD9432914
_publ_section_title
;
Structure prediction by ZEFSAII (Michael W. Deem and Ramdas Pophale) SiO2 
 PCOD9432914
Probable space group: P C C N
;
_chemical_formula_sum "Si O2"
_cell_formula_units_Z 56
_cell_length_a 21.165508
_cell_length_b 8.463784
_cell_length_c 14.503597
_cell_angle_alpha 90.000000
_cell_angle_beta 90.000000
_cell_angle_gamma 90.000000
_cell_volume 2598.178543
_symmetry_space_group_name_H-M "P C C N"
_symmetry_group_IT_number 56
_symmetry_cell_setting 'orthorhombic'
loop_
_space_group_symop_operation_xyz
x,y,z
1/2-x,1/2-y,z
1/2+x,-y,1/2-z
-x,1/2+y,1/2-z
-x,-y,-z
1/2+x,1/2+y,-z
1/2-x,y,1/2+z
x,1/2-y,1/2+z
loop_
_atom_site_type_symbol
_atom_site_label
_atom_site_fract_x
_atom_site_fract_y
_atom_site_fract_z
Si Si1 0.810207 0.635923 0.533238
Si Si2 0.119181 0.376332 0.090042
Si Si3 0.786972 0.586710 0.737422
Si Si4 0.444458 0.641032 0.184732
Si Si5 0.993575 0.196716 0.143186
Si Si6 0.703145 0.392337 0.865936
Si Si7 0.544912 0.144531 0.971716
O O1 0.750000 0.750000 0.538173
O O2 0.863115 0.751748 0.490043
O O3 0.818813 0.564691 0.636401
O O4 0.796571 0.510088 0.453112
O O5 0.166368 0.394526 0.175622
O O6 0.055885 0.305187 0.134453
O O7 0.109338 0.549728 0.046520
O O8 0.750000 0.750000 0.731421
O O9 0.735037 0.462152 0.772610
O O10 0.481467 0.476270 0.170683
O O11 0.449096 0.713928 0.285297
O O12 0.371228 0.632930 0.154257
O O13 0.477051 0.774033 0.121575
O O14 0.957948 0.215497 0.045787
O O15 0.750000 0.250000 0.890038
O O16 0.500000 0.000000 0.000000
#
# Coordination Sequence:
#
# PCOD9432914 Si02
#       7
#     8   8   8   8   8   8   8
#     4  11  23  42  73 103 141 192 236 297 369 444
#     4  11  20  44  70 104 145 186 243 298 356 437
#     4  11  22  42  73 105 139 192 239 289 370 441
#     4  12  25  47  70 103 144 193 237 316 362 439
#     4  11  24  43  71 102 143 190 249 293 370 433
#     4  12  25  47  68 105 150 180 242 302 362 436
#     4  10  24  43  67  97 134 185 234 298 351 432
#
# _framework density 21.553560000000001
#
# number of rings (size 3 to 8) (size 9 to 14) (size 15 to 20)
#    0.000    0.857    4.286    3.000    0.000    6.286 
#    7.714    0.000    0.000    0.000    0.000    0.000 
#    0.000    0.000    0.000    0.000    0.000    0.000 
#
# Total GULP energy -312436.719477 kJ/mol
# GULP energy per Si atom -5579.227134 kJ/mol
# Density = 2.150450 g / cm^3
# Si number density = 21.553560 Si / 1000 Ang^3
#
#
#
# Elastic Constant Matrix: (Units=GPa)
#
#
# Indices 1 2 3 4 5 6 
#
# 1 65.3607 30.6175 35.0445 0.0000 0.0000 0.0000
# 2 30.6175 90.2903 -1.2860 0.0000 0.0000 0.0000
# 3 35.0445 -1.2860 94.6295 0.0000 0.0000 0.0000
# 4 0.0000 0.0000 0.0000 9.5635 0.0000 0.0000
# 5 0.0000 0.0000 0.0000 0.0000 8.5223 0.0000
# 6 0.0000 0.0000 0.0000 0.0000 0.0000 26.0584
#
#
#
# Elastic Compliance Matrix: (Units=1/GPa)
#
#
# Indices 1 2 3 4 5 6 
#
# 1 0.023997 -0.008265 -0.008999 0.000000 0.000000 0.000000
# 2 -0.008265 0.013924 0.003250 0.000000 0.000000 0.000000
# 3 -0.008999 0.003250 0.013944 0.000000 0.000000 0.000000
# 4 0.000000 0.000000 0.000000 0.104564 0.000000 0.000000
# 5 0.000000 0.000000 0.000000 0.000000 0.117339 0.000000
# 6 0.000000 0.000000 0.000000 0.000000 0.000000 0.038375
#
#
# Mechanical properties :
#
#
# Convention : Reuss Voigt Hill
#
# Bulk Modulus (GPa) = 41.95188 42.11472 42.03330
# Shear Modulus (GPa) = 14.36297 21.22250 17.79273
#
# Velocity S-wave (km/s) = 2.58424 3.14130 2.87629
# Velocity P-wave (km/s) = 5.33017 5.72180 5.52945
#
# Compressibility (1/GPa) = 0.02383684
#
# Stress axis : x y z
#
# Youngs Moduli (GPa) = 41.67260 71.81596 71.71364
#
# Poissons Ratio (x) = 0.59359 0.64536
# Poissons Ratio (y) = 0.34444 -0.23308
# Poissons Ratio (z) = 0.37501 -0.23342
#
# Static dielectric constant tensor:
#      x y z
#    x 1.853830 0.000000 0.000000 
#    y 0.000000 1.781870 0.000000 
#    z 0.000000 0.000000 1.789250 
# 
# From -- ./inp_files/13055.got.cif
#   From: 2010.05.17/outbox.cif.g08.bks.cpg/sg56_7_cif.got.tgz:13055.got - 2010.06.03 13:42:01.
