data_PCOD9432391
_publ_section_title
;
Structure prediction by ZEFSAII (Michael W. Deem and Ramdas Pophale) SiO2 
 PCOD9432391
Probable space group: P C C N
;
_chemical_formula_sum "Si O2"
_cell_formula_units_Z 52
_cell_length_a 18.187902
_cell_length_b 7.576656
_cell_length_c 18.263982
_cell_angle_alpha 90.000000
_cell_angle_beta 90.000000
_cell_angle_gamma 90.000000
_cell_volume 2516.840220
_symmetry_space_group_name_H-M "P C C N"
_symmetry_group_IT_number 56
_symmetry_cell_setting 'orthorhombic'
loop_
_space_group_symop_operation_xyz
x,y,z
1/2-x,1/2-y,z
1/2+x,-y,1/2-z
-x,1/2+y,1/2-z
-x,-y,-z
1/2+x,1/2+y,-z
1/2-x,y,1/2+z
x,1/2-y,1/2+z
loop_
_atom_site_type_symbol
_atom_site_label
_atom_site_fract_x
_atom_site_fract_y
_atom_site_fract_z
Si Si1 0.812886 0.636776 0.739291
Si Si2 0.443375 0.523702 0.684504
Si Si3 0.167553 0.247007 0.427233
Si Si4 0.915822 0.049475 0.483499
Si Si5 0.750000 0.250000 0.200384
Si Si6 0.431882 0.923029 0.455298
Si Si7 0.419721 0.787209 0.813146
O O1 0.750000 0.750000 0.778476
O O2 0.891727 0.620491 0.776374
O O3 0.827437 0.730998 0.660872
O O4 0.778688 0.438224 0.732900
O O5 0.410042 0.536793 0.603566
O O6 0.432598 0.699373 0.733375
O O7 0.527683 0.457380 0.681111
O O8 0.250000 0.250000 0.454747
O O9 0.125983 0.422105 0.451205
O O10 0.129681 0.080844 0.465001
O O11 0.901888 0.250072 0.505264
O O12 0.000000 0.000000 0.500000
O O13 0.668074 0.191310 0.169902
O O14 0.449053 0.853794 0.373328
O O15 0.500000 0.000000 0.500000
#
# Coordination Sequence:
#
# PCOD9432391 Si02
#       7
#     8   8   8   8   4   8   8
#     4  10  24  42  73  96 138 178 232 287 338 407
#     4  11  25  43  65 106 130 182 229 285 348 405
#     4  11  25  44  70 105 133 186 233 275 347 416
#     4  12  26  43  68 100 147 177 226 288 344 413
#     4  10  22  44  62 108 126 176 236 284 334 414
#     4  12  24  45  69 101 136 180 231 286 338 412
#     4  11  25  41  72  98 138 181 235 281 349 413
#
# _framework density 20.660826
#
# number of rings (size 3 to 8) (size 9 to 14) (size 15 to 20)
#    0.000    0.923    6.154    0.000   10.769    1.231 
#    0.000    6.154    0.000    0.000    0.000    0.000 
#    0.000    0.000    0.000    0.000    0.000    0.000 
#
# Total GULP energy -289907.277499 kJ/mol
# GULP energy per Si atom -5575.139952 kJ/mol
# Density = 2.061380 g / cm^3
# Si number density = 20.660826 Si / 1000 Ang^3
#
#
#
# Elastic Constant Matrix: (Units=GPa)
#
#
# Indices 1 2 3 4 5 6 
#
# 1 101.5922 7.9432 26.0869 0.0000 0.0000 0.0000
# 2 7.9432 91.3025 35.2474 0.0000 0.0000 0.0000
# 3 26.0869 35.2474 112.8637 0.0000 0.0000 0.0000
# 4 0.0000 0.0000 0.0000 27.7697 0.0000 0.0000
# 5 0.0000 0.0000 0.0000 0.0000 11.2229 0.0000
# 6 0.0000 0.0000 0.0000 0.0000 0.0000 43.7115
#
#
#
# Elastic Compliance Matrix: (Units=1/GPa)
#
#
# Indices 1 2 3 4 5 6 
#
# 1 0.010464 0.000027 -0.002427 0.000000 0.000000 0.000000
# 2 0.000027 0.012454 -0.003896 0.000000 0.000000 0.000000
# 3 -0.002427 -0.003896 0.010638 0.000000 0.000000 0.000000
# 4 0.000000 0.000000 0.000000 0.036011 0.000000 0.000000
# 5 0.000000 0.000000 0.000000 0.000000 0.089103 0.000000
# 6 0.000000 0.000000 0.000000 0.000000 0.000000 0.022877
#
#
# Mechanical properties :
#
#
# Convention : Reuss Voigt Hill
#
# Bulk Modulus (GPa) = 47.70005 49.36815 48.53410
# Shear Modulus (GPa) = 24.85985 32.30623 28.58304
#
# Velocity S-wave (km/s) = 3.47253 3.95859 3.72350
# Velocity P-wave (km/s) = 6.26221 6.69629 6.48289
#
# Compressibility (1/GPa) = 0.02096434
#
# Stress axis : x y z
#
# Youngs Moduli (GPa) = 95.56211 80.29430 94.00438
#
# Poissons Ratio (x) = -0.00213 0.22815
# Poissons Ratio (y) = -0.00254 0.36620
# Poissons Ratio (z) = 0.23193 0.31279
#
# Static dielectric constant tensor:
#      x y z
#    x 1.774940 0.000000 0.000000 
#    y 0.000000 1.738910 0.000000 
#    z 0.000000 0.000000 1.782210 
# 
# From -- ./inp_files/16618.got.cif
#   From: 2010.05.17/outbox.cif.g08.bks.cpg/sg56_9_cif.got.tgz:16618.got - 2010.06.03 13:42:01.
