data_PCOD9432043
_publ_section_title
;
Structure prediction by ZEFSAII (Michael W. Deem and Ramdas Pophale) SiO2 
 PCOD9432043
Probable space group: P C C N
;
_chemical_formula_sum "Si O2"
_cell_formula_units_Z 64
_cell_length_a 23.746032
_cell_length_b 7.462149
_cell_length_c 15.272926
_cell_angle_alpha 90.000000
_cell_angle_beta 90.000000
_cell_angle_gamma 90.000000
_cell_volume 2706.307947
_symmetry_space_group_name_H-M "P C C N"
_symmetry_group_IT_number 56
_symmetry_cell_setting 'orthorhombic'
loop_
_space_group_symop_operation_xyz
x,y,z
1/2-x,1/2-y,z
1/2+x,-y,1/2-z
-x,1/2+y,1/2-z
-x,-y,-z
1/2+x,1/2+y,-z
1/2-x,y,1/2+z
x,1/2-y,1/2+z
loop_
_atom_site_type_symbol
_atom_site_label
_atom_site_fract_x
_atom_site_fract_y
_atom_site_fract_z
Si Si1 0.366547 0.101424 0.142124
Si Si2 0.246371 0.470107 0.061944
Si Si3 0.115391 0.983835 0.823483
Si Si4 0.020642 0.269856 0.069142
Si Si5 0.007687 0.144117 0.882684
Si Si6 0.057756 0.854067 0.289938
Si Si7 0.755688 0.964616 0.135377
Si Si8 0.330303 0.020465 0.712060
O O1 0.315084 0.993539 0.101275
O O2 0.395000 0.992678 0.219698
O O3 0.413706 0.174803 0.076300
O O4 0.338308 0.268374 0.193918
O O5 0.250000 0.250000 0.060057
O O6 0.297392 0.539205 0.123339
O O7 0.246997 0.533270 0.962559
O O8 0.075367 0.127182 0.870185
O O9 0.180516 0.996225 0.840181
O O10 0.092234 0.790902 0.846533
O O11 0.986776 0.403007 0.133991
O O12 0.997276 0.254911 0.970744
O O13 0.014743 0.062002 0.103380
O O14 0.981866 0.206173 0.790909
O O15 0.107555 0.961393 0.241791
O O16 0.750000 0.750000 0.133472
O O17 0.711777 0.026116 0.208726
#
# Coordination Sequence:
#
# PCOD9432043 Si02
#       8
#     8   8   8   8   8   8   8   8
#     4  11  19  39  64  92 122 164 215 263 313 382
#     4   9  21  35  62  96 119 157 219 265 314 382
#     4  11  23  39  66  89 126 166 213 263 323 384
#     4  10  22  39  66  95 126 171 222 254 322 396
#     4  10  22  41  64  93 129 175 210 265 323 390
#     4  11  24  41  62  95 130 170 213 263 325 389
#     4  11  21  39  63  96 124 163 220 269 317 381
#     4  11  21  39  65  87 127 169 205 265 328 379
#
# _framework density 23.648454999999998
#
# number of rings (size 3 to 8) (size 9 to 14) (size 15 to 20)
#    0.000    1.500    5.000    0.375    5.250    1.500 
#    2.250    0.625    2.750    0.000    0.000    0.000 
#    0.000    0.000    0.000    0.000    0.000    0.000 
#
# Total GULP energy -357190.954093 kJ/mol
# GULP energy per Si atom -5581.108658 kJ/mol
# Density = 2.359463 g / cm^3
# Si number density = 23.648455 Si / 1000 Ang^3
#
#
#
# Elastic Constant Matrix: (Units=GPa)
#
#
# Indices 1 2 3 4 5 6 
#
# 1 127.9376 23.4328 51.7331 0.0000 0.0000 0.0000
# 2 23.4328 31.2660 15.8905 0.0000 0.0000 0.0000
# 3 51.7331 15.8905 148.7365 0.0000 0.0000 0.0000
# 4 0.0000 0.0000 0.0000 14.2979 0.0000 0.0000
# 5 0.0000 0.0000 0.0000 0.0000 21.5264 0.0000
# 6 0.0000 0.0000 0.0000 0.0000 0.0000 16.2090
#
#
#
# Elastic Compliance Matrix: (Units=1/GPa)
#
#
# Indices 1 2 3 4 5 6 
#
# 1 0.010091 -0.006111 -0.002857 0.000000 0.000000 0.000000
# 2 -0.006111 0.037520 -0.001883 0.000000 0.000000 0.000000
# 3 -0.002857 -0.001883 0.007918 0.000000 0.000000 0.000000
# 4 0.000000 0.000000 0.000000 0.069940 0.000000 0.000000
# 5 0.000000 0.000000 0.000000 0.000000 0.046455 0.000000
# 6 0.000000 0.000000 0.000000 0.000000 0.000000 0.061694
#
#
# Mechanical properties :
#
#
# Convention : Reuss Voigt Hill
#
# Bulk Modulus (GPa) = 29.56142 54.45034 42.00588
# Shear Modulus (GPa) = 18.75497 24.86556 21.81027
#
# Velocity S-wave (km/s) = 2.81921 3.24615 3.04018
# Velocity P-wave (km/s) = 4.80882 6.09302 5.48861
#
# Compressibility (1/GPa) = 0.03382787
#
# Stress axis : x y z
#
# Youngs Moduli (GPa) = 99.10065 26.65214 126.29189
#
# Poissons Ratio (x) = 0.16286 0.36080
# Poissons Ratio (y) = 0.60557 0.23783
# Poissons Ratio (z) = 0.28312 0.05019
#
# Static dielectric constant tensor:
#      x y z
#    x 1.938820 0.000000 0.000000 
#    y 0.000000 2.014370 0.000000 
#    z 0.000000 0.000000 1.904990 
# 
# From -- ./inp_files/13303.got.cif
#   From: 2010.05.17/outbox.cif.g08.bks.cpg/sg56_7_cif.got.tgz:13303.got - 2010.06.03 13:42:01.
