data_PCOD9432757
_publ_section_title
;
Structure prediction by ZEFSAII (Michael W. Deem and Ramdas Pophale) SiO2 
 PCOD9432757
Probable space group: P C C N
;
_chemical_formula_sum "Si O2"
_cell_formula_units_Z 36
_cell_length_a 7.503478
_cell_length_b 18.213114
_cell_length_c 9.749445
_cell_angle_alpha 90.000000
_cell_angle_beta 90.000000
_cell_angle_gamma 90.000000
_cell_volume 1332.375730
_symmetry_space_group_name_H-M "P C C N"
_symmetry_group_IT_number 56
_symmetry_cell_setting 'orthorhombic'
loop_
_space_group_symop_operation_xyz
x,y,z
1/2-x,1/2-y,z
1/2+x,-y,1/2-z
-x,1/2+y,1/2-z
-x,-y,-z
1/2+x,1/2+y,-z
1/2-x,y,1/2+z
x,1/2-y,1/2+z
loop_
_atom_site_type_symbol
_atom_site_label
_atom_site_fract_x
_atom_site_fract_y
_atom_site_fract_z
Si Si1 0.771038 0.891298 0.878104
Si Si2 0.411963 0.606746 0.219096
Si Si3 0.750000 0.750000 0.567737
Si Si4 0.443160 0.657377 0.679467
Si Si5 0.232699 0.546431 0.981851
O O1 0.606913 0.878655 0.772552
O O2 0.949552 0.891741 0.787795
O O3 0.724709 0.965348 0.958403
O O4 0.786435 0.820323 0.973906
O O5 0.407374 0.577489 0.062933
O O6 0.315182 0.547958 0.321969
O O7 0.259975 0.669570 0.228392
O O8 0.572413 0.725199 0.648779
O O9 0.405874 0.606311 0.546443
#
# Coordination Sequence:
#
# PCOD9432757 Si02
#       5
#     8   8   4   8   8
#     4  12  23  45  74 108 155 208 256 322 393 464
#     4  10  23  46  75 116 146 197 260 335 379 461
#     4  12  26  46  70 102 166 204 250 308 398 476
#     4  10  26  45  72 116 145 201 263 323 385 463
#     4  10  23  45  80 114 150 191 272 331 380 451
#
# _framework density 27.019401999999999
#
# number of rings (size 3 to 8) (size 9 to 14) (size 15 to 20)
#    1.333    0.000    2.222    2.667    3.111    2.667 
#    0.000    6.667    0.000    0.000    0.000    0.000 
#    0.000    0.000    0.000    0.000    0.000    0.000 
#
# Total GULP energy -201353.178957 kJ/mol
# GULP energy per Si atom -5593.143860 kJ/mol
# Density = 2.695790 g / cm^3
# Si number density = 27.019402 Si / 1000 Ang^3
#
#
#
# Elastic Constant Matrix: (Units=GPa)
#
#
# Indices 1 2 3 4 5 6 
#
# 1 168.7283 31.9167 19.8452 0.0000 0.0000 0.0000
# 2 31.9167 145.7987 16.5555 0.0000 0.0000 0.0000
# 3 19.8452 16.5555 115.5355 0.0000 0.0000 0.0000
# 4 0.0000 0.0000 0.0000 48.3523 0.0000 0.0000
# 5 0.0000 0.0000 0.0000 0.0000 43.0694 0.0000
# 6 0.0000 0.0000 0.0000 0.0000 0.0000 28.5713
#
#
#
# Elastic Compliance Matrix: (Units=1/GPa)
#
#
# Indices 1 2 3 4 5 6 
#
# 1 0.006272 -0.001271 -0.000895 0.000000 0.000000 0.000000
# 2 -0.001271 0.007230 -0.000818 0.000000 0.000000 0.000000
# 3 -0.000895 -0.000818 0.008926 0.000000 0.000000 0.000000
# 4 0.000000 0.000000 0.000000 0.020682 0.000000 0.000000
# 5 0.000000 0.000000 0.000000 0.000000 0.023218 0.000000
# 6 0.000000 0.000000 0.000000 0.000000 0.000000 0.035000
#
#
# Mechanical properties :
#
#
# Convention : Reuss Voigt Hill
#
# Bulk Modulus (GPa) = 60.75279 62.96636 61.85957
# Shear Modulus (GPa) = 44.33250 48.11493 46.22371
#
# Velocity S-wave (km/s) = 4.05503 4.22448 4.14062
# Velocity P-wave (km/s) = 6.66769 6.86656 6.76785
#
# Compressibility (1/GPa) = 0.01646015
#
# Stress axis : x y z
#
# Youngs Moduli (GPa) = 159.42637 138.31365 112.02876
#
# Poissons Ratio (x) = 0.17586 0.10029
# Poissons Ratio (y) = 0.20270 0.09160
# Poissons Ratio (z) = 0.14272 0.11309
#
# Static dielectric constant tensor:
#      x y z
#    x 2.187160 0.000000 0.000000 
#    y 0.000000 2.112840 0.000000 
#    z 0.000000 0.000000 2.122100 
# 
# From -- ./inp_files/6282.got.cif
#   From: 2010.05.17/outbox.cif.g08.bks.cpg/sg56_4_cif.got.tgz:6282.got - 2010.06.03 13:42:01.
