data_PCOD9432912
_publ_section_title
;
Structure prediction by ZEFSAII (Michael W. Deem and Ramdas Pophale) SiO2 
 PCOD9432912
Probable space group: P C C N
;
_chemical_formula_sum "Si O2"
_cell_formula_units_Z 40
_cell_length_a 11.542855
_cell_length_b 15.151335
_cell_length_c 10.838096
_cell_angle_alpha 90.000000
_cell_angle_beta 90.000000
_cell_angle_gamma 90.000000
_cell_volume 1895.470957
_symmetry_space_group_name_H-M "P C C N"
_symmetry_group_IT_number 56
_symmetry_cell_setting 'orthorhombic'
loop_
_space_group_symop_operation_xyz
x,y,z
1/2-x,1/2-y,z
1/2+x,-y,1/2-z
-x,1/2+y,1/2-z
-x,-y,-z
1/2+x,1/2+y,-z
1/2-x,y,1/2+z
x,1/2-y,1/2+z
loop_
_atom_site_type_symbol
_atom_site_label
_atom_site_fract_x
_atom_site_fract_y
_atom_site_fract_z
Si Si1 0.720618 0.966051 0.819934
Si Si2 0.466039 0.600910 0.035751
Si Si3 0.259386 0.921928 0.927568
Si Si4 0.514558 0.143916 0.189245
Si Si5 0.134723 0.304484 0.619750
O O1 0.595115 0.920366 0.831048
O O2 0.820018 0.890956 0.809620
O O3 0.730937 0.022419 0.695540
O O4 0.734680 0.018830 0.948209
O O5 0.437977 0.615864 0.177536
O O6 0.500000 0.500000 0.000000
O O7 0.357458 0.632379 0.954153
O O8 0.576307 0.660078 0.003953
O O9 0.379955 0.871704 0.905099
O O10 0.457702 0.241005 0.185627
O O11 0.250000 0.250000 0.592526
#
# Coordination Sequence:
#
# PCOD9432912 Si02
#       5
#     8   8   8   8   8
#     4  11  22  42  72  99 138 182 234 285 341 428
#     4  12  22  45  71  97 143 186 232 287 354 417
#     4  12  23  42  71 102 135 183 235 283 349 414
#     4  11  24  42  66 107 135 183 232 293 353 415
#     4  10  24  43  67 102 139 181 231 293 351 412
#
# _framework density 21.102934999999999
#
# number of rings (size 3 to 8) (size 9 to 14) (size 15 to 20)
#    0.000    0.800    6.000    0.600    0.000    6.400 
#    3.600    2.000    0.000    0.000    0.000    0.000 
#    0.000    0.000    0.000    0.000    0.000    0.000 
#
# Total GULP energy -223314.529763 kJ/mol
# GULP energy per Si atom -5582.863244 kJ/mol
# Density = 2.105490 g / cm^3
# Si number density = 21.102935 Si / 1000 Ang^3
#
#
#
# Elastic Constant Matrix: (Units=GPa)
#
#
# Indices 1 2 3 4 5 6 
#
# 1 127.8424 41.8130 39.7950 0.0000 0.0000 0.0000
# 2 41.8130 66.4162 45.1452 0.0000 0.0000 0.0000
# 3 39.7950 45.1452 117.0394 0.0000 0.0000 0.0000
# 4 0.0000 0.0000 0.0000 19.4304 0.0000 0.0000
# 5 0.0000 0.0000 0.0000 0.0000 41.5039 0.0000
# 6 0.0000 0.0000 0.0000 0.0000 0.0000 23.3503
#
#
#
# Elastic Compliance Matrix: (Units=1/GPa)
#
#
# Indices 1 2 3 4 5 6 
#
# 1 0.009998 -0.005399 -0.001317 0.000000 0.000000 0.000000
# 2 -0.005399 0.023323 -0.007160 0.000000 0.000000 0.000000
# 3 -0.001317 -0.007160 0.011754 0.000000 0.000000 0.000000
# 4 0.000000 0.000000 0.000000 0.051466 0.000000 0.000000
# 5 0.000000 0.000000 0.000000 0.000000 0.024094 0.000000
# 6 0.000000 0.000000 0.000000 0.000000 0.000000 0.042826
#
#
# Mechanical properties :
#
#
# Convention : Reuss Voigt Hill
#
# Bulk Modulus (GPa) = 57.73106 62.75605 60.24355
# Shear Modulus (GPa) = 25.38233 29.15989 27.27111
#
# Velocity S-wave (km/s) = 3.47188 3.72128 3.59874
# Velocity P-wave (km/s) = 6.59456 6.94741 6.77328
#
# Compressibility (1/GPa) = 0.01732170
#
# Stress axis : x y z
#
# Youngs Moduli (GPa) = 100.02053 42.87632 85.07857
#
# Poissons Ratio (x) = 0.23150 0.11203
# Poissons Ratio (y) = 0.54003 0.60920
# Poissons Ratio (z) = 0.13171 0.30701
#
# Static dielectric constant tensor:
#      x y z
#    x 1.828480 0.000000 0.000000 
#    y 0.000000 1.806780 0.000000 
#    z 0.000000 0.000000 1.734160 
# 
# From -- ./inp_files/6982.got.cif
#   From: 2010.05.17/outbox.cif.g08.bks.cpg/sg56_4_cif.got.tgz:6982.got - 2010.06.03 13:42:01.
