data_PCOD9432501
_publ_section_title
;
Structure prediction by ZEFSAII (Michael W. Deem and Ramdas Pophale) SiO2 
 PCOD9432501
Probable space group: P C C N
;
_chemical_formula_sum "Si O2"
_cell_formula_units_Z 60
_cell_length_a 18.019616
_cell_length_b 8.577109
_cell_length_c 16.569209
_cell_angle_alpha 90.000000
_cell_angle_beta 90.000000
_cell_angle_gamma 90.000000
_cell_volume 2560.874155
_symmetry_space_group_name_H-M "P C C N"
_symmetry_group_IT_number 56
_symmetry_cell_setting 'orthorhombic'
loop_
_space_group_symop_operation_xyz
x,y,z
1/2-x,1/2-y,z
1/2+x,-y,1/2-z
-x,1/2+y,1/2-z
-x,-y,-z
1/2+x,1/2+y,-z
1/2-x,y,1/2+z
x,1/2-y,1/2+z
loop_
_atom_site_type_symbol
_atom_site_label
_atom_site_fract_x
_atom_site_fract_y
_atom_site_fract_z
Si Si1 0.479916 0.989700 0.729481
Si Si2 0.985256 0.676954 0.027977
Si Si3 0.250000 0.250000 0.242142
Si Si4 0.718965 0.079690 0.520846
Si Si5 0.194661 0.028294 0.620092
Si Si6 0.540163 0.699226 0.357106
Si Si7 0.625087 0.206458 0.373558
Si Si8 0.375290 0.356483 0.863606
O O1 0.492959 0.944397 0.821878
O O2 0.409093 0.896316 0.696773
O O3 0.555919 0.940641 0.682462
O O4 0.467047 0.168973 0.710238
O O5 0.912164 0.732073 0.075268
O O6 0.053892 0.724197 0.081835
O O7 0.986938 0.766593 0.941963
O O8 0.000000 0.500000 0.000000
O O9 0.246321 0.104209 0.180644
O O10 0.179526 0.276221 0.299554
O O11 0.750000 0.250000 0.547868
O O12 0.667153 0.112770 0.443106
O O13 0.783455 0.984424 0.474025
O O14 0.674426 0.981955 0.586856
O O15 0.122469 0.136412 0.628455
O O16 0.174447 0.854908 0.650088
#
# Coordination Sequence:
#
# PCOD9432501 Si02
#       8
#     8   8   4   8   8   8   8   8
#     4  11  25  43  72 102 139 182 226 299 357 413
#     4  11  24  41  73 106 133 177 236 294 356 415
#     4  12  28  42  68 102 146 188 234 284 356 430
#     4  10  24  45  73  98 137 192 241 288 348 424
#     4  11  25  44  67 100 139 185 236 280 347 433
#     4  12  24  43  70 103 141 179 232 291 354 420
#     4  10  22  47  70 101 137 178 239 293 353 412
#     4  11  26  45  67 103 143 181 238 297 350 428
#
# _framework density 23.429497999999999
#
# number of rings (size 3 to 8) (size 9 to 14) (size 15 to 20)
#    0.000    1.067    2.667    2.400    7.467    2.133 
#    0.000    3.333    0.000    0.000    0.000    0.000 
#    0.000    0.000    0.000    0.000    0.000    0.000 
#
# Total GULP energy -335789.563302 kJ/mol
# GULP energy per Si atom -5596.492722 kJ/mol
# Density = 2.337617 g / cm^3
# Si number density = 23.429498 Si / 1000 Ang^3
#
#
#
# Elastic Constant Matrix: (Units=GPa)
#
#
# Indices 1 2 3 4 5 6 
#
# 1 84.4138 54.3892 22.5429 0.0000 0.0000 0.0000
# 2 54.3892 99.7860 52.5402 0.0000 0.0000 0.0000
# 3 22.5429 52.5402 91.9792 0.0000 0.0000 0.0000
# 4 0.0000 0.0000 0.0000 37.8649 0.0000 0.0000
# 5 0.0000 0.0000 0.0000 0.0000 29.1922 0.0000
# 6 0.0000 0.0000 0.0000 0.0000 0.0000 42.4196
#
#
#
# Elastic Compliance Matrix: (Units=1/GPa)
#
#
# Indices 1 2 3 4 5 6 
#
# 1 0.018453 -0.010979 0.001749 0.000000 0.000000 0.000000
# 2 -0.010979 0.020864 -0.009227 0.000000 0.000000 0.000000
# 3 0.001749 -0.009227 0.015714 0.000000 0.000000 0.000000
# 4 0.000000 0.000000 0.000000 0.026410 0.000000 0.000000
# 5 0.000000 0.000000 0.000000 0.000000 0.034256 0.000000
# 6 0.000000 0.000000 0.000000 0.000000 0.000000 0.023574
#
#
# Mechanical properties :
#
#
# Convention : Reuss Voigt Hill
#
# Bulk Modulus (GPa) = 55.19745 59.45820 57.32782
# Shear Modulus (GPa) = 27.43875 31.67577 29.55726
#
# Velocity S-wave (km/s) = 3.42588 3.68089 3.55567
# Velocity P-wave (km/s) = 6.26569 6.59529 6.43260
#
# Compressibility (1/GPa) = 0.01811678
#
# Stress axis : x y z
#
# Youngs Moduli (GPa) = 54.19099 47.92982 63.63711
#
# Poissons Ratio (x) = 0.52621 -0.11128
# Poissons Ratio (y) = 0.59495 0.58718
# Poissons Ratio (z) = -0.09476 0.44225
#
# Static dielectric constant tensor:
#      x y z
#    x 1.942450 0.000000 0.000000 
#    y 0.000000 1.939970 0.000000 
#    z 0.000000 0.000000 1.893310 
# 
# From -- ./inp_files/16646.got.cif
#   From: 2010.05.17/outbox.cif.g08.bks.cpg/sg56_9_cif.got.tgz:16646.got - 2010.06.03 13:42:01.
