data_PCOD9432921
_publ_section_title
;
Structure prediction by ZEFSAII (Michael W. Deem and Ramdas Pophale) SiO2 
 PCOD9432921
Probable space group: P C C N
;
_chemical_formula_sum "Si O2"
_cell_formula_units_Z 28
_cell_length_a 4.654062
_cell_length_b 18.134178
_cell_length_c 11.529475
_cell_angle_alpha 90.000000
_cell_angle_beta 90.000000
_cell_angle_gamma 90.000000
_cell_volume 973.059889
_symmetry_space_group_name_H-M "P C C N"
_symmetry_group_IT_number 56
_symmetry_cell_setting 'orthorhombic'
loop_
_space_group_symop_operation_xyz
x,y,z
1/2-x,1/2-y,z
1/2+x,-y,1/2-z
-x,1/2+y,1/2-z
-x,-y,-z
1/2+x,1/2+y,-z
1/2-x,y,1/2+z
x,1/2-y,1/2+z
loop_
_atom_site_type_symbol
_atom_site_label
_atom_site_fract_x
_atom_site_fract_y
_atom_site_fract_z
Si Si1 0.265940 0.454252 0.726726
Si Si2 0.421578 0.868168 0.082420
Si Si3 0.000000 0.500000 0.500000
Si Si4 0.750000 0.750000 0.922337
Si Si5 0.250000 0.750000 0.247812
O O1 0.744952 0.434707 0.974595
O O2 0.102243 0.530640 0.764967
O O3 0.156759 0.403483 0.830283
O O4 0.157090 0.446650 0.597546
O O5 0.209173 0.817947 0.160566
O O6 0.910164 0.811499 0.498977
O O7 0.504130 0.725388 0.832497
#
# Coordination Sequence:
#
# PCOD9432921 Si02
#       5
#     8   8   4   4   4
#     4  10  24  43  70 108 151 201 267 341 422 516
#     4  11  26  50  82 123 172 235 305 375 461 562
#     4  10  24  50  82 118 170 224 286 376 462 532
#     4  12  28  50  86 124 182 246 304 384 470 560
#     4  12  28  50  80 124 178 236 310 384 466 572
#
# _framework density 28.775207000000002
#
# number of rings (size 3 to 8) (size 9 to 14) (size 15 to 20)
#    0.000    1.143    0.000    3.429    0.000   22.857 
#    0.000    5.714    0.000    0.000    0.000    0.000 
#    0.000    0.000    0.000    0.000    0.000    0.000 
#
# Total GULP energy -156038.827738 kJ/mol
# GULP energy per Si atom -5572.815276 kJ/mol
# Density = 2.870971 g / cm^3
# Si number density = 28.775207 Si / 1000 Ang^3
#
#
#
# Elastic Constant Matrix: (Units=GPa)
#
#
# Indices 1 2 3 4 5 6 
#
# 1 146.1577 89.5346 76.5011 0.0000 0.0000 0.0000
# 2 89.5346 204.4887 83.8593 0.0000 0.0000 0.0000
# 3 76.5011 83.8593 169.2922 0.0000 0.0000 0.0000
# 4 0.0000 0.0000 0.0000 64.2845 0.0000 0.0000
# 5 0.0000 0.0000 0.0000 0.0000 -5.3587 0.0000
# 6 0.0000 0.0000 0.0000 0.0000 0.0000 47.2970
#
#
#
# Elastic Compliance Matrix: (Units=1/GPa)
#
#
# Indices 1 2 3 4 5 6 
#
# 1 0.010502 -0.003328 -0.003097 0.000000 0.000000 0.000000
# 2 -0.003328 0.007192 -0.002058 0.000000 0.000000 0.000000
# 3 -0.003097 -0.002058 0.008326 0.000000 0.000000 0.000000
# 4 0.000000 0.000000 0.000000 0.015556 0.000000 0.000000
# 5 0.000000 0.000000 0.000000 0.000000 -0.186611 0.000000
# 6 0.000000 0.000000 0.000000 0.000000 0.000000 0.021143
#
#
# Mechanical properties :
#
#
# Convention : Reuss Voigt Hill
#
# Bulk Modulus (GPa) = 110.46910 113.30318 111.88614
# Shear Modulus (GPa) = -48.11932 39.24748 -4.43592
#
# Velocity S-wave (km/s) = -4.09375 3.69715 -1.24295
# Velocity P-wave (km/s) = 4.01605 7.59513 6.07514
#
# Compressibility (1/GPa) = 0.00905230
#
# Stress axis : x y z
#
# Youngs Moduli (GPa) = 95.22288 139.05152 120.10396
#
# Poissons Ratio (x) = 0.46277 0.37196
# Poissons Ratio (y) = 0.31691 0.24723
# Poissons Ratio (z) = 0.29491 0.28623
#
# Static dielectric constant tensor:
#      x y z
#    x 1.961440 0.000000 0.000000 
#    y 0.000000 2.188720 0.000000 
#    z 0.000000 0.000000 2.388390 
# 
# From -- ./inp_files/5478.got.cif
#   From: 2010.05.17/outbox.cif.g08.bks.cpg/sg56_3_cif.got.tgz:5478.got - 2010.06.03 13:42:01.
