data_PCOD9432422
_publ_section_title
;
Structure prediction by ZEFSAII (Michael W. Deem and Ramdas Pophale) SiO2 
 PCOD9432422
Probable space group: P C C N
;
_chemical_formula_sum "Si O2"
_cell_formula_units_Z 60
_cell_length_a 5.775160
_cell_length_b 22.164965
_cell_length_c 19.674293
_cell_angle_alpha 90.000000
_cell_angle_beta 90.000000
_cell_angle_gamma 90.000000
_cell_volume 2518.431864
_symmetry_space_group_name_H-M "P C C N"
_symmetry_group_IT_number 56
_symmetry_cell_setting 'orthorhombic'
loop_
_space_group_symop_operation_xyz
x,y,z
1/2-x,1/2-y,z
1/2+x,-y,1/2-z
-x,1/2+y,1/2-z
-x,-y,-z
1/2+x,1/2+y,-z
1/2-x,y,1/2+z
x,1/2-y,1/2+z
loop_
_atom_site_type_symbol
_atom_site_label
_atom_site_fract_x
_atom_site_fract_y
_atom_site_fract_z
Si Si1 0.992390 0.015065 0.288591
Si Si2 0.866765 0.815054 0.551199
Si Si3 0.013525 0.095673 0.976650
Si Si4 0.195256 0.679244 0.936911
Si Si5 0.923523 0.346640 0.821974
Si Si6 0.250000 0.250000 0.749314
Si Si7 0.679193 0.993080 0.937209
Si Si8 0.368455 0.815948 0.794297
O O1 0.013866 0.086799 0.304466
O O2 0.942146 0.985709 0.363785
O O3 0.744404 0.004161 0.245953
O O4 0.750000 0.750000 0.558457
O O5 0.692912 0.868724 0.570318
O O6 0.949607 0.825302 0.474342
O O7 0.085524 0.827370 0.599892
O O8 0.840326 0.052666 0.935759
O O9 0.877412 0.146128 0.017133
O O10 0.148383 0.057599 0.034213
O O11 0.250000 0.750000 0.934452
O O12 0.206711 0.651364 0.861888
O O13 0.689688 0.343028 0.778183
O O14 0.084372 0.291800 0.794209
O O15 0.366064 0.299458 0.701417
O O16 0.500000 0.000000 0.000000
O O17 0.250000 0.750000 0.795394
#
# Coordination Sequence:
#
# PCOD9432422 Si02
#       8
#     8   8   8   8   8   4   8   8
#     4  12  32  53  81 119 160 212 278 345 400 472
#     4  12  25  44  75 114 154 198 254 323 400 473
#     4  11  25  45  80 107 146 203 261 322 395 476
#     4  11  23  41  65 109 150 189 247 317 385 468
#     4  11  25  46  72 107 156 200 261 316 397 481
#     4  10  22  44  70 102 146 208 246 312 388 476
#     4  11  27  53  79 106 154 208 271 327 401 473
#     4   9  23  41  65  98 144 199 245 305 385 459
#
# _framework density 23.824346999999999
#
# number of rings (size 3 to 8) (size 9 to 14) (size 15 to 20)
#    0.000    1.067    2.000    2.400   10.267    4.800 
#    2.400    0.000    0.000    0.000    0.000    0.000 
#    0.000    0.000    0.000    0.000    0.000    0.000 
#
# Total GULP energy -334758.430746 kJ/mol
# GULP energy per Si atom -5579.307179 kJ/mol
# Density = 2.377012 g / cm^3
# Si number density = 23.824347 Si / 1000 Ang^3
#
#
#
# Elastic Constant Matrix: (Units=GPa)
#
#
# Indices 1 2 3 4 5 6 
#
# 1 87.2115 23.4261 46.3951 0.0000 0.0000 0.0000
# 2 23.4261 99.8588 7.9263 0.0000 0.0000 0.0000
# 3 46.3951 7.9263 127.9905 0.0000 0.0000 0.0000
# 4 0.0000 0.0000 0.0000 10.8075 0.0000 0.0000
# 5 0.0000 0.0000 0.0000 0.0000 25.7255 0.0000
# 6 0.0000 0.0000 0.0000 0.0000 0.0000 45.0166
#
#
#
# Elastic Compliance Matrix: (Units=1/GPa)
#
#
# Indices 1 2 3 4 5 6 
#
# 1 0.015119 -0.003127 -0.005287 0.000000 0.000000 0.000000
# 2 -0.003127 0.010710 0.000470 0.000000 0.000000 0.000000
# 3 -0.005287 0.000470 0.009700 0.000000 0.000000 0.000000
# 4 0.000000 0.000000 0.000000 0.092528 0.000000 0.000000
# 5 0.000000 0.000000 0.000000 0.000000 0.038872 0.000000
# 6 0.000000 0.000000 0.000000 0.000000 0.000000 0.022214
#
#
# Mechanical properties :
#
#
# Convention : Reuss Voigt Hill
#
# Bulk Modulus (GPa) = 50.91035 52.28397 51.59716
# Shear Modulus (GPa) = 23.63189 32.13080 27.88134
#
# Velocity S-wave (km/s) = 3.15290 3.67639 3.42466
# Velocity P-wave (km/s) = 5.88810 6.32569 6.11081
#
# Compressibility (1/GPa) = 0.01964237
#
# Stress axis : x y z
#
# Youngs Moduli (GPa) = 66.14268 93.36710 103.08917
#
# Poissons Ratio (x) = 0.29197 0.54501
# Poissons Ratio (y) = 0.20684 -0.04848
# Poissons Ratio (z) = 0.34968 -0.04391
#
# Static dielectric constant tensor:
#      x y z
#    x 2.080590 0.000000 0.000000 
#    y 0.000000 1.956870 0.000000 
#    z 0.000000 0.000000 1.951480 
# 
# From -- ./inp_files/17666.got.cif
#   From: 2010.05.17/outbox.cif.g08.bks.cpg/sg56_9_cif.got.tgz:17666.got - 2010.06.03 13:42:01.
