data_PCOD9432207
_publ_section_title
;
Structure prediction by ZEFSAII (Michael W. Deem and Ramdas Pophale) SiO2 
 PCOD9432207
Probable space group: P C C N
;
_chemical_formula_sum "Si O2"
_cell_formula_units_Z 64
_cell_length_a 8.012667
_cell_length_b 22.241824
_cell_length_c 14.824124
_cell_angle_alpha 90.000000
_cell_angle_beta 90.000000
_cell_angle_gamma 90.000000
_cell_volume 2641.900963
_symmetry_space_group_name_H-M "P C C N"
_symmetry_group_IT_number 56
_symmetry_cell_setting 'orthorhombic'
loop_
_space_group_symop_operation_xyz
x,y,z
1/2-x,1/2-y,z
1/2+x,-y,1/2-z
-x,1/2+y,1/2-z
-x,-y,-z
1/2+x,1/2+y,-z
1/2-x,y,1/2+z
x,1/2-y,1/2+z
loop_
_atom_site_type_symbol
_atom_site_label
_atom_site_fract_x
_atom_site_fract_y
_atom_site_fract_z
Si Si1 0.443361 0.763139 0.526518
Si Si2 0.408448 0.110795 0.540169
Si Si3 0.816654 0.072983 0.832399
Si Si4 0.476403 0.188638 0.300100
Si Si5 0.940668 0.837897 0.400503
Si Si6 0.917841 0.066001 0.488909
Si Si7 0.285961 0.098701 0.866671
Si Si8 0.996471 0.540564 0.285894
O O1 0.250000 0.750000 0.510097
O O2 0.492794 0.829700 0.491545
O O3 0.483911 0.757985 0.632557
O O4 0.546977 0.714222 0.473297
O O5 0.339262 0.078752 0.448768
O O6 0.497082 0.071246 0.615933
O O7 0.240560 0.132736 0.591448
O O8 0.878328 0.140222 0.820742
O O9 0.754655 0.061213 0.934903
O O10 0.661310 0.057030 0.768679
O O11 0.965474 0.029680 0.801359
O O12 0.471734 0.194395 0.194010
O O13 0.302281 0.158602 0.331056
O O14 0.070504 0.892616 0.422262
O O15 0.040668 0.102315 0.421269
O O16 0.000000 0.000000 0.500000
O O17 0.342315 0.061509 0.778701
#
# Coordination Sequence:
#
# PCOD9432207 Si02
#       8
#     8   8   8   8   8   8   8   8
#     4  11  26  47  67  99 138 179 242 303 349 417
#     4  10  22  44  69 101 138 183 238 287 349 422
#     4  11  24  40  65 102 144 186 232 287 345 421
#     4  11  24  45  68  99 139 184 235 294 357 420
#     4  11  23  45  73  99 139 186 239 286 359 428
#     4  10  22  41  68 103 144 188 230 287 351 418
#     4   9  20  39  66  95 136 179 223 283 332 415
#     4  11  22  41  68 104 146 184 233 282 352 423
#
# _framework density 24.224979999999999
#
# number of rings (size 3 to 8) (size 9 to 14) (size 15 to 20)
#    0.000    1.500    1.250    3.375    5.250    0.500 
#    6.750    5.000    0.000    0.000    0.000    0.000 
#    0.000    0.000    0.000    0.000    0.000    0.000 
#
# Total GULP energy -357978.797014 kJ/mol
# GULP energy per Si atom -5593.418703 kJ/mol
# Density = 2.416984 g / cm^3
# Si number density = 24.224980 Si / 1000 Ang^3
#
#
#
# Elastic Constant Matrix: (Units=GPa)
#
#
# Indices 1 2 3 4 5 6 
#
# 1 81.1481 15.6572 16.7459 0.0000 0.0000 0.0000
# 2 15.6572 66.4803 46.9722 0.0000 0.0000 0.0000
# 3 16.7459 46.9722 167.9728 0.0000 0.0000 0.0000
# 4 0.0000 0.0000 0.0000 32.5808 0.0000 0.0000
# 5 0.0000 0.0000 0.0000 0.0000 41.9042 0.0000
# 6 0.0000 0.0000 0.0000 0.0000 0.0000 29.9224
#
#
#
# Elastic Compliance Matrix: (Units=1/GPa)
#
#
# Indices 1 2 3 4 5 6 
#
# 1 0.012950 -0.002664 -0.000546 0.000000 0.000000 0.000000
# 2 -0.002664 0.019294 -0.005130 0.000000 0.000000 0.000000
# 3 -0.000546 -0.005130 0.007442 0.000000 0.000000 0.000000
# 4 0.000000 0.000000 0.000000 0.030693 0.000000 0.000000
# 5 0.000000 0.000000 0.000000 0.000000 0.023864 0.000000
# 6 0.000000 0.000000 0.000000 0.000000 0.000000 0.033420
#
#
# Mechanical properties :
#
#
# Convention : Reuss Voigt Hill
#
# Bulk Modulus (GPa) = 43.46643 52.70575 48.08609
# Shear Modulus (GPa) = 32.89226 36.62987 34.76107
#
# Velocity S-wave (km/s) = 3.68881 3.89275 3.79215
# Velocity P-wave (km/s) = 6.01039 6.48141 6.25034
#
# Compressibility (1/GPa) = 0.02300626
#
# Stress axis : x y z
#
# Youngs Moduli (GPa) = 77.22094 51.82962 134.36722
#
# Poissons Ratio (x) = 0.13808 0.07337
# Poissons Ratio (y) = 0.20572 0.68928
# Poissons Ratio (z) = 0.04217 0.26588
#
# Static dielectric constant tensor:
#      x y z
#    x 2.006950 0.000000 0.000000 
#    y 0.000000 1.949370 0.000000 
#    z 0.000000 0.000000 1.971540 
# 
# From -- ./inp_files/11046.got.cif
#   From: 2010.05.17/outbox.cif.g08.bks.cpg/sg56_6_cif.got.tgz:11046.got - 2010.06.03 13:42:01.
