data_PCOD9432544
_publ_section_title
;
Structure prediction by ZEFSAII (Michael W. Deem and Ramdas Pophale) SiO2 
 PCOD9432544
Probable space group: P C C N
;
_chemical_formula_sum "Si O2"
_cell_formula_units_Z 44
_cell_length_a 10.297808
_cell_length_b 7.435191
_cell_length_c 28.456092
_cell_angle_alpha 90.000000
_cell_angle_beta 90.000000
_cell_angle_gamma 90.000000
_cell_volume 2178.773959
_symmetry_space_group_name_H-M "P C C N"
_symmetry_group_IT_number 56
_symmetry_cell_setting 'orthorhombic'
loop_
_space_group_symop_operation_xyz
x,y,z
1/2-x,1/2-y,z
1/2+x,-y,1/2-z
-x,1/2+y,1/2-z
-x,-y,-z
1/2+x,1/2+y,-z
1/2-x,y,1/2+z
x,1/2-y,1/2+z
loop_
_atom_site_type_symbol
_atom_site_label
_atom_site_fract_x
_atom_site_fract_y
_atom_site_fract_z
Si Si1 0.768593 0.466308 0.854693
Si Si2 0.851753 0.404942 0.547099
Si Si3 0.652713 0.597776 0.951661
Si Si4 0.134241 0.891467 0.232119
Si Si5 0.750000 0.750000 0.105062
Si Si6 0.959150 0.890618 0.679285
O O1 0.750000 0.250000 0.857964
O O2 0.712543 0.544138 0.901943
O O3 0.689491 0.523161 0.808292
O O4 0.920133 0.491283 0.845345
O O5 0.750000 0.250000 0.560057
O O6 0.844920 0.443522 0.491146
O O7 0.813545 0.589252 0.574226
O O8 0.001889 0.351975 0.555871
O O9 0.750000 0.750000 0.970380
O O10 0.250000 0.750000 0.241496
O O11 0.017793 0.781899 0.207302
O O12 0.098975 0.986290 0.280043
O O13 0.640795 0.831493 0.139516
#
# Coordination Sequence:
#
# PCOD9432544 Si02
#       6
#     8   8   8   8   4   8
#     4   9  20  41  63  93 128 179 228 275 344 413
#     4  11  26  47  71 105 143 181 234 292 353 417
#     4  11  24  45  71 102 138 184 235 290 346 422
#     4   9  21  41  61  91 131 175 230 281 346 403
#     4  12  26  44  68 106 142 182 230 296 354 414
#     4  10  23  39  67  93 134 178 223 289 338 420
#
# _framework density 20.194842999999999
#
# number of rings (size 3 to 8) (size 9 to 14) (size 15 to 20)
#    0.000    2.182    0.909    2.727    7.636    4.364 
#    0.000    0.000    0.000    0.000    0.000    0.000 
#    0.000    0.000    0.000    0.000    0.000    0.000 
#
# Total GULP energy -245638.066585 kJ/mol
# GULP energy per Si atom -5582.683331 kJ/mol
# Density = 2.014888 g / cm^3
# Si number density = 20.194843 Si / 1000 Ang^3
#
#
#
# Elastic Constant Matrix: (Units=GPa)
#
#
# Indices 1 2 3 4 5 6 
#
# 1 140.6735 43.2395 78.5946 0.0000 0.0000 0.0000
# 2 43.2395 48.3487 31.2021 0.0000 0.0000 0.0000
# 3 78.5946 31.2021 149.5185 0.0000 0.0000 0.0000
# 4 0.0000 0.0000 0.0000 14.4352 0.0000 0.0000
# 5 0.0000 0.0000 0.0000 0.0000 18.4314 0.0000
# 6 0.0000 0.0000 0.0000 0.0000 0.0000 17.9733
#
#
#
# Elastic Compliance Matrix: (Units=1/GPa)
#
#
# Indices 1 2 3 4 5 6 
#
# 1 0.012174 -0.007809 -0.004769 0.000000 0.000000 0.000000
# 2 -0.007809 0.028912 -0.001928 0.000000 0.000000 0.000000
# 3 -0.004769 -0.001928 0.009598 0.000000 0.000000 0.000000
# 4 0.000000 0.000000 0.000000 0.069275 0.000000 0.000000
# 5 0.000000 0.000000 0.000000 0.000000 0.054255 0.000000
# 6 0.000000 0.000000 0.000000 0.000000 0.000000 0.055638
#
#
# Mechanical properties :
#
#
# Convention : Reuss Voigt Hill
#
# Bulk Modulus (GPa) = 46.14964 71.62369 58.88667
# Shear Modulus (GPa) = 18.79073 22.53496 20.66284
#
# Velocity S-wave (km/s) = 3.05367 3.34410 3.20218
# Velocity P-wave (km/s) = 5.94433 7.10310 6.54939
#
# Compressibility (1/GPa) = 0.02166864
#
# Stress axis : x y z
#
# Youngs Moduli (GPa) = 82.14395 34.58814 104.19221
#
# Poissons Ratio (x) = 0.27011 0.49694
# Poissons Ratio (y) = 0.64149 0.20093
# Poissons Ratio (z) = 0.39178 0.06670
#
# Static dielectric constant tensor:
#      x y z
#    x 1.734130 0.000000 0.000000 
#    y 0.000000 1.749640 0.000000 
#    z 0.000000 0.000000 1.708560 
# 
# From -- ./inp_files/23153.got.cif
#   From: 2010.05.17/outbox.cif.g08.bks.cpg/sg56_12_cif.got.tgz:23153.got - 2010.06.03 13:42:01.
