data_PCOD9432221
_publ_section_title
;
Structure prediction by ZEFSAII (Michael W. Deem and Ramdas Pophale) SiO2 
 PCOD9432221
Probable space group: P C C N
;
_chemical_formula_sum "Si O2"
_cell_formula_units_Z 60
_cell_length_a 13.207167
_cell_length_b 15.123332
_cell_length_c 14.308307
_cell_angle_alpha 90.000000
_cell_angle_beta 90.000000
_cell_angle_gamma 90.000000
_cell_volume 2857.889320
_symmetry_space_group_name_H-M "P C C N"
_symmetry_group_IT_number 56
_symmetry_cell_setting 'orthorhombic'
loop_
_space_group_symop_operation_xyz
x,y,z
1/2-x,1/2-y,z
1/2+x,-y,1/2-z
-x,1/2+y,1/2-z
-x,-y,-z
1/2+x,1/2+y,-z
1/2-x,y,1/2+z
x,1/2-y,1/2+z
loop_
_atom_site_type_symbol
_atom_site_label
_atom_site_fract_x
_atom_site_fract_y
_atom_site_fract_z
Si Si1 0.750000 0.750000 0.498764
Si Si2 0.297832 0.362580 0.163806
Si Si3 0.020134 0.227781 0.690733
Si Si4 0.263634 0.517309 0.403179
Si Si5 0.491527 0.958645 0.896133
Si Si6 0.158155 0.158247 0.842907
Si Si7 0.680941 0.331102 0.225307
Si Si8 0.207746 0.536715 0.121578
O O1 0.734871 0.668490 0.428345
O O2 0.662115 0.770322 0.573390
O O3 0.395247 0.299495 0.158432
O O4 0.242444 0.339211 0.260235
O O5 0.293686 0.468022 0.156879
O O6 0.994048 0.148310 0.618085
O O7 0.058439 0.174341 0.782561
O O8 0.929609 0.291050 0.719747
O O9 0.379568 0.508877 0.363682
O O10 0.192863 0.431298 0.393591
O O11 0.204204 0.591269 0.346627
O O12 0.279517 0.543157 0.510950
O O13 0.596865 0.994909 0.851561
O O14 0.500000 0.000000 0.000000
O O15 0.750000 0.250000 0.198885
O O16 0.710590 0.371000 0.325577
#
# Coordination Sequence:
#
# PCOD9432221 Si02
#       8
#     4   8   8   8   8   8   8   8
#     4  12  20  38  70 110 142 170 224 302 374 410
#     4  12  22  41  70 104 142 173 232 308 357 426
#     4  12  24  45  69 109 143 183 246 302 365 435
#     4  11  24  46  70  97 141 191 235 288 368 436
#     4  10  22  41  71 104 139 185 235 287 356 443
#     4  12  23  40  71 105 137 182 232 302 368 421
#     4  12  27  48  68  94 145 195 234 299 359 445
#     4  11  24  44  70 105 139 184 237 292 365 430
#
# _framework density 20.994515
#
# number of rings (size 3 to 8) (size 9 to 14) (size 15 to 20)
#    0.000    0.533    8.000    0.000    3.733    0.533 
#    7.200    0.667    0.000    0.000    0.000    0.000 
#    0.000    0.000    0.000    0.000    0.000    0.000 
#
# Total GULP energy -334283.464243 kJ/mol
# GULP energy per Si atom -5571.391071 kJ/mol
# Density = 2.094673 g / cm^3
# Si number density = 20.994515 Si / 1000 Ang^3
#
#
#
# Elastic Constant Matrix: (Units=GPa)
#
#
# Indices 1 2 3 4 5 6 
#
# 1 72.2000 20.6478 15.1683 0.0000 0.0000 0.0000
# 2 20.6478 56.1217 28.8923 0.0000 0.0000 0.0000
# 3 15.1683 28.8923 119.1413 0.0000 0.0000 0.0000
# 4 0.0000 0.0000 0.0000 52.3361 0.0000 0.0000
# 5 0.0000 0.0000 0.0000 0.0000 3.8167 0.0000
# 6 0.0000 0.0000 0.0000 0.0000 0.0000 36.2859
#
#
#
# Elastic Compliance Matrix: (Units=1/GPa)
#
#
# Indices 1 2 3 4 5 6 
#
# 1 0.015527 -0.005364 -0.000676 0.000000 0.000000 0.000000
# 2 -0.005364 0.022214 -0.004704 0.000000 0.000000 0.000000
# 3 -0.000676 -0.004704 0.009620 0.000000 0.000000 0.000000
# 4 0.000000 0.000000 0.000000 0.019107 0.000000 0.000000
# 5 0.000000 0.000000 0.000000 0.000000 0.262008 0.000000
# 6 0.000000 0.000000 0.000000 0.000000 0.000000 0.027559
#
#
# Mechanical properties :
#
#
# Convention : Reuss Voigt Hill
#
# Bulk Modulus (GPa) = 38.65194 41.87555 40.26374
# Shear Modulus (GPa) = 12.94842 30.67137 21.80990
#
# Velocity S-wave (km/s) = 2.48614 3.82635 3.22660
# Velocity P-wave (km/s) = 5.16640 6.28574 5.75336
#
# Compressibility (1/GPa) = 0.02587192
#
# Stress axis : x y z
#
# Youngs Moduli (GPa) = 64.40590 45.01720 103.94824
#
# Poissons Ratio (x) = 0.24149 0.07025
# Poissons Ratio (y) = 0.34550 0.48897
# Poissons Ratio (z) = 0.04353 0.21176
#
# Static dielectric constant tensor:
#      x y z
#    x 1.766850 0.000000 0.000000 
#    y 0.000000 1.785220 0.000000 
#    z 0.000000 0.000000 1.783300 
# 
# From -- ./inp_files/12399.got.cif
#   From: 2010.05.17/outbox.cif.g08.bks.cpg/sg56_7_cif.got.tgz:12399.got - 2010.06.03 13:42:01.
