data_PCOD9432891
_publ_section_title
;
Structure prediction by ZEFSAII (Michael W. Deem and Ramdas Pophale) SiO2 
 PCOD9432891
Probable space group: P C C N
;
_chemical_formula_sum "Si O2"
_cell_formula_units_Z 32
_cell_length_a 5.142756
_cell_length_b 28.684121
_cell_length_c 9.403704
_cell_angle_alpha 90.000000
_cell_angle_beta 90.000000
_cell_angle_gamma 90.000000
_cell_volume 1387.191490
_symmetry_space_group_name_H-M "P C C N"
_symmetry_group_IT_number 56
_symmetry_cell_setting 'orthorhombic'
loop_
_space_group_symop_operation_xyz
x,y,z
1/2-x,1/2-y,z
1/2+x,-y,1/2-z
-x,1/2+y,1/2-z
-x,-y,-z
1/2+x,1/2+y,-z
1/2-x,y,1/2+z
x,1/2-y,1/2+z
loop_
_atom_site_type_symbol
_atom_site_label
_atom_site_fract_x
_atom_site_fract_y
_atom_site_fract_z
Si Si1 0.824058 0.334642 0.503720
Si Si2 0.499648 0.621418 0.738958
Si Si3 0.311681 0.200222 0.141207
Si Si4 0.975900 0.983016 0.663157
O O1 0.706347 0.351383 0.357497
O O2 0.596820 0.304951 0.578967
O O3 0.879275 0.380247 0.602543
O O4 0.090352 0.306065 0.518371
O O5 0.742881 0.655810 0.761229
O O6 0.567925 0.572569 0.671124
O O7 0.250000 0.250000 0.208956
O O8 0.738333 0.006397 0.748576
O O9 0.000000 0.000000 0.500000
#
# Coordination Sequence:
#
# PCOD9432891 Si02
#       4
#     8   8   8   8
#     4  10  24  42  68  99 135 182 222 285 347 414
#     4  10  26  43  75  94 148 172 241 280 364 404
#     4  10  24  43  67 100 136 178 231 280 350 415
#     4  12  28  47  75 108 146 191 251 302 371 439
#
# _framework density 23.068194999999999
#
# number of rings (size 3 to 8) (size 9 to 14) (size 15 to 20)
#    1.500    0.000    0.000    3.000   10.500    1.000 
#    4.500    0.000    0.000    0.000    0.000    0.000 
#    0.000    0.000    0.000    0.000    0.000    0.000 
#
# Total GULP energy -178670.137396 kJ/mol
# GULP energy per Si atom -5583.441794 kJ/mol
# Density = 2.301569 g / cm^3
# Si number density = 23.068195 Si / 1000 Ang^3
#
#
#
# Elastic Constant Matrix: (Units=GPa)
#
#
# Indices 1 2 3 4 5 6 
#
# 1 95.1053 2.9400 28.3956 0.0000 0.0000 0.0000
# 2 2.9400 101.2733 4.5886 0.0000 0.0000 0.0000
# 3 28.3956 4.5886 101.8957 0.0000 0.0000 0.0000
# 4 0.0000 0.0000 0.0000 14.9720 0.0000 0.0000
# 5 0.0000 0.0000 0.0000 0.0000 25.8307 0.0000
# 6 0.0000 0.0000 0.0000 0.0000 0.0000 1.3400
#
#
#
# Elastic Compliance Matrix: (Units=1/GPa)
#
#
# Indices 1 2 3 4 5 6 
#
# 1 0.011473 -0.000189 -0.003189 0.000000 0.000000 0.000000
# 2 -0.000189 0.009898 -0.000393 0.000000 0.000000 0.000000
# 3 -0.003189 -0.000393 0.010720 0.000000 0.000000 0.000000
# 4 0.000000 0.000000 0.000000 0.066792 0.000000 0.000000
# 5 0.000000 0.000000 0.000000 0.000000 0.038714 0.000000
# 6 0.000000 0.000000 0.000000 0.000000 0.000000 0.746283
#
#
# Mechanical properties :
#
#
# Convention : Reuss Voigt Hill
#
# Bulk Modulus (GPa) = 40.73378 41.12475 40.92927
# Shear Modulus (GPa) = 5.55801 25.91854 15.73828
#
# Velocity S-wave (km/s) = 1.55390 3.35559 2.61483
# Velocity P-wave (km/s) = 4.57338 5.73407 5.18630
#
# Compressibility (1/GPa) = 0.02454965
#
# Stress axis : x y z
#
# Youngs Moduli (GPa) = 87.16495 101.03503 93.28157
#
# Poissons Ratio (x) = 0.01905 0.29744
# Poissons Ratio (y) = 0.01644 0.03667
# Poissons Ratio (z) = 0.27793 0.03972
#
# Static dielectric constant tensor:
#      x y z
#    x 1.953670 0.000000 0.000000 
#    y 0.000000 1.862150 0.000000 
#    z 0.000000 0.000000 1.934320 
# 
# From -- ./inp_files/1593.got.cif
#   From: 2010.05.17/outbox.cif.g08.bks.cpg/sg56_1_cif.got.tgz:1593.got - 2010.06.03 13:42:01.
