data_PCOD9432176
_publ_section_title
;
Structure prediction by ZEFSAII (Michael W. Deem and Ramdas Pophale) SiO2 
 PCOD9432176
Probable space group: P C C N
;
_chemical_formula_sum "Si O2"
_cell_formula_units_Z 52
_cell_length_a 14.126928
_cell_length_b 18.032996
_cell_length_c 11.137837
_cell_angle_alpha 90.000000
_cell_angle_beta 90.000000
_cell_angle_gamma 90.000000
_cell_volume 2837.373288
_symmetry_space_group_name_H-M "P C C N"
_symmetry_group_IT_number 56
_symmetry_cell_setting 'orthorhombic'
loop_
_space_group_symop_operation_xyz
x,y,z
1/2-x,1/2-y,z
1/2+x,-y,1/2-z
-x,1/2+y,1/2-z
-x,-y,-z
1/2+x,1/2+y,-z
1/2-x,y,1/2+z
x,1/2-y,1/2+z
loop_
_atom_site_type_symbol
_atom_site_label
_atom_site_fract_x
_atom_site_fract_y
_atom_site_fract_z
Si Si1 0.365865 0.981498 0.949763
Si Si2 0.558674 0.229630 0.451411
Si Si3 0.649154 0.130306 0.258321
Si Si4 0.992466 0.106510 0.384877
Si Si5 0.484678 0.101868 0.602826
Si Si6 0.657689 0.019354 0.474258
Si Si7 0.250000 0.750000 0.393820
O O1 0.393138 0.924679 0.842204
O O2 0.419138 0.058817 0.932651
O O3 0.403106 0.941759 0.070069
O O4 0.253767 0.991655 0.953508
O O5 0.580040 0.189114 0.324221
O O6 0.518814 0.311381 0.435675
O O7 0.490119 0.177854 0.529068
O O8 0.658794 0.235746 0.522801
O O9 0.680025 0.076539 0.366220
O O10 0.727910 0.179492 0.190802
O O11 0.000913 0.112525 0.242901
O O12 0.575089 0.055959 0.553665
O O13 0.390133 0.054881 0.577394
#
# Coordination Sequence:
#
# PCOD9432176 Si02
#       7
#     8   8   8   8   8   8   4
#     4  11  24  40  63  90 126 164 214 252 312 377
#     4  11  24  36  62  93 127 162 210 256 321 371
#     4  11  21  37  59  95 125 161 205 247 318 377
#     4  11  24  41  61  93 126 165 207 266 309 374
#     4  10  22  41  64  90 126 165 208 263 314 371
#     4  10  23  40  64  92 123 168 211 255 312 379
#     4  12  22  34  58  96 132 162 196 260 322 376
#
# _framework density 18.326809999999998
#
# number of rings (size 3 to 8) (size 9 to 14) (size 15 to 20)
#    0.000    1.231    3.077    3.231    6.462    0.000 
#    0.000    0.769    0.000    1.846    0.000    0.000 
#    0.000    0.000    0.000    0.000    0.000    0.000 
#
# Total GULP energy -290437.611727 kJ/mol
# GULP energy per Si atom -5585.338687 kJ/mol
# Density = 1.828510 g / cm^3
# Si number density = 18.326810 Si / 1000 Ang^3
#
#
#
# Elastic Constant Matrix: (Units=GPa)
#
#
# Indices 1 2 3 4 5 6 
#
# 1 74.1188 58.0632 27.5007 0.0000 0.0000 0.0000
# 2 58.0632 162.8052 62.6178 0.0000 0.0000 0.0000
# 3 27.5007 62.6178 76.6620 0.0000 0.0000 0.0000
# 4 0.0000 0.0000 0.0000 20.7887 0.0000 0.0000
# 5 0.0000 0.0000 0.0000 0.0000 24.3242 0.0000
# 6 0.0000 0.0000 0.0000 0.0000 0.0000 25.3446
#
#
#
# Elastic Compliance Matrix: (Units=1/GPa)
#
#
# Indices 1 2 3 4 5 6 
#
# 1 0.018903 -0.006027 -0.001858 0.000000 0.000000 0.000000
# 2 -0.006027 0.010877 -0.006723 0.000000 0.000000 0.000000
# 3 -0.001858 -0.006723 0.019202 0.000000 0.000000 0.000000
# 4 0.000000 0.000000 0.000000 0.048103 0.000000 0.000000
# 5 0.000000 0.000000 0.000000 0.000000 0.041111 0.000000
# 6 0.000000 0.000000 0.000000 0.000000 0.000000 0.039456
#
#
# Mechanical properties :
#
#
# Convention : Reuss Voigt Hill
#
# Bulk Modulus (GPa) = 50.59034 67.77214 59.18124
# Shear Modulus (GPa) = 23.42395 25.11844 24.27120
#
# Velocity S-wave (km/s) = 3.57897 3.70616 3.64312
# Velocity P-wave (km/s) = 6.68903 7.44138 7.07521
#
# Compressibility (1/GPa) = 0.01976662
#
# Stress axis : x y z
#
# Youngs Moduli (GPa) = 52.90291 91.93383 52.07788
#
# Poissons Ratio (x) = 0.55406 0.09677
# Poissons Ratio (y) = 0.31883 0.35011
# Poissons Ratio (z) = 0.09830 0.61805
#
# Static dielectric constant tensor:
#      x y z
#    x 1.609790 0.000000 0.000000 
#    y 0.000000 1.639200 0.000000 
#    z 0.000000 0.000000 1.648420 
# 
# From -- ./inp_files/7996.got.cif
#   From: 2010.05.17/outbox.cif.g08.bks.cpg/sg56_4_cif.got.tgz:7996.got - 2010.06.03 13:42:01.
