data_PCOD9432089
_publ_section_title
;
Structure prediction by ZEFSAII (Michael W. Deem and Ramdas Pophale) SiO2 
 PCOD9432089
Probable space group: P C C N
;
_chemical_formula_sum "Si O2"
_cell_formula_units_Z 40
_cell_length_a 8.114325
_cell_length_b 20.617507
_cell_length_c 11.099622
_cell_angle_alpha 90.000000
_cell_angle_beta 90.000000
_cell_angle_gamma 90.000000
_cell_volume 1856.935154
_symmetry_space_group_name_H-M "P C C N"
_symmetry_group_IT_number 56
_symmetry_cell_setting 'orthorhombic'
loop_
_space_group_symop_operation_xyz
x,y,z
1/2-x,1/2-y,z
1/2+x,-y,1/2-z
-x,1/2+y,1/2-z
-x,-y,-z
1/2+x,1/2+y,-z
1/2-x,y,1/2+z
x,1/2-y,1/2+z
loop_
_atom_site_type_symbol
_atom_site_label
_atom_site_fract_x
_atom_site_fract_y
_atom_site_fract_z
Si Si1 0.874546 0.927333 0.514742
Si Si2 0.589132 0.123597 0.211315
Si Si3 0.357874 0.186759 0.408722
Si Si4 0.219878 0.946045 0.602397
Si Si5 0.828535 0.316392 0.539592
O O1 0.762728 0.872338 0.568362
O O2 0.973486 0.900759 0.397519
O O3 0.020916 0.943484 0.608919
O O4 0.762657 0.988184 0.473980
O O5 0.477041 0.166448 0.299639
O O6 0.675310 0.061873 0.276438
O O7 0.740122 0.168407 0.165546
O O8 0.250000 0.250000 0.387115
O O9 0.477096 0.193353 0.525453
O O10 0.279183 0.881429 0.532791
O O11 0.750000 0.250000 0.490305
#
# Coordination Sequence:
#
# PCOD9432089 Si02
#       5
#     8   8   8   8   8
#     4  10  22  40  63  92 123 158 206 255 296 355
#     4  10  23  38  62  91 122 164 200 244 309 361
#     4  11  24  41  63  91 122 155 205 255 295 355
#     4   9  21  41  61  87 125 162 200 247 304 361
#     4  10  22  41  62  86 121 160 198 246 306 362
#
# _framework density 21.540870999999999
#
# number of rings (size 3 to 8) (size 9 to 14) (size 15 to 20)
#    0.000    2.000    0.000    2.400    0.000   18.400 
#    0.000    0.000    0.000    0.000    0.000    0.000 
#    0.000    0.000    0.000    0.000    0.000    0.000 
#
# Total GULP energy -223122.183016 kJ/mol
# GULP energy per Si atom -5578.054575 kJ/mol
# Density = 2.149184 g / cm^3
# Si number density = 21.540871 Si / 1000 Ang^3
#
#
#
# Elastic Constant Matrix: (Units=GPa)
#
#
# Indices 1 2 3 4 5 6 
#
# 1 76.0072 24.3823 43.4591 0.0000 0.0000 0.0000
# 2 24.3823 106.2725 13.1407 0.0000 0.0000 0.0000
# 3 43.4591 13.1407 60.4555 0.0000 0.0000 0.0000
# 4 0.0000 0.0000 0.0000 16.5163 0.0000 0.0000
# 5 0.0000 0.0000 0.0000 0.0000 52.3555 0.0000
# 6 0.0000 0.0000 0.0000 0.0000 0.0000 39.7750
#
#
#
# Elastic Compliance Matrix: (Units=1/GPa)
#
#
# Indices 1 2 3 4 5 6 
#
# 1 0.023469 -0.003390 -0.016134 0.000000 0.000000 0.000000
# 2 -0.003390 0.010159 0.000228 0.000000 0.000000 0.000000
# 3 -0.016134 0.000228 0.028090 0.000000 0.000000 0.000000
# 4 0.000000 0.000000 0.000000 0.060546 0.000000 0.000000
# 5 0.000000 0.000000 0.000000 0.000000 0.019100 0.000000
# 6 0.000000 0.000000 0.000000 0.000000 0.000000 0.025141
#
#
# Mechanical properties :
#
#
# Convention : Reuss Voigt Hill
#
# Bulk Modulus (GPa) = 43.23910 44.96660 44.10285
# Shear Modulus (GPa) = 23.49552 32.51289 28.00420
#
# Velocity S-wave (km/s) = 3.30622 3.88926 3.60953
# Velocity P-wave (km/s) = 5.88994 6.41005 6.15549
#
# Compressibility (1/GPa) = 0.02312722
#
# Stress axis : x y z
#
# Youngs Moduli (GPa) = 42.60889 98.43291 35.60002
#
# Poissons Ratio (x) = 0.33365 0.57439
# Poissons Ratio (y) = 0.14443 -0.00813
# Poissons Ratio (z) = 0.68747 -0.02248
#
# Static dielectric constant tensor:
#      x y z
#    x 1.785300 0.000000 0.000000 
#    y 0.000000 2.294520 0.000000 
#    z 0.000000 0.000000 1.892230 
# 
# From -- ./inp_files/6208.got.cif
#   From: 2010.05.17/outbox.cif.g08.bks.cpg/sg56_4_cif.got.tgz:6208.got - 2010.06.03 13:42:01.
