data_PCOD9432049
_publ_section_title
;
Structure prediction by ZEFSAII (Michael W. Deem and Ramdas Pophale) SiO2 
 PCOD9432049
Probable space group: P C C N
;
_chemical_formula_sum "Si O2"
_cell_formula_units_Z 64
_cell_length_a 28.895985
_cell_length_b 9.575662
_cell_length_c 10.596717
_cell_angle_alpha 90.000000
_cell_angle_beta 90.000000
_cell_angle_gamma 90.000000
_cell_volume 2932.092366
_symmetry_space_group_name_H-M "P C C N"
_symmetry_group_IT_number 56
_symmetry_cell_setting 'orthorhombic'
loop_
_space_group_symop_operation_xyz
x,y,z
1/2-x,1/2-y,z
1/2+x,-y,1/2-z
-x,1/2+y,1/2-z
-x,-y,-z
1/2+x,1/2+y,-z
1/2-x,y,1/2+z
x,1/2-y,1/2+z
loop_
_atom_site_type_symbol
_atom_site_label
_atom_site_fract_x
_atom_site_fract_y
_atom_site_fract_z
Si Si1 0.023573 0.428837 0.176960
Si Si2 0.727337 0.543445 0.160232
Si Si3 0.399623 0.239828 0.113883
Si Si4 0.319281 0.195282 0.772034
Si Si5 0.223689 0.601320 0.076559
Si Si6 0.450376 0.817032 0.007279
Si Si7 0.042663 0.516550 0.594327
Si Si8 0.628992 0.491303 0.558099
O O1 0.066975 0.333247 0.220012
O O2 0.042401 0.574525 0.122006
O O3 0.983591 0.468577 0.273349
O O4 0.997909 0.334038 0.070783
O O5 0.687988 0.662405 0.147550
O O6 0.769971 0.623098 0.228249
O O7 0.717186 0.434669 0.273715
O O8 0.744954 0.490224 0.023823
O O9 0.345932 0.254563 0.149542
O O10 0.422136 0.388445 0.084864
O O11 0.398012 0.118846 0.010024
O O12 0.351107 0.071105 0.822925
O O13 0.250000 0.750000 0.070724
O O14 0.172218 0.575914 0.018108
O O15 0.437154 0.666428 0.057573
O O16 0.408755 0.873415 0.921618
O O17 0.000000 0.500000 0.500000
#
# Coordination Sequence:
#
# PCOD9432049 Si02
#       8
#     8   8   8   8   8   8   8   8
#     4  10  22  41  62  87 131 177 217 268 344 393
#     4  10  23  41  69 101 132 177 223 279 341 407
#     4  11  22  39  65  94 127 172 222 283 321 397
#     4  10  22  39  67  93 131 169 224 275 330 400
#     4  11  23  44  69  98 140 178 222 275 349 409
#     4  10  22  42  63  88 131 175 216 276 333 398
#     4  12  24  38  62  98 126 170 226 274 333 395
#     4  10  23  42  63  96 128 174 219 268 335 396
#
# _framework density 21.827417000000001
#
# number of rings (size 3 to 8) (size 9 to 14) (size 15 to 20)
#    0.000    1.500    2.500    1.875    3.500    2.000 
#    0.000    1.250    0.000    0.000    0.000    0.000 
#    0.000    0.000    0.000    0.000    0.000    0.000 
#
# Total GULP energy -356393.135520 kJ/mol
# GULP energy per Si atom -5568.642742 kJ/mol
# Density = 2.177774 g / cm^3
# Si number density = 21.827417 Si / 1000 Ang^3
#
#
#
# Elastic Constant Matrix: (Units=GPa)
#
#
# Indices 1 2 3 4 5 6 
#
# 1 41.8240 27.3616 -4.3901 0.0000 0.0000 0.0000
# 2 27.3616 106.4621 2.1584 0.0000 0.0000 0.0000
# 3 -4.3901 2.1584 33.0385 0.0000 0.0000 0.0000
# 4 0.0000 0.0000 0.0000 -7.7652 0.0000 0.0000
# 5 0.0000 0.0000 0.0000 0.0000 6.8540 0.0000
# 6 0.0000 0.0000 0.0000 0.0000 0.0000 0.3141
#
#
#
# Elastic Compliance Matrix: (Units=1/GPa)
#
#
# Indices 1 2 3 4 5 6 
#
# 1 0.029368 -0.007637 0.004401 0.000000 0.000000 0.000000
# 2 -0.007637 0.011391 -0.001759 0.000000 0.000000 0.000000
# 3 0.004401 -0.001759 0.030967 0.000000 0.000000 0.000000
# 4 0.000000 0.000000 0.000000 -0.128780 0.000000 0.000000
# 5 0.000000 0.000000 0.000000 0.000000 0.145901 0.000000
# 6 0.000000 0.000000 0.000000 0.000000 0.000000 3.183295
#
#
# Mechanical properties :
#
#
# Convention : Reuss Voigt Hill
#
# Bulk Modulus (GPa) = 16.19765 25.73161 20.96463
# Shear Modulus (GPa) = 1.51391 10.29356 5.90374
#
# Velocity S-wave (km/s) = 0.83372 2.17397 1.64639
# Velocity P-wave (km/s) = 2.89200 4.25626 3.63864
#
# Compressibility (1/GPa) = 0.06173736
#
# Stress axis : x y z
#
# Youngs Moduli (GPa) = 34.05074 87.78513 32.29198
#
# Poissons Ratio (x) = 0.67042 -0.14213
# Poissons Ratio (y) = 0.26005 0.05680
# Poissons Ratio (z) = -0.14987 0.15441
#
# Static dielectric constant tensor:
#      x y z
#    x 2.018970 0.000000 0.000000 
#    y 0.000000 1.833910 0.000000 
#    z 0.000000 0.000000 1.962750 
# 
# From -- ./inp_files/9192.got.cif
#   From: 2010.05.17/outbox.cif.g08.bks.cpg/sg56_5_cif.got.tgz:9192.got - 2010.06.03 13:42:01.
