data_PCOD9432059
_publ_section_title
;
Structure prediction by ZEFSAII (Michael W. Deem and Ramdas Pophale) SiO2 
 PCOD9432059
Probable space group: P C C N
;
_chemical_formula_sum "Si O2"
_cell_formula_units_Z 40
_cell_length_a 13.734842
_cell_length_b 16.813016
_cell_length_c 7.575293
_cell_angle_alpha 90.000000
_cell_angle_beta 90.000000
_cell_angle_gamma 90.000000
_cell_volume 1749.317857
_symmetry_space_group_name_H-M "P C C N"
_symmetry_group_IT_number 56
_symmetry_cell_setting 'orthorhombic'
loop_
_space_group_symop_operation_xyz
x,y,z
1/2-x,1/2-y,z
1/2+x,-y,1/2-z
-x,1/2+y,1/2-z
-x,-y,-z
1/2+x,1/2+y,-z
1/2-x,y,1/2+z
x,1/2-y,1/2+z
loop_
_atom_site_type_symbol
_atom_site_label
_atom_site_fract_x
_atom_site_fract_y
_atom_site_fract_z
Si Si1 0.320383 0.673864 0.368593
Si Si2 0.403390 0.443880 0.495644
Si Si3 0.531194 0.685486 0.230356
Si Si4 0.845922 0.417883 0.790259
Si Si5 0.050775 0.132989 0.158396
O O1 0.250000 0.750000 0.372602
O O2 0.413323 0.680000 0.242628
O O3 0.357714 0.651101 0.561628
O O4 0.250653 0.602748 0.312785
O O5 0.500000 0.500000 0.500000
O O6 0.426549 0.365571 0.608257
O O7 0.333569 0.499064 0.609737
O O8 0.385196 0.420124 0.292848
O O9 0.552638 0.778186 0.259460
O O10 0.569484 0.647573 0.048048
O O11 0.943146 0.407316 0.674093
#
# Coordination Sequence:
#
# PCOD9432059 Si02
#       5
#     8   8   8   8   8
#     4  12  22  35  57  89 128 163 192 231 303 374
#     4  10  22  40  55  86 127 154 205 251 286 360
#     4  12  21  38  64  88 119 164 200 244 301 360
#     4  11  23  37  54  89 128 157 196 247 291 363
#     4  11  21  37  61  86 118 156 202 244 293 354
#
# _framework density 22.866057000000001
#
# number of rings (size 3 to 8) (size 9 to 14) (size 15 to 20)
#    0.000    0.800    8.000    1.800    0.000    3.200 
#    3.600    0.000    0.000    0.000    0.000    4.200 
#    0.000    0.000    0.000    0.000    0.000    0.000 
#
# Total GULP energy -223475.218075 kJ/mol
# GULP energy per Si atom -5586.880452 kJ/mol
# Density = 2.281401 g / cm^3
# Si number density = 22.866057 Si / 1000 Ang^3
#
#
#
# Elastic Constant Matrix: (Units=GPa)
#
#
# Indices 1 2 3 4 5 6 
#
# 1 12.3231 11.2316 -1.8095 0.0000 0.0000 0.0000
# 2 11.2316 69.1552 -2.5363 0.0000 0.0000 0.0000
# 3 -1.8095 -2.5363 105.3638 0.0000 0.0000 0.0000
# 4 0.0000 0.0000 0.0000 42.7932 0.0000 0.0000
# 5 0.0000 0.0000 0.0000 0.0000 18.0281 0.0000
# 6 0.0000 0.0000 0.0000 0.0000 0.0000 24.8084
#
#
#
# Elastic Compliance Matrix: (Units=1/GPa)
#
#
# Indices 1 2 3 4 5 6 
#
# 1 0.095416 -0.015450 0.001267 0.000000 0.000000 0.000000
# 2 -0.015450 0.016975 0.000143 0.000000 0.000000 0.000000
# 3 0.001267 0.000143 0.009516 0.000000 0.000000 0.000000
# 4 0.000000 0.000000 0.000000 0.023368 0.000000 0.000000
# 5 0.000000 0.000000 0.000000 0.000000 0.055469 0.000000
# 6 0.000000 0.000000 0.000000 0.000000 0.000000 0.040309
#
#
# Mechanical properties :
#
#
# Convention : Reuss Voigt Hill
#
# Bulk Modulus (GPa) = 10.65796 22.29040 16.47418
# Shear Modulus (GPa) = 16.64399 29.12303 22.88351
#
# Velocity S-wave (km/s) = 2.70087 3.57268 3.16692
# Velocity P-wave (km/s) = 3.79440 5.17572 4.53792
#
# Compressibility (1/GPa) = 0.09382660
#
# Stress axis : x y z
#
# Youngs Moduli (GPa) = 10.48042 58.91091 105.08473
#
# Poissons Ratio (x) = 0.91019 -0.13312
# Poissons Ratio (y) = 0.16192 -0.01506
# Poissons Ratio (z) = -0.01328 -0.00844
#
# Static dielectric constant tensor:
#      x y z
#    x 1.906090 0.000000 0.000000 
#    y 0.000000 1.883700 0.000000 
#    z 0.000000 0.000000 1.912190 
# 
# From -- ./inp_files/3220.got.cif
#   From: 2010.05.17/outbox.cif.g08.bks.cpg/sg56_2_cif.got.tgz:3220.got - 2010.06.03 13:42:01.
