data_PCOD9432899
_publ_section_title
;
Structure prediction by ZEFSAII (Michael W. Deem and Ramdas Pophale) SiO2 
 PCOD9432899
Probable space group: P C C N
;
_chemical_formula_sum "Si O2"
_cell_formula_units_Z 44
_cell_length_a 13.043796
_cell_length_b 15.791562
_cell_length_c 8.774923
_cell_angle_alpha 90.000000
_cell_angle_beta 90.000000
_cell_angle_gamma 90.000000
_cell_volume 1807.475428
_symmetry_space_group_name_H-M "P C C N"
_symmetry_group_IT_number 56
_symmetry_cell_setting 'orthorhombic'
loop_
_space_group_symop_operation_xyz
x,y,z
1/2-x,1/2-y,z
1/2+x,-y,1/2-z
-x,1/2+y,1/2-z
-x,-y,-z
1/2+x,1/2+y,-z
1/2-x,y,1/2+z
x,1/2-y,1/2+z
loop_
_atom_site_type_symbol
_atom_site_label
_atom_site_fract_x
_atom_site_fract_y
_atom_site_fract_z
Si Si1 0.346464 0.839224 0.735783
Si Si2 0.250000 0.250000 0.928592
Si Si3 0.336502 0.131054 0.168102
Si Si4 0.054128 0.975367 0.775413
Si Si5 0.646763 0.986345 0.423826
Si Si6 0.378734 0.678083 0.591371
O O1 0.415353 0.770285 0.646239
O O2 0.229144 0.830419 0.680114
O O3 0.366221 0.934218 0.686523
O O4 0.358507 0.823102 0.913289
O O5 0.333245 0.202145 0.035708
O O6 0.195102 0.181099 0.820961
O O7 0.243849 0.068789 0.118105
O O8 0.431880 0.068224 0.196721
O O9 0.061496 0.904093 0.647306
O O10 0.960732 0.942674 0.882484
O O11 0.145392 0.981978 0.902186
#
# Coordination Sequence:
#
# PCOD9432899 Si02
#       6
#     8   4   8   8   8   8
#     4  11  22  39  64  93 127 168 213 264 323 388
#     4  10  24  42  72  94 126 180 228 274 340 378
#     4  11  22  46  67  96 132 176 223 282 326 407
#     4  11  24  43  67  99 135 175 219 276 340 398
#     4  11  24  43  67  99 135 175 219 276 340 398
#     4  11  22  39  64  93 127 168 213 264 323 388
#
# _framework density 24.343346
#
# number of rings (size 3 to 8) (size 9 to 14) (size 15 to 20)
#    0.000    1.091    3.636    4.364    2.545    0.727 
#    6.545    0.000    0.000    0.000    0.000    0.000 
#    0.000    0.000    0.000    0.000    0.000    0.000 
#
# Total GULP energy -245848.566483 kJ/mol
# GULP energy per Si atom -5587.467420 kJ/mol
# Density = 2.428794 g / cm^3
# Si number density = 24.343346 Si / 1000 Ang^3
#
#
#
# Elastic Constant Matrix: (Units=GPa)
#
#
# Indices 1 2 3 4 5 6 
#
# 1 37.6339 -4.0823 -7.3562 0.0000 0.0000 0.0000
# 2 -4.0823 89.8260 39.7659 0.0000 0.0000 0.0000
# 3 -7.3562 39.7659 176.9140 0.0000 0.0000 0.0000
# 4 0.0000 0.0000 0.0000 45.8274 0.0000 0.0000
# 5 0.0000 0.0000 0.0000 0.0000 21.4019 0.0000
# 6 0.0000 0.0000 0.0000 0.0000 0.0000 -8.3747
#
#
#
# Elastic Compliance Matrix: (Units=1/GPa)
#
#
# Indices 1 2 3 4 5 6 
#
# 1 0.026842 0.000806 0.000935 0.000000 0.000000 0.000000
# 2 0.000806 0.012387 -0.002751 0.000000 0.000000 0.000000
# 3 0.000935 -0.002751 0.006310 0.000000 0.000000 0.000000
# 4 0.000000 0.000000 0.000000 0.021821 0.000000 0.000000
# 5 0.000000 0.000000 0.000000 0.000000 0.046725 0.000000
# 6 0.000000 0.000000 0.000000 0.000000 0.000000 -0.119407
#
#
# Mechanical properties :
#
#
# Convention : Reuss Voigt Hill
#
# Bulk Modulus (GPa) = 22.97852 40.11431 31.54641
# Shear Modulus (GPa) = 446.30267 30.17401 238.23834
#
# Velocity S-wave (km/s) = 13.55487 3.52450 9.90345
# Velocity P-wave (km/s) = 15.95115 5.75127 11.98992
#
# Compressibility (1/GPa) = 0.04351890
#
# Stress axis : x y z
#
# Youngs Moduli (GPa) = 37.25510 80.72958 158.48740
#
# Poissons Ratio (x) = -0.06507 -0.14818
# Poissons Ratio (y) = -0.03003 0.43597
# Poissons Ratio (z) = -0.03483 0.22207
#
# Static dielectric constant tensor:
#      x y z
#    x 1.402800 0.000000 0.000000 
#    y 0.000000 2.029830 0.000000 
#    z 0.000000 0.000000 1.900620 
# 
# From -- ./inp_files/3965.got.cif
#   From: 2010.05.17/outbox.cif.g08.bks.cpg/sg56_2_cif.got.tgz:3965.got - 2010.06.03 13:42:01.
