data_PCOD9432935
_publ_section_title
;
Structure prediction by ZEFSAII (Michael W. Deem and Ramdas Pophale) SiO2 
 PCOD9432935
Probable space group: P C C N
;
_chemical_formula_sum "Si O2"
_cell_formula_units_Z 32
_cell_length_a 10.273945
_cell_length_b 7.765891
_cell_length_c 18.232299
_cell_angle_alpha 90.000000
_cell_angle_beta 90.000000
_cell_angle_gamma 90.000000
_cell_volume 1454.688352
_symmetry_space_group_name_H-M "P C C N"
_symmetry_group_IT_number 56
_symmetry_cell_setting 'orthorhombic'
loop_
_space_group_symop_operation_xyz
x,y,z
1/2-x,1/2-y,z
1/2+x,-y,1/2-z
-x,1/2+y,1/2-z
-x,-y,-z
1/2+x,1/2+y,-z
1/2-x,y,1/2+z
x,1/2-y,1/2+z
loop_
_atom_site_type_symbol
_atom_site_label
_atom_site_fract_x
_atom_site_fract_y
_atom_site_fract_z
Si Si1 0.750000 0.750000 0.885774
Si Si2 0.989814 0.168916 0.701848
Si Si3 0.645408 0.941122 0.018493
Si Si4 0.102042 0.284443 0.839464
Si Si5 0.250000 0.750000 0.883533
O O1 0.621184 0.760662 0.836169
O O2 0.724823 0.902792 0.944703
O O3 0.009094 0.170319 0.789181
O O4 0.871972 0.281554 0.669755
O O5 0.951312 0.975939 0.678198
O O6 0.614450 0.778603 0.072542
O O7 0.717810 0.087316 0.065490
O O8 0.500000 0.000000 0.000000
O O9 0.250000 0.250000 0.814334
#
# Coordination Sequence:
#
# PCOD9432935 Si02
#       5
#     4   8   8   8   4
#     4  12  22  44  74 104 144 172 244 294 348 422
#     4  11  26  43  70 105 137 187 238 299 347 425
#     4  11  23  46  69 105 142 185 230 295 357 415
#     4  11  24  44  70 100 144 184 232 292 357 419
#     4  10  24  44  66 100 152 180 240 290 350 426
#
# _framework density 21.997838000000002
#
# number of rings (size 3 to 8) (size 9 to 14) (size 15 to 20)
#    0.000    1.000    7.500    0.000    7.000    1.000 
#    4.500    0.000    0.000    0.000    0.000    0.000 
#    0.000    0.000    0.000    0.000    0.000    0.000 
#
# Total GULP energy -178382.303171 kJ/mol
# GULP energy per Si atom -5574.446974 kJ/mol
# Density = 2.194777 g / cm^3
# Si number density = 21.997838 Si / 1000 Ang^3
#
#
#
# Elastic Constant Matrix: (Units=GPa)
#
#
# Indices 1 2 3 4 5 6 
#
# 1 158.6917 30.2833 37.9004 0.0000 0.0000 0.0000
# 2 30.2833 44.6447 10.6910 0.0000 0.0000 0.0000
# 3 37.9004 10.6910 100.1960 0.0000 0.0000 0.0000
# 4 0.0000 0.0000 0.0000 15.2938 0.0000 0.0000
# 5 0.0000 0.0000 0.0000 0.0000 -0.6691 0.0000
# 6 0.0000 0.0000 0.0000 0.0000 0.0000 39.0676
#
#
#
# Elastic Compliance Matrix: (Units=1/GPa)
#
#
# Indices 1 2 3 4 5 6 
#
# 1 0.007780 -0.004693 -0.002442 0.000000 0.000000 0.000000
# 2 -0.004693 0.025817 -0.000980 0.000000 0.000000 0.000000
# 3 -0.002442 -0.000980 0.011009 0.000000 0.000000 0.000000
# 4 0.000000 0.000000 0.000000 0.065386 0.000000 0.000000
# 5 0.000000 0.000000 0.000000 0.000000 -1.494490 0.000000
# 6 0.000000 0.000000 0.000000 0.000000 0.000000 0.025597
#
#
# Mechanical properties :
#
#
# Convention : Reuss Voigt Hill
#
# Bulk Modulus (GPa) = 35.24012 51.25353 43.24683
# Shear Modulus (GPa) = -3.75034 25.71562 10.98264
#
# Velocity S-wave (km/s) = -1.30712 3.42278 2.23684
# Velocity P-wave (km/s) = 3.71167 6.24264 5.13551
#
# Compressibility (1/GPa) = 0.02837674
#
# Stress axis : x y z
#
# Youngs Moduli (GPa) = 128.52922 38.73445 90.83647
#
# Poissons Ratio (x) = 0.18177 0.22185
# Poissons Ratio (y) = 0.60315 0.08898
# Poissons Ratio (z) = 0.31391 0.03794
#
# Static dielectric constant tensor:
#      x y z
#    x 1.825460 0.000000 0.000000 
#    y 0.000000 1.915270 0.000000 
#    z 0.000000 0.000000 1.858450 
# 
# From -- ./inp_files/17819.got.cif
#   From: 2010.05.17/outbox.cif.g08.bks.cpg/sg56_9_cif.got.tgz:17819.got - 2010.06.03 13:42:01.
