data_PCOD9432807
_publ_section_title
;
Structure prediction by ZEFSAII (Michael W. Deem and Ramdas Pophale) SiO2 
 PCOD9432807
Probable space group: P C C N
;
_chemical_formula_sum "Si O2"
_cell_formula_units_Z 40
_cell_length_a 14.310003
_cell_length_b 11.477562
_cell_length_c 9.746812
_cell_angle_alpha 90.000000
_cell_angle_beta 90.000000
_cell_angle_gamma 90.000000
_cell_volume 1600.854870
_symmetry_space_group_name_H-M "P C C N"
_symmetry_group_IT_number 56
_symmetry_cell_setting 'orthorhombic'
loop_
_space_group_symop_operation_xyz
x,y,z
1/2-x,1/2-y,z
1/2+x,-y,1/2-z
-x,1/2+y,1/2-z
-x,-y,-z
1/2+x,1/2+y,-z
1/2-x,y,1/2+z
x,1/2-y,1/2+z
loop_
_atom_site_type_symbol
_atom_site_label
_atom_site_fract_x
_atom_site_fract_y
_atom_site_fract_z
Si Si1 0.030045 0.930944 0.637019
Si Si2 0.823657 0.145986 0.807928
Si Si3 0.025986 0.407604 0.385367
Si Si4 0.153431 0.298155 0.885587
Si Si5 0.298995 0.963090 0.985637
O O1 0.125861 0.884480 0.570462
O O2 0.937392 0.861379 0.685588
O O3 0.000000 0.000000 0.500000
O O4 0.061532 0.017225 0.756694
O O5 0.750000 0.250000 0.785023
O O6 0.934963 0.160629 0.825211
O O7 0.807799 0.067204 0.673394
O O8 0.795724 0.077109 0.945432
O O9 0.000000 0.500000 0.500000
O O10 0.100956 0.315923 0.440619
O O11 0.250000 0.250000 0.818339
O O12 0.185217 0.398007 0.992707
#
# Coordination Sequence:
#
# PCOD9432807 Si02
#       5
#     8   8   8   8   8
#     4  10  23  49  73 105 159 196 253 314 388 450
#     4  12  26  50  80 114 154 207 264 322 396 475
#     4  12  27  48  77 117 153 206 264 315 397 478
#     4  11  25  49  76 113 150 206 254 326 380 461
#     4  11  26  51  75 112 156 206 262 326 393 468
#
# _framework density 24.986651999999999
#
# number of rings (size 3 to 8) (size 9 to 14) (size 15 to 20)
#    0.000    0.800    4.000    3.000    5.600    3.200 
#   10.800    0.000    0.000    0.000    0.000    0.000 
#    0.000    0.000    0.000    0.000    0.000    0.000 
#
# Total GULP energy -222958.165518 kJ/mol
# GULP energy per Si atom -5573.954138 kJ/mol
# Density = 2.492978 g / cm^3
# Si number density = 24.986652 Si / 1000 Ang^3
#
#
#
# Elastic Constant Matrix: (Units=GPa)
#
#
# Indices 1 2 3 4 5 6 
#
# 1 139.6746 23.5607 0.7720 0.0000 0.0000 0.0000
# 2 23.5607 95.4517 17.6350 0.0000 0.0000 0.0000
# 3 0.7720 17.6350 84.2265 0.0000 0.0000 0.0000
# 4 0.0000 0.0000 0.0000 15.5462 0.0000 0.0000
# 5 0.0000 0.0000 0.0000 0.0000 13.0283 0.0000
# 6 0.0000 0.0000 0.0000 0.0000 0.0000 30.4388
#
#
#
# Elastic Compliance Matrix: (Units=1/GPa)
#
#
# Indices 1 2 3 4 5 6 
#
# 1 0.007479 -0.001907 0.000331 0.000000 0.000000 0.000000
# 2 -0.001907 0.011384 -0.002366 0.000000 0.000000 0.000000
# 3 0.000331 -0.002366 0.012365 0.000000 0.000000 0.000000
# 4 0.000000 0.000000 0.000000 0.064324 0.000000 0.000000
# 5 0.000000 0.000000 0.000000 0.000000 0.076756 0.000000
# 6 0.000000 0.000000 0.000000 0.000000 0.000000 0.032853
#
#
# Mechanical properties :
#
#
# Convention : Reuss Voigt Hill
#
# Bulk Modulus (GPa) = 42.83817 44.80982 43.82400
# Shear Modulus (GPa) = 22.64197 30.29499 26.46848
#
# Velocity S-wave (km/s) = 3.01352 3.48580 3.25823
# Velocity P-wave (km/s) = 5.41203 5.84581 5.63310
#
# Compressibility (1/GPa) = 0.02334367
#
# Stress axis : x y z
#
# Youngs Moduli (GPa) = 133.70066 87.83920 80.87257
#
# Poissons Ratio (x) = 0.16753 -0.02675
# Poissons Ratio (y) = 0.25501 0.19136
# Poissons Ratio (z) = -0.04423 0.20784
#
# Static dielectric constant tensor:
#      x y z
#    x 2.494120 0.000000 0.000000 
#    y 0.000000 2.087530 0.000000 
#    z 0.000000 0.000000 1.870820 
# 
# From -- ./inp_files/7649.got.cif
#   From: 2010.05.17/outbox.cif.g08.bks.cpg/sg56_4_cif.got.tgz:7649.got - 2010.06.03 13:42:01.
