data_PCOD9432653
_publ_section_title
;
Structure prediction by ZEFSAII (Michael W. Deem and Ramdas Pophale) SiO2 
 PCOD9432653
Probable space group: P C C N
;
_chemical_formula_sum "Si O2"
_cell_formula_units_Z 40
_cell_length_a 5.793784
_cell_length_b 13.328415
_cell_length_c 23.502739
_cell_angle_alpha 90.000000
_cell_angle_beta 90.000000
_cell_angle_gamma 90.000000
_cell_volume 1814.927514
_symmetry_space_group_name_H-M "P C C N"
_symmetry_group_IT_number 56
_symmetry_cell_setting 'orthorhombic'
loop_
_space_group_symop_operation_xyz
x,y,z
1/2-x,1/2-y,z
1/2+x,-y,1/2-z
-x,1/2+y,1/2-z
-x,-y,-z
1/2+x,1/2+y,-z
1/2-x,y,1/2+z
x,1/2-y,1/2+z
loop_
_atom_site_type_symbol
_atom_site_label
_atom_site_fract_x
_atom_site_fract_y
_atom_site_fract_z
Si Si1 0.006139 0.697300 0.756488
Si Si2 0.935052 0.464665 0.150992
Si Si3 0.625048 0.850489 0.634715
Si Si4 0.696432 0.365899 0.045172
Si Si5 0.809754 0.014572 0.940389
O O1 0.750000 0.750000 0.765209
O O2 0.026862 0.679126 0.689038
O O3 0.250000 0.750000 0.773987
O O4 0.003081 0.595335 0.792760
O O5 0.801866 0.568075 0.160452
O O6 0.785846 0.396051 0.107625
O O7 0.152893 0.491632 0.112947
O O8 0.750000 0.750000 0.614308
O O9 0.494723 0.905756 0.584042
O O10 0.750000 0.250000 0.035816
O O11 0.436733 0.410795 0.043113
O O12 0.807107 0.430945 0.994013
#
# Coordination Sequence:
#
# PCOD9432653 Si02
#       5
#     8   8   8   8   8
#     4  11  28  46  74 108 146 189 240 292 361 426
#     4  11  25  42  71  98 141 180 239 294 358 427
#     4  10  26  43  67 101 138 184 236 290 355 428
#     4  10  23  43  66 100 136 182 236 296 363 431
#     4  10  24  43  68 100 136 184 238 294 363 427
#
# _framework density 22.039449000000001
#
# number of rings (size 3 to 8) (size 9 to 14) (size 15 to 20)
#    0.000    1.600    0.000    1.200   19.600    0.000 
#    0.000    0.000    0.000    0.000    0.000    0.000 
#    0.000    0.000    0.000    0.000    0.000    0.000 
#
# Total GULP energy -223253.657596 kJ/mol
# GULP energy per Si atom -5581.341440 kJ/mol
# Density = 2.198929 g / cm^3
# Si number density = 22.039449 Si / 1000 Ang^3
#
#
#
# Elastic Constant Matrix: (Units=GPa)
#
#
# Indices 1 2 3 4 5 6 
#
# 1 70.4377 46.6294 14.7088 0.0000 0.0000 0.0000
# 2 46.6294 117.1189 -1.5957 0.0000 0.0000 0.0000
# 3 14.7088 -1.5957 41.8036 0.0000 0.0000 0.0000
# 4 0.0000 0.0000 0.0000 98.8439 0.0000 0.0000
# 5 0.0000 0.0000 0.0000 0.0000 25.3966 0.0000
# 6 0.0000 0.0000 0.0000 0.0000 0.0000 -6.3653
#
#
#
# Elastic Compliance Matrix: (Units=1/GPa)
#
#
# Indices 1 2 3 4 5 6 
#
# 1 0.021627 -0.008719 -0.007942 0.000000 0.000000 0.000000
# 2 -0.008719 0.012058 0.003528 0.000000 0.000000 0.000000
# 3 -0.007942 0.003528 0.026851 0.000000 0.000000 0.000000
# 4 0.000000 0.000000 0.000000 0.010117 0.000000 0.000000
# 5 0.000000 0.000000 0.000000 0.000000 0.039375 0.000000
# 6 0.000000 0.000000 0.000000 0.000000 0.000000 -0.157102
#
#
# Mechanical properties :
#
#
# Convention : Reuss Voigt Hill
#
# Bulk Modulus (GPa) = 29.18083 38.76057 33.97070
# Shear Modulus (GPa) = -532.82752 34.88287 -248.97232
#
# Velocity S-wave (km/s) = -15.56553 3.98269 -10.64011
# Velocity P-wave (km/s) = 17.60053 6.22689 11.64054
#
# Compressibility (1/GPa) = 0.03426908
#
# Stress axis : x y z
#
# Youngs Moduli (GPa) = 46.23779 82.93449 37.24302
#
# Poissons Ratio (x) = 0.72309 0.29580
# Poissons Ratio (y) = 0.40314 -0.13139
# Poissons Ratio (z) = 0.36724 -0.29260
#
# Static dielectric constant tensor:
#      x y z
#    x 1.891400 0.000000 0.000000 
#    y 0.000000 1.785990 0.000000 
#    z 0.000000 0.000000 1.779110 
# 
# From -- ./inp_files/21493.got.cif
#   From: 2010.05.17/outbox.cif.g08.bks.cpg/sg56_11_cif.got.tgz:21493.got - 2010.06.03 13:42:01.
