data_PCOD9432172
_publ_section_title
;
Structure prediction by ZEFSAII (Michael W. Deem and Ramdas Pophale) SiO2 
 PCOD9432172
Probable space group: P C C N
;
_chemical_formula_sum "Si O2"
_cell_formula_units_Z 56
_cell_length_a 6.732662
_cell_length_b 29.318357
_cell_length_c 13.780281
_cell_angle_alpha 90.000000
_cell_angle_beta 90.000000
_cell_angle_gamma 90.000000
_cell_volume 2720.097770
_symmetry_space_group_name_H-M "P C C N"
_symmetry_group_IT_number 56
_symmetry_cell_setting 'orthorhombic'
loop_
_space_group_symop_operation_xyz
x,y,z
1/2-x,1/2-y,z
1/2+x,-y,1/2-z
-x,1/2+y,1/2-z
-x,-y,-z
1/2+x,1/2+y,-z
1/2-x,y,1/2+z
x,1/2-y,1/2+z
loop_
_atom_site_type_symbol
_atom_site_label
_atom_site_fract_x
_atom_site_fract_y
_atom_site_fract_z
Si Si1 0.099610 0.552681 0.104973
Si Si2 0.949685 0.697544 0.191112
Si Si3 0.130672 0.306033 0.483549
Si Si4 0.250000 0.750000 0.572235
Si Si5 0.726780 0.951611 0.940359
Si Si6 0.181540 0.401558 0.753428
Si Si7 0.497154 0.403509 0.923821
Si Si8 0.250000 0.250000 0.151024
O O1 0.189668 0.502123 0.099957
O O2 0.275079 0.588914 0.098786
O O3 0.970435 0.561757 0.200546
O O4 0.956529 0.559192 0.012137
O O5 0.771123 0.700011 0.111118
O O6 0.924194 0.647684 0.237865
O O7 0.921928 0.735611 0.274515
O O8 0.151960 0.709787 0.136487
O O9 0.260680 0.292476 0.577183
O O10 0.937714 0.272894 0.481877
O O11 0.052015 0.357186 0.480612
O O12 0.750052 0.917023 0.851712
O O13 0.917202 0.944673 0.009191
O O14 0.369589 0.401442 0.825600
#
# Coordination Sequence:
#
# PCOD9432172 Si02
#       8
#     8   8   8   4   8   8   8   4
#     4  10  22  41  66  95 126 165 213 258 311 388
#     4  11  23  42  61  91 130 161 211 267 314 371
#     4  11  23  41  62  91 127 164 208 263 320 366
#     4  12  20  42  64  88 124 168 208 268 306 378
#     4  10  22  41  64  96 129 163 207 261 318 376
#     4  10  23  40  63  92 129 169 206 262 323 374
#     4  10  22  41  63  92 127 166 206 265 317 371
#     4  12  20  42  62  84 122 170 196 264 310 368
#
# _framework density 20.587496000000002
#
# number of rings (size 3 to 8) (size 9 to 14) (size 15 to 20)
#    0.000    1.429    2.857    2.143    2.000    1.714 
#    2.571    1.429    0.000    0.000    0.000    0.000 
#    0.000    0.000    0.000    0.000    0.000    0.000 
#
# Total GULP energy -312528.210321 kJ/mol
# GULP energy per Si atom -5580.860899 kJ/mol
# Density = 2.054064 g / cm^3
# Si number density = 20.587496 Si / 1000 Ang^3
#
#
#
# Elastic Constant Matrix: (Units=GPa)
#
#
# Indices 1 2 3 4 5 6 
#
# 1 54.8625 32.9571 3.2602 0.0000 0.0000 0.0000
# 2 32.9571 69.0269 16.5100 0.0000 0.0000 0.0000
# 3 3.2602 16.5100 61.2002 0.0000 0.0000 0.0000
# 4 0.0000 0.0000 0.0000 34.6534 0.0000 0.0000
# 5 0.0000 0.0000 0.0000 0.0000 4.9115 0.0000
# 6 0.0000 0.0000 0.0000 0.0000 0.0000 30.6587
#
#
#
# Elastic Compliance Matrix: (Units=1/GPa)
#
#
# Indices 1 2 3 4 5 6 
#
# 1 0.025804 -0.012818 0.002083 0.000000 0.000000 0.000000
# 2 -0.012818 0.021854 -0.005213 0.000000 0.000000 0.000000
# 3 0.002083 -0.005213 0.017635 0.000000 0.000000 0.000000
# 4 0.000000 0.000000 0.000000 0.028857 0.000000 0.000000
# 5 0.000000 0.000000 0.000000 0.000000 0.203605 0.000000
# 6 0.000000 0.000000 0.000000 0.000000 0.000000 0.032617
#
#
# Mechanical properties :
#
#
# Convention : Reuss Voigt Hill
#
# Bulk Modulus (GPa) = 29.94229 32.28268 31.11248
# Shear Modulus (GPa) = 13.39046 22.86888 18.12967
#
# Velocity S-wave (km/s) = 2.55309 3.33650 2.97074
# Velocity P-wave (km/s) = 4.82354 5.52791 5.18769
#
# Compressibility (1/GPa) = 0.03339758
#
# Stress axis : x y z
#
# Youngs Moduli (GPa) = 38.75382 45.75799 56.70518
#
# Poissons Ratio (x) = 0.58655 -0.11814
# Poissons Ratio (y) = 0.49676 0.29559
# Poissons Ratio (z) = -0.08074 0.23852
#
# Static dielectric constant tensor:
#      x y z
#    x 1.693410 0.000000 0.000000 
#    y 0.000000 1.769210 0.000000 
#    z 0.000000 0.000000 1.719640 
# 
# From -- ./inp_files/9859.got.cif
#   From: 2010.05.17/outbox.cif.g08.bks.cpg/sg56_5_cif.got.tgz:9859.got - 2010.06.03 13:42:01.
