data_PCOD9432654
_publ_section_title
;
Structure prediction by ZEFSAII (Michael W. Deem and Ramdas Pophale) SiO2 
 PCOD9432654
Probable space group: P C C N
;
_chemical_formula_sum "Si O2"
_cell_formula_units_Z 32
_cell_length_a 13.843725
_cell_length_b 8.569703
_cell_length_c 9.700392
_cell_angle_alpha 90.000000
_cell_angle_beta 90.000000
_cell_angle_gamma 90.000000
_cell_volume 1150.821639
_symmetry_space_group_name_H-M "P C C N"
_symmetry_group_IT_number 56
_symmetry_cell_setting 'orthorhombic'
loop_
_space_group_symop_operation_xyz
x,y,z
1/2-x,1/2-y,z
1/2+x,-y,1/2-z
-x,1/2+y,1/2-z
-x,-y,-z
1/2+x,1/2+y,-z
1/2-x,y,1/2+z
x,1/2-y,1/2+z
loop_
_atom_site_type_symbol
_atom_site_label
_atom_site_fract_x
_atom_site_fract_y
_atom_site_fract_z
Si Si1 0.978559 0.463933 0.198821
Si Si2 0.299161 0.918774 0.260737
Si Si3 0.694099 0.906353 0.468256
Si Si4 0.491909 0.247181 0.445984
O O1 0.090879 0.527316 0.216631
O O2 0.955893 0.362290 0.333952
O O3 0.934536 0.626599 0.147741
O O4 0.960137 0.347640 0.068503
O O5 0.250000 0.750000 0.235407
O O6 0.292278 0.956815 0.421521
O O7 0.235047 0.038687 0.175266
O O8 0.750000 0.750000 0.509653
O O9 0.583033 0.858571 0.472793
#
# Coordination Sequence:
#
# PCOD9432654 Si02
#       4
#     8   8   8   8
#     4  10  23  45  64  97 128 169 217 269 326 389
#     4  11  24  42  65  97 133 169 218 274 323 387
#     4  11  22  41  68  93 129 175 216 263 328 395
#     4  10  23  43  66  94 128 169 216 265 325 391
#
# _framework density 27.80622
#
# number of rings (size 3 to 8) (size 9 to 14) (size 15 to 20)
#    0.000    1.500    2.500    1.500    3.500    3.000 
#   18.000    0.000    0.000    0.000    0.000    0.000 
#    0.000    0.000    0.000    0.000    0.000    0.000 
#
# Total GULP energy -179170.137802 kJ/mol
# GULP energy per Si atom -5599.066806 kJ/mol
# Density = 2.774293 g / cm^3
# Si number density = 27.806220 Si / 1000 Ang^3
#
#
#
# Elastic Constant Matrix: (Units=GPa)
#
#
# Indices 1 2 3 4 5 6 
#
# 1 77.7470 30.3084 0.7164 0.0000 0.0000 0.0000
# 2 30.3084 184.3722 52.0958 0.0000 0.0000 0.0000
# 3 0.7164 52.0958 123.6818 0.0000 0.0000 0.0000
# 4 0.0000 0.0000 0.0000 60.6574 0.0000 0.0000
# 5 0.0000 0.0000 0.0000 0.0000 29.0436 0.0000
# 6 0.0000 0.0000 0.0000 0.0000 0.0000 26.6288
#
#
#
# Elastic Compliance Matrix: (Units=1/GPa)
#
#
# Indices 1 2 3 4 5 6 
#
# 1 0.013851 -0.002559 0.000998 0.000000 0.000000 0.000000
# 2 -0.002559 0.006629 -0.002777 0.000000 0.000000 0.000000
# 3 0.000998 -0.002777 0.009249 0.000000 0.000000 0.000000
# 4 0.000000 0.000000 0.000000 0.016486 0.000000 0.000000
# 5 0.000000 0.000000 0.000000 0.000000 0.034431 0.000000
# 6 0.000000 0.000000 0.000000 0.000000 0.000000 0.037553
#
#
# Mechanical properties :
#
#
# Convention : Reuss Voigt Hill
#
# Bulk Modulus (GPa) = 47.50184 61.33803 54.41994
# Shear Modulus (GPa) = 37.34293 43.44463 40.39378
#
# Velocity S-wave (km/s) = 3.66863 3.95702 3.81555
# Velocity P-wave (km/s) = 5.92160 6.55624 6.24699
#
# Compressibility (1/GPa) = 0.02105182
#
# Stress axis : x y z
#
# Youngs Moduli (GPa) = 72.19950 150.84727 108.11537
#
# Poissons Ratio (x) = 0.38597 -0.10785
# Poissons Ratio (y) = 0.18474 0.30029
# Poissons Ratio (z) = -0.07202 0.41897
#
# Static dielectric constant tensor:
#      x y z
#    x 2.299230 0.000000 0.000000 
#    y 0.000000 2.152730 0.000000 
#    z 0.000000 0.000000 2.171380 
# 
# From -- ./inp_files/4320.got.cif
#   From: 2010.05.17/outbox.cif.g08.bks.cpg/sg56_3_cif.got.tgz:4320.got - 2010.06.03 13:42:01.
