data_PCOD9432528
_publ_section_title
;
Structure prediction by ZEFSAII (Michael W. Deem and Ramdas Pophale) SiO2 
 PCOD9432528
Probable space group: P C C N
;
_chemical_formula_sum "Si O2"
_cell_formula_units_Z 64
_cell_length_a 15.813504
_cell_length_b 8.638187
_cell_length_c 22.463848
_cell_angle_alpha 90.000000
_cell_angle_beta 90.000000
_cell_angle_gamma 90.000000
_cell_volume 3068.561742
_symmetry_space_group_name_H-M "P C C N"
_symmetry_group_IT_number 56
_symmetry_cell_setting 'orthorhombic'
loop_
_space_group_symop_operation_xyz
x,y,z
1/2-x,1/2-y,z
1/2+x,-y,1/2-z
-x,1/2+y,1/2-z
-x,-y,-z
1/2+x,1/2+y,-z
1/2-x,y,1/2+z
x,1/2-y,1/2+z
loop_
_atom_site_type_symbol
_atom_site_label
_atom_site_fract_x
_atom_site_fract_y
_atom_site_fract_z
Si Si1 0.824986 0.148347 0.605914
Si Si2 0.054494 0.586815 0.421253
Si Si3 0.915177 0.710930 0.505799
Si Si4 0.014579 0.565101 0.815150
Si Si5 0.817729 0.108233 0.885485
Si Si6 0.051551 0.086158 0.188178
Si Si7 0.795656 0.964989 0.488577
Si Si8 0.444733 0.636983 0.579897
O O1 0.750000 0.250000 0.634589
O O2 0.879699 0.276087 0.571244
O O3 0.893673 0.087432 0.652944
O O4 0.789275 0.030815 0.556117
O O5 0.090476 0.440020 0.454275
O O6 0.968893 0.655590 0.449568
O O7 0.026920 0.542417 0.355153
O O8 0.970418 0.831949 0.543771
O O9 0.828265 0.789683 0.490731
O O10 0.032836 0.488398 0.751893
O O11 0.961933 0.726563 0.809552
O O12 0.963486 0.452906 0.859383
O O13 0.750000 0.250000 0.867610
O O14 0.775501 0.019882 0.941555
O O15 0.900002 0.200368 0.907497
O O16 0.859832 0.986139 0.838187
O O17 0.878880 0.044200 0.459490
#
# Coordination Sequence:
#
# PCOD9432528 Si02
#       8
#     8   8   8   8   8   8   8   8
#     4  11  22  40  62  95 133 170 216 262 345 406
#     4  10  23  38  65  97 129 178 215 286 322 404
#     4  11  20  36  67  94 137 166 221 277 339 387
#     4  11  25  41  74  95 127 181 228 288 320 413
#     4  10  23  39  66  94 140 178 221 278 351 401
#     4  11  23  45  64  99 131 172 244 270 338 394
#     4  11  21  36  64  97 138 174 213 274 344 417
#     4  11  19  40  63  97 128 179 219 275 336 399
#
# _framework density 20.856676
#
# number of rings (size 3 to 8) (size 9 to 14) (size 15 to 20)
#    0.000    1.250    3.750    3.750    0.000    0.500 
#    0.000   11.250    0.000    0.000    0.000    0.000 
#    0.000    0.000    0.000    0.000    0.000    0.000 
#
# Total GULP energy -357229.218941 kJ/mol
# GULP energy per Si atom -5581.706546 kJ/mol
# Density = 2.080921 g / cm^3
# Si number density = 20.856676 Si / 1000 Ang^3
#
#
#
# Elastic Constant Matrix: (Units=GPa)
#
#
# Indices 1 2 3 4 5 6 
#
# 1 84.6929 130.6509 86.6364 0.0000 0.0000 0.0000
# 2 130.6509 -45.8778 -45.5368 0.0000 0.0000 0.0000
# 3 86.6364 -45.5368 38.0807 0.0000 0.0000 0.0000
# 4 0.0000 0.0000 0.0000 49.1831 0.0000 0.0000
# 5 0.0000 0.0000 0.0000 0.0000 25.2919 0.0000
# 6 0.0000 0.0000 0.0000 0.0000 0.0000 -2.6819
#
#
#
# Elastic Compliance Matrix: (Units=1/GPa)
#
#
# Indices 1 2 3 4 5 6 
#
# 1 0.002301 0.005373 0.001190 0.000000 0.000000 0.000000
# 2 0.005373 0.002579 -0.009141 0.000000 0.000000 0.000000
# 3 0.001190 -0.009141 0.012623 0.000000 0.000000 0.000000
# 4 0.000000 0.000000 0.000000 0.020332 0.000000 0.000000
# 5 0.000000 0.000000 0.000000 0.000000 0.039538 0.000000
# 6 0.000000 0.000000 0.000000 0.000000 0.000000 -0.372872
#
#
# Mechanical properties :
#
#
# Convention : Reuss Voigt Hill
#
# Bulk Modulus (GPa) = 81.00031 46.71075 63.85553
# Shear Modulus (GPa) = -17.46868 8.03499 -4.71685
#
# Velocity S-wave (km/s) = -2.89720 1.96490 -1.50548
# Velocity P-wave (km/s) = 5.26586 5.25285 5.25936
#
# Compressibility (1/GPa) = 0.01234563
#
# Stress axis : x y z
#
# Youngs Moduli (GPa) = 434.51332 387.81618 79.22275
#
# Poissons Ratio (x) = -2.08387 -0.09424
# Poissons Ratio (y) = -2.33479 0.72420
# Poissons Ratio (z) = -0.51686 3.54516
#
# Static dielectric constant tensor:
#      x y z
#    x 1.789910 0.000000 0.000000 
#    y 0.000000 1.831650 0.000000 
#    z 0.000000 0.000000 1.727990 
# 
# From -- ./inp_files/21186.got.cif
#   From: 2010.05.17/outbox.cif.g08.bks.cpg/sg56_11_cif.got.tgz:21186.got - 2010.06.03 13:42:01.
