data_PCOD9432836
_publ_section_title
;
Structure prediction by ZEFSAII (Michael W. Deem and Ramdas Pophale) SiO2 
 PCOD9432836
Probable space group: P C C N
;
_chemical_formula_sum "Si O2"
_cell_formula_units_Z 60
_cell_length_a 28.304897
_cell_length_b 12.096221
_cell_length_c 8.450687
_cell_angle_alpha 90.000000
_cell_angle_beta 90.000000
_cell_angle_gamma 90.000000
_cell_volume 2893.365563
_symmetry_space_group_name_H-M "P C C N"
_symmetry_group_IT_number 56
_symmetry_cell_setting 'orthorhombic'
loop_
_space_group_symop_operation_xyz
x,y,z
1/2-x,1/2-y,z
1/2+x,-y,1/2-z
-x,1/2+y,1/2-z
-x,-y,-z
1/2+x,1/2+y,-z
1/2-x,y,1/2+z
x,1/2-y,1/2+z
loop_
_atom_site_type_symbol
_atom_site_label
_atom_site_fract_x
_atom_site_fract_y
_atom_site_fract_z
Si Si1 0.583494 0.631773 0.640104
Si Si2 0.189725 0.671533 0.025796
Si Si3 0.529128 0.686376 0.939255
Si Si4 0.750000 0.750000 0.002551
Si Si5 0.190720 0.367851 0.748411
Si Si6 0.460826 0.704189 0.192108
Si Si7 0.214855 0.611107 0.674567
Si Si8 0.414652 0.894937 0.982635
O O1 0.558296 0.616402 0.811498
O O2 0.563324 0.738608 0.548107
O O3 0.638918 0.645590 0.678231
O O4 0.572982 0.523790 0.533336
O O5 0.207375 0.655624 0.849372
O O6 0.139086 0.616585 0.038051
O O7 0.229883 0.616979 0.133669
O O8 0.188506 0.801566 0.062909
O O9 0.499555 0.766134 0.823406
O O10 0.489067 0.636624 0.056551
O O11 0.770117 0.653143 0.114836
O O12 0.706685 0.714545 0.890644
O O13 0.195232 0.488693 0.674169
O O14 0.420361 0.650628 0.301337
O O15 0.443514 0.816139 0.103190
#
# Coordination Sequence:
#
# PCOD9432836 Si02
#       8
#     8   8   8   4   8   8   8   8
#     4  11  22  40  66  90 123 165 211 257 314 381
#     4  11  22  38  60  92 124 171 200 261 294 383
#     4   9  21  41  64  88 121 157 208 261 311 371
#     4  10  24  40  64  84 134 162 224 258 306 344
#     4  11  22  41  62  93 121 175 205 267 301 369
#     4   9  21  40  63  92 124 155 201 262 314 379
#     4  11  22  38  62  87 131 165 214 244 320 358
#     4  11  22  39  65  92 127 163 205 254 318 379
#
# _framework density 20.737096000000001
#
# number of rings (size 3 to 8) (size 9 to 14) (size 15 to 20)
#    0.000    1.600    1.333    4.000    0.000    5.333 
#    0.000    4.000    8.800    0.000    0.000    0.000 
#    0.000    0.000    0.000    0.000    0.000    0.000 
#
# Total GULP energy -334628.326259 kJ/mol
# GULP energy per Si atom -5577.138771 kJ/mol
# Density = 2.068990 g / cm^3
# Si number density = 20.737096 Si / 1000 Ang^3
#
#
#
# Elastic Constant Matrix: (Units=GPa)
#
#
# Indices 1 2 3 4 5 6 
#
# 1 52.1087 -8.2248 9.7922 0.0000 0.0000 0.0000
# 2 -8.2248 46.6401 4.4331 0.0000 0.0000 0.0000
# 3 9.7922 4.4331 55.9390 0.0000 0.0000 0.0000
# 4 0.0000 0.0000 0.0000 10.4327 0.0000 0.0000
# 5 0.0000 0.0000 0.0000 0.0000 119.8494 0.0000
# 6 0.0000 0.0000 0.0000 0.0000 0.0000 9.9855
#
#
#
# Elastic Compliance Matrix: (Units=1/GPa)
#
#
# Indices 1 2 3 4 5 6 
#
# 1 0.020557 0.003997 -0.003915 0.000000 0.000000 0.000000
# 2 0.003997 0.022381 -0.002473 0.000000 0.000000 0.000000
# 3 -0.003915 -0.002473 0.018758 0.000000 0.000000 0.000000
# 4 0.000000 0.000000 0.000000 0.095852 0.000000 0.000000
# 5 0.000000 0.000000 0.000000 0.000000 0.008344 0.000000
# 6 0.000000 0.000000 0.000000 0.000000 0.000000 0.100145
#
#
# Mechanical properties :
#
#
# Convention : Reuss Voigt Hill
#
# Bulk Modulus (GPa) = 17.57056 18.52097 18.04577
# Shear Modulus (GPa) = 17.25382 37.96602 27.60992
#
# Velocity S-wave (km/s) = 2.88762 4.28346 3.65283
# Velocity P-wave (km/s) = 4.42823 5.78055 5.14898
#
# Compressibility (1/GPa) = 0.05691337
#
# Stress axis : x y z
#
# Youngs Moduli (GPa) = 48.64437 44.68120 53.31053
#
# Poissons Ratio (x) = -0.17861 0.20873
# Poissons Ratio (y) = -0.19445 0.13186
# Poissons Ratio (z) = 0.19046 0.11051
#
# Static dielectric constant tensor:
#      x y z
#    x 1.690140 0.000000 0.000000 
#    y 0.000000 1.950630 0.000000 
#    z 0.000000 0.000000 1.745740 
# 
# From -- ./inp_files/5193.got.cif
#   From: 2010.05.17/outbox.cif.g08.bks.cpg/sg56_3_cif.got.tgz:5193.got - 2010.06.03 13:42:01.
