data_PCOD9432062
_publ_section_title
;
Structure prediction by ZEFSAII (Michael W. Deem and Ramdas Pophale) SiO2 
 PCOD9432062
Probable space group: P C C N
;
_chemical_formula_sum "Si O2"
_cell_formula_units_Z 60
_cell_length_a 29.707239
_cell_length_b 13.606618
_cell_length_c 8.365668
_cell_angle_alpha 90.000000
_cell_angle_beta 90.000000
_cell_angle_gamma 90.000000
_cell_volume 3381.528933
_symmetry_space_group_name_H-M "P C C N"
_symmetry_group_IT_number 56
_symmetry_cell_setting 'orthorhombic'
loop_
_space_group_symop_operation_xyz
x,y,z
1/2-x,1/2-y,z
1/2+x,-y,1/2-z
-x,1/2+y,1/2-z
-x,-y,-z
1/2+x,1/2+y,-z
1/2-x,y,1/2+z
x,1/2-y,1/2+z
loop_
_atom_site_type_symbol
_atom_site_label
_atom_site_fract_x
_atom_site_fract_y
_atom_site_fract_z
Si Si1 0.250000 0.750000 0.634950
Si Si2 0.110221 0.539287 0.001709
Si Si3 0.935120 0.602881 0.782505
Si Si4 0.054158 0.846299 0.053992
Si Si5 0.392441 0.708145 0.755895
Si Si6 0.540033 0.803209 0.449712
Si Si7 0.971293 0.513350 0.238871
Si Si8 0.312807 0.659214 0.371018
O O1 0.287638 0.697299 0.528074
O O2 0.226479 0.664160 0.739128
O O3 0.106592 0.458050 0.143188
O O4 0.105915 0.641473 0.098788
O O5 0.068191 0.511699 0.887307
O O6 0.156343 0.562806 0.903318
O O7 0.934869 0.641917 0.598163
O O8 0.940114 0.701106 0.889095
O O9 0.979642 0.531967 0.804740
O O10 0.077008 0.800216 0.208459
O O11 0.039780 0.954327 0.099453
O O12 0.086667 0.847794 0.904466
O O13 0.010105 0.784171 0.015056
O O14 0.345852 0.754287 0.810286
O O15 0.531866 0.874375 0.296145
#
# Coordination Sequence:
#
# PCOD9432062 Si02
#       8
#     4   8   8   8   8   8   8   8
#     4  10  22  40  58  84 120 150 176 226 314 360
#     4  12  22  35  54  83 111 153 202 235 286 351
#     4  11  23  37  54  77 115 159 208 257 296 338
#     4  11  19  31  51  76 109 153 206 245 287 335
#     4  12  19  33  52  84 108 148 194 243 284 347
#     4  11  22  38  51  76 114 167 200 260 306 319
#     4  11  22  36  52  78 112 158 211 256 289 335
#     4  11  21  37  58  84 117 153 178 231 292 372
#
# _framework density 17.743452999999999
#
# number of rings (size 3 to 8) (size 9 to 14) (size 15 to 20)
#    0.000    0.800    4.000    6.800    0.000    0.000 
#    0.000    0.000    0.000    0.000    0.000    0.000 
#    0.000   12.800    0.000    0.000    0.000    0.000 
#
# Total GULP energy -334501.487079 kJ/mol
# GULP energy per Si atom -5575.024785 kJ/mol
# Density = 1.770307 g / cm^3
# Si number density = 17.743453 Si / 1000 Ang^3
#
#
#
# Elastic Constant Matrix: (Units=GPa)
#
#
# Indices 1 2 3 4 5 6 
#
# 1 73.9781 29.4242 41.8581 0.0000 0.0000 0.0000
# 2 29.4242 73.9269 27.4359 0.0000 0.0000 0.0000
# 3 41.8581 27.4359 94.6580 0.0000 0.0000 0.0000
# 4 0.0000 0.0000 0.0000 28.2532 0.0000 0.0000
# 5 0.0000 0.0000 0.0000 0.0000 38.9235 0.0000
# 6 0.0000 0.0000 0.0000 0.0000 0.0000 19.4666
#
#
#
# Elastic Compliance Matrix: (Units=1/GPa)
#
#
# Indices 1 2 3 4 5 6 
#
# 1 0.019632 -0.005146 -0.007190 0.000000 0.000000 0.000000
# 2 -0.005146 0.016506 -0.002509 0.000000 0.000000 0.000000
# 3 -0.007190 -0.002509 0.014471 0.000000 0.000000 0.000000
# 4 0.000000 0.000000 0.000000 0.035394 0.000000 0.000000
# 5 0.000000 0.000000 0.000000 0.000000 0.025691 0.000000
# 6 0.000000 0.000000 0.000000 0.000000 0.000000 0.051370
#
#
# Mechanical properties :
#
#
# Convention : Reuss Voigt Hill
#
# Bulk Modulus (GPa) = 47.80010 48.88882 48.34446
# Shear Modulus (GPa) = 25.03413 26.91832 25.97622
#
# Velocity S-wave (km/s) = 3.76026 3.89920 3.83036
# Velocity P-wave (km/s) = 6.77132 6.91988 6.84600
#
# Compressibility (1/GPa) = 0.02092046
#
# Stress axis : x y z
#
# Youngs Moduli (GPa) = 50.93617 60.58414 69.10393
#
# Poissons Ratio (x) = 0.31174 0.49686
# Poissons Ratio (y) = 0.26210 0.17336
# Poissons Ratio (z) = 0.36624 0.15199
#
# Static dielectric constant tensor:
#      x y z
#    x 1.626370 0.000000 0.000000 
#    y 0.000000 1.639050 0.000000 
#    z 0.000000 0.000000 1.687690 
# 
# From -- ./inp_files/5180.got.cif
#   From: 2010.05.17/outbox.cif.g08.bks.cpg/sg56_3_cif.got.tgz:5180.got - 2010.06.03 13:42:01.
