data_PCOD9432096
_publ_section_title
;
Structure prediction by ZEFSAII (Michael W. Deem and Ramdas Pophale) SiO2 
 PCOD9432096
Probable space group: P C C N
;
_chemical_formula_sum "Si O2"
_cell_formula_units_Z 48
_cell_length_a 14.985142
_cell_length_b 8.883545
_cell_length_c 17.608112
_cell_angle_alpha 90.000000
_cell_angle_beta 90.000000
_cell_angle_gamma 90.000000
_cell_volume 2344.012705
_symmetry_space_group_name_H-M "P C C N"
_symmetry_group_IT_number 56
_symmetry_cell_setting 'orthorhombic'
loop_
_space_group_symop_operation_xyz
x,y,z
1/2-x,1/2-y,z
1/2+x,-y,1/2-z
-x,1/2+y,1/2-z
-x,-y,-z
1/2+x,1/2+y,-z
1/2-x,y,1/2+z
x,1/2-y,1/2+z
loop_
_atom_site_type_symbol
_atom_site_label
_atom_site_fract_x
_atom_site_fract_y
_atom_site_fract_z
Si Si1 0.250000 0.750000 0.261551
Si Si2 0.415164 0.402410 0.035494
Si Si3 0.451479 0.517135 0.191427
Si Si4 0.995234 0.917339 0.420138
Si Si5 0.835474 0.001109 0.658577
Si Si6 0.565269 0.345683 0.293826
Si Si7 0.750000 0.750000 0.055611
O O1 0.255868 0.605572 0.315326
O O2 0.164567 0.718296 0.210636
O O3 0.399028 0.489911 0.114080
O O4 0.450715 0.241049 0.064179
O O5 0.500000 0.500000 0.000000
O O6 0.323901 0.354878 0.989838
O O7 0.387810 0.473486 0.262446
O O8 0.535254 0.411908 0.212543
O O9 0.486431 0.689011 0.191787
O O10 0.948746 0.027310 0.357824
O O11 0.000000 0.000000 0.500000
O O12 0.095201 0.900497 0.389605
O O13 0.807273 0.859726 0.609516
#
# Coordination Sequence:
#
# PCOD9432096 Si02
#       7
#     4   8   8   8   8   8   4
#     4  10  22  40  64 102 128 170 236 286 340 402
#     4  12  27  44  71 105 145 182 234 292 365 425
#     4  10  22  42  67  96 133 191 225 280 356 426
#     4  11  22  45  65  92 137 182 218 281 351 414
#     4  10  24  43  66  96 136 180 233 282 349 421
#     4  10  22  40  70  99 132 177 234 281 346 419
#     4  12  28  44  66 108 140 184 242 298 354 428
#
# _framework density 20.477703999999999
#
# number of rings (size 3 to 8) (size 9 to 14) (size 15 to 20)
#    0.000    1.333    1.667    4.000    7.000    4.667 
#    0.000    0.000    0.000    0.000    0.000    0.000 
#    0.000    0.000    0.000    0.000    0.000    0.000 
#
# Total GULP energy -267214.499742 kJ/mol
# GULP energy per Si atom -5566.968745 kJ/mol
# Density = 2.043110 g / cm^3
# Si number density = 20.477704 Si / 1000 Ang^3
#
#
#
# Elastic Constant Matrix: (Units=GPa)
#
#
# Indices 1 2 3 4 5 6 
#
# 1 76.6906 26.1291 31.9460 0.0000 0.0000 0.0000
# 2 26.1291 124.6148 29.2292 0.0000 0.0000 0.0000
# 3 31.9460 29.2292 111.7246 0.0000 0.0000 0.0000
# 4 0.0000 0.0000 0.0000 45.2073 0.0000 0.0000
# 5 0.0000 0.0000 0.0000 0.0000 19.4471 0.0000
# 6 0.0000 0.0000 0.0000 0.0000 0.0000 38.7201
#
#
#
# Elastic Compliance Matrix: (Units=1/GPa)
#
#
# Indices 1 2 3 4 5 6 
#
# 1 0.015419 -0.002343 -0.003796 0.000000 0.000000 0.000000
# 2 -0.002343 0.008905 -0.001660 0.000000 0.000000 0.000000
# 3 -0.003796 -0.001660 0.010470 0.000000 0.000000 0.000000
# 4 0.000000 0.000000 0.000000 0.022120 0.000000 0.000000
# 5 0.000000 0.000000 0.000000 0.000000 0.051422 0.000000
# 6 0.000000 0.000000 0.000000 0.000000 0.000000 0.025826
#
#
# Mechanical properties :
#
#
# Convention : Reuss Voigt Hill
#
# Bulk Modulus (GPa) = 52.09057 54.18208 53.13633
# Shear Modulus (GPa) = 32.01873 35.72327 33.87100
#
# Velocity S-wave (km/s) = 3.95852 4.18125 4.07140
# Velocity P-wave (km/s) = 6.81073 7.05882 6.93588
#
# Compressibility (1/GPa) = 0.01919733
#
# Stress axis : x y z
#
# Youngs Moduli (GPa) = 64.85602 112.29289 95.50883
#
# Poissons Ratio (x) = 0.26306 0.36254
# Poissons Ratio (y) = 0.15193 0.15854
# Poissons Ratio (z) = 0.24619 0.18640
#
# Static dielectric constant tensor:
#      x y z
#    x 1.851130 0.000000 0.000000 
#    y 0.000000 1.893790 0.000000 
#    z 0.000000 0.000000 1.776050 
# 
# From -- ./inp_files/16204.got.cif
#   From: 2010.05.17/outbox.cif.g08.bks.cpg/sg56_9_cif.got.tgz:16204.got - 2010.06.03 13:42:01.
