data_PCOD9432437
_publ_section_title
;
Structure prediction by ZEFSAII (Michael W. Deem and Ramdas Pophale) SiO2 
 PCOD9432437
Probable space group: P C C N
;
_chemical_formula_sum "Si O2"
_cell_formula_units_Z 40
_cell_length_a 8.845041
_cell_length_b 11.756600
_cell_length_c 17.715392
_cell_angle_alpha 90.000000
_cell_angle_beta 90.000000
_cell_angle_gamma 90.000000
_cell_volume 1842.181257
_symmetry_space_group_name_H-M "P C C N"
_symmetry_group_IT_number 56
_symmetry_cell_setting 'orthorhombic'
loop_
_space_group_symop_operation_xyz
x,y,z
1/2-x,1/2-y,z
1/2+x,-y,1/2-z
-x,1/2+y,1/2-z
-x,-y,-z
1/2+x,1/2+y,-z
1/2-x,y,1/2+z
x,1/2-y,1/2+z
loop_
_atom_site_type_symbol
_atom_site_label
_atom_site_fract_x
_atom_site_fract_y
_atom_site_fract_z
Si Si1 0.988315 0.547174 0.084763
Si Si2 0.145109 0.858045 0.320681
Si Si3 0.073775 0.787993 0.040569
Si Si4 0.910391 0.703704 0.383376
Si Si5 0.819789 0.463199 0.342250
O O1 0.978094 0.683265 0.075839
O O2 0.148781 0.529654 0.126727
O O3 0.862360 0.470146 0.126396
O O4 0.000000 0.500000 0.000000
O O5 0.250000 0.750000 0.341178
O O6 0.179973 0.898273 0.236783
O O7 0.982320 0.799998 0.330925
O O8 0.250000 0.750000 0.033130
O O9 0.081875 0.892934 0.097282
O O10 0.009213 0.814800 0.958360
O O11 0.750000 0.750000 0.410406
O O12 0.889350 0.588157 0.337604
#
# Coordination Sequence:
#
# PCOD9432437 Si02
#       5
#     8   8   8   8   8
#     4  11  22  46  73 102 142 193 244 305 364 449
#     4  12  27  45  73 106 144 200 241 302 377 440
#     4  10  22  44  72 103 137 191 247 299 370 447
#     4  12  24  45  68 104 147 189 247 308 361 441
#     4  11  26  44  74 104 149 188 249 301 377 437
#
# _framework density 21.713388999999999
#
# number of rings (size 3 to 8) (size 9 to 14) (size 15 to 20)
#    0.000    0.800    4.000    3.000    8.400    0.000 
#    3.600    1.000    0.000    0.000    0.000    0.000 
#    0.000    0.000    0.000    0.000    0.000    0.000 
#
# Total GULP energy -223575.211432 kJ/mol
# GULP energy per Si atom -5589.380286 kJ/mol
# Density = 2.166397 g / cm^3
# Si number density = 21.713389 Si / 1000 Ang^3
#
#
#
# Elastic Constant Matrix: (Units=GPa)
#
#
# Indices 1 2 3 4 5 6 
#
# 1 52.6085 19.9965 41.6444 0.0000 0.0000 0.0000
# 2 19.9965 100.0147 29.3244 0.0000 0.0000 0.0000
# 3 41.6444 29.3244 126.1722 0.0000 0.0000 0.0000
# 4 0.0000 0.0000 0.0000 20.3445 0.0000 0.0000
# 5 0.0000 0.0000 0.0000 0.0000 10.0196 0.0000
# 6 0.0000 0.0000 0.0000 0.0000 0.0000 45.0846
#
#
#
# Elastic Compliance Matrix: (Units=1/GPa)
#
#
# Indices 1 2 3 4 5 6 
#
# 1 0.026510 -0.002935 -0.008068 0.000000 0.000000 0.000000
# 2 -0.002935 0.011055 -0.001601 0.000000 0.000000 0.000000
# 3 -0.008068 -0.001601 0.010961 0.000000 0.000000 0.000000
# 4 0.000000 0.000000 0.000000 0.049153 0.000000 0.000000
# 5 0.000000 0.000000 0.000000 0.000000 0.099805 0.000000
# 6 0.000000 0.000000 0.000000 0.000000 0.000000 0.022181
#
#
# Mechanical properties :
#
#
# Convention : Reuss Voigt Hill
#
# Bulk Modulus (GPa) = 42.88377 51.19177 47.03777
# Shear Modulus (GPa) = 19.79070 27.61174 23.70122
#
# Velocity S-wave (km/s) = 3.02230 3.56988 3.30744
# Velocity P-wave (km/s) = 5.65437 6.37333 6.02459
#
# Compressibility (1/GPa) = 0.02331884
#
# Stress axis : x y z
#
# Youngs Moduli (GPa) = 37.72115 90.46000 91.23624
#
# Poissons Ratio (x) = 0.26549 0.73608
# Poissons Ratio (y) = 0.11071 0.14603
# Poissons Ratio (z) = 0.30433 0.14479
#
# Static dielectric constant tensor:
#      x y z
#    x 1.877320 0.000000 0.000000 
#    y 0.000000 1.804460 0.000000 
#    z 0.000000 0.000000 1.736030 
# 
# From -- ./inp_files/14410.got.cif
#   From: 2010.05.17/outbox.cif.g08.bks.cpg/sg56_8_cif.got.tgz:14410.got - 2010.06.03 13:42:01.
