data_PCOD9432217
_publ_section_title
;
Structure prediction by ZEFSAII (Michael W. Deem and Ramdas Pophale) SiO2 
 PCOD9432217
Probable space group: P C C N
;
_chemical_formula_sum "Si O2"
_cell_formula_units_Z 64
_cell_length_a 27.668812
_cell_length_b 5.432077
_cell_length_c 16.960071
_cell_angle_alpha 90.000000
_cell_angle_beta 90.000000
_cell_angle_gamma 90.000000
_cell_volume 2549.083700
_symmetry_space_group_name_H-M "P C C N"
_symmetry_group_IT_number 56
_symmetry_cell_setting 'orthorhombic'
loop_
_space_group_symop_operation_xyz
x,y,z
1/2-x,1/2-y,z
1/2+x,-y,1/2-z
-x,1/2+y,1/2-z
-x,-y,-z
1/2+x,1/2+y,-z
1/2-x,y,1/2+z
x,1/2-y,1/2+z
loop_
_atom_site_type_symbol
_atom_site_label
_atom_site_fract_x
_atom_site_fract_y
_atom_site_fract_z
Si Si1 0.725808 0.495405 0.579217
Si Si2 0.358433 0.566447 0.112763
Si Si3 0.866237 0.513365 0.699213
Si Si4 0.938333 0.835181 0.770095
Si Si5 0.866178 0.749291 0.032826
Si Si6 0.312291 0.983430 0.760003
Si Si7 0.481064 0.626321 0.372265
Si Si8 0.936181 0.391022 0.971212
O O1 0.750000 0.750000 0.553980
O O2 0.669690 0.529273 0.557920
O O3 0.729420 0.483915 0.674811
O O4 0.750000 0.250000 0.546970
O O5 0.399051 0.452153 0.171249
O O6 0.311276 0.589741 0.168074
O O7 0.389075 0.785081 0.072661
O O8 0.345646 0.385740 0.042539
O O9 0.916518 0.571466 0.743043
O O10 0.868881 0.573708 0.607310
O O11 0.846506 0.242342 0.711263
O O12 0.832513 0.736699 0.732390
O O13 0.946767 0.985855 0.689574
O O14 0.987013 0.809634 0.819753
O O15 0.918040 0.649916 0.006905
O O16 0.454707 0.741017 0.448918
O O17 0.520353 0.438587 0.411030
#
# Coordination Sequence:
#
# PCOD9432217 Si02
#       8
#     8   8   8   8   8   8   8   8
#     4  11  25  48  80 111 141 181 234 295 366 449
#     4  11  25  40  71  99 137 195 241 297 361 437
#     4  10  22  41  69  99 136 190 241 284 344 424
#     4  11  22  40  60  98 137 195 249 306 352 402
#     4  11  24  44  72 105 142 187 237 295 367 447
#     4  10  23  44  73 105 137 179 234 286 346 434
#     4  11  23  40  60  96 146 185 255 307 354 405
#     4  11  24  43  63  99 141 192 243 301 364 422
#
# _framework density 25.107063
#
# number of rings (size 3 to 8) (size 9 to 14) (size 15 to 20)
#    0.000    1.250    2.500    3.000    7.000    2.500 
#    0.000    0.625    0.000    0.000    0.000    0.000 
#    0.000    0.000    0.000    0.000    0.000    0.000 
#
# Total GULP energy -357671.268996 kJ/mol
# GULP energy per Si atom -5588.613578 kJ/mol
# Density = 2.504992 g / cm^3
# Si number density = 25.107063 Si / 1000 Ang^3
#
#
#
# Elastic Constant Matrix: (Units=GPa)
#
#
# Indices 1 2 3 4 5 6 
#
# 1 29.4711 23.2490 1.2993 0.0000 0.0000 0.0000
# 2 23.2490 97.2141 23.3500 0.0000 0.0000 0.0000
# 3 1.2993 23.3500 149.0643 0.0000 0.0000 0.0000
# 4 0.0000 0.0000 0.0000 39.6377 0.0000 0.0000
# 5 0.0000 0.0000 0.0000 0.0000 36.5476 0.0000
# 6 0.0000 0.0000 0.0000 0.0000 0.0000 46.1608
#
#
#
# Elastic Compliance Matrix: (Units=1/GPa)
#
#
# Indices 1 2 3 4 5 6 
#
# 1 0.042047 -0.010357 0.001256 0.000000 0.000000 0.000000
# 2 -0.010357 0.013240 -0.001984 0.000000 0.000000 0.000000
# 3 0.001256 -0.001984 0.007008 0.000000 0.000000 0.000000
# 4 0.000000 0.000000 0.000000 0.025228 0.000000 0.000000
# 5 0.000000 0.000000 0.000000 0.000000 0.027362 0.000000
# 6 0.000000 0.000000 0.000000 0.000000 0.000000 0.021663
#
#
# Mechanical properties :
#
#
# Convention : Reuss Voigt Hill
#
# Bulk Modulus (GPa) = 24.92212 41.28290 33.10251
# Shear Modulus (GPa) = 29.05395 39.65931 34.35663
#
# Velocity S-wave (km/s) = 3.40546 3.97874 3.70321
# Velocity P-wave (km/s) = 5.04091 6.13071 5.61232
#
# Compressibility (1/GPa) = 0.04012500
#
# Stress axis : x y z
#
# Youngs Moduli (GPa) = 23.78304 75.52866 142.68800
#
# Poissons Ratio (x) = 0.78227 -0.17920
# Poissons Ratio (y) = 0.24633 0.28305
# Poissons Ratio (z) = -0.02987 0.14983
#
# Static dielectric constant tensor:
#      x y z
#    x 2.109980 0.000000 0.000000 
#    y 0.000000 2.006280 0.000000 
#    z 0.000000 0.000000 1.998520 
# 
# From -- ./inp_files/17132.got.cif
#   From: 2010.05.17/outbox.cif.g08.bks.cpg/sg56_9_cif.got.tgz:17132.got - 2010.06.03 13:42:01.
