data_PCOD9432267
_publ_section_title
;
Structure prediction by ZEFSAII (Michael W. Deem and Ramdas Pophale) SiO2 
 PCOD9432267
Probable space group: P C C N
;
_chemical_formula_sum "Si O2"
_cell_formula_units_Z 48
_cell_length_a 14.468213
_cell_length_b 11.973390
_cell_length_c 14.211225
_cell_angle_alpha 90.000000
_cell_angle_beta 90.000000
_cell_angle_gamma 90.000000
_cell_volume 2461.861054
_symmetry_space_group_name_H-M "P C C N"
_symmetry_group_IT_number 56
_symmetry_cell_setting 'orthorhombic'
loop_
_space_group_symop_operation_xyz
x,y,z
1/2-x,1/2-y,z
1/2+x,-y,1/2-z
-x,1/2+y,1/2-z
-x,-y,-z
1/2+x,1/2+y,-z
1/2-x,y,1/2+z
x,1/2-y,1/2+z
loop_
_atom_site_type_symbol
_atom_site_label
_atom_site_fract_x
_atom_site_fract_y
_atom_site_fract_z
Si Si1 0.250000 0.750000 0.874584
Si Si2 0.750000 0.750000 0.231384
Si Si3 0.855716 0.048125 0.036884
Si Si4 0.400485 0.223348 0.116738
Si Si5 0.413497 0.592389 0.334984
Si Si6 0.460790 0.020098 0.638929
Si Si7 0.681293 0.601402 0.562256
O O1 0.192994 0.836754 0.937385
O O2 0.174193 0.675157 0.820313
O O3 0.826363 0.802447 0.300980
O O4 0.799237 0.664204 0.160382
O O5 0.930038 0.020073 0.117845
O O6 0.777862 0.953314 0.030176
O O7 0.912853 0.054786 0.940999
O O8 0.496665 0.160880 0.134848
O O9 0.422548 0.354930 0.122535
O O10 0.358708 0.182675 0.017406
O O11 0.436247 0.526074 0.240263
O O12 0.385430 0.502406 0.414304
#
# Coordination Sequence:
#
# PCOD9432267 Si02
#       7
#     4   4   8   8   8   8   8
#     4  10  22  44  66  96 138 178 226 276 340 404
#     4  12  22  40  68 100 132 174 226 268 348 398
#     4  10  22  42  66  94 133 176 226 280 338 395
#     4  12  24  43  67 102 135 175 227 282 336 405
#     4  11  24  44  67  99 135 180 225 277 336 408
#     4  11  22  43  67  97 133 178 227 276 338 399
#     4  11  24  41  67  97 135 177 218 285 332 405
#
# _framework density 19.497446
#
# number of rings (size 3 to 8) (size 9 to 14) (size 15 to 20)
#    0.000    1.000    3.333    4.000    0.000    2.000 
#    0.000    0.000    0.000    0.000    0.000    0.000 
#    0.000    0.000    0.000    0.000    0.000    0.000 
#
# Total GULP energy -268289.690217 kJ/mol
# GULP energy per Si atom -5589.368546 kJ/mol
# Density = 1.945307 g / cm^3
# Si number density = 19.497446 Si / 1000 Ang^3
#
#
#
# Elastic Constant Matrix: (Units=GPa)
#
#
# Indices 1 2 3 4 5 6 
#
# 1 138.6742 58.3950 49.1881 0.0000 0.0000 0.0000
# 2 58.3950 81.4143 18.0416 0.0000 0.0000 0.0000
# 3 49.1881 18.0416 50.3544 0.0000 0.0000 0.0000
# 4 0.0000 0.0000 0.0000 4.3761 0.0000 0.0000
# 5 0.0000 0.0000 0.0000 0.0000 17.1440 0.0000
# 6 0.0000 0.0000 0.0000 0.0000 0.0000 31.7840
#
#
#
# Elastic Compliance Matrix: (Units=1/GPa)
#
#
# Indices 1 2 3 4 5 6 
#
# 1 0.014610 -0.007947 -0.011424 0.000000 0.000000 0.000000
# 2 -0.007947 0.017665 0.001434 0.000000 0.000000 0.000000
# 3 -0.011424 0.001434 0.030505 0.000000 0.000000 0.000000
# 4 0.000000 0.000000 0.000000 0.228515 0.000000 0.000000
# 5 0.000000 0.000000 0.000000 0.000000 0.058329 0.000000
# 6 0.000000 0.000000 0.000000 0.000000 0.000000 0.031462
#
#
# Mechanical properties :
#
#
# Convention : Reuss Voigt Hill
#
# Bulk Modulus (GPa) = 37.16744 57.96581 47.56663
# Shear Modulus (GPa) = 11.73902 20.31537 16.02719
#
# Velocity S-wave (km/s) = 2.45639 3.23143 2.87019
# Velocity P-wave (km/s) = 5.21050 6.61191 5.95259
#
# Compressibility (1/GPa) = 0.02690527
#
# Stress axis : x y z
#
# Youngs Moduli (GPa) = 68.44671 56.60759 32.78174
#
# Poissons Ratio (x) = 0.44989 0.37450
# Poissons Ratio (y) = 0.54398 -0.04701
# Poissons Ratio (z) = 0.78193 -0.08118
#
# Static dielectric constant tensor:
#      x y z
#    x 1.693290 0.000000 0.000000 
#    y 0.000000 1.687930 0.000000 
#    z 0.000000 0.000000 1.641280 
# 
# From -- ./inp_files/12243.got.cif
#   From: 2010.05.17/outbox.cif.g08.bks.cpg/sg56_7_cif.got.tgz:12243.got - 2010.06.03 13:42:01.
