data_PCOD9432564
_publ_section_title
;
Structure prediction by ZEFSAII (Michael W. Deem and Ramdas Pophale) SiO2 
 PCOD9432564
Probable space group: P C C N
;
_chemical_formula_sum "Si O2"
_cell_formula_units_Z 36
_cell_length_a 10.746825
_cell_length_b 5.509234
_cell_length_c 24.872016
_cell_angle_alpha 90.000000
_cell_angle_beta 90.000000
_cell_angle_gamma 90.000000
_cell_volume 1472.591822
_symmetry_space_group_name_H-M "P C C N"
_symmetry_group_IT_number 56
_symmetry_cell_setting 'orthorhombic'
loop_
_space_group_symop_operation_xyz
x,y,z
1/2-x,1/2-y,z
1/2+x,-y,1/2-z
-x,1/2+y,1/2-z
-x,-y,-z
1/2+x,1/2+y,-z
1/2-x,y,1/2+z
x,1/2-y,1/2+z
loop_
_atom_site_type_symbol
_atom_site_label
_atom_site_fract_x
_atom_site_fract_y
_atom_site_fract_z
Si Si1 0.091524 0.187537 0.971462
Si Si2 0.750000 0.750000 0.334064
Si Si3 0.980450 0.021965 0.780224
Si Si4 0.421147 0.437237 0.580140
Si Si5 0.862592 0.087197 0.123230
O O1 0.000286 0.326024 0.930755
O O2 0.182582 0.043650 0.931621
O O3 0.129457 0.359775 0.021084
O O4 0.000000 0.000000 0.000000
O O5 0.649463 0.904189 0.300779
O O6 0.683650 0.561683 0.375031
O O7 0.034283 0.786314 0.747305
O O8 0.079385 0.065589 0.828417
O O9 0.522010 0.248698 0.603018
O O10 0.750000 0.250000 0.143553
#
# Coordination Sequence:
#
# PCOD9432564 Si02
#       5
#     8   4   8   8   8
#     4   9  19  38  63 100 142 177 228 282 350 432
#     4  10  24  46  74 104 140 194 238 304 372 444
#     4  11  28  50  73 105 139 187 247 309 367 428
#     4   9  20  40  63 101 139 182 228 282 356 434
#     4  10  23  40  65  97 134 182 229 291 357 424
#
# _framework density 24.446694999999998
#
# number of rings (size 3 to 8) (size 9 to 14) (size 15 to 20)
#    0.000    2.222    0.000    0.000    9.333    6.222 
#    8.000    0.000    0.000    0.000    0.000    0.000 
#    0.000    0.000    0.000    0.000    0.000    0.000 
#
# Total GULP energy -201032.115912 kJ/mol
# GULP energy per Si atom -5584.225442 kJ/mol
# Density = 2.439105 g / cm^3
# Si number density = 24.446695 Si / 1000 Ang^3
#
#
#
# Elastic Constant Matrix: (Units=GPa)
#
#
# Indices 1 2 3 4 5 6 
#
# 1 65.6962 -23.5865 16.6568 0.0000 0.0000 0.0000
# 2 -23.5865 56.5288 16.0041 0.0000 0.0000 0.0000
# 3 16.6568 16.0041 103.5020 0.0000 0.0000 0.0000
# 4 0.0000 0.0000 0.0000 22.0088 0.0000 0.0000
# 5 0.0000 0.0000 0.0000 0.0000 32.7915 0.0000
# 6 0.0000 0.0000 0.0000 0.0000 0.0000 26.9087
#
#
#
# Elastic Compliance Matrix: (Units=1/GPa)
#
#
# Indices 1 2 3 4 5 6 
#
# 1 0.019860 0.009612 -0.004682 0.000000 0.000000 0.000000
# 2 0.009612 0.023152 -0.005127 0.000000 0.000000 0.000000
# 3 -0.004682 -0.005127 0.011208 0.000000 0.000000 0.000000
# 4 0.000000 0.000000 0.000000 0.045436 0.000000 0.000000
# 5 0.000000 0.000000 0.000000 0.000000 0.030496 0.000000
# 6 0.000000 0.000000 0.000000 0.000000 0.000000 0.037163
#
#
# Mechanical properties :
#
#
# Convention : Reuss Voigt Hill
#
# Bulk Modulus (GPa) = 18.57851 27.09731 22.83791
# Shear Modulus (GPa) = 26.93231 30.78531 28.85881
#
# Velocity S-wave (km/s) = 3.32275 3.55249 3.43954
# Velocity P-wave (km/s) = 4.72620 5.28538 5.01359
#
# Compressibility (1/GPa) = 0.05382564
#
# Stress axis : x y z
#
# Youngs Moduli (GPa) = 50.35315 43.19247 89.22254
#
# Poissons Ratio (x) = -0.41517 0.41777
# Poissons Ratio (y) = -0.48400 0.45743
# Poissons Ratio (z) = 0.23577 0.22144
#
# Static dielectric constant tensor:
#      x y z
#    x 2.046450 0.000000 0.000000 
#    y 0.000000 1.940050 0.000000 
#    z 0.000000 0.000000 2.082380 
# 
# From -- ./inp_files/20799.got.cif
#   From: 2010.05.17/outbox.cif.g08.bks.cpg/sg56_11_cif.got.tgz:20799.got - 2010.06.03 13:42:01.
