data_PCOD9432181
_publ_section_title
;
Structure prediction by ZEFSAII (Michael W. Deem and Ramdas Pophale) SiO2 
 PCOD9432181
Probable space group: P C C N
;
_chemical_formula_sum "Si O2"
_cell_formula_units_Z 60
_cell_length_a 7.998847
_cell_length_b 13.187262
_cell_length_c 26.260628
_cell_angle_alpha 90.000000
_cell_angle_beta 90.000000
_cell_angle_gamma 90.000000
_cell_volume 2770.046963
_symmetry_space_group_name_H-M "P C C N"
_symmetry_group_IT_number 56
_symmetry_cell_setting 'orthorhombic'
loop_
_space_group_symop_operation_xyz
x,y,z
1/2-x,1/2-y,z
1/2+x,-y,1/2-z
-x,1/2+y,1/2-z
-x,-y,-z
1/2+x,1/2+y,-z
1/2-x,y,1/2+z
x,1/2-y,1/2+z
loop_
_atom_site_type_symbol
_atom_site_label
_atom_site_fract_x
_atom_site_fract_y
_atom_site_fract_z
Si Si1 0.918420 0.111966 0.627886
Si Si2 0.059890 0.546399 0.054771
Si Si3 0.570092 0.396808 0.977553
Si Si4 0.549194 0.257310 0.897106
Si Si5 0.174530 0.544777 0.282202
Si Si6 0.250000 0.750000 0.451202
Si Si7 0.063505 0.859233 0.213123
Si Si8 0.557649 0.774388 0.300520
O O1 0.813818 0.060184 0.673551
O O2 0.800891 0.156568 0.584100
O O3 0.010207 0.211093 0.649549
O O4 0.039202 0.035368 0.599349
O O5 0.250747 0.570147 0.043484
O O6 0.984239 0.650043 0.080128
O O7 0.000000 0.500000 0.000000
O O8 0.471260 0.347746 0.930758
O O9 0.500000 0.500000 0.000000
O O10 0.604868 0.300241 0.014514
O O11 0.750000 0.250000 0.905855
O O12 0.543786 0.297658 0.839315
O O13 0.266928 0.579025 0.229399
O O14 0.094864 0.433934 0.279897
O O15 0.015146 0.612998 0.299626
O O16 0.051256 0.775934 0.256496
O O17 0.750000 0.750000 0.290325
#
# Coordination Sequence:
#
# PCOD9432181 Si02
#       8
#     8   8   8   8   8   4   8   8
#     4  11  23  41  70  92 129 182 222 283 347 422
#     4  11  22  42  66  96 135 175 228 288 357 419
#     4  11  24  41  68  97 130 181 228 284 349 426
#     4  10  22  41  64  96 133 177 223 280 354 415
#     4  11  24  44  65  99 131 178 227 283 354 414
#     4  12  20  46  70  88 140 178 222 286 356 416
#     4  11  24  41  68  95 134 181 224 287 353 429
#     4  11  24  42  64  97 129 170 228 283 340 421
#
# _framework density 21.660283
#
# number of rings (size 3 to 8) (size 9 to 14) (size 15 to 20)
#    0.000    1.067    4.667    2.800    1.867   10.667 
#    0.000    3.333    0.000    0.000    0.000    0.000 
#    0.000    0.000    0.000    0.000    0.000    0.000 
#
# Total GULP energy -334324.030072 kJ/mol
# GULP energy per Si atom -5572.067168 kJ/mol
# Density = 2.161098 g / cm^3
# Si number density = 21.660283 Si / 1000 Ang^3
#
#
#
# Elastic Constant Matrix: (Units=GPa)
#
#
# Indices 1 2 3 4 5 6 
#
# 1 51.5462 2.0509 6.3017 0.0000 0.0000 0.0000
# 2 2.0509 53.2485 44.9803 0.0000 0.0000 0.0000
# 3 6.3017 44.9803 119.4692 0.0000 0.0000 0.0000
# 4 0.0000 0.0000 0.0000 30.1776 0.0000 0.0000
# 5 0.0000 0.0000 0.0000 0.0000 4.8459 0.0000
# 6 0.0000 0.0000 0.0000 0.0000 0.0000 33.1782
#
#
#
# Elastic Compliance Matrix: (Units=1/GPa)
#
#
# Indices 1 2 3 4 5 6 
#
# 1 0.019527 0.000173 -0.001095 0.000000 0.000000 0.000000
# 2 0.000173 0.027540 -0.010378 0.000000 0.000000 0.000000
# 3 -0.001095 -0.010378 0.012335 0.000000 0.000000 0.000000
# 4 0.000000 0.000000 0.000000 0.033137 0.000000 0.000000
# 5 0.000000 0.000000 0.000000 0.000000 0.206362 0.000000
# 6 0.000000 0.000000 0.000000 0.000000 0.000000 0.030140
#
#
# Mechanical properties :
#
#
# Convention : Reuss Voigt Hill
#
# Bulk Modulus (GPa) = 27.17234 36.76997 31.97116
# Shear Modulus (GPa) = 13.73972 25.03573 19.38773
#
# Velocity S-wave (km/s) = 2.52132 3.40345 2.99504
# Velocity P-wave (km/s) = 4.58782 5.69712 5.17230
#
# Compressibility (1/GPa) = 0.03680213
#
# Stress axis : x y z
#
# Youngs Moduli (GPa) = 51.21093 36.31133 81.06755
#
# Poissons Ratio (x) = -0.00628 0.08878
# Poissons Ratio (y) = -0.00886 0.84131
# Poissons Ratio (z) = 0.05608 0.37683
#
# Static dielectric constant tensor:
#      x y z
#    x 1.818660 0.000000 0.000000 
#    y 0.000000 1.876920 0.000000 
#    z 0.000000 0.000000 1.853050 
# 
# From -- ./inp_files/22123.got.cif
#   From: 2010.05.17/outbox.cif.g08.bks.cpg/sg56_12_cif.got.tgz:22123.got - 2010.06.03 13:42:01.
