data_PCOD9432683
_publ_section_title
;
Structure prediction by ZEFSAII (Michael W. Deem and Ramdas Pophale) SiO2 
 PCOD9432683
Probable space group: P C C N
;
_chemical_formula_sum "Si O2"
_cell_formula_units_Z 60
_cell_length_a 20.879407
_cell_length_b 11.486353
_cell_length_c 12.821673
_cell_angle_alpha 90.000000
_cell_angle_beta 90.000000
_cell_angle_gamma 90.000000
_cell_volume 3074.999260
_symmetry_space_group_name_H-M "P C C N"
_symmetry_group_IT_number 56
_symmetry_cell_setting 'orthorhombic'
loop_
_space_group_symop_operation_xyz
x,y,z
1/2-x,1/2-y,z
1/2+x,-y,1/2-z
-x,1/2+y,1/2-z
-x,-y,-z
1/2+x,1/2+y,-z
1/2-x,y,1/2+z
x,1/2-y,1/2+z
loop_
_atom_site_type_symbol
_atom_site_label
_atom_site_fract_x
_atom_site_fract_y
_atom_site_fract_z
Si Si1 0.750000 0.250000 0.056241
Si Si2 0.442587 0.825581 0.482116
Si Si3 0.699886 0.068634 0.895674
Si Si4 0.443506 0.345263 0.155837
Si Si5 0.500369 0.881271 0.119732
Si Si6 0.911291 0.905496 0.432708
Si Si7 0.149987 0.943550 0.148996
Si Si8 0.645041 0.283403 0.209914
O O1 0.704078 0.315447 0.134868
O O2 0.707595 0.166021 0.985195
O O3 0.509208 0.881576 0.440195
O O4 0.461250 0.716683 0.555631
O O5 0.389834 0.896105 0.548254
O O6 0.412378 0.788239 0.371703
O O7 0.773908 0.042614 0.868481
O O8 0.657527 0.128342 0.804676
O O9 0.659547 0.957374 0.929017
O O10 0.481966 0.343464 0.264537
O O11 0.418657 0.217608 0.124299
O O12 0.386377 0.436881 0.172590
O O13 0.460643 0.001194 0.118007
O O14 0.564311 0.896732 0.051320
O O15 0.145254 0.844364 0.238202
#
# Coordination Sequence:
#
# PCOD9432683 Si02
#       8
#     4   8   8   8   8   8   8   8
#     4  12  20  38  66 100 126 162 214 274 330 386
#     4  11  23  43  66  98 129 166 225 279 331 383
#     4  12  23  42  65  97 135 170 222 273 333 399
#     4  11  26  42  64  95 134 177 219 271 330 404
#     4  10  23  43  71  95 125 176 221 278 331 390
#     4  10  24  43  65  96 131 176 221 272 329 401
#     4  12  24  39  65  99 132 175 215 273 333 397
#     4  12  22  39  67  99 128 165 216 279 335 382
#
# _framework density 19.512198999999999
#
# number of rings (size 3 to 8) (size 9 to 14) (size 15 to 20)
#    0.000    0.800    4.000    3.600    9.333    0.533 
#    4.800    0.000    0.000    3.200    0.000    0.000 
#    0.000    0.000    0.000    0.000    0.000    0.000 
#
# Total GULP energy -334776.239394 kJ/mol
# GULP energy per Si atom -5579.603990 kJ/mol
# Density = 1.946779 g / cm^3
# Si number density = 19.512199 Si / 1000 Ang^3
#
#
#
# Elastic Constant Matrix: (Units=GPa)
#
#
# Indices 1 2 3 4 5 6 
#
# 1 99.0877 63.8079 48.6228 0.0000 0.0000 0.0000
# 2 63.8079 87.8972 58.9695 0.0000 0.0000 0.0000
# 3 48.6228 58.9695 117.7739 0.0000 0.0000 0.0000
# 4 0.0000 0.0000 0.0000 167.1579 0.0000 0.0000
# 5 0.0000 0.0000 0.0000 0.0000 23.5029 0.0000
# 6 0.0000 0.0000 0.0000 0.0000 0.0000 40.3116
#
#
#
# Elastic Compliance Matrix: (Units=1/GPa)
#
#
# Indices 1 2 3 4 5 6 
#
# 1 0.019108 -0.012918 -0.001421 0.000000 0.000000 0.000000
# 2 -0.012918 0.025865 -0.007618 0.000000 0.000000 0.000000
# 3 -0.001421 -0.007618 0.012891 0.000000 0.000000 0.000000
# 4 0.000000 0.000000 0.000000 0.005982 0.000000 0.000000
# 5 0.000000 0.000000 0.000000 0.000000 0.042548 0.000000
# 6 0.000000 0.000000 0.000000 0.000000 0.000000 0.024807
#
#
# Mechanical properties :
#
#
# Convention : Reuss Voigt Hill
#
# Bulk Modulus (GPa) = 71.67355 71.95103 71.81229
# Shear Modulus (GPa) = 27.81422 55.08505 41.44964
#
# Velocity S-wave (km/s) = 3.77965 5.31906 4.61401
# Velocity P-wave (km/s) = 7.47396 8.64165 8.07893
#
# Compressibility (1/GPa) = 0.01395215
#
# Stress axis : x y z
#
# Youngs Moduli (GPa) = 52.33489 38.66212 77.57097
#
# Poissons Ratio (x) = 0.49944 0.11019
# Poissons Ratio (y) = 0.67606 0.59090
# Poissons Ratio (z) = 0.07434 0.29451
#
# Static dielectric constant tensor:
#      x y z
#    x 1.752240 0.000000 0.000000 
#    y 0.000000 1.666080 0.000000 
#    z 0.000000 0.000000 1.676700 
# 
# From -- ./inp_files/8703.got.cif
#   From: 2010.05.17/outbox.cif.g08.bks.cpg/sg56_5_cif.got.tgz:8703.got - 2010.06.03 13:42:01.
