data_PCOD9432457
_publ_section_title
;
Structure prediction by ZEFSAII (Michael W. Deem and Ramdas Pophale) SiO2 
 PCOD9432457
Probable space group: P C C N
;
_chemical_formula_sum "Si O2"
_cell_formula_units_Z 48
_cell_length_a 10.767896
_cell_length_b 14.711865
_cell_length_c 11.664103
_cell_angle_alpha 90.000000
_cell_angle_beta 90.000000
_cell_angle_gamma 90.000000
_cell_volume 1847.778585
_symmetry_space_group_name_H-M "P C C N"
_symmetry_group_IT_number 56
_symmetry_cell_setting 'orthorhombic'
loop_
_space_group_symop_operation_xyz
x,y,z
1/2-x,1/2-y,z
1/2+x,-y,1/2-z
-x,1/2+y,1/2-z
-x,-y,-z
1/2+x,1/2+y,-z
1/2-x,y,1/2+z
x,1/2-y,1/2+z
loop_
_atom_site_type_symbol
_atom_site_label
_atom_site_fract_x
_atom_site_fract_y
_atom_site_fract_z
Si Si1 0.750000 0.750000 0.425359
Si Si2 0.160055 0.084489 0.219701
Si Si3 0.161474 0.480499 0.375702
Si Si4 0.036228 0.783228 0.497178
Si Si5 0.595322 0.095121 0.425427
Si Si6 0.250000 0.750000 0.813134
Si Si7 0.596156 0.395827 0.306018
O O1 0.736562 0.842166 0.351072
O O2 0.611817 0.735136 0.482200
O O3 0.212945 0.069930 0.347995
O O4 0.026293 0.130467 0.235401
O O5 0.139942 0.985772 0.159509
O O6 0.164840 0.568533 0.456105
O O7 0.119995 0.504512 0.245251
O O8 0.052656 0.424445 0.433846
O O9 0.090605 0.703427 0.580955
O O10 0.127692 0.776349 0.387859
O O11 0.066462 0.876888 0.563095
O O12 0.289838 0.664415 0.736218
#
# Coordination Sequence:
#
# PCOD9432457 Si02
#       7
#     4   8   8   8   8   4   8
#     4  12  26  50  68 118 148 192 258 320 372 442
#     4  11  26  46  73 109 150 195 253 312 381 447
#     4  10  22  45  71 101 146 190 247 300 375 451
#     4  12  27  45  80 107 151 196 250 315 378 453
#     4  10  23  46  71 103 145 204 232 310 381 444
#     4  12  24  50  70 106 152 190 250 302 370 466
#     4  11  26  45  73 113 141 202 252 299 385 455
#
# _framework density 25.977139000000001
#
# number of rings (size 3 to 8) (size 9 to 14) (size 15 to 20)
#    0.000    1.000    3.333    2.500   11.667    0.000 
#    3.000    0.833    0.000    0.000    0.000    0.000 
#    0.000    0.000    0.000    0.000    0.000    0.000 
#
# Total GULP energy -267850.391878 kJ/mol
# GULP energy per Si atom -5580.216497 kJ/mol
# Density = 2.591801 g / cm^3
# Si number density = 25.977139 Si / 1000 Ang^3
#
#
#
# Elastic Constant Matrix: (Units=GPa)
#
#
# Indices 1 2 3 4 5 6 
#
# 1 170.3216 37.5492 63.3490 0.0000 0.0000 0.0000
# 2 37.5492 86.8912 11.3443 0.0000 0.0000 0.0000
# 3 63.3490 11.3443 38.7056 0.0000 0.0000 0.0000
# 4 0.0000 0.0000 0.0000 34.8953 0.0000 0.0000
# 5 0.0000 0.0000 0.0000 0.0000 53.7406 0.0000
# 6 0.0000 0.0000 0.0000 0.0000 0.0000 32.0806
#
#
#
# Elastic Compliance Matrix: (Units=1/GPa)
#
#
# Indices 1 2 3 4 5 6 
#
# 1 0.016044 -0.003644 -0.025191 0.000000 0.000000 0.000000
# 2 -0.003644 0.012794 0.002215 0.000000 0.000000 0.000000
# 3 -0.025191 0.002215 0.066418 0.000000 0.000000 0.000000
# 4 0.000000 0.000000 0.000000 0.028657 0.000000 0.000000
# 5 0.000000 0.000000 0.000000 0.000000 0.018608 0.000000
# 6 0.000000 0.000000 0.000000 0.000000 0.000000 0.031171
#
#
# Mechanical properties :
#
#
# Convention : Reuss Voigt Hill
#
# Bulk Modulus (GPa) = 23.80147 57.82261 40.81204
# Shear Modulus (GPa) = 20.75209 36.38838 28.57023
#
# Velocity S-wave (km/s) = 2.82948 3.74677 3.31995
# Velocity P-wave (km/s) = 4.45611 6.40508 5.51734
#
# Compressibility (1/GPa) = 0.04201422
#
# Stress axis : x y z
#
# Youngs Moduli (GPa) = 62.32719 78.15928 15.05627
#
# Poissons Ratio (x) = 0.28485 0.37929
# Poissons Ratio (y) = 0.22715 -0.03335
# Poissons Ratio (z) = 1.57011 -0.17312
#
# Static dielectric constant tensor:
#      x y z
#    x 2.165490 0.000000 0.000000 
#    y 0.000000 2.029680 0.000000 
#    z 0.000000 0.000000 2.102980 
# 
# From -- ./inp_files/7197.got.cif
#   From: 2010.05.17/outbox.cif.g08.bks.cpg/sg56_4_cif.got.tgz:7197.got - 2010.06.03 13:42:01.
