data_PCOD9432830
_publ_section_title
;
Structure prediction by ZEFSAII (Michael W. Deem and Ramdas Pophale) SiO2 
 PCOD9432830
Probable space group: P C C N
;
_chemical_formula_sum "Si O2"
_cell_formula_units_Z 40
_cell_length_a 15.826029
_cell_length_b 12.121012
_cell_length_c 7.912112
_cell_angle_alpha 90.000000
_cell_angle_beta 90.000000
_cell_angle_gamma 90.000000
_cell_volume 1517.760565
_symmetry_space_group_name_H-M "P C C N"
_symmetry_group_IT_number 56
_symmetry_cell_setting 'orthorhombic'
loop_
_space_group_symop_operation_xyz
x,y,z
1/2-x,1/2-y,z
1/2+x,-y,1/2-z
-x,1/2+y,1/2-z
-x,-y,-z
1/2+x,1/2+y,-z
1/2-x,y,1/2+z
x,1/2-y,1/2+z
loop_
_atom_site_type_symbol
_atom_site_label
_atom_site_fract_x
_atom_site_fract_y
_atom_site_fract_z
Si Si1 0.628810 0.066003 0.962707
Si Si2 0.250000 0.250000 0.277589
Si Si3 0.892323 0.096884 0.851360
Si Si4 0.250000 0.750000 0.098142
Si Si5 0.534530 0.647857 0.392432
Si Si6 0.129715 0.360199 0.538200
O O1 0.696114 0.136805 0.857166
O O2 0.611233 0.938451 0.918919
O O3 0.651111 0.080421 0.163315
O O4 0.533819 0.116906 0.961743
O O5 0.174871 0.307765 0.377886
O O6 0.294770 0.345244 0.172787
O O7 0.836271 0.185046 0.953282
O O8 0.985218 0.128019 0.783291
O O9 0.895617 0.985776 0.956454
O O10 0.559370 0.773813 0.405450
#
# Coordination Sequence:
#
# PCOD9432830 Si02
#       6
#     8   4   8   4   8   8
#     4   9  22  44  64  93 137 181 215 294 345 402
#     4  10  26  38  68 100 138 172 226 284 336 410
#     4  10  24  39  68  94 129 177 225 279 343 412
#     4  12  24  38  70  96 132 172 244 278 352 416
#     4   9  22  42  69  89 138 180 220 279 351 407
#     4  11  23  45  67 101 134 179 229 280 346 410
#
# _framework density 26.354617999999999
#
# number of rings (size 3 to 8) (size 9 to 14) (size 15 to 20)
#    1.200    0.800    0.000    1.800   11.200    0.000 
#    0.000    4.000    0.000    0.000    0.000    0.000 
#    0.000    0.000    0.000    0.000    0.000    0.000 
#
# Total GULP energy -222925.691323 kJ/mol
# GULP energy per Si atom -5573.142283 kJ/mol
# Density = 2.629463 g / cm^3
# Si number density = 26.354618 Si / 1000 Ang^3
#
#
#
# Elastic Constant Matrix: (Units=GPa)
#
#
# Indices 1 2 3 4 5 6 
#
# 1 108.0236 51.0801 19.1799 0.0000 0.0000 0.0000
# 2 51.0801 158.3359 7.1862 0.0000 0.0000 0.0000
# 3 19.1799 7.1862 68.8326 0.0000 0.0000 0.0000
# 4 0.0000 0.0000 0.0000 -6.0933 0.0000 0.0000
# 5 0.0000 0.0000 0.0000 0.0000 31.3348 0.0000
# 6 0.0000 0.0000 0.0000 0.0000 0.0000 59.0565
#
#
#
# Elastic Compliance Matrix: (Units=1/GPa)
#
#
# Indices 1 2 3 4 5 6 
#
# 1 0.011442 -0.003564 -0.002816 0.000000 0.000000 0.000000
# 2 -0.003564 0.007456 0.000215 0.000000 0.000000 0.000000
# 3 -0.002816 0.000215 0.015290 0.000000 0.000000 0.000000
# 4 0.000000 0.000000 0.000000 -0.164114 0.000000 0.000000
# 5 0.000000 0.000000 0.000000 0.000000 0.031913 0.000000
# 6 0.000000 0.000000 0.000000 0.000000 0.000000 0.016933
#
#
# Mechanical properties :
#
#
# Convention : Reuss Voigt Hill
#
# Bulk Modulus (GPa) = 45.75041 54.45382 50.10212
# Shear Modulus (GPa) = -81.34954 34.04266 -23.65344
#
# Velocity S-wave (km/s) = -5.56186 3.59794 -2.99909
# Velocity P-wave (km/s) = 4.88349 6.16174 2.65693
#
# Compressibility (1/GPa) = 0.02185773
#
# Stress axis : x y z
#
# Youngs Moduli (GPa) = 87.39462 134.12788 65.40068
#
# Poissons Ratio (x) = 0.47797 0.18419
# Poissons Ratio (y) = 0.31144 -0.01404
# Poissons Ratio (z) = 0.24613 -0.02878
#
# Static dielectric constant tensor:
#      x y z
#    x 2.072350 0.000000 0.000000 
#    y 0.000000 1.988650 0.000000 
#    z 0.000000 0.000000 2.188620 
# 
# From -- ./inp_files/3908.got.cif
#   From: 2010.05.17/outbox.cif.g08.bks.cpg/sg56_2_cif.got.tgz:3908.got - 2010.06.03 13:42:01.
