data_PCOD9432992
_publ_section_title
;
Structure prediction by ZEFSAII (Michael W. Deem and Ramdas Pophale) SiO2 
 PCOD9432992
Probable space group: P C C N
;
_chemical_formula_sum "Si O2"
_cell_formula_units_Z 60
_cell_length_a 23.202198
_cell_length_b 11.877124
_cell_length_c 9.694999
_cell_angle_alpha 90.000000
_cell_angle_beta 90.000000
_cell_angle_gamma 90.000000
_cell_volume 2671.703060
_symmetry_space_group_name_H-M "P C C N"
_symmetry_group_IT_number 56
_symmetry_cell_setting 'orthorhombic'
loop_
_space_group_symop_operation_xyz
x,y,z
1/2-x,1/2-y,z
1/2+x,-y,1/2-z
-x,1/2+y,1/2-z
-x,-y,-z
1/2+x,1/2+y,-z
1/2-x,y,1/2+z
x,1/2-y,1/2+z
loop_
_atom_site_type_symbol
_atom_site_label
_atom_site_fract_x
_atom_site_fract_y
_atom_site_fract_z
Si Si1 0.250000 0.750000 0.165062
Si Si2 0.909825 0.502341 0.116219
Si Si3 0.117299 0.370024 0.155228
Si Si4 0.366358 0.960396 0.372173
Si Si5 0.674370 0.201620 0.090004
Si Si6 0.983696 0.143490 0.073609
Si Si7 0.004509 0.644145 0.743116
Si Si8 0.621392 0.879022 0.384306
O O1 0.212923 0.823348 0.273804
O O2 0.292381 0.808935 0.055260
O O3 0.876815 0.386742 0.085837
O O4 0.970934 0.466877 0.181908
O O5 0.874777 0.569032 0.232780
O O6 0.911414 0.577578 0.980880
O O7 0.150877 0.467855 0.236934
O O8 0.143783 0.249461 0.116009
O O9 0.064117 0.340630 0.256603
O O10 0.342637 0.833651 0.390114
O O11 0.436156 0.943354 0.371351
O O12 0.351541 0.038033 0.503201
O O13 0.974168 0.253430 0.163590
O O14 0.052059 0.121789 0.085010
O O15 0.971296 0.154453 0.910803
#
# Coordination Sequence:
#
# PCOD9432992 Si02
#       8
#     4   8   8   8   8   8   8   8
#     4  10  24  46  64 100 134 134 192 270 354 416
#     4  12  23  39  62  90 123 162 224 257 305 386
#     4  11  25  36  56  88 129 178 216 252 295 345
#     4  12  21  40  64  86 124 165 219 256 309 381
#     4  11  24  42  71 100 119 158 194 265 346 383
#     4  11  23  36  57  85 129 174 219 266 303 340
#     4  11  23  37  55  87 128 174 220 265 300 345
#     4  11  23  39  55  84 132 179 212 254 291 343
#
# _framework density 22.457585999999999
#
# number of rings (size 3 to 8) (size 9 to 14) (size 15 to 20)
#    0.000    0.800    4.000    4.000    7.467    0.000 
#    0.000    0.000    0.000    0.000    0.000   65.333 
#    0.000    0.000    0.000    0.000    0.000    0.000 
#
# Total GULP energy -335093.292964 kJ/mol
# GULP energy per Si atom -5584.888216 kJ/mol
# Density = 2.240647 g / cm^3
# Si number density = 22.457586 Si / 1000 Ang^3
#
#
#
# Elastic Constant Matrix: (Units=GPa)
#
#
# Indices 1 2 3 4 5 6 
#
# 1 26.3108 -0.7944 -5.0755 0.0000 0.0000 0.0000
# 2 -0.7944 141.9466 36.1739 0.0000 0.0000 0.0000
# 3 -5.0755 36.1739 111.8198 0.0000 0.0000 0.0000
# 4 0.0000 0.0000 0.0000 37.0825 0.0000 0.0000
# 5 0.0000 0.0000 0.0000 0.0000 14.8826 0.0000
# 6 0.0000 0.0000 0.0000 0.0000 0.0000 5.9328
#
#
#
# Elastic Compliance Matrix: (Units=1/GPa)
#
#
# Indices 1 2 3 4 5 6 
#
# 1 0.038351 -0.000250 0.001821 0.000000 0.000000 0.000000
# 2 -0.000250 0.007680 -0.002496 0.000000 0.000000 0.000000
# 3 0.001821 -0.002496 0.009833 0.000000 0.000000 0.000000
# 4 0.000000 0.000000 0.000000 0.026967 0.000000 0.000000
# 5 0.000000 0.000000 0.000000 0.000000 0.067193 0.000000
# 6 0.000000 0.000000 0.000000 0.000000 0.000000 0.168556
#
#
# Mechanical properties :
#
#
# Convention : Reuss Voigt Hill
#
# Bulk Modulus (GPa) = 18.51301 37.85392 28.18347
# Shear Modulus (GPa) = 14.77403 28.23110 21.50257
#
# Velocity S-wave (km/s) = 2.56767 3.54939 3.09767
# Velocity P-wave (km/s) = 4.12941 5.80430 5.03696
#
# Compressibility (1/GPa) = 0.05401607
#
# Stress axis : x y z
#
# Youngs Moduli (GPa) = 26.07490 130.21671 101.69846
#
# Poissons Ratio (x) = 0.03250 -0.18524
# Poissons Ratio (y) = 0.00651 0.25381
# Poissons Ratio (z) = -0.04750 0.32498
#
# Static dielectric constant tensor:
#      x y z
#    x 1.863610 0.000000 0.000000 
#    y 0.000000 1.889060 0.000000 
#    z 0.000000 0.000000 1.812680 
# 
# From -- ./inp_files/2949.got.cif
#   From: 2010.05.17/outbox.cif.g08.bks.cpg/sg56_2_cif.got.tgz:2949.got - 2010.06.03 13:42:01.
