data_PCOD9432782
_publ_section_title
;
Structure prediction by ZEFSAII (Michael W. Deem and Ramdas Pophale) SiO2 
 PCOD9432782
Probable space group: P C C N
;
_chemical_formula_sum "Si O2"
_cell_formula_units_Z 32
_cell_length_a 17.300697
_cell_length_b 4.770706
_cell_length_c 13.581075
_cell_angle_alpha 90.000000
_cell_angle_beta 90.000000
_cell_angle_gamma 90.000000
_cell_volume 1120.934926
_symmetry_space_group_name_H-M "P C C N"
_symmetry_group_IT_number 56
_symmetry_cell_setting 'orthorhombic'
loop_
_space_group_symop_operation_xyz
x,y,z
1/2-x,1/2-y,z
1/2+x,-y,1/2-z
-x,1/2+y,1/2-z
-x,-y,-z
1/2+x,1/2+y,-z
1/2-x,y,1/2+z
x,1/2-y,1/2+z
loop_
_atom_site_type_symbol
_atom_site_label
_atom_site_fract_x
_atom_site_fract_y
_atom_site_fract_z
Si Si1 0.943048 0.425100 0.258201
Si Si2 0.587626 0.561662 0.968806
Si Si3 0.165827 0.137733 0.840375
Si Si4 0.810015 0.486958 0.878119
O O1 0.902734 0.400011 0.365382
O O2 0.889534 0.597671 0.183912
O O3 0.986568 0.148612 0.223340
O O4 0.618320 0.874722 0.940137
O O5 0.500000 0.500000 0.000000
O O6 0.635753 0.479093 0.064326
O O7 0.250000 0.250000 0.863088
O O8 0.170344 0.963003 0.739311
O O9 0.750000 0.750000 0.876419
O O10 0.750000 0.250000 0.913378
#
# Coordination Sequence:
#
# PCOD9432782 Si02
#       4
#     8   8   8   8
#     4  11  25  48  74 109 160 214 270 345 432 517
#     4  11  23  47  79 119 161 219 289 356 437 532
#     4  10  23  46  76 114 157 217 277 353 430 522
#     4  10  24  50  75 111 163 219 275 352 436 525
#
# _framework density 28.547599999999999
#
# number of rings (size 3 to 8) (size 9 to 14) (size 15 to 20)
#    0.000    1.500    2.500    0.750    0.000   14.000 
#    4.500    6.250    0.000    0.000    0.000    0.000 
#    0.000    0.000    0.000    0.000    0.000    0.000 
#
# Total GULP energy -179474.711650 kJ/mol
# GULP energy per Si atom -5608.584739 kJ/mol
# Density = 2.848262 g / cm^3
# Si number density = 28.547600 Si / 1000 Ang^3
#
#
#
# Elastic Constant Matrix: (Units=GPa)
#
#
# Indices 1 2 3 4 5 6 
#
# 1 198.7733 9.4957 83.4228 0.0000 0.0000 0.0000
# 2 9.4957 137.6799 67.1890 0.0000 0.0000 0.0000
# 3 83.4228 67.1890 209.7198 0.0000 0.0000 0.0000
# 4 0.0000 0.0000 0.0000 -656.5593 0.0000 0.0000
# 5 0.0000 0.0000 0.0000 0.0000 63.4060 0.0000
# 6 0.0000 0.0000 0.0000 0.0000 0.0000 35.6212
#
#
#
# Elastic Compliance Matrix: (Units=1/GPa)
#
#
# Indices 1 2 3 4 5 6 
#
# 1 0.006134 0.000910 -0.002731 0.000000 0.000000 0.000000
# 2 0.000910 0.008744 -0.003163 0.000000 0.000000 0.000000
# 3 -0.002731 -0.003163 0.006868 0.000000 0.000000 0.000000
# 4 0.000000 0.000000 0.000000 -0.001523 0.000000 0.000000
# 5 0.000000 0.000000 0.000000 0.000000 0.015771 0.000000
# 6 0.000000 0.000000 0.000000 0.000000 0.000000 0.028073
#
#
# Mechanical properties :
#
#
# Convention : Reuss Voigt Hill
#
# Bulk Modulus (GPa) = 84.91523 96.26534 90.59029
# Shear Modulus (GPa) = 64.13314 -85.76871 -10.81779
#
# Velocity S-wave (km/s) = 4.74490 -5.48720 -1.94875
# Velocity P-wave (km/s) = 7.73489 2.52023 5.17093
#
# Compressibility (1/GPa) = 0.01177645
#
# Stress axis : x y z
#
# Youngs Moduli (GPa) = 163.03306 114.36120 145.59781
#
# Poissons Ratio (x) = -0.10406 0.39769
# Poissons Ratio (y) = -0.14835 0.46058
# Poissons Ratio (z) = 0.44531 0.36177
#
# Static dielectric constant tensor:
#      x y z
#    x 2.671620 0.000000 0.000000 
#    y 0.000000 2.420640 0.000000 
#    z 0.000000 0.000000 2.106040 
# 
# From -- ./inp_files/12470.got.cif
#   From: 2010.05.17/outbox.cif.g08.bks.cpg/sg56_7_cif.got.tgz:12470.got - 2010.06.03 13:42:01.
