data_PCOD9432239
_publ_section_title
;
Structure prediction by ZEFSAII (Michael W. Deem and Ramdas Pophale) SiO2 
 PCOD9432239
Probable space group: P C C N
;
_chemical_formula_sum "Si O2"
_cell_formula_units_Z 28
_cell_length_a 5.483517
_cell_length_b 20.858589
_cell_length_c 9.526510
_cell_angle_alpha 90.000000
_cell_angle_beta 90.000000
_cell_angle_gamma 90.000000
_cell_volume 1089.627232
_symmetry_space_group_name_H-M "P C C N"
_symmetry_group_IT_number 56
_symmetry_cell_setting 'orthorhombic'
loop_
_space_group_symop_operation_xyz
x,y,z
1/2-x,1/2-y,z
1/2+x,-y,1/2-z
-x,1/2+y,1/2-z
-x,-y,-z
1/2+x,1/2+y,-z
1/2-x,y,1/2+z
x,1/2-y,1/2+z
loop_
_atom_site_type_symbol
_atom_site_label
_atom_site_fract_x
_atom_site_fract_y
_atom_site_fract_z
Si Si1 0.369760 0.545755 0.613199
Si Si2 0.641283 0.925810 0.697892
Si Si3 0.750000 0.250000 0.903152
Si Si4 0.045545 0.303233 0.143696
O O1 0.500000 0.500000 0.500000
O O2 0.095537 0.573227 0.595336
O O3 0.332429 0.498564 0.747151
O O4 0.590231 0.593992 0.645582
O O5 0.600945 0.876928 0.825309
O O6 0.639737 0.200545 0.014896
O O7 0.559460 0.280317 0.794572
O O8 0.250000 0.250000 0.109201
#
# Coordination Sequence:
#
# PCOD9432239 Si02
#       4
#     8   8   4   8
#     4  10  22  42  64 100 132 178 221 283 345 421
#     4  10  24  40  67  96 134 173 231 280 352 415
#     4  10  26  44  66 100 138 180 244 288 364 422
#     4  11  25  45  69 102 138 189 237 298 359 429
#
# _framework density 25.696860999999998
#
# number of rings (size 3 to 8) (size 9 to 14) (size 15 to 20)
#    0.000    1.714    0.000    1.714   12.000    2.286 
#    0.000    0.000    0.000    0.000    0.000    0.000 
#    0.000    0.000    0.000    0.000    0.000    0.000 
#
# Total GULP energy -156241.413952 kJ/mol
# GULP energy per Si atom -5580.050498 kJ/mol
# Density = 2.563837 g / cm^3
# Si number density = 25.696861 Si / 1000 Ang^3
#
#
#
# Elastic Constant Matrix: (Units=GPa)
#
#
# Indices 1 2 3 4 5 6 
#
# 1 87.3645 34.2879 0.8860 0.0000 0.0000 0.0000
# 2 34.2879 68.7634 11.2011 0.0000 0.0000 0.0000
# 3 0.8860 11.2011 111.0570 0.0000 0.0000 0.0000
# 4 0.0000 0.0000 0.0000 24.7194 0.0000 0.0000
# 5 0.0000 0.0000 0.0000 0.0000 14.1730 0.0000
# 6 0.0000 0.0000 0.0000 0.0000 0.0000 30.0112
#
#
#
# Elastic Compliance Matrix: (Units=1/GPa)
#
#
# Indices 1 2 3 4 5 6 
#
# 1 0.014272 -0.007217 0.000614 0.000000 0.000000 0.000000
# 2 -0.007217 0.018435 -0.001802 0.000000 0.000000 0.000000
# 3 0.000614 -0.001802 0.009181 0.000000 0.000000 0.000000
# 4 0.000000 0.000000 0.000000 0.040454 0.000000 0.000000
# 5 0.000000 0.000000 0.000000 0.000000 0.070557 0.000000
# 6 0.000000 0.000000 0.000000 0.000000 0.000000 0.033321
#
#
# Mechanical properties :
#
#
# Convention : Reuss Voigt Hill
#
# Bulk Modulus (GPa) = 39.87346 39.99275 39.93311
# Shear Modulus (GPa) = 23.65309 28.50137 26.07723
#
# Velocity S-wave (km/s) = 3.03721 3.33399 3.18905
# Velocity P-wave (km/s) = 5.27732 5.51522 5.39758
#
# Compressibility (1/GPa) = 0.02507934
#
# Stress axis : x y z
#
# Youngs Moduli (GPa) = 70.06519 54.24573 108.91817
#
# Poissons Ratio (x) = 0.39148 -0.06688
# Poissons Ratio (y) = 0.50564 0.19624
# Poissons Ratio (z) = -0.04302 0.09774
#
# Static dielectric constant tensor:
#      x y z
#    x 2.129380 0.000000 0.000000 
#    y 0.000000 2.045250 0.000000 
#    z 0.000000 0.000000 2.022350 
# 
# From -- ./inp_files/1527.got.cif
#   From: 2010.05.17/outbox.cif.g08.bks.cpg/sg56_1_cif.got.tgz:1527.got - 2010.06.03 13:42:01.
