data_PCOD9432953
_publ_section_title
;
Structure prediction by ZEFSAII (Michael W. Deem and Ramdas Pophale) SiO2 
 PCOD9432953
Probable space group: P C C N
;
_chemical_formula_sum "Si O2"
_cell_formula_units_Z 36
_cell_length_a 7.496478
_cell_length_b 12.918686
_cell_length_c 17.185035
_cell_angle_alpha 90.000000
_cell_angle_beta 90.000000
_cell_angle_gamma 90.000000
_cell_volume 1664.278621
_symmetry_space_group_name_H-M "P C C N"
_symmetry_group_IT_number 56
_symmetry_cell_setting 'orthorhombic'
loop_
_space_group_symop_operation_xyz
x,y,z
1/2-x,1/2-y,z
1/2+x,-y,1/2-z
-x,1/2+y,1/2-z
-x,-y,-z
1/2+x,1/2+y,-z
1/2-x,y,1/2+z
x,1/2-y,1/2+z
loop_
_atom_site_type_symbol
_atom_site_label
_atom_site_fract_x
_atom_site_fract_y
_atom_site_fract_z
Si Si1 0.467378 0.620742 0.750260
Si Si2 0.313891 0.855306 0.889550
Si Si3 0.750000 0.250000 0.870517
Si Si4 0.813351 0.458204 0.467368
Si Si5 0.164496 0.411584 0.172819
O O1 0.330596 0.623547 0.822692
O O2 0.402958 0.703854 0.686432
O O3 0.671792 0.628853 0.776484
O O4 0.436349 0.506675 0.714568
O O5 0.250000 0.750000 0.928670
O O6 0.505338 0.836410 0.851117
O O7 0.310584 0.940779 0.956773
O O8 0.680986 0.349134 0.919785
O O9 0.744499 0.541963 0.406343
O O10 0.000000 0.500000 0.500000
#
# Coordination Sequence:
#
# PCOD9432953 Si02
#       5
#     8   8   4   8   8
#     4  11  22  43  70 101 137 180 239 286 353 417
#     4  12  24  44  68 100 140 177 234 289 347 423
#     4  10  24  44  70 106 142 180 238 306 340 430
#     4  11  23  45  74 100 143 187 234 291 359 422
#     4  11  24  43  74  98 136 191 228 288 357 415
#
# _framework density 21.630994000000001
#
# number of rings (size 3 to 8) (size 9 to 14) (size 15 to 20)
#    0.000    0.889    6.667    0.667    0.000    0.889 
#    0.000    0.000    9.778    0.000    0.000    0.000 
#    0.000    0.000    0.000    0.000    0.000    0.000 
#
# Total GULP energy -201230.195942 kJ/mol
# GULP energy per Si atom -5589.727665 kJ/mol
# Density = 2.158176 g / cm^3
# Si number density = 21.630994 Si / 1000 Ang^3
#
#
#
# Elastic Constant Matrix: (Units=GPa)
#
#
# Indices 1 2 3 4 5 6 
#
# 1 178.2275 46.5213 53.3702 0.0000 0.0000 0.0000
# 2 46.5213 61.6664 25.0174 0.0000 0.0000 0.0000
# 3 53.3702 25.0174 106.5713 0.0000 0.0000 0.0000
# 4 0.0000 0.0000 0.0000 1.6886 0.0000 0.0000
# 5 0.0000 0.0000 0.0000 0.0000 32.8990 0.0000
# 6 0.0000 0.0000 0.0000 0.0000 0.0000 26.7317
#
#
#
# Elastic Compliance Matrix: (Units=1/GPa)
#
#
# Indices 1 2 3 4 5 6 
#
# 1 0.007646 -0.004658 -0.002735 0.000000 0.000000 0.000000
# 2 -0.004658 0.020761 -0.002541 0.000000 0.000000 0.000000
# 3 -0.002735 -0.002541 0.011350 0.000000 0.000000 0.000000
# 4 0.000000 0.000000 0.000000 0.592204 0.000000 0.000000
# 5 0.000000 0.000000 0.000000 0.000000 0.030396 0.000000
# 6 0.000000 0.000000 0.000000 0.000000 0.000000 0.037409
#
#
# Mechanical properties :
#
#
# Convention : Reuss Voigt Hill
#
# Bulk Modulus (GPa) = 50.28229 66.25365 58.26797
# Shear Modulus (GPa) = 6.88455 27.03429 16.95942
#
# Velocity S-wave (km/s) = 1.78595 3.53908 2.80310
# Velocity P-wave (km/s) = 5.24869 6.88445 6.12145
#
# Compressibility (1/GPa) = 0.01988772
#
# Stress axis : x y z
#
# Youngs Moduli (GPa) = 130.78979 48.16649 88.10770
#
# Poissons Ratio (x) = 0.22437 0.24102
# Poissons Ratio (y) = 0.60926 0.22387
# Poissons Ratio (z) = 0.35777 0.12238
#
# Static dielectric constant tensor:
#      x y z
#    x 1.765730 0.000000 0.000000 
#    y 0.000000 1.851400 0.000000 
#    z 0.000000 0.000000 1.787700 
# 
# From -- ./inp_files/17375.got.cif
#   From: 2010.05.17/outbox.cif.g08.bks.cpg/sg56_9_cif.got.tgz:17375.got - 2010.06.03 13:42:01.
