data_PCOD9432187
_publ_section_title
;
Structure prediction by ZEFSAII (Michael W. Deem and Ramdas Pophale) SiO2 
 PCOD9432187
Probable space group: P C C N
;
_chemical_formula_sum "Si O2"
_cell_formula_units_Z 40
_cell_length_a 8.379045
_cell_length_b 13.245455
_cell_length_c 15.230385
_cell_angle_alpha 90.000000
_cell_angle_beta 90.000000
_cell_angle_gamma 90.000000
_cell_volume 1690.333062
_symmetry_space_group_name_H-M "P C C N"
_symmetry_group_IT_number 56
_symmetry_cell_setting 'orthorhombic'
loop_
_space_group_symop_operation_xyz
x,y,z
1/2-x,1/2-y,z
1/2+x,-y,1/2-z
-x,1/2+y,1/2-z
-x,-y,-z
1/2+x,1/2+y,-z
1/2-x,y,1/2+z
x,1/2-y,1/2+z
loop_
_atom_site_type_symbol
_atom_site_label
_atom_site_fract_x
_atom_site_fract_y
_atom_site_fract_z
Si Si1 0.121112 0.623577 0.040314
Si Si2 0.956953 0.445335 0.140039
Si Si3 0.799538 0.909765 0.768625
Si Si4 0.091794 0.235435 0.868021
Si Si5 0.047746 0.969050 0.096619
O O1 0.993623 0.544373 0.081060
O O2 0.281483 0.582205 0.081760
O O3 0.062371 0.726452 0.082341
O O4 0.113796 0.627399 0.934842
O O5 0.123829 0.407371 0.184403
O O6 0.831400 0.487379 0.211398
O O7 0.865431 0.812940 0.712702
O O8 0.926035 0.931378 0.846180
O O9 0.250000 0.250000 0.926858
O O10 0.066471 0.115324 0.859328
O O11 0.000000 0.000000 0.000000
#
# Coordination Sequence:
#
# PCOD9432187 Si02
#       5
#     8   8   8   8   8
#     4   9  21  41  67  94 143 188 231 284 351 424
#     4   9  19  37  68  97 137 183 229 286 351 415
#     4  10  22  41  66 102 140 183 231 295 357 413
#     4  11  24  43  71 102 141 182 240 297 351 429
#     4  11  25  44  72 104 143 192 237 290 361 435
#
# _framework density 23.663975000000001
#
# number of rings (size 3 to 8) (size 9 to 14) (size 15 to 20)
#    0.000    2.000    0.000    1.800   14.000    0.000 
#    7.200    0.000    0.000    0.000    0.000    0.000 
#    0.000    0.000    0.000    0.000    0.000    0.000 
#
# Total GULP energy -222756.835780 kJ/mol
# GULP energy per Si atom -5568.920894 kJ/mol
# Density = 2.361011 g / cm^3
# Si number density = 23.663975 Si / 1000 Ang^3
#
#
#
# Elastic Constant Matrix: (Units=GPa)
#
#
# Indices 1 2 3 4 5 6 
#
# 1 78.2736 13.5229 9.9321 0.0000 0.0000 0.0000
# 2 13.5229 81.9184 35.3975 0.0000 0.0000 0.0000
# 3 9.9321 35.3975 127.5485 0.0000 0.0000 0.0000
# 4 0.0000 0.0000 0.0000 7.4623 0.0000 0.0000
# 5 0.0000 0.0000 0.0000 0.0000 27.0154 0.0000
# 6 0.0000 0.0000 0.0000 0.0000 0.0000 36.8813
#
#
#
# Elastic Compliance Matrix: (Units=1/GPa)
#
#
# Indices 1 2 3 4 5 6 
#
# 1 0.013177 -0.001968 -0.000480 0.000000 0.000000 0.000000
# 2 -0.001968 0.014164 -0.003778 0.000000 0.000000 0.000000
# 3 -0.000480 -0.003778 0.008926 0.000000 0.000000 0.000000
# 4 0.000000 0.000000 0.000000 0.134007 0.000000 0.000000
# 5 0.000000 0.000000 0.000000 0.000000 0.037016 0.000000
# 6 0.000000 0.000000 0.000000 0.000000 0.000000 0.027114
#
#
# Mechanical properties :
#
#
# Convention : Reuss Voigt Hill
#
# Bulk Modulus (GPa) = 41.98842 45.04950 43.51896
# Shear Modulus (GPa) = 19.62373 29.53100 24.57736
#
# Velocity S-wave (km/s) = 2.88282 3.53644 3.22623
# Velocity P-wave (km/s) = 5.37243 5.97944 5.68404
#
# Compressibility (1/GPa) = 0.02381609
#
# Stress axis : x y z
#
# Youngs Moduli (GPa) = 75.89234 70.59910 112.03315
#
# Poissons Ratio (x) = 0.13892 0.05377
# Poissons Ratio (y) = 0.14934 0.42323
# Poissons Ratio (z) = 0.03642 0.26670
#
# Static dielectric constant tensor:
#      x y z
#    x 2.046270 0.000000 0.000000 
#    y 0.000000 2.000980 0.000000 
#    z 0.000000 0.000000 1.980790 
# 
# From -- ./inp_files/10394.got.cif
#   From: 2010.05.17/outbox.cif.g08.bks.cpg/sg56_6_cif.got.tgz:10394.got - 2010.06.03 13:42:01.
