data_PCOD9432606
_publ_section_title
;
Structure prediction by ZEFSAII (Michael W. Deem and Ramdas Pophale) SiO2 
 PCOD9432606
Probable space group: P C C N
;
_chemical_formula_sum "Si O2"
_cell_formula_units_Z 32
_cell_length_a 17.348655
_cell_length_b 7.895049
_cell_length_c 12.119220
_cell_angle_alpha 90.000000
_cell_angle_beta 90.000000
_cell_angle_gamma 90.000000
_cell_volume 1659.951158
_symmetry_space_group_name_H-M "P C C N"
_symmetry_group_IT_number 56
_symmetry_cell_setting 'orthorhombic'
loop_
_space_group_symop_operation_xyz
x,y,z
1/2-x,1/2-y,z
1/2+x,-y,1/2-z
-x,1/2+y,1/2-z
-x,-y,-z
1/2+x,1/2+y,-z
1/2-x,y,1/2+z
x,1/2-y,1/2+z
loop_
_atom_site_type_symbol
_atom_site_label
_atom_site_fract_x
_atom_site_fract_y
_atom_site_fract_z
Si Si1 0.665515 0.814629 0.477775
Si Si2 0.042407 0.033840 0.166290
Si Si3 0.574059 0.987765 0.079548
Si Si4 0.897152 0.345890 0.531416
O O1 0.750000 0.750000 0.452271
O O2 0.621463 0.681839 0.555477
O O3 0.610354 0.837874 0.371316
O O4 0.664833 0.003225 0.530610
O O5 0.037923 0.605355 0.378724
O O6 0.046509 0.003190 0.294634
O O7 0.061465 0.871117 0.088567
O O8 0.625115 0.153893 0.051882
O O9 0.500000 0.000000 0.000000
#
# Coordination Sequence:
#
# PCOD9432606 Si02
#       4
#     8   8   8   8
#     4  10  23  42  61  91 132 159 206 264 321 379
#     4   9  21  40  58  96 124 154 217 256 302 379
#     4  12  22  36  69  92 122 174 204 260 322 355
#     4   9  21  40  60  91 124 158 218 259 290 390
#
# _framework density 19.277676
#
# number of rings (size 3 to 8) (size 9 to 14) (size 15 to 20)
#    1.500    0.500    2.500    0.000    7.000    2.000 
#    0.000    0.000    5.500    0.000    0.000    0.000 
#    0.000    0.000    0.000    0.000    0.000    0.000 
#
# Total GULP energy -178256.893631 kJ/mol
# GULP energy per Si atom -5570.527926 kJ/mol
# Density = 1.923380 g / cm^3
# Si number density = 19.277676 Si / 1000 Ang^3
#
#
#
# Elastic Constant Matrix: (Units=GPa)
#
#
# Indices 1 2 3 4 5 6 
#
# 1 67.4982 12.7576 3.0442 0.0000 0.0000 0.0000
# 2 12.7576 107.2959 33.9613 0.0000 0.0000 0.0000
# 3 3.0442 33.9613 132.2260 0.0000 0.0000 0.0000
# 4 0.0000 0.0000 0.0000 15.7052 0.0000 0.0000
# 5 0.0000 0.0000 0.0000 0.0000 2.6571 0.0000
# 6 0.0000 0.0000 0.0000 0.0000 0.0000 21.9073
#
#
#
# Elastic Compliance Matrix: (Units=1/GPa)
#
#
# Indices 1 2 3 4 5 6 
#
# 1 0.015158 -0.001842 0.000124 0.000000 0.000000 0.000000
# 2 -0.001842 0.010368 -0.002621 0.000000 0.000000 0.000000
# 3 0.000124 -0.002621 0.008233 0.000000 0.000000 0.000000
# 4 0.000000 0.000000 0.000000 0.063673 0.000000 0.000000
# 5 0.000000 0.000000 0.000000 0.000000 0.376356 0.000000
# 6 0.000000 0.000000 0.000000 0.000000 0.000000 0.045647
#
#
# Mechanical properties :
#
#
# Convention : Reuss Voigt Hill
#
# Bulk Modulus (GPa) = 39.86789 45.17181 42.51985
# Shear Modulus (GPa) = 9.32014 25.20436 17.26225
#
# Velocity S-wave (km/s) = 2.20118 3.61977 2.99566
# Velocity P-wave (km/s) = 5.21402 6.39948 5.83693
#
# Compressibility (1/GPa) = 0.02508284
#
# Stress axis : x y z
#
# Youngs Moduli (GPa) = 65.97322 96.44618 121.46158
#
# Poissons Ratio (x) = 0.17761 -0.01506
# Poissons Ratio (y) = 0.12149 0.31831
# Poissons Ratio (z) = -0.00818 0.25275
#
# Static dielectric constant tensor:
#      x y z
#    x 1.659090 0.000000 0.000000 
#    y 0.000000 1.746330 0.000000 
#    z 0.000000 0.000000 1.646820 
# 
# From -- ./inp_files/8572.got.cif
#   From: 2010.05.17/outbox.cif.g08.bks.cpg/sg56_5_cif.got.tgz:8572.got - 2010.06.03 13:42:01.
