data_PCOD9432332
_publ_section_title
;
Structure prediction by ZEFSAII (Michael W. Deem and Ramdas Pophale) SiO2 
 PCOD9432332
Probable space group: P C C N
;
_chemical_formula_sum "Si O2"
_cell_formula_units_Z 32
_cell_length_a 6.952017
_cell_length_b 12.921063
_cell_length_c 14.364958
_cell_angle_alpha 90.000000
_cell_angle_beta 90.000000
_cell_angle_gamma 90.000000
_cell_volume 1290.367541
_symmetry_space_group_name_H-M "P C C N"
_symmetry_group_IT_number 56
_symmetry_cell_setting 'orthorhombic'
loop_
_space_group_symop_operation_xyz
x,y,z
1/2-x,1/2-y,z
1/2+x,-y,1/2-z
-x,1/2+y,1/2-z
-x,-y,-z
1/2+x,1/2+y,-z
1/2-x,y,1/2+z
x,1/2-y,1/2+z
loop_
_atom_site_type_symbol
_atom_site_label
_atom_site_fract_x
_atom_site_fract_y
_atom_site_fract_z
Si Si1 0.750000 0.250000 0.676464
Si Si2 0.189760 0.496306 0.063378
Si Si3 0.038344 0.652999 0.492172
Si Si4 0.250000 0.250000 0.901786
Si Si5 0.633001 0.847142 0.773163
O O1 0.859571 0.327141 0.605712
O O2 0.586237 0.309566 0.731959
O O3 0.303627 0.603855 0.059499
O O4 0.147878 0.448546 0.164774
O O5 0.353135 0.420116 0.020865
O O6 0.000000 0.500000 0.000000
O O7 0.940043 0.753878 0.536339
O O8 0.224295 0.154357 0.829557
O O9 0.750000 0.750000 0.819753
#
# Coordination Sequence:
#
# PCOD9432332 Si02
#       5
#     4   8   8   4   8
#     4  12  20  40  74  88 130 188 234 270 340 416
#     4  11  22  42  66  97 134 175 232 279 336 417
#     4  11  23  39  67  99 126 177 230 282 329 420
#     4  10  24  46  60  98 140 172 228 284 360 410
#     4  10  22  43  63  94 139 177 220 281 352 416
#
# _framework density 24.799136000000001
#
# number of rings (size 3 to 8) (size 9 to 14) (size 15 to 20)
#    0.750    0.500    5.000    1.500    0.000    1.000 
#    4.500    0.000    0.000    0.000    0.000    0.000 
#    0.000    0.000    0.000    0.000    0.000    0.000 
#
# Total GULP energy -178866.102975 kJ/mol
# GULP energy per Si atom -5589.565718 kJ/mol
# Density = 2.474269 g / cm^3
# Si number density = 24.799136 Si / 1000 Ang^3
#
#
#
# Elastic Constant Matrix: (Units=GPa)
#
#
# Indices 1 2 3 4 5 6 
#
# 1 177.7652 46.9343 22.2989 0.0000 0.0000 0.0000
# 2 46.9343 42.4014 6.4313 0.0000 0.0000 0.0000
# 3 22.2989 6.4313 66.6169 0.0000 0.0000 0.0000
# 4 0.0000 0.0000 0.0000 28.9363 0.0000 0.0000
# 5 0.0000 0.0000 0.0000 0.0000 -0.0898 0.0000
# 6 0.0000 0.0000 0.0000 0.0000 0.0000 53.8054
#
#
#
# Elastic Compliance Matrix: (Units=1/GPa)
#
#
# Indices 1 2 3 4 5 6 
#
# 1 0.008176 -0.008764 -0.001891 0.000000 0.000000 0.000000
# 2 -0.008764 0.033328 -0.000284 0.000000 0.000000 0.000000
# 3 -0.001891 -0.000284 0.015672 0.000000 0.000000 0.000000
# 4 0.000000 0.000000 0.000000 0.034559 0.000000 0.000000
# 5 0.000000 0.000000 0.000000 0.000000-11.139965 0.000000
# 6 0.000000 0.000000 0.000000 0.000000 0.000000 0.018585
#
#
# Mechanical properties :
#
#
# Convention : Reuss Voigt Hill
#
# Bulk Modulus (GPa) = 28.32973 48.67918 38.50445
# Shear Modulus (GPa) = -0.45471 30.60499 15.07514
#
# Velocity S-wave (km/s) = -0.42867 3.51681 2.46822
# Velocity P-wave (km/s) = 3.34716 6.01353 4.86652
#
# Compressibility (1/GPa) = 0.03529861
#
# Stress axis : x y z
#
# Youngs Moduli (GPa) = 122.30280 30.00499 63.80983
#
# Poissons Ratio (x) = 0.26296 0.12066
# Poissons Ratio (y) = 1.07183 0.01812
# Poissons Ratio (z) = 0.23126 0.00852
#
# Static dielectric constant tensor:
#      x y z
#    x 1.933700 0.000000 0.000000 
#    y 0.000000 2.089690 0.000000 
#    z 0.000000 0.000000 1.972170 
# 
# From -- ./inp_files/9442.got.cif
#   From: 2010.05.17/outbox.cif.g08.bks.cpg/sg56_5_cif.got.tgz:9442.got - 2010.06.03 13:42:01.
