data_PCOD9432434
_publ_section_title
;
Structure prediction by ZEFSAII (Michael W. Deem and Ramdas Pophale) SiO2 
 PCOD9432434
Probable space group: P C C N
;
_chemical_formula_sum "Si O2"
_cell_formula_units_Z 32
_cell_length_a 7.490164
_cell_length_b 5.381034
_cell_length_c 29.595654
_cell_angle_alpha 90.000000
_cell_angle_beta 90.000000
_cell_angle_gamma 90.000000
_cell_volume 1192.847719
_symmetry_space_group_name_H-M "P C C N"
_symmetry_group_IT_number 56
_symmetry_cell_setting 'orthorhombic'
loop_
_space_group_symop_operation_xyz
x,y,z
1/2-x,1/2-y,z
1/2+x,-y,1/2-z
-x,1/2+y,1/2-z
-x,-y,-z
1/2+x,1/2+y,-z
1/2-x,y,1/2+z
x,1/2-y,1/2+z
loop_
_atom_site_type_symbol
_atom_site_label
_atom_site_fract_x
_atom_site_fract_y
_atom_site_fract_z
Si Si1 0.656010 0.456070 0.791803
Si Si2 0.466980 0.503020 0.946927
Si Si3 0.434115 0.002920 0.910038
Si Si4 0.479831 0.600725 0.309531
O O1 0.750000 0.750000 0.795589
O O2 0.616634 0.440623 0.738087
O O3 0.629447 0.138974 0.804363
O O4 0.487323 0.593640 0.815452
O O5 0.537191 0.756848 0.925481
O O6 0.254417 0.499910 0.936185
O O7 0.535069 0.252742 0.923642
O O8 0.500000 0.500000 0.000000
O O9 0.401743 0.984810 0.857121
#
# Coordination Sequence:
#
# PCOD9432434 Si02
#       4
#     8   8   8   8
#     4  11  24  43  67  99 150 193 244 300 353 435
#     4  10  22  44  72 101 139 180 239 304 382 442
#     4  10  24  42  73 105 139 187 242 305 362 456
#     4  11  25  42  70 104 142 199 246 296 370 428
#
# _framework density 26.826560000000001
#
# number of rings (size 3 to 8) (size 9 to 14) (size 15 to 20)
#    0.000    1.500    2.500    0.750    7.000    4.000 
#    0.000   15.000    0.000    0.000    0.000    0.000 
#    0.000    0.000    0.000    0.000    0.000    0.000 
#
# Total GULP energy -178418.227029 kJ/mol
# GULP energy per Si atom -5575.569595 kJ/mol
# Density = 2.676550 g / cm^3
# Si number density = 26.826560 Si / 1000 Ang^3
#
#
#
# Elastic Constant Matrix: (Units=GPa)
#
#
# Indices 1 2 3 4 5 6 
#
# 1 96.3409 36.2070 55.4748 0.0000 0.0000 0.0000
# 2 36.2070 289.2083 65.8288 0.0000 0.0000 0.0000
# 3 55.4748 65.8288 200.8497 0.0000 0.0000 0.0000
# 4 0.0000 0.0000 0.0000 46.9849 0.0000 0.0000
# 5 0.0000 0.0000 0.0000 0.0000 -70.9407 0.0000
# 6 0.0000 0.0000 0.0000 0.0000 0.0000 14.5624
#
#
#
# Elastic Compliance Matrix: (Units=1/GPa)
#
#
# Indices 1 2 3 4 5 6 
#
# 1 0.012531 -0.000844 -0.003184 0.000000 0.000000 0.000000
# 2 -0.000844 0.003793 -0.001010 0.000000 0.000000 0.000000
# 3 -0.003184 -0.001010 0.006189 0.000000 0.000000 0.000000
# 4 0.000000 0.000000 0.000000 0.021283 0.000000 0.000000
# 5 0.000000 0.000000 0.000000 0.000000 -0.014096 0.000000
# 6 0.000000 0.000000 0.000000 0.000000 0.000000 0.068670
#
#
# Mechanical properties :
#
#
# Convention : Reuss Voigt Hill
#
# Bulk Modulus (GPa) = 80.40893 100.15779 90.28336
# Shear Modulus (GPa) = 44.40784 26.71388 35.56086
#
# Velocity S-wave (km/s) = 4.07304 3.15905 3.64481
# Velocity P-wave (km/s) = 7.22206 7.12197 7.17219
#
# Compressibility (1/GPa) = 0.01243643
#
# Stress axis : x y z
#
# Youngs Moduli (GPa) = 79.80474 263.62261 161.56514
#
# Poissons Ratio (x) = 0.22248 0.51448
# Poissons Ratio (y) = 0.06735 0.16321
# Poissons Ratio (z) = 0.25413 0.26630
#
# Static dielectric constant tensor:
#      x y z
#    x 1.469790 0.000000 0.000000 
#    y 0.000000 2.197260 0.000000 
#    z 0.000000 0.000000 1.897280 
# 
# From -- ./inp_files/17259.got.cif
#   From: 2010.05.17/outbox.cif.g08.bks.cpg/sg56_9_cif.got.tgz:17259.got - 2010.06.03 13:42:01.
