data_PCOD9432143
_publ_section_title
;
Structure prediction by ZEFSAII (Michael W. Deem and Ramdas Pophale) SiO2 
 PCOD9432143
Probable space group: P C C N
;
_chemical_formula_sum "Si O2"
_cell_formula_units_Z 40
_cell_length_a 6.626241
_cell_length_b 11.269665
_cell_length_c 25.641547
_cell_angle_alpha 90.000000
_cell_angle_beta 90.000000
_cell_angle_gamma 90.000000
_cell_volume 1914.795760
_symmetry_space_group_name_H-M "P C C N"
_symmetry_group_IT_number 56
_symmetry_cell_setting 'orthorhombic'
loop_
_space_group_symop_operation_xyz
x,y,z
1/2-x,1/2-y,z
1/2+x,-y,1/2-z
-x,1/2+y,1/2-z
-x,-y,-z
1/2+x,1/2+y,-z
1/2-x,y,1/2+z
x,1/2-y,1/2+z
loop_
_atom_site_type_symbol
_atom_site_label
_atom_site_fract_x
_atom_site_fract_y
_atom_site_fract_z
Si Si1 0.250000 0.750000 0.113649
Si Si2 0.951186 0.675843 0.702192
Si Si3 0.750000 0.250000 0.211846
Si Si4 0.175138 0.886088 0.450315
Si Si5 0.752091 0.499169 0.945100
Si Si6 0.075246 0.937143 0.858606
O O1 0.439703 0.734840 0.152132
O O2 0.209134 0.632022 0.079964
O O3 0.750000 0.750000 0.714942
O O4 0.917674 0.543477 0.682135
O O5 0.109905 0.673672 0.749549
O O6 0.905647 0.180793 0.175056
O O7 0.250000 0.750000 0.451925
O O8 0.291400 0.959076 0.495297
O O9 0.228174 0.940525 0.394549
O O10 0.937279 0.910041 0.454453
O O11 0.601532 0.554785 0.901962
#
# Coordination Sequence:
#
# PCOD9432143 Si02
#       6
#     4   8   4   8   8   8
#     4   9  18  41  64  96 124 165 224 277 332 404
#     4  10  23  41  67  90 125 173 222 279 340 390
#     4  11  26  43  62  96 128 167 230 275 326 406
#     4  11  22  41  65 102 135 171 220 269 334 414
#     4  10  22  40  70  94 135 173 213 274 333 397
#     4  11  24  44  64  96 133 172 222 275 338 398
#
# _framework density 20.889955
#
# number of rings (size 3 to 8) (size 9 to 14) (size 15 to 20)
#    0.000    1.600    2.000    1.800    2.800    2.400 
#    0.000    0.000    0.000    0.000    0.000    0.000 
#    0.000    0.000    0.000    0.000    0.000    0.000 
#
# Total GULP energy -222875.251680 kJ/mol
# GULP energy per Si atom -5571.881292 kJ/mol
# Density = 2.084241 g / cm^3
# Si number density = 20.889955 Si / 1000 Ang^3
#
#
#
# Elastic Constant Matrix: (Units=GPa)
#
#
# Indices 1 2 3 4 5 6 
#
# 1 59.8040 41.6218 10.7403 0.0000 0.0000 0.0000
# 2 41.6218 94.2596 48.6642 0.0000 0.0000 0.0000
# 3 10.7403 48.6642 120.9785 0.0000 0.0000 0.0000
# 4 0.0000 0.0000 0.0000 36.8053 0.0000 0.0000
# 5 0.0000 0.0000 0.0000 0.0000 28.6104 0.0000
# 6 0.0000 0.0000 0.0000 0.0000 0.0000 24.4917
#
#
#
# Elastic Compliance Matrix: (Units=1/GPa)
#
#
# Indices 1 2 3 4 5 6 
#
# 1 0.024863 -0.012418 0.002788 0.000000 0.000000 0.000000
# 2 -0.012418 0.019592 -0.006779 0.000000 0.000000 0.000000
# 3 0.002788 -0.006779 0.010745 0.000000 0.000000 0.000000
# 4 0.000000 0.000000 0.000000 0.027170 0.000000 0.000000
# 5 0.000000 0.000000 0.000000 0.000000 0.034952 0.000000
# 6 0.000000 0.000000 0.000000 0.000000 0.000000 0.040830
#
#
# Mechanical properties :
#
#
# Convention : Reuss Voigt Hill
#
# Bulk Modulus (GPa) = 44.67682 53.01051 48.84366
# Shear Modulus (GPa) = 25.19765 29.58254 27.39010
#
# Velocity S-wave (km/s) = 3.47682 3.76721 3.62492
# Velocity P-wave (km/s) = 6.12788 6.65985 6.39940
#
# Compressibility (1/GPa) = 0.02238297
#
# Stress axis : x y z
#
# Youngs Moduli (GPa) = 40.22002 51.04116 93.06541
#
# Poissons Ratio (x) = 0.63383 -0.25946
# Poissons Ratio (y) = 0.49946 0.63085
# Poissons Ratio (z) = -0.11213 0.34598
#
# Static dielectric constant tensor:
#      x y z
#    x 1.776780 0.000000 0.000000 
#    y 0.000000 1.786600 0.000000 
#    z 0.000000 0.000000 1.718320 
# 
# From -- ./inp_files/21545.got.cif
#   From: 2010.05.17/outbox.cif.g08.bks.cpg/sg56_11_cif.got.tgz:21545.got - 2010.06.03 13:42:01.
