data_PCOD9432676
_publ_section_title
;
Structure prediction by ZEFSAII (Michael W. Deem and Ramdas Pophale) SiO2 
 PCOD9432676
Probable space group: P C C N
;
_chemical_formula_sum "Si O2"
_cell_formula_units_Z 60
_cell_length_a 6.202299
_cell_length_b 21.814525
_cell_length_c 19.102416
_cell_angle_alpha 90.000000
_cell_angle_beta 90.000000
_cell_angle_gamma 90.000000
_cell_volume 2584.560831
_symmetry_space_group_name_H-M "P C C N"
_symmetry_group_IT_number 56
_symmetry_cell_setting 'orthorhombic'
loop_
_space_group_symop_operation_xyz
x,y,z
1/2-x,1/2-y,z
1/2+x,-y,1/2-z
-x,1/2+y,1/2-z
-x,-y,-z
1/2+x,1/2+y,-z
1/2-x,y,1/2+z
x,1/2-y,1/2+z
loop_
_atom_site_type_symbol
_atom_site_label
_atom_site_fract_x
_atom_site_fract_y
_atom_site_fract_z
Si Si1 0.063974 0.199578 0.075846
Si Si2 0.403277 0.056333 0.413066
Si Si3 0.978696 0.777847 0.771372
Si Si4 0.750000 0.250000 0.346656
Si Si5 0.756471 0.989249 0.335044
Si Si6 0.914274 0.910483 0.708113
Si Si7 0.256338 0.653602 0.536706
Si Si8 0.642709 0.915365 0.957559
O O1 0.250000 0.250000 0.061734
O O2 0.942335 0.210525 0.149501
O O3 0.192382 0.135053 0.074071
O O4 0.889445 0.194369 0.014972
O O5 0.239526 0.088364 0.359306
O O6 0.594032 0.102217 0.434756
O O7 0.266559 0.044815 0.483389
O O8 0.528908 0.002015 0.373851
O O9 0.750000 0.750000 0.787163
O O10 0.968691 0.843353 0.734842
O O11 0.073751 0.732285 0.712153
O O12 0.676351 0.304100 0.397968
O O13 0.712153 0.945957 0.269580
O O14 0.913907 0.958126 0.392146
O O15 0.870869 0.051019 0.309218
O O16 0.449479 0.621093 0.494902
#
# Coordination Sequence:
#
# PCOD9432676 Si02
#       8
#     8   8   8   4   8   8   8   8
#     4  10  23  43  70 100 138 178 233 291 352 421
#     4  11  24  44  66 100 138 185 235 298 353 434
#     4  11  25  45  70 102 138 181 229 294 357 427
#     4  12  24  42  68 102 136 178 228 292 352 416
#     4  12  25  43  69 101 138 192 236 302 361 436
#     4  12  25  45  70 104 143 185 241 294 373 435
#     4  11  25  44  70 102 140 188 237 293 356 431
#     4  11  24  44  69 100 140 186 240 290 353 435
#
# _framework density 23.214774999999999
#
# number of rings (size 3 to 8) (size 9 to 14) (size 15 to 20)
#    0.000    0.800    2.667    4.400    0.000   10.667 
#    2.400    0.000    0.000    0.000    0.000    0.000 
#    0.000    0.000    0.000    0.000    0.000    0.000 
#
# Total GULP energy -335561.889830 kJ/mol
# GULP energy per Si atom -5592.698164 kJ/mol
# Density = 2.316194 g / cm^3
# Si number density = 23.214775 Si / 1000 Ang^3
#
#
#
# Elastic Constant Matrix: (Units=GPa)
#
#
# Indices 1 2 3 4 5 6 
#
# 1 61.5709 10.3923 36.3523 0.0000 0.0000 0.0000
# 2 10.3923 67.4876 24.4932 0.0000 0.0000 0.0000
# 3 36.3523 24.4932 163.4747 0.0000 0.0000 0.0000
# 4 0.0000 0.0000 0.0000 -49.9178 0.0000 0.0000
# 5 0.0000 0.0000 0.0000 0.0000 41.4603 0.0000
# 6 0.0000 0.0000 0.0000 0.0000 0.0000 39.2147
#
#
#
# Elastic Compliance Matrix: (Units=1/GPa)
#
#
# Indices 1 2 3 4 5 6 
#
# 1 0.018831 -0.001459 -0.003969 0.000000 0.000000 0.000000
# 2 -0.001459 0.015783 -0.002040 0.000000 0.000000 0.000000
# 3 -0.003969 -0.002040 0.007305 0.000000 0.000000 0.000000
# 4 0.000000 0.000000 0.000000 -0.020033 0.000000 0.000000
# 5 0.000000 0.000000 0.000000 0.000000 0.024119 0.000000
# 6 0.000000 0.000000 0.000000 0.000000 0.000000 0.025501
#
#
# Mechanical properties :
#
#
# Convention : Reuss Voigt Hill
#
# Bulk Modulus (GPa) = 37.06126 48.33432 42.69779
# Shear Modulus (GPa) = 52.39046 20.90445 36.64745
#
# Velocity S-wave (km/s) = 4.75570 3.00406 3.97750
# Velocity P-wave (km/s) = 6.79373 5.73569 6.28701
#
# Compressibility (1/GPa) = 0.02698236
#
# Stress axis : x y z
#
# Youngs Moduli (GPa) = 53.10383 63.36054 136.88507
#
# Poissons Ratio (x) = 0.09246 0.54328
# Poissons Ratio (y) = 0.07750 0.27927
# Poissons Ratio (z) = 0.21076 0.12927
#
# Static dielectric constant tensor:
#      x y z
#    x 1.899510 0.000000 0.000000 
#    y 0.000000 1.869990 0.000000 
#    z 0.000000 0.000000 1.841150 
# 
# From -- ./inp_files/14115.got.cif
#   From: 2010.05.17/outbox.cif.g08.bks.cpg/sg56_8_cif.got.tgz:14115.got - 2010.06.03 13:42:01.
