data_PCOD9432769
_publ_section_title
;
Structure prediction by ZEFSAII (Michael W. Deem and Ramdas Pophale) SiO2 
 PCOD9432769
Probable space group: P C C N
;
_chemical_formula_sum "Si O2"
_cell_formula_units_Z 44
_cell_length_a 15.588426
_cell_length_b 11.138454
_cell_length_c 10.893548
_cell_angle_alpha 90.000000
_cell_angle_beta 90.000000
_cell_angle_gamma 90.000000
_cell_volume 1891.457262
_symmetry_space_group_name_H-M "P C C N"
_symmetry_group_IT_number 56
_symmetry_cell_setting 'orthorhombic'
loop_
_space_group_symop_operation_xyz
x,y,z
1/2-x,1/2-y,z
1/2+x,-y,1/2-z
-x,1/2+y,1/2-z
-x,-y,-z
1/2+x,1/2+y,-z
1/2-x,y,1/2+z
x,1/2-y,1/2+z
loop_
_atom_site_type_symbol
_atom_site_label
_atom_site_fract_x
_atom_site_fract_y
_atom_site_fract_z
Si Si1 0.387843 0.567054 0.962490
Si Si2 0.152546 0.203080 0.874140
Si Si3 0.012318 0.281446 0.695028
Si Si4 0.046279 0.401651 0.920265
Si Si5 0.618047 0.080873 0.250076
Si Si6 0.250000 0.750000 0.358505
O O1 0.362343 0.437949 0.902996
O O2 0.474200 0.628587 0.907292
O O3 0.315526 0.668351 0.935840
O O4 0.394516 0.552128 0.108528
O O5 0.250000 0.250000 0.878987
O O6 0.095001 0.284102 0.970792
O O7 0.106409 0.239563 0.744386
O O8 0.959347 0.159432 0.695270
O O9 0.980066 0.349963 0.820585
O O10 0.118514 0.467058 0.838263
O O11 0.000000 0.500000 0.000000
O O12 0.701003 0.158272 0.228280
#
# Coordination Sequence:
#
# PCOD9432769 Si02
#       6
#     8   8   8   8   8   4
#     4  11  23  46  73 106 146 193 254 302 379 460
#     4  10  23  46  70 108 145 196 243 308 383 435
#     4   9  24  40  72 101 138 187 248 297 372 440
#     4  10  24  42  69 100 143 186 242 300 366 439
#     4  11  23  44  73 104 139 193 246 298 375 443
#     4  10  24  42  72 108 144 186 240 316 370 444
#
# _framework density 23.262488999999999
#
# number of rings (size 3 to 8) (size 9 to 14) (size 15 to 20)
#    1.091    0.727    0.000    2.727    5.091    4.364 
#    6.545    0.909    0.000    0.000    0.000    0.000 
#    0.000    0.000    0.000    0.000    0.000    0.000 
#
# Total GULP energy -245138.948058 kJ/mol
# GULP energy per Si atom -5571.339729 kJ/mol
# Density = 2.320954 g / cm^3
# Si number density = 23.262489 Si / 1000 Ang^3
#
#
#
# Elastic Constant Matrix: (Units=GPa)
#
#
# Indices 1 2 3 4 5 6 
#
# 1 117.9548 72.2023 31.3493 0.0000 0.0000 0.0000
# 2 72.2023 183.5047 55.4659 0.0000 0.0000 0.0000
# 3 31.3493 55.4659 93.0052 0.0000 0.0000 0.0000
# 4 0.0000 0.0000 0.0000 88.5410 0.0000 0.0000
# 5 0.0000 0.0000 0.0000 0.0000 12.7130 0.0000
# 6 0.0000 0.0000 0.0000 0.0000 0.0000 7.1704
#
#
#
# Elastic Compliance Matrix: (Units=1/GPa)
#
#
# Indices 1 2 3 4 5 6 
#
# 1 0.011318 -0.004026 -0.001414 0.000000 0.000000 0.000000
# 2 -0.004026 0.008080 -0.003462 0.000000 0.000000 0.000000
# 3 -0.001414 -0.003462 0.013293 0.000000 0.000000 0.000000
# 4 0.000000 0.000000 0.000000 0.011294 0.000000 0.000000
# 5 0.000000 0.000000 0.000000 0.000000 0.078659 0.000000
# 6 0.000000 0.000000 0.000000 0.000000 0.000000 0.139462
#
#
# Mechanical properties :
#
#
# Convention : Reuss Voigt Hill
#
# Bulk Modulus (GPa) = 67.16849 79.16663 73.16756
# Shear Modulus (GPa) = 17.55175 37.38137 27.46656
#
# Velocity S-wave (km/s) = 2.74981 4.01301 3.43989
# Velocity P-wave (km/s) = 6.24650 7.45507 6.87739
#
# Compressibility (1/GPa) = 0.01488793
#
# Stress axis : x y z
#
# Youngs Moduli (GPa) = 88.35577 123.76655 75.22690
#
# Poissons Ratio (x) = 0.49825 0.10638
# Poissons Ratio (y) = 0.35570 0.26040
# Poissons Ratio (z) = 0.12494 0.42843
#
# Static dielectric constant tensor:
#      x y z
#    x 1.888190 0.000000 0.000000 
#    y 0.000000 1.849760 0.000000 
#    z 0.000000 0.000000 1.951410 
# 
# From -- ./inp_files/8262.got.cif
#   From: 2010.05.17/outbox.cif.g08.bks.cpg/sg56_5_cif.got.tgz:8262.got - 2010.06.03 13:42:01.
