data_PCOD9432950
_publ_section_title
;
Structure prediction by ZEFSAII (Michael W. Deem and Ramdas Pophale) SiO2 
 PCOD9432950
Probable space group: P C C N
;
_chemical_formula_sum "Si O2"
_cell_formula_units_Z 20
_cell_length_a 4.334734
_cell_length_b 8.319024
_cell_length_c 19.483675
_cell_angle_alpha 90.000000
_cell_angle_beta 90.000000
_cell_angle_gamma 90.000000
_cell_volume 702.596054
_symmetry_space_group_name_H-M "P C C N"
_symmetry_group_IT_number 56
_symmetry_cell_setting 'orthorhombic'
loop_
_space_group_symop_operation_xyz
x,y,z
1/2-x,1/2-y,z
1/2+x,-y,1/2-z
-x,1/2+y,1/2-z
-x,-y,-z
1/2+x,1/2+y,-z
1/2-x,y,1/2+z
x,1/2-y,1/2+z
loop_
_atom_site_type_symbol
_atom_site_label
_atom_site_fract_x
_atom_site_fract_y
_atom_site_fract_z
Si Si1 0.250000 0.250000 0.597936
Si Si2 0.750000 0.750000 0.608242
Si Si3 0.658879 0.012644 0.800256
Si Si4 0.750000 0.250000 0.994393
O O1 0.163175 0.392049 0.649282
O O2 0.512793 0.325983 0.549045
O O3 0.544491 0.633637 0.654734
O O4 0.497407 0.831881 0.556902
O O5 0.416047 0.919942 0.751361
#
# Coordination Sequence:
#
# PCOD9432950 Si02
#       4
#     4   4   8   4
#     4  11  25  44  70 104 141 191 240 300 364 431
#     4  11  25  44  70 104 141 191 240 300 364 431
#     4  12  26  45  72 105 148 190 244 302 368 438
#     4  10  24  44  70 100 144 186 244 298 360 434
#
# _framework density 28.465858000000001
#
# number of rings (size 3 to 8) (size 9 to 14) (size 15 to 20)
#    0.000    0.800    0.000    6.000    0.000   12.800 
#    0.000    0.000    0.000    0.000    0.000    0.000 
#    0.000    0.000    0.000    0.000    0.000    0.000 
#
# Total GULP energy -111758.712261 kJ/mol
# GULP energy per Si atom -5587.935613 kJ/mol
# Density = 2.840107 g / cm^3
# Si number density = 28.465858 Si / 1000 Ang^3
#
#
#
# Elastic Constant Matrix: (Units=GPa)
#
#
# Indices 1 2 3 4 5 6 
#
# 1 168.7885 20.2113 87.7666 0.0000 0.0000 0.0000
# 2 20.2113 65.3743 65.5508 0.0000 0.0000 0.0000
# 3 87.7666 65.5508 187.6681 0.0000 0.0000 0.0000
# 4 0.0000 0.0000 0.0000 30.7969 0.0000 0.0000
# 5 0.0000 0.0000 0.0000 0.0000 -356.2950 0.0000
# 6 0.0000 0.0000 0.0000 0.0000 0.0000 48.1982
#
#
#
# Elastic Compliance Matrix: (Units=1/GPa)
#
#
# Indices 1 2 3 4 5 6 
#
# 1 0.007989 0.001964 -0.004422 0.000000 0.000000 0.000000
# 2 0.001964 0.024025 -0.009310 0.000000 0.000000 0.000000
# 3 -0.004422 -0.009310 0.010649 0.000000 0.000000 0.000000
# 4 0.000000 0.000000 0.000000 0.032471 0.000000 0.000000
# 5 0.000000 0.000000 0.000000 0.000000 -0.002807 0.000000
# 6 0.000000 0.000000 0.000000 0.000000 0.000000 0.020748
#
#
# Mechanical properties :
#
#
# Convention : Reuss Voigt Hill
#
# Bulk Modulus (GPa) = 52.28535 85.43204 68.85869
# Shear Modulus (GPa) = 40.65520 -38.90647 0.87436
#
# Velocity S-wave (km/s) = 3.78327 -3.70101 0.55482
# Velocity P-wave (km/s) = 6.12305 3.43715 4.96517
#
# Compressibility (1/GPa) = 0.01912582
#
# Stress axis : x y z
#
# Youngs Moduli (GPa) = 125.17462 41.62399 93.90816
#
# Poissons Ratio (x) = -0.08176 0.41529
# Poissons Ratio (y) = -0.24589 0.87431
# Poissons Ratio (z) = 0.55356 0.38753
#
# Static dielectric constant tensor:
#      x y z
#    x 2.198180 0.000000 0.000000 
#    y 0.000000 2.265540 0.000000 
#    z 0.000000 0.000000 2.190750 
# 
# From -- ./inp_files/13559.got.cif
#   From: 2010.05.17/outbox.cif.g08.bks.cpg/sg56_7_cif.got.tgz:13559.got - 2010.06.03 13:42:01.
