data_PCOD9432395
_publ_section_title
;
Structure prediction by ZEFSAII (Michael W. Deem and Ramdas Pophale) SiO2 
 PCOD9432395
Probable space group: P C C N
;
_chemical_formula_sum "Si O2"
_cell_formula_units_Z 48
_cell_length_a 20.525263
_cell_length_b 8.994212
_cell_length_c 9.938049
_cell_angle_alpha 90.000000
_cell_angle_beta 90.000000
_cell_angle_gamma 90.000000
_cell_volume 1834.648982
_symmetry_space_group_name_H-M "P C C N"
_symmetry_group_IT_number 56
_symmetry_cell_setting 'orthorhombic'
loop_
_space_group_symop_operation_xyz
x,y,z
1/2-x,1/2-y,z
1/2+x,-y,1/2-z
-x,1/2+y,1/2-z
-x,-y,-z
1/2+x,1/2+y,-z
1/2-x,y,1/2+z
x,1/2-y,1/2+z
loop_
_atom_site_type_symbol
_atom_site_label
_atom_site_fract_x
_atom_site_fract_y
_atom_site_fract_z
Si Si1 0.404046 0.342537 0.142972
Si Si2 0.798428 0.866405 0.261086
Si Si3 0.347594 0.684348 0.519604
Si Si4 0.585227 0.036341 0.608593
Si Si5 0.312315 0.918159 0.744760
Si Si6 0.954721 0.530792 0.874414
O O1 0.337206 0.240560 0.135323
O O2 0.376338 0.473580 0.239368
O O3 0.451392 0.203500 0.164765
O O4 0.430575 0.428020 0.013718
O O5 0.750000 0.750000 0.185706
O O6 0.850860 0.949800 0.168084
O O7 0.749127 0.991556 0.311981
O O8 0.323350 0.780271 0.646001
O O9 0.301701 0.628740 0.398849
O O10 0.387745 0.545881 0.576049
O O11 0.395018 0.802550 0.443908
O O12 0.533757 0.044236 0.729818
O O13 0.000000 0.500000 0.000000
#
# Coordination Sequence:
#
# PCOD9432395 Si02
#       6
#     8   8   8   8   8   8
#     4   9  22  43  69  94 130 177 232 280 330 415
#     4   9  20  39  65 100 132 180 225 262 332 415
#     4  11  23  45  64  97 142 169 228 284 338 406
#     4  10  22  44  63  98 136 172 227 281 336 413
#     4  10  22  45  66 100 140 182 219 280 340 415
#     4  11  25  44  68  95 131 177 233 293 351 405
#
# _framework density 26.163042999999998
#
# number of rings (size 3 to 8) (size 9 to 14) (size 15 to 20)
#    0.000    2.000    1.667    0.000    7.000    5.333 
#   15.000    1.667    0.000    0.000    0.000    0.000 
#    0.000    0.000    0.000    0.000    0.000    0.000 
#
# Total GULP energy -268147.270757 kJ/mol
# GULP energy per Si atom -5586.401474 kJ/mol
# Density = 2.610349 g / cm^3
# Si number density = 26.163043 Si / 1000 Ang^3
#
#
#
# Elastic Constant Matrix: (Units=GPa)
#
#
# Indices 1 2 3 4 5 6 
#
# 1 54.6175 29.9924 19.5613 0.0000 0.0000 0.0000
# 2 29.9924 170.4492 35.7769 0.0000 0.0000 0.0000
# 3 19.5613 35.7769 137.4287 0.0000 0.0000 0.0000
# 4 0.0000 0.0000 0.0000 31.3886 0.0000 0.0000
# 5 0.0000 0.0000 0.0000 0.0000 29.7068 0.0000
# 6 0.0000 0.0000 0.0000 0.0000 0.0000 42.1025
#
#
#
# Elastic Compliance Matrix: (Units=1/GPa)
#
#
# Indices 1 2 3 4 5 6 
#
# 1 0.020840 -0.003220 -0.002128 0.000000 0.000000 0.000000
# 2 -0.003220 0.006704 -0.001287 0.000000 0.000000 0.000000
# 3 -0.002128 -0.001287 0.007914 0.000000 0.000000 0.000000
# 4 0.000000 0.000000 0.000000 0.031859 0.000000 0.000000
# 5 0.000000 0.000000 0.000000 0.000000 0.033662 0.000000
# 6 0.000000 0.000000 0.000000 0.000000 0.000000 0.023752
#
#
# Mechanical properties :
#
#
# Convention : Reuss Voigt Hill
#
# Bulk Modulus (GPa) = 45.07027 59.23963 52.15495
# Shear Modulus (GPa) = 34.38881 39.11723 36.75302
#
# Velocity S-wave (km/s) = 3.62940 3.87089 3.75209
# Velocity P-wave (km/s) = 5.90148 6.53223 6.22485
#
# Compressibility (1/GPa) = 0.02218758
#
# Stress axis : x y z
#
# Youngs Moduli (GPa) = 47.98546 149.17377 126.35247
#
# Poissons Ratio (x) = 0.48039 0.26887
# Poissons Ratio (y) = 0.15453 0.16259
# Poissons Ratio (z) = 0.10211 0.19195
#
# Static dielectric constant tensor:
#      x y z
#    x 2.289780 0.000000 0.000000 
#    y 0.000000 2.032080 0.000000 
#    z 0.000000 0.000000 2.030040 
# 
# From -- ./inp_files/8862.got.cif
#   From: 2010.05.17/outbox.cif.g08.bks.cpg/sg56_5_cif.got.tgz:8862.got - 2010.06.03 13:42:01.
