data_PCOD9432620
_publ_section_title
;
Structure prediction by ZEFSAII (Michael W. Deem and Ramdas Pophale) SiO2 
 PCOD9432620
Probable space group: P C C N
;
_chemical_formula_sum "Si O2"
_cell_formula_units_Z 48
_cell_length_a 12.486825
_cell_length_b 20.659223
_cell_length_c 9.030974
_cell_angle_alpha 90.000000
_cell_angle_beta 90.000000
_cell_angle_gamma 90.000000
_cell_volume 2329.703224
_symmetry_space_group_name_H-M "P C C N"
_symmetry_group_IT_number 56
_symmetry_cell_setting 'orthorhombic'
loop_
_space_group_symop_operation_xyz
x,y,z
1/2-x,1/2-y,z
1/2+x,-y,1/2-z
-x,1/2+y,1/2-z
-x,-y,-z
1/2+x,1/2+y,-z
1/2-x,y,1/2+z
x,1/2-y,1/2+z
loop_
_atom_site_type_symbol
_atom_site_label
_atom_site_fract_x
_atom_site_fract_y
_atom_site_fract_z
Si Si1 0.610467 0.592942 0.655118
Si Si2 0.853679 0.285267 0.274948
Si Si3 0.063021 0.674739 0.012311
Si Si4 0.062412 0.522300 0.353796
Si Si5 0.272369 0.591703 0.045891
Si Si6 0.286873 0.047593 0.151041
O O1 0.545410 0.653104 0.590316
O O2 0.518759 0.549972 0.732673
O O3 0.665421 0.562690 0.509493
O O4 0.700719 0.597241 0.782205
O O5 0.750000 0.250000 0.199899
O O6 0.889851 0.233321 0.393727
O O7 0.821266 0.351485 0.354998
O O8 0.943453 0.300874 0.154937
O O9 0.152775 0.617146 0.007947
O O10 0.149832 0.575929 0.407060
O O11 0.122950 0.463200 0.275148
O O12 0.000000 0.500000 0.500000
O O13 0.265870 0.523502 0.131206
#
# Coordination Sequence:
#
# PCOD9432620 Si02
#       6
#     8   8   8   8   8   8
#     4  12  26  43  67  98 140 189 230 284 353 417
#     4  10  23  42  66 101 135 176 223 291 343 411
#     4  11  25  41  68  97 135 178 229 275 354 410
#     4  12  24  38  64 101 138 181 220 276 353 423
#     4  11  22  38  67  99 144 164 216 285 348 425
#     4  12  24  43  63 101 141 177 233 282 349 421
#
# _framework density 20.603483000000001
#
# number of rings (size 3 to 8) (size 9 to 14) (size 15 to 20)
#    0.000    0.667    5.000    3.000    7.000    0.000 
#    0.000    0.000    0.000    3.000    0.000    0.000 
#    0.000    0.000    0.000    0.000    0.000    0.000 
#
# Total GULP energy -268145.754994 kJ/mol
# GULP energy per Si atom -5586.369896 kJ/mol
# Density = 2.055659 g / cm^3
# Si number density = 20.603483 Si / 1000 Ang^3
#
#
#
# Elastic Constant Matrix: (Units=GPa)
#
#
# Indices 1 2 3 4 5 6 
#
# 1 70.0386 15.5062 55.6475 0.0000 0.0000 0.0000
# 2 15.5062 60.0125 33.7271 0.0000 0.0000 0.0000
# 3 55.6475 33.7271 119.9822 0.0000 0.0000 0.0000
# 4 0.0000 0.0000 0.0000 22.1453 0.0000 0.0000
# 5 0.0000 0.0000 0.0000 0.0000 55.3622 0.0000
# 6 0.0000 0.0000 0.0000 0.0000 0.0000 2.8947
#
#
#
# Elastic Compliance Matrix: (Units=1/GPa)
#
#
# Indices 1 2 3 4 5 6 
#
# 1 0.022610 0.000061 -0.010503 0.000000 0.000000 0.000000
# 2 0.000061 0.019790 -0.005591 0.000000 0.000000 0.000000
# 3 -0.010503 -0.005591 0.014778 0.000000 0.000000 0.000000
# 4 0.000000 0.000000 0.000000 0.045156 0.000000 0.000000
# 5 0.000000 0.000000 0.000000 0.000000 0.018063 0.000000
# 6 0.000000 0.000000 0.000000 0.000000 0.000000 0.345456
#
#
# Mechanical properties :
#
#
# Convention : Reuss Voigt Hill
#
# Bulk Modulus (GPa) = 39.82513 51.08835 45.45674
# Shear Modulus (GPa) = 9.87579 25.75729 17.81654
#
# Velocity S-wave (km/s) = 2.19173 3.53957 2.94383
# Velocity P-wave (km/s) = 5.07702 6.44628 5.80219
#
# Compressibility (1/GPa) = 0.02510977
#
# Stress axis : x y z
#
# Youngs Moduli (GPa) = 44.22902 50.53131 67.66934
#
# Poissons Ratio (x) = -0.00308 0.71076
# Poissons Ratio (y) = -0.00270 0.37835
# Poissons Ratio (z) = 0.46456 0.28253
#
# Static dielectric constant tensor:
#      x y z
#    x 1.809200 0.000000 0.000000 
#    y 0.000000 1.714710 0.000000 
#    z 0.000000 0.000000 1.761570 
# 
# From -- ./inp_files/2778.got.cif
#   From: 2010.05.17/outbox.cif.g08.bks.cpg/sg56_2_cif.got.tgz:2778.got - 2010.06.03 13:42:01.
