data_PCOD9432101
_publ_section_title
;
Structure prediction by ZEFSAII (Michael W. Deem and Ramdas Pophale) SiO2 
 PCOD9432101
Probable space group: P C C N
;
_chemical_formula_sum "Si O2"
_cell_formula_units_Z 32
_cell_length_a 8.202436
_cell_length_b 13.863959
_cell_length_c 11.919849
_cell_angle_alpha 90.000000
_cell_angle_beta 90.000000
_cell_angle_gamma 90.000000
_cell_volume 1355.504206
_symmetry_space_group_name_H-M "P C C N"
_symmetry_group_IT_number 56
_symmetry_cell_setting 'orthorhombic'
loop_
_space_group_symop_operation_xyz
x,y,z
1/2-x,1/2-y,z
1/2+x,-y,1/2-z
-x,1/2+y,1/2-z
-x,-y,-z
1/2+x,1/2+y,-z
1/2-x,y,1/2+z
x,1/2-y,1/2+z
loop_
_atom_site_type_symbol
_atom_site_label
_atom_site_fract_x
_atom_site_fract_y
_atom_site_fract_z
Si Si1 0.702510 0.438039 0.105566
Si Si2 0.001919 0.785513 0.018925
Si Si3 0.009555 0.589064 0.726019
Si Si4 0.327718 0.394610 0.547616
O O1 0.643830 0.339712 0.048453
O O2 0.545767 0.500441 0.146904
O O3 0.820388 0.422757 0.210904
O O4 0.799332 0.506161 0.018045
O O5 0.970870 0.672606 0.004111
O O6 0.838668 0.836300 0.971336
O O7 0.013777 0.816971 0.148026
O O8 0.874121 0.595649 0.823012
#
# Coordination Sequence:
#
# PCOD9432101 Si02
#       4
#     8   8   8   8
#     4  11  22  41  64  95 130 173 223 273 338 407
#     4  10  23  41  63  96 129 167 227 277 328 411
#     4  11  22  39  64  89 128 177 214 279 342 389
#     4  10  22  40  64  93 127 170 224 276 333 404
#
# _framework density 23.607451000000001
#
# number of rings (size 3 to 8) (size 9 to 14) (size 15 to 20)
#    0.000    1.500    0.000    6.750    0.000   11.000 
#    0.000    2.500    0.000    0.000    0.000    0.000 
#    0.000    0.000    0.000    0.000    0.000    0.000 
#
# Total GULP energy -179188.370132 kJ/mol
# GULP energy per Si atom -5599.636567 kJ/mol
# Density = 2.355372 g / cm^3
# Si number density = 23.607451 Si / 1000 Ang^3
#
#
#
# Elastic Constant Matrix: (Units=GPa)
#
#
# Indices 1 2 3 4 5 6 
#
# 1 111.0833 64.6448 38.6102 0.0000 0.0000 0.0000
# 2 64.6448 143.5964 55.1501 0.0000 0.0000 0.0000
# 3 38.6102 55.1501 136.5372 0.0000 0.0000 0.0000
# 4 0.0000 0.0000 0.0000 17.5221 0.0000 0.0000
# 5 0.0000 0.0000 0.0000 0.0000 61.9649 0.0000
# 6 0.0000 0.0000 0.0000 0.0000 0.0000 40.9342
#
#
#
# Elastic Compliance Matrix: (Units=1/GPa)
#
#
# Indices 1 2 3 4 5 6 
#
# 1 0.012448 -0.005033 -0.001487 0.000000 0.000000 0.000000
# 2 -0.005033 0.010277 -0.002728 0.000000 0.000000 0.000000
# 3 -0.001487 -0.002728 0.008847 0.000000 0.000000 0.000000
# 4 0.000000 0.000000 0.000000 0.057071 0.000000 0.000000
# 5 0.000000 0.000000 0.000000 0.000000 0.016138 0.000000
# 6 0.000000 0.000000 0.000000 0.000000 0.000000 0.024429
#
#
# Mechanical properties :
#
#
# Convention : Reuss Voigt Hill
#
# Bulk Modulus (GPa) = 76.47720 78.66969 77.57345
# Shear Modulus (GPa) = 32.88071 39.60502 36.24287
#
# Velocity S-wave (km/s) = 3.73609 4.10036 3.92245
# Velocity P-wave (km/s) = 7.14680 7.47085 7.31063
#
# Compressibility (1/GPa) = 0.01307579
#
# Stress axis : x y z
#
# Youngs Moduli (GPa) = 80.33457 97.30143 113.03896
#
# Poissons Ratio (x) = 0.48969 0.16812
# Poissons Ratio (y) = 0.40430 0.30838
# Poissons Ratio (z) = 0.11948 0.26545
#
# Static dielectric constant tensor:
#      x y z
#    x 1.943410 0.000000 0.000000 
#    y 0.000000 1.916150 0.000000 
#    z 0.000000 0.000000 1.844360 
# 
# From -- ./inp_files/5944.got.cif
#   From: 2010.05.17/outbox.cif.g08.bks.cpg/sg56_3_cif.got.tgz:5944.got - 2010.06.03 13:42:01.
