data_PCOD9432500
_publ_section_title
;
Structure prediction by ZEFSAII (Michael W. Deem and Ramdas Pophale) SiO2 
 PCOD9432500
Probable space group: P C C N
;
_chemical_formula_sum "Si O2"
_cell_formula_units_Z 32
_cell_length_a 6.852759
_cell_length_b 11.916168
_cell_length_c 13.013737
_cell_angle_alpha 90.000000
_cell_angle_beta 90.000000
_cell_angle_gamma 90.000000
_cell_volume 1062.683902
_symmetry_space_group_name_H-M "P C C N"
_symmetry_group_IT_number 56
_symmetry_cell_setting 'orthorhombic'
loop_
_space_group_symop_operation_xyz
x,y,z
1/2-x,1/2-y,z
1/2+x,-y,1/2-z
-x,1/2+y,1/2-z
-x,-y,-z
1/2+x,1/2+y,-z
1/2-x,y,1/2+z
x,1/2-y,1/2+z
loop_
_atom_site_type_symbol
_atom_site_label
_atom_site_fract_x
_atom_site_fract_y
_atom_site_fract_z
Si Si1 0.752166 0.624777 0.206143
Si Si2 0.794439 0.121283 0.245740
Si Si3 0.213464 0.556765 0.520566
Si Si4 0.924721 0.659001 0.921221
O O1 0.750000 0.750000 0.152851
O O2 0.733729 0.492241 0.176803
O O3 0.970992 0.624337 0.248238
O O4 0.594478 0.632883 0.299282
O O5 0.750000 0.250000 0.217934
O O6 0.645310 0.152009 0.033439
O O7 0.708267 0.099034 0.359938
O O8 0.335992 0.444036 0.518863
O O9 0.000000 0.500000 0.500000
O O10 0.750000 0.750000 0.932837
#
# Coordination Sequence:
#
# PCOD9432500 Si02
#       4
#     8   8   8   8
#     4  10  22  47  69 104 150 200 248 321 388 472
#     4  11  24  44  72 110 146 196 258 320 385 468
#     4  10  23  43  69 105 144 197 253 326 392 469
#     4   9  21  43  67  98 141 193 251 312 387 474
#
# _framework density 30.112435000000001
#
# number of rings (size 3 to 8) (size 9 to 14) (size 15 to 20)
#    0.000    2.000    0.000    1.500    3.500    1.000 
#   54.000    0.000    0.000    0.000    0.000    0.000 
#    0.000    0.000    0.000    0.000    0.000    0.000 
#
# Total GULP energy -178233.782063 kJ/mol
# GULP energy per Si atom -5569.805689 kJ/mol
# Density = 3.004390 g / cm^3
# Si number density = 30.112435 Si / 1000 Ang^3
#
#
#
# Elastic Constant Matrix: (Units=GPa)
#
#
# Indices 1 2 3 4 5 6 
#
# 1 186.9170 123.9083 94.4282 0.0000 0.0000 0.0000
# 2 123.9083 294.5652 49.3666 0.0000 0.0000 0.0000
# 3 94.4282 49.3666 130.6146 0.0000 0.0000 0.0000
# 4 0.0000 0.0000 0.0000 51.9039 0.0000 0.0000
# 5 0.0000 0.0000 0.0000 0.0000 31.1629 0.0000
# 6 0.0000 0.0000 0.0000 0.0000 0.0000 94.7500
#
#
#
# Elastic Compliance Matrix: (Units=1/GPa)
#
#
# Indices 1 2 3 4 5 6 
#
# 1 0.011057 -0.003535 -0.006657 0.000000 0.000000 0.000000
# 2 -0.003535 0.004755 0.000759 0.000000 0.000000 0.000000
# 3 -0.006657 0.000759 0.012182 0.000000 0.000000 0.000000
# 4 0.000000 0.000000 0.000000 0.019266 0.000000 0.000000
# 5 0.000000 0.000000 0.000000 0.000000 0.032089 0.000000
# 6 0.000000 0.000000 0.000000 0.000000 0.000000 0.010554
#
#
# Mechanical properties :
#
#
# Convention : Reuss Voigt Hill
#
# Bulk Modulus (GPa) = 109.57615 127.50033 118.53824
# Shear Modulus (GPa) = 44.71737 58.52294 51.62015
#
# Velocity S-wave (km/s) = 3.85777 4.41328 4.14484
# Velocity P-wave (km/s) = 7.50408 8.27059 7.89664
#
# Compressibility (1/GPa) = 0.00912607
#
# Stress axis : x y z
#
# Youngs Moduli (GPa) = 90.44272 210.31440 82.08654
#
# Poissons Ratio (x) = 0.74352 0.54648
# Poissons Ratio (y) = 0.31974 -0.06228
# Poissons Ratio (z) = 0.60211 -0.15957
#
# Static dielectric constant tensor:
#      x y z
#    x 2.432500 0.000000 0.000000 
#    y 0.000000 2.285750 0.000000 
#    z 0.000000 0.000000 2.483870 
# 
# From -- ./inp_files/6766.got.cif
#   From: 2010.05.17/outbox.cif.g08.bks.cpg/sg56_4_cif.got.tgz:6766.got - 2010.06.03 13:42:01.
