data_PCOD9432385
_publ_section_title
;
Structure prediction by ZEFSAII (Michael W. Deem and Ramdas Pophale) SiO2 
 PCOD9432385
Probable space group: P C C N
;
_chemical_formula_sum "Si O2"
_cell_formula_units_Z 60
_cell_length_a 11.780777
_cell_length_b 20.881363
_cell_length_c 9.251719
_cell_angle_alpha 90.000000
_cell_angle_beta 90.000000
_cell_angle_gamma 90.000000
_cell_volume 2275.910671
_symmetry_space_group_name_H-M "P C C N"
_symmetry_group_IT_number 56
_symmetry_cell_setting 'orthorhombic'
loop_
_space_group_symop_operation_xyz
x,y,z
1/2-x,1/2-y,z
1/2+x,-y,1/2-z
-x,1/2+y,1/2-z
-x,-y,-z
1/2+x,1/2+y,-z
1/2-x,y,1/2+z
x,1/2-y,1/2+z
loop_
_atom_site_type_symbol
_atom_site_label
_atom_site_fract_x
_atom_site_fract_y
_atom_site_fract_z
Si Si1 0.480305 0.938677 0.105424
Si Si2 0.615255 0.257091 0.761138
Si Si3 0.957083 0.160285 0.035733
Si Si4 0.166612 0.483322 0.728549
Si Si5 0.045344 0.329856 0.086910
Si Si6 0.751909 0.438104 0.515656
Si Si7 0.750000 0.750000 0.519737
Si Si8 0.661971 0.620841 0.140809
O O1 0.536171 0.962956 0.251824
O O2 0.350131 0.920697 0.092528
O O3 0.544664 0.876816 0.047183
O O4 0.500000 0.000000 0.000000
O O5 0.750000 0.250000 0.774705
O O6 0.561848 0.285684 0.908271
O O7 0.556085 0.193923 0.692477
O O8 0.579140 0.307009 0.635352
O O9 0.850066 0.113352 0.023191
O O10 0.073375 0.123342 0.994459
O O11 0.197614 0.499490 0.565650
O O12 0.246716 0.430667 0.804793
O O13 0.194835 0.544377 0.831552
O O14 0.083200 0.373584 0.219710
O O15 0.138286 0.273236 0.068620
O O16 0.777426 0.688709 0.615600
#
# Coordination Sequence:
#
# PCOD9432385 Si02
#       8
#     8   8   8   8   8   8   4   8
#     4  10  22  43  72  96 133 186 231 278 356 419
#     4  11  24  44  69 100 138 184 227 286 350 421
#     4  11  26  46  70 102 144 180 236 291 354 426
#     4  11  25  47  72 100 138 183 237 292 352 417
#     4  11  23  43  69  96 142 182 234 286 356 437
#     4  11  27  46  71 105 137 187 236 291 353 430
#     4  12  22  44  64 106 134 184 230 292 364 420
#     4  11  24  43  69 100 140 181 233 296 346 427
#
# _framework density 26.363076
#
# number of rings (size 3 to 8) (size 9 to 14) (size 15 to 20)
#    0.000    1.067    2.667    3.200   11.200    0.533 
#    0.000    0.000    0.000    0.000    0.000    0.000 
#    0.000    0.000    0.000    0.000    0.000    0.000 
#
# Total GULP energy -335634.585738 kJ/mol
# GULP energy per Si atom -5593.909762 kJ/mol
# Density = 2.630307 g / cm^3
# Si number density = 26.363076 Si / 1000 Ang^3
#
#
#
# Elastic Constant Matrix: (Units=GPa)
#
#
# Indices 1 2 3 4 5 6 
#
# 1 92.0714 36.7973 -11.8492 0.0000 0.0000 0.0000
# 2 36.7973 90.6380 26.3359 0.0000 0.0000 0.0000
# 3 -11.8492 26.3359 79.8552 0.0000 0.0000 0.0000
# 4 0.0000 0.0000 0.0000 30.3832 0.0000 0.0000
# 5 0.0000 0.0000 0.0000 0.0000 -0.9957 0.0000
# 6 0.0000 0.0000 0.0000 0.0000 0.0000 39.7570
#
#
#
# Elastic Compliance Matrix: (Units=1/GPa)
#
#
# Indices 1 2 3 4 5 6 
#
# 1 0.014266 -0.007086 0.004454 0.000000 0.000000 0.000000
# 2 -0.007086 0.015722 -0.006236 0.000000 0.000000 0.000000
# 3 0.004454 -0.006236 0.015240 0.000000 0.000000 0.000000
# 4 0.000000 0.000000 0.000000 0.032913 0.000000 0.000000
# 5 0.000000 0.000000 0.000000 0.000000 -1.004288 0.000000
# 6 0.000000 0.000000 0.000000 0.000000 0.000000 0.025153
#
#
# Mechanical properties :
#
#
# Convention : Reuss Voigt Hill
#
# Bulk Modulus (GPa) = 36.37529 40.57029 38.47279
# Shear Modulus (GPa) = -5.72022 27.91427 11.09703
#
# Velocity S-wave (km/s) = -1.47462 3.25751 2.05389
# Velocity P-wave (km/s) = 3.30582 5.43792 4.49997
#
# Compressibility (1/GPa) = 0.02749119
#
# Stress axis : x y z
#
# Youngs Moduli (GPa) = 70.09533 63.60639 65.61570
#
# Poissons Ratio (x) = 0.45071 -0.29224
# Poissons Ratio (y) = 0.49669 0.40920
# Poissons Ratio (z) = -0.31219 0.39667
#
# Static dielectric constant tensor:
#      x y z
#    x 2.064280 0.000000 0.000000 
#    y 0.000000 2.179640 0.000000 
#    z 0.000000 0.000000 2.057880 
# 
# From -- ./inp_files/7326.got.cif
#   From: 2010.05.17/outbox.cif.g08.bks.cpg/sg56_4_cif.got.tgz:7326.got - 2010.06.03 13:42:01.
