data_PCOD9432222
_publ_section_title
;
Structure prediction by ZEFSAII (Michael W. Deem and Ramdas Pophale) SiO2 
 PCOD9432222
Probable space group: P C C N
;
_chemical_formula_sum "Si O2"
_cell_formula_units_Z 20
_cell_length_a 9.012567
_cell_length_b 4.918982
_cell_length_c 23.209463
_cell_angle_alpha 90.000000
_cell_angle_beta 90.000000
_cell_angle_gamma 90.000000
_cell_volume 1028.937112
_symmetry_space_group_name_H-M "P C C N"
_symmetry_group_IT_number 56
_symmetry_cell_setting 'orthorhombic'
loop_
_space_group_symop_operation_xyz
x,y,z
1/2-x,1/2-y,z
1/2+x,-y,1/2-z
-x,1/2+y,1/2-z
-x,-y,-z
1/2+x,1/2+y,-z
1/2-x,y,1/2+z
x,1/2-y,1/2+z
loop_
_atom_site_type_symbol
_atom_site_label
_atom_site_fract_x
_atom_site_fract_y
_atom_site_fract_z
Si Si1 0.750000 0.250000 0.645067
Si Si2 0.601032 0.627435 0.239909
Si Si3 0.650979 0.016707 0.033569
O O1 0.832737 0.471480 0.684164
O O2 0.636166 0.389767 0.600227
O O3 0.750000 0.750000 0.269696
O O4 0.506748 0.386293 0.270273
O O5 0.750000 0.750000 0.033333
O O6 0.750000 0.250000 0.004953
O O7 0.500000 0.000000 0.000000
#
# Coordination Sequence:
#
# PCOD9432222 Si02
#       3
#     4   8   8
#     4  10  24  40  74  92 142 168 224 272 352 366
#     4  12  23  42  69  95 136 179 223 276 333 403
#     4  10  22  41  71  93 130 173 217 270 330 392
#
# _framework density 19.437535
#
# number of rings (size 3 to 8) (size 9 to 14) (size 15 to 20)
#    1.200    0.000    4.000    2.400    0.000    0.000 
#    0.000    2.000   13.200    0.000    0.000    0.000 
#    0.000    0.000    0.000    0.000    0.000    0.000 
#
# Total GULP energy -111345.385204 kJ/mol
# GULP energy per Si atom -5567.269260 kJ/mol
# Density = 1.939329 g / cm^3
# Si number density = 19.437535 Si / 1000 Ang^3
#
#
#
# Elastic Constant Matrix: (Units=GPa)
#
#
# Indices 1 2 3 4 5 6 
#
# 1 147.1521 74.5029 59.9997 0.0000 0.0000 0.0000
# 2 74.5029 164.9814 32.5368 0.0000 0.0000 0.0000
# 3 59.9997 32.5368 74.7268 0.0000 0.0000 0.0000
# 4 0.0000 0.0000 0.0000 54.8818 0.0000 0.0000
# 5 0.0000 0.0000 0.0000 0.0000 35.4858 0.0000
# 6 0.0000 0.0000 0.0000 0.0000 0.0000 58.3014
#
#
#
# Elastic Compliance Matrix: (Units=1/GPa)
#
#
# Indices 1 2 3 4 5 6 
#
# 1 0.011982 -0.003844 -0.007947 0.000000 0.000000 0.000000
# 2 -0.003844 0.007864 -0.000338 0.000000 0.000000 0.000000
# 3 -0.007947 -0.000338 0.019910 0.000000 0.000000 0.000000
# 4 0.000000 0.000000 0.000000 0.018221 0.000000 0.000000
# 5 0.000000 0.000000 0.000000 0.000000 0.028180 0.000000
# 6 0.000000 0.000000 0.000000 0.000000 0.000000 0.017152
#
#
# Mechanical properties :
#
#
# Convention : Reuss Voigt Hill
#
# Bulk Modulus (GPa) = 64.52138 80.10433 72.31286
# Shear Modulus (GPa) = 37.66978 44.38854 41.02916
#
# Velocity S-wave (km/s) = 4.40704 4.78394 4.59935
# Velocity P-wave (km/s) = 7.69170 8.47440 8.09252
#
# Compressibility (1/GPa) = 0.01549874
#
# Stress axis : x y z
#
# Youngs Moduli (GPa) = 83.45819 127.16789 50.22594
#
# Poissons Ratio (x) = 0.48878 0.39915
# Poissons Ratio (y) = 0.32078 0.01697
# Poissons Ratio (z) = 0.66325 0.04295
#
# Static dielectric constant tensor:
#      x y z
#    x 1.670400 0.000000 0.000000 
#    y 0.000000 1.724180 0.000000 
#    z 0.000000 0.000000 1.673720 
# 
# From -- ./inp_files/19702.got.cif
#   From: 2010.05.17/outbox.cif.g08.bks.cpg/sg56_10_cif.got.tgz:19702.got - 2010.06.03 13:42:01.
