data_PCOD9432179
_publ_section_title
;
Structure prediction by ZEFSAII (Michael W. Deem and Ramdas Pophale) SiO2 
 PCOD9432179
Probable space group: P C C N
;
_chemical_formula_sum "Si O2"
_cell_formula_units_Z 52
_cell_length_a 8.054292
_cell_length_b 25.596528
_cell_length_c 13.336068
_cell_angle_alpha 90.000000
_cell_angle_beta 90.000000
_cell_angle_gamma 90.000000
_cell_volume 2749.389260
_symmetry_space_group_name_H-M "P C C N"
_symmetry_group_IT_number 56
_symmetry_cell_setting 'orthorhombic'
loop_
_space_group_symop_operation_xyz
x,y,z
1/2-x,1/2-y,z
1/2+x,-y,1/2-z
-x,1/2+y,1/2-z
-x,-y,-z
1/2+x,1/2+y,-z
1/2-x,y,1/2+z
x,1/2-y,1/2+z
loop_
_atom_site_type_symbol
_atom_site_label
_atom_site_fract_x
_atom_site_fract_y
_atom_site_fract_z
Si Si1 0.989950 0.727565 0.544985
Si Si2 0.250000 0.750000 0.899406
Si Si3 0.845532 0.485814 0.868214
Si Si4 0.331593 0.326121 0.539591
Si Si5 0.326665 0.061410 0.946527
Si Si6 0.007748 0.436668 0.299895
Si Si7 0.492402 0.682778 0.263926
O O1 0.843678 0.694584 0.496345
O O2 0.956420 0.788532 0.521919
O O3 0.146783 0.714731 0.477087
O O4 0.992437 0.714487 0.661168
O O5 0.149300 0.711160 0.828037
O O6 0.344251 0.434900 0.883065
O O7 0.004756 0.447516 0.882230
O O8 0.911936 0.528614 0.788761
O O9 0.815202 0.513735 0.975146
O O10 0.351049 0.385741 0.509595
O O11 0.354975 0.316374 0.657745
O O12 0.330603 0.961062 0.665571
O O13 0.969172 0.377726 0.264141
#
# Coordination Sequence:
#
# PCOD9432179 Si02
#       7
#     8   4   8   8   8   8   8
#     4  10  22  41  64  92 130 170 213 264 328 395
#     4  10  24  42  60  98 132 166 218 266 320 400
#     4  11  25  42  68  97 130 171 225 271 329 390
#     4  10  22  41  67  94 124 171 219 266 335 391
#     4  11  23  46  67  93 135 171 216 282 322 393
#     4  12  23  44  66  98 129 176 219 269 335 393
#     4  11  23  43  65  92 135 165 218 272 327 394
#
# _framework density 18.913291000000001
#
# number of rings (size 3 to 8) (size 9 to 14) (size 15 to 20)
#    0.000    1.231    4.615    0.923    0.000    8.615 
#    5.538    0.000    0.000    0.000    0.000    0.000 
#    0.000    0.000    0.000    0.000    0.000    0.000 
#
# Total GULP energy -289902.787074 kJ/mol
# GULP energy per Si atom -5575.053598 kJ/mol
# Density = 1.887024 g / cm^3
# Si number density = 18.913291 Si / 1000 Ang^3
#
#
#
# Elastic Constant Matrix: (Units=GPa)
#
#
# Indices 1 2 3 4 5 6 
#
# 1 120.2915 32.1654 75.0068 0.0000 0.0000 0.0000
# 2 32.1654 69.0377 38.9520 0.0000 0.0000 0.0000
# 3 75.0068 38.9520 150.7036 0.0000 0.0000 0.0000
# 4 0.0000 0.0000 0.0000 33.3982 0.0000 0.0000
# 5 0.0000 0.0000 0.0000 0.0000 33.3384 0.0000
# 6 0.0000 0.0000 0.0000 0.0000 0.0000 47.2670
#
#
#
# Elastic Compliance Matrix: (Units=1/GPa)
#
#
# Indices 1 2 3 4 5 6 
#
# 1 0.012470 -0.002702 -0.005508 0.000000 0.000000 0.000000
# 2 -0.002702 0.017543 -0.003189 0.000000 0.000000 0.000000
# 3 -0.005508 -0.003189 0.010201 0.000000 0.000000 0.000000
# 4 0.000000 0.000000 0.000000 0.029942 0.000000 0.000000
# 5 0.000000 0.000000 0.000000 0.000000 0.029995 0.000000
# 6 0.000000 0.000000 0.000000 0.000000 0.000000 0.021156
#
#
# Mechanical properties :
#
#
# Convention : Reuss Voigt Hill
#
# Bulk Modulus (GPa) = 57.42073 70.25346 63.83710
# Shear Modulus (GPa) = 33.35260 35.72797 34.54029
#
# Velocity S-wave (km/s) = 4.20390 4.35102 4.27809
# Velocity P-wave (km/s) = 7.34776 7.90364 7.63076
#
# Compressibility (1/GPa) = 0.01741531
#
# Stress axis : x y z
#
# Youngs Moduli (GPa) = 80.19073 57.00152 98.02613
#
# Poissons Ratio (x) = 0.15403 0.53994
# Poissons Ratio (y) = 0.21670 0.31265
# Poissons Ratio (z) = 0.44170 0.18180
#
# Static dielectric constant tensor:
#      x y z
#    x 1.706470 0.000000 0.000000 
#    y 0.000000 1.740430 0.000000 
#    z 0.000000 0.000000 1.649170 
# 
# From -- ./inp_files/6496.got.cif
#   From: 2010.05.17/outbox.cif.g08.bks.cpg/sg56_4_cif.got.tgz:6496.got - 2010.06.03 13:42:01.
