data_PCOD9432439
_publ_section_title
;
Structure prediction by ZEFSAII (Michael W. Deem and Ramdas Pophale) SiO2 
 PCOD9432439
Probable space group: P C C N
;
_chemical_formula_sum "Si O2"
_cell_formula_units_Z 40
_cell_length_a 5.572459
_cell_length_b 11.689969
_cell_length_c 27.616205
_cell_angle_alpha 90.000000
_cell_angle_beta 90.000000
_cell_angle_gamma 90.000000
_cell_volume 1798.971318
_symmetry_space_group_name_H-M "P C C N"
_symmetry_group_IT_number 56
_symmetry_cell_setting 'orthorhombic'
loop_
_space_group_symop_operation_xyz
x,y,z
1/2-x,1/2-y,z
1/2+x,-y,1/2-z
-x,1/2+y,1/2-z
-x,-y,-z
1/2+x,1/2+y,-z
1/2-x,y,1/2+z
x,1/2-y,1/2+z
loop_
_atom_site_type_symbol
_atom_site_label
_atom_site_fract_x
_atom_site_fract_y
_atom_site_fract_z
Si Si1 0.250000 0.750000 0.908958
Si Si2 0.027786 0.188651 0.005023
Si Si3 0.542554 0.560352 0.736417
Si Si4 0.461108 0.945258 0.859628
Si Si5 0.750000 0.750000 0.800384
Si Si6 0.805802 0.021219 0.458037
O O1 0.240089 0.865229 0.877768
O O2 0.458509 0.767155 0.948748
O O3 0.250000 0.250000 0.979382
O O4 0.824823 0.140593 0.969536
O O5 0.109008 0.075557 0.033321
O O6 0.269983 0.515354 0.744108
O O7 0.587747 0.543854 0.679247
O O8 0.573531 0.680269 0.764261
O O9 0.622592 0.845566 0.833944
O O10 0.580819 0.004046 0.905802
O O11 0.000000 0.000000 0.500000
#
# Coordination Sequence:
#
# PCOD9432439 Si02
#       6
#     4   8   8   8   4   8
#     4  12  20  36  66  96 130 180 232 266 340 412
#     4  11  21  37  61  90 139 178 226 284 334 399
#     4  10  23  43  69 106 141 173 231 308 359 422
#     4  11  21  38  70 102 132 184 235 284 354 429
#     4  10  22  44  74 102 134 180 234 294 358 426
#     4  11  22  38  60  96 135 176 233 283 332 414
#
# _framework density 22.234929000000001
#
# number of rings (size 3 to 8) (size 9 to 14) (size 15 to 20)
#    0.000    1.200    4.000    2.400    0.000    4.000 
#    0.000    0.000    6.600    9.600    0.000    0.000 
#    0.000    0.000    0.000    0.000    0.000    0.000 
#
# Total GULP energy -222936.593563 kJ/mol
# GULP energy per Si atom -5573.414839 kJ/mol
# Density = 2.218432 g / cm^3
# Si number density = 22.234929 Si / 1000 Ang^3
#
#
#
# Elastic Constant Matrix: (Units=GPa)
#
#
# Indices 1 2 3 4 5 6 
#
# 1 55.5981 16.0343 22.2086 0.0000 0.0000 0.0000
# 2 16.0343 76.6071 49.6609 0.0000 0.0000 0.0000
# 3 22.2086 49.6609 158.3733 0.0000 0.0000 0.0000
# 4 0.0000 0.0000 0.0000 40.4395 0.0000 0.0000
# 5 0.0000 0.0000 0.0000 0.0000 30.4450 0.0000
# 6 0.0000 0.0000 0.0000 0.0000 0.0000 46.0800
#
#
#
# Elastic Compliance Matrix: (Units=1/GPa)
#
#
# Indices 1 2 3 4 5 6 
#
# 1 0.019556 -0.002906 -0.001831 0.000000 0.000000 0.000000
# 2 -0.002906 0.016816 -0.004865 0.000000 0.000000 0.000000
# 3 -0.001831 -0.004865 0.008097 0.000000 0.000000 0.000000
# 4 0.000000 0.000000 0.000000 0.024728 0.000000 0.000000
# 5 0.000000 0.000000 0.000000 0.000000 0.032846 0.000000
# 6 0.000000 0.000000 0.000000 0.000000 0.000000 0.021701
#
#
# Mechanical properties :
#
#
# Convention : Reuss Voigt Hill
#
# Bulk Modulus (GPa) = 39.58346 51.82068 45.70207
# Shear Modulus (GPa) = 33.03158 36.90454 34.96806
#
# Velocity S-wave (km/s) = 3.85849 4.07843 3.96998
# Velocity P-wave (km/s) = 6.13935 6.74794 6.45083
#
# Compressibility (1/GPa) = 0.02526307
#
# Stress axis : x y z
#
# Youngs Moduli (GPa) = 51.13588 59.46748 123.50863
#
# Poissons Ratio (x) = 0.17282 0.22615
# Poissons Ratio (y) = 0.14861 0.60092
# Poissons Ratio (z) = 0.09363 0.28933
#
# Static dielectric constant tensor:
#      x y z
#    x 1.988220 0.000000 0.000000 
#    y 0.000000 1.967400 0.000000 
#    z 0.000000 0.000000 1.810590 
# 
# From -- ./inp_files/21559.got.cif
#   From: 2010.05.17/outbox.cif.g08.bks.cpg/sg56_11_cif.got.tgz:21559.got - 2010.06.03 13:42:01.
