data_PCOD9432355
_publ_section_title
;
Structure prediction by ZEFSAII (Michael W. Deem and Ramdas Pophale) SiO2 
 PCOD9432355
Probable space group: P C C N
;
_chemical_formula_sum "Si O2"
_cell_formula_units_Z 44
_cell_length_a 19.568729
_cell_length_b 11.298247
_cell_length_c 7.395830
_cell_angle_alpha 90.000000
_cell_angle_beta 90.000000
_cell_angle_gamma 90.000000
_cell_volume 1635.161314
_symmetry_space_group_name_H-M "P C C N"
_symmetry_group_IT_number 56
_symmetry_cell_setting 'orthorhombic'
loop_
_space_group_symop_operation_xyz
x,y,z
1/2-x,1/2-y,z
1/2+x,-y,1/2-z
-x,1/2+y,1/2-z
-x,-y,-z
1/2+x,1/2+y,-z
1/2-x,y,1/2+z
x,1/2-y,1/2+z
loop_
_atom_site_type_symbol
_atom_site_label
_atom_site_fract_x
_atom_site_fract_y
_atom_site_fract_z
Si Si1 0.625122 0.984554 0.696068
Si Si2 0.750000 0.250000 0.893472
Si Si3 0.391909 0.826359 0.998290
Si Si4 0.316633 0.333578 0.497579
Si Si5 0.469671 0.130238 0.071433
Si Si6 0.321480 0.972807 0.703592
O O1 0.651786 0.995961 0.494622
O O2 0.678498 0.912345 0.821518
O O3 0.556125 0.908471 0.729958
O O4 0.611215 0.104436 0.810398
O O5 0.759947 0.123292 0.798280
O O6 0.677660 0.247879 0.996270
O O7 0.379294 0.909148 0.824194
O O8 0.467718 0.781819 0.963876
O O9 0.250000 0.250000 0.508819
O O10 0.399911 0.312028 0.487083
O O11 0.306522 0.413414 0.322314
O O12 0.500000 0.000000 0.000000
#
# Coordination Sequence:
#
# PCOD9432355 Si02
#       6
#     8   4   8   8   8   8
#     4   8  20  38  71 115 153 213 267 337 406 488
#     4  12  28  42  76 124 164 210 264 340 410 486
#     4  10  22  43  67 113 162 206 268 346 410 482
#     4   9  20  43  79 121 167 219 274 344 412 495
#     4   8  16  42  73 110 165 218 265 354 404 490
#     4  11  23  41  72 123 159 215 273 341 414 501
#
# _framework density 26.908659
#
# number of rings (size 3 to 8) (size 9 to 14) (size 15 to 20)
#    1.091    1.455    1.818    0.545    5.091    1.455 
#    0.000    0.909    4.000    6.545    9.455    1.273 
#    0.000    0.000    0.000    0.000    0.000    0.000 
#
# Total GULP energy -245172.430688 kJ/mol
# GULP energy per Si atom -5572.100697 kJ/mol
# Density = 2.684741 g / cm^3
# Si number density = 26.908659 Si / 1000 Ang^3
#
#
#
# Elastic Constant Matrix: (Units=GPa)
#
#
# Indices 1 2 3 4 5 6 
#
# 1 260.6711 76.0351 55.1212 0.0000 0.0000 0.0000
# 2 76.0351 90.7446 47.8667 0.0000 0.0000 0.0000
# 3 55.1212 47.8667 175.4603 0.0000 0.0000 0.0000
# 4 0.0000 0.0000 0.0000 35.6597 0.0000 0.0000
# 5 0.0000 0.0000 0.0000 0.0000 26.6556 0.0000
# 6 0.0000 0.0000 0.0000 0.0000 0.0000 72.7477
#
#
#
# Elastic Compliance Matrix: (Units=1/GPa)
#
#
# Indices 1 2 3 4 5 6 
#
# 1 0.005116 -0.004017 -0.000511 0.000000 0.000000 0.000000
# 2 -0.004017 0.016026 -0.003110 0.000000 0.000000 0.000000
# 3 -0.000511 -0.003110 0.006708 0.000000 0.000000 0.000000
# 4 0.000000 0.000000 0.000000 0.028043 0.000000 0.000000
# 5 0.000000 0.000000 0.000000 0.000000 0.037516 0.000000
# 6 0.000000 0.000000 0.000000 0.000000 0.000000 0.013746
#
#
# Mechanical properties :
#
#
# Convention : Reuss Voigt Hill
#
# Bulk Modulus (GPa) = 79.53040 98.32464 88.92752
# Shear Modulus (GPa) = 39.48701 50.20280 44.84491
#
# Velocity S-wave (km/s) = 3.83488 4.32403 4.08678
# Velocity P-wave (km/s) = 7.01629 7.84533 7.44236
#
# Compressibility (1/GPa) = 0.01257381
#
# Stress axis : x y z
#
# Youngs Moduli (GPa) = 195.46058 62.39699 149.06674
#
# Poissons Ratio (x) = 0.25065 0.07623
# Poissons Ratio (y) = 0.78518 0.46362
# Poissons Ratio (z) = 0.09995 0.19406
#
# Static dielectric constant tensor:
#      x y z
#    x 2.222190 0.000000 0.000000 
#    y 0.000000 2.387050 0.000000 
#    z 0.000000 0.000000 2.109890 
# 
# From -- ./inp_files/8253.got.cif
#   From: 2010.05.17/outbox.cif.g08.bks.cpg/sg56_5_cif.got.tgz:8253.got - 2010.06.03 13:42:01.
