data_PCOD9432517
_publ_section_title
;
Structure prediction by ZEFSAII (Michael W. Deem and Ramdas Pophale) SiO2 
 PCOD9432517
Probable space group: P C C N
;
_chemical_formula_sum "Si O2"
_cell_formula_units_Z 56
_cell_length_a 16.140725
_cell_length_b 22.740793
_cell_length_c 8.398976
_cell_angle_alpha 90.000000
_cell_angle_beta 90.000000
_cell_angle_gamma 90.000000
_cell_volume 3082.868381
_symmetry_space_group_name_H-M "P C C N"
_symmetry_group_IT_number 56
_symmetry_cell_setting 'orthorhombic'
loop_
_space_group_symop_operation_xyz
x,y,z
1/2-x,1/2-y,z
1/2+x,-y,1/2-z
-x,1/2+y,1/2-z
-x,-y,-z
1/2+x,1/2+y,-z
1/2-x,y,1/2+z
x,1/2-y,1/2+z
loop_
_atom_site_type_symbol
_atom_site_label
_atom_site_fract_x
_atom_site_fract_y
_atom_site_fract_z
Si Si1 0.220439 0.447831 0.876354
Si Si2 0.932159 0.803619 0.932533
Si Si3 0.052998 0.055102 0.566993
Si Si4 0.752821 0.684551 0.595113
Si Si5 0.569128 0.819958 0.052989
Si Si6 0.500432 0.916934 0.574660
Si Si7 0.866623 0.996279 0.930237
O O1 0.149416 0.449866 0.013940
O O2 0.245663 0.380605 0.827617
O O3 0.178603 0.480820 0.731456
O O4 0.301707 0.480804 0.933993
O O5 0.931092 0.813957 0.743833
O O6 0.838237 0.813769 0.997692
O O7 0.964249 0.738464 0.971233
O O8 0.986431 0.849719 0.031508
O O9 0.028781 0.118366 0.491668
O O10 0.036164 0.063771 0.753858
O O11 0.000000 0.000000 0.500000
O O12 0.750000 0.750000 0.677476
O O13 0.666222 0.682121 0.498404
O O14 0.407092 0.939930 0.563848
O O15 0.556035 0.951835 0.446330
#
# Coordination Sequence:
#
# PCOD9432517 Si02
#       7
#     8   8   8   8   8   8   8
#     4  11  21  38  54  80 119 159 198 245 287 355
#     4  11  21  38  56  80 118 155 200 239 299 347
#     4  11  22  37  58  85 121 152 198 242 290 346
#     4   9  20  30  49  77 112 155 198 228 276 343
#     4  10  23  36  55  83 118 156 201 240 287 361
#     4  11  22  37  59  82 117 157 198 247 294 345
#     4  11  23  37  57  83 113 157 200 242 296 349
#
# _framework density 18.164901
#
# number of rings (size 3 to 8) (size 9 to 14) (size 15 to 20)
#    0.000    1.429    2.857    3.429    2.000    6.286 
#    0.000    0.000    0.000    0.000    0.000    1.000 
#    0.000    0.000    0.000    0.000    0.000    0.000 
#
# Total GULP energy -312380.931090 kJ/mol
# GULP energy per Si atom -5578.230912 kJ/mol
# Density = 1.812356 g / cm^3
# Si number density = 18.164901 Si / 1000 Ang^3
#
#
#
# Elastic Constant Matrix: (Units=GPa)
#
#
# Indices 1 2 3 4 5 6 
#
# 1 72.8506 62.3988 39.7739 0.0000 0.0000 0.0000
# 2 62.3988 155.8578 43.2296 0.0000 0.0000 0.0000
# 3 39.7739 43.2296 67.2788 0.0000 0.0000 0.0000
# 4 0.0000 0.0000 0.0000 27.2344 0.0000 0.0000
# 5 0.0000 0.0000 0.0000 0.0000 22.0664 0.0000
# 6 0.0000 0.0000 0.0000 0.0000 0.0000 38.8346
#
#
#
# Elastic Compliance Matrix: (Units=1/GPa)
#
#
# Indices 1 2 3 4 5 6 
#
# 1 0.025813 -0.007425 -0.010489 0.000000 0.000000 0.000000
# 2 -0.007425 0.009943 -0.001999 0.000000 0.000000 0.000000
# 3 -0.010489 -0.001999 0.022349 0.000000 0.000000 0.000000
# 4 0.000000 0.000000 0.000000 0.036718 0.000000 0.000000
# 5 0.000000 0.000000 0.000000 0.000000 0.045318 0.000000
# 6 0.000000 0.000000 0.000000 0.000000 0.000000 0.025750
#
#
# Mechanical properties :
#
#
# Convention : Reuss Voigt Hill
#
# Bulk Modulus (GPa) = 54.71003 65.19907 59.95455
# Shear Modulus (GPa) = 23.60568 27.66606 25.63587
#
# Velocity S-wave (km/s) = 3.60880 3.90686 3.76078
# Velocity P-wave (km/s) = 6.89554 7.50481 7.20662
#
# Compressibility (1/GPa) = 0.01827818
#
# Stress axis : x y z
#
# Youngs Moduli (GPa) = 38.73944 100.56893 44.74397
#
# Poissons Ratio (x) = 0.74675 0.46934
# Poissons Ratio (y) = 0.28765 0.08946
# Poissons Ratio (z) = 0.40635 0.20108
#
# Static dielectric constant tensor:
#      x y z
#    x 1.618130 0.000000 0.000000 
#    y 0.000000 1.677830 0.000000 
#    z 0.000000 0.000000 1.690060 
# 
# From -- ./inp_files/3587.got.cif
#   From: 2010.05.17/outbox.cif.g08.bks.cpg/sg56_2_cif.got.tgz:3587.got - 2010.06.03 13:42:01.
