data_PCOD9432778
_publ_section_title
;
Structure prediction by ZEFSAII (Michael W. Deem and Ramdas Pophale) SiO2 
 PCOD9432778
Probable space group: P C C N
;
_chemical_formula_sum "Si O2"
_cell_formula_units_Z 40
_cell_length_a 23.050462
_cell_length_b 7.704822
_cell_length_c 8.694271
_cell_angle_alpha 90.000000
_cell_angle_beta 90.000000
_cell_angle_gamma 90.000000
_cell_volume 1544.099980
_symmetry_space_group_name_H-M "P C C N"
_symmetry_group_IT_number 56
_symmetry_cell_setting 'orthorhombic'
loop_
_space_group_symop_operation_xyz
x,y,z
1/2-x,1/2-y,z
1/2+x,-y,1/2-z
-x,1/2+y,1/2-z
-x,-y,-z
1/2+x,1/2+y,-z
1/2-x,y,1/2+z
x,1/2-y,1/2+z
loop_
_atom_site_type_symbol
_atom_site_label
_atom_site_fract_x
_atom_site_fract_y
_atom_site_fract_z
Si Si1 0.377138 0.042507 0.442689
Si Si2 0.022543 0.709591 0.564332
Si Si3 0.052269 0.092317 0.656876
Si Si4 0.219986 0.571965 0.652883
Si Si5 0.697322 0.866378 0.057971
O O1 0.432273 0.923013 0.491225
O O2 0.391767 0.084752 0.265387
O O3 0.352008 0.232428 0.492151
O O4 0.324542 0.923452 0.508866
O O5 0.000990 0.627519 0.723653
O O6 0.965026 0.760270 0.466366
O O7 0.049459 0.900443 0.586203
O O8 0.250000 0.750000 0.697775
O O9 0.273518 0.460852 0.585930
O O10 0.185260 0.494216 0.799337
O O11 0.750000 0.750000 0.121792
#
# Coordination Sequence:
#
# PCOD9432778 Si02
#       5
#     8   8   8   8   8
#     4  11  25  45  75 111 152 209 261 317 403 465
#     4  11  25  48  72 113 159 207 265 335 388 476
#     4  11  25  47  75 111 159 206 271 328 392 473
#     4  11  25  48  75 110 154 192 261 328 396 477
#     4  10  23  46  74 108 147 199 252 320 390 477
#
# _framework density 25.905056999999999
#
# number of rings (size 3 to 8) (size 9 to 14) (size 15 to 20)
#    0.000    1.200    2.000    3.000    2.800    4.800 
#    7.200    0.000    0.000    0.000    0.000    0.000 
#    0.000    0.000    0.000    0.000    0.000    0.000 
#
# Total GULP energy -223302.002946 kJ/mol
# GULP energy per Si atom -5582.550074 kJ/mol
# Density = 2.584610 g / cm^3
# Si number density = 25.905057 Si / 1000 Ang^3
#
#
#
# Elastic Constant Matrix: (Units=GPa)
#
#
# Indices 1 2 3 4 5 6 
#
# 1 131.1704 31.2493 28.9429 0.0000 0.0000 0.0000
# 2 31.2493 179.8353 55.9015 0.0000 0.0000 0.0000
# 3 28.9429 55.9015 103.0604 0.0000 0.0000 0.0000
# 4 0.0000 0.0000 0.0000 81.6110 0.0000 0.0000
# 5 0.0000 0.0000 0.0000 0.0000 46.5736 0.0000
# 6 0.0000 0.0000 0.0000 0.0000 0.0000 6.3994
#
#
#
# Elastic Compliance Matrix: (Units=1/GPa)
#
#
# Indices 1 2 3 4 5 6 
#
# 1 0.008236 -0.000857 -0.001848 0.000000 0.000000 0.000000
# 2 -0.000857 0.006777 -0.003436 0.000000 0.000000 0.000000
# 3 -0.001848 -0.003436 0.012086 0.000000 0.000000 0.000000
# 4 0.000000 0.000000 0.000000 0.012253 0.000000 0.000000
# 5 0.000000 0.000000 0.000000 0.000000 0.021471 0.000000
# 6 0.000000 0.000000 0.000000 0.000000 0.000000 0.156264
#
#
# Mechanical properties :
#
#
# Convention : Reuss Voigt Hill
#
# Bulk Modulus (GPa) = 67.48634 71.80594 69.64614
# Shear Modulus (GPa) = 21.33950 46.78165 34.06058
#
# Velocity S-wave (km/s) = 2.87323 4.25419 3.62998
# Velocity P-wave (km/s) = 6.09223 7.20485 6.67177
#
# Compressibility (1/GPa) = 0.01481781
#
# Stress axis : x y z
#
# Youngs Moduli (GPa) = 121.42497 147.54825 82.74287
#
# Poissons Ratio (x) = 0.12638 0.15293
# Poissons Ratio (y) = 0.10401 0.28427
# Poissons Ratio (z) = 0.22442 0.50692
#
# Static dielectric constant tensor:
#      x y z
#    x 2.096320 0.000000 0.000000 
#    y 0.000000 2.117210 0.000000 
#    z 0.000000 0.000000 2.054580 
# 
# From -- ./inp_files/5080.got.cif
#   From: 2010.05.17/outbox.cif.g08.bks.cpg/sg56_3_cif.got.tgz:5080.got - 2010.06.03 13:42:01.
