data_PCOD9432598
_publ_section_title
;
Structure prediction by ZEFSAII (Michael W. Deem and Ramdas Pophale) SiO2 
 PCOD9432598
Probable space group: P C C N
;
_chemical_formula_sum "Si O2"
_cell_formula_units_Z 40
_cell_length_a 23.379609
_cell_length_b 5.227995
_cell_length_c 13.758493
_cell_angle_alpha 90.000000
_cell_angle_beta 90.000000
_cell_angle_gamma 90.000000
_cell_volume 1681.679672
_symmetry_space_group_name_H-M "P C C N"
_symmetry_group_IT_number 56
_symmetry_cell_setting 'orthorhombic'
loop_
_space_group_symop_operation_xyz
x,y,z
1/2-x,1/2-y,z
1/2+x,-y,1/2-z
-x,1/2+y,1/2-z
-x,-y,-z
1/2+x,1/2+y,-z
1/2-x,y,1/2+z
x,1/2-y,1/2+z
loop_
_atom_site_type_symbol
_atom_site_label
_atom_site_fract_x
_atom_site_fract_y
_atom_site_fract_z
Si Si1 0.637557 0.127887 0.513390
Si Si2 0.372936 0.168756 0.664926
Si Si3 0.250000 0.750000 0.371991
Si Si4 0.924214 0.871515 0.521546
Si Si5 0.750000 0.750000 0.760991
Si Si6 0.525815 0.779493 0.205708
O O1 0.696294 0.215047 0.558131
O O2 0.591773 0.338825 0.542192
O O3 0.636861 0.090851 0.396697
O O4 0.622098 0.846751 0.552226
O O5 0.416320 0.323950 0.593401
O O6 0.309448 0.279723 0.679431
O O7 0.409374 0.146711 0.762104
O O8 0.257090 0.501395 0.304816
O O9 0.977990 0.802062 0.588510
O O10 0.511073 0.494097 0.239307
#
# Coordination Sequence:
#
# PCOD9432598 Si02
#       6
#     8   8   4   8   4   8
#     4  10  23  41  68  95 147 177 240 280 364 420
#     4  10  28  45  73 106 145 188 247 292 372 438
#     4  12  24  40  68 104 138 198 226 298 356 432
#     4  10  24  45  70  98 141 181 234 300 353 429
#     4  12  28  42  76 104 150 182 248 294 372 432
#     4  12  27  46  74 105 143 190 246 303 362 427
#
# _framework density 23.785741999999999
#
# number of rings (size 3 to 8) (size 9 to 14) (size 15 to 20)
#    1.200    0.000    0.000    4.800    8.400    1.600 
#    0.000    0.000    0.000    0.000    0.000    0.000 
#    0.000    0.000    0.000    0.000    0.000    0.000 
#
# Total GULP energy -223195.887732 kJ/mol
# GULP energy per Si atom -5579.897193 kJ/mol
# Density = 2.373160 g / cm^3
# Si number density = 23.785742 Si / 1000 Ang^3
#
#
#
# Elastic Constant Matrix: (Units=GPa)
#
#
# Indices 1 2 3 4 5 6 
#
# 1 65.6980 11.7796 21.7438 0.0000 0.0000 0.0000
# 2 11.7796 98.0366 25.6598 0.0000 0.0000 0.0000
# 3 21.7438 25.6598 90.3699 0.0000 0.0000 0.0000
# 4 0.0000 0.0000 0.0000 32.7679 0.0000 0.0000
# 5 0.0000 0.0000 0.0000 0.0000 1.8197 0.0000
# 6 0.0000 0.0000 0.0000 0.0000 0.0000 26.1344
#
#
#
# Elastic Compliance Matrix: (Units=1/GPa)
#
#
# Indices 1 2 3 4 5 6 
#
# 1 0.016633 -0.001027 -0.003710 0.000000 0.000000 0.000000
# 2 -0.001027 0.011083 -0.002900 0.000000 0.000000 0.000000
# 3 -0.003710 -0.002900 0.012782 0.000000 0.000000 0.000000
# 4 0.000000 0.000000 0.000000 0.030518 0.000000 0.000000
# 5 0.000000 0.000000 0.000000 0.000000 0.549545 0.000000
# 6 0.000000 0.000000 0.000000 0.000000 0.000000 0.038264
#
#
# Mechanical properties :
#
#
# Convention : Reuss Voigt Hill
#
# Bulk Modulus (GPa) = 39.64660 41.38564 40.51612
# Shear Modulus (GPa) = 7.32594 25.13914 16.23254
#
# Velocity S-wave (km/s) = 1.75689 3.25453 2.61520
# Velocity P-wave (km/s) = 4.56289 5.61780 5.11760
#
# Compressibility (1/GPa) = 0.02522285
#
# Stress axis : x y z
#
# Youngs Moduli (GPa) = 60.11998 90.23099 78.23676
#
# Poissons Ratio (x) = 0.09271 0.29029
# Poissons Ratio (y) = 0.06177 0.22686
# Poissons Ratio (z) = 0.22307 0.26164
#
# Static dielectric constant tensor:
#      x y z
#    x 1.900260 0.000000 0.000000 
#    y 0.000000 1.869580 0.000000 
#    z 0.000000 0.000000 1.971210 
# 
# From -- ./inp_files/13186.got.cif
#   From: 2010.05.17/outbox.cif.g08.bks.cpg/sg56_7_cif.got.tgz:13186.got - 2010.06.03 13:42:01.
