data_PCOD9432593
_publ_section_title
;
Structure prediction by ZEFSAII (Michael W. Deem and Ramdas Pophale) SiO2 
 PCOD9432593
Probable space group: P C C N
;
_chemical_formula_sum "Si O2"
_cell_formula_units_Z 60
_cell_length_a 8.870707
_cell_length_b 16.247861
_cell_length_c 16.619886
_cell_angle_alpha 90.000000
_cell_angle_beta 90.000000
_cell_angle_gamma 90.000000
_cell_volume 2395.424407
_symmetry_space_group_name_H-M "P C C N"
_symmetry_group_IT_number 56
_symmetry_cell_setting 'orthorhombic'
loop_
_space_group_symop_operation_xyz
x,y,z
1/2-x,1/2-y,z
1/2+x,-y,1/2-z
-x,1/2+y,1/2-z
-x,-y,-z
1/2+x,1/2+y,-z
1/2-x,y,1/2+z
x,1/2-y,1/2+z
loop_
_atom_site_type_symbol
_atom_site_label
_atom_site_fract_x
_atom_site_fract_y
_atom_site_fract_z
Si Si1 0.775955 0.980775 0.484732
Si Si2 0.410162 0.043018 0.259605
Si Si3 0.141240 0.649166 0.234177
Si Si4 0.750000 0.250000 0.120958
Si Si5 0.850428 0.678244 0.519155
Si Si6 0.927543 0.090377 0.596779
Si Si7 0.616202 0.122769 0.389220
Si Si8 0.314524 0.166717 0.810197
O O1 0.652022 0.910018 0.476130
O O2 0.927208 0.933746 0.456441
O O3 0.807102 0.020266 0.572098
O O4 0.729453 0.060312 0.433466
O O5 0.514292 0.077800 0.187291
O O6 0.495109 0.067034 0.341452
O O7 0.251939 0.091483 0.260339
O O8 0.375779 0.948049 0.248804
O O9 0.147992 0.695438 0.318855
O O10 0.287931 0.665215 0.180613
O O11 0.991440 0.672523 0.187385
O O12 0.643993 0.180289 0.080910
O O13 0.750000 0.750000 0.477342
O O14 0.749812 0.664378 0.599675
O O15 0.022063 0.683470 0.551978
O O16 0.250000 0.250000 0.772264
#
# Coordination Sequence:
#
# PCOD9432593 Si02
#       8
#     8   8   8   4   8   8   8   8
#     4  11  25  47  74 102 148 203 254 303 379 460
#     4  11  22  45  72 106 147 194 248 301 378 451
#     4  12  24  41  73 109 143 189 238 317 369 448
#     4  12  28  44  70 116 152 180 256 320 384 438
#     4  10  24  44  68 102 150 193 248 310 364 450
#     4  11  25  46  70 107 149 196 250 314 378 457
#     4  11  24  44  76 110 141 200 256 298 379 457
#     4  10  23  41  67 103 144 187 243 305 367 434
#
# _framework density 25.047754999999999
#
# number of rings (size 3 to 8) (size 9 to 14) (size 15 to 20)
#    0.000    1.067    2.667    2.800    9.333    1.067 
#    2.400    1.333    0.000    0.000    0.000    0.000 
#    0.000    0.000    0.000    0.000    0.000    0.000 
#
# Total GULP energy -335662.195968 kJ/mol
# GULP energy per Si atom -5594.369933 kJ/mol
# Density = 2.499075 g / cm^3
# Si number density = 25.047755 Si / 1000 Ang^3
#
#
#
# Elastic Constant Matrix: (Units=GPa)
#
#
# Indices 1 2 3 4 5 6 
#
# 1 107.5486 35.4481 3.8016 0.0000 0.0000 0.0000
# 2 35.4481 160.1402 19.9787 0.0000 0.0000 0.0000
# 3 3.8016 19.9787 39.5295 0.0000 0.0000 0.0000
# 4 0.0000 0.0000 0.0000 52.9929 0.0000 0.0000
# 5 0.0000 0.0000 0.0000 0.0000 8.0235 0.0000
# 6 0.0000 0.0000 0.0000 0.0000 0.0000 42.5446
#
#
#
# Elastic Compliance Matrix: (Units=1/GPa)
#
#
# Indices 1 2 3 4 5 6 
#
# 1 0.010031 -0.002241 0.000168 0.000000 0.000000 0.000000
# 2 -0.002241 0.007166 -0.003406 0.000000 0.000000 0.000000
# 3 0.000168 -0.003406 0.027003 0.000000 0.000000 0.000000
# 4 0.000000 0.000000 0.000000 0.018870 0.000000 0.000000
# 5 0.000000 0.000000 0.000000 0.000000 0.124633 0.000000
# 6 0.000000 0.000000 0.000000 0.000000 0.000000 0.023505
#
#
# Mechanical properties :
#
#
# Convention : Reuss Voigt Hill
#
# Bulk Modulus (GPa) = 30.08349 47.29723 38.69036
# Shear Modulus (GPa) = 21.43653 37.24487 29.34070
#
# Velocity S-wave (km/s) = 2.92862 3.86029 3.42627
# Velocity P-wave (km/s) = 4.84482 6.22840 5.57966
#
# Compressibility (1/GPa) = 0.03324083
#
# Stress axis : x y z
#
# Youngs Moduli (GPa) = 99.69151 139.55563 37.03314
#
# Poissons Ratio (x) = 0.31280 -0.00623
# Poissons Ratio (y) = 0.22345 0.12614
# Poissons Ratio (z) = -0.01676 0.47533
#
# Static dielectric constant tensor:
#      x y z
#    x 2.008700 0.000000 0.000000 
#    y 0.000000 2.051520 0.000000 
#    z 0.000000 0.000000 1.963740 
# 
# From -- ./inp_files/15126.got.cif
#   From: 2010.05.17/outbox.cif.g08.bks.cpg/sg56_8_cif.got.tgz:15126.got - 2010.06.03 13:42:01.
