data_PCOD9432592
_publ_section_title
;
Structure prediction by ZEFSAII (Michael W. Deem and Ramdas Pophale) SiO2 
 PCOD9432592
Probable space group: P C C N
;
_chemical_formula_sum "Si O2"
_cell_formula_units_Z 24
_cell_length_a 9.842056
_cell_length_b 4.976750
_cell_length_c 17.456061
_cell_angle_alpha 90.000000
_cell_angle_beta 90.000000
_cell_angle_gamma 90.000000
_cell_volume 855.023217
_symmetry_space_group_name_H-M "P C C N"
_symmetry_group_IT_number 56
_symmetry_cell_setting 'orthorhombic'
loop_
_space_group_symop_operation_xyz
x,y,z
1/2-x,1/2-y,z
1/2+x,-y,1/2-z
-x,1/2+y,1/2-z
-x,-y,-z
1/2+x,1/2+y,-z
1/2-x,y,1/2+z
x,1/2-y,1/2+z
loop_
_atom_site_type_symbol
_atom_site_label
_atom_site_fract_x
_atom_site_fract_y
_atom_site_fract_z
Si Si1 0.385100 0.095093 0.896624
Si Si2 0.832321 0.506416 0.931389
Si Si3 0.594195 0.281708 0.232546
O O1 0.250000 0.250000 0.866542
O O2 0.547123 0.135277 0.884578
O O3 0.385812 0.800447 0.857697
O O4 0.379814 0.133709 0.988110
O O5 0.750000 0.750000 0.891575
O O6 0.750000 0.250000 0.957945
O O7 0.750000 0.250000 0.263547
O O8 0.516388 0.562080 0.238845
#
# Coordination Sequence:
#
# PCOD9432592 Si02
#       3
#     8   8   8
#     4  10  23  44  69  96 134 175 217 270 336 398
#     4  10  23  41  67 101 133 169 215 270 330 398
#     4  12  27  47  70  98 134 179 229 280 335 396
#
# _framework density 28.069413000000001
#
# number of rings (size 3 to 8) (size 9 to 14) (size 15 to 20)
#    0.000    1.333    0.000    4.000    0.000   24.000 
#    0.000    0.000    0.000    0.000    0.000    0.000 
#    0.000    0.000    0.000    0.000    0.000    0.000 
#
# Total GULP energy -133691.914917 kJ/mol
# GULP energy per Si atom -5570.496455 kJ/mol
# Density = 2.800553 g / cm^3
# Si number density = 28.069413 Si / 1000 Ang^3
#
#
#
# Elastic Constant Matrix: (Units=GPa)
#
#
# Indices 1 2 3 4 5 6 
#
# 1 243.3017 48.4924 35.6972 0.0000 0.0000 0.0000
# 2 48.4924 97.9831 16.5115 0.0000 0.0000 0.0000
# 3 35.6972 16.5115 74.3992 0.0000 0.0000 0.0000
# 4 0.0000 0.0000 0.0000 31.8313 0.0000 0.0000
# 5 0.0000 0.0000 0.0000 0.0000 15.1382 0.0000
# 6 0.0000 0.0000 0.0000 0.0000 0.0000 72.2937
#
#
#
# Elastic Compliance Matrix: (Units=1/GPa)
#
#
# Indices 1 2 3 4 5 6 
#
# 1 0.004791 -0.002061 -0.001841 0.000000 0.000000 0.000000
# 2 -0.002061 0.011489 -0.001561 0.000000 0.000000 0.000000
# 3 -0.001841 -0.001561 0.014671 0.000000 0.000000 0.000000
# 4 0.000000 0.000000 0.000000 0.031416 0.000000 0.000000
# 5 0.000000 0.000000 0.000000 0.000000 0.066058 0.000000
# 6 0.000000 0.000000 0.000000 0.000000 0.000000 0.013832
#
#
# Mechanical properties :
#
#
# Convention : Reuss Voigt Hill
#
# Bulk Modulus (GPa) = 49.93891 68.56514 59.25203
# Shear Modulus (GPa) = 31.27777 44.85149 38.06463
#
# Velocity S-wave (km/s) = 3.34174 4.00168 3.68651
# Velocity P-wave (km/s) = 5.72009 6.76988 6.26701
#
# Compressibility (1/GPa) = 0.02002447
#
# Stress axis : x y z
#
# Youngs Moduli (GPa) = 208.72312 87.04140 68.16196
#
# Poissons Ratio (x) = 0.17938 0.12551
# Poissons Ratio (y) = 0.43014 0.10640
# Poissons Ratio (z) = 0.38435 0.13587
#
# Static dielectric constant tensor:
#      x y z
#    x 2.468680 0.000000 0.000000 
#    y 0.000000 3.074310 0.000000 
#    z 0.000000 0.000000 2.330700 
# 
# From -- ./inp_files/20237.got.cif
#   From: 2010.05.17/outbox.cif.g08.bks.cpg/sg56_11_cif.got.tgz:20237.got - 2010.06.03 13:42:01.
