data_PCOD9432354
_publ_section_title
;
Structure prediction by ZEFSAII (Michael W. Deem and Ramdas Pophale) SiO2 
 PCOD9432354
Probable space group: P C C N
;
_chemical_formula_sum "Si O2"
_cell_formula_units_Z 56
_cell_length_a 13.552901
_cell_length_b 8.388510
_cell_length_c 18.160583
_cell_angle_alpha 90.000000
_cell_angle_beta 90.000000
_cell_angle_gamma 90.000000
_cell_volume 2064.652084
_symmetry_space_group_name_H-M "P C C N"
_symmetry_group_IT_number 56
_symmetry_cell_setting 'orthorhombic'
loop_
_space_group_symop_operation_xyz
x,y,z
1/2-x,1/2-y,z
1/2+x,-y,1/2-z
-x,1/2+y,1/2-z
-x,-y,-z
1/2+x,1/2+y,-z
1/2-x,y,1/2+z
x,1/2-y,1/2+z
loop_
_atom_site_type_symbol
_atom_site_label
_atom_site_fract_x
_atom_site_fract_y
_atom_site_fract_z
Si Si1 0.622477 0.163396 0.456753
Si Si2 0.250000 0.250000 0.653815
Si Si3 0.250000 0.250000 0.911693
Si Si4 0.081515 0.450766 0.402018
Si Si5 0.298335 0.585121 0.203591
Si Si6 0.009452 0.083916 0.242777
Si Si7 0.103870 0.966496 0.461039
Si Si8 0.047968 0.364828 0.154222
O O1 0.507237 0.159241 0.431368
O O2 0.676895 0.111379 0.382880
O O3 0.654032 0.334582 0.487409
O O4 0.621656 0.043465 0.526194
O O5 0.251651 0.411723 0.700546
O O6 0.357298 0.280499 0.613615
O O7 0.327908 0.354648 0.869361
O O8 0.176505 0.383474 0.949266
O O9 0.040326 0.555975 0.336325
O O10 0.250000 0.750000 0.231264
O O11 0.397842 0.535369 0.245235
O O12 0.046024 0.261953 0.229827
O O13 0.944207 0.046619 0.314222
O O14 0.054599 0.876342 0.390796
O O15 0.000000 0.000000 0.500000
#
# Coordination Sequence:
#
# PCOD9432354 Si02
#       8
#     8   4   4   8   8   8   8   8
#     4  10  22  44  68  96 147 188 234 303 378 437
#     4  10  26  46  74 114 136 185 273 312 372 464
#     4  12  28  40  70 108 146 189 249 298 378 454
#     4  10  22  43  67 100 139 186 237 301 364 449
#     4  10  24  42  71 108 142 192 255 313 371 462
#     4  10  24  47  73  99 147 196 243 310 393 446
#     4  12  27  47  71 110 149 195 246 314 391 454
#     4  11  26  48  76 105 143 197 248 318 384 464
#
# _framework density 27.123214999999998
#
# number of rings (size 3 to 8) (size 9 to 14) (size 15 to 20)
#    0.000    1.429    2.857    0.000   10.000    1.714 
#    2.571    0.000    0.000    0.000    0.000    0.000 
#    0.000    0.000    0.000    0.000    0.000    0.000 
#
# Total GULP energy -312536.077537 kJ/mol
# GULP energy per Si atom -5581.001385 kJ/mol
# Density = 2.706148 g / cm^3
# Si number density = 27.123215 Si / 1000 Ang^3
#
#
#
# Elastic Constant Matrix: (Units=GPa)
#
#
# Indices 1 2 3 4 5 6 
#
# 1 138.9839 66.1389 24.1626 0.0000 0.0000 0.0000
# 2 66.1389 159.8654 27.6138 0.0000 0.0000 0.0000
# 3 24.1626 27.6138 87.5394 0.0000 0.0000 0.0000
# 4 0.0000 0.0000 0.0000 30.6218 0.0000 0.0000
# 5 0.0000 0.0000 0.0000 0.0000 27.6100 0.0000
# 6 0.0000 0.0000 0.0000 0.0000 0.0000 65.9241
#
#
#
# Elastic Compliance Matrix: (Units=1/GPa)
#
#
# Indices 1 2 3 4 5 6 
#
# 1 0.009119 -0.003530 -0.001403 0.000000 0.000000 0.000000
# 2 -0.003530 0.007982 -0.001544 0.000000 0.000000 0.000000
# 3 -0.001403 -0.001544 0.012298 0.000000 0.000000 0.000000
# 4 0.000000 0.000000 0.000000 0.032656 0.000000 0.000000
# 5 0.000000 0.000000 0.000000 0.000000 0.036219 0.000000
# 6 0.000000 0.000000 0.000000 0.000000 0.000000 0.015169
#
#
# Mechanical properties :
#
#
# Convention : Reuss Voigt Hill
#
# Bulk Modulus (GPa) = 60.81026 69.13549 64.97288
# Shear Modulus (GPa) = 37.91340 42.72941 40.32140
#
# Velocity S-wave (km/s) = 3.74280 3.97341 3.85983
# Velocity P-wave (km/s) = 6.41457 6.82608 6.62353
#
# Compressibility (1/GPa) = 0.01644459
#
# Stress axis : x y z
#
# Youngs Moduli (GPa) = 109.66075 125.27532 81.31590
#
# Poissons Ratio (x) = 0.44226 0.11412
# Poissons Ratio (y) = 0.38713 0.12552
# Poissons Ratio (z) = 0.15390 0.19337
#
# Static dielectric constant tensor:
#      x y z
#    x 2.249690 0.000000 0.000000 
#    y 0.000000 2.047980 0.000000 
#    z 0.000000 0.000000 2.272010 
# 
# From -- ./inp_files/19169.got.cif
#   From: 2010.05.17/outbox.cif.g08.bks.cpg/sg56_10_cif.got.tgz:19169.got - 2010.06.03 13:42:01.
