data_PCOD9432656
_publ_section_title
;
Structure prediction by ZEFSAII (Michael W. Deem and Ramdas Pophale) SiO2 
 PCOD9432656
Probable space group: P C C N
;
_chemical_formula_sum "Si O2"
_cell_formula_units_Z 40
_cell_length_a 20.910668
_cell_length_b 8.632096
_cell_length_c 8.827574
_cell_angle_alpha 90.000000
_cell_angle_beta 90.000000
_cell_angle_gamma 90.000000
_cell_volume 1593.402650
_symmetry_space_group_name_H-M "P C C N"
_symmetry_group_IT_number 56
_symmetry_cell_setting 'orthorhombic'
loop_
_space_group_symop_operation_xyz
x,y,z
1/2-x,1/2-y,z
1/2+x,-y,1/2-z
-x,1/2+y,1/2-z
-x,-y,-z
1/2+x,1/2+y,-z
1/2-x,y,1/2+z
x,1/2-y,1/2+z
loop_
_atom_site_type_symbol
_atom_site_label
_atom_site_fract_x
_atom_site_fract_y
_atom_site_fract_z
Si Si1 0.131543 0.050014 0.898923
Si Si2 0.847622 0.881076 0.552478
Si Si3 0.306453 0.630080 0.671448
Si Si4 0.968401 0.898081 0.366985
Si Si5 0.096251 0.886224 0.197754
O O1 0.170982 0.211952 0.890500
O O2 0.076396 0.046254 0.771002
O O3 0.183821 0.924146 0.844106
O O4 0.096984 0.995255 0.051373
O O5 0.805888 0.977154 0.432403
O O6 0.865357 0.007823 0.680102
O O7 0.913211 0.821892 0.469170
O O8 0.250000 0.750000 0.653907
O O9 0.369260 0.732122 0.640210
O O10 0.030020 0.835719 0.276764
O O11 0.000000 0.000000 0.500000
#
# Coordination Sequence:
#
# PCOD9432656 Si02
#       5
#     8   8   8   8   8
#     4  11  23  42  69 102 142 186 235 294 352 417
#     4  10  23  43  67 100 141 186 234 291 358 424
#     4  11  26  48  69  97 138 186 236 293 357 427
#     4   9  21  40  65 104 151 190 231 282 348 423
#     4  11  22  39  67 103 141 190 241 288 342 413
#
# _framework density 25.103508000000001
#
# number of rings (size 3 to 8) (size 9 to 14) (size 15 to 20)
#    0.000    1.600    0.000    4.200    0.000   16.000 
#    0.000    6.000    0.000    0.000    0.000    0.000 
#    0.000    0.000    0.000    0.000    0.000    0.000 
#
# Total GULP energy -223023.128693 kJ/mol
# GULP energy per Si atom -5575.578217 kJ/mol
# Density = 2.504637 g / cm^3
# Si number density = 25.103508 Si / 1000 Ang^3
#
#
#
# Elastic Constant Matrix: (Units=GPa)
#
#
# Indices 1 2 3 4 5 6 
#
# 1 76.0563 25.6795 10.5429 0.0000 0.0000 0.0000
# 2 25.6795 126.3591 9.7694 0.0000 0.0000 0.0000
# 3 10.5429 9.7694 114.7848 0.0000 0.0000 0.0000
# 4 0.0000 0.0000 0.0000 -15.5494 0.0000 0.0000
# 5 0.0000 0.0000 0.0000 0.0000 25.2212 0.0000
# 6 0.0000 0.0000 0.0000 0.0000 0.0000 -4.0219
#
#
#
# Elastic Compliance Matrix: (Units=1/GPa)
#
#
# Indices 1 2 3 4 5 6 
#
# 1 0.014246 -0.002812 -0.001069 0.000000 0.000000 0.000000
# 2 -0.002812 0.008522 -0.000467 0.000000 0.000000 0.000000
# 3 -0.001069 -0.000467 0.008850 0.000000 0.000000 0.000000
# 4 0.000000 0.000000 0.000000 -0.064311 0.000000 0.000000
# 5 0.000000 0.000000 0.000000 0.000000 0.039649 0.000000
# 6 0.000000 0.000000 0.000000 0.000000 0.000000 -0.248640
#
#
# Mechanical properties :
#
#
# Convention : Reuss Voigt Hill
#
# Bulk Modulus (GPa) = 43.62932 45.46486 44.54709
# Shear Modulus (GPa) = -22.18795 19.21056 -1.48869
#
# Velocity S-wave (km/s) = -2.97620 2.76932 -0.77092
# Velocity P-wave (km/s) = 2.36794 5.32690 4.12207
#
# Compressibility (1/GPa) = 0.02292036
#
# Stress axis : x y z
#
# Youngs Moduli (GPa) = 70.19540 117.34850 112.99567
#
# Poissons Ratio (x) = 0.33004 0.12080
# Poissons Ratio (y) = 0.19742 0.05276
# Poissons Ratio (z) = 0.07505 0.05480
#
# Static dielectric constant tensor:
#      x y z
#    x 2.127950 0.000000 0.000000 
#    y 0.000000 2.059490 0.000000 
#    z 0.000000 0.000000 2.007590 
# 
# From -- ./inp_files/4686.got.cif
#   From: 2010.05.17/outbox.cif.g08.bks.cpg/sg56_3_cif.got.tgz:4686.got - 2010.06.03 13:42:01.
