data_PCOD9432120
_publ_section_title
;
Structure prediction by ZEFSAII (Michael W. Deem and Ramdas Pophale) SiO2 
 PCOD9432120
Probable space group: P C C N
;
_chemical_formula_sum "Si O2"
_cell_formula_units_Z 40
_cell_length_a 10.445518
_cell_length_b 9.485358
_cell_length_c 16.424798
_cell_angle_alpha 90.000000
_cell_angle_beta 90.000000
_cell_angle_gamma 90.000000
_cell_volume 1627.360408
_symmetry_space_group_name_H-M "P C C N"
_symmetry_group_IT_number 56
_symmetry_cell_setting 'orthorhombic'
loop_
_space_group_symop_operation_xyz
x,y,z
1/2-x,1/2-y,z
1/2+x,-y,1/2-z
-x,1/2+y,1/2-z
-x,-y,-z
1/2+x,1/2+y,-z
1/2-x,y,1/2+z
x,1/2-y,1/2+z
loop_
_atom_site_type_symbol
_atom_site_label
_atom_site_fract_x
_atom_site_fract_y
_atom_site_fract_z
Si Si1 0.499531 0.671731 0.503888
Si Si2 0.612506 0.995852 0.321229
Si Si3 0.750000 0.250000 0.757077
Si Si4 0.862780 0.398239 0.603765
Si Si5 0.346295 0.376647 0.350842
Si Si6 0.750000 0.750000 0.403327
O O1 0.500000 0.500000 0.500000
O O2 0.391467 0.774355 0.463070
O O3 0.539650 0.689621 0.597071
O O4 0.625978 0.719399 0.455862
O O5 0.493542 0.983704 0.381899
O O6 0.591888 0.952620 0.226848
O O7 0.718761 0.886084 0.350934
O O8 0.674822 0.145810 0.314048
O O9 0.843303 0.324735 0.691800
O O10 0.742656 0.507268 0.599961
O O11 0.250000 0.250000 0.328146
#
# Coordination Sequence:
#
# PCOD9432120 Si02
#       6
#     8   8   4   8   8   4
#     4  11  23  43  67  92 135 181 218 277 343 397
#     4  10  22  41  68  96 134 172 221 283 341 402
#     4  10  22  40  66 104 128 168 232 280 332 406
#     4  10  24  42  68  98 137 176 229 281 340 415
#     4  11  23  42  68  98 132 177 231 277 341 412
#     4  10  22  44  62  98 132 174 224 270 336 416
#
# _framework density 24.57968
#
# number of rings (size 3 to 8) (size 9 to 14) (size 15 to 20)
#    0.000    1.600    2.000    2.400    2.800    5.600 
#    0.000    0.000    0.000    1.200    0.000    0.000 
#    0.000    0.000    0.000    0.000    0.000    0.000 
#
# Total GULP energy -223428.556471 kJ/mol
# GULP energy per Si atom -5585.713912 kJ/mol
# Density = 2.452374 g / cm^3
# Si number density = 24.579680 Si / 1000 Ang^3
#
#
#
# Elastic Constant Matrix: (Units=GPa)
#
#
# Indices 1 2 3 4 5 6 
#
# 1 94.5771 55.2604 43.1337 0.0000 0.0000 0.0000
# 2 55.2604 167.5701 45.7326 0.0000 0.0000 0.0000
# 3 43.1337 45.7326 76.1604 0.0000 0.0000 0.0000
# 4 0.0000 0.0000 0.0000 36.5352 0.0000 0.0000
# 5 0.0000 0.0000 0.0000 0.0000 25.3036 0.0000
# 6 0.0000 0.0000 0.0000 0.0000 0.0000 40.6799
#
#
#
# Elastic Compliance Matrix: (Units=1/GPa)
#
#
# Indices 1 2 3 4 5 6 
#
# 1 0.015626 -0.003274 -0.006884 0.000000 0.000000 0.000000
# 2 -0.003274 0.007823 -0.002843 0.000000 0.000000 0.000000
# 3 -0.006884 -0.002843 0.018736 0.000000 0.000000 0.000000
# 4 0.000000 0.000000 0.000000 0.027371 0.000000 0.000000
# 5 0.000000 0.000000 0.000000 0.000000 0.039520 0.000000
# 6 0.000000 0.000000 0.000000 0.000000 0.000000 0.024582
#
#
# Mechanical properties :
#
#
# Convention : Reuss Voigt Hill
#
# Bulk Modulus (GPa) = 61.79395 69.61790 65.70592
# Shear Modulus (GPa) = 30.29281 33.44913 31.87097
#
# Velocity S-wave (km/s) = 3.51441 3.69296 3.60479
# Velocity P-wave (km/s) = 6.45468 6.82414 6.64198
#
# Compressibility (1/GPa) = 0.01618281
#
# Stress axis : x y z
#
# Youngs Moduli (GPa) = 63.99598 127.82059 53.37294
#
# Poissons Ratio (x) = 0.41854 0.36740
# Poissons Ratio (y) = 0.20955 0.15176
# Poissons Ratio (z) = 0.44052 0.36344
#
# Static dielectric constant tensor:
#      x y z
#    x 2.058020 0.000000 0.000000 
#    y 0.000000 1.931640 0.000000 
#    z 0.000000 0.000000 1.978270 
# 
# From -- ./inp_files/15460.got.cif
#   From: 2010.05.17/outbox.cif.g08.bks.cpg/sg56_8_cif.got.tgz:15460.got - 2010.06.03 13:42:01.
