data_PCOD9432811
_publ_section_title
;
Structure prediction by ZEFSAII (Michael W. Deem and Ramdas Pophale) SiO2 
 PCOD9432811
Probable space group: P C C N
;
_chemical_formula_sum "Si O2"
_cell_formula_units_Z 28
_cell_length_a 7.225531
_cell_length_b 5.880207
_cell_length_c 24.781158
_cell_angle_alpha 90.000000
_cell_angle_beta 90.000000
_cell_angle_gamma 90.000000
_cell_volume 1052.892374
_symmetry_space_group_name_H-M "P C C N"
_symmetry_group_IT_number 56
_symmetry_cell_setting 'orthorhombic'
loop_
_space_group_symop_operation_xyz
x,y,z
1/2-x,1/2-y,z
1/2+x,-y,1/2-z
-x,1/2+y,1/2-z
-x,-y,-z
1/2+x,1/2+y,-z
1/2-x,y,1/2+z
x,1/2-y,1/2+z
loop_
_atom_site_type_symbol
_atom_site_label
_atom_site_fract_x
_atom_site_fract_y
_atom_site_fract_z
Si Si1 0.750000 0.250000 0.485378
Si Si2 0.750000 0.250000 0.265241
Si Si3 0.473293 0.392408 0.071241
Si Si4 0.027020 0.405246 0.177429
Si Si5 0.250000 0.250000 0.878552
O O1 0.928712 0.246018 0.524371
O O2 0.792842 0.471470 0.449048
O O3 0.926035 0.279191 0.226561
O O4 0.709875 0.468465 0.301926
O O5 0.453646 0.251983 0.125571
O O6 0.624128 0.587149 0.085229
O O7 0.884873 0.601613 0.158458
#
# Coordination Sequence:
#
# PCOD9432811 Si02
#       5
#     4   4   8   8   4
#     4  10  23  51  84 122 158 224 266 332 424 470
#     4  12  27  51  86 110 168 218 272 330 432 468
#     4  11  24  50  82 121 165 208 276 338 396 495
#     4  12  26  53  78 121 160 213 268 348 395 496
#     4  12  22  48  78 116 166 202 262 342 394 472
#
# _framework density 26.593413999999999
#
# number of rings (size 3 to 8) (size 9 to 14) (size 15 to 20)
#    0.000    0.571    5.714    1.714    0.000    2.286 
#    5.143    0.000    0.000    1.714    0.000    0.000 
#    0.000    0.000    0.000    0.000    0.000    0.000 
#
# Total GULP energy -157381.412559 kJ/mol
# GULP energy per Si atom -5620.764734 kJ/mol
# Density = 2.653289 g / cm^3
# Si number density = 26.593414 Si / 1000 Ang^3
#
#
#
# Elastic Constant Matrix: (Units=GPa)
#
#
# Indices 1 2 3 4 5 6 
#
# 1 128.9778 74.9682 71.2238 0.0000 0.0000 0.0000
# 2 74.9682 146.3722 117.7879 0.0000 0.0000 0.0000
# 3 71.2238 117.7879 209.2347 0.0000 0.0000 0.0000
# 4 0.0000 0.0000 0.0000 70.0038 0.0000 0.0000
# 5 0.0000 0.0000 0.0000 0.0000 47.5939 0.0000
# 6 0.0000 0.0000 0.0000 0.0000 0.0000 81.7899
#
#
#
# Elastic Compliance Matrix: (Units=1/GPa)
#
#
# Indices 1 2 3 4 5 6 
#
# 1 0.011168 -0.004864 -0.001063 0.000000 0.000000 0.000000
# 2 -0.004864 0.014609 -0.006568 0.000000 0.000000 0.000000
# 3 -0.001063 -0.006568 0.008839 0.000000 0.000000 0.000000
# 4 0.000000 0.000000 0.000000 0.014285 0.000000 0.000000
# 5 0.000000 0.000000 0.000000 0.000000 0.021011 0.000000
# 6 0.000000 0.000000 0.000000 0.000000 0.000000 0.012226
#
#
# Mechanical properties :
#
#
# Convention : Reuss Voigt Hill
#
# Bulk Modulus (GPa) = 103.90662 112.50494 108.20578
# Shear Modulus (GPa) = 45.31575 54.58450 49.95012
#
# Velocity S-wave (km/s) = 4.13246 4.53543 4.33863
# Velocity P-wave (km/s) = 7.86935 8.35609 8.11637
#
# Compressibility (1/GPa) = 0.00962403
#
# Stress axis : x y z
#
# Youngs Moduli (GPa) = 89.54364 68.45215 113.13831
#
# Poissons Ratio (x) = 0.33297 0.12029
# Poissons Ratio (y) = 0.43557 0.74311
# Poissons Ratio (z) = 0.09520 0.44960
#
# Static dielectric constant tensor:
#      x y z
#    x 2.096320 0.000000 0.000000 
#    y 0.000000 2.104640 0.000000 
#    z 0.000000 0.000000 2.005730 
# 
# From -- ./inp_files/21908.got.cif
#   From: 2010.05.17/outbox.cif.g08.bks.cpg/sg56_11_cif.got.tgz:21908.got - 2010.06.03 13:42:01.
