data_PCOD9432462
_publ_section_title
;
Structure prediction by ZEFSAII (Michael W. Deem and Ramdas Pophale) SiO2 
 PCOD9432462
Probable space group: P C C N
;
_chemical_formula_sum "Si O2"
_cell_formula_units_Z 56
_cell_length_a 24.223136
_cell_length_b 9.236875
_cell_length_c 10.751980
_cell_angle_alpha 90.000000
_cell_angle_beta 90.000000
_cell_angle_gamma 90.000000
_cell_volume 2405.713370
_symmetry_space_group_name_H-M "P C C N"
_symmetry_group_IT_number 56
_symmetry_cell_setting 'orthorhombic'
loop_
_space_group_symop_operation_xyz
x,y,z
1/2-x,1/2-y,z
1/2+x,-y,1/2-z
-x,1/2+y,1/2-z
-x,-y,-z
1/2+x,1/2+y,-z
1/2-x,y,1/2+z
x,1/2-y,1/2+z
loop_
_atom_site_type_symbol
_atom_site_label
_atom_site_fract_x
_atom_site_fract_y
_atom_site_fract_z
Si Si1 0.425385 0.592810 0.061028
Si Si2 0.133334 0.196090 0.990720
Si Si3 0.480979 0.606446 0.814536
Si Si4 0.334858 0.755155 0.163512
Si Si5 0.750000 0.750000 0.895787
Si Si6 0.258072 0.533390 0.767973
Si Si7 0.250000 0.750000 0.963485
Si Si8 0.426375 0.328209 0.729181
O O1 0.380325 0.470424 0.025386
O O2 0.446528 0.663628 0.933415
O O3 0.396412 0.701886 0.155783
O O4 0.474445 0.503988 0.123517
O O5 0.112755 0.211356 0.847889
O O6 0.196423 0.236588 0.016769
O O7 0.099425 0.286715 0.095549
O O8 0.443876 0.496148 0.735355
O O9 0.518619 0.729328 0.754319
O O10 0.309018 0.769037 0.027760
O O11 0.292412 0.636791 0.220792
O O12 0.317682 0.902861 0.228269
O O13 0.751473 0.615669 0.800283
O O14 0.256329 0.585925 0.908745
#
# Coordination Sequence:
#
# PCOD9432462 Si02
#       8
#     8   8   8   8   4   8   4   8
#     4   9  17  39  64  85 119 172 204 256 327 385
#     4  10  23  40  65  90 134 165 211 254 336 384
#     4   9  20  38  65  88 120 162 211 258 330 381
#     4   9  17  38  59  82 117 155 209 264 301 369
#     4  12  22  42  58  94 128 178 202 254 324 412
#     4   9  20  36  55  83 122 161 205 253 309 383
#     4   8  18  36  56  82 118 160 202 272 304 370
#     4  10  22  46  62  93 123 166 213 276 315 396
#
# _framework density 23.277920999999999
#
# number of rings (size 3 to 8) (size 9 to 14) (size 15 to 20)
#    0.000    2.857    1.429    0.857    0.000    3.429 
#   15.429    0.000    0.000    0.000    0.000    0.000 
#    0.000    0.000    0.000    0.000    0.000    0.000 
#
# Total GULP energy -312223.449787 kJ/mol
# GULP energy per Si atom -5575.418746 kJ/mol
# Density = 2.322494 g / cm^3
# Si number density = 23.277921 Si / 1000 Ang^3
#
#
#
# Elastic Constant Matrix: (Units=GPa)
#
#
# Indices 1 2 3 4 5 6 
#
# 1 108.0349 10.6781 4.5516 0.0000 0.0000 0.0000
# 2 10.6781 65.0362 4.9856 0.0000 0.0000 0.0000
# 3 4.5516 4.9856 29.6916 0.0000 0.0000 0.0000
# 4 0.0000 0.0000 0.0000 9.0973 0.0000 0.0000
# 5 0.0000 0.0000 0.0000 0.0000 340.4147 0.0000
# 6 0.0000 0.0000 0.0000 0.0000 0.0000 27.7681
#
#
#
# Elastic Compliance Matrix: (Units=1/GPa)
#
#
# Indices 1 2 3 4 5 6 
#
# 1 0.009451 -0.001459 -0.001204 0.000000 0.000000 0.000000
# 2 -0.001459 0.015802 -0.002430 0.000000 0.000000 0.000000
# 3 -0.001204 -0.002430 0.034272 0.000000 0.000000 0.000000
# 4 0.000000 0.000000 0.000000 0.109923 0.000000 0.000000
# 5 0.000000 0.000000 0.000000 0.000000 0.002938 0.000000
# 6 0.000000 0.000000 0.000000 0.000000 0.000000 0.036013
#
#
# Mechanical properties :
#
#
# Convention : Reuss Voigt Hill
#
# Bulk Modulus (GPa) = 20.26777 27.02150 23.64464
# Shear Modulus (GPa) = 21.27383 87.62584 54.44983
#
# Velocity S-wave (km/s) = 3.02637 6.14207 4.84169
# Velocity P-wave (km/s) = 4.57577 7.86978 6.43705
#
# Compressibility (1/GPa) = 0.04933941
#
# Stress axis : x y z
#
# Youngs Moduli (GPa) = 105.80620 63.28343 29.17830
#
# Poissons Ratio (x) = 0.09236 0.03512
# Poissons Ratio (y) = 0.15442 0.07089
# Poissons Ratio (z) = 0.12737 0.15376
#
# Static dielectric constant tensor:
#      x y z
#    x 1.901800 0.000000 0.000000 
#    y 0.000000 1.886180 0.000000 
#    z 0.000000 0.000000 2.011210 
# 
# From -- ./inp_files/8949.got.cif
#   From: 2010.05.17/outbox.cif.g08.bks.cpg/sg56_5_cif.got.tgz:8949.got - 2010.06.03 13:42:01.
