data_PCOD9432916
_publ_section_title
;
Structure prediction by ZEFSAII (Michael W. Deem and Ramdas Pophale) SiO2 
 PCOD9432916
Probable space group: P C C N
;
_chemical_formula_sum "Si O2"
_cell_formula_units_Z 32
_cell_length_a 13.929372
_cell_length_b 8.153556
_cell_length_c 9.477077
_cell_angle_alpha 90.000000
_cell_angle_beta 90.000000
_cell_angle_gamma 90.000000
_cell_volume 1076.348734
_symmetry_space_group_name_H-M "P C C N"
_symmetry_group_IT_number 56
_symmetry_cell_setting 'orthorhombic'
loop_
_space_group_symop_operation_xyz
x,y,z
1/2-x,1/2-y,z
1/2+x,-y,1/2-z
-x,1/2+y,1/2-z
-x,-y,-z
1/2+x,1/2+y,-z
1/2-x,y,1/2+z
x,1/2-y,1/2+z
loop_
_atom_site_type_symbol
_atom_site_label
_atom_site_fract_x
_atom_site_fract_y
_atom_site_fract_z
Si Si1 0.557552 0.559535 0.841082
Si Si2 0.190647 0.452444 0.900479
Si Si3 0.399098 0.737088 0.015935
Si Si4 0.626645 0.545152 0.294027
O O1 0.661179 0.354565 0.587599
O O2 0.477431 0.435687 0.777789
O O3 0.617004 0.628662 0.711192
O O4 0.630969 0.441161 0.926381
O O5 0.167247 0.383116 0.056887
O O6 0.105184 0.641637 0.149137
O O7 0.291516 0.441614 0.822678
O O8 0.497981 0.685252 0.937786
#
# Coordination Sequence:
#
# PCOD9432916 Si02
#       4
#     8   8   8   8
#     4  11  21  42  62  98 142 172 220 274 338 400
#     4  10  24  43  68 105 134 170 224 284 336 391
#     4   9  24  36  66  97 134 176 212 275 338 391
#     4  10  24  43  68 105 134 170 224 284 336 391
#
# _framework density 29.730141
#
# number of rings (size 3 to 8) (size 9 to 14) (size 15 to 20)
#    1.500    0.500    0.000    2.250    7.000    6.000 
#    0.000    0.000    0.000    9.000    0.000    0.000 
#    0.000    0.000    0.000    0.000    0.000    0.000 
#
# Total GULP energy -178808.814456 kJ/mol
# GULP energy per Si atom -5587.775452 kJ/mol
# Density = 2.966247 g / cm^3
# Si number density = 29.730141 Si / 1000 Ang^3
#
#
#
# Elastic Constant Matrix: (Units=GPa)
#
#
# Indices 1 2 3 4 5 6 
#
# 1 150.4823 45.9649 63.5006 0.0000 0.0000 0.0000
# 2 45.9649 117.1323 11.7419 0.0000 0.0000 0.0000
# 3 63.5006 11.7419 225.5402 0.0000 0.0000 0.0000
# 4 0.0000 0.0000 0.0000 17.8350 0.0000 0.0000
# 5 0.0000 0.0000 0.0000 0.0000 49.5693 0.0000
# 6 0.0000 0.0000 0.0000 0.0000 0.0000 74.0171
#
#
#
# Elastic Compliance Matrix: (Units=1/GPa)
#
#
# Indices 1 2 3 4 5 6 
#
# 1 0.008548 -0.003129 -0.002244 0.000000 0.000000 0.000000
# 2 -0.003129 0.009728 0.000375 0.000000 0.000000 0.000000
# 3 -0.002244 0.000375 0.005046 0.000000 0.000000 0.000000
# 4 0.000000 0.000000 0.000000 0.056070 0.000000 0.000000
# 5 0.000000 0.000000 0.000000 0.000000 0.020174 0.000000
# 6 0.000000 0.000000 0.000000 0.000000 0.000000 0.013510
#
#
# Mechanical properties :
#
#
# Convention : Reuss Voigt Hill
#
# Bulk Modulus (GPa) = 75.04833 81.72994 78.38914
# Shear Modulus (GPa) = 39.21127 53.08078 46.14602
#
# Velocity S-wave (km/s) = 3.63561 4.23001 3.94402
# Velocity P-wave (km/s) = 6.55146 7.16991 6.86765
#
# Compressibility (1/GPa) = 0.01332475
#
# Stress axis : x y z
#
# Youngs Moduli (GPa) = 116.98613 102.79751 198.17586
#
# Poissons Ratio (x) = 0.32170 0.44466
# Poissons Ratio (y) = 0.36611 -0.07425
# Poissons Ratio (z) = 0.26249 -0.03851
#
# Static dielectric constant tensor:
#      x y z
#    x 2.282950 0.000000 0.000000 
#    y 0.000000 2.635510 0.000000 
#    z 0.000000 0.000000 2.329730 
# 
# From -- ./inp_files/7551.got.cif
#   From: 2010.05.17/outbox.cif.g08.bks.cpg/sg56_4_cif.got.tgz:7551.got - 2010.06.03 13:42:01.
