data_PCOD9432132
_publ_section_title
;
Structure prediction by ZEFSAII (Michael W. Deem and Ramdas Pophale) SiO2 
 PCOD9432132
Probable space group: P C C N
;
_chemical_formula_sum "Si O2"
_cell_formula_units_Z 40
_cell_length_a 16.046171
_cell_length_b 7.633877
_cell_length_c 13.348495
_cell_angle_alpha 90.000000
_cell_angle_beta 90.000000
_cell_angle_gamma 90.000000
_cell_volume 1635.117164
_symmetry_space_group_name_H-M "P C C N"
_symmetry_group_IT_number 56
_symmetry_cell_setting 'orthorhombic'
loop_
_space_group_symop_operation_xyz
x,y,z
1/2-x,1/2-y,z
1/2+x,-y,1/2-z
-x,1/2+y,1/2-z
-x,-y,-z
1/2+x,1/2+y,-z
1/2-x,y,1/2+z
x,1/2-y,1/2+z
loop_
_atom_site_type_symbol
_atom_site_label
_atom_site_fract_x
_atom_site_fract_y
_atom_site_fract_z
Si Si1 0.937675 0.366422 0.374898
Si Si2 0.233308 0.547649 0.654360
Si Si3 0.985124 0.717374 0.309884
Si Si4 0.600165 0.987898 0.949637
Si Si5 0.330305 0.132394 0.840558
O O1 0.854753 0.478171 0.400372
O O2 0.002102 0.528615 0.362671
O O3 0.931584 0.189023 0.438750
O O4 0.941036 0.282538 0.262508
O O5 0.250000 0.750000 0.640724
O O6 0.313127 0.456364 0.609992
O O7 0.216180 0.505067 0.768847
O O8 0.905676 0.702714 0.232037
O O9 0.962823 0.862133 0.391256
O O10 0.623585 0.937465 0.061880
O O11 0.250000 0.250000 0.869898
#
# Coordination Sequence:
#
# PCOD9432132 Si02
#       5
#     8   8   8   8   8
#     4  10  22  40  68  90 126 175 200 265 319 383
#     4   9  21  42  65  90 128 167 213 266 318 374
#     4  11  22  44  65  94 133 167 211 260 332 372
#     4  11  23  43  65  93 128 168 218 260 321 377
#     4  11  24  38  66  95 124 168 216 267 311 383
#
# _framework density 24.463077999999999
#
# number of rings (size 3 to 8) (size 9 to 14) (size 15 to 20)
#    0.000    1.600    4.000    0.000    5.600    3.200 
#    0.000    1.000    0.000    0.000    0.000    0.000 
#    0.000    0.000    0.000    0.000    0.000    0.000 
#
# Total GULP energy -223112.108647 kJ/mol
# GULP energy per Si atom -5577.802716 kJ/mol
# Density = 2.440740 g / cm^3
# Si number density = 24.463078 Si / 1000 Ang^3
#
#
#
# Elastic Constant Matrix: (Units=GPa)
#
#
# Indices 1 2 3 4 5 6 
#
# 1 103.0961 19.7043 59.7757 0.0000 0.0000 0.0000
# 2 19.7043 108.8781 32.7014 0.0000 0.0000 0.0000
# 3 59.7757 32.7014 134.9632 0.0000 0.0000 0.0000
# 4 0.0000 0.0000 0.0000 -7.2135 0.0000 0.0000
# 5 0.0000 0.0000 0.0000 0.0000 34.8955 0.0000
# 6 0.0000 0.0000 0.0000 0.0000 0.0000 38.3193
#
#
#
# Elastic Compliance Matrix: (Units=1/GPa)
#
#
# Indices 1 2 3 4 5 6 
#
# 1 0.013097 -0.000677 -0.005637 0.000000 0.000000 0.000000
# 2 -0.000677 0.009940 -0.002109 0.000000 0.000000 0.000000
# 3 -0.005637 -0.002109 0.010417 0.000000 0.000000 0.000000
# 4 0.000000 0.000000 0.000000 -0.138629 0.000000 0.000000
# 5 0.000000 0.000000 0.000000 0.000000 0.028657 0.000000
# 6 0.000000 0.000000 0.000000 0.000000 0.000000 0.026096
#
#
# Mechanical properties :
#
#
# Convention : Reuss Voigt Hill
#
# Bulk Modulus (GPa) = 60.20684 63.47781 61.84232
# Shear Modulus (GPa) = -178.32537 28.85066 -74.73736
#
# Velocity S-wave (km/s) = -8.54716 3.43790 -5.53330
# Velocity P-wave (km/s) = 8.52881 6.46248 3.93554
#
# Compressibility (1/GPa) = 0.01660941
#
# Stress axis : x y z
#
# Youngs Moduli (GPa) = 76.35130 100.59881 95.99812
#
# Poissons Ratio (x) = 0.06814 0.54112
# Poissons Ratio (y) = 0.05171 0.20242
# Poissons Ratio (z) = 0.43037 0.21212
#
# Static dielectric constant tensor:
#      x y z
#    x 2.102740 0.000000 0.000000 
#    y 0.000000 1.966890 0.000000 
#    z 0.000000 0.000000 1.916030 
# 
# From -- ./inp_files/6300.got.cif
#   From: 2010.05.17/outbox.cif.g08.bks.cpg/sg56_4_cif.got.tgz:6300.got - 2010.06.03 13:42:01.
