data_PCOD9432772
_publ_section_title
;
Structure prediction by ZEFSAII (Michael W. Deem and Ramdas Pophale) SiO2 
 PCOD9432772
Probable space group: P C C N
;
_chemical_formula_sum "Si O2"
_cell_formula_units_Z 40
_cell_length_a 19.943720
_cell_length_b 8.852199
_cell_length_c 9.244944
_cell_angle_alpha 90.000000
_cell_angle_beta 90.000000
_cell_angle_gamma 90.000000
_cell_volume 1632.155833
_symmetry_space_group_name_H-M "P C C N"
_symmetry_group_IT_number 56
_symmetry_cell_setting 'orthorhombic'
loop_
_space_group_symop_operation_xyz
x,y,z
1/2-x,1/2-y,z
1/2+x,-y,1/2-z
-x,1/2+y,1/2-z
-x,-y,-z
1/2+x,1/2+y,-z
1/2-x,y,1/2+z
x,1/2-y,1/2+z
loop_
_atom_site_type_symbol
_atom_site_label
_atom_site_fract_x
_atom_site_fract_y
_atom_site_fract_z
Si Si1 0.383759 0.638341 0.133827
Si Si2 0.493109 0.435200 0.658058
Si Si3 0.250000 0.750000 0.290783
Si Si4 0.250000 0.250000 0.711835
Si Si5 0.705116 0.552959 0.044349
Si Si6 0.475191 0.635601 0.900848
O O1 0.435565 0.586891 0.257354
O O2 0.317455 0.716528 0.197812
O O3 0.361506 0.495889 0.036851
O O4 0.423563 0.723456 0.005730
O O5 0.500000 0.500000 0.500000
O O6 0.450816 0.550652 0.756811
O O7 0.470674 0.260939 0.646583
O O8 0.236828 0.598558 0.385549
O O9 0.244641 0.384763 0.595471
O O10 0.301496 0.320224 0.830981
O O11 0.500000 0.500000 0.000000
#
# Coordination Sequence:
#
# PCOD9432772 Si02
#       6
#     8   8   4   4   8   8
#     4  11  24  45  72 109 140 196 254 305 374 460
#     4  11  23  46  73 103 145 191 244 322 376 447
#     4  12  24  44  80 106 146 198 264 302 380 472
#     4  10  24  46  66  94 156 186 234 316 366 448
#     4  11  23  46  67 103 142 193 242 304 372 459
#     4  10  23  46  71 103 144 187 249 307 377 449
#
# _framework density 24.507463999999999
#
# number of rings (size 3 to 8) (size 9 to 14) (size 15 to 20)
#    0.000    1.200    2.000    4.200    0.000    0.000 
#   18.000    0.000    0.000    0.000    0.000    0.000 
#    0.000    0.000    0.000    0.000    0.000    0.000 
#
# Total GULP energy -222752.496786 kJ/mol
# GULP energy per Si atom -5568.812420 kJ/mol
# Density = 2.445168 g / cm^3
# Si number density = 24.507464 Si / 1000 Ang^3
#
#
#
# Elastic Constant Matrix: (Units=GPa)
#
#
# Indices 1 2 3 4 5 6 
#
# 1 87.6659 24.2052 60.0977 0.0000 0.0000 0.0000
# 2 24.2052 137.4302 69.5525 0.0000 0.0000 0.0000
# 3 60.0977 69.5525 234.7781 0.0000 0.0000 0.0000
# 4 0.0000 0.0000 0.0000 56.9229 0.0000 0.0000
# 5 0.0000 0.0000 0.0000 0.0000 42.8860 0.0000
# 6 0.0000 0.0000 0.0000 0.0000 0.0000 23.7590
#
#
#
# Elastic Compliance Matrix: (Units=1/GPa)
#
#
# Indices 1 2 3 4 5 6 
#
# 1 0.013902 -0.000762 -0.003333 0.000000 0.000000 0.000000
# 2 -0.000762 0.008602 -0.002353 0.000000 0.000000 0.000000
# 3 -0.003333 -0.002353 0.005810 0.000000 0.000000 0.000000
# 4 0.000000 0.000000 0.000000 0.017568 0.000000 0.000000
# 5 0.000000 0.000000 0.000000 0.000000 0.023318 0.000000
# 6 0.000000 0.000000 0.000000 0.000000 0.000000 0.042089
#
#
# Mechanical properties :
#
#
# Convention : Reuss Voigt Hill
#
# Bulk Modulus (GPa) = 64.86149 85.28722 75.07435
# Shear Modulus (GPa) = 38.66295 45.11484 41.88890
#
# Velocity S-wave (km/s) = 3.97621 4.29518 4.13877
# Velocity P-wave (km/s) = 6.89955 7.71195 7.31703
#
# Compressibility (1/GPa) = 0.01541747
#
# Stress axis : x y z
#
# Youngs Moduli (GPa) = 71.93151 116.25857 172.12821
#
# Poissons Ratio (x) = 0.08856 0.57369
# Poissons Ratio (y) = 0.05479 0.40505
# Poissons Ratio (z) = 0.23974 0.27358
#
# Static dielectric constant tensor:
#      x y z
#    x 2.217470 0.000000 0.000000 
#    y 0.000000 2.367130 0.000000 
#    z 0.000000 0.000000 2.009740 
# 
# From -- ./inp_files/4697.got.cif
#   From: 2010.05.17/outbox.cif.g08.bks.cpg/sg56_3_cif.got.tgz:4697.got - 2010.06.03 13:42:01.
