data_PCOD9432832
_publ_section_title
;
Structure prediction by ZEFSAII (Michael W. Deem and Ramdas Pophale) SiO2 
 PCOD9432832
Probable space group: P C C N
;
_chemical_formula_sum "Si O2"
_cell_formula_units_Z 60
_cell_length_a 10.670251
_cell_length_b 28.777451
_cell_length_c 8.309293
_cell_angle_alpha 90.000000
_cell_angle_beta 90.000000
_cell_angle_gamma 90.000000
_cell_volume 2551.473323
_symmetry_space_group_name_H-M "P C C N"
_symmetry_group_IT_number 56
_symmetry_cell_setting 'orthorhombic'
loop_
_space_group_symop_operation_xyz
x,y,z
1/2-x,1/2-y,z
1/2+x,-y,1/2-z
-x,1/2+y,1/2-z
-x,-y,-z
1/2+x,1/2+y,-z
1/2-x,y,1/2+z
x,1/2-y,1/2+z
loop_
_atom_site_type_symbol
_atom_site_label
_atom_site_fract_x
_atom_site_fract_y
_atom_site_fract_z
Si Si1 0.670095 0.582372 0.349334
Si Si2 0.905672 0.537488 0.181596
Si Si3 0.250000 0.250000 0.413453
Si Si4 0.137274 0.903964 0.635340
Si Si5 0.866875 0.814368 0.345158
Si Si6 0.098744 0.791952 0.169378
Si Si7 0.620108 0.306771 0.210899
Si Si8 0.904618 0.427804 0.231853
O O1 0.800823 0.564976 0.281042
O O2 0.627940 0.549738 0.496725
O O3 0.682460 0.636063 0.402598
O O4 0.551388 0.580412 0.225593
O O5 0.892282 0.483412 0.217119
O O6 0.047494 0.555857 0.208246
O O7 0.293117 0.207051 0.305999
O O8 0.146264 0.226976 0.527531
O O9 0.086715 0.855991 0.711619
O O10 0.116761 0.906103 0.445013
O O11 0.285896 0.910121 0.665609
O O12 0.004556 0.821153 0.276414
O O13 0.061729 0.738319 0.203624
O O14 0.233976 0.800354 0.245777
O O15 0.099730 0.803701 0.980670
#
# Coordination Sequence:
#
# PCOD9432832 Si02
#       8
#     8   8   4   8   8   8   8   8
#     4  11  24  41  67  93 129 165 215 259 314 385
#     4  11  24  43  66  95 127 166 208 266 323 379
#     4  10  24  40  62  88 126 162 216 256 308 370
#     4  11  24  41  67  93 129 165 215 259 314 386
#     4  11  23  42  62  91 123 171 208 260 311 367
#     4  11  23  39  62  88 130 163 209 256 312 370
#     4  11  23  39  61  95 124 170 208 256 311 373
#     4  11  23  44  66  95 127 166 208 266 323 380
#
# _framework density 23.515823999999999
#
# number of rings (size 3 to 8) (size 9 to 14) (size 15 to 20)
#    0.000    1.067    0.000    8.000    0.000   10.667 
#    0.000    2.667    0.000    0.000    0.000    0.000 
#    0.000    0.000    0.000    0.000    0.000    0.000 
#
# Total GULP energy -335700.552565 kJ/mol
# GULP energy per Si atom -5595.009209 kJ/mol
# Density = 2.346230 g / cm^3
# Si number density = 23.515824 Si / 1000 Ang^3
#
#
#
# Elastic Constant Matrix: (Units=GPa)
#
#
# Indices 1 2 3 4 5 6 
#
# 1 48.9406 -11.2442 1.6748 0.0000 0.0000 0.0000
# 2 -11.2442 135.3316 4.9469 0.0000 0.0000 0.0000
# 3 1.6748 4.9469 31.6723 0.0000 0.0000 0.0000
# 4 0.0000 0.0000 0.0000 14.8173 0.0000 0.0000
# 5 0.0000 0.0000 0.0000 0.0000 10.9988 0.0000
# 6 0.0000 0.0000 0.0000 0.0000 0.0000 35.4816
#
#
#
# Elastic Compliance Matrix: (Units=1/GPa)
#
#
# Indices 1 2 3 4 5 6 
#
# 1 0.020891 0.001786 -0.001384 0.000000 0.000000 0.000000
# 2 0.001786 0.007584 -0.001279 0.000000 0.000000 0.000000
# 3 -0.001384 -0.001279 0.031846 0.000000 0.000000 0.000000
# 4 0.000000 0.000000 0.000000 0.067489 0.000000 0.000000
# 5 0.000000 0.000000 0.000000 0.000000 0.090919 0.000000
# 6 0.000000 0.000000 0.000000 0.000000 0.000000 0.028184
#
#
# Mechanical properties :
#
#
# Convention : Reuss Voigt Hill
#
# Bulk Modulus (GPa) = 17.07401 22.96661 20.02031
# Shear Modulus (GPa) = 18.64358 26.96400 22.80379
#
# Velocity S-wave (km/s) = 2.81874 3.38987 3.11741
# Velocity P-wave (km/s) = 4.22731 5.01092 4.63570
#
# Compressibility (1/GPa) = 0.05856853
#
# Stress axis : x y z
#
# Youngs Moduli (GPa) = 47.86823 131.84904 31.40081
#
# Poissons Ratio (x) = -0.23552 0.04345
# Poissons Ratio (y) = -0.08551 0.04016
# Poissons Ratio (z) = 0.06623 0.16865
#
# Static dielectric constant tensor:
#      x y z
#    x 1.787510 0.000000 0.000000 
#    y 0.000000 1.866040 0.000000 
#    z 0.000000 0.000000 1.864510 
# 
# From -- ./inp_files/2906.got.cif
#   From: 2010.05.17/outbox.cif.g08.bks.cpg/sg56_2_cif.got.tgz:2906.got - 2010.06.03 13:42:01.
