data_PCOD9432495
_publ_section_title
;
Structure prediction by ZEFSAII (Michael W. Deem and Ramdas Pophale) SiO2 
 PCOD9432495
Probable space group: P C C N
;
_chemical_formula_sum "Si O2"
_cell_formula_units_Z 56
_cell_length_a 5.061918
_cell_length_b 31.196260
_cell_length_c 14.271249
_cell_angle_alpha 90.000000
_cell_angle_beta 90.000000
_cell_angle_gamma 90.000000
_cell_volume 2253.614459
_symmetry_space_group_name_H-M "P C C N"
_symmetry_group_IT_number 56
_symmetry_cell_setting 'orthorhombic'
loop_
_space_group_symop_operation_xyz
x,y,z
1/2-x,1/2-y,z
1/2+x,-y,1/2-z
-x,1/2+y,1/2-z
-x,-y,-z
1/2+x,1/2+y,-z
1/2-x,y,1/2+z
x,1/2-y,1/2+z
loop_
_atom_site_type_symbol
_atom_site_label
_atom_site_fract_x
_atom_site_fract_y
_atom_site_fract_z
Si Si1 0.497134 0.126573 0.516438
Si Si2 0.507021 0.665940 0.567993
Si Si3 0.753161 0.955986 0.042092
Si Si4 0.870338 0.345792 0.725481
Si Si5 0.124872 0.567712 0.207067
Si Si6 0.250000 0.250000 0.890749
Si Si7 0.750000 0.250000 0.258582
Si Si8 0.870823 0.983066 0.854602
O O1 0.195326 0.137637 0.494798
O O2 0.494920 0.077539 0.480030
O O3 0.544714 0.137683 0.624202
O O4 0.706580 0.155145 0.458042
O O5 0.551977 0.660174 0.680470
O O6 0.618370 0.713078 0.547818
O O7 0.540790 0.934190 0.110602
O O8 0.671748 0.970045 0.937739
O O9 0.875395 0.997251 0.092977
O O10 0.785159 0.296175 0.708580
O O11 0.721273 0.388684 0.766739
O O12 0.918393 0.557504 0.289761
O O13 0.289033 0.524130 0.205682
O O14 0.496241 0.260666 0.823265
#
# Coordination Sequence:
#
# PCOD9432495 Si02
#       8
#     8   8   8   8   8   4   4   8
#     4  12  26  45  72 113 143 201 248 305 376 456
#     4  11  25  46  73 104 147 189 249 309 375 446
#     4  11  24  44  65  99 151 184 253 302 365 449
#     4  11  25  47  72 106 155 198 257 316 387 456
#     4  12  22  45  68 103 142 200 242 308 380 449
#     4  10  22  46  78 106 144 198 246 316 384 450
#     4  10  24  46  76 112 148 198 256 318 382 454
#     4  11  24  41  67 103 141 191 246 302 370 445
#
# _framework density 24.848967999999999
#
# number of rings (size 3 to 8) (size 9 to 14) (size 15 to 20)
#    0.000    0.857    4.286    3.000    0.000    4.571 
#    5.143    0.714    0.000    0.000    0.000    0.000 
#    0.000    0.000    0.000    0.000    0.000    0.000 
#
# Total GULP energy -312162.179610 kJ/mol
# GULP energy per Si atom -5574.324636 kJ/mol
# Density = 2.479241 g / cm^3
# Si number density = 24.848968 Si / 1000 Ang^3
#
#
#
# Elastic Constant Matrix: (Units=GPa)
#
#
# Indices 1 2 3 4 5 6 
#
# 1 38.5064 13.6089 -5.2661 0.0000 0.0000 0.0000
# 2 13.6089 173.7155 25.8174 0.0000 0.0000 0.0000
# 3 -5.2661 25.8174 107.9998 0.0000 0.0000 0.0000
# 4 0.0000 0.0000 0.0000 28.0472 0.0000 0.0000
# 5 0.0000 0.0000 0.0000 0.0000 17.9171 0.0000
# 6 0.0000 0.0000 0.0000 0.0000 0.0000 38.0146
#
#
#
# Elastic Compliance Matrix: (Units=1/GPa)
#
#
# Indices 1 2 3 4 5 6 
#
# 1 0.027078 -0.002403 0.001895 0.000000 0.000000 0.000000
# 2 -0.002403 0.006182 -0.001595 0.000000 0.000000 0.000000
# 3 0.001895 -0.001595 0.009733 0.000000 0.000000 0.000000
# 4 0.000000 0.000000 0.000000 0.035654 0.000000 0.000000
# 5 0.000000 0.000000 0.000000 0.000000 0.055813 0.000000
# 6 0.000000 0.000000 0.000000 0.000000 0.000000 0.026306
#
#
# Mechanical properties :
#
#
# Convention : Reuss Voigt Hill
#
# Bulk Modulus (GPa) = 25.78208 43.17135 34.47672
# Shear Modulus (GPa) = 28.10563 35.86654 31.98609
#
# Velocity S-wave (km/s) = 3.36677 3.80331 3.59168
# Velocity P-wave (km/s) = 5.05090 6.05789 5.57717
#
# Compressibility (1/GPa) = 0.03878663
#
# Stress axis : x y z
#
# Youngs Moduli (GPa) = 36.93030 161.76469 102.74399
#
# Poissons Ratio (x) = 0.38870 -0.19467
# Poissons Ratio (y) = 0.08874 0.16387
# Poissons Ratio (z) = -0.06997 0.25800
#
# Static dielectric constant tensor:
#      x y z
#    x 1.825760 0.000000 0.000000 
#    y 0.000000 2.158300 0.000000 
#    z 0.000000 0.000000 2.003560 
# 
# From -- ./inp_files/9854.got.cif
#   From: 2010.05.17/outbox.cif.g08.bks.cpg/sg56_5_cif.got.tgz:9854.got - 2010.06.03 13:42:01.
