data_PCOD9432069
_publ_section_title
;
Structure prediction by ZEFSAII (Michael W. Deem and Ramdas Pophale) SiO2 
 PCOD9432069
Probable space group: P C C N
;
_chemical_formula_sum "Si O2"
_cell_formula_units_Z 28
_cell_length_a 10.792639
_cell_length_b 7.461613
_cell_length_c 16.088109
_cell_angle_alpha 90.000000
_cell_angle_beta 90.000000
_cell_angle_gamma 90.000000
_cell_volume 1295.583389
_symmetry_space_group_name_H-M "P C C N"
_symmetry_group_IT_number 56
_symmetry_cell_setting 'orthorhombic'
loop_
_space_group_symop_operation_xyz
x,y,z
1/2-x,1/2-y,z
1/2+x,-y,1/2-z
-x,1/2+y,1/2-z
-x,-y,-z
1/2+x,1/2+y,-z
1/2-x,y,1/2+z
x,1/2-y,1/2+z
loop_
_atom_site_type_symbol
_atom_site_label
_atom_site_fract_x
_atom_site_fract_y
_atom_site_fract_z
Si Si1 0.571086 0.345469 0.581108
Si Si2 0.681817 0.492887 0.146400
Si Si3 0.250000 0.750000 0.206302
Si Si4 0.006889 0.706211 0.109917
O O1 0.707824 0.441970 0.581019
O O2 0.579089 0.158302 0.627315
O O3 0.520063 0.302743 0.489944
O O4 0.496703 0.495178 0.631442
O O5 0.733918 0.424054 0.234216
O O6 0.614235 0.682143 0.137154
O O7 0.129711 0.781869 0.150889
#
# Coordination Sequence:
#
# PCOD9432069 Si02
#       4
#     8   8   4   8
#     4   9  21  39  63  89 118 167 213 256 314 371
#     4  10  22  40  60  89 129 161 202 270 320 372
#     4  10  24  36  62  96 126 164 216 254 328 394
#     4  11  21  40  63  88 126 165 213 258 314 382
#
# _framework density 21.611885000000001
#
# number of rings (size 3 to 8) (size 9 to 14) (size 15 to 20)
#    0.000    2.286    0.000    3.429    8.000    0.000 
#    0.000    4.286    0.000    0.000    0.000    0.000 
#    0.000    0.000    0.000    0.000    0.000    0.000 
#
# Total GULP energy -156034.134013 kJ/mol
# GULP energy per Si atom -5572.647643 kJ/mol
# Density = 2.156270 g / cm^3
# Si number density = 21.611885 Si / 1000 Ang^3
#
#
#
# Elastic Constant Matrix: (Units=GPa)
#
#
# Indices 1 2 3 4 5 6 
#
# 1 92.6425 12.1180 38.8695 0.0000 0.0000 0.0000
# 2 12.1180 79.3802 37.2833 0.0000 0.0000 0.0000
# 3 38.8695 37.2833 53.5301 0.0000 0.0000 0.0000
# 4 0.0000 0.0000 0.0000 1.0107 0.0000 0.0000
# 5 0.0000 0.0000 0.0000 0.0000 15.7488 0.0000
# 6 0.0000 0.0000 0.0000 0.0000 0.0000 29.5949
#
#
#
# Elastic Compliance Matrix: (Units=1/GPa)
#
#
# Indices 1 2 3 4 5 6 
#
# 1 0.016603 0.004648 -0.015293 0.000000 0.000000 0.000000
# 2 0.004648 0.020024 -0.017322 0.000000 0.000000 0.000000
# 3 -0.015293 -0.017322 0.041850 0.000000 0.000000 0.000000
# 4 0.000000 0.000000 0.000000 0.989444 0.000000 0.000000
# 5 0.000000 0.000000 0.000000 0.000000 0.063497 0.000000
# 6 0.000000 0.000000 0.000000 0.000000 0.000000 0.033790
#
#
# Mechanical properties :
#
#
# Convention : Reuss Voigt Hill
#
# Bulk Modulus (GPa) = 44.35831 44.67715 44.51773
# Shear Modulus (GPa) = 4.06950 18.42301 11.24625
#
# Velocity S-wave (km/s) = 1.37371 2.92284 2.28364
# Velocity P-wave (km/s) = 4.80475 5.66639 5.25327
#
# Compressibility (1/GPa) = 0.02254369
#
# Stress axis : x y z
#
# Youngs Moduli (GPa) = 60.23149 49.94107 23.89477
#
# Poissons Ratio (x) = -0.23214 0.36543
# Poissons Ratio (y) = -0.27998 0.41390
# Poissons Ratio (z) = 0.92113 0.86506
#
# Static dielectric constant tensor:
#      x y z
#    x 1.868360 0.000000 0.000000 
#    y 0.000000 1.821720 0.000000 
#    z 0.000000 0.000000 1.774210 
# 
# From -- ./inp_files/11165.got.cif
#   From: 2010.05.17/outbox.cif.g08.bks.cpg/sg56_6_cif.got.tgz:11165.got - 2010.06.03 13:42:01.
