data_PCOD9432565
_publ_section_title
;
Structure prediction by ZEFSAII (Michael W. Deem and Ramdas Pophale) SiO2 
 PCOD9432565
Probable space group: P C C N
;
_chemical_formula_sum "Si O2"
_cell_formula_units_Z 32
_cell_length_a 7.047256
_cell_length_b 39.775821
_cell_length_c 5.234544
_cell_angle_alpha 90.000000
_cell_angle_beta 90.000000
_cell_angle_gamma 90.000000
_cell_volume 1467.297087
_symmetry_space_group_name_H-M "P C C N"
_symmetry_group_IT_number 56
_symmetry_cell_setting 'orthorhombic'
loop_
_space_group_symop_operation_xyz
x,y,z
1/2-x,1/2-y,z
1/2+x,-y,1/2-z
-x,1/2+y,1/2-z
-x,-y,-z
1/2+x,1/2+y,-z
1/2-x,y,1/2+z
x,1/2-y,1/2+z
loop_
_atom_site_type_symbol
_atom_site_label
_atom_site_fract_x
_atom_site_fract_y
_atom_site_fract_z
Si Si1 0.624116 0.167351 0.458845
Si Si2 0.876307 0.600936 0.468852
Si Si3 0.377529 0.966339 0.468022
Si Si4 0.536348 0.736252 0.892988
O O1 0.716602 0.169446 0.179578
O O2 0.515139 0.132395 0.492301
O O3 0.482234 0.198492 0.508455
O O4 0.718585 0.602477 0.690365
O O5 0.990740 0.566296 0.495292
O O6 0.221469 0.965781 0.691904
O O7 0.500000 0.000000 0.500000
O O8 0.750000 0.750000 0.854401
O O9 0.449041 0.740283 0.612783
#
# Coordination Sequence:
#
# PCOD9432565 Si02
#       4
#     8   8   8   8
#     4  12  26  44  68  99 133 170 222 284 340 394
#     4  12  26  44  71  99 136 183 228 269 339 400
#     4  12  24  44  71 103 145 179 229 278 330 393
#     4  10  23  40  66  91 128 167 219 264 344 395
#
# _framework density 21.808807000000002
#
# number of rings (size 3 to 8) (size 9 to 14) (size 15 to 20)
#    0.000    0.500    0.000    8.250    7.000    3.000 
#    0.000    0.000    0.000    0.000    0.000    0.000 
#    0.000    0.000    0.000    0.000    0.000    0.000 
#
# Total GULP energy -179213.184939 kJ/mol
# GULP energy per Si atom -5600.412029 kJ/mol
# Density = 2.175917 g / cm^3
# Si number density = 21.808807 Si / 1000 Ang^3
#
#
#
# Elastic Constant Matrix: (Units=GPa)
#
#
# Indices 1 2 3 4 5 6 
#
# 1 65.9583 32.6896 -21.1838 0.0000 0.0000 0.0000
# 2 32.6896 173.6239 -9.4128 0.0000 0.0000 0.0000
# 3 -21.1838 -9.4128 85.9186 0.0000 0.0000 0.0000
# 4 0.0000 0.0000 0.0000 32.1794 0.0000 0.0000
# 5 0.0000 0.0000 0.0000 0.0000 45.5656 0.0000
# 6 0.0000 0.0000 0.0000 0.0000 0.0000 62.9945
#
#
#
# Elastic Compliance Matrix: (Units=1/GPa)
#
#
# Indices 1 2 3 4 5 6 
#
# 1 0.018053 -0.003177 0.004103 0.000000 0.000000 0.000000
# 2 -0.003177 0.006353 -0.000087 0.000000 0.000000 0.000000
# 3 0.004103 -0.000087 0.012641 0.000000 0.000000 0.000000
# 4 0.000000 0.000000 0.000000 0.031076 0.000000 0.000000
# 5 0.000000 0.000000 0.000000 0.000000 0.021946 0.000000
# 6 0.000000 0.000000 0.000000 0.000000 0.000000 0.015874
#
#
# Mechanical properties :
#
#
# Convention : Reuss Voigt Hill
#
# Bulk Modulus (GPa) = 25.82252 36.63186 31.22719
# Shear Modulus (GPa) = 42.67167 49.70841 46.19004
#
# Velocity S-wave (km/s) = 4.42817 4.77936 4.60712
# Velocity P-wave (km/s) = 6.16531 6.87675 6.53073
#
# Compressibility (1/GPa) = 0.03872589
#
# Stress axis : x y z
#
# Youngs Moduli (GPa) = 55.39169 157.40767 79.10750
#
# Poissons Ratio (x) = 0.50002 -0.32459
# Poissons Ratio (y) = 0.17596 0.00690
# Poissons Ratio (z) = -0.22728 0.01373
#
# Static dielectric constant tensor:
#      x y z
#    x 1.557960 0.000000 0.000000 
#    y 0.000000 1.745490 0.000000 
#    z 0.000000 0.000000 1.816990 
# 
# From -- ./inp_files/129.got.cif
#   From: 2010.05.17/outbox.cif.g08.bks.cpg/sg56_1_cif.got.tgz:129.got - 2010.06.03 13:42:01.
