data_PCOD9432796
_publ_section_title
;
Structure prediction by ZEFSAII (Michael W. Deem and Ramdas Pophale) SiO2 
 PCOD9432796
Probable space group: P C C N
;
_chemical_formula_sum "Si O2"
_cell_formula_units_Z 48
_cell_length_a 5.343529
_cell_length_b 28.194640
_cell_length_c 13.360668
_cell_angle_alpha 90.000000
_cell_angle_beta 90.000000
_cell_angle_gamma 90.000000
_cell_volume 2012.903230
_symmetry_space_group_name_H-M "P C C N"
_symmetry_group_IT_number 56
_symmetry_cell_setting 'orthorhombic'
loop_
_space_group_symop_operation_xyz
x,y,z
1/2-x,1/2-y,z
1/2+x,-y,1/2-z
-x,1/2+y,1/2-z
-x,-y,-z
1/2+x,1/2+y,-z
1/2-x,y,1/2+z
x,1/2-y,1/2+z
loop_
_atom_site_type_symbol
_atom_site_label
_atom_site_fract_x
_atom_site_fract_y
_atom_site_fract_z
Si Si1 0.250000 0.250000 0.745240
Si Si2 0.867832 0.649134 0.330159
Si Si3 0.940623 0.576851 0.970441
Si Si4 0.750000 0.250000 0.379231
Si Si5 0.833196 0.600687 0.647558
Si Si6 0.894247 0.026928 0.720958
Si Si7 0.680864 0.344741 0.988980
O O1 0.246955 0.298753 0.682573
O O2 0.501998 0.251749 0.811267
O O3 0.715351 0.612553 0.399406
O O4 0.868782 0.623535 0.223004
O O5 0.118324 0.657094 0.393240
O O6 0.149912 0.609215 0.020714
O O7 0.057085 0.538966 0.895471
O O8 0.768203 0.563773 0.064667
O O9 0.715728 0.295833 0.448970
O O10 0.036432 0.574016 0.715616
O O11 0.945693 0.643534 0.582562
O O12 0.114560 0.990514 0.755054
#
# Coordination Sequence:
#
# PCOD9432796 Si02
#       7
#     4   8   8   4   8   8   8
#     4  12  26  44  68 102 146 186 244 296 348 402
#     4  10  24  42  68 101 141 192 239 292 352 416
#     4  10  25  44  73 101 141 191 234 292 363 426
#     4  12  28  44  72 108 144 192 248 288 340 424
#     4  10  23  48  70 100 145 187 235 294 364 424
#     4  11  28  47  74 108 140 179 241 298 360 436
#     4  11  25  43  73 101 145 194 239 291 352 421
#
# _framework density 23.846155
#
# number of rings (size 3 to 8) (size 9 to 14) (size 15 to 20)
#    0.000    1.333    1.667    1.000   16.333    2.667 
#    0.000    0.000    0.000    0.000    0.000    0.000 
#    0.000    0.000    0.000    0.000    0.000    0.000 
#
# Total GULP energy -268362.647412 kJ/mol
# GULP energy per Si atom -5590.888488 kJ/mol
# Density = 2.379188 g / cm^3
# Si number density = 23.846155 Si / 1000 Ang^3
#
#
#
# Elastic Constant Matrix: (Units=GPa)
#
#
# Indices 1 2 3 4 5 6 
#
# 1 52.5964 -15.7863 1.0943 0.0000 0.0000 0.0000
# 2 -15.7863 74.8475 -0.4379 0.0000 0.0000 0.0000
# 3 1.0943 -0.4379 98.6901 0.0000 0.0000 0.0000
# 4 0.0000 0.0000 0.0000 21.5155 0.0000 0.0000
# 5 0.0000 0.0000 0.0000 0.0000 31.0177 0.0000
# 6 0.0000 0.0000 0.0000 0.0000 0.0000 34.0111
#
#
#
# Elastic Compliance Matrix: (Units=1/GPa)
#
#
# Indices 1 2 3 4 5 6 
#
# 1 0.020302 0.004281 -0.000206 0.000000 0.000000 0.000000
# 2 0.004281 0.014263 0.000016 0.000000 0.000000 0.000000
# 3 -0.000206 0.000016 0.010135 0.000000 0.000000 0.000000
# 4 0.000000 0.000000 0.000000 0.046478 0.000000 0.000000
# 5 0.000000 0.000000 0.000000 0.000000 0.032240 0.000000
# 6 0.000000 0.000000 0.000000 0.000000 0.000000 0.029402
#
#
# Mechanical properties :
#
#
# Convention : Reuss Voigt Hill
#
# Bulk Modulus (GPa) = 18.91034 21.76380 20.33707
# Shear Modulus (GPa) = 30.81351 33.39311 32.10331
#
# Velocity S-wave (km/s) = 3.59859 3.74619 3.67313
# Velocity P-wave (km/s) = 5.02134 5.27812 5.15133
#
# Compressibility (1/GPa) = 0.05288113
#
# Stress axis : x y z
#
# Youngs Moduli (GPa) = 49.25672 70.10928 98.66713
#
# Poissons Ratio (x) = -0.30012 0.02034
# Poissons Ratio (y) = -0.21085 -0.00156
# Poissons Ratio (z) = 0.01015 -0.00111
#
# Static dielectric constant tensor:
#      x y z
#    x 1.846380 0.000000 0.000000 
#    y 0.000000 1.881620 0.000000 
#    z 0.000000 0.000000 1.892790 
# 
# From -- ./inp_files/9788.got.cif
#   From: 2010.05.17/outbox.cif.g08.bks.cpg/sg56_5_cif.got.tgz:9788.got - 2010.06.03 13:42:01.
