data_PCOD9432388
_publ_section_title
;
Structure prediction by ZEFSAII (Michael W. Deem and Ramdas Pophale) SiO2 
 PCOD9432388
Probable space group: P C C N
;
_chemical_formula_sum "Si O2"
_cell_formula_units_Z 48
_cell_length_a 11.703245
_cell_length_b 14.720146
_cell_length_c 9.675588
_cell_angle_alpha 90.000000
_cell_angle_beta 90.000000
_cell_angle_gamma 90.000000
_cell_volume 1666.847168
_symmetry_space_group_name_H-M "P C C N"
_symmetry_group_IT_number 56
_symmetry_cell_setting 'orthorhombic'
loop_
_space_group_symop_operation_xyz
x,y,z
1/2-x,1/2-y,z
1/2+x,-y,1/2-z
-x,1/2+y,1/2-z
-x,-y,-z
1/2+x,1/2+y,-z
1/2-x,y,1/2+z
x,1/2-y,1/2+z
loop_
_atom_site_type_symbol
_atom_site_label
_atom_site_fract_x
_atom_site_fract_y
_atom_site_fract_z
Si Si1 0.140250 0.491481 0.509146
Si Si2 0.860642 0.256386 0.915181
Si Si3 0.409859 0.194776 0.566734
Si Si4 0.485545 0.921619 0.189033
Si Si5 0.194775 0.904951 0.291870
Si Si6 0.057908 0.107323 0.601275
O O1 0.164274 0.382800 0.489620
O O2 0.047177 0.363753 0.694996
O O3 0.000000 0.500000 0.500000
O O4 0.172753 0.521160 0.666954
O O5 0.750000 0.250000 0.014956
O O6 0.979928 0.219429 0.973807
O O7 0.884510 0.353357 0.848914
O O8 0.789645 0.443629 0.598151
O O9 0.677259 0.184954 0.300608
O O10 0.378458 0.296611 0.619578
O O11 0.428171 0.020837 0.200421
O O12 0.570679 0.924093 0.057207
O O13 0.079313 0.885142 0.382231
#
# Coordination Sequence:
#
# PCOD9432388 Si02
#       6
#     8   8   8   8   8   8
#     4  12  29  50  83 127 177 224 287 373 449 526
#     4  11  26  42  74 126 163 209 288 378 435 514
#     4  11  23  46  77 116 167 228 271 354 454 523
#     4  10  22  43  74 117 161 215 277 355 440 519
#     4  12  27  48  77 130 166 219 290 360 444 536
#     4  10  23  44  78 120 162 226 289 353 439 539
#
# _framework density 28.796880999999999
#
# number of rings (size 3 to 8) (size 9 to 14) (size 15 to 20)
#    0.000    1.000    5.000    0.000    7.000    0.667 
#    0.000    0.000    0.000   11.000    4.333    0.000 
#    0.000    0.000    0.000    0.000    0.000    0.000 
#
# Total GULP energy -267937.505985 kJ/mol
# GULP energy per Si atom -5582.031375 kJ/mol
# Density = 2.873134 g / cm^3
# Si number density = 28.796881 Si / 1000 Ang^3
#
#
#
# Elastic Constant Matrix: (Units=GPa)
#
#
# Indices 1 2 3 4 5 6 
#
# 1 90.2907 8.6134 2.7872 0.0000 0.0000 0.0000
# 2 8.6134 294.7391 22.1784 0.0000 0.0000 0.0000
# 3 2.7872 22.1784 128.1085 0.0000 0.0000 0.0000
# 4 0.0000 0.0000 0.0000 41.3968 0.0000 0.0000
# 5 0.0000 0.0000 0.0000 0.0000 34.3772 0.0000
# 6 0.0000 0.0000 0.0000 0.0000 0.0000 46.2501
#
#
#
# Elastic Compliance Matrix: (Units=1/GPa)
#
#
# Indices 1 2 3 4 5 6 
#
# 1 0.011111 -0.000311 -0.000188 0.000000 0.000000 0.000000
# 2 -0.000311 0.003446 -0.000590 0.000000 0.000000 0.000000
# 3 -0.000188 -0.000590 0.007912 0.000000 0.000000 0.000000
# 4 0.000000 0.000000 0.000000 0.024156 0.000000 0.000000
# 5 0.000000 0.000000 0.000000 0.000000 0.029089 0.000000
# 6 0.000000 0.000000 0.000000 0.000000 0.000000 0.021622
#
#
# Mechanical properties :
#
#
# Convention : Reuss Voigt Hill
#
# Bulk Modulus (GPa) = 49.27964 64.47737 56.87851
# Shear Modulus (GPa) = 47.04681 56.37544 51.71113
#
# Velocity S-wave (km/s) = 4.04635 4.42938 4.24219
# Velocity P-wave (km/s) = 6.24344 6.97124 6.61736
#
# Compressibility (1/GPa) = 0.02029236
#
# Stress axis : x y z
#
# Youngs Moduli (GPa) = 90.00280 290.16685 126.38884
#
# Poissons Ratio (x) = 0.09011 0.02376
# Poissons Ratio (y) = 0.02795 0.07455
# Poissons Ratio (z) = 0.01692 0.17116
#
# Static dielectric constant tensor:
#      x y z
#    x 2.650680 0.000000 0.000000 
#    y 0.000000 2.378390 0.000000 
#    z 0.000000 0.000000 2.478880 
# 
# From -- ./inp_files/8331.got.cif
#   From: 2010.05.17/outbox.cif.g08.bks.cpg/sg56_5_cif.got.tgz:8331.got - 2010.06.03 13:42:01.
