data_PCOD9432870
_publ_section_title
;
Structure prediction by ZEFSAII (Michael W. Deem and Ramdas Pophale) SiO2 
 PCOD9432870
Probable space group: P C C N
;
_chemical_formula_sum "Si O2"
_cell_formula_units_Z 28
_cell_length_a 26.785114
_cell_length_b 5.151051
_cell_length_c 8.824996
_cell_angle_alpha 90.000000
_cell_angle_beta 90.000000
_cell_angle_gamma 90.000000
_cell_volume 1217.597832
_symmetry_space_group_name_H-M "P C C N"
_symmetry_group_IT_number 56
_symmetry_cell_setting 'orthorhombic'
loop_
_space_group_symop_operation_xyz
x,y,z
1/2-x,1/2-y,z
1/2+x,-y,1/2-z
-x,1/2+y,1/2-z
-x,-y,-z
1/2+x,1/2+y,-z
1/2-x,y,1/2+z
x,1/2-y,1/2+z
loop_
_atom_site_type_symbol
_atom_site_label
_atom_site_fract_x
_atom_site_fract_y
_atom_site_fract_z
Si Si1 0.704825 0.432751 0.699407
Si Si2 0.591582 0.427377 0.735793
Si Si3 0.250000 0.250000 0.566219
Si Si4 0.055424 0.449672 0.435790
O O1 0.750000 0.250000 0.752209
O O2 0.648199 0.349783 0.689780
O O3 0.706246 0.657301 0.824306
O O4 0.725450 0.540768 0.542803
O O5 0.570374 0.671773 0.637806
O O6 0.561549 0.168747 0.693123
O O7 0.588588 0.495801 0.913721
O O8 0.000000 0.500000 0.500000
#
# Coordination Sequence:
#
# PCOD9432870 Si02
#       4
#     8   8   4   8
#     4  11  25  41  67  97 140 181 232 283 347 423
#     4  12  27  44  76 104 143 188 240 290 370 427
#     4  10  24  42  64  92 142 174 232 278 340 402
#     4  12  26  49  74 107 143 186 242 305 361 427
#
# _framework density 22.996100999999999
#
# number of rings (size 3 to 8) (size 9 to 14) (size 15 to 20)
#    0.000    0.571    0.000    6.857   16.000    0.000 
#    0.000    0.000    0.000    0.000    0.000    0.000 
#    0.000    0.000    0.000    0.000    0.000    0.000 
#
# Total GULP energy -156449.168076 kJ/mol
# GULP energy per Si atom -5587.470288 kJ/mol
# Density = 2.294376 g / cm^3
# Si number density = 22.996101 Si / 1000 Ang^3
#
#
#
# Elastic Constant Matrix: (Units=GPa)
#
#
# Indices 1 2 3 4 5 6 
#
# 1 88.9431 4.1151 -18.0659 0.0000 0.0000 0.0000
# 2 4.1151 84.3602 9.3316 0.0000 0.0000 0.0000
# 3 -18.0659 9.3316 100.8391 0.0000 0.0000 0.0000
# 4 0.0000 0.0000 0.0000 37.6732 0.0000 0.0000
# 5 0.0000 0.0000 0.0000 0.0000 125.4850 0.0000
# 6 0.0000 0.0000 0.0000 0.0000 0.0000 30.9302
#
#
#
# Elastic Compliance Matrix: (Units=1/GPa)
#
#
# Indices 1 2 3 4 5 6 
#
# 1 0.011723 -0.000812 0.002175 0.000000 0.000000 0.000000
# 2 -0.000812 0.012033 -0.001259 0.000000 0.000000 0.000000
# 3 0.002175 -0.001259 0.010423 0.000000 0.000000 0.000000
# 4 0.000000 0.000000 0.000000 0.026544 0.000000 0.000000
# 5 0.000000 0.000000 0.000000 0.000000 0.007969 0.000000
# 6 0.000000 0.000000 0.000000 0.000000 0.000000 0.032331
#
#
# Mechanical properties :
#
#
# Convention : Reuss Voigt Hill
#
# Bulk Modulus (GPa) = 29.08151 29.43376 29.25764
# Shear Modulus (GPa) = 44.53277 57.40179 50.96728
#
# Velocity S-wave (km/s) = 4.40538 5.00157 4.71291
# Velocity P-wave (km/s) = 6.20889 6.79570 6.50891
#
# Compressibility (1/GPa) = 0.03438611
#
# Stress axis : x y z
#
# Youngs Moduli (GPa) = 85.30545 83.10592 95.94137
#
# Poissons Ratio (x) = 0.06752 -0.20871
# Poissons Ratio (y) = 0.06931 0.12080
# Poissons Ratio (z) = -0.18557 0.10464
#
# Static dielectric constant tensor:
#      x y z
#    x 1.942860 0.000000 0.000000 
#    y 0.000000 1.889090 0.000000 
#    z 0.000000 0.000000 1.813730 
# 
# From -- ./inp_files/1520.got.cif
#   From: 2010.05.17/outbox.cif.g08.bks.cpg/sg56_1_cif.got.tgz:1520.got - 2010.06.03 13:42:01.
