data_PCOD9432979
_publ_section_title
;
Structure prediction by ZEFSAII (Michael W. Deem and Ramdas Pophale) SiO2 
 PCOD9432979
Probable space group: P C C N
;
_chemical_formula_sum "Si O2"
_cell_formula_units_Z 24
_cell_length_a 8.252201
_cell_length_b 14.133209
_cell_length_c 8.057240
_cell_angle_alpha 90.000000
_cell_angle_beta 90.000000
_cell_angle_gamma 90.000000
_cell_volume 939.716557
_symmetry_space_group_name_H-M "P C C N"
_symmetry_group_IT_number 56
_symmetry_cell_setting 'orthorhombic'
loop_
_space_group_symop_operation_xyz
x,y,z
1/2-x,1/2-y,z
1/2+x,-y,1/2-z
-x,1/2+y,1/2-z
-x,-y,-z
1/2+x,1/2+y,-z
1/2-x,y,1/2+z
x,1/2-y,1/2+z
loop_
_atom_site_type_symbol
_atom_site_label
_atom_site_fract_x
_atom_site_fract_y
_atom_site_fract_z
Si Si1 0.037745 0.564470 0.160619
Si Si2 0.584481 0.390089 0.834369
Si Si3 0.435051 0.230277 0.035806
O O1 0.224273 0.594099 0.163914
O O2 0.995631 0.493011 0.309093
O O3 0.936022 0.659094 0.124200
O O4 0.000000 0.500000 0.000000
O O5 0.525122 0.326863 0.987590
O O6 0.530822 0.326477 0.676809
O O7 0.250000 0.250000 0.078483
#
# Coordination Sequence:
#
# PCOD9432979 Si02
#       3
#     8   8   8
#     4  10  24  45  69 104 144 193 242 295 360 434
#     4  11  24  46  73 105 144 191 243 301 364 434
#     4  11  24  45  72 107 145 190 243 302 363 432
#
# _framework density 25.539615999999999
#
# number of rings (size 3 to 8) (size 9 to 14) (size 15 to 20)
#    0.000    1.333    0.000    4.000    0.000   13.333 
#    0.000   15.000    0.000    0.000    0.000    0.000 
#    0.000    0.000    0.000    0.000    0.000    0.000 
#
# Total GULP energy -134632.080975 kJ/mol
# GULP energy per Si atom -5609.670041 kJ/mol
# Density = 2.548149 g / cm^3
# Si number density = 25.539616 Si / 1000 Ang^3
#
#
#
# Elastic Constant Matrix: (Units=GPa)
#
#
# Indices 1 2 3 4 5 6 
#
# 1 234.9753 77.8552 67.5730 0.0000 0.0000 0.0000
# 2 77.8552 199.3406 65.7984 0.0000 0.0000 0.0000
# 3 67.5730 65.7984 105.5284 0.0000 0.0000 0.0000
# 4 0.0000 0.0000 0.0000 69.8796 0.0000 0.0000
# 5 0.0000 0.0000 0.0000 0.0000 45.6830 0.0000
# 6 0.0000 0.0000 0.0000 0.0000 0.0000 63.6409
#
#
#
# Elastic Compliance Matrix: (Units=1/GPa)
#
#
# Indices 1 2 3 4 5 6 
#
# 1 0.005445 -0.001229 -0.002721 0.000000 0.000000 0.000000
# 2 -0.001229 0.006594 -0.003325 0.000000 0.000000 0.000000
# 3 -0.002721 -0.003325 0.013291 0.000000 0.000000 0.000000
# 4 0.000000 0.000000 0.000000 0.014310 0.000000 0.000000
# 5 0.000000 0.000000 0.000000 0.000000 0.021890 0.000000
# 6 0.000000 0.000000 0.000000 0.000000 0.000000 0.015713
#
#
# Mechanical properties :
#
#
# Convention : Reuss Voigt Hill
#
# Bulk Modulus (GPa) = 92.74377 106.92195 99.83286
# Shear Modulus (GPa) = 52.41881 57.74855 55.08368
#
# Velocity S-wave (km/s) = 4.53531 4.76030 4.64917
# Velocity P-wave (km/s) = 7.98861 8.49529 8.24584
#
# Compressibility (1/GPa) = 0.01078240
#
# Stress axis : x y z
#
# Youngs Moduli (GPa) = 183.64574 151.65789 75.23806
#
# Poissons Ratio (x) = 0.18634 0.20470
# Poissons Ratio (y) = 0.22564 0.25013
# Poissons Ratio (z) = 0.49964 0.50419
#
# Static dielectric constant tensor:
#      x y z
#    x 1.850730 0.000000 0.000000 
#    y 0.000000 2.029520 0.000000 
#    z 0.000000 0.000000 2.214130 
# 
# From -- ./inp_files/1775.got.cif
#   From: 2010.05.17/outbox.cif.g08.bks.cpg/sg56_1_cif.got.tgz:1775.got - 2010.06.03 13:42:01.
