data_PCOD9432370
_publ_section_title
;
Structure prediction by ZEFSAII (Michael W. Deem and Ramdas Pophale) SiO2 
 PCOD9432370
Probable space group: P C C N
;
_chemical_formula_sum "Si O2"
_cell_formula_units_Z 40
_cell_length_a 10.907806
_cell_length_b 6.060044
_cell_length_c 23.801004
_cell_angle_alpha 90.000000
_cell_angle_beta 90.000000
_cell_angle_gamma 90.000000
_cell_volume 1573.288833
_symmetry_space_group_name_H-M "P C C N"
_symmetry_group_IT_number 56
_symmetry_cell_setting 'orthorhombic'
loop_
_space_group_symop_operation_xyz
x,y,z
1/2-x,1/2-y,z
1/2+x,-y,1/2-z
-x,1/2+y,1/2-z
-x,-y,-z
1/2+x,1/2+y,-z
1/2-x,y,1/2+z
x,1/2-y,1/2+z
loop_
_atom_site_type_symbol
_atom_site_label
_atom_site_fract_x
_atom_site_fract_y
_atom_site_fract_z
Si Si1 0.935984 0.192102 0.967394
Si Si2 0.627586 0.821996 0.859829
Si Si3 0.444508 0.173972 0.753719
Si Si4 0.250000 0.250000 0.850928
Si Si5 0.887114 0.447241 0.076217
Si Si6 0.250000 0.750000 0.125820
O O1 0.845127 0.138527 0.917455
O O2 0.045126 0.325993 0.938635
O O3 0.871008 0.338320 0.015568
O O4 0.000000 0.000000 0.000000
O O5 0.750000 0.750000 0.893536
O O6 0.625406 0.669124 0.805667
O O7 0.496092 0.819943 0.890310
O O8 0.662872 0.075577 0.843124
O O9 0.515865 0.412382 0.742399
O O10 0.365065 0.233990 0.808574
O O11 0.231223 0.472298 0.888704
#
# Coordination Sequence:
#
# PCOD9432370 Si02
#       6
#     8   8   8   4   8   4
#     4  10  22  43  69 103 149 192 256 322 395 484
#     4  11  23  44  73 101 147 203 260 320 401 476
#     4  12  29  52  77 113 160 209 265 331 407 485
#     4  12  26  50  78 116 162 210 272 342 404 502
#     4  10  24  45  67 111 148 199 262 326 405 475
#     4  10  24  40  70 104 138 200 252 310 400 470
#
# _framework density 25.424451000000001
#
# number of rings (size 3 to 8) (size 9 to 14) (size 15 to 20)
#    0.000    1.200    3.000    1.200    5.600    2.400 
#    7.200    0.000    0.000    0.000    0.000    0.000 
#    0.000    0.000    0.000    0.000    0.000    0.000 
#
# Total GULP energy -222902.731729 kJ/mol
# GULP energy per Si atom -5572.568293 kJ/mol
# Density = 2.536658 g / cm^3
# Si number density = 25.424451 Si / 1000 Ang^3
#
#
#
# Elastic Constant Matrix: (Units=GPa)
#
#
# Indices 1 2 3 4 5 6 
#
# 1 77.3674 27.1945 -2.9830 0.0000 0.0000 0.0000
# 2 27.1945 86.2252 0.1597 0.0000 0.0000 0.0000
# 3 -2.9830 0.1597 67.9836 0.0000 0.0000 0.0000
# 4 0.0000 0.0000 0.0000 -0.5867 0.0000 0.0000
# 5 0.0000 0.0000 0.0000 0.0000 45.8185 0.0000
# 6 0.0000 0.0000 0.0000 0.0000 0.0000 57.2494
#
#
#
# Elastic Compliance Matrix: (Units=1/GPa)
#
#
# Indices 1 2 3 4 5 6 
#
# 1 0.014566 -0.004595 0.000650 0.000000 0.000000 0.000000
# 2 -0.004595 0.013047 -0.000232 0.000000 0.000000 0.000000
# 3 0.000650 -0.000232 0.014739 0.000000 0.000000 0.000000
# 4 0.000000 0.000000 0.000000 -1.704369 0.000000 0.000000
# 5 0.000000 0.000000 0.000000 0.000000 0.021825 0.000000
# 6 0.000000 0.000000 0.000000 0.000000 0.000000 0.017467
#
#
# Mechanical properties :
#
#
# Convention : Reuss Voigt Hill
#
# Bulk Modulus (GPa) = 29.41483 31.14651 30.28067
# Shear Modulus (GPa) = -3.11908 34.30992 15.59542
#
# Velocity S-wave (km/s) = -1.10881 3.67752 2.47938
# Velocity P-wave (km/s) = 3.15521 5.50540 4.48691
#
# Compressibility (1/GPa) = 0.03399645
#
# Stress axis : x y z
#
# Youngs Moduli (GPa) = 68.65521 76.64494 67.84951
#
# Poissons Ratio (x) = 0.35218 -0.04410
# Poissons Ratio (y) = 0.31547 0.01576
# Poissons Ratio (z) = -0.04462 0.01780
#
# Static dielectric constant tensor:
#      x y z
#    x 2.839190 0.000000 0.000000 
#    y 0.000000 2.134260 0.000000 
#    z 0.000000 0.000000 1.949510 
# 
# From -- ./inp_files/22225.got.cif
#   From: 2010.05.17/outbox.cif.g08.bks.cpg/sg56_12_cif.got.tgz:22225.got - 2010.06.03 13:42:01.
