data_PCOD9432394
_publ_section_title
;
Structure prediction by ZEFSAII (Michael W. Deem and Ramdas Pophale) SiO2 
 PCOD9432394
Probable space group: P C C N
;
_chemical_formula_sum "Si O2"
_cell_formula_units_Z 28
_cell_length_a 15.186932
_cell_length_b 5.190623
_cell_length_c 14.351192
_cell_angle_alpha 90.000000
_cell_angle_beta 90.000000
_cell_angle_gamma 90.000000
_cell_volume 1131.299278
_symmetry_space_group_name_H-M "P C C N"
_symmetry_group_IT_number 56
_symmetry_cell_setting 'orthorhombic'
loop_
_space_group_symop_operation_xyz
x,y,z
1/2-x,1/2-y,z
1/2+x,-y,1/2-z
-x,1/2+y,1/2-z
-x,-y,-z
1/2+x,1/2+y,-z
1/2-x,y,1/2+z
x,1/2-y,1/2+z
loop_
_atom_site_type_symbol
_atom_site_label
_atom_site_fract_x
_atom_site_fract_y
_atom_site_fract_z
Si Si1 0.142770 0.021898 0.977113
Si Si2 0.473561 0.798858 0.097396
Si Si3 0.390655 0.180994 0.670666
Si Si4 0.750000 0.750000 0.169844
O O1 0.218718 0.026790 0.901215
O O2 0.069886 0.223970 0.938606
O O3 0.168937 0.118024 0.079692
O O4 0.088928 0.766249 0.007111
O O5 0.451556 0.571906 0.171091
O O6 0.445702 0.065941 0.142933
O O7 0.331260 0.198676 0.761253
#
# Coordination Sequence:
#
# PCOD9432394 Si02
#       4
#     8   8   8   4
#     4   9  22  43  69  96 126 186 213 277 325 410
#     4   9  21  45  71  84 134 171 233 258 330 387
#     4  10  22  44  62  98 129 172 216 290 310 407
#     4  12  24  42  64 106 140 168 222 276 358 382
#
# _framework density 24.750302000000001
#
# number of rings (size 3 to 8) (size 9 to 14) (size 15 to 20)
#    1.714    0.571    0.000    1.714    0.000    3.429 
#   10.286    0.000    0.000    0.000    0.000    0.000 
#    0.000    0.000    0.000    0.000    0.000    0.000 
#
# Total GULP energy -156099.921980 kJ/mol
# GULP energy per Si atom -5574.997214 kJ/mol
# Density = 2.469397 g / cm^3
# Si number density = 24.750302 Si / 1000 Ang^3
#
#
#
# Elastic Constant Matrix: (Units=GPa)
#
#
# Indices 1 2 3 4 5 6 
#
# 1 44.6816 9.6682 42.6196 0.0000 0.0000 0.0000
# 2 9.6682 135.9939 17.2499 0.0000 0.0000 0.0000
# 3 42.6196 17.2499 194.3943 0.0000 0.0000 0.0000
# 4 0.0000 0.0000 0.0000 -40.9256 0.0000 0.0000
# 5 0.0000 0.0000 0.0000 0.0000 64.5681 0.0000
# 6 0.0000 0.0000 0.0000 0.0000 0.0000 8.1657
#
#
#
# Elastic Compliance Matrix: (Units=1/GPa)
#
#
# Indices 1 2 3 4 5 6 
#
# 1 0.028506 -0.001248 -0.006139 0.000000 0.000000 0.000000
# 2 -0.001248 0.007492 -0.000391 0.000000 0.000000 0.000000
# 3 -0.006139 -0.000391 0.006525 0.000000 0.000000 0.000000
# 4 0.000000 0.000000 0.000000 -0.024435 0.000000 0.000000
# 5 0.000000 0.000000 0.000000 0.000000 0.015488 0.000000
# 6 0.000000 0.000000 0.000000 0.000000 0.000000 0.122463
#
#
# Mechanical properties :
#
#
# Convention : Reuss Voigt Hill
#
# Bulk Modulus (GPa) = 37.08311 57.12726 47.10518
# Shear Modulus (GPa) = 27.68796 26.73045 27.20921
#
# Velocity S-wave (km/s) = 3.34831 3.28991 3.31924
# Velocity P-wave (km/s) = 5.47391 6.12886 5.81062
#
# Compressibility (1/GPa) = 0.02696645
#
# Stress axis : x y z
#
# Youngs Moduli (GPa) = 35.07989 133.48271 153.26020
#
# Poissons Ratio (x) = 0.16657 0.94088
# Poissons Ratio (y) = 0.04378 0.05995
# Poissons Ratio (z) = 0.21536 0.05222
#
# Static dielectric constant tensor:
#      x y z
#    x 1.961100 0.000000 0.000000 
#    y 0.000000 1.973490 0.000000 
#    z 0.000000 0.000000 1.969700 
# 
# From -- ./inp_files/12461.got.cif
#   From: 2010.05.17/outbox.cif.g08.bks.cpg/sg56_7_cif.got.tgz:12461.got - 2010.06.03 13:42:01.
