data_PCOD9432417
_publ_section_title
;
Structure prediction by ZEFSAII (Michael W. Deem and Ramdas Pophale) SiO2 
 PCOD9432417
Probable space group: P C C N
;
_chemical_formula_sum "Si O2"
_cell_formula_units_Z 24
_cell_length_a 12.786887
_cell_length_b 5.216673
_cell_length_c 13.890797
_cell_angle_alpha 90.000000
_cell_angle_beta 90.000000
_cell_angle_gamma 90.000000
_cell_volume 926.585727
_symmetry_space_group_name_H-M "P C C N"
_symmetry_group_IT_number 56
_symmetry_cell_setting 'orthorhombic'
loop_
_space_group_symop_operation_xyz
x,y,z
1/2-x,1/2-y,z
1/2+x,-y,1/2-z
-x,1/2+y,1/2-z
-x,-y,-z
1/2+x,1/2+y,-z
1/2-x,y,1/2+z
x,1/2-y,1/2+z
loop_
_atom_site_type_symbol
_atom_site_label
_atom_site_fract_x
_atom_site_fract_y
_atom_site_fract_z
Si Si1 0.069186 0.069687 0.342740
Si Si2 0.143444 0.660063 0.656119
Si Si3 0.614165 0.449472 0.045659
O O1 0.129182 0.318463 0.381637
O O2 0.945089 0.121524 0.359444
O O3 0.087501 0.032479 0.229521
O O4 0.109508 0.820579 0.399690
O O5 0.250000 0.750000 0.704848
O O6 0.178317 0.547506 0.553118
O O7 0.500000 0.500000 0.000000
#
# Coordination Sequence:
#
# PCOD9432417 Si02
#       3
#     8   8   8
#     4  11  24  46  68 100 143 178 229 298 347 409
#     4  11  24  46  75 106 141 193 240 288 359 430
#     4  10  22  44  69  94 135 181 226 288 352 407
#
# _framework density 25.901544999999999
#
# number of rings (size 3 to 8) (size 9 to 14) (size 15 to 20)
#    0.000    1.333    0.000    8.000    0.000    4.000 
#    0.000   55.000    0.000    0.000    0.000    0.000 
#    0.000    0.000    0.000    0.000    0.000    0.000 
#
# Total GULP energy -134379.694101 kJ/mol
# GULP energy per Si atom -5599.153921 kJ/mol
# Density = 2.584259 g / cm^3
# Si number density = 25.901545 Si / 1000 Ang^3
#
#
#
# Elastic Constant Matrix: (Units=GPa)
#
#
# Indices 1 2 3 4 5 6 
#
# 1 86.8913 10.4607 2.6803 0.0000 0.0000 0.0000
# 2 10.4607 200.7338 92.0527 0.0000 0.0000 0.0000
# 3 2.6803 92.0527 165.9312 0.0000 0.0000 0.0000
# 4 0.0000 0.0000 0.0000 50.7500 0.0000 0.0000
# 5 0.0000 0.0000 0.0000 0.0000 21.4292 0.0000
# 6 0.0000 0.0000 0.0000 0.0000 0.0000 23.5098
#
#
#
# Elastic Compliance Matrix: (Units=1/GPa)
#
#
# Indices 1 2 3 4 5 6 
#
# 1 0.011586 -0.000695 0.000198 0.000000 0.000000 0.000000
# 2 -0.000695 0.006723 -0.003719 0.000000 0.000000 0.000000
# 3 0.000198 -0.003719 0.008086 0.000000 0.000000 0.000000
# 4 0.000000 0.000000 0.000000 0.019704 0.000000 0.000000
# 5 0.000000 0.000000 0.000000 0.000000 0.046665 0.000000
# 6 0.000000 0.000000 0.000000 0.000000 0.000000 0.042535
#
#
# Mechanical properties :
#
#
# Convention : Reuss Voigt Hill
#
# Bulk Modulus (GPa) = 55.66184 73.77150 64.71667
# Shear Modulus (GPa) = 33.39579 42.36197 37.87888
#
# Velocity S-wave (km/s) = 3.59463 4.04852 3.82831
# Velocity P-wave (km/s) = 6.22615 7.09911 6.67691
#
# Compressibility (1/GPa) = 0.01796563
#
# Stress axis : x y z
#
# Youngs Moduli (GPa) = 86.30996 148.73900 123.66568
#
# Poissons Ratio (x) = 0.10333 -0.02452
# Poissons Ratio (y) = 0.05996 0.45986
# Poissons Ratio (z) = -0.01711 0.55310
#
# Static dielectric constant tensor:
#      x y z
#    x 2.299760 0.000000 0.000000 
#    y 0.000000 2.151690 0.000000 
#    z 0.000000 0.000000 2.124710 
# 
# From -- ./inp_files/11938.got.cif
#   From: 2010.05.17/outbox.cif.g08.bks.cpg/sg56_6_cif.got.tgz:11938.got - 2010.06.03 13:42:01.
