data_PCOD9432740
_publ_section_title
;
Structure prediction by ZEFSAII (Michael W. Deem and Ramdas Pophale) SiO2 
 PCOD9432740
Probable space group: P C C N
;
_chemical_formula_sum "Si O2"
_cell_formula_units_Z 32
_cell_length_a 8.069542
_cell_length_b 15.758077
_cell_length_c 10.039599
_cell_angle_alpha 90.000000
_cell_angle_beta 90.000000
_cell_angle_gamma 90.000000
_cell_volume 1276.640069
_symmetry_space_group_name_H-M "P C C N"
_symmetry_group_IT_number 56
_symmetry_cell_setting 'orthorhombic'
loop_
_space_group_symop_operation_xyz
x,y,z
1/2-x,1/2-y,z
1/2+x,-y,1/2-z
-x,1/2+y,1/2-z
-x,-y,-z
1/2+x,1/2+y,-z
1/2-x,y,1/2+z
x,1/2-y,1/2+z
loop_
_atom_site_type_symbol
_atom_site_label
_atom_site_fract_x
_atom_site_fract_y
_atom_site_fract_z
Si Si1 0.573968 0.844103 0.599462
Si Si2 0.386014 0.510273 0.217471
Si Si3 0.241563 0.906255 0.973144
Si Si4 0.442001 0.158630 0.875237
O O1 0.541396 0.926340 0.691173
O O2 0.426413 0.852355 0.491526
O O3 0.762860 0.843408 0.552411
O O4 0.544162 0.755206 0.675852
O O5 0.293811 0.515773 0.075657
O O6 0.283444 0.560863 0.328660
O O7 0.429675 0.418032 0.270342
O O8 0.401754 0.859541 0.031554
#
# Coordination Sequence:
#
# PCOD9432740 Si02
#       4
#     8   8   8   8
#     4   9  24  42  67 106 134 185 234 284 352 414
#     4  10  23  45  72  99 145 181 234 290 352 417
#     4  10  23  45  67 103 138 187 228 292 351 420
#     4  11  20  45  67 100 142 181 233 291 343 415
#
# _framework density 25.065797
#
# number of rings (size 3 to 8) (size 9 to 14) (size 15 to 20)
#    1.500    0.500    0.000    3.000    0.000    1.000 
#   13.500    5.000    0.000    0.000    0.000    0.000 
#    0.000    0.000    0.000    0.000    0.000    0.000 
#
# Total GULP energy -178798.650874 kJ/mol
# GULP energy per Si atom -5587.457840 kJ/mol
# Density = 2.500875 g / cm^3
# Si number density = 25.065797 Si / 1000 Ang^3
#
#
#
# Elastic Constant Matrix: (Units=GPa)
#
#
# Indices 1 2 3 4 5 6 
#
# 1 202.8778 44.0538 35.2886 0.0000 0.0000 0.0000
# 2 44.0538 147.9598 5.5134 0.0000 0.0000 0.0000
# 3 35.2886 5.5134 57.7167 0.0000 0.0000 0.0000
# 4 0.0000 0.0000 0.0000 24.2747 0.0000 0.0000
# 5 0.0000 0.0000 0.0000 0.0000 28.4290 0.0000
# 6 0.0000 0.0000 0.0000 0.0000 0.0000 29.1094
#
#
#
# Elastic Compliance Matrix: (Units=1/GPa)
#
#
# Indices 1 2 3 4 5 6 
#
# 1 0.005880 -0.001622 -0.003440 0.000000 0.000000 0.000000
# 2 -0.001622 0.007230 0.000301 0.000000 0.000000 0.000000
# 3 -0.003440 0.000301 0.019400 0.000000 0.000000 0.000000
# 4 0.000000 0.000000 0.000000 0.041195 0.000000 0.000000
# 5 0.000000 0.000000 0.000000 0.000000 0.035175 0.000000
# 6 0.000000 0.000000 0.000000 0.000000 0.000000 0.034353
#
#
# Mechanical properties :
#
#
# Convention : Reuss Voigt Hill
#
# Bulk Modulus (GPa) = 43.50017 64.25175 53.87596
# Shear Modulus (GPa) = 31.16831 37.94251 34.55541
#
# Velocity S-wave (km/s) = 3.53010 3.89487 3.71696
# Velocity P-wave (km/s) = 5.83160 6.77610 6.32152
#
# Compressibility (1/GPa) = 0.02298842
#
# Stress axis : x y z
#
# Youngs Moduli (GPa) = 170.07592 138.30416 51.54520
#
# Poissons Ratio (x) = 0.22439 0.17731
# Poissons Ratio (y) = 0.27594 -0.01553
# Poissons Ratio (z) = 0.58505 -0.04167
#
# Static dielectric constant tensor:
#      x y z
#    x 2.065300 0.000000 0.000000 
#    y 0.000000 1.982740 0.000000 
#    z 0.000000 0.000000 1.929930 
# 
# From -- ./inp_files/6129.got.cif
#   From: 2010.05.17/outbox.cif.g08.bks.cpg/sg56_4_cif.got.tgz:6129.got - 2010.06.03 13:42:01.
