data_PCOD9432977
_publ_section_title
;
Structure prediction by ZEFSAII (Michael W. Deem and Ramdas Pophale) SiO2 
 PCOD9432977
Probable space group: P C C N
;
_chemical_formula_sum "Si O2"
_cell_formula_units_Z 24
_cell_length_a 5.226644
_cell_length_b 19.623324
_cell_length_c 9.603988
_cell_angle_alpha 90.000000
_cell_angle_beta 90.000000
_cell_angle_gamma 90.000000
_cell_volume 985.024661
_symmetry_space_group_name_H-M "P C C N"
_symmetry_group_IT_number 56
_symmetry_cell_setting 'orthorhombic'
loop_
_space_group_symop_operation_xyz
x,y,z
1/2-x,1/2-y,z
1/2+x,-y,1/2-z
-x,1/2+y,1/2-z
-x,-y,-z
1/2+x,1/2+y,-z
1/2-x,y,1/2+z
x,1/2-y,1/2+z
loop_
_atom_site_type_symbol
_atom_site_label
_atom_site_fract_x
_atom_site_fract_y
_atom_site_fract_z
Si Si1 0.463571 0.067572 0.912328
Si Si2 0.690688 0.631389 0.841532
Si Si3 0.796736 0.322820 0.299132
O O1 0.353715 0.063714 0.755617
O O2 0.719729 0.112325 0.893404
O O3 0.271804 0.113118 0.004484
O O4 0.500000 0.000000 0.000000
O O5 0.428891 0.671782 0.817868
O O6 0.929183 0.669403 0.770501
O O7 0.750000 0.250000 0.369314
#
# Coordination Sequence:
#
# PCOD9432977 Si02
#       3
#     8   8   8
#     4  10  26  44  74  99 145 180 240 290 356 422
#     4  10  25  44  70 102 134 186 232 291 348 419
#     4  10  24  45  69 101 138 183 235 287 355 421
#
# _framework density 24.364875000000001
#
# number of rings (size 3 to 8) (size 9 to 14) (size 15 to 20)
#    2.000    0.000    0.000    1.000    9.333    2.667 
#    6.000    0.000    0.000    0.000    0.000    0.000 
#    0.000    0.000    0.000    0.000    0.000    0.000 
#
# Total GULP energy -133921.153756 kJ/mol
# GULP energy per Si atom -5580.048073 kJ/mol
# Density = 2.430942 g / cm^3
# Si number density = 24.364875 Si / 1000 Ang^3
#
#
#
# Elastic Constant Matrix: (Units=GPa)
#
#
# Indices 1 2 3 4 5 6 
#
# 1 125.0150 7.7024 10.8430 0.0000 0.0000 0.0000
# 2 7.7024 67.7496 -16.0946 0.0000 0.0000 0.0000
# 3 10.8430 -16.0946 72.9432 0.0000 0.0000 0.0000
# 4 0.0000 0.0000 0.0000 15.8567 0.0000 0.0000
# 5 0.0000 0.0000 0.0000 0.0000 30.0402 0.0000
# 6 0.0000 0.0000 0.0000 0.0000 0.0000 22.2871
#
#
#
# Elastic Compliance Matrix: (Units=1/GPa)
#
#
# Indices 1 2 3 4 5 6 
#
# 1 0.008209 -0.001291 -0.001505 0.000000 0.000000 0.000000
# 2 -0.001291 0.015780 0.003674 0.000000 0.000000 0.000000
# 3 -0.001505 0.003674 0.014744 0.000000 0.000000 0.000000
# 4 0.000000 0.000000 0.000000 0.063065 0.000000 0.000000
# 5 0.000000 0.000000 0.000000 0.000000 0.033289 0.000000
# 6 0.000000 0.000000 0.000000 0.000000 0.000000 0.044869
#
#
# Mechanical properties :
#
#
# Convention : Reuss Voigt Hill
#
# Bulk Modulus (GPa) = 24.69886 30.06773 27.38330
# Shear Modulus (GPa) = 26.08303 31.18726 28.63515
#
# Velocity S-wave (km/s) = 3.27543 3.58160 3.43193
# Velocity P-wave (km/s) = 4.94607 5.42874 5.19302
#
# Compressibility (1/GPa) = 0.04048770
#
# Stress axis : x y z
#
# Youngs Moduli (GPa) = 121.81582 63.37261 67.82605
#
# Poissons Ratio (x) = 0.08180 0.10209
# Poissons Ratio (y) = 0.15725 -0.24917
# Poissons Ratio (z) = 0.18335 -0.23281
#
# Static dielectric constant tensor:
#      x y z
#    x 1.929440 0.000000 0.000000 
#    y 0.000000 1.985670 0.000000 
#    z 0.000000 0.000000 1.957710 
# 
# From -- ./inp_files/1484.got.cif
#   From: 2010.05.17/outbox.cif.g08.bks.cpg/sg56_1_cif.got.tgz:1484.got - 2010.06.03 13:42:01.
