data_PCOD9432975
_publ_section_title
;
Structure prediction by ZEFSAII (Michael W. Deem and Ramdas Pophale) SiO2 
 PCOD9432975
Probable space group: P C C N
;
_chemical_formula_sum "Si O2"
_cell_formula_units_Z 40
_cell_length_a 19.361670
_cell_length_b 9.293671
_cell_length_c 8.619034
_cell_angle_alpha 90.000000
_cell_angle_beta 90.000000
_cell_angle_gamma 90.000000
_cell_volume 1550.917519
_symmetry_space_group_name_H-M "P C C N"
_symmetry_group_IT_number 56
_symmetry_cell_setting 'orthorhombic'
loop_
_space_group_symop_operation_xyz
x,y,z
1/2-x,1/2-y,z
1/2+x,-y,1/2-z
-x,1/2+y,1/2-z
-x,-y,-z
1/2+x,1/2+y,-z
1/2-x,y,1/2+z
x,1/2-y,1/2+z
loop_
_atom_site_type_symbol
_atom_site_label
_atom_site_fract_x
_atom_site_fract_y
_atom_site_fract_z
Si Si1 0.005593 0.391308 0.355272
Si Si2 0.923186 0.317986 0.065902
Si Si3 0.701405 0.561348 0.850683
Si Si4 0.330118 0.735903 0.686208
Si Si5 0.835644 0.846129 0.191786
O O1 0.084216 0.381049 0.302781
O O2 0.000000 0.500000 0.500000
O O3 0.963254 0.412485 0.193742
O O4 0.976631 0.247691 0.442050
O O5 0.882787 0.203078 0.175887
O O6 0.856614 0.356121 0.960132
O O7 0.663228 0.408146 0.851467
O O8 0.669598 0.678391 0.735133
O O9 0.781794 0.564889 0.798953
O O10 0.691533 0.624973 0.020120
O O11 0.250000 0.750000 0.731069
#
# Coordination Sequence:
#
# PCOD9432975 Si02
#       5
#     8   8   8   8   8
#     4  11  24  45  73  99 152 190 242 305 361 457
#     4  10  24  45  67 108 135 192 248 286 380 430
#     4  11  25  43  72 104 145 181 251 301 372 440
#     4  11  25  44  72 104 145 189 246 312 367 438
#     4  11  23  45  69 107 138 192 235 306 370 432
#
# _framework density 25.791181999999999
#
# number of rings (size 3 to 8) (size 9 to 14) (size 15 to 20)
#    0.000    1.200    0.000    6.600    8.400    0.000 
#    0.000    9.000    0.000    0.000    0.000    0.000 
#    0.000    0.000    0.000    0.000    0.000    0.000 
#
# Total GULP energy -223230.462419 kJ/mol
# GULP energy per Si atom -5580.761560 kJ/mol
# Density = 2.573248 g / cm^3
# Si number density = 25.791182 Si / 1000 Ang^3
#
#
#
# Elastic Constant Matrix: (Units=GPa)
#
#
# Indices 1 2 3 4 5 6 
#
# 1 198.6980 29.5475 48.5073 0.0000 0.0000 0.0000
# 2 29.5475 88.4673 41.3653 0.0000 0.0000 0.0000
# 3 48.5073 41.3653 113.1057 0.0000 0.0000 0.0000
# 4 0.0000 0.0000 0.0000 41.4994 0.0000 0.0000
# 5 0.0000 0.0000 0.0000 0.0000 56.4672 0.0000
# 6 0.0000 0.0000 0.0000 0.0000 0.0000 20.7021
#
#
#
# Elastic Compliance Matrix: (Units=1/GPa)
#
#
# Indices 1 2 3 4 5 6 
#
# 1 0.005682 -0.000915 -0.002102 0.000000 0.000000 0.000000
# 2 -0.000915 0.013783 -0.004648 0.000000 0.000000 0.000000
# 3 -0.002102 -0.004648 0.011443 0.000000 0.000000 0.000000
# 4 0.000000 0.000000 0.000000 0.024097 0.000000 0.000000
# 5 0.000000 0.000000 0.000000 0.000000 0.017709 0.000000
# 6 0.000000 0.000000 0.000000 0.000000 0.000000 0.048304
#
#
# Mechanical properties :
#
#
# Convention : Reuss Voigt Hill
#
# Bulk Modulus (GPa) = 64.19808 71.01235 67.60521
# Shear Modulus (GPa) = 35.32552 42.45715 38.89133
#
# Velocity S-wave (km/s) = 3.70493 4.06173 3.88742
# Velocity P-wave (km/s) = 6.57628 7.04203 6.81314
#
# Compressibility (1/GPa) = 0.01557679
#
# Stress axis : x y z
#
# Youngs Moduli (GPa) = 175.99393 72.55544 87.39075
#
# Poissons Ratio (x) = 0.06637 0.18372
# Poissons Ratio (y) = 0.16100 0.40622
# Poissons Ratio (z) = 0.36999 0.33726
#
# Static dielectric constant tensor:
#      x y z
#    x 2.068910 0.000000 0.000000 
#    y 0.000000 2.164750 0.000000 
#    z 0.000000 0.000000 2.040290 
# 
# From -- ./inp_files/4386.got.cif
#   From: 2010.05.17/outbox.cif.g08.bks.cpg/sg56_3_cif.got.tgz:4386.got - 2010.06.03 13:42:01.
