data_PCOD9432861
_publ_section_title
;
Structure prediction by ZEFSAII (Michael W. Deem and Ramdas Pophale) SiO2 
 PCOD9432861
Probable space group: P C C N
;
_chemical_formula_sum "Si O2"
_cell_formula_units_Z 36
_cell_length_a 5.361742
_cell_length_b 10.371310
_cell_length_c 27.857298
_cell_angle_alpha 90.000000
_cell_angle_beta 90.000000
_cell_angle_gamma 90.000000
_cell_volume 1549.096662
_symmetry_space_group_name_H-M "P C C N"
_symmetry_group_IT_number 56
_symmetry_cell_setting 'orthorhombic'
loop_
_space_group_symop_operation_xyz
x,y,z
1/2-x,1/2-y,z
1/2+x,-y,1/2-z
-x,1/2+y,1/2-z
-x,-y,-z
1/2+x,1/2+y,-z
1/2-x,y,1/2+z
x,1/2-y,1/2+z
loop_
_atom_site_type_symbol
_atom_site_label
_atom_site_fract_x
_atom_site_fract_y
_atom_site_fract_z
Si Si1 0.173388 0.996801 0.219074
Si Si2 0.250000 0.750000 0.154152
Si Si3 0.750000 0.750000 0.844438
Si Si4 0.230183 0.506736 0.977995
Si Si5 0.250000 0.750000 0.407419
Si Si6 0.983902 0.794606 0.559866
O O1 0.238958 0.121847 0.187561
O O2 0.406371 0.981661 0.255554
O O3 0.161099 0.868498 0.186566
O O4 0.460189 0.801687 0.117070
O O5 0.501273 0.748659 0.876474
O O6 0.236518 0.623096 0.940105
O O7 0.307069 0.349817 0.948449
O O8 0.500000 0.500000 0.000000
O O9 0.050788 0.558775 0.029759
O O10 0.250000 0.750000 0.539869
#
# Coordination Sequence:
#
# PCOD9432861 Si02
#       6
#     8   4   4   8   4   8
#     4  12  26  44  71 105 139 181 230 292 360 417
#     4  10  26  42  74  94 140 180 240 278 342 440
#     4  12  26  48  72 102 152 182 236 296 356 450
#     4  12  27  45  70 102 144 181 240 299 352 417
#     4  12  28  46  72 102 140 196 232 288 380 416
#     4  10  24  41  71  95 132 177 236 274 349 405
#
# _framework density 23.239349000000001
#
# number of rings (size 3 to 8) (size 9 to 14) (size 15 to 20)
#    0.667    0.000    0.000    6.667   10.889    0.000 
#    0.000    0.000    0.000    0.000    0.000    0.000 
#    0.000    0.000    0.000    0.000    0.000    0.000 
#
# Total GULP energy -200614.038502 kJ/mol
# GULP energy per Si atom -5572.612181 kJ/mol
# Density = 2.318646 g / cm^3
# Si number density = 23.239349 Si / 1000 Ang^3
#
#
#
# Elastic Constant Matrix: (Units=GPa)
#
#
# Indices 1 2 3 4 5 6 
#
# 1 239.1722 34.1000 55.1885 0.0000 0.0000 0.0000
# 2 34.1000 180.8474 73.2054 0.0000 0.0000 0.0000
# 3 55.1885 73.2054 120.6879 0.0000 0.0000 0.0000
# 4 0.0000 0.0000 0.0000 57.5815 0.0000 0.0000
# 5 0.0000 0.0000 0.0000 0.0000 49.7435 0.0000
# 6 0.0000 0.0000 0.0000 0.0000 0.0000 58.4060
#
#
#
# Elastic Compliance Matrix: (Units=1/GPa)
#
#
# Indices 1 2 3 4 5 6 
#
# 1 0.004674 -0.000021 -0.002125 0.000000 0.000000 0.000000
# 2 -0.000021 0.007329 -0.004436 0.000000 0.000000 0.000000
# 3 -0.002125 -0.004436 0.011948 0.000000 0.000000 0.000000
# 4 0.000000 0.000000 0.000000 0.017367 0.000000 0.000000
# 5 0.000000 0.000000 0.000000 0.000000 0.020103 0.000000
# 6 0.000000 0.000000 0.000000 0.000000 0.000000 0.017122
#
#
# Mechanical properties :
#
#
# Convention : Reuss Voigt Hill
#
# Bulk Modulus (GPa) = 92.69588 96.18838 94.44213
# Shear Modulus (GPa) = 52.46459 58.36045 55.41252
#
# Velocity S-wave (km/s) = 4.75655 5.01670 4.88836
# Velocity P-wave (km/s) = 8.37499 8.66236 8.51989
#
# Compressibility (1/GPa) = 0.01078797
#
# Stress axis : x y z
#
# Youngs Moduli (GPa) = 213.93264 136.44153 83.69611
#
# Poissons Ratio (x) = 0.00292 0.17782
# Poissons Ratio (y) = 0.00458 0.37126
# Poissons Ratio (z) = 0.45451 0.60523
#
# Static dielectric constant tensor:
#      x y z
#    x 1.882470 0.000000 0.000000 
#    y 0.000000 2.330810 0.000000 
#    z 0.000000 0.000000 1.898820 
# 
# From -- ./inp_files/19934.got.cif
#   From: 2010.05.17/outbox.cif.g08.bks.cpg/sg56_10_cif.got.tgz:19934.got - 2010.06.03 13:42:01.
