data_PCOD9432855
_publ_section_title
;
Structure prediction by ZEFSAII (Michael W. Deem and Ramdas Pophale) SiO2 
 PCOD9432855
Probable space group: P C C N
;
_chemical_formula_sum "Si O2"
_cell_formula_units_Z 64
_cell_length_a 18.956500
_cell_length_b 10.378209
_cell_length_c 14.461340
_cell_angle_alpha 90.000000
_cell_angle_beta 90.000000
_cell_angle_gamma 90.000000
_cell_volume 2845.044768
_symmetry_space_group_name_H-M "P C C N"
_symmetry_group_IT_number 56
_symmetry_cell_setting 'orthorhombic'
loop_
_space_group_symop_operation_xyz
x,y,z
1/2-x,1/2-y,z
1/2+x,-y,1/2-z
-x,1/2+y,1/2-z
-x,-y,-z
1/2+x,1/2+y,-z
1/2-x,y,1/2+z
x,1/2-y,1/2+z
loop_
_atom_site_type_symbol
_atom_site_label
_atom_site_fract_x
_atom_site_fract_y
_atom_site_fract_z
Si Si1 0.820610 0.019201 0.706610
Si Si2 0.073120 0.541259 0.165070
Si Si3 0.973890 0.699655 0.940109
Si Si4 0.859961 0.249079 0.083610
Si Si5 0.124212 0.829155 0.115056
Si Si6 0.467196 0.351248 0.880782
Si Si7 0.834821 0.507810 0.681447
Si Si8 0.553477 0.847524 0.269650
O O1 0.832090 0.115163 0.620260
O O2 0.831396 0.105413 0.801821
O O3 0.746028 0.953433 0.684921
O O4 0.880210 0.912463 0.721327
O O5 0.044687 0.446246 0.086795
O O6 0.099875 0.682210 0.136405
O O7 0.137680 0.472637 0.214989
O O8 0.013363 0.563351 0.243867
O O9 0.934998 0.803046 0.874032
O O10 0.055927 0.729957 0.920375
O O11 0.959292 0.736600 0.044900
O O12 0.837728 0.143869 0.158807
O O13 0.838764 0.188907 0.984280
O O14 0.047567 0.902345 0.104130
O O15 0.395483 0.433589 0.884824
O O16 0.466825 0.285110 0.781006
#
# Coordination Sequence:
#
# PCOD9432855 Si02
#       8
#     8   8   8   8   8   8   8   8
#     4  12  25  43  62  95 136 181 214 268 341 406
#     4  11  21  42  68  94 131 172 219 275 336 394
#     4  11  22  40  72 100 126 167 228 288 330 391
#     4  11  23  41  66  99 130 169 221 281 336 392
#     4  10  24  41  69  99 129 169 227 275 332 409
#     4  10  24  41  68 100 128 173 227 281 335 393
#     4  12  24  43  63  90 139 177 215 276 331 397
#     4  11  22  40  69  92 130 172 223 274 331 406
#
# _framework density 22.495253000000002
#
# number of rings (size 3 to 8) (size 9 to 14) (size 15 to 20)
#    0.000    1.000    5.000    1.875    3.500    3.000 
#    4.500    0.000    2.750    0.000    0.000    0.000 
#    0.000    0.000    0.000    0.000    0.000    0.000 
#
# Total GULP energy -357243.927936 kJ/mol
# GULP energy per Si atom -5581.936374 kJ/mol
# Density = 2.244405 g / cm^3
# Si number density = 22.495253 Si / 1000 Ang^3
#
#
#
# Elastic Constant Matrix: (Units=GPa)
#
#
# Indices 1 2 3 4 5 6 
#
# 1 93.9800 2.6272 4.2690 0.0000 0.0000 0.0000
# 2 2.6272 58.0332 -1.1617 0.0000 0.0000 0.0000
# 3 4.2690 -1.1617 83.5586 0.0000 0.0000 0.0000
# 4 0.0000 0.0000 0.0000 32.0555 0.0000 0.0000
# 5 0.0000 0.0000 0.0000 0.0000 17.3399 0.0000
# 6 0.0000 0.0000 0.0000 0.0000 0.0000 11.0838
#
#
#
# Elastic Compliance Matrix: (Units=1/GPa)
#
#
# Indices 1 2 3 4 5 6 
#
# 1 0.010679 -0.000495 -0.000552 0.000000 0.000000 0.000000
# 2 -0.000495 0.017259 0.000265 0.000000 0.000000 0.000000
# 3 -0.000552 0.000265 0.012000 0.000000 0.000000 0.000000
# 4 0.000000 0.000000 0.000000 0.031196 0.000000 0.000000
# 5 0.000000 0.000000 0.000000 0.000000 0.057671 0.000000
# 6 0.000000 0.000000 0.000000 0.000000 0.000000 0.090222
#
#
# Mechanical properties :
#
#
# Convention : Reuss Voigt Hill
#
# Bulk Modulus (GPa) = 26.05887 27.44899 26.75393
# Shear Modulus (GPa) = 21.42413 27.41832 24.42122
#
# Velocity S-wave (km/s) = 3.08942 3.49499 3.29844
# Velocity P-wave (km/s) = 4.93309 5.33996 5.14055
#
# Compressibility (1/GPa) = 0.03837465
#
# Stress axis : x y z
#
# Youngs Moduli (GPa) = 93.63746 57.94010 83.33641
#
# Poissons Ratio (x) = 0.02865 0.04604
# Poissons Ratio (y) = 0.04631 -0.02210
# Poissons Ratio (z) = 0.05173 -0.01537
#
# Static dielectric constant tensor:
#      x y z
#    x 1.850460 0.000000 0.000000 
#    y 0.000000 1.903010 0.000000 
#    z 0.000000 0.000000 1.859300 
# 
# From -- ./inp_files/12871.got.cif
#   From: 2010.05.17/outbox.cif.g08.bks.cpg/sg56_7_cif.got.tgz:12871.got - 2010.06.03 13:42:01.
