data_PCOD9432326
_publ_section_title
;
Structure prediction by ZEFSAII (Michael W. Deem and Ramdas Pophale) SiO2 
 PCOD9432326
Probable space group: P C C N
;
_chemical_formula_sum "Si O2"
_cell_formula_units_Z 36
_cell_length_a 5.324658
_cell_length_b 12.308901
_cell_length_c 24.850951
_cell_angle_alpha 90.000000
_cell_angle_beta 90.000000
_cell_angle_gamma 90.000000
_cell_volume 1628.748430
_symmetry_space_group_name_H-M "P C C N"
_symmetry_group_IT_number 56
_symmetry_cell_setting 'orthorhombic'
loop_
_space_group_symop_operation_xyz
x,y,z
1/2-x,1/2-y,z
1/2+x,-y,1/2-z
-x,1/2+y,1/2-z
-x,-y,-z
1/2+x,1/2+y,-z
1/2-x,y,1/2+z
x,1/2-y,1/2+z
loop_
_atom_site_type_symbol
_atom_site_label
_atom_site_fract_x
_atom_site_fract_y
_atom_site_fract_z
Si Si1 0.357527 0.370066 0.256683
Si Si2 0.994699 0.544103 0.836800
Si Si3 0.008002 0.684814 0.490979
Si Si4 0.793902 0.488837 0.951177
Si Si5 0.750000 0.250000 0.690608
O O1 0.250000 0.250000 0.268667
O O2 0.219019 0.429907 0.207431
O O3 0.348944 0.449968 0.306893
O O4 0.622126 0.335813 0.231035
O O5 0.920359 0.496538 0.893843
O O6 0.094487 0.666950 0.845569
O O7 0.750000 0.750000 0.503347
O O8 0.904636 0.587735 0.453974
O O9 0.250000 0.750000 0.468799
O O10 0.135677 0.620834 0.540564
O O11 0.000000 0.500000 0.000000
#
# Coordination Sequence:
#
# PCOD9432326 Si02
#       5
#     8   8   8   8   4
#     4  10  22  44  67 102 140 187 236 298 371 435
#     4  11  23  45  71 106 141 187 244 305 369 450
#     4  11  24  50  73 104 154 196 248 305 370 451
#     4  11  26  46  73 112 146 200 252 307 374 450
#     4  10  22  42  74  98 140 184 238 302 364 430
#
# _framework density 22.102861000000001
#
# number of rings (size 3 to 8) (size 9 to 14) (size 15 to 20)
#    0.000    1.333    4.444    0.000    0.000    8.000 
#    8.000    0.000    0.000    0.000    0.000    0.000 
#    0.000    0.000    0.000    0.000    0.000    0.000 
#
# Total GULP energy -200638.444168 kJ/mol
# GULP energy per Si atom -5573.290116 kJ/mol
# Density = 2.205255 g / cm^3
# Si number density = 22.102861 Si / 1000 Ang^3
#
#
#
# Elastic Constant Matrix: (Units=GPa)
#
#
# Indices 1 2 3 4 5 6 
#
# 1 93.4462 36.8296 37.8272 0.0000 0.0000 0.0000
# 2 36.8296 104.5689 46.9657 0.0000 0.0000 0.0000
# 3 37.8272 46.9657 148.5774 0.0000 0.0000 0.0000
# 4 0.0000 0.0000 0.0000 -15.0369 0.0000 0.0000
# 5 0.0000 0.0000 0.0000 0.0000 64.9350 0.0000
# 6 0.0000 0.0000 0.0000 0.0000 0.0000 250.1862
#
#
#
# Elastic Compliance Matrix: (Units=1/GPa)
#
#
# Indices 1 2 3 4 5 6 
#
# 1 0.013000 -0.003604 -0.002171 0.000000 0.000000 0.000000
# 2 -0.003604 0.012144 -0.002921 0.000000 0.000000 0.000000
# 3 -0.002171 -0.002921 0.008207 0.000000 0.000000 0.000000
# 4 0.000000 0.000000 0.000000 -0.066503 0.000000 0.000000
# 5 0.000000 0.000000 0.000000 0.000000 0.015400 0.000000
# 6 0.000000 0.000000 0.000000 0.000000 0.000000 0.003997
#
#
# Mechanical properties :
#
#
# Convention : Reuss Voigt Hill
#
# Bulk Modulus (GPa) = 62.65792 65.53749 64.09770
# Shear Modulus (GPa) = 558.21395 75.01485 316.61440
#
# Velocity S-wave (km/s) = 15.90915 5.83204 11.98152
# Velocity P-wave (km/s) = 19.12794 8.66405 14.84829
#
# Compressibility (1/GPa) = 0.01595967
#
# Stress axis : x y z
#
# Youngs Moduli (GPa) = 76.92060 82.34203 121.85326
#
# Poissons Ratio (x) = 0.29675 0.26450
# Poissons Ratio (y) = 0.27721 0.35598
# Poissons Ratio (z) = 0.16697 0.24055
#
# Static dielectric constant tensor:
#      x y z
#    x 2.005660 0.000000 0.000000 
#    y 0.000000 2.042470 0.000000 
#    z 0.000000 0.000000 1.732760 
# 
# From -- ./inp_files/19886.got.cif
#   From: 2010.05.17/outbox.cif.g08.bks.cpg/sg56_10_cif.got.tgz:19886.got - 2010.06.03 13:42:01.
