data_PCOD9432735
_publ_section_title
;
Structure prediction by ZEFSAII (Michael W. Deem and Ramdas Pophale) SiO2 
 PCOD9432735
Probable space group: P C C N
;
_chemical_formula_sum "Si O2"
_cell_formula_units_Z 48
_cell_length_a 22.572394
_cell_length_b 9.050760
_cell_length_c 10.107429
_cell_angle_alpha 90.000000
_cell_angle_beta 90.000000
_cell_angle_gamma 90.000000
_cell_volume 2064.920664
_symmetry_space_group_name_H-M "P C C N"
_symmetry_group_IT_number 56
_symmetry_cell_setting 'orthorhombic'
loop_
_space_group_symop_operation_xyz
x,y,z
1/2-x,1/2-y,z
1/2+x,-y,1/2-z
-x,1/2+y,1/2-z
-x,-y,-z
1/2+x,1/2+y,-z
1/2-x,y,1/2+z
x,1/2-y,1/2+z
loop_
_atom_site_type_symbol
_atom_site_label
_atom_site_fract_x
_atom_site_fract_y
_atom_site_fract_z
Si Si1 0.792686 0.977736 0.254982
Si Si2 0.554776 0.319617 0.379426
Si Si3 0.623292 0.262556 0.131344
Si Si4 0.812851 0.963205 0.558544
Si Si5 0.409811 0.365541 0.727426
Si Si6 0.428871 0.243717 0.978524
O O1 0.829828 0.113576 0.184992
O O2 0.784006 0.001784 0.413204
O O3 0.738818 0.932426 0.163215
O O4 0.840101 0.846920 0.260732
O O5 0.570918 0.248119 0.239026
O O6 0.591716 0.227854 0.488523
O O7 0.577082 0.487218 0.355719
O O8 0.487660 0.335614 0.425844
O O9 0.658325 0.111006 0.116750
O O10 0.866718 0.844290 0.544365
O O11 0.430334 0.380787 0.877637
O O12 0.433954 0.234971 0.635352
#
# Coordination Sequence:
#
# PCOD9432735 Si02
#       6
#     8   8   8   8   8   8
#     4  10  24  42  64  96 132 167 225 271 332 401
#     4  11  23  41  67  98 137 170 225 278 342 409
#     4  11  21  42  66  98 133 172 212 284 345 391
#     4  11  24  42  65  97 133 178 215 280 332 392
#     4  10  23  45  60  96 130 175 227 273 331 401
#     4  11  23  42  68  91 136 182 219 279 335 397
#
# _framework density 23.245446000000001
#
# number of rings (size 3 to 8) (size 9 to 14) (size 15 to 20)
#    0.000    1.333    5.000    2.000    4.667    3.333 
#    3.000    7.500    0.000    0.000    0.000    0.000 
#    0.000    0.000    0.000    0.000    0.000    0.000 
#
# Total GULP energy -267225.619464 kJ/mol
# GULP energy per Si atom -5567.200405 kJ/mol
# Density = 2.319254 g / cm^3
# Si number density = 23.245446 Si / 1000 Ang^3
#
#
#
# Elastic Constant Matrix: (Units=GPa)
#
#
# Indices 1 2 3 4 5 6 
#
# 1 116.9119 9.8386 40.5397 0.0000 0.0000 0.0000
# 2 9.8386 32.2704 41.9982 0.0000 0.0000 0.0000
# 3 40.5397 41.9982 138.2267 0.0000 0.0000 0.0000
# 4 0.0000 0.0000 0.0000 30.1009 0.0000 0.0000
# 5 0.0000 0.0000 0.0000 0.0000 39.6831 0.0000
# 6 0.0000 0.0000 0.0000 0.0000 0.0000 20.7761
#
#
#
# Elastic Compliance Matrix: (Units=1/GPa)
#
#
# Indices 1 2 3 4 5 6 
#
# 1 0.009550 0.001213 -0.003170 0.000000 0.000000 0.000000
# 2 0.001213 0.051410 -0.015976 0.000000 0.000000 0.000000
# 3 -0.003170 -0.015976 0.013018 0.000000 0.000000 0.000000
# 4 0.000000 0.000000 0.000000 0.033222 0.000000 0.000000
# 5 0.000000 0.000000 0.000000 0.000000 0.025200 0.000000
# 6 0.000000 0.000000 0.000000 0.000000 0.000000 0.048132
#
#
# Mechanical properties :
#
#
# Convention : Reuss Voigt Hill
#
# Bulk Modulus (GPa) = 26.23697 52.46244 39.34971
# Shear Modulus (GPa) = 21.82433 31.11420 26.46926
#
# Velocity S-wave (km/s) = 3.06741 3.66253 3.37810
# Velocity P-wave (km/s) = 4.88434 6.36423 5.67275
#
# Compressibility (1/GPa) = 0.03811416
#
# Stress axis : x y z
#
# Youngs Moduli (GPa) = 104.70735 19.45133 76.81526
#
# Poissons Ratio (x) = -0.02360 0.24348
# Poissons Ratio (y) = -0.12705 1.22722
# Poissons Ratio (z) = 0.33189 0.31076
#
# Static dielectric constant tensor:
#      x y z
#    x 1.937190 0.000000 0.000000 
#    y 0.000000 1.989500 0.000000 
#    z 0.000000 0.000000 2.026680 
# 
# From -- ./inp_files/4746.got.cif
#   From: 2010.05.17/outbox.cif.g08.bks.cpg/sg56_3_cif.got.tgz:4746.got - 2010.06.03 13:42:01.
