data_PCOD9432571
_publ_section_title
;
Structure prediction by ZEFSAII (Michael W. Deem and Ramdas Pophale) SiO2 
 PCOD9432571
Probable space group: P C C N
;
_chemical_formula_sum "Si O2"
_cell_formula_units_Z 48
_cell_length_a 13.644575
_cell_length_b 4.895564
_cell_length_c 29.449734
_cell_angle_alpha 90.000000
_cell_angle_beta 90.000000
_cell_angle_gamma 90.000000
_cell_volume 1967.180097
_symmetry_space_group_name_H-M "P C C N"
_symmetry_group_IT_number 56
_symmetry_cell_setting 'orthorhombic'
loop_
_space_group_symop_operation_xyz
x,y,z
1/2-x,1/2-y,z
1/2+x,-y,1/2-z
-x,1/2+y,1/2-z
-x,-y,-z
1/2+x,1/2+y,-z
1/2-x,y,1/2+z
x,1/2-y,1/2+z
loop_
_atom_site_type_symbol
_atom_site_label
_atom_site_fract_x
_atom_site_fract_y
_atom_site_fract_z
Si Si1 0.400269 0.527882 0.660470
Si Si2 0.750000 0.750000 0.901557
Si Si3 0.534994 0.021425 0.646830
Si Si4 0.868250 0.743216 0.059689
Si Si5 0.150069 0.607168 0.524172
Si Si6 0.500000 0.000000 0.000000
Si Si7 0.566268 0.602596 0.243608
O O1 0.312167 0.454030 0.628370
O O2 0.439854 0.831332 0.654853
O O3 0.370141 0.467631 0.712564
O O4 0.492222 0.327077 0.647810
O O5 0.678660 0.576331 0.933468
O O6 0.588645 0.902602 0.602595
O O7 0.598683 0.971490 0.692809
O O8 0.750000 0.750000 0.062607
O O9 0.918216 0.458481 0.044141
O O10 0.895231 0.892132 0.011485
O O11 0.250000 0.750000 0.508405
O O12 0.073361 0.840462 0.534054
O O13 0.469821 0.413337 0.252884
#
# Coordination Sequence:
#
# PCOD9432571 Si02
#       7
#     8   4   8   8   8   4   8
#     4  10  23  41  68 101 133 180 225 284 352 413
#     4  12  26  42  64 102 138 174 242 300 344 428
#     4  10  23  40  70  97 135 182 227 277 355 420
#     4  12  26  44  65 101 132 180 234 286 344 427
#     4  12  26  46  67  96 138 180 240 297 349 425
#     4  12  26  46  72  88 138 186 228 294 366 398
#     4   8  16  38  63  94 131 170 222 277 340 422
#
# _framework density 24.400410000000001
#
# number of rings (size 3 to 8) (size 9 to 14) (size 15 to 20)
#    0.000    1.333    2.500    1.500    9.333    0.000 
#    1.500    0.000    0.000    0.000    0.000    0.000 
#    0.000    0.000    0.000    0.000    0.000    0.000 
#
# Total GULP energy -267695.748872 kJ/mol
# GULP energy per Si atom -5576.994768 kJ/mol
# Density = 2.434487 g / cm^3
# Si number density = 24.400410 Si / 1000 Ang^3
#
#
#
# Elastic Constant Matrix: (Units=GPa)
#
#
# Indices 1 2 3 4 5 6 
#
# 1 84.2189 -1.7150 29.6535 0.0000 0.0000 0.0000
# 2 -1.7150 74.1294 10.0453 0.0000 0.0000 0.0000
# 3 29.6535 10.0453 181.6945 0.0000 0.0000 0.0000
# 4 0.0000 0.0000 0.0000 30.2716 0.0000 0.0000
# 5 0.0000 0.0000 0.0000 0.0000 -137.9145 0.0000
# 6 0.0000 0.0000 0.0000 0.0000 0.0000 15.0310
#
#
#
# Elastic Compliance Matrix: (Units=1/GPa)
#
#
# Indices 1 2 3 4 5 6 
#
# 1 0.012622 0.000575 -0.002092 0.000000 0.000000 0.000000
# 2 0.000575 0.013618 -0.000847 0.000000 0.000000 0.000000
# 3 -0.002092 -0.000847 0.005892 0.000000 0.000000 0.000000
# 4 0.000000 0.000000 0.000000 0.033034 0.000000 0.000000
# 5 0.000000 0.000000 0.000000 0.000000 -0.007251 0.000000
# 6 0.000000 0.000000 0.000000 0.000000 0.000000 0.066529
#
#
# Mechanical properties :
#
#
# Convention : Reuss Voigt Hill
#
# Bulk Modulus (GPa) = 36.48876 46.22339 41.35607
# Shear Modulus (GPa) = 36.15169 1.61489 18.88329
#
# Velocity S-wave (km/s) = 3.85333 0.81441 2.78491
# Velocity P-wave (km/s) = 5.89781 4.45748 5.22749
#
# Compressibility (1/GPa) = 0.02740570
#
# Stress axis : x y z
#
# Youngs Moduli (GPa) = 79.22637 73.43231 169.72292
#
# Poissons Ratio (x) = -0.04226 0.35503
# Poissons Ratio (y) = -0.04559 0.14372
# Poissons Ratio (z) = 0.16573 0.06218
#
# Static dielectric constant tensor:
#      x y z
#    x 1.897630 0.000000 0.000000 
#    y 0.000000 1.820910 0.000000 
#    z 0.000000 0.000000 1.988590 
# 
# From -- ./inp_files/22459.got.cif
#   From: 2010.05.17/outbox.cif.g08.bks.cpg/sg56_12_cif.got.tgz:22459.got - 2010.06.03 13:42:01.
