data_PCOD9432093
_publ_section_title
;
Structure prediction by ZEFSAII (Michael W. Deem and Ramdas Pophale) SiO2 
 PCOD9432093
Probable space group: P C C N
;
_chemical_formula_sum "Si O2"
_cell_formula_units_Z 56
_cell_length_a 13.519352
_cell_length_b 15.000152
_cell_length_c 13.678119
_cell_angle_alpha 90.000000
_cell_angle_beta 90.000000
_cell_angle_gamma 90.000000
_cell_volume 2773.817690
_symmetry_space_group_name_H-M "P C C N"
_symmetry_group_IT_number 56
_symmetry_cell_setting 'orthorhombic'
loop_
_space_group_symop_operation_xyz
x,y,z
1/2-x,1/2-y,z
1/2+x,-y,1/2-z
-x,1/2+y,1/2-z
-x,-y,-z
1/2+x,1/2+y,-z
1/2-x,y,1/2+z
x,1/2-y,1/2+z
loop_
_atom_site_type_symbol
_atom_site_label
_atom_site_fract_x
_atom_site_fract_y
_atom_site_fract_z
Si Si1 0.684933 0.095017 0.615244
Si Si2 0.502579 0.514286 0.203460
Si Si3 0.851835 0.848300 0.276026
Si Si4 0.330075 0.438184 0.337507
Si Si5 0.602649 0.333297 0.917509
Si Si6 0.908281 0.738338 0.091080
Si Si7 0.250000 0.250000 0.050043
Si Si8 0.750000 0.250000 0.261140
O O1 0.667152 0.138400 0.509860
O O2 0.709136 0.171583 0.693069
O O3 0.583199 0.047800 0.650516
O O4 0.774140 0.022878 0.615504
O O5 0.564619 0.576490 0.278171
O O6 0.416238 0.466342 0.262825
O O7 0.453887 0.579953 0.123991
O O8 0.756366 0.889524 0.223159
O O9 0.893229 0.772439 0.202416
O O10 0.814301 0.810977 0.378084
O O11 0.376910 0.364746 0.409789
O O12 0.517608 0.261789 0.943067
O O13 0.667381 0.292248 0.831048
O O14 0.830816 0.791958 0.023019
#
# Coordination Sequence:
#
# PCOD9432093 Si02
#       8
#     8   8   8   8   8   8   4   4
#     4  11  25  43  72  99 135 181 230 276 343 407
#     4  10  23  42  66  99 133 177 220 283 333 397
#     4  10  22  40  63  98 133 169 217 269 339 393
#     4  11  20  44  66  96 142 167 220 288 329 386
#     4  11  25  44  70  99 135 181 226 269 339 418
#     4  11  23  41  66 102 130 168 229 271 323 411
#     4  12  20  38  68  98 130 176 206 276 334 392
#     4  12  24  50  68  94 140 182 224 274 344 408
#
# _framework density 20.188782
#
# number of rings (size 3 to 8) (size 9 to 14) (size 15 to 20)
#    0.000    1.143    4.286    1.714    2.000    3.429 
#    2.571    0.714    0.000    0.000    0.000    0.000 
#    0.000    0.000    0.000    0.000    0.000    0.000 
#
# Total GULP energy -312880.589640 kJ/mol
# GULP energy per Si atom -5587.153386 kJ/mol
# Density = 2.014283 g / cm^3
# Si number density = 20.188782 Si / 1000 Ang^3
#
#
#
# Elastic Constant Matrix: (Units=GPa)
#
#
# Indices 1 2 3 4 5 6 
#
# 1 19.4199 20.7723 -1.2276 0.0000 0.0000 0.0000
# 2 20.7723 93.3028 29.4994 0.0000 0.0000 0.0000
# 3 -1.2276 29.4994 75.9024 0.0000 0.0000 0.0000
# 4 0.0000 0.0000 0.0000 10.3730 0.0000 0.0000
# 5 0.0000 0.0000 0.0000 0.0000 37.2362 0.0000
# 6 0.0000 0.0000 0.0000 0.0000 0.0000 38.9298
#
#
#
# Elastic Compliance Matrix: (Units=1/GPa)
#
#
# Indices 1 2 3 4 5 6 
#
# 1 0.072032 -0.018703 0.008434 0.000000 0.000000 0.000000
# 2 -0.018703 0.017076 -0.006939 0.000000 0.000000 0.000000
# 3 0.008434 -0.006939 0.016008 0.000000 0.000000 0.000000
# 4 0.000000 0.000000 0.000000 0.096404 0.000000 0.000000
# 5 0.000000 0.000000 0.000000 0.000000 0.026856 0.000000
# 6 0.000000 0.000000 0.000000 0.000000 0.000000 0.025687
#
#
# Mechanical properties :
#
#
# Convention : Reuss Voigt Hill
#
# Bulk Modulus (GPa) = 14.14437 31.85702 23.00069
# Shear Modulus (GPa) = 16.02328 26.61321 21.31824
#
# Velocity S-wave (km/s) = 2.82028 3.63467 3.25306
# Velocity P-wave (km/s) = 4.19840 5.78171 5.05246
#
# Compressibility (1/GPa) = 0.07069953
#
# Stress axis : x y z
#
# Youngs Moduli (GPa) = 13.88265 58.56305 62.46872
#
# Poissons Ratio (x) = 1.09532 -0.52686
# Poissons Ratio (y) = 0.25965 0.43346
# Poissons Ratio (z) = -0.11709 0.40636
#
# Static dielectric constant tensor:
#      x y z
#    x 1.715990 0.000000 0.000000 
#    y 0.000000 1.748630 0.000000 
#    z 0.000000 0.000000 1.687630 
# 
# From -- ./inp_files/7927.got.cif
#   From: 2010.05.17/outbox.cif.g08.bks.cpg/sg56_4_cif.got.tgz:7927.got - 2010.06.03 13:42:01.
