data_PCOD9432808
_publ_section_title
;
Structure prediction by ZEFSAII (Michael W. Deem and Ramdas Pophale) SiO2 
 PCOD9432808
Probable space group: P C C N
;
_chemical_formula_sum "Si O2"
_cell_formula_units_Z 32
_cell_length_a 7.933684
_cell_length_b 29.132784
_cell_length_c 5.661546
_cell_angle_alpha 90.000000
_cell_angle_beta 90.000000
_cell_angle_gamma 90.000000
_cell_volume 1308.554838
_symmetry_space_group_name_H-M "P C C N"
_symmetry_group_IT_number 56
_symmetry_cell_setting 'orthorhombic'
loop_
_space_group_symop_operation_xyz
x,y,z
1/2-x,1/2-y,z
1/2+x,-y,1/2-z
-x,1/2+y,1/2-z
-x,-y,-z
1/2+x,1/2+y,-z
1/2-x,y,1/2+z
x,1/2-y,1/2+z
loop_
_atom_site_type_symbol
_atom_site_label
_atom_site_fract_x
_atom_site_fract_y
_atom_site_fract_z
Si Si1 0.851172 0.655861 0.243347
Si Si2 0.489055 0.435605 0.093234
Si Si3 0.624269 0.980416 0.805563
Si Si4 0.684867 0.302124 0.239493
O O1 0.743652 0.654926 0.489602
O O2 0.974096 0.611445 0.271682
O O3 0.982710 0.697417 0.249348
O O4 0.305224 0.459674 0.139145
O O5 0.631943 0.472066 0.156028
O O6 0.475921 0.437298 0.811304
O O7 0.500000 0.000000 0.000000
O O8 0.750000 0.250000 0.235129
O O9 0.755412 0.322902 0.486704
#
# Coordination Sequence:
#
# PCOD9432808 Si02
#       4
#     8   8   8   8
#     4  12  24  45  72 107 138 184 236 292 346 419
#     4  11  23  38  61  87 133 175 230 283 329 395
#     4  11  20  39  57  85 125 181 227 277 330 387
#     4  10  23  49  74 103 145 176 220 286 359 435
#
# _framework density 24.454457999999999
#
# number of rings (size 3 to 8) (size 9 to 14) (size 15 to 20)
#    0.000    1.000    5.000    1.500    0.000    0.000 
#    9.000   15.000    0.000    0.000    0.000    0.000 
#    0.000    0.000    0.000    0.000    0.000    0.000 
#
# Total GULP energy -178202.864489 kJ/mol
# GULP energy per Si atom -5568.839515 kJ/mol
# Density = 2.439880 g / cm^3
# Si number density = 24.454458 Si / 1000 Ang^3
#
#
#
# Elastic Constant Matrix: (Units=GPa)
#
#
# Indices 1 2 3 4 5 6 
#
# 1 53.8419 23.2740 24.0119 0.0000 0.0000 0.0000
# 2 23.2740 62.5874 -2.2393 0.0000 0.0000 0.0000
# 3 24.0119 -2.2393 162.1965 0.0000 0.0000 0.0000
# 4 0.0000 0.0000 0.0000 13.6343 0.0000 0.0000
# 5 0.0000 0.0000 0.0000 0.0000 47.2965 0.0000
# 6 0.0000 0.0000 0.0000 0.0000 0.0000 42.5627
#
#
#
# Elastic Compliance Matrix: (Units=1/GPa)
#
#
# Indices 1 2 3 4 5 6 
#
# 1 0.024166 -0.009119 -0.003704 0.000000 0.000000 0.000000
# 2 -0.009119 0.019427 0.001618 0.000000 0.000000 0.000000
# 3 -0.003704 0.001618 0.006736 0.000000 0.000000 0.000000
# 4 0.000000 0.000000 0.000000 0.073345 0.000000 0.000000
# 5 0.000000 0.000000 0.000000 0.000000 0.021143 0.000000
# 6 0.000000 0.000000 0.000000 0.000000 0.000000 0.023495
#
#
# Mechanical properties :
#
#
# Convention : Reuss Voigt Hill
#
# Bulk Modulus (GPa) = 35.81644 40.96877 38.39261
# Shear Modulus (GPa) = 24.99661 36.27066 30.63363
#
# Velocity S-wave (km/s) = 3.20061 3.85540 3.54316
# Velocity P-wave (km/s) = 5.32320 6.05048 5.69845
#
# Compressibility (1/GPa) = 0.02792014
#
# Stress axis : x y z
#
# Youngs Moduli (GPa) = 41.37969 51.47571 148.45646
#
# Poissons Ratio (x) = 0.46941 0.54981
# Poissons Ratio (y) = 0.37735 -0.24023
# Poissons Ratio (z) = 0.15325 -0.08330
#
# Static dielectric constant tensor:
#      x y z
#    x 1.920930 0.000000 0.000000 
#    y 0.000000 1.979790 0.000000 
#    z 0.000000 0.000000 2.986990 
# 
# From -- ./inp_files/141.got.cif
#   From: 2010.05.17/outbox.cif.g08.bks.cpg/sg56_1_cif.got.tgz:141.got - 2010.06.03 13:42:01.
