data_PCOD9432617
_publ_section_title
;
Structure prediction by ZEFSAII (Michael W. Deem and Ramdas Pophale) SiO2 
 PCOD9432617
Probable space group: P C C N
;
_chemical_formula_sum "Si O2"
_cell_formula_units_Z 56
_cell_length_a 5.947542
_cell_length_b 14.682209
_cell_length_c 31.423715
_cell_angle_alpha 90.000000
_cell_angle_beta 90.000000
_cell_angle_gamma 90.000000
_cell_volume 2744.014783
_symmetry_space_group_name_H-M "P C C N"
_symmetry_group_IT_number 56
_symmetry_cell_setting 'orthorhombic'
loop_
_space_group_symop_operation_xyz
x,y,z
1/2-x,1/2-y,z
1/2+x,-y,1/2-z
-x,1/2+y,1/2-z
-x,-y,-z
1/2+x,1/2+y,-z
1/2-x,y,1/2+z
x,1/2-y,1/2+z
loop_
_atom_site_type_symbol
_atom_site_label
_atom_site_fract_x
_atom_site_fract_y
_atom_site_fract_z
Si Si1 0.535424 0.587255 0.582568
Si Si2 0.081721 0.045027 0.759112
Si Si3 0.250000 0.750000 0.063048
Si Si4 0.589784 0.322957 0.692765
Si Si5 0.750000 0.750000 0.874054
Si Si6 0.329062 0.997532 0.350104
Si Si7 0.625388 0.845701 0.510547
Si Si8 0.831502 0.934730 0.923390
O O1 0.410012 0.683042 0.588573
O O2 0.640490 0.556050 0.626761
O O3 0.716245 0.604439 0.545081
O O4 0.367531 0.506333 0.569812
O O5 0.069912 0.130786 0.727551
O O6 0.835882 0.996496 0.748949
O O7 0.071554 0.051847 0.810128
O O8 0.398937 0.684586 0.033648
O O9 0.750000 0.250000 0.715035
O O10 0.459406 0.265709 0.657113
O O11 0.724898 0.404085 0.668929
O O12 0.756083 0.839772 0.902466
O O13 0.501661 0.975519 0.388050
O O14 0.750000 0.750000 0.498780
O O15 0.575894 0.906384 0.469422
#
# Coordination Sequence:
#
# PCOD9432617 Si02
#       8
#     8   8   4   8   4   8   8   8
#     4  11  24  43  68  96 136 191 239 300 357 432
#     4  10  24  45  72 103 144 192 232 289 367 443
#     4  10  24  46  68  88 136 190 250 298 352 428
#     4  11  23  42  71 104 146 179 232 297 368 437
#     4  12  22  38  68 108 142 180 230 292 364 438
#     4  11  24  41  70 101 138 185 233 294 361 435
#     4  10  23  42  65  97 140 189 235 297 359 428
#     4  12  23  39  69 107 140 182 233 294 363 434
#
# _framework density 20.408054
#
# number of rings (size 3 to 8) (size 9 to 14) (size 15 to 20)
#    0.000    1.143    3.571    2.143    4.000    5.714 
#    0.000    0.000   20.429    0.000    0.000    0.000 
#    0.000    0.000    0.000    0.000    0.000    0.000 
#
# Total GULP energy -312450.981272 kJ/mol
# GULP energy per Si atom -5579.481808 kJ/mol
# Density = 2.036160 g / cm^3
# Si number density = 20.408054 Si / 1000 Ang^3
#
#
#
# Elastic Constant Matrix: (Units=GPa)
#
#
# Indices 1 2 3 4 5 6 
#
# 1 74.1706 34.7033 32.1602 0.0000 0.0000 0.0000
# 2 34.7033 87.3803 65.2359 0.0000 0.0000 0.0000
# 3 32.1602 65.2359 100.2681 0.0000 0.0000 0.0000
# 4 0.0000 0.0000 0.0000 68.1668 0.0000 0.0000
# 5 0.0000 0.0000 0.0000 0.0000 -2.1357 0.0000
# 6 0.0000 0.0000 0.0000 0.0000 0.0000 36.3862
#
#
#
# Elastic Compliance Matrix: (Units=1/GPa)
#
#
# Indices 1 2 3 4 5 6 
#
# 1 0.016770 -0.005142 -0.002033 0.000000 0.000000 0.000000
# 2 -0.005142 0.023830 -0.013855 0.000000 0.000000 0.000000
# 3 -0.002033 -0.013855 0.019640 0.000000 0.000000 0.000000
# 4 0.000000 0.000000 0.000000 0.014670 0.000000 0.000000
# 5 0.000000 0.000000 0.000000 0.000000 -0.468228 0.000000
# 6 0.000000 0.000000 0.000000 0.000000 0.000000 0.027483
#
#
# Mechanical properties :
#
#
# Convention : Reuss Voigt Hill
#
# Bulk Modulus (GPa) = 55.00857 58.44641 56.72749
# Shear Modulus (GPa) = -15.73740 29.13143 6.69702
#
# Velocity S-wave (km/s) = -2.77995 3.78226 1.81347
# Velocity P-wave (km/s) = 4.08763 6.91195 5.67819
#
# Compressibility (1/GPa) = 0.01817899
#
# Stress axis : x y z
#
# Youngs Moduli (GPa) = 59.63019 41.96345 50.91754
#
# Poissons Ratio (x) = 0.21579 0.10352
# Poissons Ratio (y) = 0.30664 0.70546
# Poissons Ratio (z) = 0.12124 0.58140
#
# Static dielectric constant tensor:
#      x y z
#    x 1.794010 0.000000 0.000000 
#    y 0.000000 1.748320 0.000000 
#    z 0.000000 0.000000 1.710050 
# 
# From -- ./inp_files/22913.got.cif
#   From: 2010.05.17/outbox.cif.g08.bks.cpg/sg56_12_cif.got.tgz:22913.got - 2010.06.03 13:42:01.
