data_PCOD9432815
_publ_section_title
;
Structure prediction by ZEFSAII (Michael W. Deem and Ramdas Pophale) SiO2 
 PCOD9432815
Probable space group: P C C N
;
_chemical_formula_sum "Si O2"
_cell_formula_units_Z 60
_cell_length_a 14.280195
_cell_length_b 17.798373
_cell_length_c 11.030912
_cell_angle_alpha 90.000000
_cell_angle_beta 90.000000
_cell_angle_gamma 90.000000
_cell_volume 2803.663333
_symmetry_space_group_name_H-M "P C C N"
_symmetry_group_IT_number 56
_symmetry_cell_setting 'orthorhombic'
loop_
_space_group_symop_operation_xyz
x,y,z
1/2-x,1/2-y,z
1/2+x,-y,1/2-z
-x,1/2+y,1/2-z
-x,-y,-z
1/2+x,1/2+y,-z
1/2-x,y,1/2+z
x,1/2-y,1/2+z
loop_
_atom_site_type_symbol
_atom_site_label
_atom_site_fract_x
_atom_site_fract_y
_atom_site_fract_z
Si Si1 0.442223 0.959636 0.314332
Si Si2 0.430390 0.807433 0.668631
Si Si3 0.210052 0.031077 0.665368
Si Si4 0.636613 0.377075 0.581517
Si Si5 0.114528 0.958384 0.075807
Si Si6 0.250000 0.750000 0.031038
Si Si7 0.680012 0.555730 0.601550
Si Si8 0.002517 0.654768 0.144430
O O1 0.380242 0.973940 0.433386
O O2 0.446621 0.875108 0.266198
O O3 0.393479 0.004775 0.204248
O O4 0.545894 0.984667 0.354387
O O5 0.411747 0.841337 0.800505
O O6 0.440526 0.880364 0.585821
O O7 0.336992 0.768393 0.617105
O O8 0.508456 0.743944 0.657185
O O9 0.251528 0.069897 0.784896
O O10 0.211469 0.073168 0.536794
O O11 0.283343 0.962255 0.637032
O O12 0.724938 0.323350 0.549191
O O13 0.657453 0.465499 0.598476
O O14 0.566845 0.366079 0.469566
O O15 0.589715 0.605965 0.627598
#
# Coordination Sequence:
#
# PCOD9432815 Si02
#       8
#     8   8   8   8   8   4   8   8
#     4  11  24  41  65  95 133 177 221 279 340 406
#     4  11  24  38  59  92 134 175 212 274 341 406
#     4  12  23  39  69 101 134 173 223 285 339 402
#     4  11  22  37  64  92 135 178 215 270 342 420
#     4  11  24  42  63 100 131 175 226 276 343 416
#     4  10  24  36  54  96 138 174 206 266 350 432
#     4  12  24  42  66 101 134 175 235 274 338 407
#     4  11  25  40  62  95 134 181 221 279 320 420
#
# _framework density 21.400573000000001
#
# number of rings (size 3 to 8) (size 9 to 14) (size 15 to 20)
#    0.000    0.800    5.333    1.600    7.467    0.000 
#    0.000    0.000    0.000    0.800    6.933    0.000 
#    0.000    0.000    0.000    0.000    0.000    0.000 
#
# Total GULP energy -334992.987709 kJ/mol
# GULP energy per Si atom -5583.216462 kJ/mol
# Density = 2.135186 g / cm^3
# Si number density = 21.400573 Si / 1000 Ang^3
#
#
#
# Elastic Constant Matrix: (Units=GPa)
#
#
# Indices 1 2 3 4 5 6 
#
# 1 44.8088 21.0581 27.2941 0.0000 0.0000 0.0000
# 2 21.0581 70.3708 16.1126 0.0000 0.0000 0.0000
# 3 27.2941 16.1126 144.6629 0.0000 0.0000 0.0000
# 4 0.0000 0.0000 0.0000 23.2381 0.0000 0.0000
# 5 0.0000 0.0000 0.0000 0.0000 33.5784 0.0000
# 6 0.0000 0.0000 0.0000 0.0000 0.0000 29.8211
#
#
#
# Elastic Compliance Matrix: (Units=1/GPa)
#
#
# Indices 1 2 3 4 5 6 
#
# 1 0.028633 -0.007523 -0.004564 0.000000 0.000000 0.000000
# 2 -0.007523 0.016559 -0.000425 0.000000 0.000000 0.000000
# 3 -0.004564 -0.000425 0.007821 0.000000 0.000000 0.000000
# 4 0.000000 0.000000 0.000000 0.043033 0.000000 0.000000
# 5 0.000000 0.000000 0.000000 0.000000 0.029781 0.000000
# 6 0.000000 0.000000 0.000000 0.000000 0.000000 0.033533
#
#
# Mechanical properties :
#
#
# Convention : Reuss Voigt Hill
#
# Bulk Modulus (GPa) = 35.72946 43.19692 39.46319
# Shear Modulus (GPa) = 25.81122 30.35271 28.08197
#
# Velocity S-wave (km/s) = 3.47666 3.77014 3.62637
# Velocity P-wave (km/s) = 5.73132 6.25944 6.00120
#
# Compressibility (1/GPa) = 0.02798811
#
# Stress axis : x y z
#
# Youngs Moduli (GPa) = 34.92497 60.39015 127.85894
#
# Poissons Ratio (x) = 0.45432 0.58359
# Poissons Ratio (y) = 0.26275 0.05433
# Poissons Ratio (z) = 0.15941 0.02566
#
# Static dielectric constant tensor:
#      x y z
#    x 1.806550 0.000000 0.000000 
#    y 0.000000 1.793740 0.000000 
#    z 0.000000 0.000000 1.829660 
# 
# From -- ./inp_files/8025.got.cif
#   From: 2010.05.17/outbox.cif.g08.bks.cpg/sg56_5_cif.got.tgz:8025.got - 2010.06.03 13:42:01.
