data_PCOD9432396
_publ_section_title
;
Structure prediction by ZEFSAII (Michael W. Deem and Ramdas Pophale) SiO2 
 PCOD9432396
Probable space group: P C C N
;
_chemical_formula_sum "Si O2"
_cell_formula_units_Z 60
_cell_length_a 10.624691
_cell_length_b 21.490937
_cell_length_c 12.203514
_cell_angle_alpha 90.000000
_cell_angle_beta 90.000000
_cell_angle_gamma 90.000000
_cell_volume 2786.484060
_symmetry_space_group_name_H-M "P C C N"
_symmetry_group_IT_number 56
_symmetry_cell_setting 'orthorhombic'
loop_
_space_group_symop_operation_xyz
x,y,z
1/2-x,1/2-y,z
1/2+x,-y,1/2-z
-x,1/2+y,1/2-z
-x,-y,-z
1/2+x,1/2+y,-z
1/2-x,y,1/2+z
x,1/2-y,1/2+z
loop_
_atom_site_type_symbol
_atom_site_label
_atom_site_fract_x
_atom_site_fract_y
_atom_site_fract_z
Si Si1 0.391378 0.520155 0.083959
Si Si2 0.277916 0.056737 0.766173
Si Si3 0.343990 0.691569 0.822751
Si Si4 0.480143 0.287896 0.593689
Si Si5 0.945585 0.662964 0.147673
Si Si6 0.750000 0.750000 0.278604
Si Si7 0.782205 0.063324 0.596734
Si Si8 0.999079 0.900078 0.276098
O O1 0.354346 0.461537 0.157964
O O2 0.440193 0.573417 0.165919
O O3 0.500000 0.500000 0.000000
O O4 0.268322 0.544670 0.021341
O O5 0.371490 0.097701 0.840419
O O6 0.148953 0.090542 0.734964
O O7 0.236736 0.992485 0.824104
O O8 0.250000 0.750000 0.800525
O O9 0.445968 0.722909 0.905824
O O10 0.428093 0.669132 0.720083
O O11 0.277857 0.630106 0.871944
O O12 0.481164 0.319609 0.475884
O O13 0.338467 0.284286 0.634876
O O14 0.532480 0.329733 0.693928
O O15 0.843895 0.710711 0.201688
O O16 0.930966 0.064767 0.623432
#
# Coordination Sequence:
#
# PCOD9432396 Si02
#       8
#     8   8   8   8   8   4   8   8
#     4  11  24  45  70 100 142 194 229 292 379 433
#     4  11  25  45  71 111 144 177 252 299 363 448
#     4  11  25  49  68 101 148 190 250 295 361 449
#     4  11  24  44  68 104 136 185 239 296 358 432
#     4  11  25  43  76 100 144 188 232 306 369 420
#     4  10  22  44  64 102 138 180 230 294 354 444
#     4  11  25  45  70 102 144 199 236 299 366 438
#     4  11  24  44  69 104 138 179 245 300 350 448
#
# _framework density 21.532511
#
# number of rings (size 3 to 8) (size 9 to 14) (size 15 to 20)
#    0.000    1.067    4.000    1.200    3.733    5.333 
#    4.800    0.000    0.000    0.000    0.000    0.000 
#    0.000    0.000    0.000    0.000    0.000    0.000 
#
# Total GULP energy -334643.557375 kJ/mol
# GULP energy per Si atom -5577.392623 kJ/mol
# Density = 2.148350 g / cm^3
# Si number density = 21.532511 Si / 1000 Ang^3
#
#
#
# Elastic Constant Matrix: (Units=GPa)
#
#
# Indices 1 2 3 4 5 6 
#
# 1 47.6171 7.2783 26.2948 0.0000 0.0000 0.0000
# 2 7.2783 93.4485 27.7481 0.0000 0.0000 0.0000
# 3 26.2948 27.7481 106.6504 0.0000 0.0000 0.0000
# 4 0.0000 0.0000 0.0000 22.4625 0.0000 0.0000
# 5 0.0000 0.0000 0.0000 0.0000 28.2399 0.0000
# 6 0.0000 0.0000 0.0000 0.0000 0.0000 36.8143
#
#
#
# Elastic Compliance Matrix: (Units=1/GPa)
#
#
# Indices 1 2 3 4 5 6 
#
# 1 0.024312 -0.000123 -0.005962 0.000000 0.000000 0.000000
# 2 -0.000123 0.011598 -0.002987 0.000000 0.000000 0.000000
# 3 -0.005962 -0.002987 0.011624 0.000000 0.000000 0.000000
# 4 0.000000 0.000000 0.000000 0.044519 0.000000 0.000000
# 5 0.000000 0.000000 0.000000 0.000000 0.035411 0.000000
# 6 0.000000 0.000000 0.000000 0.000000 0.000000 0.027163
#
#
# Mechanical properties :
#
#
# Convention : Reuss Voigt Hill
#
# Bulk Modulus (GPa) = 34.02696 41.15093 37.58895
# Shear Modulus (GPa) = 27.38721 29.92967 28.65844
#
# Velocity S-wave (km/s) = 3.57024 3.73228 3.65216
# Velocity P-wave (km/s) = 5.72996 6.14213 5.93962
#
# Compressibility (1/GPa) = 0.02938846
#
# Stress axis : x y z
#
# Youngs Moduli (GPa) = 41.13188 86.22438 86.03205
#
# Poissons Ratio (x) = 0.01062 0.51293
# Poissons Ratio (y) = 0.00507 0.25698
# Poissons Ratio (z) = 0.24523 0.25756
#
# Static dielectric constant tensor:
#      x y z
#    x 1.859070 0.000000 0.000000 
#    y 0.000000 1.808370 0.000000 
#    z 0.000000 0.000000 1.754960 
# 
# From -- ./inp_files/7347.got.cif
#   From: 2010.05.17/outbox.cif.g08.bks.cpg/sg56_4_cif.got.tgz:7347.got - 2010.06.03 13:42:01.
