data_PCOD9432837
_publ_section_title
;
Structure prediction by ZEFSAII (Michael W. Deem and Ramdas Pophale) SiO2 
 PCOD9432837
Probable space group: P C C N
;
_chemical_formula_sum "Si O2"
_cell_formula_units_Z 40
_cell_length_a 9.061579
_cell_length_b 8.570407
_cell_length_c 27.359003
_cell_angle_alpha 90.000000
_cell_angle_beta 90.000000
_cell_angle_gamma 90.000000
_cell_volume 2124.739025
_symmetry_space_group_name_H-M "P C C N"
_symmetry_group_IT_number 56
_symmetry_cell_setting 'orthorhombic'
loop_
_space_group_symop_operation_xyz
x,y,z
1/2-x,1/2-y,z
1/2+x,-y,1/2-z
-x,1/2+y,1/2-z
-x,-y,-z
1/2+x,1/2+y,-z
1/2-x,y,1/2+z
x,1/2-y,1/2+z
loop_
_atom_site_type_symbol
_atom_site_label
_atom_site_fract_x
_atom_site_fract_y
_atom_site_fract_z
Si Si1 0.750000 0.250000 0.088128
Si Si2 0.252180 0.004895 0.664949
Si Si3 0.180885 0.083686 0.961906
Si Si4 0.329990 0.908904 0.555820
Si Si5 0.250000 0.750000 0.247880
Si Si6 0.503720 0.265320 0.669877
O O1 0.737977 0.419379 0.061396
O O2 0.606422 0.245574 0.122534
O O3 0.378880 0.134095 0.669766
O O4 0.088589 0.075826 0.667900
O O5 0.280000 0.933607 0.611420
O O6 0.266244 0.892899 0.710988
O O7 0.250000 0.250000 0.946944
O O8 0.007005 0.100716 0.949793
O O9 0.208940 0.051702 0.019609
O O10 0.250000 0.750000 0.538729
O O11 0.391282 0.754073 0.283370
#
# Coordination Sequence:
#
# PCOD9432837 Si02
#       6
#     4   8   8   8   4   8
#     4  11  22  45  62  96 142 169 218 273 328 396
#     4  11  22  40  65  92 124 171 220 262 334 391
#     4  11  26  42  67  99 136 177 220 269 334 390
#     4  11  24  43  63  98 131 172 224 273 319 406
#     4  11  22  41  64  92 124 165 226 275 322 400
#     4  10  24  40  64  90 132 170 209 276 336 386
#
# _framework density 18.825842000000002
#
# number of rings (size 3 to 8) (size 9 to 14) (size 15 to 20)
#    0.000    1.200    4.000    1.200    5.600    0.800 
#    0.000    0.000    0.000    0.000    0.000    0.000 
#    0.000    0.000    0.000    0.000    0.000    0.000 
#
# Total GULP energy -223067.402119 kJ/mol
# GULP energy per Si atom -5576.685053 kJ/mol
# Density = 1.878299 g / cm^3
# Si number density = 18.825842 Si / 1000 Ang^3
#
#
#
# Elastic Constant Matrix: (Units=GPa)
#
#
# Indices 1 2 3 4 5 6 
#
# 1 91.8899 44.5217 40.0166 0.0000 0.0000 0.0000
# 2 44.5217 120.8596 48.0493 0.0000 0.0000 0.0000
# 3 40.0166 48.0493 114.8803 0.0000 0.0000 0.0000
# 4 0.0000 0.0000 0.0000 26.7141 0.0000 0.0000
# 5 0.0000 0.0000 0.0000 0.0000 13.7864 0.0000
# 6 0.0000 0.0000 0.0000 0.0000 0.0000 7.3477
#
#
#
# Elastic Compliance Matrix: (Units=1/GPa)
#
#
# Indices 1 2 3 4 5 6 
#
# 1 0.014227 -0.003923 -0.003315 0.000000 0.000000 0.000000
# 2 -0.003923 0.011006 -0.003237 0.000000 0.000000 0.000000
# 3 -0.003315 -0.003237 0.011213 0.000000 0.000000 0.000000
# 4 0.000000 0.000000 0.000000 0.037433 0.000000 0.000000
# 5 0.000000 0.000000 0.000000 0.000000 0.072535 0.000000
# 6 0.000000 0.000000 0.000000 0.000000 0.000000 0.136097
#
#
# Mechanical properties :
#
#
# Convention : Reuss Voigt Hill
#
# Bulk Modulus (GPa) = 64.52957 65.86720 65.19838
# Shear Modulus (GPa) = 16.20080 22.57246 19.38663
#
# Velocity S-wave (km/s) = 2.93672 3.46644 3.21251
# Velocity P-wave (km/s) = 6.77131 7.14739 6.96189
#
# Compressibility (1/GPa) = 0.01549677
#
# Stress axis : x y z
#
# Youngs Moduli (GPa) = 70.28942 90.85935 89.18040
#
# Poissons Ratio (x) = 0.35644 0.29562
# Poissons Ratio (y) = 0.27574 0.28866
# Poissons Ratio (z) = 0.23300 0.29410
#
# Static dielectric constant tensor:
#      x y z
#    x 1.622520 0.000000 0.000000 
#    y 0.000000 1.619780 0.000000 
#    z 0.000000 0.000000 1.650070 
# 
# From -- ./inp_files/20376.got.cif
#   From: 2010.05.17/outbox.cif.g08.bks.cpg/sg56_11_cif.got.tgz:20376.got - 2010.06.03 13:42:01.
