data_PCOD9432408
_publ_section_title
;
Structure prediction by ZEFSAII (Michael W. Deem and Ramdas Pophale) SiO2 
 PCOD9432408
Probable space group: P C C N
;
_chemical_formula_sum "Si O2"
_cell_formula_units_Z 32
_cell_length_a 19.317977
_cell_length_b 4.816814
_cell_length_c 13.487303
_cell_angle_alpha 90.000000
_cell_angle_beta 90.000000
_cell_angle_gamma 90.000000
_cell_volume 1255.008408
_symmetry_space_group_name_H-M "P C C N"
_symmetry_group_IT_number 56
_symmetry_cell_setting 'orthorhombic'
loop_
_space_group_symop_operation_xyz
x,y,z
1/2-x,1/2-y,z
1/2+x,-y,1/2-z
-x,1/2+y,1/2-z
-x,-y,-z
1/2+x,1/2+y,-z
1/2-x,y,1/2+z
x,1/2-y,1/2+z
loop_
_atom_site_type_symbol
_atom_site_label
_atom_site_fract_x
_atom_site_fract_y
_atom_site_fract_z
Si Si1 0.179815 0.095617 0.731436
Si Si2 0.827990 0.817546 0.046082
Si Si3 0.532168 0.628034 0.296148
Si Si4 0.611535 0.174922 0.945951
O O1 0.250000 0.250000 0.708659
O O2 0.183064 0.035812 0.848049
O O3 0.107428 0.262565 0.723953
O O4 0.164545 0.869038 0.647391
O O5 0.750000 0.750000 0.010164
O O6 0.865700 0.522308 0.036586
O O7 0.876726 0.016131 0.981385
O O8 0.518858 0.385508 0.214938
O O9 0.541674 0.450089 0.396883
#
# Coordination Sequence:
#
# PCOD9432408 Si02
#       4
#     8   8   8   8
#     4   9  23  43  73  96 139 175 230 278 349 394
#     4  11  22  41  64 104 130 173 223 287 331 419
#     4  10  22  44  67  96 138 181 226 277 337 410
#     4  10  23  40  68  94 140 170 226 271 350 382
#
# _framework density 25.497838999999999
#
# number of rings (size 3 to 8) (size 9 to 14) (size 15 to 20)
#    1.500    0.500    0.000    3.000    0.000    4.000 
#    0.000   16.250    0.000    1.500    0.000    0.000 
#    0.000    0.000    0.000    0.000    0.000    0.000 
#
# Total GULP energy -178298.652434 kJ/mol
# GULP energy per Si atom -5571.832889 kJ/mol
# Density = 2.543980 g / cm^3
# Si number density = 25.497839 Si / 1000 Ang^3
#
#
#
# Elastic Constant Matrix: (Units=GPa)
#
#
# Indices 1 2 3 4 5 6 
#
# 1 83.9639 18.4077 0.7986 0.0000 0.0000 0.0000
# 2 18.4077 117.2491 20.9594 0.0000 0.0000 0.0000
# 3 0.7986 20.9594 118.6261 0.0000 0.0000 0.0000
# 4 0.0000 0.0000 0.0000 15.6736 0.0000 0.0000
# 5 0.0000 0.0000 0.0000 0.0000 28.6275 0.0000
# 6 0.0000 0.0000 0.0000 0.0000 0.0000 29.3720
#
#
#
# Elastic Compliance Matrix: (Units=1/GPa)
#
#
# Indices 1 2 3 4 5 6 
#
# 1 0.012343 -0.001986 0.000268 0.000000 0.000000 0.000000
# 2 -0.001986 0.009126 -0.001599 0.000000 0.000000 0.000000
# 3 0.000268 -0.001599 0.008711 0.000000 0.000000 0.000000
# 4 0.000000 0.000000 0.000000 0.063801 0.000000 0.000000
# 5 0.000000 0.000000 0.000000 0.000000 0.034931 0.000000
# 6 0.000000 0.000000 0.000000 0.000000 0.000000 0.034046
#
#
# Mechanical properties :
#
#
# Convention : Reuss Voigt Hill
#
# Bulk Modulus (GPa) = 42.47067 44.46337 43.46702
# Shear Modulus (GPa) = 28.17837 33.37954 30.77895
#
# Velocity S-wave (km/s) = 3.32795 3.62209 3.47813
# Velocity P-wave (km/s) = 5.60890 5.91343 5.76318
#
# Compressibility (1/GPa) = 0.02354566
#
# Stress axis : x y z
#
# Youngs Moduli (GPa) = 81.01993 109.57169 114.80280
#
# Poissons Ratio (x) = 0.21757 -0.03074
# Poissons Ratio (y) = 0.16087 0.18358
# Poissons Ratio (z) = -0.02169 0.17522
#
# Static dielectric constant tensor:
#      x y z
#    x 2.059950 0.000000 0.000000 
#    y 0.000000 1.979190 0.000000 
#    z 0.000000 0.000000 2.077420 
# 
# From -- ./inp_files/8547.got.cif
#   From: 2010.05.17/outbox.cif.g08.bks.cpg/sg56_5_cif.got.tgz:8547.got - 2010.06.03 13:42:01.
