data_PCOD9432151
_publ_section_title
;
Structure prediction by ZEFSAII (Michael W. Deem and Ramdas Pophale) SiO2 
 PCOD9432151
Probable space group: P C C N
;
_chemical_formula_sum "Si O2"
_cell_formula_units_Z 64
_cell_length_a 14.547264
_cell_length_b 10.748353
_cell_length_c 18.880252
_cell_angle_alpha 90.000000
_cell_angle_beta 90.000000
_cell_angle_gamma 90.000000
_cell_volume 2952.099752
_symmetry_space_group_name_H-M "P C C N"
_symmetry_group_IT_number 56
_symmetry_cell_setting 'orthorhombic'
loop_
_space_group_symop_operation_xyz
x,y,z
1/2-x,1/2-y,z
1/2+x,-y,1/2-z
-x,1/2+y,1/2-z
-x,-y,-z
1/2+x,1/2+y,-z
1/2-x,y,1/2+z
x,1/2-y,1/2+z
loop_
_atom_site_type_symbol
_atom_site_label
_atom_site_fract_x
_atom_site_fract_y
_atom_site_fract_z
Si Si1 0.762260 0.608737 0.954397
Si Si2 0.539731 0.865460 0.994977
Si Si3 0.194515 0.053058 0.699967
Si Si4 0.355815 0.720552 0.732557
Si Si5 0.907709 0.511797 0.547206
Si Si6 0.484308 0.272632 0.865414
Si Si7 0.039819 0.789934 0.868627
Si Si8 0.883691 0.672398 0.265814
O O1 0.750000 0.750000 0.927067
O O2 0.850930 0.622830 0.003756
O O3 0.789558 0.533370 0.884287
O O4 0.674676 0.559074 0.997207
O O5 0.512544 0.802998 0.920942
O O6 0.498883 0.787873 0.058874
O O7 0.500000 0.000000 0.000000
O O8 0.142536 0.183518 0.715057
O O9 0.296107 0.082539 0.731060
O O10 0.142206 0.931191 0.728280
O O11 0.250000 0.750000 0.723782
O O12 0.418979 0.786244 0.673917
O O13 0.397018 0.765615 0.807226
O O14 0.926585 0.606487 0.612091
O O15 0.897327 0.378545 0.583425
O O16 0.000000 0.500000 0.500000
O O17 0.427603 0.184214 0.811897
O O18 0.959766 0.862376 0.824811
#
# Coordination Sequence:
#
# PCOD9432151 Si02
#       8
#     8   8   8   8   8   8   8   8
#     4  12  22  42  71 103 141 186 246 291 355 429
#     4  12  25  45  70 100 142 187 232 301 364 425
#     4  11  21  42  69 101 132 182 236 292 349 430
#     4  11  28  45  67 100 144 190 235 287 371 445
#     4  12  24  42  74 105 141 183 237 302 353 422
#     4  11  25  43  65 104 138 177 234 299 351 426
#     4  11  24  47  67  99 140 185 232 296 366 423
#     4  10  22  40  72  94 133 177 237 295 352 416
#
# _framework density 21.679485
#
# number of rings (size 3 to 8) (size 9 to 14) (size 15 to 20)
#    0.000    0.750    5.000    2.250    3.500    5.000 
#    0.000    0.625    0.000    0.000    0.000    0.000 
#    0.000    0.000    0.000    0.000    0.000    0.000 
#
# Total GULP energy -357607.597590 kJ/mol
# GULP energy per Si atom -5587.618712 kJ/mol
# Density = 2.163014 g / cm^3
# Si number density = 21.679485 Si / 1000 Ang^3
#
#
#
# Elastic Constant Matrix: (Units=GPa)
#
#
# Indices 1 2 3 4 5 6 
#
# 1 73.7626 3.2570 49.7905 0.0000 0.0000 0.0000
# 2 3.2570 51.1865 6.2838 0.0000 0.0000 0.0000
# 3 49.7905 6.2838 126.6048 0.0000 0.0000 0.0000
# 4 0.0000 0.0000 0.0000 13.6917 0.0000 0.0000
# 5 0.0000 0.0000 0.0000 0.0000 27.0517 0.0000
# 6 0.0000 0.0000 0.0000 0.0000 0.0000 28.1041
#
#
#
# Elastic Compliance Matrix: (Units=1/GPa)
#
#
# Indices 1 2 3 4 5 6 
#
# 1 0.018461 -0.000285 -0.007246 0.000000 0.000000 0.000000
# 2 -0.000285 0.019661 -0.000864 0.000000 0.000000 0.000000
# 3 -0.007246 -0.000864 0.010791 0.000000 0.000000 0.000000
# 4 0.000000 0.000000 0.000000 0.073037 0.000000 0.000000
# 5 0.000000 0.000000 0.000000 0.000000 0.036966 0.000000
# 6 0.000000 0.000000 0.000000 0.000000 0.000000 0.035582
#
#
# Mechanical properties :
#
#
# Convention : Reuss Voigt Hill
#
# Bulk Modulus (GPa) = 31.13052 41.13518 36.13285
# Shear Modulus (GPa) = 22.52307 26.58436 24.55372
#
# Velocity S-wave (km/s) = 3.22671 3.50558 3.36903
# Velocity P-wave (km/s) = 5.31722 5.94986 5.64242
#
# Compressibility (1/GPa) = 0.03212282
#
# Stress axis : x y z
#
# Youngs Moduli (GPa) = 54.16912 50.86319 92.66877
#
# Poissons Ratio (x) = 0.01450 0.67148
# Poissons Ratio (y) = 0.01545 0.08004
# Poissons Ratio (z) = 0.39251 0.04393
#
# Static dielectric constant tensor:
#      x y z
#    x 1.802640 0.000000 0.000000 
#    y 0.000000 1.902110 0.000000 
#    z 0.000000 0.000000 1.794630 
# 
# From -- ./inp_files/16348.got.cif
#   From: 2010.05.17/outbox.cif.g08.bks.cpg/sg56_9_cif.got.tgz:16348.got - 2010.06.03 13:42:01.
