data_PCOD9432050
_publ_section_title
;
Structure prediction by ZEFSAII (Michael W. Deem and Ramdas Pophale) SiO2 
 PCOD9432050
Probable space group: P C C N
;
_chemical_formula_sum "Si O2"
_cell_formula_units_Z 56
_cell_length_a 14.629489
_cell_length_b 11.549748
_cell_length_c 15.002277
_cell_angle_alpha 90.000000
_cell_angle_beta 90.000000
_cell_angle_gamma 90.000000
_cell_volume 2534.888407
_symmetry_space_group_name_H-M "P C C N"
_symmetry_group_IT_number 56
_symmetry_cell_setting 'orthorhombic'
loop_
_space_group_symop_operation_xyz
x,y,z
1/2-x,1/2-y,z
1/2+x,-y,1/2-z
-x,1/2+y,1/2-z
-x,-y,-z
1/2+x,1/2+y,-z
1/2-x,y,1/2+z
x,1/2-y,1/2+z
loop_
_atom_site_type_symbol
_atom_site_label
_atom_site_fract_x
_atom_site_fract_y
_atom_site_fract_z
Si Si1 0.651292 0.583987 0.187641
Si Si2 0.384738 0.099754 0.119551
Si Si3 0.161904 0.836932 0.603324
Si Si4 0.864821 0.942870 0.685844
Si Si5 0.455800 0.856565 0.276417
Si Si6 0.143305 0.257144 0.955277
Si Si7 0.077514 0.651249 0.908593
O O1 0.611937 0.638505 0.278059
O O2 0.760188 0.591567 0.204890
O O3 0.613944 0.455290 0.191010
O O4 0.612701 0.643960 0.098277
O O5 0.487236 0.071067 0.089107
O O6 0.325850 0.980104 0.109438
O O7 0.362689 0.208799 0.057612
O O8 0.250000 0.750000 0.611617
O O9 0.090307 0.811945 0.683617
O O10 0.118573 0.821080 0.504846
O O11 0.891716 0.866488 0.599780
O O12 0.944855 0.913925 0.756001
O O13 0.857360 0.075414 0.654348
O O14 0.452908 0.763036 0.353997
O O15 0.250000 0.250000 0.938995
#
# Coordination Sequence:
#
# PCOD9432050 Si02
#       7
#     8   8   8   8   8   8   8
#     4  10  24  43  68 103 137 182 242 289 351 428
#     4  11  22  45  68 100 138 193 234 288 365 431
#     4  11  25  42  68 106 139 186 244 291 356 430
#     4  11  22  42  69  97 138 183 233 286 361 423
#     4  11  26  44  70 106 140 187 240 298 361 428
#     4  10  22  39  67  93 133 180 234 285 342 431
#     4  12  24  42  73  98 143 183 234 294 360 429
#
# _framework density 22.091701
#
# number of rings (size 3 to 8) (size 9 to 14) (size 15 to 20)
#    0.000    1.143    4.286    2.143    6.000    2.857 
#    0.000    0.714    3.143    0.000    0.000    0.000 
#    0.000    0.000    0.000    0.000    0.000    0.000 
#
# Total GULP energy -311924.225689 kJ/mol
# GULP energy per Si atom -5570.075459 kJ/mol
# Density = 2.204142 g / cm^3
# Si number density = 22.091701 Si / 1000 Ang^3
#
#
#
# Elastic Constant Matrix: (Units=GPa)
#
#
# Indices 1 2 3 4 5 6 
#
# 1 75.7567 34.3871 -0.3945 0.0000 0.0000 0.0000
# 2 34.3871 84.5816 55.9990 0.0000 0.0000 0.0000
# 3 -0.3945 55.9990 62.8817 0.0000 0.0000 0.0000
# 4 0.0000 0.0000 0.0000 43.3456 0.0000 0.0000
# 5 0.0000 0.0000 0.0000 0.0000 30.9189 0.0000
# 6 0.0000 0.0000 0.0000 0.0000 0.0000 32.3440
#
#
#
# Elastic Compliance Matrix: (Units=1/GPa)
#
#
# Indices 1 2 3 4 5 6 
#
# 1 0.024397 -0.024415 0.021896 0.000000 0.000000 0.000000
# 2 -0.024415 0.053242 -0.047568 0.000000 0.000000 0.000000
# 3 0.021896 -0.047568 0.058401 0.000000 0.000000 0.000000
# 4 0.000000 0.000000 0.000000 0.023070 0.000000 0.000000
# 5 0.000000 0.000000 0.000000 0.000000 0.032343 0.000000
# 6 0.000000 0.000000 0.000000 0.000000 0.000000 0.030918
#
#
# Mechanical properties :
#
#
# Convention : Reuss Voigt Hill
#
# Bulk Modulus (GPa) = 27.88145 44.80035 36.34090
# Shear Modulus (GPa) = 14.94766 30.20359 22.57563
#
# Velocity S-wave (km/s) = 2.60401 3.70157 3.20019
# Velocity P-wave (km/s) = 4.65718 6.21225 5.49006
#
# Compressibility (1/GPa) = 0.03586614
#
# Stress axis : x y z
#
# Youngs Moduli (GPa) = 40.98934 18.78208 17.12286
#
# Poissons Ratio (x) = 0.45857 -0.37492
# Poissons Ratio (y) = 1.00076 0.81450
# Poissons Ratio (z) = -0.89750 0.89342
#
# Static dielectric constant tensor:
#      x y z
#    x 1.907570 0.000000 0.000000 
#    y 0.000000 1.943330 0.000000 
#    z 0.000000 0.000000 1.920130 
# 
# From -- ./inp_files/12282.got.cif
#   From: 2010.05.17/outbox.cif.g08.bks.cpg/sg56_7_cif.got.tgz:12282.got - 2010.06.03 13:42:01.
