data_PCOD9432562
_publ_section_title
;
Structure prediction by ZEFSAII (Michael W. Deem and Ramdas Pophale) SiO2 
 PCOD9432562
Probable space group: P C C N
;
_chemical_formula_sum "Si O2"
_cell_formula_units_Z 28
_cell_length_a 9.461403
_cell_length_b 7.493659
_cell_length_c 20.126741
_cell_angle_alpha 90.000000
_cell_angle_beta 90.000000
_cell_angle_gamma 90.000000
_cell_volume 1426.996559
_symmetry_space_group_name_H-M "P C C N"
_symmetry_group_IT_number 56
_symmetry_cell_setting 'orthorhombic'
loop_
_space_group_symop_operation_xyz
x,y,z
1/2-x,1/2-y,z
1/2+x,-y,1/2-z
-x,1/2+y,1/2-z
-x,-y,-z
1/2+x,1/2+y,-z
1/2-x,y,1/2+z
x,1/2-y,1/2+z
loop_
_atom_site_type_symbol
_atom_site_label
_atom_site_fract_x
_atom_site_fract_y
_atom_site_fract_z
Si Si1 0.429709 0.454219 0.930630
Si Si2 0.627090 0.946816 0.109821
Si Si3 0.250000 0.250000 0.768550
Si Si4 0.408314 0.253274 0.639319
O O1 0.430441 0.243609 0.915188
O O2 0.264115 0.504608 0.931660
O O3 0.512993 0.567832 0.875085
O O4 0.500000 0.500000 0.000000
O O5 0.694711 0.904489 0.182627
O O6 0.506726 0.092814 0.110978
O O7 0.376176 0.291929 0.717045
O O8 0.250000 0.250000 0.608822
#
# Coordination Sequence:
#
# PCOD9432562 Si02
#       4
#     8   8   4   8
#     4  10  23  43  65  92 130 170 219 265 322 384
#     4  10  23  43  63  98 126 174 217 272 320 390
#     4   8  22  36  66  90 130 158 214 264 320 394
#     4  10  23  40  64  97 125 168 213 266 328 381
#
# _framework density 19.62163
#
# number of rings (size 3 to 8) (size 9 to 14) (size 15 to 20)
#    0.857    1.714    0.000    0.857   12.000    2.286 
#    5.143    0.000    0.000    0.000    0.000    0.000 
#    0.000    0.000    0.000    0.000    0.000    0.000 
#
# Total GULP energy -156050.252634 kJ/mol
# GULP energy per Si atom -5573.223308 kJ/mol
# Density = 1.957697 g / cm^3
# Si number density = 19.621630 Si / 1000 Ang^3
#
#
#
# Elastic Constant Matrix: (Units=GPa)
#
#
# Indices 1 2 3 4 5 6 
#
# 1 172.1073 87.8863 52.5815 0.0000 0.0000 0.0000
# 2 87.8863 85.1271 35.1506 0.0000 0.0000 0.0000
# 3 52.5815 35.1506 86.6468 0.0000 0.0000 0.0000
# 4 0.0000 0.0000 0.0000 -7.2444 0.0000 0.0000
# 5 0.0000 0.0000 0.0000 0.0000 34.8169 0.0000
# 6 0.0000 0.0000 0.0000 0.0000 0.0000 38.1154
#
#
#
# Elastic Compliance Matrix: (Units=1/GPa)
#
#
# Indices 1 2 3 4 5 6 
#
# 1 0.012871 -0.012088 -0.002907 0.000000 0.000000 0.000000
# 2 -0.012088 0.025463 -0.002994 0.000000 0.000000 0.000000
# 3 -0.002907 -0.002994 0.014520 0.000000 0.000000 0.000000
# 4 0.000000 0.000000 0.000000 -0.138038 0.000000 0.000000
# 5 0.000000 0.000000 0.000000 0.000000 0.028722 0.000000
# 6 0.000000 0.000000 0.000000 0.000000 0.000000 0.026236
#
#
# Mechanical properties :
#
#
# Convention : Reuss Voigt Hill
#
# Bulk Modulus (GPa) = 59.25641 77.23531 68.24586
# Shear Modulus (GPa) = 439.43854 24.35512 231.89683
#
# Velocity S-wave (km/s) = 14.98140 3.52694 10.88305
# Velocity P-wave (km/s) = 18.15273 7.48556 13.88444
#
# Compressibility (1/GPa) = 0.01687581
#
# Stress axis : x y z
#
# Youngs Moduli (GPa) = 77.69290 39.27212 68.87073
#
# Poissons Ratio (x) = 0.47472 0.20021
# Poissons Ratio (y) = 0.93915 0.20622
# Poissons Ratio (z) = 0.22586 0.11759
#
# Static dielectric constant tensor:
#      x y z
#    x 1.673830 0.000000 0.000000 
#    y 0.000000 1.662800 0.000000 
#    z 0.000000 0.000000 1.731850 
# 
# From -- ./inp_files/20266.got.cif
#   From: 2010.05.17/outbox.cif.g08.bks.cpg/sg56_11_cif.got.tgz:20266.got - 2010.06.03 13:42:01.
