data_PCOD9432643
_publ_section_title
;
Structure prediction by ZEFSAII (Michael W. Deem and Ramdas Pophale) SiO2 
 PCOD9432643
Probable space group: P C C N
;
_chemical_formula_sum "Si O2"
_cell_formula_units_Z 32
_cell_length_a 5.023238
_cell_length_b 17.808494
_cell_length_c 14.341772
_cell_angle_alpha 90.000000
_cell_angle_beta 90.000000
_cell_angle_gamma 90.000000
_cell_volume 1282.961913
_symmetry_space_group_name_H-M "P C C N"
_symmetry_group_IT_number 56
_symmetry_cell_setting 'orthorhombic'
loop_
_space_group_symop_operation_xyz
x,y,z
1/2-x,1/2-y,z
1/2+x,-y,1/2-z
-x,1/2+y,1/2-z
-x,-y,-z
1/2+x,1/2+y,-z
1/2-x,y,1/2+z
x,1/2-y,1/2+z
loop_
_atom_site_type_symbol
_atom_site_label
_atom_site_fract_x
_atom_site_fract_y
_atom_site_fract_z
Si Si1 0.983113 0.299035 0.562568
Si Si2 0.683654 0.105313 0.915436
Si Si3 0.677474 0.050550 0.229313
Si Si4 0.303040 0.431783 0.564025
O O1 0.750000 0.250000 0.609251
O O2 0.845197 0.331077 0.468762
O O3 0.782148 0.389663 0.804948
O O4 0.250000 0.250000 0.550403
O O5 0.564200 0.073617 0.129222
O O6 0.391356 0.100131 0.962967
O O7 0.773103 0.019015 0.938794
O O8 0.091537 0.124451 0.108635
O O9 0.908818 0.988254 0.228216
#
# Coordination Sequence:
#
# PCOD9432643 Si02
#       4
#     8   8   8   8
#     4  12  25  42  67  97 137 185 225 271 338 410
#     4  10  23  42  73  98 132 177 228 280 342 397
#     4  10  24  38  65 107 137 164 226 294 336 399
#     4  10  23  43  72 102 134 176 230 284 339 400
#
# _framework density 24.942285999999999
#
# number of rings (size 3 to 8) (size 9 to 14) (size 15 to 20)
#    0.000    1.500    2.500    0.750   17.500    0.000 
#    0.000    1.250    5.500    0.000    0.000    0.000 
#    0.000    0.000    0.000    0.000    0.000    0.000 
#
# Total GULP energy -178629.638467 kJ/mol
# GULP energy per Si atom -5582.176202 kJ/mol
# Density = 2.488552 g / cm^3
# Si number density = 24.942286 Si / 1000 Ang^3
#
#
#
# Elastic Constant Matrix: (Units=GPa)
#
#
# Indices 1 2 3 4 5 6 
#
# 1 147.2146 43.3692 9.0782 0.0000 0.0000 0.0000
# 2 43.3692 125.8446 -12.9963 0.0000 0.0000 0.0000
# 3 9.0782 -12.9963 84.6036 0.0000 0.0000 0.0000
# 4 0.0000 0.0000 0.0000 19.9010 0.0000 0.0000
# 5 0.0000 0.0000 0.0000 0.0000 35.4814 0.0000
# 6 0.0000 0.0000 0.0000 0.0000 0.0000 57.6532
#
#
#
# Elastic Compliance Matrix: (Units=1/GPa)
#
#
# Indices 1 2 3 4 5 6 
#
# 1 0.007689 -0.002779 -0.001252 0.000000 0.000000 0.000000
# 2 -0.002779 0.009079 0.001693 0.000000 0.000000 0.000000
# 3 -0.001252 0.001693 0.012214 0.000000 0.000000 0.000000
# 4 0.000000 0.000000 0.000000 0.050249 0.000000 0.000000
# 5 0.000000 0.000000 0.000000 0.000000 0.028184 0.000000
# 6 0.000000 0.000000 0.000000 0.000000 0.000000 0.017345
#
#
# Mechanical properties :
#
#
# Convention : Reuss Voigt Hill
#
# Bulk Modulus (GPa) = 41.14283 48.50723 44.82503
# Shear Modulus (GPa) = 36.35377 43.82124 40.08750
#
# Velocity S-wave (km/s) = 3.82188 4.19609 4.01335
# Velocity P-wave (km/s) = 6.00056 6.55487 6.28383
#
# Compressibility (1/GPa) = 0.02430557
#
# Stress axis : x y z
#
# Youngs Moduli (GPa) = 130.06104 110.14618 81.87193
#
# Poissons Ratio (x) = 0.30610 0.10250
# Poissons Ratio (y) = 0.36144 -0.13860
# Poissons Ratio (z) = 0.16282 -0.18646
#
# Static dielectric constant tensor:
#      x y z
#    x 2.046500 0.000000 0.000000 
#    y 0.000000 2.067110 0.000000 
#    z 0.000000 0.000000 2.083070 
# 
# From -- ./inp_files/9519.got.cif
#   From: 2010.05.17/outbox.cif.g08.bks.cpg/sg56_5_cif.got.tgz:9519.got - 2010.06.03 13:42:01.
