data_PCOD9432701
_publ_section_title
;
Structure prediction by ZEFSAII (Michael W. Deem and Ramdas Pophale) SiO2 
 PCOD9432701
Probable space group: P C C N
;
_chemical_formula_sum "Si O2"
_cell_formula_units_Z 52
_cell_length_a 22.506103
_cell_length_b 11.914063
_cell_length_c 8.344799
_cell_angle_alpha 90.000000
_cell_angle_beta 90.000000
_cell_angle_gamma 90.000000
_cell_volume 2237.567136
_symmetry_space_group_name_H-M "P C C N"
_symmetry_group_IT_number 56
_symmetry_cell_setting 'orthorhombic'
loop_
_space_group_symop_operation_xyz
x,y,z
1/2-x,1/2-y,z
1/2+x,-y,1/2-z
-x,1/2+y,1/2-z
-x,-y,-z
1/2+x,1/2+y,-z
1/2-x,y,1/2+z
x,1/2-y,1/2+z
loop_
_atom_site_type_symbol
_atom_site_label
_atom_site_fract_x
_atom_site_fract_y
_atom_site_fract_z
Si Si1 0.035697 0.055466 0.352250
Si Si2 0.335252 0.806218 0.151332
Si Si3 0.750000 0.250000 0.600527
Si Si4 0.917606 0.021573 0.207141
Si Si5 0.880529 0.676537 0.946396
Si Si6 0.139570 0.542067 0.643250
Si Si7 0.195573 0.338593 0.749472
O O1 0.062709 0.168735 0.433214
O O2 0.092505 0.988613 0.284034
O O3 0.012287 0.952098 0.789711
O O4 0.000000 0.000000 0.500000
O O5 0.290659 0.829857 0.295520
O O6 0.392463 0.876716 0.184436
O O7 0.346974 0.673566 0.150209
O O8 0.295716 0.825588 0.997138
O O9 0.895978 0.912861 0.307185
O O10 0.889973 0.019655 0.030466
O O11 0.859376 0.786412 0.853718
O O12 0.825353 0.651732 0.066029
O O13 0.197128 0.463154 0.674840
O O14 0.250000 0.250000 0.738896
#
# Coordination Sequence:
#
# PCOD9432701 Si02
#       7
#     8   8   4   8   8   8   8
#     4   9  22  43  68 100 137 180 226 290 347 409
#     4  11  24  45  70 104 138 183 230 286 358 416
#     4  10  24  42  62  96 138 174 224 280 346 404
#     4  11  23  45  72 102 139 180 234 291 353 419
#     4  10  23  44  66  97 140 177 237 285 347 416
#     4  11  24  45  71 105 141 183 238 288 349 427
#     4  11  24  44  67  99 136 184 230 282 348 413
#
# _framework density 23.239526999999999
#
# number of rings (size 3 to 8) (size 9 to 14) (size 15 to 20)
#    0.000    1.538    1.538    1.846    6.462    2.462 
#   22.154    0.769    0.000    0.000    0.000    0.000 
#    0.000    0.000    0.000    0.000    0.000    0.000 
#
# Total GULP energy -289995.473412 kJ/mol
# GULP energy per Si atom -5576.836027 kJ/mol
# Density = 2.318663 g / cm^3
# Si number density = 23.239527 Si / 1000 Ang^3
#
#
#
# Elastic Constant Matrix: (Units=GPa)
#
#
# Indices 1 2 3 4 5 6 
#
# 1 92.3846 24.4584 17.0839 0.0000 0.0000 0.0000
# 2 24.4584 99.0294 7.9241 0.0000 0.0000 0.0000
# 3 17.0839 7.9241 114.4276 0.0000 0.0000 0.0000
# 4 0.0000 0.0000 0.0000 23.9878 0.0000 0.0000
# 5 0.0000 0.0000 0.0000 0.0000 33.8477 0.0000
# 6 0.0000 0.0000 0.0000 0.0000 0.0000 32.9456
#
#
#
# Elastic Compliance Matrix: (Units=1/GPa)
#
#
# Indices 1 2 3 4 5 6 
#
# 1 0.011858 -0.002803 -0.001576 0.000000 0.000000 0.000000
# 2 -0.002803 0.010817 -0.000331 0.000000 0.000000 0.000000
# 3 -0.001576 -0.000331 0.008997 0.000000 0.000000 0.000000
# 4 0.000000 0.000000 0.000000 0.041688 0.000000 0.000000
# 5 0.000000 0.000000 0.000000 0.000000 0.029544 0.000000
# 6 0.000000 0.000000 0.000000 0.000000 0.000000 0.030353
#
#
# Mechanical properties :
#
#
# Convention : Reuss Voigt Hill
#
# Bulk Modulus (GPa) = 44.93792 44.97493 44.95643
# Shear Modulus (GPa) = 33.31261 35.24790 34.28026
#
# Velocity S-wave (km/s) = 3.79020 3.89874 3.84485
# Velocity P-wave (km/s) = 6.20749 6.29775 6.25278
#
# Compressibility (1/GPa) = 0.02225292
#
# Stress axis : x y z
#
# Youngs Moduli (GPa) = 84.33303 92.45020 111.14344
#
# Poissons Ratio (x) = 0.25909 0.17519
# Poissons Ratio (y) = 0.23634 0.03675
# Poissons Ratio (z) = 0.13293 0.03057
#
# Static dielectric constant tensor:
#      x y z
#    x 1.963170 0.000000 0.000000 
#    y 0.000000 1.927430 0.000000 
#    z 0.000000 0.000000 1.937370 
# 
# From -- ./inp_files/4953.got.cif
#   From: 2010.05.17/outbox.cif.g08.bks.cpg/sg56_3_cif.got.tgz:4953.got - 2010.06.03 13:42:01.
