data_PCOD9432685
_publ_section_title
;
Structure prediction by ZEFSAII (Michael W. Deem and Ramdas Pophale) SiO2 
 PCOD9432685
Probable space group: P C C N
;
_chemical_formula_sum "Si O2"
_cell_formula_units_Z 48
_cell_length_a 5.701744
_cell_length_b 25.721628
_cell_length_c 13.640443
_cell_angle_alpha 90.000000
_cell_angle_beta 90.000000
_cell_angle_gamma 90.000000
_cell_volume 2000.481974
_symmetry_space_group_name_H-M "P C C N"
_symmetry_group_IT_number 56
_symmetry_cell_setting 'orthorhombic'
loop_
_space_group_symop_operation_xyz
x,y,z
1/2-x,1/2-y,z
1/2+x,-y,1/2-z
-x,1/2+y,1/2-z
-x,-y,-z
1/2+x,1/2+y,-z
1/2-x,y,1/2+z
x,1/2-y,1/2+z
loop_
_atom_site_type_symbol
_atom_site_label
_atom_site_fract_x
_atom_site_fract_y
_atom_site_fract_z
Si Si1 0.696577 0.190920 0.308800
Si Si2 0.596101 0.968339 0.354594
Si Si3 0.902261 0.992765 0.631397
Si Si4 0.004761 0.879850 0.552380
Si Si5 0.325861 0.865489 0.371506
Si Si6 0.880372 0.803643 0.002099
O O1 0.750000 0.250000 0.278887
O O2 0.905416 0.163044 0.369585
O O3 0.659395 0.152456 0.217187
O O4 0.497071 0.195228 0.390863
O O5 0.614642 0.997232 0.249481
O O6 0.514621 0.908661 0.339126
O O7 0.858907 0.975951 0.398457
O O8 0.360099 0.992240 0.403915
O O9 0.950971 0.933355 0.604798
O O10 0.195985 0.887144 0.467414
O O11 0.785002 0.853583 0.500910
O O12 0.440994 0.813116 0.413844
O O13 0.750000 0.750000 0.988357
#
# Coordination Sequence:
#
# PCOD9432685 Si02
#       6
#     8   8   8   8   8   8
#     4  11  24  46  70  99 143 193 235 294 371 437
#     4  10  23  44  70 107 140 192 250 302 370 449
#     4  10  23  43  72 100 147 192 243 306 372 441
#     4  11  25  45  69 104 142 188 234 305 357 438
#     4  11  27  43  72 106 142 182 248 297 362 442
#     4  11  26  47  70 103 146 186 241 305 367 437
#
# _framework density 23.994219000000001
#
# number of rings (size 3 to 8) (size 9 to 14) (size 15 to 20)
#    0.000    1.333    3.333    0.000    9.333    4.000 
#    0.000    0.000    0.000    0.000    0.000    0.000 
#    0.000    0.000    0.000    0.000    0.000    0.000 
#
# Total GULP energy -268245.691861 kJ/mol
# GULP energy per Si atom -5588.451914 kJ/mol
# Density = 2.393961 g / cm^3
# Si number density = 23.994219 Si / 1000 Ang^3
#
#
#
# Elastic Constant Matrix: (Units=GPa)
#
#
# Indices 1 2 3 4 5 6 
#
# 1 117.2339 45.7785 18.9599 0.0000 0.0000 0.0000
# 2 45.7785 116.5950 13.4642 0.0000 0.0000 0.0000
# 3 18.9599 13.4642 55.7993 0.0000 0.0000 0.0000
# 4 0.0000 0.0000 0.0000 45.9217 0.0000 0.0000
# 5 0.0000 0.0000 0.0000 0.0000 25.7358 0.0000
# 6 0.0000 0.0000 0.0000 0.0000 0.0000 44.6947
#
#
#
# Elastic Compliance Matrix: (Units=1/GPa)
#
#
# Indices 1 2 3 4 5 6 
#
# 1 0.010437 -0.003794 -0.002631 0.000000 0.000000 0.000000
# 2 -0.003794 0.010202 -0.001172 0.000000 0.000000 0.000000
# 3 -0.002631 -0.001172 0.019098 0.000000 0.000000 0.000000
# 4 0.000000 0.000000 0.000000 0.021776 0.000000 0.000000
# 5 0.000000 0.000000 0.000000 0.000000 0.038856 0.000000
# 6 0.000000 0.000000 0.000000 0.000000 0.000000 0.022374
#
#
# Mechanical properties :
#
#
# Convention : Reuss Voigt Hill
#
# Bulk Modulus (GPa) = 40.74623 49.55927 45.15275
# Shear Modulus (GPa) = 34.21868 37.36547 35.79207
#
# Velocity S-wave (km/s) = 3.78050 3.95051 3.86644
# Velocity P-wave (km/s) = 6.00623 6.44268 6.22828
#
# Compressibility (1/GPa) = 0.02454215
#
# Stress axis : x y z
#
# Youngs Moduli (GPa) = 95.81329 98.02246 52.36094
#
# Poissons Ratio (x) = 0.37190 0.13775
# Poissons Ratio (y) = 0.36352 0.06139
# Poissons Ratio (z) = 0.25207 0.11493
#
# Static dielectric constant tensor:
#      x y z
#    x 2.153240 0.000000 0.000000 
#    y 0.000000 1.885150 0.000000 
#    z 0.000000 0.000000 1.900200 
# 
# From -- ./inp_files/9693.got.cif
#   From: 2010.05.17/outbox.cif.g08.bks.cpg/sg56_5_cif.got.tgz:9693.got - 2010.06.03 13:42:01.
