data_PCOD9432884
_publ_section_title
;
Structure prediction by ZEFSAII (Michael W. Deem and Ramdas Pophale) SiO2 
 PCOD9432884
Probable space group: P C C N
;
_chemical_formula_sum "Si O2"
_cell_formula_units_Z 36
_cell_length_a 9.566240
_cell_length_b 8.257479
_cell_length_c 18.166329
_cell_angle_alpha 90.000000
_cell_angle_beta 90.000000
_cell_angle_gamma 90.000000
_cell_volume 1435.013297
_symmetry_space_group_name_H-M "P C C N"
_symmetry_group_IT_number 56
_symmetry_cell_setting 'orthorhombic'
loop_
_space_group_symop_operation_xyz
x,y,z
1/2-x,1/2-y,z
1/2+x,-y,1/2-z
-x,1/2+y,1/2-z
-x,-y,-z
1/2+x,1/2+y,-z
1/2-x,y,1/2+z
x,1/2-y,1/2+z
loop_
_atom_site_type_symbol
_atom_site_label
_atom_site_fract_x
_atom_site_fract_y
_atom_site_fract_z
Si Si1 0.307312 0.591358 0.693799
Si Si2 0.476047 0.309046 0.427080
Si Si3 0.093709 0.816058 0.415987
Si Si4 0.448196 0.108101 0.707196
Si Si5 0.750000 0.750000 0.666849
O O1 0.250000 0.750000 0.734732
O O2 0.390482 0.657670 0.623896
O O3 0.172506 0.493705 0.667316
O O4 0.419121 0.522303 0.753054
O O5 0.405051 0.488425 0.423329
O O6 0.518826 0.261915 0.508573
O O7 0.368259 0.184573 0.389765
O O8 0.250000 0.750000 0.411807
O O9 0.004343 0.746503 0.347240
O O10 0.352835 0.157645 0.777384
#
# Coordination Sequence:
#
# PCOD9432884 Si02
#       5
#     8   8   8   8   4
#     4  11  26  44  70 107 145 188 246 310 360 446
#     4  10  25  46  70 104 146 187 245 300 365 445
#     4  11  25  46  72 104 144 193 245 298 367 445
#     4  11  26  43  75 104 143 195 245 302 374 434
#     4  10  24  42  68 100 140 184 240 300 356 432
#
# _framework density 25.086876
#
# number of rings (size 3 to 8) (size 9 to 14) (size 15 to 20)
#    0.000    1.333    0.000    2.667   18.667    4.444 
#    0.000    3.333    0.000    0.000    0.000    0.000 
#    0.000    0.000    0.000    0.000    0.000    0.000 
#
# Total GULP energy -201002.381923 kJ/mol
# GULP energy per Si atom -5583.399498 kJ/mol
# Density = 2.502978 g / cm^3
# Si number density = 25.086876 Si / 1000 Ang^3
#
#
#
# Elastic Constant Matrix: (Units=GPa)
#
#
# Indices 1 2 3 4 5 6 
#
# 1 197.9412 55.5715 67.3268 0.0000 0.0000 0.0000
# 2 55.5715 40.5772 22.3966 0.0000 0.0000 0.0000
# 3 67.3268 22.3966 167.6946 0.0000 0.0000 0.0000
# 4 0.0000 0.0000 0.0000 32.5517 0.0000 0.0000
# 5 0.0000 0.0000 0.0000 0.0000 32.9894 0.0000
# 6 0.0000 0.0000 0.0000 0.0000 0.0000 46.2817
#
#
#
# Elastic Compliance Matrix: (Units=1/GPa)
#
#
# Indices 1 2 3 4 5 6 
#
# 1 0.008835 -0.010949 -0.002085 0.000000 0.000000 0.000000
# 2 -0.010949 0.040175 -0.000970 0.000000 0.000000 0.000000
# 3 -0.002085 -0.000970 0.006930 0.000000 0.000000 0.000000
# 4 0.000000 0.000000 0.000000 0.030720 0.000000 0.000000
# 5 0.000000 0.000000 0.000000 0.000000 0.030313 0.000000
# 6 0.000000 0.000000 0.000000 0.000000 0.000000 0.021607
#
#
# Mechanical properties :
#
#
# Convention : Reuss Voigt Hill
#
# Bulk Modulus (GPa) = 35.80084 77.42251 56.61168
# Shear Modulus (GPa) = 28.42564 39.75908 34.09236
#
# Velocity S-wave (km/s) = 3.36979 3.98534 3.69042
# Velocity P-wave (km/s) = 5.42608 7.21845 6.38547
#
# Compressibility (1/GPa) = 0.02793230
#
# Stress axis : x y z
#
# Youngs Moduli (GPa) = 113.18535 24.89128 144.30534
#
# Poissons Ratio (x) = 0.27254 0.30085
# Poissons Ratio (y) = 1.23928 0.13993
# Poissons Ratio (z) = 0.23597 0.02414
#
# Static dielectric constant tensor:
#      x y z
#    x 2.023610 0.000000 0.000000 
#    y 0.000000 2.129960 0.000000 
#    z 0.000000 0.000000 1.968020 
# 
# From -- ./inp_files/17895.got.cif
#   From: 2010.05.17/outbox.cif.g08.bks.cpg/sg56_9_cif.got.tgz:17895.got - 2010.06.03 13:42:01.
