data_PCOD9432357
_publ_section_title
;
Structure prediction by ZEFSAII (Michael W. Deem and Ramdas Pophale) SiO2 
 PCOD9432357
Probable space group: P C C N
;
_chemical_formula_sum "Si O2"
_cell_formula_units_Z 40
_cell_length_a 14.041216
_cell_length_b 11.481234
_cell_length_c 11.946867
_cell_angle_alpha 90.000000
_cell_angle_beta 90.000000
_cell_angle_gamma 90.000000
_cell_volume 1925.960242
_symmetry_space_group_name_H-M "P C C N"
_symmetry_group_IT_number 56
_symmetry_cell_setting 'orthorhombic'
loop_
_space_group_symop_operation_xyz
x,y,z
1/2-x,1/2-y,z
1/2+x,-y,1/2-z
-x,1/2+y,1/2-z
-x,-y,-z
1/2+x,1/2+y,-z
1/2-x,y,1/2+z
x,1/2-y,1/2+z
loop_
_atom_site_type_symbol
_atom_site_label
_atom_site_fract_x
_atom_site_fract_y
_atom_site_fract_z
Si Si1 0.408552 0.468328 0.925438
Si Si2 0.607582 0.965790 0.020856
Si Si3 0.356184 0.262295 0.319783
Si Si4 0.248314 0.611959 0.825017
Si Si5 0.724823 0.924664 0.367013
O O1 0.411022 0.358873 0.839184
O O2 0.355006 0.572150 0.860820
O O3 0.500000 0.500000 0.000000
O O4 0.333920 0.434466 0.020749
O O5 0.666397 0.921215 0.912118
O O6 0.596433 0.861127 0.108032
O O7 0.500000 0.000000 0.000000
O O8 0.672727 0.066062 0.080815
O O9 0.250000 0.250000 0.370930
O O10 0.327769 0.321596 0.201836
O O11 0.250000 0.750000 0.809798
O O12 0.221676 0.536924 0.714793
#
# Coordination Sequence:
#
# PCOD9432357 Si02
#       5
#     8   8   8   8   8
#     4  11  25  43  66  98 132 167 223 281 326 398
#     4  10  23  41  66  96 127 170 225 279 328 394
#     4  11  21  42  66  95 123 177 224 262 339 401
#     4  10  23  42  60  93 134 174 213 260 345 401
#     4  10  22  43  67  88 134 172 214 270 338 389
#
# _framework density 20.768861000000001
#
# number of rings (size 3 to 8) (size 9 to 14) (size 15 to 20)
#    0.000    1.600    6.000    0.000    5.600    6.400 
#    3.600    0.000    0.000    0.000    0.000    0.000 
#    0.000    0.000    0.000    0.000    0.000    0.000 
#
# Total GULP energy -222723.527879 kJ/mol
# GULP energy per Si atom -5568.088197 kJ/mol
# Density = 2.072159 g / cm^3
# Si number density = 20.768861 Si / 1000 Ang^3
#
#
#
# Elastic Constant Matrix: (Units=GPa)
#
#
# Indices 1 2 3 4 5 6 
#
# 1 74.3193 0.4080 5.4584 0.0000 0.0000 0.0000
# 2 0.4080 117.7375 38.7166 0.0000 0.0000 0.0000
# 3 5.4584 38.7166 96.2249 0.0000 0.0000 0.0000
# 4 0.0000 0.0000 0.0000 -65.0773 0.0000 0.0000
# 5 0.0000 0.0000 0.0000 0.0000 11.1118 0.0000
# 6 0.0000 0.0000 0.0000 0.0000 0.0000 25.1638
#
#
#
# Elastic Compliance Matrix: (Units=1/GPa)
#
#
# Indices 1 2 3 4 5 6 
#
# 1 0.013517 0.000237 -0.000862 0.000000 0.000000 0.000000
# 2 0.000237 0.009793 -0.003954 0.000000 0.000000 0.000000
# 3 -0.000862 -0.003954 0.012032 0.000000 0.000000 0.000000
# 4 0.000000 0.000000 0.000000 -0.015366 0.000000 0.000000
# 5 0.000000 0.000000 0.000000 0.000000 0.089994 0.000000
# 6 0.000000 0.000000 0.000000 0.000000 0.000000 0.039740
#
#
# Mechanical properties :
#
#
# Convention : Reuss Voigt Hill
#
# Bulk Modulus (GPa) = 38.19088 41.93862 40.06475
# Shear Modulus (GPa) = 29.83372 10.48625 20.15998
#
# Velocity S-wave (km/s) = 3.79418 2.24944 3.11896
# Velocity P-wave (km/s) = 6.13375 5.19457 5.68359
#
# Compressibility (1/GPa) = 0.02618427
#
# Stress axis : x y z
#
# Youngs Moduli (GPa) = 73.97833 102.11653 83.11203
#
# Poissons Ratio (x) = -0.02416 0.07164
# Poissons Ratio (y) = -0.01750 0.32859
# Poissons Ratio (z) = 0.06377 0.40373
#
# Static dielectric constant tensor:
#      x y z
#    x 1.754310 0.000000 0.000000 
#    y 0.000000 1.594170 0.000000 
#    z 0.000000 0.000000 1.772960 
# 
# From -- ./inp_files/7646.got.cif
#   From: 2010.05.17/outbox.cif.g08.bks.cpg/sg56_4_cif.got.tgz:7646.got - 2010.06.03 13:42:01.
