data_PCOD9432547
_publ_section_title
;
Structure prediction by ZEFSAII (Michael W. Deem and Ramdas Pophale) SiO2 
 PCOD9432547
Probable space group: P C C N
;
_chemical_formula_sum "Si O2"
_cell_formula_units_Z 32
_cell_length_a 10.397992
_cell_length_b 14.766045
_cell_length_c 8.594108
_cell_angle_alpha 90.000000
_cell_angle_beta 90.000000
_cell_angle_gamma 90.000000
_cell_volume 1319.515432
_symmetry_space_group_name_H-M "P C C N"
_symmetry_group_IT_number 56
_symmetry_cell_setting 'orthorhombic'
loop_
_space_group_symop_operation_xyz
x,y,z
1/2-x,1/2-y,z
1/2+x,-y,1/2-z
-x,1/2+y,1/2-z
-x,-y,-z
1/2+x,1/2+y,-z
1/2-x,y,1/2+z
x,1/2-y,1/2+z
loop_
_atom_site_type_symbol
_atom_site_label
_atom_site_fract_x
_atom_site_fract_y
_atom_site_fract_z
Si Si1 0.553112 0.180233 0.086682
Si Si2 0.736867 0.123500 0.360032
Si Si3 0.017237 0.378388 0.556453
Si Si4 0.911778 0.972116 0.247458
O O1 0.659727 0.171496 0.222128
O O2 0.472808 0.272885 0.095750
O O3 0.464331 0.093547 0.118869
O O4 0.637967 0.172639 0.930919
O O5 0.630252 0.113831 0.493624
O O6 0.788907 0.027000 0.302763
O O7 0.015342 0.450460 0.695776
O O8 0.100912 0.411201 0.409254
#
# Coordination Sequence:
#
# PCOD9432547 Si02
#       4
#     8   8   8   8
#     4  11  24  38  69 100 135 174 224 276 330 394
#     4  11  22  39  66 103 130 169 222 280 327 385
#     4  10  23  40  66  99 137 169 222 278 326 398
#     4  10  23  40  61 100 137 172 216 279 336 387
#
# _framework density 24.251328999999998
#
# number of rings (size 3 to 8) (size 9 to 14) (size 15 to 20)
#    0.000    1.500    2.500    1.500   10.500    0.000 
#    0.000    0.000    0.000   22.500    0.000    0.000 
#    0.000    0.000    0.000    0.000    0.000    0.000 
#
# Total GULP energy -178946.911672 kJ/mol
# GULP energy per Si atom -5592.090990 kJ/mol
# Density = 2.419613 g / cm^3
# Si number density = 24.251329 Si / 1000 Ang^3
#
#
#
# Elastic Constant Matrix: (Units=GPa)
#
#
# Indices 1 2 3 4 5 6 
#
# 1 28.5010 31.0481 9.7224 0.0000 0.0000 0.0000
# 2 31.0481 190.0260 40.5653 0.0000 0.0000 0.0000
# 3 9.7224 40.5653 53.7486 0.0000 0.0000 0.0000
# 4 0.0000 0.0000 0.0000 53.0435 0.0000 0.0000
# 5 0.0000 0.0000 0.0000 0.0000 37.5773 0.0000
# 6 0.0000 0.0000 0.0000 0.0000 0.0000 47.2232
#
#
#
# Elastic Compliance Matrix: (Units=1/GPa)
#
#
# Indices 1 2 3 4 5 6 
#
# 1 0.043074 -0.006407 -0.002956 0.000000 0.000000 0.000000
# 2 -0.006407 0.007226 -0.004295 0.000000 0.000000 0.000000
# 3 -0.002956 -0.004295 0.022381 0.000000 0.000000 0.000000
# 4 0.000000 0.000000 0.000000 0.018852 0.000000 0.000000
# 5 0.000000 0.000000 0.000000 0.000000 0.026612 0.000000
# 6 0.000000 0.000000 0.000000 0.000000 0.000000 0.021176
#
#
# Mechanical properties :
#
#
# Convention : Reuss Voigt Hill
#
# Bulk Modulus (GPa) = 22.04293 48.32745 35.18519
# Shear Modulus (GPa) = 27.50892 40.29813 33.90353
#
# Velocity S-wave (km/s) = 3.37163 4.08080 3.74305
# Velocity P-wave (km/s) = 4.92608 6.49422 5.76373
#
# Compressibility (1/GPa) = 0.04536603
#
# Stress axis : x y z
#
# Youngs Moduli (GPa) = 23.21576 138.38832 44.68030
#
# Poissons Ratio (x) = 0.88662 0.13208
# Poissons Ratio (y) = 0.14874 0.19189
# Poissons Ratio (z) = 0.06863 0.59435
#
# Static dielectric constant tensor:
#      x y z
#    x 1.936720 0.000000 0.000000 
#    y 0.000000 2.019610 0.000000 
#    z 0.000000 0.000000 2.008670 
# 
# From -- ./inp_files/3135.got.cif
#   From: 2010.05.17/outbox.cif.g08.bks.cpg/sg56_2_cif.got.tgz:3135.got - 2010.06.03 13:42:01.
