data_PCOD9432199
_publ_section_title
;
Structure prediction by ZEFSAII (Michael W. Deem and Ramdas Pophale) SiO2 
 PCOD9432199
Probable space group: P C C N
;
_chemical_formula_sum "Si O2"
_cell_formula_units_Z 40
_cell_length_a 4.951451
_cell_length_b 28.489910
_cell_length_c 10.718068
_cell_angle_alpha 90.000000
_cell_angle_beta 90.000000
_cell_angle_gamma 90.000000
_cell_volume 1511.959197
_symmetry_space_group_name_H-M "P C C N"
_symmetry_group_IT_number 56
_symmetry_cell_setting 'orthorhombic'
loop_
_space_group_symop_operation_xyz
x,y,z
1/2-x,1/2-y,z
1/2+x,-y,1/2-z
-x,1/2+y,1/2-z
-x,-y,-z
1/2+x,1/2+y,-z
1/2-x,y,1/2+z
x,1/2-y,1/2+z
loop_
_atom_site_type_symbol
_atom_site_label
_atom_site_fract_x
_atom_site_fract_y
_atom_site_fract_z
Si Si1 0.250574 0.506803 0.908119
Si Si2 0.250000 0.250000 0.029486
Si Si3 0.750000 0.250000 0.853131
Si Si4 0.794069 0.395208 0.525867
Si Si5 0.794432 0.592354 0.146446
Si Si6 0.041955 0.327728 0.185937
O O1 0.249276 0.462547 0.815051
O O2 0.500000 0.500000 0.000000
O O3 0.260275 0.561524 0.876257
O O4 0.000000 0.500000 0.000000
O O5 0.238149 0.205115 0.118525
O O6 0.501047 0.238531 0.942427
O O7 0.632959 0.293359 0.774074
O O8 0.595957 0.402979 0.406868
O O9 0.673133 0.350314 0.592119
O O10 0.094583 0.396707 0.471151
O O11 0.703340 0.630759 0.245380
#
# Coordination Sequence:
#
# PCOD9432199 Si02
#       6
#     8   4   4   8   8   8
#     4   8  16  36  62  92 134 174 212 270 336 398
#     4  12  28  48  70 102 142 182 236 302 358 420
#     4  12  28  48  70 102 142 182 236 302 358 420
#     4  10  22  41  67 100 137 177 224 278 336 410
#     4  10  22  41  67 100 137 177 224 278 336 410
#     4  12  26  46  74 102 134 188 236 286 356 416
#
# _framework density 26.455739000000001
#
# number of rings (size 3 to 8) (size 9 to 14) (size 15 to 20)
#    0.000    1.600    0.000    3.600    0.000    8.000 
#    0.000   12.000    0.000    0.000    0.000    0.000 
#    0.000    0.000    0.000    0.000    0.000    0.000 
#
# Total GULP energy -224279.087313 kJ/mol
# GULP energy per Si atom -5606.977183 kJ/mol
# Density = 2.639552 g / cm^3
# Si number density = 26.455739 Si / 1000 Ang^3
#
#
#
# Elastic Constant Matrix: (Units=GPa)
#
#
# Indices 1 2 3 4 5 6 
#
# 1 125.7696 -5.7347 10.6921 0.0000 0.0000 0.0000
# 2 -5.7347 155.4023 38.2979 0.0000 0.0000 0.0000
# 3 10.6921 38.2979 70.7389 0.0000 0.0000 0.0000
# 4 0.0000 0.0000 0.0000 54.1393 0.0000 0.0000
# 5 0.0000 0.0000 0.0000 0.0000 34.8800 0.0000
# 6 0.0000 0.0000 0.0000 0.0000 0.0000 42.0915
#
#
#
# Elastic Compliance Matrix: (Units=1/GPa)
#
#
# Indices 1 2 3 4 5 6 
#
# 1 0.008119 0.000695 -0.001603 0.000000 0.000000 0.000000
# 2 0.000695 0.007485 -0.004157 0.000000 0.000000 0.000000
# 3 -0.001603 -0.004157 0.016630 0.000000 0.000000 0.000000
# 4 0.000000 0.000000 0.000000 0.018471 0.000000 0.000000
# 5 0.000000 0.000000 0.000000 0.000000 0.028670 0.000000
# 6 0.000000 0.000000 0.000000 0.000000 0.000000 0.023758
#
#
# Mechanical properties :
#
#
# Convention : Reuss Voigt Hill
#
# Bulk Modulus (GPa) = 45.24521 48.71348 46.97935
# Shear Modulus (GPa) = 41.44856 46.79919 44.12387
#
# Velocity S-wave (km/s) = 3.96247 4.21047 4.08835
# Velocity P-wave (km/s) = 6.17043 6.48772 6.33106
#
# Compressibility (1/GPa) = 0.02210178
#
# Stress axis : x y z
#
# Youngs Moduli (GPa) = 123.16742 133.59832 60.13355
#
# Poissons Ratio (x) = -0.09282 0.09641
# Poissons Ratio (y) = -0.08557 0.25000
# Poissons Ratio (z) = 0.19748 0.55543
#
# Static dielectric constant tensor:
#      x y z
#    x 1.975510 0.000000 0.000000 
#    y 0.000000 2.083220 0.000000 
#    z 0.000000 0.000000 2.065020 
# 
# From -- ./inp_files/5648.got.cif
#   From: 2010.05.17/outbox.cif.g08.bks.cpg/sg56_3_cif.got.tgz:5648.got - 2010.06.03 13:42:01.
