data_PCOD9432869
_publ_section_title
;
Structure prediction by ZEFSAII (Michael W. Deem and Ramdas Pophale) SiO2 
 PCOD9432869
Probable space group: P C C N
;
_chemical_formula_sum "Si O2"
_cell_formula_units_Z 48
_cell_length_a 14.964276
_cell_length_b 8.515834
_cell_length_c 16.946222
_cell_angle_alpha 90.000000
_cell_angle_beta 90.000000
_cell_angle_gamma 90.000000
_cell_volume 2159.512828
_symmetry_space_group_name_H-M "P C C N"
_symmetry_group_IT_number 56
_symmetry_cell_setting 'orthorhombic'
loop_
_space_group_symop_operation_xyz
x,y,z
1/2-x,1/2-y,z
1/2+x,-y,1/2-z
-x,1/2+y,1/2-z
-x,-y,-z
1/2+x,1/2+y,-z
1/2-x,y,1/2+z
x,1/2-y,1/2+z
loop_
_atom_site_type_symbol
_atom_site_label
_atom_site_fract_x
_atom_site_fract_y
_atom_site_fract_z
Si Si1 0.048130 0.108775 0.816794
Si Si2 0.030545 0.672481 0.912927
Si Si3 0.095426 0.145399 0.187027
Si Si4 0.327161 0.853593 0.347556
Si Si5 0.439846 0.643005 0.585226
Si Si6 0.767867 0.072158 0.329218
O O1 0.099201 0.215831 0.752379
O O2 0.978232 0.218266 0.862116
O O3 0.118978 0.011982 0.871909
O O4 0.982361 0.974025 0.782710
O O5 0.096219 0.722293 0.843048
O O6 0.943397 0.774969 0.892695
O O7 0.016621 0.488222 0.916518
O O8 0.073045 0.711466 0.997624
O O9 0.186356 0.050342 0.169001
O O10 0.250000 0.750000 0.389215
O O11 0.291685 0.905304 0.262614
O O12 0.356913 0.545012 0.620275
O O13 0.750000 0.250000 0.357950
#
# Coordination Sequence:
#
# PCOD9432869 Si02
#       6
#     8   8   8   8   8   8
#     4  11  23  40  70  95 132 174 223 278 339 409
#     4  10  24  44  65  91 135 182 222 271 340 421
#     4  11  23  41  71 101 132 176 229 284 343 406
#     4  10  24  42  63  97 128 168 220 282 334 394
#     4  11  23  43  66  95 133 181 223 270 342 413
#     4  11  23  40  65 101 129 167 225 283 330 399
#
# _framework density 22.227235
#
# number of rings (size 3 to 8) (size 9 to 14) (size 15 to 20)
#    0.000    1.333    1.667    4.000    9.333    6.000 
#    3.000    0.000    0.000    0.000    0.000    0.000 
#    0.000    0.000    0.000    0.000    0.000    0.000 
#
# Total GULP energy -267253.868437 kJ/mol
# GULP energy per Si atom -5567.788926 kJ/mol
# Density = 2.217665 g / cm^3
# Si number density = 22.227235 Si / 1000 Ang^3
#
#
#
# Elastic Constant Matrix: (Units=GPa)
#
#
# Indices 1 2 3 4 5 6 
#
# 1 109.6108 56.1802 22.0345 0.0000 0.0000 0.0000
# 2 56.1802 127.8985 22.8717 0.0000 0.0000 0.0000
# 3 22.0345 22.8717 38.4527 0.0000 0.0000 0.0000
# 4 0.0000 0.0000 0.0000 21.9472 0.0000 0.0000
# 5 0.0000 0.0000 0.0000 0.0000 18.7994 0.0000
# 6 0.0000 0.0000 0.0000 0.0000 0.0000 62.2924
#
#
#
# Elastic Compliance Matrix: (Units=1/GPa)
#
#
# Indices 1 2 3 4 5 6 
#
# 1 0.012384 -0.004667 -0.004320 0.000000 0.000000 0.000000
# 2 -0.004667 0.010508 -0.003576 0.000000 0.000000 0.000000
# 3 -0.004320 -0.003576 0.030609 0.000000 0.000000 0.000000
# 4 0.000000 0.000000 0.000000 0.045564 0.000000 0.000000
# 5 0.000000 0.000000 0.000000 0.000000 0.053193 0.000000
# 6 0.000000 0.000000 0.000000 0.000000 0.000000 0.016053
#
#
# Mechanical properties :
#
#
# Convention : Reuss Voigt Hill
#
# Bulk Modulus (GPa) = 35.24351 53.12609 44.18480
# Shear Modulus (GPa) = 24.64323 32.26618 28.45470
#
# Velocity S-wave (km/s) = 3.33332 3.81419 3.58183
# Velocity P-wave (km/s) = 5.54122 6.58412 6.08505
#
# Compressibility (1/GPa) = 0.02837402
#
# Stress axis : x y z
#
# Youngs Moduli (GPa) = 80.75110 95.16374 32.67058
#
# Poissons Ratio (x) = 0.44413 0.14115
# Poissons Ratio (y) = 0.37687 0.11683
# Poissons Ratio (z) = 0.34887 0.34030
#
# Static dielectric constant tensor:
#      x y z
#    x 2.001860 0.000000 0.000000 
#    y 0.000000 1.850850 0.000000 
#    z 0.000000 0.000000 1.897380 
# 
# From -- ./inp_files/16188.got.cif
#   From: 2010.05.17/outbox.cif.g08.bks.cpg/sg56_9_cif.got.tgz:16188.got - 2010.06.03 13:42:01.
