data_PCOD9432751
_publ_section_title
;
Structure prediction by ZEFSAII (Michael W. Deem and Ramdas Pophale) SiO2 
 PCOD9432751
Probable space group: P C C N
;
_chemical_formula_sum "Si O2"
_cell_formula_units_Z 40
_cell_length_a 5.779871
_cell_length_b 20.108564
_cell_length_c 14.259987
_cell_angle_alpha 90.000000
_cell_angle_beta 90.000000
_cell_angle_gamma 90.000000
_cell_volume 1657.365647
_symmetry_space_group_name_H-M "P C C N"
_symmetry_group_IT_number 56
_symmetry_cell_setting 'orthorhombic'
loop_
_space_group_symop_operation_xyz
x,y,z
1/2-x,1/2-y,z
1/2+x,-y,1/2-z
-x,1/2+y,1/2-z
-x,-y,-z
1/2+x,1/2+y,-z
1/2-x,y,1/2+z
x,1/2-y,1/2+z
loop_
_atom_site_type_symbol
_atom_site_label
_atom_site_fract_x
_atom_site_fract_y
_atom_site_fract_z
Si Si1 0.750000 0.750000 0.283486
Si Si2 0.946051 0.357959 0.310052
Si Si3 0.750000 0.250000 0.399312
Si Si4 0.193835 0.450442 0.459416
Si Si5 0.581411 0.195290 0.577471
Si Si6 0.426297 0.922491 0.891931
O O1 0.583935 0.707906 0.218794
O O2 0.633585 0.802957 0.354238
O O3 0.713133 0.320287 0.345986
O O4 0.937557 0.402260 0.216833
O O5 0.070895 0.399356 0.390420
O O6 0.551905 0.229128 0.475762
O O7 0.347123 0.417034 0.541690
O O8 0.359454 0.500291 0.401738
O O9 0.000000 0.500000 0.500000
O O10 0.724901 0.127384 0.570598
O O11 0.250000 0.750000 0.874123
#
# Coordination Sequence:
#
# PCOD9432751 Si02
#       6
#     4   8   4   8   8   8
#     4  12  26  42  76 116 146 198 248 314 390 464
#     4  12  26  44  78 111 148 193 260 310 385 470
#     4  10  24  44  72 112 148 196 236 320 380 454
#     4  11  29  50  74 104 147 208 253 315 395 458
#     4  10  23  45  73 104 161 187 244 308 388 448
#     4  11  26  50  71 108 151 194 252 320 372 463
#
# _framework density 24.134685999999999
#
# number of rings (size 3 to 8) (size 9 to 14) (size 15 to 20)
#    0.600    0.400    2.000    2.400   11.200    0.800 
#    3.600    0.000    0.000    0.000    0.000    0.000 
#    0.000    0.000    0.000    0.000    0.000    0.000 
#
# Total GULP energy -223318.193347 kJ/mol
# GULP energy per Si atom -5582.954834 kJ/mol
# Density = 2.407975 g / cm^3
# Si number density = 24.134686 Si / 1000 Ang^3
#
#
#
# Elastic Constant Matrix: (Units=GPa)
#
#
# Indices 1 2 3 4 5 6 
#
# 1 57.3404 44.1012 61.6588 0.0000 0.0000 0.0000
# 2 44.1012 152.2233 80.3251 0.0000 0.0000 0.0000
# 3 61.6588 80.3251 183.0824 0.0000 0.0000 0.0000
# 4 0.0000 0.0000 0.0000 60.4015 0.0000 0.0000
# 5 0.0000 0.0000 0.0000 0.0000 17.4197 0.0000
# 6 0.0000 0.0000 0.0000 0.0000 0.0000 52.5497
#
#
#
# Elastic Compliance Matrix: (Units=1/GPa)
#
#
# Indices 1 2 3 4 5 6 
#
# 1 0.029334 -0.004275 -0.008003 0.000000 0.000000 0.000000
# 2 -0.004275 0.009171 -0.002584 0.000000 0.000000 0.000000
# 3 -0.008003 -0.002584 0.009291 0.000000 0.000000 0.000000
# 4 0.000000 0.000000 0.000000 0.016556 0.000000 0.000000
# 5 0.000000 0.000000 0.000000 0.000000 0.057406 0.000000
# 6 0.000000 0.000000 0.000000 0.000000 0.000000 0.019030
#
#
# Mechanical properties :
#
#
# Convention : Reuss Voigt Hill
#
# Bulk Modulus (GPa) = 55.33670 84.97960 70.15815
# Shear Modulus (GPa) = 28.32255 39.84489 34.08372
#
# Velocity S-wave (km/s) = 3.42939 4.06758 3.76204
# Velocity P-wave (km/s) = 6.21763 7.57280 6.92843
#
# Compressibility (1/GPa) = 0.01807119
#
# Stress axis : x y z
#
# Youngs Moduli (GPa) = 34.09007 109.03431 107.62915
#
# Poissons Ratio (x) = 0.46614 0.86141
# Poissons Ratio (y) = 0.14574 0.27812
# Poissons Ratio (z) = 0.27284 0.28175
#
# Static dielectric constant tensor:
#      x y z
#    x 2.000000 0.000000 0.000000 
#    y 0.000000 1.931160 0.000000 
#    z 0.000000 0.000000 1.979710 
# 
# From -- ./inp_files/10425.got.cif
#   From: 2010.05.17/outbox.cif.g08.bks.cpg/sg56_6_cif.got.tgz:10425.got - 2010.06.03 13:42:01.
