data_PCOD9432392
_publ_section_title
;
Structure prediction by ZEFSAII (Michael W. Deem and Ramdas Pophale) SiO2 
 PCOD9432392
Probable space group: P C C N
;
_chemical_formula_sum "Si O2"
_cell_formula_units_Z 48
_cell_length_a 12.111401
_cell_length_b 13.897002
_cell_length_c 13.088882
_cell_angle_alpha 90.000000
_cell_angle_beta 90.000000
_cell_angle_gamma 90.000000
_cell_volume 2203.018053
_symmetry_space_group_name_H-M "P C C N"
_symmetry_group_IT_number 56
_symmetry_cell_setting 'orthorhombic'
loop_
_space_group_symop_operation_xyz
x,y,z
1/2-x,1/2-y,z
1/2+x,-y,1/2-z
-x,1/2+y,1/2-z
-x,-y,-z
1/2+x,1/2+y,-z
1/2-x,y,1/2+z
x,1/2-y,1/2+z
loop_
_atom_site_type_symbol
_atom_site_label
_atom_site_fract_x
_atom_site_fract_y
_atom_site_fract_z
Si Si1 0.750000 0.750000 0.061101
Si Si2 0.887784 0.891346 0.418277
Si Si3 0.750000 0.250000 0.250134
Si Si4 0.397853 0.885139 0.608031
Si Si5 0.139794 0.082790 0.815552
Si Si6 0.229388 0.956935 0.469053
Si Si7 0.603970 0.266921 0.570792
O O1 0.683764 0.818891 0.985937
O O2 0.824568 0.816497 0.133179
O O3 0.844946 0.913857 0.305300
O O4 0.002528 0.836547 0.403880
O O5 0.875513 0.987406 0.485796
O O6 0.688821 0.168812 0.316925
O O7 0.849949 0.218214 0.174384
O O8 0.509100 0.925762 0.658517
O O9 0.328955 0.966917 0.549944
O O10 0.426226 0.806952 0.518875
O O11 0.220424 0.003612 0.867020
O O12 0.196238 0.845255 0.463156
#
# Coordination Sequence:
#
# PCOD9432392 Si02
#       7
#     4   8   4   8   8   8   8
#     4  10  22  44  62  92 130 164 216 268 324 378
#     4  11  24  40  66  91 129 169 214 263 330 387
#     4  12  22  40  72  92 124 174 220 262 320 390
#     4  12  23  43  67  94 130 170 218 271 318 382
#     4  11  24  40  66  91 129 169 214 263 330 387
#     4  11  25  41  59  98 132 164 209 275 321 381
#     4  12  23  43  67  94 130 170 218 271 318 382
#
# _framework density 21.788291999999998
#
# number of rings (size 3 to 8) (size 9 to 14) (size 15 to 20)
#    0.000    0.667    6.667    1.500    2.333    0.000 
#    0.000    0.000    0.000    0.000    0.000    0.000 
#    0.000    0.000    0.000    0.000    0.000    0.000 
#
# Total GULP energy -267976.510586 kJ/mol
# GULP energy per Si atom -5582.843971 kJ/mol
# Density = 2.173870 g / cm^3
# Si number density = 21.788292 Si / 1000 Ang^3
#
#
#
# Elastic Constant Matrix: (Units=GPa)
#
#
# Indices 1 2 3 4 5 6 
#
# 1 78.1690 0.7998 29.5849 0.0000 0.0000 0.0000
# 2 0.7998 55.4657 27.0509 0.0000 0.0000 0.0000
# 3 29.5849 27.0509 112.2935 0.0000 0.0000 0.0000
# 4 0.0000 0.0000 0.0000 -26.1657 0.0000 0.0000
# 5 0.0000 0.0000 0.0000 0.0000 30.8397 0.0000
# 6 0.0000 0.0000 0.0000 0.0000 0.0000 9.6479
#
#
#
# Elastic Compliance Matrix: (Units=1/GPa)
#
#
# Indices 1 2 3 4 5 6 
#
# 1 0.014377 0.001858 -0.004235 0.000000 0.000000 0.000000
# 2 0.001858 0.020670 -0.005469 0.000000 0.000000 0.000000
# 3 -0.004235 -0.005469 0.011338 0.000000 0.000000 0.000000
# 4 0.000000 0.000000 0.000000 -0.038218 0.000000 0.000000
# 5 0.000000 0.000000 0.000000 0.000000 0.032426 0.000000
# 6 0.000000 0.000000 0.000000 0.000000 0.000000 0.103650
#
#
# Mechanical properties :
#
#
# Convention : Reuss Voigt Hill
#
# Bulk Modulus (GPa) = 32.58060 40.08881 36.33471
# Shear Modulus (GPa) = 29.38323 15.43055 22.40689
#
# Velocity S-wave (km/s) = 3.67628 2.66410 3.21033
# Velocity P-wave (km/s) = 5.74507 5.28227 5.51852
#
# Compressibility (1/GPa) = 0.03069311
#
# Stress axis : x y z
#
# Youngs Moduli (GPa) = 69.55673 48.38044 88.19522
#
# Poissons Ratio (x) = -0.08991 0.37354
# Poissons Ratio (y) = -0.12926 0.48232
# Poissons Ratio (z) = 0.29460 0.26458
#
# Static dielectric constant tensor:
#      x y z
#    x 1.865340 0.000000 0.000000 
#    y 0.000000 1.836430 0.000000 
#    z 0.000000 0.000000 1.804020 
# 
# From -- ./inp_files/7182.got.cif
#   From: 2010.05.17/outbox.cif.g08.bks.cpg/sg56_4_cif.got.tgz:7182.got - 2010.06.03 13:42:01.
