data_PCOD9432597
_publ_section_title
;
Structure prediction by ZEFSAII (Michael W. Deem and Ramdas Pophale) SiO2 
 PCOD9432597
Probable space group: P C C N
;
_chemical_formula_sum "Si O2"
_cell_formula_units_Z 64
_cell_length_a 15.444452
_cell_length_b 8.342043
_cell_length_c 23.855772
_cell_angle_alpha 90.000000
_cell_angle_beta 90.000000
_cell_angle_gamma 90.000000
_cell_volume 3073.536697
_symmetry_space_group_name_H-M "P C C N"
_symmetry_group_IT_number 56
_symmetry_cell_setting 'orthorhombic'
loop_
_space_group_symop_operation_xyz
x,y,z
1/2-x,1/2-y,z
1/2+x,-y,1/2-z
-x,1/2+y,1/2-z
-x,-y,-z
1/2+x,1/2+y,-z
1/2-x,y,1/2+z
x,1/2-y,1/2+z
loop_
_atom_site_type_symbol
_atom_site_label
_atom_site_fract_x
_atom_site_fract_y
_atom_site_fract_z
Si Si1 0.665188 0.143414 0.363330
Si Si2 0.254444 0.061061 0.041504
Si Si3 0.568641 0.563733 0.775033
Si Si4 0.742637 0.444712 0.083117
Si Si5 0.591704 0.464295 0.390588
Si Si6 0.910631 0.438247 0.151715
Si Si7 0.169709 0.371470 0.216149
Si Si8 0.880324 0.430652 0.680935
O O1 0.750000 0.250000 0.351549
O O2 0.591768 0.273876 0.379152
O O3 0.690206 0.031997 0.416076
O O4 0.638080 0.038554 0.310183
O O5 0.250000 0.250000 0.052160
O O6 0.352091 0.999314 0.054313
O O7 0.233115 0.019854 0.977712
O O8 0.571039 0.529831 0.709347
O O9 0.588054 0.751832 0.779346
O O10 0.477952 0.523167 0.804015
O O11 0.750000 0.250000 0.077244
O O12 0.829712 0.498674 0.115348
O O13 0.663027 0.489216 0.123718
O O14 0.498117 0.545087 0.384854
O O15 0.652111 0.540436 0.341836
O O16 0.884150 0.260682 0.172756
O O17 0.250000 0.250000 0.216787
O O18 0.173342 0.498218 0.266735
#
# Coordination Sequence:
#
# PCOD9432597 Si02
#       8
#     8   8   8   8   8   8   8   8
#     4  10  23  41  68  94 128 172 216 270 328 396
#     4  11  24  45  67  94 125 164 222 275 331 389
#     4  12  22  39  63 100 137 171 212 269 327 394
#     4  10  24  45  67  88 127 176 221 270 326 391
#     4  11  21  40  68  96 128 168 220 270 329 394
#     4  11  24  41  67  96 133 177 217 271 328 395
#     4  12  23  37  64 100 139 177 217 267 332 398
#     4  11  23  42  62  95 137 171 218 266 331 391
#
# _framework density 20.822918000000001
#
# number of rings (size 3 to 8) (size 9 to 14) (size 15 to 20)
#    0.000    1.000    2.500    5.250    1.750    3.500 
#    0.000    0.625    0.000    0.000    0.000    0.000 
#    0.000    0.000    0.000    0.000    0.000    0.000 
#
# Total GULP energy -357663.495638 kJ/mol
# GULP energy per Si atom -5588.492119 kJ/mol
# Density = 2.077552 g / cm^3
# Si number density = 20.822918 Si / 1000 Ang^3
#
#
#
# Elastic Constant Matrix: (Units=GPa)
#
#
# Indices 1 2 3 4 5 6 
#
# 1 68.1461 16.3675 29.7282 0.0000 0.0000 0.0000
# 2 16.3675 74.5959 4.9906 0.0000 0.0000 0.0000
# 3 29.7282 4.9906 87.0453 0.0000 0.0000 0.0000
# 4 0.0000 0.0000 0.0000 32.0797 0.0000 0.0000
# 5 0.0000 0.0000 0.0000 0.0000 30.0132 0.0000
# 6 0.0000 0.0000 0.0000 0.0000 0.0000 25.4479
#
#
#
# Elastic Compliance Matrix: (Units=1/GPa)
#
#
# Indices 1 2 3 4 5 6 
#
# 1 0.018149 -0.003581 -0.005993 0.000000 0.000000 0.000000
# 2 -0.003581 0.014164 0.000411 0.000000 0.000000 0.000000
# 3 -0.005993 0.000411 0.013511 0.000000 0.000000 0.000000
# 4 0.000000 0.000000 0.000000 0.031172 0.000000 0.000000
# 5 0.000000 0.000000 0.000000 0.000000 0.033319 0.000000
# 6 0.000000 0.000000 0.000000 0.000000 0.000000 0.039296
#
#
# Mechanical properties :
#
#
# Convention : Reuss Voigt Hill
#
# Bulk Modulus (GPa) = 36.36649 36.88442 36.62545
# Shear Modulus (GPa) = 28.23208 29.42156 28.82682
#
# Velocity S-wave (km/s) = 3.68614 3.76299 3.72476
# Velocity P-wave (km/s) = 5.96820 6.05243 6.01046
#
# Compressibility (1/GPa) = 0.02749784
#
# Stress axis : x y z
#
# Youngs Moduli (GPa) = 55.09982 70.60239 74.01124
#
# Poissons Ratio (x) = 0.25284 0.44355
# Poissons Ratio (y) = 0.19732 -0.03042
# Poissons Ratio (z) = 0.33021 -0.02902
#
# Static dielectric constant tensor:
#      x y z
#    x 1.814690 0.000000 0.000000 
#    y 0.000000 1.776600 0.000000 
#    z 0.000000 0.000000 1.705500 
# 
# From -- ./inp_files/21177.got.cif
#   From: 2010.05.17/outbox.cif.g08.bks.cpg/sg56_11_cif.got.tgz:21177.got - 2010.06.03 13:42:01.
