data_PCOD9432538
_publ_section_title
;
Structure prediction by ZEFSAII (Michael W. Deem and Ramdas Pophale) SiO2 
 PCOD9432538
Probable space group: P C C N
;
_chemical_formula_sum "Si O2"
_cell_formula_units_Z 60
_cell_length_a 18.434201
_cell_length_b 7.918119
_cell_length_c 18.382192
_cell_angle_alpha 90.000000
_cell_angle_beta 90.000000
_cell_angle_gamma 90.000000
_cell_volume 2683.141898
_symmetry_space_group_name_H-M "P C C N"
_symmetry_group_IT_number 56
_symmetry_cell_setting 'orthorhombic'
loop_
_space_group_symop_operation_xyz
x,y,z
1/2-x,1/2-y,z
1/2+x,-y,1/2-z
-x,1/2+y,1/2-z
-x,-y,-z
1/2+x,1/2+y,-z
1/2-x,y,1/2+z
x,1/2-y,1/2+z
loop_
_atom_site_type_symbol
_atom_site_label
_atom_site_fract_x
_atom_site_fract_y
_atom_site_fract_z
Si Si1 0.081682 0.728732 0.199202
Si Si2 0.096626 0.660167 0.475417
Si Si3 0.171053 0.678214 0.326654
Si Si4 0.453973 0.395677 0.201252
Si Si5 0.673441 0.687315 0.241454
Si Si6 0.338801 0.470695 0.602639
Si Si7 0.750000 0.250000 0.453896
Si Si8 0.063007 0.214348 0.035871
O O1 0.150674 0.767317 0.250715
O O2 0.104161 0.608783 0.133789
O O3 0.025373 0.635572 0.251772
O O4 0.051098 0.909300 0.179527
O O5 0.113291 0.698144 0.390830
O O6 0.172144 0.724514 0.508706
O O7 0.088677 0.461410 0.498196
O O8 0.018631 0.743733 0.494394
O O9 0.250000 0.750000 0.348729
O O10 0.163317 0.481766 0.304956
O O11 0.390550 0.324235 0.254242
O O12 0.449558 0.306484 0.123057
O O13 0.750000 0.750000 0.214520
O O14 0.679657 0.637311 0.326224
O O15 0.265838 0.573967 0.585981
O O16 0.375467 0.360856 0.538074
#
# Coordination Sequence:
#
# PCOD9432538 Si02
#       8
#     8   8   8   8   8   8   4   8
#     4  11  22  38  67  99 129 168 212 280 343 405
#     4  11  24  43  67  90 134 184 221 270 331 394
#     4  11  22  41  62  92 135 171 217 269 338 402
#     4  11  21  39  67  98 130 168 218 275 339 405
#     4  10  23  39  62  97 128 168 211 274 347 393
#     4  10  25  41  68  98 127 168 224 282 343 399
#     4  12  26  44  64  98 128 176 228 272 334 394
#     4  10  23  45  67  92 132 180 226 275 325 409
#
# _framework density 22.361844999999999
#
# number of rings (size 3 to 8) (size 9 to 14) (size 15 to 20)
#    0.000    1.333    2.000    4.000    9.333    0.533 
#    2.400    0.000    0.000    0.000    0.000    0.000 
#    0.000    0.000    0.000    0.000    0.000    0.000 
#
# Total GULP energy -334501.603475 kJ/mol
# GULP energy per Si atom -5575.026725 kJ/mol
# Density = 2.231095 g / cm^3
# Si number density = 22.361845 Si / 1000 Ang^3
#
#
#
# Elastic Constant Matrix: (Units=GPa)
#
#
# Indices 1 2 3 4 5 6 
#
# 1 75.0572 10.8150 2.0219 0.0000 0.0000 0.0000
# 2 10.8150 59.7519 -4.5328 0.0000 0.0000 0.0000
# 3 2.0219 -4.5328 28.2900 0.0000 0.0000 0.0000
# 4 0.0000 0.0000 0.0000 26.2080 0.0000 0.0000
# 5 0.0000 0.0000 0.0000 0.0000 -29.3746 0.0000
# 6 0.0000 0.0000 0.0000 0.0000 0.0000 44.0042
#
#
#
# Elastic Compliance Matrix: (Units=1/GPa)
#
#
# Indices 1 2 3 4 5 6 
#
# 1 0.013734 -0.002592 -0.001397 0.000000 0.000000 0.000000
# 2 -0.002592 0.017431 0.002978 0.000000 0.000000 0.000000
# 3 -0.001397 0.002978 0.035925 0.000000 0.000000 0.000000
# 4 0.000000 0.000000 0.000000 0.038156 0.000000 0.000000
# 5 0.000000 0.000000 0.000000 0.000000 -0.034043 0.000000
# 6 0.000000 0.000000 0.000000 0.000000 0.000000 0.022725
#
#
# Mechanical properties :
#
#
# Convention : Reuss Voigt Hill
#
# Bulk Modulus (GPa) = 15.36829 19.96750 17.66790
# Shear Modulus (GPa) = 42.50267 18.48718 30.49492
#
# Velocity S-wave (km/s) = 4.36441 2.87841 3.69684
# Velocity P-wave (km/s) = 5.68198 4.47165 5.11275
#
# Compressibility (1/GPa) = 0.06506905
#
# Stress axis : x y z
#
# Youngs Moduli (GPa) = 72.81062 57.36938 27.83565
#
# Poissons Ratio (x) = 0.14869 0.03888
# Poissons Ratio (y) = 0.18871 -0.08290
# Poissons Ratio (z) = 0.10171 -0.17085
#
# Static dielectric constant tensor:
#      x y z
#    x 1.861040 0.000000 0.000000 
#    y 0.000000 1.848400 0.000000 
#    z 0.000000 0.000000 1.871180 
# 
# From -- ./inp_files/16653.got.cif
#   From: 2010.05.17/outbox.cif.g08.bks.cpg/sg56_9_cif.got.tgz:16653.got - 2010.06.03 13:42:01.
