data_PCOD9432048
_publ_section_title
;
Structure prediction by ZEFSAII (Michael W. Deem and Ramdas Pophale) SiO2 
 PCOD9432048
Probable space group: P C C N
;
_chemical_formula_sum "Si O2"
_cell_formula_units_Z 36
_cell_length_a 8.820688
_cell_length_b 9.014766
_cell_length_c 22.480483
_cell_angle_alpha 90.000000
_cell_angle_beta 90.000000
_cell_angle_gamma 90.000000
_cell_volume 1787.567939
_symmetry_space_group_name_H-M "P C C N"
_symmetry_group_IT_number 56
_symmetry_cell_setting 'orthorhombic'
loop_
_space_group_symop_operation_xyz
x,y,z
1/2-x,1/2-y,z
1/2+x,-y,1/2-z
-x,1/2+y,1/2-z
-x,-y,-z
1/2+x,1/2+y,-z
1/2-x,y,1/2+z
x,1/2-y,1/2+z
loop_
_atom_site_type_symbol
_atom_site_label
_atom_site_fract_x
_atom_site_fract_y
_atom_site_fract_z
Si Si1 0.614585 0.988066 0.626035
Si Si2 0.920253 0.757664 0.421683
Si Si3 0.933418 0.748628 0.720468
Si Si4 0.923234 0.073193 0.674616
Si Si5 0.750000 0.750000 0.537354
O O1 0.509199 0.107071 0.593756
O O2 0.742991 0.068030 0.665591
O O3 0.530716 0.872224 0.669332
O O4 0.705052 0.886939 0.578699
O O5 0.750000 0.750000 0.395633
O O6 0.889053 0.778437 0.491725
O O7 0.007127 0.889271 0.389429
O O8 0.750000 0.750000 0.728183
O O9 0.015204 0.695712 0.779888
O O10 0.974032 0.913120 0.699082
#
# Coordination Sequence:
#
# PCOD9432048 Si02
#       5
#     8   8   8   8   4
#     4  11  21  46  67  94 134 179 219 274 340 397
#     4  10  24  39  66  94 135 169 226 266 328 388
#     4  10  22  39  67  91 136 164 219 271 345 400
#     4  11  21  40  65  98 123 176 215 278 335 409
#     4  10  22  44  70  92 132 188 216 284 316 400
#
# _framework density 20.139092999999999
#
# number of rings (size 3 to 8) (size 9 to 14) (size 15 to 20)
#    0.667    0.889    3.333    3.333    0.000    4.444 
#    0.000    5.556    0.000    0.000    0.000    0.000 
#    0.000    0.000    0.000    0.000    0.000    0.000 
#
# Total GULP energy -200996.344743 kJ/mol
# GULP energy per Si atom -5583.231798 kJ/mol
# Density = 2.009326 g / cm^3
# Si number density = 20.139093 Si / 1000 Ang^3
#
#
#
# Elastic Constant Matrix: (Units=GPa)
#
#
# Indices 1 2 3 4 5 6 
#
# 1 54.5367 46.8552 20.0782 0.0000 0.0000 0.0000
# 2 46.8552 105.8662 41.6703 0.0000 0.0000 0.0000
# 3 20.0782 41.6703 106.5145 0.0000 0.0000 0.0000
# 4 0.0000 0.0000 0.0000 -31.4853 0.0000 0.0000
# 5 0.0000 0.0000 0.0000 0.0000 31.0684 0.0000
# 6 0.0000 0.0000 0.0000 0.0000 0.0000 39.8561
#
#
#
# Elastic Compliance Matrix: (Units=1/GPa)
#
#
# Indices 1 2 3 4 5 6 
#
# 1 0.029613 -0.012895 -0.000537 0.000000 0.000000 0.000000
# 2 -0.012895 0.016780 -0.004134 0.000000 0.000000 0.000000
# 3 -0.000537 -0.004134 0.011107 0.000000 0.000000 0.000000
# 4 0.000000 0.000000 0.000000 -0.031761 0.000000 0.000000
# 5 0.000000 0.000000 0.000000 0.000000 0.032187 0.000000
# 6 0.000000 0.000000 0.000000 0.000000 0.000000 0.025090
#
#
# Mechanical properties :
#
#
# Convention : Reuss Voigt Hill
#
# Bulk Modulus (GPa) = 44.70767 53.79165 49.24966
# Shear Modulus (GPa) = 39.80760 18.44208 29.12484
#
# Velocity S-wave (km/s) = 4.45076 3.02940 3.80700
# Velocity P-wave (km/s) = 6.97567 6.24535 6.62059
#
# Compressibility (1/GPa) = 0.02236753
#
# Stress axis : x y z
#
# Youngs Moduli (GPa) = 33.76945 59.59434 90.03338
#
# Poissons Ratio (x) = 0.76845 0.04838
# Poissons Ratio (y) = 0.43545 0.37220
# Poissons Ratio (z) = 0.01815 0.24636
#
# Static dielectric constant tensor:
#      x y z
#    x 1.719910 0.000000 0.000000 
#    y 0.000000 1.724930 0.000000 
#    z 0.000000 0.000000 1.711760 
# 
# From -- ./inp_files/17871.got.cif
#   From: 2010.05.17/outbox.cif.g08.bks.cpg/sg56_9_cif.got.tgz:17871.got - 2010.06.03 13:42:01.
