data_PCOD9432305
_publ_section_title
;
Structure prediction by ZEFSAII (Michael W. Deem and Ramdas Pophale) SiO2 
 PCOD9432305
Probable space group: P C C N
;
_chemical_formula_sum "Si O2"
_cell_formula_units_Z 40
_cell_length_a 7.521723
_cell_length_b 16.696765
_cell_length_c 12.857983
_cell_angle_alpha 90.000000
_cell_angle_beta 90.000000
_cell_angle_gamma 90.000000
_cell_volume 1614.814044
_symmetry_space_group_name_H-M "P C C N"
_symmetry_group_IT_number 56
_symmetry_cell_setting 'orthorhombic'
loop_
_space_group_symop_operation_xyz
x,y,z
1/2-x,1/2-y,z
1/2+x,-y,1/2-z
-x,1/2+y,1/2-z
-x,-y,-z
1/2+x,1/2+y,-z
1/2-x,y,1/2+z
x,1/2-y,1/2+z
loop_
_atom_site_type_symbol
_atom_site_label
_atom_site_fract_x
_atom_site_fract_y
_atom_site_fract_z
Si Si1 0.405829 0.359603 0.575654
Si Si2 0.623627 0.170150 0.868123
Si Si3 0.414912 0.959737 0.401141
Si Si4 0.736810 0.501750 0.291679
Si Si5 0.014455 0.304480 0.644188
O O1 0.495008 0.357266 0.462560
O O2 0.395336 0.442414 0.639707
O O3 0.199654 0.329168 0.586457
O O4 0.513987 0.288996 0.630387
O O5 0.750000 0.250000 0.885276
O O6 0.730939 0.089766 0.833009
O O7 0.499773 0.187718 0.768110
O O8 0.274609 0.006731 0.333457
O O9 0.376701 0.865962 0.410954
O O10 0.500000 0.000000 0.500000
O O11 0.572144 0.962839 0.317221
#
# Coordination Sequence:
#
# PCOD9432305 Si02
#       5
#     8   8   8   8   8
#     4  10  22  42  70  93 136 186 233 277 345 433
#     4  11  25  42  66 105 142 177 232 301 362 399
#     4  10  23  42  68  97 139 183 231 287 354 416
#     4  10  24  43  66 102 135 186 233 291 343 431
#     4   9  23  42  63  99 132 181 235 277 342 436
#
# _framework density 24.770655000000001
#
# number of rings (size 3 to 8) (size 9 to 14) (size 15 to 20)
#    0.000    2.000    0.000    0.600    5.600   15.200 
#    0.000    0.000    0.000    0.000    0.000    0.000 
#    0.000    0.000    0.000    0.000    0.000    0.000 
#
# Total GULP energy -222885.597836 kJ/mol
# GULP energy per Si atom -5572.139946 kJ/mol
# Density = 2.471428 g / cm^3
# Si number density = 24.770655 Si / 1000 Ang^3
#
#
#
# Elastic Constant Matrix: (Units=GPa)
#
#
# Indices 1 2 3 4 5 6 
#
# 1 84.2801 21.1856 35.0007 0.0000 0.0000 0.0000
# 2 21.1856 166.6837 29.8142 0.0000 0.0000 0.0000
# 3 35.0007 29.8142 78.4681 0.0000 0.0000 0.0000
# 4 0.0000 0.0000 0.0000 33.2723 0.0000 0.0000
# 5 0.0000 0.0000 0.0000 0.0000 38.3810 0.0000
# 6 0.0000 0.0000 0.0000 0.0000 0.0000 28.3046
#
#
#
# Elastic Compliance Matrix: (Units=1/GPa)
#
#
# Indices 1 2 3 4 5 6 
#
# 1 0.014648 -0.000744 -0.006251 0.000000 0.000000 0.000000
# 2 -0.000744 0.006475 -0.002128 0.000000 0.000000 0.000000
# 3 -0.006251 -0.002128 0.016341 0.000000 0.000000 0.000000
# 4 0.000000 0.000000 0.000000 0.030055 0.000000 0.000000
# 5 0.000000 0.000000 0.000000 0.000000 0.026055 0.000000
# 6 0.000000 0.000000 0.000000 0.000000 0.000000 0.035330
#
#
# Mechanical properties :
#
#
# Convention : Reuss Voigt Hill
#
# Bulk Modulus (GPa) = 52.03628 55.71475 53.87552
# Shear Modulus (GPa) = 32.56147 36.22035 34.39091
#
# Velocity S-wave (km/s) = 3.62956 3.82806 3.73013
# Velocity P-wave (km/s) = 6.21432 6.48689 6.35207
#
# Compressibility (1/GPa) = 0.01921736
#
# Stress axis : x y z
#
# Youngs Moduli (GPa) = 68.26766 154.44985 61.19552
#
# Poissons Ratio (x) = 0.11486 0.38255
# Poissons Ratio (y) = 0.05077 0.13024
# Poissons Ratio (z) = 0.42676 0.32872
#
# Static dielectric constant tensor:
#      x y z
#    x 2.089290 0.000000 0.000000 
#    y 0.000000 2.175550 0.000000 
#    z 0.000000 0.000000 2.177090 
# 
# From -- ./inp_files/6160.got.cif
#   From: 2010.05.17/outbox.cif.g08.bks.cpg/sg56_4_cif.got.tgz:6160.got - 2010.06.03 13:42:01.
