data_PCOD9432095
_publ_section_title
;
Structure prediction by ZEFSAII (Michael W. Deem and Ramdas Pophale) SiO2 
 PCOD9432095
Probable space group: P C C N
;
_chemical_formula_sum "Si O2"
_cell_formula_units_Z 40
_cell_length_a 9.157762
_cell_length_b 19.016846
_cell_length_c 8.627208
_cell_angle_alpha 90.000000
_cell_angle_beta 90.000000
_cell_angle_gamma 90.000000
_cell_volume 1502.443368
_symmetry_space_group_name_H-M "P C C N"
_symmetry_group_IT_number 56
_symmetry_cell_setting 'orthorhombic'
loop_
_space_group_symop_operation_xyz
x,y,z
1/2-x,1/2-y,z
1/2+x,-y,1/2-z
-x,1/2+y,1/2-z
-x,-y,-z
1/2+x,1/2+y,-z
1/2-x,y,1/2+z
x,1/2-y,1/2+z
loop_
_atom_site_type_symbol
_atom_site_label
_atom_site_fract_x
_atom_site_fract_y
_atom_site_fract_z
Si Si1 0.548769 0.874462 0.361602
Si Si2 0.147365 0.524718 0.200715
Si Si3 0.907425 0.270456 0.084733
Si Si4 0.585898 0.420065 0.642682
Si Si5 0.297650 0.175991 0.911444
O O1 0.436770 0.937963 0.345182
O O2 0.456183 0.802631 0.341411
O O3 0.660815 0.857708 0.499307
O O4 0.649191 0.878945 0.211719
O O5 0.312964 0.531837 0.250215
O O6 0.076473 0.449217 0.167880
O O7 0.123748 0.567128 0.038780
O O8 0.750000 0.250000 0.007890
O O9 0.882183 0.339666 0.188927
O O10 0.056389 0.299031 0.002616
O O11 0.250000 0.250000 0.833602
#
# Coordination Sequence:
#
# PCOD9432095 Si02
#       5
#     8   8   8   8   8
#     4  11  23  43  68 100 140 181 235 287 352 414
#     4  11  26  49  72 102 143 189 235 294 355 432
#     4  11  22  41  70 106 137 181 228 300 344 415
#     4  11  26  48  72 104 143 187 237 291 357 427
#     4  10  22  40  63  99 137 180 224 285 348 418
#
# _framework density 26.623297999999998
#
# number of rings (size 3 to 8) (size 9 to 14) (size 15 to 20)
#    0.000    1.200    4.000    1.800    2.800    3.200 
#    3.600    0.000    0.000    0.000    0.000    0.000 
#    0.000    0.000    0.000    0.000    0.000    0.000 
#
# Total GULP energy -223587.248606 kJ/mol
# GULP energy per Si atom -5589.681215 kJ/mol
# Density = 2.656270 g / cm^3
# Si number density = 26.623298 Si / 1000 Ang^3
#
#
#
# Elastic Constant Matrix: (Units=GPa)
#
#
# Indices 1 2 3 4 5 6 
#
# 1 114.2674 37.0965 21.7470 0.0000 0.0000 0.0000
# 2 37.0965 107.3156 0.8332 0.0000 0.0000 0.0000
# 3 21.7470 0.8332 49.4348 0.0000 0.0000 0.0000
# 4 0.0000 0.0000 0.0000 20.1524 0.0000 0.0000
# 5 0.0000 0.0000 0.0000 0.0000 24.2913 0.0000
# 6 0.0000 0.0000 0.0000 0.0000 0.0000 52.7296
#
#
#
# Elastic Compliance Matrix: (Units=1/GPa)
#
#
# Indices 1 2 3 4 5 6 
#
# 1 0.010854 -0.003716 -0.004712 0.000000 0.000000 0.000000
# 2 -0.003716 0.010591 0.001456 0.000000 0.000000 0.000000
# 3 -0.004712 0.001456 0.022277 0.000000 0.000000 0.000000
# 4 0.000000 0.000000 0.000000 0.049622 0.000000 0.000000
# 5 0.000000 0.000000 0.000000 0.000000 0.041167 0.000000
# 6 0.000000 0.000000 0.000000 0.000000 0.000000 0.018965
#
#
# Mechanical properties :
#
#
# Convention : Reuss Voigt Hill
#
# Bulk Modulus (GPa) = 33.58054 43.37457 38.47756
# Shear Modulus (GPa) = 28.19334 33.52407 30.85871
#
# Velocity S-wave (km/s) = 3.25772 3.55237 3.40823
# Velocity P-wave (km/s) = 5.17599 5.75787 5.47467
#
# Compressibility (1/GPa) = 0.02977915
#
# Stress axis : x y z
#
# Youngs Moduli (GPa) = 92.12772 94.41629 44.88902
#
# Poissons Ratio (x) = 0.35081 0.21154
# Poissons Ratio (y) = 0.34231 -0.06536
# Poissons Ratio (z) = 0.43414 -0.13747
#
# Static dielectric constant tensor:
#      x y z
#    x 2.118020 0.000000 0.000000 
#    y 0.000000 2.136010 0.000000 
#    z 0.000000 0.000000 2.087100 
# 
# From -- ./inp_files/6308.got.cif
#   From: 2010.05.17/outbox.cif.g08.bks.cpg/sg56_4_cif.got.tgz:6308.got - 2010.06.03 13:42:01.
