data_PCOD9432248
_publ_section_title
;
Structure prediction by ZEFSAII (Michael W. Deem and Ramdas Pophale) SiO2 
 PCOD9432248
Probable space group: P C C N
;
_chemical_formula_sum "Si O2"
_cell_formula_units_Z 48
_cell_length_a 8.514654
_cell_length_b 8.727482
_cell_length_c 32.355505
_cell_angle_alpha 90.000000
_cell_angle_beta 90.000000
_cell_angle_gamma 90.000000
_cell_volume 2404.385771
_symmetry_space_group_name_H-M "P C C N"
_symmetry_group_IT_number 56
_symmetry_cell_setting 'orthorhombic'
loop_
_space_group_symop_operation_xyz
x,y,z
1/2-x,1/2-y,z
1/2+x,-y,1/2-z
-x,1/2+y,1/2-z
-x,-y,-z
1/2+x,1/2+y,-z
1/2-x,y,1/2+z
x,1/2-y,1/2+z
loop_
_atom_site_type_symbol
_atom_site_label
_atom_site_fract_x
_atom_site_fract_y
_atom_site_fract_z
Si Si1 0.750000 0.750000 0.590786
Si Si2 0.558980 0.997669 0.137563
Si Si3 0.897191 0.539386 0.297130
Si Si4 0.288610 0.569037 0.116583
Si Si5 0.750000 0.250000 0.088319
Si Si6 0.535774 0.003373 0.548232
Si Si7 0.965371 0.883198 0.279435
O O1 0.629986 0.658646 0.620000
O O2 0.847096 0.632410 0.562576
O O3 0.661314 0.129798 0.117118
O O4 0.558287 0.015764 0.186834
O O5 0.378954 0.012805 0.122722
O O6 0.893745 0.479265 0.343952
O O7 0.978537 0.705030 0.291990
O O8 0.716365 0.567821 0.283847
O O9 0.973538 0.418718 0.266034
O O10 0.250000 0.750000 0.117201
O O11 0.379462 0.520337 0.075532
O O12 0.876147 0.159199 0.060902
O O13 0.500000 0.000000 0.500000
#
# Coordination Sequence:
#
# PCOD9432248 Si02
#       7
#     4   8   8   8   4   8   8
#     4  10  22  42  64  98 130 172 220 268 332 396
#     4  10  22  42  67  93 131 173 218 262 329 387
#     4  10  24  39  61  91 127 168 218 265 325 381
#     4  11  23  43  69  93 130 180 221 270 335 404
#     4  10  24  42  64  98 132 166 212 280 328 394
#     4  11  25  42  68  98 132 171 221 274 339 399
#     4  10  23  40  60  93 127 169 218 267 315 386
#
# _framework density 19.963519000000002
#
# number of rings (size 3 to 8) (size 9 to 14) (size 15 to 20)
#    0.000    1.667    1.667    1.000    5.833    8.667 
#    0.000    3.333    0.000    0.000    0.000    0.000 
#    0.000    0.000    0.000    0.000    0.000    0.000 
#
# Total GULP energy -268426.254277 kJ/mol
# GULP energy per Si atom -5592.213631 kJ/mol
# Density = 1.991808 g / cm^3
# Si number density = 19.963519 Si / 1000 Ang^3
#
#
#
# Elastic Constant Matrix: (Units=GPa)
#
#
# Indices 1 2 3 4 5 6 
#
# 1 46.6372 9.8720 40.6169 0.0000 0.0000 0.0000
# 2 9.8720 73.0808 29.9590 0.0000 0.0000 0.0000
# 3 40.6169 29.9590 154.7135 0.0000 0.0000 0.0000
# 4 0.0000 0.0000 0.0000 13.4275 0.0000 0.0000
# 5 0.0000 0.0000 0.0000 0.0000 30.9639 0.0000
# 6 0.0000 0.0000 0.0000 0.0000 0.0000 29.7778
#
#
#
# Elastic Compliance Matrix: (Units=1/GPa)
#
#
# Indices 1 2 3 4 5 6 
#
# 1 0.027844 -0.000831 -0.007149 0.000000 0.000000 0.000000
# 2 -0.000831 0.014888 -0.002665 0.000000 0.000000 0.000000
# 3 -0.007149 -0.002665 0.008856 0.000000 0.000000 0.000000
# 4 0.000000 0.000000 0.000000 0.074474 0.000000 0.000000
# 5 0.000000 0.000000 0.000000 0.000000 0.032296 0.000000
# 6 0.000000 0.000000 0.000000 0.000000 0.000000 0.033582
#
#
# Mechanical properties :
#
#
# Convention : Reuss Voigt Hill
#
# Bulk Modulus (GPa) = 33.00373 48.36969 40.68671
# Shear Modulus (GPa) = 22.38843 27.76606 25.07724
#
# Velocity S-wave (km/s) = 3.35246 3.73344 3.54807
# Velocity P-wave (km/s) = 5.61723 6.54725 6.09999
#
# Compressibility (1/GPa) = 0.03029961
#
# Stress axis : x y z
#
# Youngs Moduli (GPa) = 35.91419 67.16749 112.91219
#
# Poissons Ratio (x) = 0.05579 0.80722
# Poissons Ratio (y) = 0.02983 0.30090
# Poissons Ratio (z) = 0.25675 0.17900
#
# Static dielectric constant tensor:
#      x y z
#    x 1.710510 0.000000 0.000000 
#    y 0.000000 1.716030 0.000000 
#    z 0.000000 0.000000 1.653690 
# 
# From -- ./inp_files/23260.got.cif
#   From: 2010.05.17/outbox.cif.g08.bks.cpg/sg56_12_cif.got.tgz:23260.got - 2010.06.03 13:42:01.
