data_PCOD9432135
_publ_section_title
;
Structure prediction by ZEFSAII (Michael W. Deem and Ramdas Pophale) SiO2 
 PCOD9432135
Probable space group: P C C N
;
_chemical_formula_sum "Si O2"
_cell_formula_units_Z 28
_cell_length_a 13.531693
_cell_length_b 4.886088
_cell_length_c 17.795681
_cell_angle_alpha 90.000000
_cell_angle_beta 90.000000
_cell_angle_gamma 90.000000
_cell_volume 1176.597802
_symmetry_space_group_name_H-M "P C C N"
_symmetry_group_IT_number 56
_symmetry_cell_setting 'orthorhombic'
loop_
_space_group_symop_operation_xyz
x,y,z
1/2-x,1/2-y,z
1/2+x,-y,1/2-z
-x,1/2+y,1/2-z
-x,-y,-z
1/2+x,1/2+y,-z
1/2-x,y,1/2+z
x,1/2-y,1/2+z
loop_
_atom_site_type_symbol
_atom_site_label
_atom_site_fract_x
_atom_site_fract_y
_atom_site_fract_z
Si Si1 0.968688 0.713311 0.435418
Si Si2 0.750000 0.750000 0.388040
Si Si3 0.161596 0.885089 0.241770
Si Si4 0.981856 0.790337 0.658240
O O1 0.850697 0.775311 0.435981
O O2 0.000000 0.500000 0.500000
O O3 0.005238 0.524544 0.365190
O O4 0.014802 0.008322 0.414537
O O5 0.783879 0.515279 0.330380
O O6 0.250000 0.750000 0.287993
O O7 0.080354 0.675031 0.209055
O O8 0.108590 0.112995 0.291688
#
# Coordination Sequence:
#
# PCOD9432135 Si02
#       4
#     8   4   8   8
#     4  11  24  45  65  94 140 187 235 272 342 429
#     4  10  22  40  68  94 130 186 224 282 356 408
#     4  11  22  41  68 101 140 169 234 294 370 410
#     4  11  24  41  67 102 132 176 228 295 342 414
#
# _framework density 23.797426000000002
#
# number of rings (size 3 to 8) (size 9 to 14) (size 15 to 20)
#    0.000    1.143    2.857    4.286    4.000    0.000 
#    5.143    0.000    0.000    0.000    0.000    0.000 
#    0.000    0.000    0.000    0.000    0.000    0.000 
#
# Total GULP energy -156133.503927 kJ/mol
# GULP energy per Si atom -5576.196569 kJ/mol
# Density = 2.374326 g / cm^3
# Si number density = 23.797426 Si / 1000 Ang^3
#
#
#
# Elastic Constant Matrix: (Units=GPa)
#
#
# Indices 1 2 3 4 5 6 
#
# 1 132.6333 35.4674 13.7029 0.0000 0.0000 0.0000
# 2 35.4674 130.5020 10.7918 0.0000 0.0000 0.0000
# 3 13.7029 10.7918 62.1425 0.0000 0.0000 0.0000
# 4 0.0000 0.0000 0.0000 22.3237 0.0000 0.0000
# 5 0.0000 0.0000 0.0000 0.0000 21.6648 0.0000
# 6 0.0000 0.0000 0.0000 0.0000 0.0000 51.4280
#
#
#
# Elastic Compliance Matrix: (Units=1/GPa)
#
#
# Indices 1 2 3 4 5 6 
#
# 1 0.008258 -0.002124 -0.001452 0.000000 0.000000 0.000000
# 2 -0.002124 0.008321 -0.000977 0.000000 0.000000 0.000000
# 3 -0.001452 -0.000977 0.016582 0.000000 0.000000 0.000000
# 4 0.000000 0.000000 0.000000 0.044795 0.000000 0.000000
# 5 0.000000 0.000000 0.000000 0.000000 0.046158 0.000000
# 6 0.000000 0.000000 0.000000 0.000000 0.000000 0.019445
#
#
# Mechanical properties :
#
#
# Convention : Reuss Voigt Hill
#
# Bulk Modulus (GPa) = 41.57192 49.46691 45.51941
# Shear Modulus (GPa) = 31.11737 36.77100 33.94418
#
# Velocity S-wave (km/s) = 3.61999 3.93513 3.78084
# Velocity P-wave (km/s) = 5.91434 6.44040 6.18297
#
# Compressibility (1/GPa) = 0.02405470
#
# Stress axis : x y z
#
# Youngs Moduli (GPa) = 121.10038 120.18108 60.30703
#
# Poissons Ratio (x) = 0.25528 0.08756
# Poissons Ratio (y) = 0.25724 0.05890
# Poissons Ratio (z) = 0.17583 0.11737
#
# Static dielectric constant tensor:
#      x y z
#    x 1.859270 0.000000 0.000000 
#    y 0.000000 1.991930 0.000000 
#    z 0.000000 0.000000 2.046150 
# 
# From -- ./inp_files/15923.got.cif
#   From: 2010.05.17/outbox.cif.g08.bks.cpg/sg56_8_cif.got.tgz:15923.got - 2010.06.03 13:42:01.
