data_PCOD9432662
_publ_section_title
;
Structure prediction by ZEFSAII (Michael W. Deem and Ramdas Pophale) SiO2 
 PCOD9432662
Probable space group: P C C N
;
_chemical_formula_sum "Si O2"
_cell_formula_units_Z 60
_cell_length_a 16.898929
_cell_length_b 9.016204
_cell_length_c 18.737483
_cell_angle_alpha 90.000000
_cell_angle_beta 90.000000
_cell_angle_gamma 90.000000
_cell_volume 2854.921443
_symmetry_space_group_name_H-M "P C C N"
_symmetry_group_IT_number 56
_symmetry_cell_setting 'orthorhombic'
loop_
_space_group_symop_operation_xyz
x,y,z
1/2-x,1/2-y,z
1/2+x,-y,1/2-z
-x,1/2+y,1/2-z
-x,-y,-z
1/2+x,1/2+y,-z
1/2-x,y,1/2+z
x,1/2-y,1/2+z
loop_
_atom_site_type_symbol
_atom_site_label
_atom_site_fract_x
_atom_site_fract_y
_atom_site_fract_z
Si Si1 0.575945 0.820013 0.354878
Si Si2 0.287022 0.019028 0.970742
Si Si3 0.318031 0.378430 0.740012
Si Si4 0.081823 0.527288 0.363740
Si Si5 0.250000 0.750000 0.575081
Si Si6 0.169089 0.818002 0.340496
Si Si7 0.882988 0.815740 0.014684
Si Si8 0.319115 0.920188 0.693484
O O1 0.613193 0.679464 0.313642
O O2 0.496714 0.902098 0.328890
O O3 0.571223 0.806224 0.439921
O O4 0.643448 0.938108 0.342140
O O5 0.201142 0.095292 0.981652
O O6 0.353155 0.146924 0.975286
O O7 0.283310 0.883509 0.026848
O O8 0.305249 0.945495 0.894401
O O9 0.250000 0.250000 0.753105
O O10 0.362825 0.433415 0.810489
O O11 0.268865 0.518453 0.711155
O O12 0.126442 0.683073 0.381271
O O13 0.066979 0.411606 0.428007
O O14 0.316932 0.802078 0.630642
O O15 0.250000 0.750000 0.312085
O O16 0.134296 0.878139 0.266101
#
# Coordination Sequence:
#
# PCOD9432662 Si02
#       8
#     8   8   8   8   4   8   8   8
#     4  11  26  42  65  98 142 172 216 276 340 403
#     4  11  23  37  69  96 127 167 235 270 323 392
#     4  10  23  43  67  99 131 178 227 276 325 407
#     4  12  25  43  70  97 139 176 223 274 345 401
#     4  12  18  36  64 102 120 166 216 286 318 374
#     4  12  22  41  62  99 127 171 224 285 320 394
#     4  11  23  42  65  95 131 181 217 270 334 401
#     4  11  22  39  69  94 133 168 224 272 333 389
#
# _framework density 21.016338999999999
#
# number of rings (size 3 to 8) (size 9 to 14) (size 15 to 20)
#    0.000    0.800    5.333    1.200   11.200    0.000 
#    0.000    0.667    0.000    0.000    0.000    0.000 
#    0.000    0.000    0.000    0.000    0.000    0.000 
#
# Total GULP energy -334064.161417 kJ/mol
# GULP energy per Si atom -5567.736024 kJ/mol
# Density = 2.096850 g / cm^3
# Si number density = 21.016339 Si / 1000 Ang^3
#
#
#
# Elastic Constant Matrix: (Units=GPa)
#
#
# Indices 1 2 3 4 5 6 
#
# 1 46.1132 10.8437 12.9024 0.0000 0.0000 0.0000
# 2 10.8437 120.7563 52.2377 0.0000 0.0000 0.0000
# 3 12.9024 52.2377 87.1294 0.0000 0.0000 0.0000
# 4 0.0000 0.0000 0.0000 38.8848 0.0000 0.0000
# 5 0.0000 0.0000 0.0000 0.0000 7.2465 0.0000
# 6 0.0000 0.0000 0.0000 0.0000 0.0000 12.3296
#
#
#
# Elastic Compliance Matrix: (Units=1/GPa)
#
#
# Indices 1 2 3 4 5 6 
#
# 1 0.022679 -0.000788 -0.002886 0.000000 0.000000 0.000000
# 2 -0.000788 0.011208 -0.006603 0.000000 0.000000 0.000000
# 3 -0.002886 -0.006603 0.015863 0.000000 0.000000 0.000000
# 4 0.000000 0.000000 0.000000 0.025717 0.000000 0.000000
# 5 0.000000 0.000000 0.000000 0.000000 0.137999 0.000000
# 6 0.000000 0.000000 0.000000 0.000000 0.000000 0.081105
#
#
# Mechanical properties :
#
#
# Convention : Reuss Voigt Hill
#
# Bulk Modulus (GPa) = 34.25114 45.10741 39.67928
# Shear Modulus (GPa) = 15.39136 23.55985 19.47561
#
# Velocity S-wave (km/s) = 2.70914 3.35180 3.04746
# Velocity P-wave (km/s) = 5.11064 6.04062 5.59499
#
# Compressibility (1/GPa) = 0.02919611
#
# Stress axis : x y z
#
# Youngs Moduli (GPa) = 44.09449 89.21908 63.03815
#
# Poissons Ratio (x) = 0.07032 0.18192
# Poissons Ratio (y) = 0.03475 0.41625
# Poissons Ratio (z) = 0.12725 0.58913
#
# Static dielectric constant tensor:
#      x y z
#    x 1.843560 0.000000 0.000000 
#    y 0.000000 1.827780 0.000000 
#    z 0.000000 0.000000 1.817590 
# 
# From -- ./inp_files/16680.got.cif
#   From: 2010.05.17/outbox.cif.g08.bks.cpg/sg56_9_cif.got.tgz:16680.got - 2010.06.03 13:42:01.
