data_PCOD9432003
_publ_section_title
;
Structure prediction by ZEFSAII (Michael W. Deem and Ramdas Pophale) SiO2 
 PCOD9432003
Probable space group: P C C N
;
_chemical_formula_sum "Si O2"
_cell_formula_units_Z 48
_cell_length_a 8.396297
_cell_length_b 16.487601
_cell_length_c 15.746917
_cell_angle_alpha 90.000000
_cell_angle_beta 90.000000
_cell_angle_gamma 90.000000
_cell_volume 2179.921224
_symmetry_space_group_name_H-M "P C C N"
_symmetry_group_IT_number 56
_symmetry_cell_setting 'orthorhombic'
loop_
_space_group_symop_operation_xyz
x,y,z
1/2-x,1/2-y,z
1/2+x,-y,1/2-z
-x,1/2+y,1/2-z
-x,-y,-z
1/2+x,1/2+y,-z
1/2-x,y,1/2+z
x,1/2-y,1/2+z
loop_
_atom_site_type_symbol
_atom_site_label
_atom_site_fract_x
_atom_site_fract_y
_atom_site_fract_z
Si Si1 0.387259 0.532752 0.073124
Si Si2 0.485245 0.720807 0.367820
Si Si3 0.493210 0.070773 0.811965
Si Si4 0.647258 0.411502 0.743844
Si Si5 0.846194 0.172860 0.452120
Si Si6 0.816538 0.630885 0.341837
O O1 0.438544 0.573224 0.164089
O O2 0.277318 0.600659 0.032417
O O3 0.302205 0.451421 0.105627
O O4 0.500000 0.500000 0.000000
O O5 0.378166 0.677074 0.296283
O O6 0.417937 0.701654 0.459852
O O7 0.655796 0.678986 0.353902
O O8 0.529061 0.815464 0.365804
O O9 0.665661 0.072251 0.763619
O O10 0.525101 0.129187 0.891549
O O11 0.354538 0.108508 0.754623
O O12 0.432187 0.977935 0.819586
O O13 0.750000 0.250000 0.413527
#
# Coordination Sequence:
#
# PCOD9432003 Si02
#       6
#     8   8   8   8   8   8
#     4  10  22  42  64 100 138 175 228 288 349 409
#     4  11  24  43  66  99 134 181 232 286 350 416
#     4  10  23  43  67  98 137 174 231 285 347 427
#     4  10  22  38  68  96 129 178 227 276 345 422
#     4  11  25  41  69 105 136 183 237 287 355 425
#     4  10  24  45  63  94 138 178 227 288 350 412
#
# _framework density 22.019144000000001
#
# number of rings (size 3 to 8) (size 9 to 14) (size 15 to 20)
#    0.000    1.667    0.000    4.000   11.667    2.667 
#    3.000    1.667    0.000    0.000    0.000    0.000 
#    0.000    0.000    0.000    0.000    0.000    0.000 
#
# Total GULP energy -267803.779195 kJ/mol
# GULP energy per Si atom -5579.245400 kJ/mol
# Density = 2.196903 g / cm^3
# Si number density = 22.019144 Si / 1000 Ang^3
#
#
#
# Elastic Constant Matrix: (Units=GPa)
#
#
# Indices 1 2 3 4 5 6 
#
# 1 45.3384 23.9832 15.7744 0.0000 0.0000 0.0000
# 2 23.9832 112.9142 11.8742 0.0000 0.0000 0.0000
# 3 15.7744 11.8742 56.0737 0.0000 0.0000 0.0000
# 4 0.0000 0.0000 0.0000 23.2264 0.0000 0.0000
# 5 0.0000 0.0000 0.0000 0.0000 26.5964 0.0000
# 6 0.0000 0.0000 0.0000 0.0000 0.0000 37.7725
#
#
#
# Elastic Compliance Matrix: (Units=1/GPa)
#
#
# Indices 1 2 3 4 5 6 
#
# 1 0.026997 -0.005048 -0.006526 0.000000 0.000000 0.000000
# 2 -0.005048 0.010002 -0.000698 0.000000 0.000000 0.000000
# 3 -0.006526 -0.000698 0.019817 0.000000 0.000000 0.000000
# 4 0.000000 0.000000 0.000000 0.043054 0.000000 0.000000
# 5 0.000000 0.000000 0.000000 0.000000 0.037599 0.000000
# 6 0.000000 0.000000 0.000000 0.000000 0.000000 0.026474
#
#
# Mechanical properties :
#
#
# Convention : Reuss Voigt Hill
#
# Bulk Modulus (GPa) = 30.98571 35.28777 33.13674
# Shear Modulus (GPa) = 25.09471 28.36535 26.73003
#
# Velocity S-wave (km/s) = 3.37957 3.59306 3.48795
# Velocity P-wave (km/s) = 5.41585 5.76838 5.59489
#
# Compressibility (1/GPa) = 0.03227294
#
# Stress axis : x y z
#
# Youngs Moduli (GPa) = 37.04091 99.98115 50.46105
#
# Poissons Ratio (x) = 0.50471 0.32930
# Poissons Ratio (y) = 0.18698 0.03522
# Poissons Ratio (z) = 0.24172 0.06978
#
# Static dielectric constant tensor:
#      x y z
#    x 1.828510 0.000000 0.000000 
#    y 0.000000 1.467490 0.000000 
#    z 0.000000 0.000000 1.820000 
# 
# From -- ./inp_files/10651.got.cif
#   From: 2010.05.17/outbox.cif.g08.bks.cpg/sg56_6_cif.got.tgz:10651.got - 2010.06.03 13:42:01.
