data_PCOD9432618
_publ_section_title
;
Structure prediction by ZEFSAII (Michael W. Deem and Ramdas Pophale) SiO2 
 PCOD9432618
Probable space group: P C C N
;
_chemical_formula_sum "Si O2"
_cell_formula_units_Z 60
_cell_length_a 19.269417
_cell_length_b 16.141704
_cell_length_c 8.428208
_cell_angle_alpha 90.000000
_cell_angle_beta 90.000000
_cell_angle_gamma 90.000000
_cell_volume 2621.520145
_symmetry_space_group_name_H-M "P C C N"
_symmetry_group_IT_number 56
_symmetry_cell_setting 'orthorhombic'
loop_
_space_group_symop_operation_xyz
x,y,z
1/2-x,1/2-y,z
1/2+x,-y,1/2-z
-x,1/2+y,1/2-z
-x,-y,-z
1/2+x,1/2+y,-z
1/2-x,y,1/2+z
x,1/2-y,1/2+z
loop_
_atom_site_type_symbol
_atom_site_label
_atom_site_fract_x
_atom_site_fract_y
_atom_site_fract_z
Si Si1 0.620510 0.321292 0.369018
Si Si2 0.644174 0.143311 0.239335
Si Si3 0.750000 0.750000 0.950437
Si Si4 0.354584 0.508468 0.803057
Si Si5 0.502227 0.451301 0.746529
Si Si6 0.726737 0.502320 0.873467
Si Si7 0.972697 0.627397 0.094257
Si Si8 0.326654 0.340947 0.301063
O O1 0.650680 0.234441 0.313077
O O2 0.642372 0.348613 0.547278
O O3 0.631928 0.396189 0.245413
O O4 0.537147 0.313114 0.374715
O O5 0.571663 0.098599 0.297525
O O6 0.707073 0.086057 0.296610
O O7 0.769534 0.675277 0.064670
O O8 0.687601 0.724919 0.837123
O O9 0.427952 0.462403 0.835201
O O10 0.308166 0.477708 0.652854
O O11 0.303701 0.500337 0.951162
O O12 0.480470 0.407784 0.582118
O O13 0.523316 0.545720 0.705254
O O14 0.684449 0.570345 0.775222
O O15 0.900860 0.670747 0.124379
#
# Coordination Sequence:
#
# PCOD9432618 Si02
#       8
#     8   8   4   8   8   8   8   8
#     4  10  23  42  65  99 138 171 226 268 344 386
#     4  11  22  44  69 100 135 181 219 282 327 403
#     4  10  26  42  64  90 138 162 220 272 334 384
#     4  11  25  42  66 103 132 177 224 281 330 402
#     4   9  20  40  67  95 129 172 216 272 322 387
#     4  12  25  42  71  97 133 176 228 272 335 397
#     4   9  19  39  67  92 129 172 215 266 325 390
#     4  11  23  45  63  96 126 178 215 274 325 403
#
# _framework density 22.887485000000002
#
# number of rings (size 3 to 8) (size 9 to 14) (size 15 to 20)
#    0.000    1.600    1.333    3.200    3.733    3.200 
#    7.200    2.667    0.000    0.000    0.000    0.000 
#    0.000    0.000    0.000    0.000    0.000    0.000 
#
# Total GULP energy -335386.087137 kJ/mol
# GULP energy per Si atom -5589.768119 kJ/mol
# Density = 2.283539 g / cm^3
# Si number density = 22.887485 Si / 1000 Ang^3
#
#
#
# Elastic Constant Matrix: (Units=GPa)
#
#
# Indices 1 2 3 4 5 6 
#
# 1 77.1771 -7.1399 20.2918 0.0000 0.0000 0.0000
# 2 -7.1399 70.7598 8.9301 0.0000 0.0000 0.0000
# 3 20.2918 8.9301 34.7082 0.0000 0.0000 0.0000
# 4 0.0000 0.0000 0.0000 30.0862 0.0000 0.0000
# 5 0.0000 0.0000 0.0000 0.0000 23.7410 0.0000
# 6 0.0000 0.0000 0.0000 0.0000 0.0000 33.0271
#
#
#
# Elastic Compliance Matrix: (Units=1/GPa)
#
#
# Indices 1 2 3 4 5 6 
#
# 1 0.015852 0.002862 -0.010004 0.000000 0.000000 0.000000
# 2 0.002862 0.015123 -0.005564 0.000000 0.000000 0.000000
# 3 -0.010004 -0.005564 0.036092 0.000000 0.000000 0.000000
# 4 0.000000 0.000000 0.000000 0.033238 0.000000 0.000000
# 5 0.000000 0.000000 0.000000 0.000000 0.042121 0.000000
# 6 0.000000 0.000000 0.000000 0.000000 0.000000 0.030278
#
#
# Mechanical properties :
#
#
# Convention : Reuss Voigt Hill
#
# Bulk Modulus (GPa) = 24.00688 25.20102 24.60395
# Shear Modulus (GPa) = 23.58453 28.07508 25.82980
#
# Velocity S-wave (km/s) = 3.21355 3.50617 3.36304
# Velocity P-wave (km/s) = 4.92758 5.23695 5.08462
#
# Compressibility (1/GPa) = 0.04165472
#
# Stress axis : x y z
#
# Youngs Moduli (GPa) = 63.08194 66.12283 27.70676
#
# Poissons Ratio (x) = -0.18925 0.27719
# Poissons Ratio (y) = -0.18055 0.15417
# Poissons Ratio (z) = 0.63109 0.36794
#
# Static dielectric constant tensor:
#      x y z
#    x 1.871120 0.000000 0.000000 
#    y 0.000000 1.841780 0.000000 
#    z 0.000000 0.000000 1.867030 
# 
# From -- ./inp_files/4158.got.cif
#   From: 2010.05.17/outbox.cif.g08.bks.cpg/sg56_3_cif.got.tgz:4158.got - 2010.06.03 13:42:01.
