data_PCOD9432767
_publ_section_title
;
Structure prediction by ZEFSAII (Michael W. Deem and Ramdas Pophale) SiO2 
 PCOD9432767
Probable space group: P C C N
;
_chemical_formula_sum "Si O2"
_cell_formula_units_Z 40
_cell_length_a 25.697838
_cell_length_b 11.272170
_cell_length_c 5.255003
_cell_angle_alpha 90.000000
_cell_angle_beta 90.000000
_cell_angle_gamma 90.000000
_cell_volume 1522.218813
_symmetry_space_group_name_H-M "P C C N"
_symmetry_group_IT_number 56
_symmetry_cell_setting 'orthorhombic'
loop_
_space_group_symop_operation_xyz
x,y,z
1/2-x,1/2-y,z
1/2+x,-y,1/2-z
-x,1/2+y,1/2-z
-x,-y,-z
1/2+x,1/2+y,-z
1/2-x,y,1/2+z
x,1/2-y,1/2+z
loop_
_atom_site_type_symbol
_atom_site_label
_atom_site_fract_x
_atom_site_fract_y
_atom_site_fract_z
Si Si1 0.809246 0.206977 0.548079
Si Si2 0.557663 0.331592 0.779764
Si Si3 0.727916 0.882812 0.279469
Si Si4 0.367890 0.481507 0.469216
Si Si5 0.563188 0.673909 0.196132
O O1 0.750000 0.250000 0.585877
O O2 0.831139 0.208168 0.832118
O O3 0.825928 0.080394 0.446030
O O4 0.565745 0.234666 0.551102
O O5 0.589799 0.448745 0.700657
O O6 0.496543 0.366689 0.777029
O O7 0.750000 0.750000 0.315314
O O8 0.736801 0.938412 0.555437
O O9 0.668975 0.889969 0.183727
O O10 0.396468 0.424017 0.708175
O O11 0.569835 0.776096 0.412849
#
# Coordination Sequence:
#
# PCOD9432767 Si02
#       5
#     8   8   8   8   8
#     4  10  24  42  60  91 127 167 223 271 315 377
#     4  10  23  46  69 103 137 167 219 279 329 402
#     4  10  26  44  62  93 135 170 228 277 317 386
#     4  12  25  42  76  92 136 182 225 260 348 391
#     4  10  25  44  69 103 137 167 219 278 333 399
#
# _framework density 26.277434
#
# number of rings (size 3 to 8) (size 9 to 14) (size 15 to 20)
#    0.000    1.600    0.000    1.800   11.200    4.800 
#    0.000    6.000    0.000    0.000    0.000    0.000 
#    0.000    0.000    0.000    0.000    0.000    0.000 
#
# Total GULP energy -223705.487412 kJ/mol
# GULP energy per Si atom -5592.637185 kJ/mol
# Density = 2.621763 g / cm^3
# Si number density = 26.277434 Si / 1000 Ang^3
#
#
#
# Elastic Constant Matrix: (Units=GPa)
#
#
# Indices 1 2 3 4 5 6 
#
# 1 129.3875 41.7206 4.8657 0.0000 0.0000 0.0000
# 2 41.7206 70.3168 -19.7803 0.0000 0.0000 0.0000
# 3 4.8657 -19.7803 122.9255 0.0000 0.0000 0.0000
# 4 0.0000 0.0000 0.0000 19.2790 0.0000 0.0000
# 5 0.0000 0.0000 0.0000 0.0000 18.9459 0.0000
# 6 0.0000 0.0000 0.0000 0.0000 0.0000 66.5844
#
#
#
# Elastic Compliance Matrix: (Units=1/GPa)
#
#
# Indices 1 2 3 4 5 6 
#
# 1 0.009777 -0.006190 -0.001383 0.000000 0.000000 0.000000
# 2 -0.006190 0.018814 0.003272 0.000000 0.000000 0.000000
# 3 -0.001383 0.003272 0.008716 0.000000 0.000000 0.000000
# 4 0.000000 0.000000 0.000000 0.051870 0.000000 0.000000
# 5 0.000000 0.000000 0.000000 0.000000 0.052782 0.000000
# 6 0.000000 0.000000 0.000000 0.000000 0.000000 0.015019
#
#
# Mechanical properties :
#
#
# Convention : Reuss Voigt Hill
#
# Bulk Modulus (GPa) = 34.83479 41.80462 38.31970
# Shear Modulus (GPa) = 28.54748 40.68347 34.61547
#
# Velocity S-wave (km/s) = 3.29962 3.93902 3.63341
# Velocity P-wave (km/s) = 5.27275 6.05238 5.67597
#
# Compressibility (1/GPa) = 0.02870693
#
# Stress axis : x y z
#
# Youngs Moduli (GPa) = 102.28519 53.15072 114.72704
#
# Poissons Ratio (x) = 0.32899 0.15867
# Poissons Ratio (y) = 0.63312 -0.37544
# Poissons Ratio (z) = 0.14146 -0.17394
#
# Static dielectric constant tensor:
#      x y z
#    x 2.351470 0.000000 0.000000 
#    y 0.000000 1.626530 0.000000 
#    z 0.000000 0.000000 2.128230 
# 
# From -- ./inp_files/289.got.cif
#   From: 2010.05.17/outbox.cif.g08.bks.cpg/sg56_1_cif.got.tgz:289.got - 2010.06.03 13:42:01.
