data_PCOD9432436
_publ_section_title
;
Structure prediction by ZEFSAII (Michael W. Deem and Ramdas Pophale) SiO2 
 PCOD9432436
Probable space group: P C C N
;
_chemical_formula_sum "Si O2"
_cell_formula_units_Z 40
_cell_length_a 18.889755
_cell_length_b 4.862666
_cell_length_c 17.750554
_cell_angle_alpha 90.000000
_cell_angle_beta 90.000000
_cell_angle_gamma 90.000000
_cell_volume 1630.469494
_symmetry_space_group_name_H-M "P C C N"
_symmetry_group_IT_number 56
_symmetry_cell_setting 'orthorhombic'
loop_
_space_group_symop_operation_xyz
x,y,z
1/2-x,1/2-y,z
1/2+x,-y,1/2-z
-x,1/2+y,1/2-z
-x,-y,-z
1/2+x,1/2+y,-z
1/2-x,y,1/2+z
x,1/2-y,1/2+z
loop_
_atom_site_type_symbol
_atom_site_label
_atom_site_fract_x
_atom_site_fract_y
_atom_site_fract_z
Si Si1 0.648178 0.681833 0.012739
Si Si2 0.537562 0.339140 0.217641
Si Si3 0.750000 0.750000 0.629778
Si Si4 0.686322 0.423930 0.746077
Si Si5 0.250000 0.250000 0.618986
Si Si6 0.057377 0.820395 0.454298
O O1 0.708418 0.561937 0.068370
O O2 0.589280 0.445729 0.002811
O O3 0.618050 0.950921 0.053349
O O4 0.684091 0.795142 0.936843
O O5 0.520467 0.649683 0.240330
O O6 0.613616 0.237166 0.247600
O O7 0.533991 0.282900 0.128184
O O8 0.687471 0.677211 0.688910
O O9 0.750000 0.250000 0.710319
O O10 0.717731 0.522107 0.825462
O O11 0.000000 0.000000 0.500000
#
# Coordination Sequence:
#
# PCOD9432436 Si02
#       6
#     8   8   4   8   4   8
#     4  11  25  46  71 106 142 186 247 305 376 432
#     4  12  29  48  75 108 153 200 250 310 377 452
#     4  10  22  44  72 102 136 186 248 312 366 444
#     4  11  25  45  75 104 145 192 252 309 380 438
#     4  10  28  40  74 108 144 184 244 324 370 446
#     4  12  27  46  73 102 150 201 246 298 374 456
#
# _framework density 24.532810999999999
#
# number of rings (size 3 to 8) (size 9 to 14) (size 15 to 20)
#    0.000    0.800    2.000    3.000   14.000    1.600 
#    0.000    0.000    0.000    0.000    0.000    0.000 
#    0.000    0.000    0.000    0.000    0.000    0.000 
#
# Total GULP energy -223371.713131 kJ/mol
# GULP energy per Si atom -5584.292828 kJ/mol
# Density = 2.447697 g / cm^3
# Si number density = 24.532811 Si / 1000 Ang^3
#
#
#
# Elastic Constant Matrix: (Units=GPa)
#
#
# Indices 1 2 3 4 5 6 
#
# 1 98.9494 3.1712 22.9439 0.0000 0.0000 0.0000
# 2 3.1712 59.1307 1.4948 0.0000 0.0000 0.0000
# 3 22.9439 1.4948 134.8770 0.0000 0.0000 0.0000
# 4 0.0000 0.0000 0.0000 17.5466 0.0000 0.0000
# 5 0.0000 0.0000 0.0000 0.0000 19.8659 0.0000
# 6 0.0000 0.0000 0.0000 0.0000 0.0000 43.8222
#
#
#
# Elastic Compliance Matrix: (Units=1/GPa)
#
#
# Indices 1 2 3 4 5 6 
#
# 1 0.010537 -0.000520 -0.001787 0.000000 0.000000 0.000000
# 2 -0.000520 0.016942 -0.000099 0.000000 0.000000 0.000000
# 3 -0.001787 -0.000099 0.007719 0.000000 0.000000 0.000000
# 4 0.000000 0.000000 0.000000 0.056991 0.000000 0.000000
# 5 0.000000 0.000000 0.000000 0.000000 0.050338 0.000000
# 6 0.000000 0.000000 0.000000 0.000000 0.000000 0.022819
#
#
# Mechanical properties :
#
#
# Convention : Reuss Voigt Hill
#
# Bulk Modulus (GPa) = 32.90938 38.68633 35.79785
# Shear Modulus (GPa) = 27.73350 33.93675 30.83512
#
# Velocity S-wave (km/s) = 3.36589 3.72334 3.54912
# Velocity P-wave (km/s) = 5.34314 5.85558 5.60522
#
# Compressibility (1/GPa) = 0.03038647
#
# Stress axis : x y z
#
# Youngs Moduli (GPa) = 94.90244 59.02465 129.54710
#
# Poissons Ratio (x) = 0.03069 0.23146
# Poissons Ratio (y) = 0.04934 0.01287
# Poissons Ratio (z) = 0.16956 0.00586
#
# Static dielectric constant tensor:
#      x y z
#    x 2.526490 0.000000 0.000000 
#    y 0.000000 2.917130 0.000000 
#    z 0.000000 0.000000 1.933960 
# 
# From -- ./inp_files/13855.got.cif
#   From: 2010.05.17/outbox.cif.g08.bks.cpg/sg56_7_cif.got.tgz:13855.got - 2010.06.03 13:42:01.
