data_PCOD9432426
_publ_section_title
;
Structure prediction by ZEFSAII (Michael W. Deem and Ramdas Pophale) SiO2 
 PCOD9432426
Probable space group: P C C N
;
_chemical_formula_sum "Si O2"
_cell_formula_units_Z 48
_cell_length_a 13.653990
_cell_length_b 9.277456
_cell_length_c 17.845828
_cell_angle_alpha 90.000000
_cell_angle_beta 90.000000
_cell_angle_gamma 90.000000
_cell_volume 2260.607617
_symmetry_space_group_name_H-M "P C C N"
_symmetry_group_IT_number 56
_symmetry_cell_setting 'orthorhombic'
loop_
_space_group_symop_operation_xyz
x,y,z
1/2-x,1/2-y,z
1/2+x,-y,1/2-z
-x,1/2+y,1/2-z
-x,-y,-z
1/2+x,1/2+y,-z
1/2-x,y,1/2+z
x,1/2-y,1/2+z
loop_
_atom_site_type_symbol
_atom_site_label
_atom_site_fract_x
_atom_site_fract_y
_atom_site_fract_z
Si Si1 0.473441 0.368743 0.295782
Si Si2 0.271337 0.491336 0.126106
Si Si3 0.789842 0.545821 0.121069
Si Si4 0.382540 0.748570 0.591755
Si Si5 0.250000 0.750000 0.958100
Si Si6 0.632815 0.592449 0.242996
Si Si7 0.250000 0.250000 0.008155
O O1 0.379510 0.458219 0.321438
O O2 0.517288 0.305458 0.373755
O O3 0.559054 0.458475 0.255526
O O4 0.431402 0.235807 0.248500
O O5 0.188586 0.609128 0.101849
O O6 0.358546 0.605155 0.138493
O O7 0.219471 0.417958 0.196238
O O8 0.295298 0.370439 0.064108
O O9 0.772672 0.388079 0.090168
O O10 0.691044 0.594311 0.164493
O O11 0.810064 0.650322 0.050077
O O12 0.347868 0.785976 0.507821
#
# Coordination Sequence:
#
# PCOD9432426 Si02
#       7
#     8   8   8   8   4   8   4
#     4  11  26  43  67 101 143 176 238 287 339 418
#     4   9  21  39  69  89 131 179 223 265 357 398
#     4  12  25  45  69  99 143 174 231 294 349 404
#     4   9  19  43  63  95 132 174 231 269 331 421
#     4  10  22  44  70  98 132 194 218 282 360 410
#     4  11  26  44  65 103 135 189 224 295 341 414
#     4  12  20  40  68 100 126 182 216 288 348 398
#
# _framework density 21.233229999999999
#
# number of rings (size 3 to 8) (size 9 to 14) (size 15 to 20)
#    0.000    1.667    5.000    0.000    7.000    2.000 
#    0.000    3.333    0.000    0.000    0.000    0.000 
#    0.000    0.000    0.000    0.000    0.000    0.000 
#
# Total GULP energy -267282.828964 kJ/mol
# GULP energy per Si atom -5568.392270 kJ/mol
# Density = 2.118490 g / cm^3
# Si number density = 21.233230 Si / 1000 Ang^3
#
#
#
# Elastic Constant Matrix: (Units=GPa)
#
#
# Indices 1 2 3 4 5 6 
#
# 1 83.0026 33.2703 33.7200 0.0000 0.0000 0.0000
# 2 33.2703 134.4888 48.0203 0.0000 0.0000 0.0000
# 3 33.7200 48.0203 72.8287 0.0000 0.0000 0.0000
# 4 0.0000 0.0000 0.0000 35.6396 0.0000 0.0000
# 5 0.0000 0.0000 0.0000 0.0000 -12.2600 0.0000
# 6 0.0000 0.0000 0.0000 0.0000 0.0000 27.5580
#
#
#
# Elastic Compliance Matrix: (Units=1/GPa)
#
#
# Indices 1 2 3 4 5 6 
#
# 1 0.015105 -0.001621 -0.005924 0.000000 0.000000 0.000000
# 2 -0.001621 0.009899 -0.005776 0.000000 0.000000 0.000000
# 3 -0.005924 -0.005776 0.020283 0.000000 0.000000 0.000000
# 4 0.000000 0.000000 0.000000 0.028059 0.000000 0.000000
# 5 0.000000 0.000000 0.000000 0.000000 -0.081566 0.000000
# 6 0.000000 0.000000 0.000000 0.000000 0.000000 0.036287
#
#
# Mechanical properties :
#
#
# Convention : Reuss Voigt Hill
#
# Bulk Modulus (GPa) = 53.64234 57.81570 55.72902
# Shear Modulus (GPa) = 82.06844 21.87480 51.97162
#
# Velocity S-wave (km/s) = 6.22373 3.21318 4.95275
# Velocity P-wave (km/s) = 8.77295 6.40734 7.68176
#
# Compressibility (1/GPa) = 0.01864199
#
# Stress axis : x y z
#
# Youngs Moduli (GPa) = 66.20540 101.01858 49.30307
#
# Poissons Ratio (x) = 0.16377 0.29210
# Poissons Ratio (y) = 0.10733 0.28480
# Poissons Ratio (z) = 0.39223 0.58353
#
# Static dielectric constant tensor:
#      x y z
#    x 1.750390 0.000000 0.000000 
#    y 0.000000 1.794570 0.000000 
#    z 0.000000 0.000000 1.823800 
# 
# From -- ./inp_files/16199.got.cif
#   From: 2010.05.17/outbox.cif.g08.bks.cpg/sg56_9_cif.got.tgz:16199.got - 2010.06.03 13:42:01.
