data_PCOD9432667
_publ_section_title
;
Structure prediction by ZEFSAII (Michael W. Deem and Ramdas Pophale) SiO2 
 PCOD9432667
Probable space group: P C C N
;
_chemical_formula_sum "Si O2"
_cell_formula_units_Z 24
_cell_length_a 6.427182
_cell_length_b 7.352659
_cell_length_c 19.008295
_cell_angle_alpha 90.000000
_cell_angle_beta 90.000000
_cell_angle_gamma 90.000000
_cell_volume 898.272670
_symmetry_space_group_name_H-M "P C C N"
_symmetry_group_IT_number 56
_symmetry_cell_setting 'orthorhombic'
loop_
_space_group_symop_operation_xyz
x,y,z
1/2-x,1/2-y,z
1/2+x,-y,1/2-z
-x,1/2+y,1/2-z
-x,-y,-z
1/2+x,1/2+y,-z
1/2-x,y,1/2+z
x,1/2-y,1/2+z
loop_
_atom_site_type_symbol
_atom_site_label
_atom_site_fract_x
_atom_site_fract_y
_atom_site_fract_z
Si Si1 0.257429 0.962847 0.981966
Si Si2 0.750000 0.750000 0.910241
Si Si3 0.250000 0.750000 0.717717
Si Si4 0.086062 0.499913 0.837045
O O1 0.250000 0.750000 0.994706
O O2 0.248391 0.014790 0.899957
O O3 0.500000 0.000000 0.000000
O O4 0.149752 0.097488 0.037853
O O5 0.922645 0.654613 0.862829
O O6 0.310916 0.920643 0.767024
O O7 0.448927 0.679689 0.674721
#
# Coordination Sequence:
#
# PCOD9432667 Si02
#       4
#     8   4   4   8
#     4  10  23  43  68 105 138 180 234 303 368 427
#     4  10  24  44  74 104 140 186 236 310 368 424
#     4  12  26  48  72 100 150 196 246 296 352 444
#     4  11  25  46  68 105 141 192 248 294 368 432
#
# _framework density 26.717946000000001
#
# number of rings (size 3 to 8) (size 9 to 14) (size 15 to 20)
#    0.000    1.333    1.667    2.000    9.333    8.000 
#    0.000    0.000    0.000    0.000    0.000    0.000 
#    0.000    0.000    0.000    0.000    0.000    0.000 
#
# Total GULP energy -134597.924579 kJ/mol
# GULP energy per Si atom -5608.246857 kJ/mol
# Density = 2.665714 g / cm^3
# Si number density = 26.717946 Si / 1000 Ang^3
#
#
#
# Elastic Constant Matrix: (Units=GPa)
#
#
# Indices 1 2 3 4 5 6 
#
# 1 59.1606 44.3977 37.2956 0.0000 0.0000 0.0000
# 2 44.3977 147.6056 56.0942 0.0000 0.0000 0.0000
# 3 37.2956 56.0942 109.1711 0.0000 0.0000 0.0000
# 4 0.0000 0.0000 0.0000 57.9939 0.0000 0.0000
# 5 0.0000 0.0000 0.0000 0.0000 65.8784 0.0000
# 6 0.0000 0.0000 0.0000 0.0000 0.0000 76.2095
#
#
#
# Elastic Compliance Matrix: (Units=1/GPa)
#
#
# Indices 1 2 3 4 5 6 
#
# 1 0.024355 -0.005174 -0.005662 0.000000 0.000000 0.000000
# 2 -0.005174 0.009518 -0.003123 0.000000 0.000000 0.000000
# 3 -0.005662 -0.003123 0.012699 0.000000 0.000000 0.000000
# 4 0.000000 0.000000 0.000000 0.017243 0.000000 0.000000
# 5 0.000000 0.000000 0.000000 0.000000 0.015179 0.000000
# 6 0.000000 0.000000 0.000000 0.000000 0.000000 0.013122
#
#
# Mechanical properties :
#
#
# Convention : Reuss Voigt Hill
#
# Bulk Modulus (GPa) = 53.60671 65.72359 59.66515
# Shear Modulus (GPa) = 39.60326 51.89303 45.74815
#
# Velocity S-wave (km/s) = 3.85421 4.41188 4.14244
# Velocity P-wave (km/s) = 6.31775 7.11375 6.72753
#
# Compressibility (1/GPa) = 0.01865438
#
# Stress axis : x y z
#
# Youngs Moduli (GPa) = 41.05864 105.06537 78.74790
#
# Poissons Ratio (x) = 0.54362 0.44586
# Poissons Ratio (y) = 0.21244 0.24592
# Poissons Ratio (z) = 0.23247 0.32810
#
# Static dielectric constant tensor:
#      x y z
#    x 2.491880 0.000000 0.000000 
#    y 0.000000 2.066060 0.000000 
#    z 0.000000 0.000000 2.117090 
# 
# From -- ./inp_files/17745.got.cif
#   From: 2010.05.17/outbox.cif.g08.bks.cpg/sg56_9_cif.got.tgz:17745.got - 2010.06.03 13:42:01.
