data_PCOD9432785
_publ_section_title
;
Structure prediction by ZEFSAII (Michael W. Deem and Ramdas Pophale) SiO2 
 PCOD9432785
Probable space group: P C C N
;
_chemical_formula_sum "Si O2"
_cell_formula_units_Z 40
_cell_length_a 7.881790
_cell_length_b 21.806534
_cell_length_c 9.073734
_cell_angle_alpha 90.000000
_cell_angle_beta 90.000000
_cell_angle_gamma 90.000000
_cell_volume 1559.543691
_symmetry_space_group_name_H-M "P C C N"
_symmetry_group_IT_number 56
_symmetry_cell_setting 'orthorhombic'
loop_
_space_group_symop_operation_xyz
x,y,z
1/2-x,1/2-y,z
1/2+x,-y,1/2-z
-x,1/2+y,1/2-z
-x,-y,-z
1/2+x,1/2+y,-z
1/2-x,y,1/2+z
x,1/2-y,1/2+z
loop_
_atom_site_type_symbol
_atom_site_label
_atom_site_fract_x
_atom_site_fract_y
_atom_site_fract_z
Si Si1 0.149381 0.687129 0.935911
Si Si2 0.202173 0.446678 0.442963
Si Si3 0.458415 0.493684 0.247309
Si Si4 0.728651 0.819298 0.924301
Si Si5 0.067146 0.861231 0.751748
O O1 0.250000 0.750000 0.910663
O O2 0.117273 0.677465 0.108845
O O3 0.285138 0.640224 0.872778
O O4 0.963483 0.682975 0.861500
O O5 0.334110 0.497025 0.384017
O O6 0.133699 0.469908 0.598289
O O7 0.268244 0.377944 0.466176
O O8 0.064037 0.449277 0.311306
O O9 0.559836 0.432500 0.291379
O O10 0.750000 0.750000 0.986909
O O11 0.891999 0.834507 0.821986
#
# Coordination Sequence:
#
# PCOD9432785 Si02
#       5
#     8   8   8   8   8
#     4  12  25  47  72 108 149 194 245 303 368 440
#     4  10  23  47  68 103 141 188 241 299 367 434
#     4  10  23  47  71 104 142 186 250 298 370 439
#     4  11  24  47  71 108 146 193 242 304 368 442
#     4  11  26  46  72 113 145 195 248 304 370 441
#
# _framework density 25.648524999999999
#
# number of rings (size 3 to 8) (size 9 to 14) (size 15 to 20)
#    0.000    1.200    4.000    0.600    0.000    8.000 
#   10.800    0.000    0.000    0.000    0.000    0.000 
#    0.000    0.000    0.000    0.000    0.000    0.000 
#
# Total GULP energy -223568.389267 kJ/mol
# GULP energy per Si atom -5589.209732 kJ/mol
# Density = 2.559015 g / cm^3
# Si number density = 25.648525 Si / 1000 Ang^3
#
#
#
# Elastic Constant Matrix: (Units=GPa)
#
#
# Indices 1 2 3 4 5 6 
#
# 1 152.5848 40.6268 31.3527 0.0000 0.0000 0.0000
# 2 40.6268 123.8065 16.0046 0.0000 0.0000 0.0000
# 3 31.3527 16.0046 46.7680 0.0000 0.0000 0.0000
# 4 0.0000 0.0000 0.0000 -19.3779 0.0000 0.0000
# 5 0.0000 0.0000 0.0000 0.0000 47.7791 0.0000
# 6 0.0000 0.0000 0.0000 0.0000 0.0000 46.3917
#
#
#
# Elastic Compliance Matrix: (Units=1/GPa)
#
#
# Indices 1 2 3 4 5 6 
#
# 1 0.008064 -0.002037 -0.004709 0.000000 0.000000 0.000000
# 2 -0.002037 0.008966 -0.001702 0.000000 0.000000 0.000000
# 3 -0.004709 -0.001702 0.025121 0.000000 0.000000 0.000000
# 4 0.000000 0.000000 0.000000 -0.051605 0.000000 0.000000
# 5 0.000000 0.000000 0.000000 0.000000 0.020930 0.000000
# 6 0.000000 0.000000 0.000000 0.000000 0.000000 0.021556
#
#
# Mechanical properties :
#
#
# Convention : Reuss Voigt Hill
#
# Bulk Modulus (GPa) = 39.59755 55.45862 47.52808
# Shear Modulus (GPa) = 85.69627 30.63692 58.16660
#
# Velocity S-wave (km/s) = 5.78656 3.45989 4.76734
# Velocity P-wave (km/s) = 7.75357 6.13438 6.99101
#
# Compressibility (1/GPa) = 0.02525409
#
# Stress axis : x y z
#
# Youngs Moduli (GPa) = 124.01233 111.53551 39.80685
#
# Poissons Ratio (x) = 0.22724 0.18743
# Poissons Ratio (y) = 0.25266 0.06777
# Poissons Ratio (z) = 0.58392 0.18987
#
# Static dielectric constant tensor:
#      x y z
#    x 2.205540 0.000000 0.000000 
#    y 0.000000 1.994410 0.000000 
#    z 0.000000 0.000000 1.960820 
# 
# From -- ./inp_files/2122.got.cif
#   From: 2010.05.17/outbox.cif.g08.bks.cpg/sg56_2_cif.got.tgz:2122.got - 2010.06.03 13:42:01.
