data_PCOD9432555
_publ_section_title
;
Structure prediction by ZEFSAII (Michael W. Deem and Ramdas Pophale) SiO2 
 PCOD9432555
Probable space group: P C C N
;
_chemical_formula_sum "Si O2"
_cell_formula_units_Z 60
_cell_length_a 12.098447
_cell_length_b 11.156563
_cell_length_c 17.991140
_cell_angle_alpha 90.000000
_cell_angle_beta 90.000000
_cell_angle_gamma 90.000000
_cell_volume 2428.391654
_symmetry_space_group_name_H-M "P C C N"
_symmetry_group_IT_number 56
_symmetry_cell_setting 'orthorhombic'
loop_
_space_group_symop_operation_xyz
x,y,z
1/2-x,1/2-y,z
1/2+x,-y,1/2-z
-x,1/2+y,1/2-z
-x,-y,-z
1/2+x,1/2+y,-z
1/2-x,y,1/2+z
x,1/2-y,1/2+z
loop_
_atom_site_type_symbol
_atom_site_label
_atom_site_fract_x
_atom_site_fract_y
_atom_site_fract_z
Si Si1 0.475673 0.351551 0.608487
Si Si2 0.863185 0.686828 0.510084
Si Si3 0.981093 0.341533 0.736050
Si Si4 0.686360 0.512027 0.734459
Si Si5 0.743616 0.502416 0.399830
Si Si6 0.290390 0.618230 0.454230
Si Si7 0.626344 0.543546 0.138531
Si Si8 0.750000 0.250000 0.747752
O O1 0.440108 0.271652 0.537976
O O2 0.484759 0.269714 0.682835
O O3 0.375057 0.441395 0.619620
O O4 0.589106 0.408636 0.578917
O O5 0.750000 0.750000 0.537523
O O6 0.817473 0.594879 0.447742
O O7 0.926364 0.639163 0.583246
O O8 0.948061 0.445875 0.677768
O O9 0.868594 0.299801 0.778529
O O10 0.078273 0.407999 0.781059
O O11 0.694773 0.487644 0.822383
O O12 0.790298 0.586278 0.702636
O O13 0.707203 0.373417 0.708045
O O14 0.718711 0.396050 0.456904
O O15 0.250000 0.750000 0.433663
O O16 0.205577 0.523726 0.419941
#
# Coordination Sequence:
#
# PCOD9432555 Si02
#       8
#     8   8   8   8   8   8   8   4
#     4  11  20  39  69  95 129 177 231 282 357 411
#     4   9  20  41  60  91 131 165 216 289 332 411
#     4  11  22  42  70  98 132 193 225 285 359 421
#     4  11  24  44  67  97 136 186 229 293 356 420
#     4  10  23  40  63  97 132 170 236 290 336 424
#     4  11  22  39  67  94 131 183 222 285 357 416
#     4  10  23  42  61  91 137 172 228 278 347 421
#     4  10  26  46  64 102 152 174 240 294 344 432
#
# _framework density 24.707709999999999
#
# number of rings (size 3 to 8) (size 9 to 14) (size 15 to 20)
#    0.000    1.600    2.667    2.000    1.867    5.867 
#    4.800    0.000    0.000    0.000    0.000    0.000 
#    0.000    0.000    0.000    0.000    0.000    0.000 
#
# Total GULP energy -334765.618985 kJ/mol
# GULP energy per Si atom -5579.426983 kJ/mol
# Density = 2.465147 g / cm^3
# Si number density = 24.707710 Si / 1000 Ang^3
#
#
#
# Elastic Constant Matrix: (Units=GPa)
#
#
# Indices 1 2 3 4 5 6 
#
# 1 91.2463 16.4927 14.5868 0.0000 0.0000 0.0000
# 2 16.4927 49.2704 16.6039 0.0000 0.0000 0.0000
# 3 14.5868 16.6039 87.5712 0.0000 0.0000 0.0000
# 4 0.0000 0.0000 0.0000 38.1562 0.0000 0.0000
# 5 0.0000 0.0000 0.0000 0.0000 30.5504 0.0000
# 6 0.0000 0.0000 0.0000 0.0000 0.0000 31.1644
#
#
#
# Elastic Compliance Matrix: (Units=1/GPa)
#
#
# Indices 1 2 3 4 5 6 
#
# 1 0.011802 -0.003513 -0.001300 0.000000 0.000000 0.000000
# 2 -0.003513 0.022727 -0.003724 0.000000 0.000000 0.000000
# 3 -0.001300 -0.003724 0.012342 0.000000 0.000000 0.000000
# 4 0.000000 0.000000 0.000000 0.026208 0.000000 0.000000
# 5 0.000000 0.000000 0.000000 0.000000 0.032733 0.000000
# 6 0.000000 0.000000 0.000000 0.000000 0.000000 0.032088
#
#
# Mechanical properties :
#
#
# Convention : Reuss Voigt Hill
#
# Bulk Modulus (GPa) = 33.55940 35.93943 34.74942
# Shear Modulus (GPa) = 30.32043 32.00114 31.16078
#
# Velocity S-wave (km/s) = 3.50689 3.60278 3.55516
# Velocity P-wave (km/s) = 5.47812 5.64660 5.56300
#
# Compressibility (1/GPa) = 0.02979791
#
# Stress axis : x y z
#
# Youngs Moduli (GPa) = 84.73107 44.00067 81.02481
#
# Poissons Ratio (x) = 0.15455 0.10532
# Poissons Ratio (y) = 0.29762 0.30174
# Poissons Ratio (z) = 0.11014 0.16386
#
# Static dielectric constant tensor:
#      x y z
#    x 1.984700 0.000000 0.000000 
#    y 0.000000 2.077590 0.000000 
#    z 0.000000 0.000000 1.995590 
# 
# From -- ./inp_files/18813.got.cif
#   From: 2010.05.17/outbox.cif.g08.bks.cpg/sg56_10_cif.got.tgz:18813.got - 2010.06.03 13:42:01.
