data_PCOD9432201
_publ_section_title
;
Structure prediction by ZEFSAII (Michael W. Deem and Ramdas Pophale) SiO2 
 PCOD9432201
Probable space group: P C C N
;
_chemical_formula_sum "Si O2"
_cell_formula_units_Z 40
_cell_length_a 8.418246
_cell_length_b 8.325498
_cell_length_c 24.197387
_cell_angle_alpha 90.000000
_cell_angle_beta 90.000000
_cell_angle_gamma 90.000000
_cell_volume 1695.900249
_symmetry_space_group_name_H-M "P C C N"
_symmetry_group_IT_number 56
_symmetry_cell_setting 'orthorhombic'
loop_
_space_group_symop_operation_xyz
x,y,z
1/2-x,1/2-y,z
1/2+x,-y,1/2-z
-x,1/2+y,1/2-z
-x,-y,-z
1/2+x,1/2+y,-z
1/2-x,y,1/2+z
x,1/2-y,1/2+z
loop_
_atom_site_type_symbol
_atom_site_label
_atom_site_fract_x
_atom_site_fract_y
_atom_site_fract_z
Si Si1 0.509042 0.625522 0.714650
Si Si2 0.389949 0.919444 0.420467
Si Si3 0.276384 0.930095 0.541494
Si Si4 0.359064 0.454215 0.806846
Si Si5 0.596097 0.638524 0.375570
O O1 0.427884 0.604309 0.773790
O O2 0.694389 0.587320 0.721798
O O3 0.512378 0.810392 0.695947
O O4 0.439657 0.493779 0.671738
O O5 0.283831 0.923562 0.475113
O O6 0.448927 0.751522 0.393560
O O7 0.554406 0.004493 0.438191
O O8 0.317622 0.017458 0.370189
O O9 0.250000 0.750000 0.561885
O O10 0.147359 0.045183 0.568688
O O11 0.750000 0.750000 0.360324
#
# Coordination Sequence:
#
# PCOD9432201 Si02
#       5
#     8   8   8   8   8
#     4  11  26  45  74 102 140 180 228 287 346 418
#     4  10  23  43  64 100 137 175 229 281 338 409
#     4  10  22  41  67  94 134 180 226 277 340 402
#     4  11  26  46  69 106 138 181 229 284 348 410
#     4  10  23  43  70  97 135 179 226 283 340 407
#
# _framework density 23.586290999999999
#
# number of rings (size 3 to 8) (size 9 to 14) (size 15 to 20)
#    0.000    1.600    0.000    2.400   11.200    3.200 
#   18.000    0.000    0.000    0.000    0.000    0.000 
#    0.000    0.000    0.000    0.000    0.000    0.000 
#
# Total GULP energy -223766.494565 kJ/mol
# GULP energy per Si atom -5594.162364 kJ/mol
# Density = 2.353261 g / cm^3
# Si number density = 23.586291 Si / 1000 Ang^3
#
#
#
# Elastic Constant Matrix: (Units=GPa)
#
#
# Indices 1 2 3 4 5 6 
#
# 1 33.3304 12.5211 25.8080 0.0000 0.0000 0.0000
# 2 12.5211 94.4984 22.5390 0.0000 0.0000 0.0000
# 3 25.8080 22.5390 116.2822 0.0000 0.0000 0.0000
# 4 0.0000 0.0000 0.0000 35.4724 0.0000 0.0000
# 5 0.0000 0.0000 0.0000 0.0000 23.7113 0.0000
# 6 0.0000 0.0000 0.0000 0.0000 0.0000 32.1371
#
#
#
# Elastic Compliance Matrix: (Units=1/GPa)
#
#
# Indices 1 2 3 4 5 6 
#
# 1 0.037071 -0.003092 -0.007628 0.000000 0.000000 0.000000
# 2 -0.003092 0.011353 -0.001514 0.000000 0.000000 0.000000
# 3 -0.007628 -0.001514 0.010586 0.000000 0.000000 0.000000
# 4 0.000000 0.000000 0.000000 0.028191 0.000000 0.000000
# 5 0.000000 0.000000 0.000000 0.000000 0.042174 0.000000
# 6 0.000000 0.000000 0.000000 0.000000 0.000000 0.031117
#
#
# Mechanical properties :
#
#
# Convention : Reuss Voigt Hill
#
# Bulk Modulus (GPa) = 28.95152 40.64969 34.80061
# Shear Modulus (GPa) = 25.44849 30.48037 27.96443
#
# Velocity S-wave (km/s) = 3.28831 3.59875 3.44702
# Velocity P-wave (km/s) = 5.16901 5.87706 5.53437
#
# Compressibility (1/GPa) = 0.03454050
#
# Stress axis : x y z
#
# Youngs Moduli (GPa) = 26.97530 88.08167 94.46175
#
# Poissons Ratio (x) = 0.27239 0.72057
# Poissons Ratio (y) = 0.08342 0.14304
# Poissons Ratio (z) = 0.20577 0.13337
#
# Static dielectric constant tensor:
#      x y z
#    x 1.871770 0.000000 0.000000 
#    y 0.000000 1.951160 0.000000 
#    z 0.000000 0.000000 1.847230 
# 
# From -- ./inp_files/20332.got.cif
#   From: 2010.05.17/outbox.cif.g08.bks.cpg/sg56_11_cif.got.tgz:20332.got - 2010.06.03 13:42:01.
