data_PCOD9432601
_publ_section_title
;
Structure prediction by ZEFSAII (Michael W. Deem and Ramdas Pophale) SiO2 
 PCOD9432601
Probable space group: P C C N
;
_chemical_formula_sum "Si O2"
_cell_formula_units_Z 40
_cell_length_a 19.136210
_cell_length_b 8.797710
_cell_length_c 9.753468
_cell_angle_alpha 90.000000
_cell_angle_beta 90.000000
_cell_angle_gamma 90.000000
_cell_volume 1642.043409
_symmetry_space_group_name_H-M "P C C N"
_symmetry_group_IT_number 56
_symmetry_cell_setting 'orthorhombic'
loop_
_space_group_symop_operation_xyz
x,y,z
1/2-x,1/2-y,z
1/2+x,-y,1/2-z
-x,1/2+y,1/2-z
-x,-y,-z
1/2+x,1/2+y,-z
1/2-x,y,1/2+z
x,1/2-y,1/2+z
loop_
_atom_site_type_symbol
_atom_site_label
_atom_site_fract_x
_atom_site_fract_y
_atom_site_fract_z
Si Si1 0.198959 0.607909 0.828413
Si Si2 0.017691 0.126367 0.387344
Si Si3 0.937719 0.071133 0.844593
Si Si4 0.276912 0.443701 0.586688
Si Si5 0.139716 0.310107 0.501498
O O1 0.250000 0.750000 0.823662
O O2 0.123586 0.623792 0.758945
O O3 0.237580 0.493681 0.722043
O O4 0.189225 0.569645 0.989088
O O5 0.095617 0.201646 0.400722
O O6 0.970085 0.274905 0.400633
O O7 0.011197 0.035363 0.245396
O O8 0.000000 0.000000 0.500000
O O9 0.906724 0.952274 0.953468
O O10 0.215556 0.385785 0.481987
O O11 0.334723 0.315179 0.614481
#
# Coordination Sequence:
#
# PCOD9432601 Si02
#       5
#     8   8   8   8   8
#     4  11  24  41  69 107 147 184 252 310 378 433
#     4  12  26  45  72 100 147 192 245 299 369 441
#     4  11  26  45  68 106 141 194 245 305 365 446
#     4  10  23  41  72 103 140 196 239 314 370 442
#     4  10  23  43  69  99 143 184 248 288 374 430
#
# _framework density 24.359891999999999
#
# number of rings (size 3 to 8) (size 9 to 14) (size 15 to 20)
#    0.000    1.200    2.000    2.400    5.600    6.400 
#    0.000    0.000    0.000    0.000    0.000    0.000 
#    0.000    0.000    0.000    0.000    0.000    0.000 
#
# Total GULP energy -223076.334940 kJ/mol
# GULP energy per Si atom -5576.908373 kJ/mol
# Density = 2.430445 g / cm^3
# Si number density = 24.359892 Si / 1000 Ang^3
#
#
#
# Elastic Constant Matrix: (Units=GPa)
#
#
# Indices 1 2 3 4 5 6 
#
# 1 46.9964 50.2955 21.4379 0.0000 0.0000 0.0000
# 2 50.2955 158.7337 37.6467 0.0000 0.0000 0.0000
# 3 21.4379 37.6467 72.9207 0.0000 0.0000 0.0000
# 4 0.0000 0.0000 0.0000 26.7325 0.0000 0.0000
# 5 0.0000 0.0000 0.0000 0.0000 18.8356 0.0000
# 6 0.0000 0.0000 0.0000 0.0000 0.0000 61.9156
#
#
#
# Elastic Compliance Matrix: (Units=1/GPa)
#
#
# Indices 1 2 3 4 5 6 
#
# 1 0.033730 -0.009499 -0.005012 0.000000 0.000000 0.000000
# 2 -0.009499 0.009854 -0.002295 0.000000 0.000000 0.000000
# 3 -0.005012 -0.002295 0.016372 0.000000 0.000000 0.000000
# 4 0.000000 0.000000 0.000000 0.037408 0.000000 0.000000
# 5 0.000000 0.000000 0.000000 0.000000 0.053091 0.000000
# 6 0.000000 0.000000 0.000000 0.000000 0.000000 0.016151
#
#
# Mechanical properties :
#
#
# Convention : Reuss Voigt Hill
#
# Bulk Modulus (GPa) = 37.95908 55.26788 46.61348
# Shear Modulus (GPa) = 23.92359 32.78145 28.35252
#
# Velocity S-wave (km/s) = 3.13723 3.67238 3.41530
# Velocity P-wave (km/s) = 5.36091 6.38115 5.89315
#
# Compressibility (1/GPa) = 0.02634416
#
# Stress axis : x y z
#
# Youngs Moduli (GPa) = 29.64690 101.48332 61.08070
#
# Poissons Ratio (x) = 0.96397 0.30616
# Poissons Ratio (y) = 0.28161 0.14016
# Poissons Ratio (z) = 0.14860 0.23287
#
# Static dielectric constant tensor:
#      x y z
#    x 1.986200 0.000000 0.000000 
#    y 0.000000 2.003730 0.000000 
#    z 0.000000 0.000000 1.932310 
# 
# From -- ./inp_files/6195.got.cif
#   From: 2010.05.17/outbox.cif.g08.bks.cpg/sg56_4_cif.got.tgz:6195.got - 2010.06.03 13:42:01.
