data_PCOD9432378
_publ_section_title
;
Structure prediction by ZEFSAII (Michael W. Deem and Ramdas Pophale) SiO2 
 PCOD9432378
Probable space group: P C C N
;
_chemical_formula_sum "Si O2"
_cell_formula_units_Z 32
_cell_length_a 5.192611
_cell_length_b 14.313509
_cell_length_c 17.042198
_cell_angle_alpha 90.000000
_cell_angle_beta 90.000000
_cell_angle_gamma 90.000000
_cell_volume 1266.652577
_symmetry_space_group_name_H-M "P C C N"
_symmetry_group_IT_number 56
_symmetry_cell_setting 'orthorhombic'
loop_
_space_group_symop_operation_xyz
x,y,z
1/2-x,1/2-y,z
1/2+x,-y,1/2-z
-x,1/2+y,1/2-z
-x,-y,-z
1/2+x,1/2+y,-z
1/2-x,y,1/2+z
x,1/2-y,1/2+z
loop_
_atom_site_type_symbol
_atom_site_label
_atom_site_fract_x
_atom_site_fract_y
_atom_site_fract_z
Si Si1 0.425881 0.171677 0.138054
Si Si2 0.006159 0.697025 0.039307
Si Si3 0.826876 0.444451 0.263022
Si Si4 0.694301 0.019191 0.428063
O O1 0.250000 0.250000 0.176903
O O2 0.635192 0.136417 0.199587
O O3 0.270048 0.080316 0.108643
O O4 0.512467 0.211638 0.054737
O O5 0.250000 0.750000 0.073858
O O6 0.064572 0.586461 0.049832
O O7 0.750000 0.750000 0.066506
O O8 0.029255 0.524593 0.235124
O O9 0.922454 0.428277 0.351894
O O10 0.500000 0.000000 0.500000
#
# Coordination Sequence:
#
# PCOD9432378 Si02
#       4
#     8   8   8   8
#     4  10  22  43  70  99 137 183 232 289 357 430
#     4  11  24  42  67 102 140 182 235 295 361 429
#     4  10  23  42  65  96 134 181 233 286 353 430
#     4  11  22  43  73 103 142 188 240 302 366 439
#
# _framework density 25.263439000000002
#
# number of rings (size 3 to 8) (size 9 to 14) (size 15 to 20)
#    0.000    1.500    0.000    5.250    0.000   10.000 
#    0.000   16.250    0.000    1.500    0.000    0.000 
#    0.000    0.000    0.000    0.000    0.000    0.000 
#
# Total GULP energy -178673.662554 kJ/mol
# GULP energy per Si atom -5583.551955 kJ/mol
# Density = 2.520594 g / cm^3
# Si number density = 25.263439 Si / 1000 Ang^3
#
#
#
# Elastic Constant Matrix: (Units=GPa)
#
#
# Indices 1 2 3 4 5 6 
#
# 1 132.9464 70.4134 17.4708 0.0000 0.0000 0.0000
# 2 70.4134 128.8519 -17.7827 0.0000 0.0000 0.0000
# 3 17.4708 -17.7827 89.0118 0.0000 0.0000 0.0000
# 4 0.0000 0.0000 0.0000 25.2321 0.0000 0.0000
# 5 0.0000 0.0000 0.0000 0.0000 33.9428 0.0000
# 6 0.0000 0.0000 0.0000 0.0000 0.0000 42.0961
#
#
#
# Elastic Compliance Matrix: (Units=1/GPa)
#
#
# Indices 1 2 3 4 5 6 
#
# 1 0.011638 -0.006864 -0.003655 0.000000 0.000000 0.000000
# 2 -0.006864 0.012029 0.003750 0.000000 0.000000 0.000000
# 3 -0.003655 0.003750 0.012701 0.000000 0.000000 0.000000
# 4 0.000000 0.000000 0.000000 0.039632 0.000000 0.000000
# 5 0.000000 0.000000 0.000000 0.000000 0.029461 0.000000
# 6 0.000000 0.000000 0.000000 0.000000 0.000000 0.023755
#
#
# Mechanical properties :
#
#
# Convention : Reuss Voigt Hill
#
# Bulk Modulus (GPa) = 43.80175 54.55701 49.17938
# Shear Modulus (GPa) = 33.25238 38.96811 36.11024
#
# Velocity S-wave (km/s) = 3.63192 3.93169 3.78477
# Velocity P-wave (km/s) = 5.91299 6.50023 6.21355
#
# Compressibility (1/GPa) = 0.02283014
#
# Stress axis : x y z
#
# Youngs Moduli (GPa) = 85.92769 83.12927 78.73257
#
# Poissons Ratio (x) = 0.57061 0.28781
# Poissons Ratio (y) = 0.58982 -0.29529
# Poissons Ratio (z) = 0.31411 -0.31178
#
# Static dielectric constant tensor:
#      x y z
#    x 2.106600 0.000000 0.000000 
#    y 0.000000 2.060840 0.000000 
#    z 0.000000 0.000000 2.027270 
# 
# From -- ./inp_files/13682.got.cif
#   From: 2010.05.17/outbox.cif.g08.bks.cpg/sg56_7_cif.got.tgz:13682.got - 2010.06.03 13:42:01.
