data_PCOD9432879
_publ_section_title
;
Structure prediction by ZEFSAII (Michael W. Deem and Ramdas Pophale) SiO2 
 PCOD9432879
Probable space group: P C C N
;
_chemical_formula_sum "Si O2"
_cell_formula_units_Z 44
_cell_length_a 8.909962
_cell_length_b 24.170088
_cell_length_c 8.409221
_cell_angle_alpha 90.000000
_cell_angle_beta 90.000000
_cell_angle_gamma 90.000000
_cell_volume 1810.964136
_symmetry_space_group_name_H-M "P C C N"
_symmetry_group_IT_number 56
_symmetry_cell_setting 'orthorhombic'
loop_
_space_group_symop_operation_xyz
x,y,z
1/2-x,1/2-y,z
1/2+x,-y,1/2-z
-x,1/2+y,1/2-z
-x,-y,-z
1/2+x,1/2+y,-z
1/2-x,y,1/2+z
x,1/2-y,1/2+z
loop_
_atom_site_type_symbol
_atom_site_label
_atom_site_fract_x
_atom_site_fract_y
_atom_site_fract_z
Si Si1 0.972709 0.219546 0.775112
Si Si2 0.543018 0.849112 0.238574
Si Si3 0.951781 0.037544 0.744345
Si Si4 0.639664 0.437822 0.388088
Si Si5 0.839933 0.874416 0.091871
Si Si6 0.250000 0.750000 0.974775
O O1 0.863945 0.213215 0.626155
O O2 0.859319 0.213013 0.921457
O O3 0.027641 0.283007 0.771789
O O4 0.104836 0.177366 0.800783
O O5 0.387502 0.878787 0.194942
O O6 0.661790 0.872491 0.110042
O O7 0.604047 0.865643 0.412442
O O8 0.898308 0.062356 0.574733
O O9 0.805912 0.038909 0.856526
O O10 0.081280 0.072874 0.829921
O O11 0.022064 0.978528 0.700445
#
# Coordination Sequence:
#
# PCOD9432879 Si02
#       6
#     8   8   8   8   8   4
#     4  11  25  42  68  98 138 176 222 272 336 396
#     4  12  27  44  69  99 137 179 224 277 335 397
#     4  11  26  46  72 101 135 176 223 276 334 396
#     4  11  26  46  72 101 135 176 223 276 334 396
#     4  12  27  44  69  99 137 179 224 277 335 397
#     4  10  24  42  66  98 140 170 226 274 328 396
#
# _framework density 24.29645
#
# number of rings (size 3 to 8) (size 9 to 14) (size 15 to 20)
#    0.000    0.727    1.818    3.818   10.182    7.273 
#    0.000    0.000    0.000    0.000    0.000    0.000 
#    0.000    0.000    0.000    0.000    0.000    0.000 
#
# Total GULP energy -246610.374162 kJ/mol
# GULP energy per Si atom -5604.781231 kJ/mol
# Density = 2.424115 g / cm^3
# Si number density = 24.296450 Si / 1000 Ang^3
#
#
#
# Elastic Constant Matrix: (Units=GPa)
#
#
# Indices 1 2 3 4 5 6 
#
# 1 88.8979 0.7347 0.2416 0.0000 0.0000 0.0000
# 2 0.7347 76.5259 6.6749 0.0000 0.0000 0.0000
# 3 0.2416 6.6749 93.8139 0.0000 0.0000 0.0000
# 4 0.0000 0.0000 0.0000 16.9874 0.0000 0.0000
# 5 0.0000 0.0000 0.0000 0.0000 -179.6421 0.0000
# 6 0.0000 0.0000 0.0000 0.0000 0.0000 41.6683
#
#
#
# Elastic Compliance Matrix: (Units=1/GPa)
#
#
# Indices 1 2 3 4 5 6 
#
# 1 0.011250 -0.000106 -0.000021 0.000000 0.000000 0.000000
# 2 -0.000106 0.013150 -0.000935 0.000000 0.000000 0.000000
# 3 -0.000021 -0.000935 0.010726 0.000000 0.000000 0.000000
# 4 0.000000 0.000000 0.000000 0.058867 0.000000 0.000000
# 5 0.000000 0.000000 0.000000 0.000000 -0.005567 0.000000
# 6 0.000000 0.000000 0.000000 0.000000 0.000000 0.023999
#
#
# Mechanical properties :
#
#
# Convention : Reuss Voigt Hill
#
# Bulk Modulus (GPa) = 30.30300 30.50446 30.40373
# Shear Modulus (GPa) = 39.82434 -7.42485 16.19974
#
# Velocity S-wave (km/s) = 4.05297 -1.75002 2.58496
# Velocity P-wave (km/s) = 5.86527 2.91529 4.63143
#
# Compressibility (1/GPa) = 0.03300004
#
# Stress axis : x y z
#
# Youngs Moduli (GPa) = 88.89055 76.04519 93.23131
#
# Poissons Ratio (x) = 0.00807 0.00200
# Poissons Ratio (y) = 0.00944 0.08720
# Poissons Ratio (z) = 0.00190 0.07113
#
# Static dielectric constant tensor:
#      x y z
#    x 2.046480 0.000000 0.000000 
#    y 0.000000 1.919620 0.000000 
#    z 0.000000 0.000000 1.950070 
# 
# From -- ./inp_files/2181.got.cif
#   From: 2010.05.17/outbox.cif.g08.bks.cpg/sg56_2_cif.got.tgz:2181.got - 2010.06.03 13:42:01.
