data_PCOD9432873
_publ_section_title
;
Structure prediction by ZEFSAII (Michael W. Deem and Ramdas Pophale) SiO2 
 PCOD9432873
Probable space group: P C C N
;
_chemical_formula_sum "Si O2"
_cell_formula_units_Z 36
_cell_length_a 18.178037
_cell_length_b 11.201412
_cell_length_c 8.634421
_cell_angle_alpha 90.000000
_cell_angle_beta 90.000000
_cell_angle_gamma 90.000000
_cell_volume 1758.138056
_symmetry_space_group_name_H-M "P C C N"
_symmetry_group_IT_number 56
_symmetry_cell_setting 'orthorhombic'
loop_
_space_group_symop_operation_xyz
x,y,z
1/2-x,1/2-y,z
1/2+x,-y,1/2-z
-x,1/2+y,1/2-z
-x,-y,-z
1/2+x,1/2+y,-z
1/2-x,y,1/2+z
x,1/2-y,1/2+z
loop_
_atom_site_type_symbol
_atom_site_label
_atom_site_fract_x
_atom_site_fract_y
_atom_site_fract_z
Si Si1 0.324729 0.604326 0.214524
Si Si2 0.250000 0.750000 0.959823
Si Si3 0.183463 0.154263 0.330403
Si Si4 0.992137 0.384409 0.393083
Si Si5 0.078477 0.298272 0.104572
O O1 0.313088 0.700771 0.349226
O O2 0.295870 0.476954 0.273476
O O3 0.408741 0.611509 0.163632
O O4 0.277219 0.644706 0.068591
O O5 0.250000 0.250000 0.349311
O O6 0.127852 0.204611 0.200546
O O7 0.135718 0.141446 0.486738
O O8 0.041563 0.379889 0.236641
O O9 0.018751 0.272271 0.498981
O O10 0.000000 0.500000 0.500000
#
# Coordination Sequence:
#
# PCOD9432873 Si02
#       5
#     8   4   8   8   8
#     4  11  24  46  67  96 137 177 231 283 335 416
#     4  10  26  44  66  96 128 188 228 272 346 400
#     4  11  24  41  68 103 135 180 223 289 344 405
#     4  11  22  45  68  97 133 176 222 281 338 404
#     4  10  24  42  66 101 134 176 231 270 357 403
#
# _framework density 20.476206999999999
#
# number of rings (size 3 to 8) (size 9 to 14) (size 15 to 20)
#    0.000    1.333    2.222    2.000    6.222    0.889 
#    8.000    0.000    0.000    0.000    0.000    0.000 
#    0.000    0.000    0.000    0.000    0.000    0.000 
#
# Total GULP energy -201048.641742 kJ/mol
# GULP energy per Si atom -5584.684493 kJ/mol
# Density = 2.042960 g / cm^3
# Si number density = 20.476207 Si / 1000 Ang^3
#
#
#
# Elastic Constant Matrix: (Units=GPa)
#
#
# Indices 1 2 3 4 5 6 
#
# 1 103.1610 54.6437 66.8181 0.0000 0.0000 0.0000
# 2 54.6437 104.7210 65.2913 0.0000 0.0000 0.0000
# 3 66.8181 65.2913 163.5070 0.0000 0.0000 0.0000
# 4 0.0000 0.0000 0.0000 14.2656 0.0000 0.0000
# 5 0.0000 0.0000 0.0000 0.0000 -7.9493 0.0000
# 6 0.0000 0.0000 0.0000 0.0000 0.0000 18.9185
#
#
#
# Elastic Compliance Matrix: (Units=1/GPa)
#
#
# Indices 1 2 3 4 5 6 
#
# 1 0.015171 -0.005394 -0.004046 0.000000 0.000000 0.000000
# 2 -0.005394 0.014632 -0.003639 0.000000 0.000000 0.000000
# 3 -0.004046 -0.003639 0.009222 0.000000 0.000000 0.000000
# 4 0.000000 0.000000 0.000000 0.070099 0.000000 0.000000
# 5 0.000000 0.000000 0.000000 0.000000 -0.125797 0.000000
# 6 0.000000 0.000000 0.000000 0.000000 0.000000 0.052858
#
#
# Mechanical properties :
#
#
# Convention : Reuss Voigt Hill
#
# Bulk Modulus (GPa) = 77.70666 82.76614 80.23640
# Shear Modulus (GPa) = 75.03849 17.35603 46.19726
#
# Velocity S-wave (km/s) = 6.06022 2.91455 4.75504
# Velocity P-wave (km/s) = 9.32740 7.19962 8.33171
#
# Compressibility (1/GPa) = 0.01286891
#
# Stress axis : x y z
#
# Youngs Moduli (GPa) = 65.91409 68.34156 108.43192
#
# Poissons Ratio (x) = 0.36862 0.43871
# Poissons Ratio (y) = 0.35553 0.39456
# Poissons Ratio (z) = 0.26669 0.24868
#
# Static dielectric constant tensor:
#      x y z
#    x 1.677990 0.000000 0.000000 
#    y 0.000000 1.676420 0.000000 
#    z 0.000000 0.000000 1.741080 
# 
# From -- ./inp_files/4333.got.cif
#   From: 2010.05.17/outbox.cif.g08.bks.cpg/sg56_3_cif.got.tgz:4333.got - 2010.06.03 13:42:01.
