data_PCOD9432724
_publ_section_title
;
Structure prediction by ZEFSAII (Michael W. Deem and Ramdas Pophale) SiO2 
 PCOD9432724
Probable space group: P C C N
;
_chemical_formula_sum "Si O2"
_cell_formula_units_Z 32
_cell_length_a 13.275621
_cell_length_b 4.847445
_cell_length_c 19.145837
_cell_angle_alpha 90.000000
_cell_angle_beta 90.000000
_cell_angle_gamma 90.000000
_cell_volume 1232.089036
_symmetry_space_group_name_H-M "P C C N"
_symmetry_group_IT_number 56
_symmetry_cell_setting 'orthorhombic'
loop_
_space_group_symop_operation_xyz
x,y,z
1/2-x,1/2-y,z
1/2+x,-y,1/2-z
-x,1/2+y,1/2-z
-x,-y,-z
1/2+x,1/2+y,-z
1/2-x,y,1/2+z
x,1/2-y,1/2+z
loop_
_atom_site_type_symbol
_atom_site_label
_atom_site_fract_x
_atom_site_fract_y
_atom_site_fract_z
Si Si1 0.629814 0.713261 0.600988
Si Si2 0.530456 0.295614 0.174436
Si Si3 0.822706 0.499362 0.956287
Si Si4 0.631141 0.277651 0.816945
O O1 0.750000 0.750000 0.611755
O O2 0.579602 0.002868 0.617053
O O3 0.616056 0.612010 0.521706
O O4 0.920474 0.005059 0.653154
O O5 0.575638 0.359237 0.251237
O O6 0.416332 0.415957 0.176877
O O7 0.750000 0.750000 0.933470
O O8 0.750000 0.250000 0.980993
O O9 0.882761 0.375263 0.891275
O O10 0.750000 0.250000 0.804397
#
# Coordination Sequence:
#
# PCOD9432724 Si02
#       4
#     8   8   8   8
#     4  11  23  45  73 108 148 190 249 313 375 456
#     4  12  26  44  75 108 143 202 257 308 387 453
#     4  10  23  44  72 105 147 198 245 309 393 457
#     4  11  27  49  73 107 154 197 254 324 386 462
#
# _framework density 25.972149000000002
#
# number of rings (size 3 to 8) (size 9 to 14) (size 15 to 20)
#    0.000    1.000    0.000    6.750    0.000   15.000 
#    0.000    0.000    0.000    0.000    0.000    0.000 
#    0.000    0.000    0.000    0.000    0.000    0.000 
#
# Total GULP energy -179276.140192 kJ/mol
# GULP energy per Si atom -5602.379381 kJ/mol
# Density = 2.591304 g / cm^3
# Si number density = 25.972149 Si / 1000 Ang^3
#
#
#
# Elastic Constant Matrix: (Units=GPa)
#
#
# Indices 1 2 3 4 5 6 
#
# 1 179.4644 25.1731 43.6076 0.0000 0.0000 0.0000
# 2 25.1731 93.5759 5.8176 0.0000 0.0000 0.0000
# 3 43.6076 5.8176 180.2299 0.0000 0.0000 0.0000
# 4 0.0000 0.0000 0.0000 49.5088 0.0000 0.0000
# 5 0.0000 0.0000 0.0000 0.0000 45.2517 0.0000
# 6 0.0000 0.0000 0.0000 0.0000 0.0000 56.5666
#
#
#
# Elastic Compliance Matrix: (Units=1/GPa)
#
#
# Indices 1 2 3 4 5 6 
#
# 1 0.006140 -0.001563 -0.001435 0.000000 0.000000 0.000000
# 2 -0.001563 0.011106 0.000020 0.000000 0.000000 0.000000
# 3 -0.001435 0.000020 0.005895 0.000000 0.000000 0.000000
# 4 0.000000 0.000000 0.000000 0.020198 0.000000 0.000000
# 5 0.000000 0.000000 0.000000 0.000000 0.022099 0.000000
# 6 0.000000 0.000000 0.000000 0.000000 0.000000 0.017678
#
#
# Mechanical properties :
#
#
# Convention : Reuss Voigt Hill
#
# Bulk Modulus (GPa) = 58.19190 66.94077 62.56634
# Shear Modulus (GPa) = 52.74232 55.51019 54.12625
#
# Velocity S-wave (km/s) = 4.51125 4.62811 4.57005
# Velocity P-wave (km/s) = 7.04196 7.37490 7.21035
#
# Compressibility (1/GPa) = 0.01718452
#
# Stress axis : x y z
#
# Youngs Moduli (GPa) = 162.86548 90.04438 169.63281
#
# Poissons Ratio (x) = 0.14070 0.24345
# Poissons Ratio (y) = 0.25448 -0.00332
# Poissons Ratio (z) = 0.23374 -0.00176
#
# Static dielectric constant tensor:
#      x y z
#    x 2.103120 0.000000 0.000000 
#    y 0.000000 2.211410 0.000000 
#    z 0.000000 0.000000 2.017930 
# 
# From -- ./inp_files/13707.got.cif
#   From: 2010.05.17/outbox.cif.g08.bks.cpg/sg56_7_cif.got.tgz:13707.got - 2010.06.03 13:42:01.
