data_PCOD9432340
_publ_section_title
;
Structure prediction by ZEFSAII (Michael W. Deem and Ramdas Pophale) SiO2 
 PCOD9432340
Probable space group: P C C N
;
_chemical_formula_sum "Si O2"
_cell_formula_units_Z 60
_cell_length_a 9.055350
_cell_length_b 12.882976
_cell_length_c 23.551028
_cell_angle_alpha 90.000000
_cell_angle_beta 90.000000
_cell_angle_gamma 90.000000
_cell_volume 2747.459552
_symmetry_space_group_name_H-M "P C C N"
_symmetry_group_IT_number 56
_symmetry_cell_setting 'orthorhombic'
loop_
_space_group_symop_operation_xyz
x,y,z
1/2-x,1/2-y,z
1/2+x,-y,1/2-z
-x,1/2+y,1/2-z
-x,-y,-z
1/2+x,1/2+y,-z
1/2-x,y,1/2+z
x,1/2-y,1/2+z
loop_
_atom_site_type_symbol
_atom_site_label
_atom_site_fract_x
_atom_site_fract_y
_atom_site_fract_z
Si Si1 0.431856 0.875580 0.086141
Si Si2 0.918068 0.735670 0.677129
Si Si3 0.250000 0.750000 0.994858
Si Si4 0.272804 0.071548 0.602722
Si Si5 0.782276 0.630682 0.018491
Si Si6 0.382777 0.553560 0.929102
Si Si7 0.867020 0.620703 0.274459
Si Si8 0.360521 0.011579 0.309824
O O1 0.477423 0.807679 0.140371
O O2 0.580646 0.913314 0.054780
O O3 0.317204 0.963852 0.104420
O O4 0.364305 0.803811 0.037256
O O5 0.750000 0.750000 0.655397
O O6 0.906352 0.772705 0.742293
O O7 0.951860 0.615093 0.672730
O O8 0.325761 0.658163 0.958825
O O9 0.196099 0.129074 0.549523
O O10 0.443884 0.058581 0.584944
O O11 0.284704 0.123234 0.664882
O O12 0.750000 0.750000 0.033638
O O13 0.653804 0.549208 0.034503
O O14 0.304187 0.538847 0.867886
O O15 0.766882 0.553384 0.231176
O O16 0.023528 0.564562 0.281712
#
# Coordination Sequence:
#
# PCOD9432340 Si02
#       8
#     8   8   4   8   8   8   8   8
#     4  12  25  42  69 105 135 181 228 285 340 424
#     4  10  22  43  69  94 131 181 228 280 344 404
#     4  12  28  44  70 100 146 170 234 274 356 424
#     4  11  25  43  68  98 146 176 231 283 350 406
#     4  12  24  41  67 101 137 181 230 272 348 417
#     4  11  25  47  67  99 139 188 216 285 351 418
#     4  10  22  43  64  98 126 178 227 282 331 403
#     4  10  22  43  68  92 133 175 229 280 344 400
#
# _framework density 21.838355
#
# number of rings (size 3 to 8) (size 9 to 14) (size 15 to 20)
#    0.000    1.067    1.333    5.200    5.600    1.600 
#    4.800    0.000    0.000    0.000    0.000    0.000 
#    0.000    0.000    0.000    0.000    0.000    0.000 
#
# Total GULP energy -335365.036450 kJ/mol
# GULP energy per Si atom -5589.417274 kJ/mol
# Density = 2.178865 g / cm^3
# Si number density = 21.838355 Si / 1000 Ang^3
#
#
#
# Elastic Constant Matrix: (Units=GPa)
#
#
# Indices 1 2 3 4 5 6 
#
# 1 65.0094 32.1025 29.7466 0.0000 0.0000 0.0000
# 2 32.1025 126.6549 45.3966 0.0000 0.0000 0.0000
# 3 29.7466 45.3966 160.2881 0.0000 0.0000 0.0000
# 4 0.0000 0.0000 0.0000 93.5749 0.0000 0.0000
# 5 0.0000 0.0000 0.0000 0.0000 32.3830 0.0000
# 6 0.0000 0.0000 0.0000 0.0000 0.0000 32.0608
#
#
#
# Elastic Compliance Matrix: (Units=1/GPa)
#
#
# Indices 1 2 3 4 5 6 
#
# 1 0.018328 -0.003813 -0.002321 0.000000 0.000000 0.000000
# 2 -0.003813 0.009581 -0.002006 0.000000 0.000000 0.000000
# 3 -0.002321 -0.002006 0.007238 0.000000 0.000000 0.000000
# 4 0.000000 0.000000 0.000000 0.010687 0.000000 0.000000
# 5 0.000000 0.000000 0.000000 0.000000 0.030880 0.000000
# 6 0.000000 0.000000 0.000000 0.000000 0.000000 0.031191
#
#
# Mechanical properties :
#
#
# Convention : Reuss Voigt Hill
#
# Bulk Modulus (GPa) = 53.00735 62.93820 57.97278
# Shear Modulus (GPa) = 38.32200 47.91752 43.11976
#
# Velocity S-wave (km/s) = 4.19358 4.68930 4.44835
# Velocity P-wave (km/s) = 6.91183 7.62902 7.27927
#
# Compressibility (1/GPa) = 0.01886531
#
# Stress axis : x y z
#
# Youngs Moduli (GPa) = 54.56241 104.37356 138.16674
#
# Poissons Ratio (x) = 0.39802 0.32072
# Poissons Ratio (y) = 0.20807 0.27714
# Poissons Ratio (z) = 0.12665 0.20935
#
# Static dielectric constant tensor:
#      x y z
#    x 1.872490 0.000000 0.000000 
#    y 0.000000 2.078580 0.000000 
#    z 0.000000 0.000000 1.840280 
# 
# From -- ./inp_files/20632.got.cif
#   From: 2010.05.17/outbox.cif.g08.bks.cpg/sg56_11_cif.got.tgz:20632.got - 2010.06.03 13:42:01.
