data_PCOD9432748
_publ_section_title
;
Structure prediction by ZEFSAII (Michael W. Deem and Ramdas Pophale) SiO2 
 PCOD9432748
Probable space group: P C C N
;
_chemical_formula_sum "Si O2"
_cell_formula_units_Z 36
_cell_length_a 5.322005
_cell_length_b 10.349377
_cell_length_c 24.875237
_cell_angle_alpha 90.000000
_cell_angle_beta 90.000000
_cell_angle_gamma 90.000000
_cell_volume 1370.114028
_symmetry_space_group_name_H-M "P C C N"
_symmetry_group_IT_number 56
_symmetry_cell_setting 'orthorhombic'
loop_
_space_group_symop_operation_xyz
x,y,z
1/2-x,1/2-y,z
1/2+x,-y,1/2-z
-x,1/2+y,1/2-z
-x,-y,-z
1/2+x,1/2+y,-z
1/2-x,y,1/2+z
x,1/2-y,1/2+z
loop_
_atom_site_type_symbol
_atom_site_label
_atom_site_fract_x
_atom_site_fract_y
_atom_site_fract_z
Si Si1 0.425972 0.116692 0.402339
Si Si2 0.499275 0.838168 0.717038
Si Si3 0.250000 0.750000 0.015803
Si Si4 0.038726 0.574934 0.944829
Si Si5 0.994087 0.663019 0.832549
O O1 0.250000 0.250000 0.405253
O O2 0.486016 0.091330 0.340092
O O3 0.656820 0.144800 0.441763
O O4 0.298874 0.991648 0.426839
O O5 0.750000 0.750000 0.717152
O O6 0.479408 0.909482 0.774862
O O7 0.250000 0.750000 0.714303
O O8 0.037982 0.715852 0.972306
O O9 0.926068 0.582433 0.885658
O O10 0.000000 0.500000 0.000000
O O11 0.250000 0.750000 0.840386
O O12 0.750000 0.750000 0.825501
#
# Coordination Sequence:
#
# PCOD9432748 Si02
#       5
#     8   8   4   8   8
#     4  11  23  43  66 101 133 180 235 286 347 415
#     4   9  19  41  70  97 135 180 231 290 351 412
#     4  12  24  44  66  98 142 184 228 288 344 424
#     4  12  26  42  70 102 139 189 234 288 354 425
#     4  10  23  45  71 101 140 186 235 294 356 425
#
# _framework density 26.275182999999998
#
# number of rings (size 3 to 8) (size 9 to 14) (size 15 to 20)
#    0.000    1.333    4.444    0.667    3.111    1.778 
#    0.000   13.333    0.000    0.000    0.000    0.000 
#    0.000    0.000    0.000    0.000    0.000    0.000 
#
# Total GULP energy -200544.146203 kJ/mol
# GULP energy per Si atom -5570.670728 kJ/mol
# Density = 2.621538 g / cm^3
# Si number density = 26.275183 Si / 1000 Ang^3
#
#
#
# Elastic Constant Matrix: (Units=GPa)
#
#
# Indices 1 2 3 4 5 6 
#
# 1 111.7279 8.6199 51.3124 0.0000 0.0000 0.0000
# 2 8.6199 38.3628 57.5267 0.0000 0.0000 0.0000
# 3 51.3124 57.5267 355.0870 0.0000 0.0000 0.0000
# 4 0.0000 0.0000 0.0000 52.2994 0.0000 0.0000
# 5 0.0000 0.0000 0.0000 0.0000 64.9642 0.0000
# 6 0.0000 0.0000 0.0000 0.0000 0.0000 40.7015
#
#
#
# Elastic Compliance Matrix: (Units=1/GPa)
#
#
# Indices 1 2 3 4 5 6 
#
# 1 0.009587 -0.000101 -0.001369 0.000000 0.000000 0.000000
# 2 -0.000101 0.034433 -0.005564 0.000000 0.000000 0.000000
# 3 -0.001369 -0.005564 0.003915 0.000000 0.000000 0.000000
# 4 0.000000 0.000000 0.000000 0.019121 0.000000 0.000000
# 5 0.000000 0.000000 0.000000 0.000000 0.015393 0.000000
# 6 0.000000 0.000000 0.000000 0.000000 0.000000 0.024569
#
#
# Mechanical properties :
#
#
# Convention : Reuss Voigt Hill
#
# Bulk Modulus (GPa) = 29.52724 82.23286 55.88005
# Shear Modulus (GPa) = 37.77151 57.44092 47.60621
#
# Velocity S-wave (km/s) = 3.79560 4.68068 4.26118
# Velocity P-wave (km/s) = 5.52004 7.78308 6.74712
#
# Compressibility (1/GPa) = 0.03386703
#
# Stress axis : x y z
#
# Youngs Moduli (GPa) = 104.30968 29.04210 255.40191
#
# Poissons Ratio (x) = 0.00294 0.34963
# Poissons Ratio (y) = 0.01057 1.42099
# Poissons Ratio (z) = 0.14279 0.16158
#
# Static dielectric constant tensor:
#      x y z
#    x 2.220750 0.000000 0.000000 
#    y 0.000000 3.123030 0.000000 
#    z 0.000000 0.000000 2.122700 
# 
# From -- ./inp_files/19871.got.cif
#   From: 2010.05.17/outbox.cif.g08.bks.cpg/sg56_10_cif.got.tgz:19871.got - 2010.06.03 13:42:01.
