data_PCOD9432429
_publ_section_title
;
Structure prediction by ZEFSAII (Michael W. Deem and Ramdas Pophale) SiO2 
 PCOD9432429
Probable space group: P C C N
;
_chemical_formula_sum "Si O2"
_cell_formula_units_Z 40
_cell_length_a 11.377403
_cell_length_b 9.651993
_cell_length_c 16.801300
_cell_angle_alpha 90.000000
_cell_angle_beta 90.000000
_cell_angle_gamma 90.000000
_cell_volume 1845.028276
_symmetry_space_group_name_H-M "P C C N"
_symmetry_group_IT_number 56
_symmetry_cell_setting 'orthorhombic'
loop_
_space_group_symop_operation_xyz
x,y,z
1/2-x,1/2-y,z
1/2+x,-y,1/2-z
-x,1/2+y,1/2-z
-x,-y,-z
1/2+x,1/2+y,-z
1/2-x,y,1/2+z
x,1/2-y,1/2+z
loop_
_atom_site_type_symbol
_atom_site_label
_atom_site_fract_x
_atom_site_fract_y
_atom_site_fract_z
Si Si1 0.242623 0.911037 0.866787
Si Si2 0.930831 0.357783 0.502664
Si Si3 0.503991 0.081148 0.083251
Si Si4 0.888553 0.288885 0.322215
Si Si5 0.949671 0.007579 0.255452
O O1 0.250000 0.750000 0.839814
O O2 0.372999 0.965220 0.876750
O O3 0.155856 0.994563 0.809427
O O4 0.191032 0.898286 0.955594
O O5 0.988234 0.242416 0.559911
O O6 0.918196 0.295089 0.415460
O O7 0.000000 0.500000 0.500000
O O8 0.417012 0.054973 0.157203
O O9 0.500000 0.000000 0.000000
O O10 0.750000 0.250000 0.318998
O O11 0.960921 0.169926 0.276152
O O12 0.938545 0.430815 0.284007
#
# Coordination Sequence:
#
# PCOD9432429 Si02
#       5
#     8   8   8   8   8
#     4  10  22  44  71 102 140 188 241 298 364 443
#     4  11  22  45  74 101 142 195 246 296 372 450
#     4  11  23  43  69 102 144 190 241 301 371 438
#     4  12  25  45  74 107 144 199 248 307 375 446
#     4  12  24  43  73 106 143 186 249 306 365 441
#
# _framework density 21.679884000000001
#
# number of rings (size 3 to 8) (size 9 to 14) (size 15 to 20)
#    0.000    0.800    4.000    6.000    0.000    0.000 
#    0.000    7.000    0.000    0.000    0.000    0.000 
#    0.000    0.000    0.000    0.000    0.000    0.000 
#
# Total GULP energy -223190.252492 kJ/mol
# GULP energy per Si atom -5579.756312 kJ/mol
# Density = 2.163054 g / cm^3
# Si number density = 21.679884 Si / 1000 Ang^3
#
#
#
# Elastic Constant Matrix: (Units=GPa)
#
#
# Indices 1 2 3 4 5 6 
#
# 1 83.3044 50.5077 42.6744 0.0000 0.0000 0.0000
# 2 50.5077 82.8097 21.1398 0.0000 0.0000 0.0000
# 3 42.6744 21.1398 160.0272 0.0000 0.0000 0.0000
# 4 0.0000 0.0000 0.0000 43.6399 0.0000 0.0000
# 5 0.0000 0.0000 0.0000 0.0000 20.9297 0.0000
# 6 0.0000 0.0000 0.0000 0.0000 0.0000 35.8618
#
#
#
# Elastic Compliance Matrix: (Units=1/GPa)
#
#
# Indices 1 2 3 4 5 6 
#
# 1 0.021384 -0.011992 -0.004119 0.000000 0.000000 0.000000
# 2 -0.011992 0.019222 0.000659 0.000000 0.000000 0.000000
# 3 -0.004119 0.000659 0.007260 0.000000 0.000000 0.000000
# 4 0.000000 0.000000 0.000000 0.022915 0.000000 0.000000
# 5 0.000000 0.000000 0.000000 0.000000 0.047779 0.000000
# 6 0.000000 0.000000 0.000000 0.000000 0.000000 0.027885
#
#
# Mechanical properties :
#
#
# Convention : Reuss Voigt Hill
#
# Bulk Modulus (GPa) = 58.95025 61.64278 60.29651
# Shear Modulus (GPa) = 27.32204 34.20758 30.76481
#
# Velocity S-wave (km/s) = 3.55385 3.97652 3.77111
# Velocity P-wave (km/s) = 6.64003 7.04120 6.84356
#
# Compressibility (1/GPa) = 0.01696346
#
# Stress axis : x y z
#
# Youngs Moduli (GPa) = 46.76286 52.02448 137.73688
#
# Poissons Ratio (x) = 0.62385 0.56727
# Poissons Ratio (y) = 0.56076 -0.09071
# Poissons Ratio (z) = 0.19259 -0.03426
#
# Static dielectric constant tensor:
#      x y z
#    x 1.830610 0.000000 0.000000 
#    y 0.000000 1.814700 0.000000 
#    z 0.000000 0.000000 1.883320 
# 
# From -- ./inp_files/15396.got.cif
#   From: 2010.05.17/outbox.cif.g08.bks.cpg/sg56_8_cif.got.tgz:15396.got - 2010.06.03 13:42:01.
