data_PCOD9432677
_publ_section_title
;
Structure prediction by ZEFSAII (Michael W. Deem and Ramdas Pophale) SiO2 
 PCOD9432677
Probable space group: P C C N
;
_chemical_formula_sum "Si O2"
_cell_formula_units_Z 32
_cell_length_a 6.946613
_cell_length_b 9.119702
_cell_length_c 21.807820
_cell_angle_alpha 90.000000
_cell_angle_beta 90.000000
_cell_angle_gamma 90.000000
_cell_volume 1381.548087
_symmetry_space_group_name_H-M "P C C N"
_symmetry_group_IT_number 56
_symmetry_cell_setting 'orthorhombic'
loop_
_space_group_symop_operation_xyz
x,y,z
1/2-x,1/2-y,z
1/2+x,-y,1/2-z
-x,1/2+y,1/2-z
-x,-y,-z
1/2+x,1/2+y,-z
1/2-x,y,1/2+z
x,1/2-y,1/2+z
loop_
_atom_site_type_symbol
_atom_site_label
_atom_site_fract_x
_atom_site_fract_y
_atom_site_fract_z
Si Si1 0.564396 0.833834 0.693716
Si Si2 0.326433 0.605253 0.309596
Si Si3 0.710482 0.425569 0.008410
Si Si4 0.507359 0.080637 0.899903
O O1 0.750000 0.750000 0.722806
O O2 0.394294 0.854935 0.741511
O O3 0.516934 0.738200 0.633305
O O4 0.652750 0.992388 0.683341
O O5 0.250000 0.750000 0.340538
O O6 0.505484 0.531871 0.343497
O O7 0.750000 0.250000 0.023280
O O8 0.690960 0.065233 0.941828
O O9 0.168571 0.472769 0.943855
O O10 0.500000 0.500000 0.000000
#
# Coordination Sequence:
#
# PCOD9432677 Si02
#       4
#     8   8   8   8
#     4  10  23  43  70 105 152 202 257 317 400 477
#     4  11  22  42  69 105 150 197 251 313 392 479
#     4  11  27  49  82 115 148 209 268 333 412 472
#     4  10  25  48  74 109 159 195 258 329 391 490
#
# _framework density 23.162420999999998
#
# number of rings (size 3 to 8) (size 9 to 14) (size 15 to 20)
#    0.000    1.500    0.000    3.750   10.500    6.000 
#    9.000    0.000    0.000    0.000    0.000    0.000 
#    0.000    0.000    0.000    0.000    0.000    0.000 
#
# Total GULP energy -178569.486407 kJ/mol
# GULP energy per Si atom -5580.296450 kJ/mol
# Density = 2.310970 g / cm^3
# Si number density = 23.162421 Si / 1000 Ang^3
#
#
#
# Elastic Constant Matrix: (Units=GPa)
#
#
# Indices 1 2 3 4 5 6 
#
# 1 147.0967 85.9897 87.1025 0.0000 0.0000 0.0000
# 2 85.9897 188.0222 78.9540 0.0000 0.0000 0.0000
# 3 87.1025 78.9540 151.5136 0.0000 0.0000 0.0000
# 4 0.0000 0.0000 0.0000 51.4795 0.0000 0.0000
# 5 0.0000 0.0000 0.0000 0.0000 -13.8764 0.0000
# 6 0.0000 0.0000 0.0000 0.0000 0.0000 23.1401
#
#
#
# Elastic Compliance Matrix: (Units=1/GPa)
#
#
# Indices 1 2 3 4 5 6 
#
# 1 0.011655 -0.003222 -0.005021 0.000000 0.000000 0.000000
# 2 -0.003222 0.007699 -0.002160 0.000000 0.000000 0.000000
# 3 -0.005021 -0.002160 0.010612 0.000000 0.000000 0.000000
# 4 0.000000 0.000000 0.000000 0.019425 0.000000 0.000000
# 5 0.000000 0.000000 0.000000 0.000000 -0.072065 0.000000
# 6 0.000000 0.000000 0.000000 0.000000 0.000000 0.043215
#
#
# Mechanical properties :
#
#
# Convention : Reuss Voigt Hill
#
# Bulk Modulus (GPa) = 109.16663 110.08053 109.62358
# Shear Modulus (GPa) = 112.61089 27.78774 70.19932
#
# Velocity S-wave (km/s) = 6.98022 3.46741 5.51119
# Velocity P-wave (km/s) = 10.59235 7.97868 9.37702
#
# Compressibility (1/GPa) = 0.00916031
#
# Stress axis : x y z
#
# Youngs Moduli (GPa) = 85.80020 129.88936 94.23061
#
# Poissons Ratio (x) = 0.41846 0.47317
# Poissons Ratio (y) = 0.27642 0.20352
# Poissons Ratio (z) = 0.43084 0.28053
#
# Static dielectric constant tensor:
#      x y z
#    x 1.829990 0.000000 0.000000 
#    y 0.000000 2.182190 0.000000 
#    z 0.000000 0.000000 1.916930 
# 
# From -- ./inp_files/17794.got.cif
#   From: 2010.05.17/outbox.cif.g08.bks.cpg/sg56_9_cif.got.tgz:17794.got - 2010.06.03 13:42:01.
