data_PCOD9432292
_publ_section_title
;
Structure prediction by ZEFSAII (Michael W. Deem and Ramdas Pophale) SiO2 
 PCOD9432292
Probable space group: P C C N
;
_chemical_formula_sum "Si O2"
_cell_formula_units_Z 60
_cell_length_a 8.634290
_cell_length_b 11.007115
_cell_length_c 29.555206
_cell_angle_alpha 90.000000
_cell_angle_beta 90.000000
_cell_angle_gamma 90.000000
_cell_volume 2808.886080
_symmetry_space_group_name_H-M "P C C N"
_symmetry_group_IT_number 56
_symmetry_cell_setting 'orthorhombic'
loop_
_space_group_symop_operation_xyz
x,y,z
1/2-x,1/2-y,z
1/2+x,-y,1/2-z
-x,1/2+y,1/2-z
-x,-y,-z
1/2+x,1/2+y,-z
1/2-x,y,1/2+z
x,1/2-y,1/2+z
loop_
_atom_site_type_symbol
_atom_site_label
_atom_site_fract_x
_atom_site_fract_y
_atom_site_fract_z
Si Si1 0.750000 0.750000 0.849302
Si Si2 0.946795 0.669153 0.266577
Si Si3 0.874123 0.949701 0.417967
Si Si4 0.027865 0.033177 0.051671
Si Si5 0.369945 0.421213 0.776496
Si Si6 0.921811 0.292079 0.917585
Si Si7 0.565975 0.219070 0.021391
Si Si8 0.358913 0.366359 0.879683
O O1 0.610672 0.701055 0.817483
O O2 0.675670 0.854727 0.880056
O O3 0.793383 0.607827 0.246081
O O4 0.969978 0.800937 0.240915
O O5 0.068163 0.557073 0.265478
O O6 0.708294 0.991749 0.438586
O O7 0.994955 0.899542 0.454989
O O8 0.947599 0.073193 0.399982
O O9 0.009759 0.176857 0.052128
O O10 0.898148 0.968154 0.082714
O O11 0.000000 0.000000 0.000000
O O12 0.334852 0.415724 0.830069
O O13 0.750000 0.250000 0.925405
O O14 0.977954 0.201703 0.879451
O O15 0.989076 0.278713 0.968855
O O16 0.750000 0.250000 0.023048
O O17 0.250000 0.250000 0.892020
#
# Coordination Sequence:
#
# PCOD9432292 Si02
#       8
#     4   8   8   8   8   8   8   8
#     4  10  22  42  68  98 126 174 220 272 338 412
#     4  10  23  46  72 100 139 172 218 277 350 425
#     4  12  23  42  64  92 128 178 233 277 332 408
#     4  12  23  40  64  92 130 182 228 269 340 398
#     4  10  23  47  70 104 134 175 219 277 346 420
#     4  11  24  42  60  95 131 176 230 278 332 404
#     4  11  24  41  59  92 133 180 229 280 334 390
#     4  12  25  42  69 100 138 170 226 286 333 405
#
# _framework density 21.360780999999999
#
# number of rings (size 3 to 8) (size 9 to 14) (size 15 to 20)
#    0.000    1.067    5.333    2.000    3.733    2.667 
#    0.000    0.000    0.000    0.000    0.000    0.000 
#    0.000    0.000    0.000    0.000    0.000    0.000 
#
# Total GULP energy -334011.649123 kJ/mol
# GULP energy per Si atom -5566.860819 kJ/mol
# Density = 2.131216 g / cm^3
# Si number density = 21.360781 Si / 1000 Ang^3
#
#
#
# Elastic Constant Matrix: (Units=GPa)
#
#
# Indices 1 2 3 4 5 6 
#
# 1 31.6389 -2.9712 13.4775 0.0000 0.0000 0.0000
# 2 -2.9712 98.7827 16.1965 0.0000 0.0000 0.0000
# 3 13.4775 16.1965 97.6022 0.0000 0.0000 0.0000
# 4 0.0000 0.0000 0.0000 -29.7597 0.0000 0.0000
# 5 0.0000 0.0000 0.0000 0.0000 29.5586 0.0000
# 6 0.0000 0.0000 0.0000 0.0000 0.0000 37.2965
#
#
#
# Elastic Compliance Matrix: (Units=1/GPa)
#
#
# Indices 1 2 3 4 5 6 
#
# 1 0.033903 0.001837 -0.004986 0.000000 0.000000 0.000000
# 2 0.001837 0.010506 -0.001997 0.000000 0.000000 0.000000
# 3 -0.004986 -0.001997 0.011266 0.000000 0.000000 0.000000
# 4 0.000000 0.000000 0.000000 -0.033603 0.000000 0.000000
# 5 0.000000 0.000000 0.000000 0.000000 0.033831 0.000000
# 6 0.000000 0.000000 0.000000 0.000000 0.000000 0.026812
#
#
# Mechanical properties :
#
#
# Convention : Reuss Voigt Hill
#
# Bulk Modulus (GPa) = 22.03498 31.26994 26.65246
# Shear Modulus (GPa) = 46.23824 20.84049 33.53937
#
# Velocity S-wave (km/s) = 4.65761 3.12692 3.96680
# Velocity P-wave (km/s) = 6.26597 5.26380 5.78662
#
# Compressibility (1/GPa) = 0.04538239
#
# Stress axis : x y z
#
# Youngs Moduli (GPa) = 29.49564 95.18424 88.76546
#
# Poissons Ratio (x) = -0.17489 0.44263
# Poissons Ratio (y) = -0.05419 0.17727
# Poissons Ratio (z) = 0.14708 0.19009
#
# Static dielectric constant tensor:
#      x y z
#    x 1.830170 0.000000 0.000000 
#    y 0.000000 1.924140 0.000000 
#    z 0.000000 0.000000 1.825160 
# 
# From -- ./inp_files/22140.got.cif
#   From: 2010.05.17/outbox.cif.g08.bks.cpg/sg56_12_cif.got.tgz:22140.got - 2010.06.03 13:42:01.
