data_PCOD9432333
_publ_section_title
;
Structure prediction by ZEFSAII (Michael W. Deem and Ramdas Pophale) SiO2 
 PCOD9432333
Probable space group: P C C N
;
_chemical_formula_sum "Si O2"
_cell_formula_units_Z 56
_cell_length_a 13.761660
_cell_length_b 22.893085
_cell_length_c 8.326359
_cell_angle_alpha 90.000000
_cell_angle_beta 90.000000
_cell_angle_gamma 90.000000
_cell_volume 2623.193193
_symmetry_space_group_name_H-M "P C C N"
_symmetry_group_IT_number 56
_symmetry_cell_setting 'orthorhombic'
loop_
_space_group_symop_operation_xyz
x,y,z
1/2-x,1/2-y,z
1/2+x,-y,1/2-z
-x,1/2+y,1/2-z
-x,-y,-z
1/2+x,1/2+y,-z
1/2-x,y,1/2+z
x,1/2-y,1/2+z
loop_
_atom_site_type_symbol
_atom_site_label
_atom_site_fract_x
_atom_site_fract_y
_atom_site_fract_z
Si Si1 0.300864 0.188562 0.612248
Si Si2 0.624940 0.052586 0.507284
Si Si3 0.090965 0.166380 0.711794
Si Si4 0.533630 0.722156 0.630968
Si Si5 0.584763 0.582610 0.043925
Si Si6 0.320921 0.697197 0.558053
Si Si7 0.205221 0.612611 0.790492
O O1 0.250000 0.250000 0.538110
O O2 0.207142 0.169686 0.711968
O O3 0.391430 0.202520 0.730327
O O4 0.338698 0.130027 0.523292
O O5 0.519965 0.081349 0.544840
O O6 0.710176 0.079630 0.613707
O O7 0.647872 0.068391 0.322446
O O8 0.620940 0.983436 0.532522
O O9 0.050580 0.208383 0.854129
O O10 0.058944 0.190838 0.537812
O O11 0.065073 0.102137 0.771655
O O12 0.418426 0.715159 0.651004
O O13 0.250000 0.750000 0.502835
O O14 0.255288 0.658764 0.673231
O O15 0.351877 0.653936 0.414044
#
# Coordination Sequence:
#
# PCOD9432333 Si02
#       7
#     8   8   8   8   8   8   8
#     4  10  22  43  63  98 132 173 216 278 341 401
#     4  10  24  43  68  96 126 187 217 287 317 400
#     4  11  23  38  64  93 133 170 215 267 331 401
#     4  11  24  38  63  94 134 170 207 269 339 394
#     4  11  23  42  69  94 133 172 236 264 343 390
#     4  11  24  38  67  99 132 172 214 271 331 398
#     4  10  23  44  64  93 136 164 228 264 336 383
#
# _framework density 21.348026999999998
#
# number of rings (size 3 to 8) (size 9 to 14) (size 15 to 20)
#    0.000    1.429    0.000    4.714   10.000    3.429 
#    0.000    0.000    0.000    6.857    0.000    0.000 
#    0.000    0.000    0.000    0.000    0.000    0.000 
#
# Total GULP energy -312072.222030 kJ/mol
# GULP energy per Si atom -5572.718251 kJ/mol
# Density = 2.129944 g / cm^3
# Si number density = 21.348027 Si / 1000 Ang^3
#
#
#
# Elastic Constant Matrix: (Units=GPa)
#
#
# Indices 1 2 3 4 5 6 
#
# 1 72.6356 36.8719 4.5915 0.0000 0.0000 0.0000
# 2 36.8719 99.4482 29.6010 0.0000 0.0000 0.0000
# 3 4.5915 29.6010 61.3972 0.0000 0.0000 0.0000
# 4 0.0000 0.0000 0.0000 20.0240 0.0000 0.0000
# 5 0.0000 0.0000 0.0000 0.0000 -26.6351 0.0000
# 6 0.0000 0.0000 0.0000 0.0000 0.0000 22.0493
#
#
#
# Elastic Compliance Matrix: (Units=1/GPa)
#
#
# Indices 1 2 3 4 5 6 
#
# 1 0.017185 -0.006993 0.002086 0.000000 0.000000 0.000000
# 2 -0.006993 0.014586 -0.006509 0.000000 0.000000 0.000000
# 3 0.002086 -0.006509 0.019270 0.000000 0.000000 0.000000
# 4 0.000000 0.000000 0.000000 0.049940 0.000000 0.000000
# 5 0.000000 0.000000 0.000000 0.000000 -0.037544 0.000000
# 6 0.000000 0.000000 0.000000 0.000000 0.000000 0.045353
#
#
# Mechanical properties :
#
#
# Convention : Reuss Voigt Hill
#
# Bulk Modulus (GPa) = 35.44955 41.73442 38.59199
# Shear Modulus (GPa) = 35.45526 13.91542 24.68534
#
# Velocity S-wave (km/s) = 4.07974 2.55588 3.40417
# Velocity P-wave (km/s) = 6.23169 5.31996 5.79379
#
# Compressibility (1/GPa) = 0.02820910
#
# Stress axis : x y z
#
# Youngs Moduli (GPa) = 58.18997 68.56107 51.89528
#
# Poissons Ratio (x) = 0.47942 -0.10826
# Poissons Ratio (y) = 0.40690 0.33779
# Poissons Ratio (z) = -0.12139 0.44627
#
# Static dielectric constant tensor:
#      x y z
#    x 1.831010 0.000000 0.000000 
#    y 0.000000 1.777030 0.000000 
#    z 0.000000 0.000000 1.836620 
# 
# From -- ./inp_files/3590.got.cif
#   From: 2010.05.17/outbox.cif.g08.bks.cpg/sg56_2_cif.got.tgz:3590.got - 2010.06.03 13:42:01.
