data_PCOD9432890
_publ_section_title
;
Structure prediction by ZEFSAII (Michael W. Deem and Ramdas Pophale) SiO2 
 PCOD9432890
Probable space group: P C C N
;
_chemical_formula_sum "Si O2"
_cell_formula_units_Z 48
_cell_length_a 8.778655
_cell_length_b 16.332240
_cell_length_c 14.317890
_cell_angle_alpha 90.000000
_cell_angle_beta 90.000000
_cell_angle_gamma 90.000000
_cell_volume 2052.828915
_symmetry_space_group_name_H-M "P C C N"
_symmetry_group_IT_number 56
_symmetry_cell_setting 'orthorhombic'
loop_
_space_group_symop_operation_xyz
x,y,z
1/2-x,1/2-y,z
1/2+x,-y,1/2-z
-x,1/2+y,1/2-z
-x,-y,-z
1/2+x,1/2+y,-z
1/2-x,y,1/2+z
x,1/2-y,1/2+z
loop_
_atom_site_type_symbol
_atom_site_label
_atom_site_fract_x
_atom_site_fract_y
_atom_site_fract_z
Si Si1 0.545199 0.336821 0.249369
Si Si2 0.266528 0.033797 0.992241
Si Si3 0.750000 0.250000 0.105323
Si Si4 0.750000 0.750000 0.723954
Si Si5 0.638932 0.978104 0.323808
Si Si6 0.384915 0.080282 0.309874
Si Si7 0.432707 0.636969 0.534268
O O1 0.673988 0.314400 0.176519
O O2 0.396828 0.282844 0.222322
O O3 0.482052 0.427529 0.236166
O O4 0.577297 0.328566 0.359807
O O5 0.141319 0.052150 0.070421
O O6 0.334498 0.946501 0.024104
O O7 0.188299 0.027512 0.892581
O O8 0.397635 0.102761 0.986911
O O9 0.869940 0.296949 0.038974
O O10 0.677748 0.828225 0.671960
O O11 0.802145 0.951982 0.283452
O O12 0.567126 0.068657 0.313244
#
# Coordination Sequence:
#
# PCOD9432890 Si02
#       7
#     8   8   4   4   8   8   8
#     4  11  25  49  66 111 143 190 246 298 375 432
#     4  11  24  45  72 102 147 189 246 309 360 441
#     4  12  28  44  80 104 148 200 234 298 384 440
#     4  10  24  42  68  98 148 188 232 318 368 416
#     4  11  24  42  73 101 138 196 248 292 370 441
#     4  11  24  45  67 107 140 195 247 308 370 440
#     4  11  25  47  71 109 147 186 249 309 361 444
#
# _framework density 23.382368
#
# number of rings (size 3 to 8) (size 9 to 14) (size 15 to 20)
#    0.000    1.000    3.333    3.000    7.000    5.333 
#    0.000    0.000    0.000    0.000    0.000    0.000 
#    0.000    0.000    0.000    0.000    0.000    0.000 
#
# Total GULP energy -268035.312162 kJ/mol
# GULP energy per Si atom -5584.069003 kJ/mol
# Density = 2.332915 g / cm^3
# Si number density = 23.382368 Si / 1000 Ang^3
#
#
#
# Elastic Constant Matrix: (Units=GPa)
#
#
# Indices 1 2 3 4 5 6 
#
# 1 44.9712 26.4508 12.2166 0.0000 0.0000 0.0000
# 2 26.4508 66.7970 17.8916 0.0000 0.0000 0.0000
# 3 12.2166 17.8916 107.2248 0.0000 0.0000 0.0000
# 4 0.0000 0.0000 0.0000 27.8206 0.0000 0.0000
# 5 0.0000 0.0000 0.0000 0.0000 23.1240 0.0000
# 6 0.0000 0.0000 0.0000 0.0000 0.0000 39.9528
#
#
#
# Elastic Compliance Matrix: (Units=1/GPa)
#
#
# Indices 1 2 3 4 5 6 
#
# 1 0.029206 -0.011173 -0.001463 0.000000 0.000000 0.000000
# 2 -0.011173 0.019946 -0.002055 0.000000 0.000000 0.000000
# 3 -0.001463 -0.002055 0.009836 0.000000 0.000000 0.000000
# 4 0.000000 0.000000 0.000000 0.035945 0.000000 0.000000
# 5 0.000000 0.000000 0.000000 0.000000 0.043245 0.000000
# 6 0.000000 0.000000 0.000000 0.000000 0.000000 0.025030
#
#
# Mechanical properties :
#
#
# Convention : Reuss Voigt Hill
#
# Bulk Modulus (GPa) = 33.77902 36.90123 35.34013
# Shear Modulus (GPa) = 24.69656 29.00842 26.85249
#
# Velocity S-wave (km/s) = 3.25346 3.52605 3.39249
# Velocity P-wave (km/s) = 5.34706 5.69151 5.52197
#
# Compressibility (1/GPa) = 0.02960417
#
# Stress axis : x y z
#
# Youngs Moduli (GPa) = 34.23996 50.13630 101.66917
#
# Poissons Ratio (x) = 0.56018 0.14876
# Poissons Ratio (y) = 0.38257 0.20894
# Poissons Ratio (z) = 0.05010 0.10304
#
# Static dielectric constant tensor:
#      x y z
#    x 1.928570 0.000000 0.000000 
#    y 0.000000 2.004230 0.000000 
#    z 0.000000 0.000000 1.828150 
# 
# From -- ./inp_files/10710.got.cif
#   From: 2010.05.17/outbox.cif.g08.bks.cpg/sg56_6_cif.got.tgz:10710.got - 2010.06.03 13:42:01.
