data_PCOD9432328
_publ_section_title
;
Structure prediction by ZEFSAII (Michael W. Deem and Ramdas Pophale) SiO2 
 PCOD9432328
Probable space group: P C C N
;
_chemical_formula_sum "Si O2"
_cell_formula_units_Z 52
_cell_length_a 8.598396
_cell_length_b 14.262452
_cell_length_c 19.468357
_cell_angle_alpha 90.000000
_cell_angle_beta 90.000000
_cell_angle_gamma 90.000000
_cell_volume 2387.486585
_symmetry_space_group_name_H-M "P C C N"
_symmetry_group_IT_number 56
_symmetry_cell_setting 'orthorhombic'
loop_
_space_group_symop_operation_xyz
x,y,z
1/2-x,1/2-y,z
1/2+x,-y,1/2-z
-x,1/2+y,1/2-z
-x,-y,-z
1/2+x,1/2+y,-z
1/2-x,y,1/2+z
x,1/2-y,1/2+z
loop_
_atom_site_type_symbol
_atom_site_label
_atom_site_fract_x
_atom_site_fract_y
_atom_site_fract_z
Si Si1 0.146649 0.668165 0.291400
Si Si2 0.194386 0.143618 0.154442
Si Si3 0.776671 0.534612 0.207541
Si Si4 0.632026 0.563352 0.064262
Si Si5 0.765344 0.029956 0.942871
Si Si6 0.750000 0.750000 0.571773
Si Si7 0.966429 0.353490 0.852873
O O1 0.250000 0.750000 0.323080
O O2 0.244756 0.573715 0.279289
O O3 0.095731 0.699050 0.214520
O O4 0.994034 0.645960 0.336659
O O5 0.250000 0.250000 0.143957
O O6 0.249761 0.101368 0.227689
O O7 0.251124 0.066754 0.099657
O O8 0.668885 0.563625 0.144347
O O9 0.950144 0.555180 0.180470
O O10 0.448896 0.551339 0.060228
O O11 0.677687 0.663226 0.032108
O O12 0.745617 0.490812 0.024520
O O13 0.658956 0.109298 0.907921
O O14 0.604711 0.707249 0.614073
#
# Coordination Sequence:
#
# PCOD9432328 Si02
#       7
#     8   8   8   8   8   4   8
#     4  11  24  38  63  96 129 173 219 281 337 398
#     4  11  25  39  65  99 131 171 226 274 329 401
#     4  10  22  43  60  95 133 169 213 281 333 388
#     4  10  24  43  67  91 136 167 219 271 330 400
#     4  11  23  44  68  94 130 181 214 272 338 395
#     4  10  24  42  64  96 128 172 222 276 318 406
#     4  10  24  40  67  93 129 174 221 273 335 404
#
# _framework density 21.780225999999999
#
# number of rings (size 3 to 8) (size 9 to 14) (size 15 to 20)
#    0.000    1.538    3.077    0.000   15.077    2.462 
#    0.000    1.538    0.000    0.000    0.000    0.000 
#    0.000    0.000    0.000    0.000    0.000    0.000 
#
# Total GULP energy -290058.361809 kJ/mol
# GULP energy per Si atom -5578.045419 kJ/mol
# Density = 2.173065 g / cm^3
# Si number density = 21.780226 Si / 1000 Ang^3
#
#
#
# Elastic Constant Matrix: (Units=GPa)
#
#
# Indices 1 2 3 4 5 6 
#
# 1 62.2491 8.9611 15.7567 0.0000 0.0000 0.0000
# 2 8.9611 49.1201 3.2654 0.0000 0.0000 0.0000
# 3 15.7567 3.2654 62.5992 0.0000 0.0000 0.0000
# 4 0.0000 0.0000 0.0000 40.7888 0.0000 0.0000
# 5 0.0000 0.0000 0.0000 0.0000 -23.0077 0.0000
# 6 0.0000 0.0000 0.0000 0.0000 0.0000 47.0065
#
#
#
# Elastic Compliance Matrix: (Units=1/GPa)
#
#
# Indices 1 2 3 4 5 6 
#
# 1 0.017566 -0.002921 -0.004269 0.000000 0.000000 0.000000
# 2 -0.002921 0.020915 -0.000356 0.000000 0.000000 0.000000
# 3 -0.004269 -0.000356 0.017068 0.000000 0.000000 0.000000
# 4 0.000000 0.000000 0.000000 0.024517 0.000000 0.000000
# 5 0.000000 0.000000 0.000000 0.000000 -0.043464 0.000000
# 6 0.000000 0.000000 0.000000 0.000000 0.000000 0.021274
#
#
# Mechanical properties :
#
#
# Convention : Reuss Voigt Hill
#
# Bulk Modulus (GPa) = 24.71767 25.54832 25.13299
# Shear Modulus (GPa) = 57.83599 22.68986 40.26292
#
# Velocity S-wave (km/s) = 5.15868 3.23114 4.30420
# Velocity P-wave (km/s) = 6.84514 5.06714 6.02212
#
# Compressibility (1/GPa) = 0.04045689
#
# Stress axis : x y z
#
# Youngs Moduli (GPa) = 56.92967 47.81313 58.58996
#
# Poissons Ratio (x) = 0.13965 0.25012
# Poissons Ratio (y) = 0.16628 0.02085
# Poissons Ratio (z) = 0.24303 0.01701
#
# Static dielectric constant tensor:
#      x y z
#    x 1.813430 0.000000 0.000000 
#    y 0.000000 1.865530 0.000000 
#    z 0.000000 0.000000 1.851610 
# 
# From -- ./inp_files/18161.got.cif
#   From: 2010.05.17/outbox.cif.g08.bks.cpg/sg56_10_cif.got.tgz:18161.got - 2010.06.03 13:42:01.
