data_PCOD9432440
_publ_section_title
;
Structure prediction by ZEFSAII (Michael W. Deem and Ramdas Pophale) SiO2 
 PCOD9432440
Probable space group: P C C N
;
_chemical_formula_sum "Si O2"
_cell_formula_units_Z 40
_cell_length_a 5.124455
_cell_length_b 18.586028
_cell_length_c 17.595882
_cell_angle_alpha 90.000000
_cell_angle_beta 90.000000
_cell_angle_gamma 90.000000
_cell_volume 1675.889237
_symmetry_space_group_name_H-M "P C C N"
_symmetry_group_IT_number 56
_symmetry_cell_setting 'orthorhombic'
loop_
_space_group_symop_operation_xyz
x,y,z
1/2-x,1/2-y,z
1/2+x,-y,1/2-z
-x,1/2+y,1/2-z
-x,-y,-z
1/2+x,1/2+y,-z
1/2-x,y,1/2+z
x,1/2-y,1/2+z
loop_
_atom_site_type_symbol
_atom_site_label
_atom_site_fract_x
_atom_site_fract_y
_atom_site_fract_z
Si Si1 0.342107 0.351899 0.972654
Si Si2 0.917979 0.192520 0.709117
Si Si3 0.649543 0.436039 0.457202
Si Si4 0.250000 0.250000 0.836066
Si Si5 0.750000 0.750000 0.406003
Si Si6 0.702282 0.043526 0.775906
O O1 0.550963 0.416199 0.975208
O O2 0.319908 0.316608 0.889545
O O3 0.040113 0.372033 0.984179
O O4 0.426490 0.292913 0.033267
O O5 0.750000 0.250000 0.662684
O O6 0.796761 0.118617 0.737702
O O7 0.012639 0.244522 0.777832
O O8 0.157939 0.185910 0.650941
O O9 0.500000 0.500000 0.500000
O O10 0.642707 0.445932 0.365598
O O11 0.442582 0.011680 0.736764
#
# Coordination Sequence:
#
# PCOD9432440 Si02
#       6
#     8   8   8   4   4   8
#     4  11  25  47  73 108 149 188 254 313 397 449
#     4  11  25  45  77 106 148 198 267 320 398 451
#     4  12  27  48  75 107 153 207 250 308 384 475
#     4  10  22  44  74 102 140 188 254 320 380 464
#     4  10  28  42  74 114 144 196 248 348 382 462
#     4  12  29  50  78 113 161 208 261 321 393 473
#
# _framework density 23.867925
#
# number of rings (size 3 to 8) (size 9 to 14) (size 15 to 20)
#    0.000    0.800    2.000    3.000   11.200    1.600 
#    0.000    0.000    0.000    0.000    0.000    0.000 
#    0.000    0.000    0.000    0.000    0.000    0.000 
#
# Total GULP energy -222868.337606 kJ/mol
# GULP energy per Si atom -5571.708440 kJ/mol
# Density = 2.381360 g / cm^3
# Si number density = 23.867925 Si / 1000 Ang^3
#
#
#
# Elastic Constant Matrix: (Units=GPa)
#
#
# Indices 1 2 3 4 5 6 
#
# 1 124.5923 42.2338 33.5168 0.0000 0.0000 0.0000
# 2 42.2338 109.4396 56.5449 0.0000 0.0000 0.0000
# 3 33.5168 56.5449 123.0257 0.0000 0.0000 0.0000
# 4 0.0000 0.0000 0.0000 22.6142 0.0000 0.0000
# 5 0.0000 0.0000 0.0000 0.0000 -42.1477 0.0000
# 6 0.0000 0.0000 0.0000 0.0000 0.0000 57.1335
#
#
#
# Elastic Compliance Matrix: (Units=1/GPa)
#
#
# Indices 1 2 3 4 5 6 
#
# 1 0.009360 -0.003009 -0.001167 0.000000 0.000000 0.000000
# 2 -0.003009 0.012951 -0.005133 0.000000 0.000000 0.000000
# 3 -0.001167 -0.005133 0.010805 0.000000 0.000000 0.000000
# 4 0.000000 0.000000 0.000000 0.044220 0.000000 0.000000
# 5 0.000000 0.000000 0.000000 0.000000 -0.023726 0.000000
# 6 0.000000 0.000000 0.000000 0.000000 0.000000 0.017503
#
#
# Mechanical properties :
#
#
# Convention : Reuss Voigt Hill
#
# Bulk Modulus (GPa) = 68.97185 69.07203 69.02194
# Shear Modulus (GPa) = 52.87471 22.50414 37.68943
#
# Velocity S-wave (km/s) = 4.71181 3.07394 3.97808
# Velocity P-wave (km/s) = 7.65255 6.44987 7.07681
#
# Compressibility (1/GPa) = 0.01449867
#
# Stress axis : x y z
#
# Youngs Moduli (GPa) = 106.83574 77.21650 92.54714
#
# Poissons Ratio (x) = 0.23236 0.10800
# Poissons Ratio (y) = 0.32149 0.47500
# Poissons Ratio (z) = 0.12467 0.39631
#
# Static dielectric constant tensor:
#      x y z
#    x 1.067810 0.000000 0.000000 
#    y 0.000000 2.078770 0.000000 
#    z 0.000000 0.000000 1.904620 
# 
# From -- ./inp_files/13867.got.cif
#   From: 2010.05.17/outbox.cif.g08.bks.cpg/sg56_7_cif.got.tgz:13867.got - 2010.06.03 13:42:01.
