data_PCOD9432147
_publ_section_title
;
Structure prediction by ZEFSAII (Michael W. Deem and Ramdas Pophale) SiO2 
 PCOD9432147
Probable space group: P C C N
;
_chemical_formula_sum "Si O2"
_cell_formula_units_Z 28
_cell_length_a 5.033126
_cell_length_b 12.683125
_cell_length_c 18.777574
_cell_angle_alpha 90.000000
_cell_angle_beta 90.000000
_cell_angle_gamma 90.000000
_cell_volume 1198.680824
_symmetry_space_group_name_H-M "P C C N"
_symmetry_group_IT_number 56
_symmetry_cell_setting 'orthorhombic'
loop_
_space_group_symop_operation_xyz
x,y,z
1/2-x,1/2-y,z
1/2+x,-y,1/2-z
-x,1/2+y,1/2-z
-x,-y,-z
1/2+x,1/2+y,-z
1/2-x,y,1/2+z
x,1/2-y,1/2+z
loop_
_atom_site_type_symbol
_atom_site_label
_atom_site_fract_x
_atom_site_fract_y
_atom_site_fract_z
Si Si1 0.365851 0.475150 0.424183
Si Si2 0.025978 0.825361 0.255849
Si Si3 0.360898 0.467744 0.171379
Si Si4 0.750000 0.750000 0.120720
O O1 0.500000 0.500000 0.500000
O O2 0.612854 0.491750 0.373227
O O3 0.286497 0.353062 0.425230
O O4 0.114383 0.532274 0.383481
O O5 0.250000 0.750000 0.290770
O O6 0.749186 0.857529 0.295686
O O7 0.976273 0.774421 0.178398
O O8 0.116036 0.944104 0.233540
#
# Coordination Sequence:
#
# PCOD9432147 Si02
#       4
#     8   8   8   4
#     4  11  24  45  70 100 149 198 256 306 367 460
#     4  11  22  41  71 108 148 186 245 318 398 458
#     4  11  24  41  70 110 142 192 248 316 381 453
#     4  10  22  40  72 102 140 200 244 302 396 446
#
# _framework density 23.359010999999999
#
# number of rings (size 3 to 8) (size 9 to 14) (size 15 to 20)
#    0.000    1.143    2.857    4.286    4.000    0.000 
#    0.000    1.429   12.571    0.000    0.000    0.000 
#    0.000    0.000    0.000    0.000    0.000    0.000 
#
# Total GULP energy -155963.385136 kJ/mol
# GULP energy per Si atom -5570.120898 kJ/mol
# Density = 2.330584 g / cm^3
# Si number density = 23.359011 Si / 1000 Ang^3
#
#
#
# Elastic Constant Matrix: (Units=GPa)
#
#
# Indices 1 2 3 4 5 6 
#
# 1 211.2530 68.2304 63.3730 0.0000 0.0000 0.0000
# 2 68.2304 136.8657 56.9802 0.0000 0.0000 0.0000
# 3 63.3730 56.9802 121.8115 0.0000 0.0000 0.0000
# 4 0.0000 0.0000 0.0000 21.9898 0.0000 0.0000
# 5 0.0000 0.0000 0.0000 0.0000 36.9714 0.0000
# 6 0.0000 0.0000 0.0000 0.0000 0.0000 45.2194
#
#
#
# Elastic Compliance Matrix: (Units=1/GPa)
#
#
# Indices 1 2 3 4 5 6 
#
# 1 0.006069 -0.002125 -0.002163 0.000000 0.000000 0.000000
# 2 -0.002125 0.009817 -0.003487 0.000000 0.000000 0.000000
# 3 -0.002163 -0.003487 0.010966 0.000000 0.000000 0.000000
# 4 0.000000 0.000000 0.000000 0.045476 0.000000 0.000000
# 5 0.000000 0.000000 0.000000 0.000000 0.027048 0.000000
# 6 0.000000 0.000000 0.000000 0.000000 0.000000 0.022114
#
#
# Mechanical properties :
#
#
# Convention : Reuss Voigt Hill
#
# Bulk Modulus (GPa) = 88.47946 94.12191 91.30069
# Shear Modulus (GPa) = 35.50939 39.59256 37.55097
#
# Velocity S-wave (km/s) = 3.90315 4.12145 4.01379
# Velocity P-wave (km/s) = 7.63368 7.93912 7.78790
#
# Compressibility (1/GPa) = 0.01130206
#
# Stress axis : x y z
#
# Youngs Moduli (GPa) = 164.77361 101.86059 91.19074
#
# Poissons Ratio (x) = 0.21643 0.19729
# Poissons Ratio (y) = 0.35011 0.31797
# Poissons Ratio (z) = 0.35648 0.35517
#
# Static dielectric constant tensor:
#      x y z
#    x 2.035630 0.000000 0.000000 
#    y 0.000000 2.082710 0.000000 
#    z 0.000000 0.000000 1.878780 
# 
# From -- ./inp_files/17195.got.cif
#   From: 2010.05.17/outbox.cif.g08.bks.cpg/sg56_9_cif.got.tgz:17195.got - 2010.06.03 13:42:01.
