data_PCOD9432582
_publ_section_title
;
Structure prediction by ZEFSAII (Michael W. Deem and Ramdas Pophale) SiO2 
 PCOD9432582
Probable space group: P C C N
;
_chemical_formula_sum "Si O2"
_cell_formula_units_Z 48
_cell_length_a 8.720573
_cell_length_b 14.586797
_cell_length_c 18.584230
_cell_angle_alpha 90.000000
_cell_angle_beta 90.000000
_cell_angle_gamma 90.000000
_cell_volume 2364.011216
_symmetry_space_group_name_H-M "P C C N"
_symmetry_group_IT_number 56
_symmetry_cell_setting 'orthorhombic'
loop_
_space_group_symop_operation_xyz
x,y,z
1/2-x,1/2-y,z
1/2+x,-y,1/2-z
-x,1/2+y,1/2-z
-x,-y,-z
1/2+x,1/2+y,-z
1/2-x,y,1/2+z
x,1/2-y,1/2+z
loop_
_atom_site_type_symbol
_atom_site_label
_atom_site_fract_x
_atom_site_fract_y
_atom_site_fract_z
Si Si1 0.539120 0.890465 0.693660
Si Si2 0.078756 0.790992 0.762751
Si Si3 0.798596 0.475569 0.797916
Si Si4 0.400392 0.438332 0.551720
Si Si5 0.935355 0.757916 0.912315
Si Si6 0.917915 0.906312 0.024286
O O1 0.516070 0.786263 0.719943
O O2 0.377006 0.942779 0.705463
O O3 0.573792 0.894370 0.609310
O O4 0.663253 0.943757 0.741731
O O5 0.250000 0.750000 0.772429
O O6 0.099314 0.887042 0.722595
O O7 0.001966 0.802245 0.840433
O O8 0.840371 0.510230 0.877396
O O9 0.500000 0.500000 0.500000
O O10 0.487650 0.346825 0.577763
O O11 0.255390 0.410507 0.503605
O O12 0.750000 0.750000 0.905139
O O13 0.982717 0.819458 0.980216
O O14 0.000000 0.000000 0.000000
#
# Coordination Sequence:
#
# PCOD9432582 Si02
#       6
#     8   8   8   8   8   8
#     4  11  24  43  67  99 127 173 221 265 330 392
#     4  10  23  41  64  96 129 168 217 267 324 382
#     4  11  24  43  68  94 133 169 219 271 325 393
#     4  11  25  43  64  98 130 171 218 272 321 388
#     4  10  23  44  64  93 132 168 214 267 318 385
#     4  11  23  43  67  92 129 173 215 263 329 386
#
# _framework density 20.304473000000002
#
# number of rings (size 3 to 8) (size 9 to 14) (size 15 to 20)
#    0.000    1.333    3.333    1.000    7.000    1.333 
#    0.000    0.000    0.000    0.000    0.000    0.000 
#    0.000    0.000    0.000    0.000    0.000    0.000 
#
# Total GULP energy -268410.996719 kJ/mol
# GULP energy per Si atom -5591.895765 kJ/mol
# Density = 2.025826 g / cm^3
# Si number density = 20.304473 Si / 1000 Ang^3
#
#
#
# Elastic Constant Matrix: (Units=GPa)
#
#
# Indices 1 2 3 4 5 6 
#
# 1 24.0796 12.7167 28.9999 0.0000 0.0000 0.0000
# 2 12.7167 70.7571 22.9919 0.0000 0.0000 0.0000
# 3 28.9999 22.9919 157.2090 0.0000 0.0000 0.0000
# 4 0.0000 0.0000 0.0000 38.2068 0.0000 0.0000
# 5 0.0000 0.0000 0.0000 0.0000 32.8549 0.0000
# 6 0.0000 0.0000 0.0000 0.0000 0.0000 28.9397
#
#
#
# Elastic Compliance Matrix: (Units=1/GPa)
#
#
# Indices 1 2 3 4 5 6 
#
# 1 0.056612 -0.007119 -0.009402 0.000000 0.000000 0.000000
# 2 -0.007119 0.015733 -0.000988 0.000000 0.000000 0.000000
# 3 -0.009402 -0.000988 0.008240 0.000000 0.000000 0.000000
# 4 0.000000 0.000000 0.000000 0.026173 0.000000 0.000000
# 5 0.000000 0.000000 0.000000 0.000000 0.030437 0.000000
# 6 0.000000 0.000000 0.000000 0.000000 0.000000 0.034555
#
#
# Mechanical properties :
#
#
# Convention : Reuss Voigt Hill
#
# Bulk Modulus (GPa) = 21.94572 42.38473 32.16523
# Shear Modulus (GPa) = 22.52695 32.48942 27.50819
#
# Velocity S-wave (km/s) = 3.33447 4.00448 3.68473
# Velocity P-wave (km/s) = 5.06524 6.50392 5.82914
#
# Compressibility (1/GPa) = 0.04556696
#
# Stress axis : x y z
#
# Youngs Moduli (GPa) = 17.66420 63.55930 121.36320
#
# Poissons Ratio (x) = 0.45250 1.14103
# Poissons Ratio (y) = 0.12576 0.11987
# Poissons Ratio (z) = 0.16607 0.06278
#
# Static dielectric constant tensor:
#      x y z
#    x 1.687190 0.000000 0.000000 
#    y 0.000000 1.764430 0.000000 
#    z 0.000000 0.000000 1.671720 
# 
# From -- ./inp_files/14804.got.cif
#   From: 2010.05.17/outbox.cif.g08.bks.cpg/sg56_8_cif.got.tgz:14804.got - 2010.06.03 13:42:01.
