data_PCOD9432008
_publ_section_title
;
Structure prediction by ZEFSAII (Michael W. Deem and Ramdas Pophale) SiO2 
 PCOD9432008
Probable space group: P C C N
;
_chemical_formula_sum "Si O2"
_cell_formula_units_Z 52
_cell_length_a 10.511005
_cell_length_b 30.616398
_cell_length_c 8.236853
_cell_angle_alpha 90.000000
_cell_angle_beta 90.000000
_cell_angle_gamma 90.000000
_cell_volume 2650.694353
_symmetry_space_group_name_H-M "P C C N"
_symmetry_group_IT_number 56
_symmetry_cell_setting 'orthorhombic'
loop_
_space_group_symop_operation_xyz
x,y,z
1/2-x,1/2-y,z
1/2+x,-y,1/2-z
-x,1/2+y,1/2-z
-x,-y,-z
1/2+x,1/2+y,-z
1/2-x,y,1/2+z
x,1/2-y,1/2+z
loop_
_atom_site_type_symbol
_atom_site_label
_atom_site_fract_x
_atom_site_fract_y
_atom_site_fract_z
Si Si1 0.148002 0.814139 0.155495
Si Si2 0.000387 0.428040 0.066514
Si Si3 0.703523 0.951874 0.471354
Si Si4 0.795697 0.015812 0.700541
Si Si5 0.156982 0.894999 0.730958
Si Si6 0.499561 0.887626 0.569250
Si Si7 0.250000 0.750000 0.392882
O O1 0.248624 0.853339 0.202197
O O2 0.016361 0.837280 0.114588
O O3 0.147057 0.775589 0.285912
O O4 0.194192 0.788668 0.998476
O O5 0.147409 0.440290 0.042497
O O6 0.903602 0.468607 0.077471
O O7 0.986159 0.409130 0.250638
O O8 0.944918 0.398387 0.917839
O O9 0.628227 0.908005 0.502533
O O10 0.687842 0.987456 0.613071
O O11 0.650311 0.979706 0.322055
O O12 0.735146 0.059428 0.775316
O O13 0.097717 0.894032 0.914549
#
# Coordination Sequence:
#
# PCOD9432008 Si02
#       7
#     8   8   8   8   8   8   4
#     4  11  21  44  66 109 134 159 211 274 357 415
#     4  12  25  42  61  88 136 186 228 290 324 384
#     4  12  26  39  58  91 132 191 245 271 317 388
#     4  12  23  40  62  88 133 183 238 280 328 376
#     4  12  24  41  67  98 136 175 219 286 344 403
#     4  12  25  42  65  93 137 180 224 278 345 404
#     4  10  22  38  76 104 136 158 200 280 362 432
#
# _framework density 19.6175
#
# number of rings (size 3 to 8) (size 9 to 14) (size 15 to 20)
#    0.000    0.308    6.154    4.154    2.154    1.231 
#    0.000    0.000    0.000    0.000    0.000   18.308 
#    0.000    0.000    0.000    0.000    0.000    0.000 
#
# Total GULP energy -289653.840244 kJ/mol
# GULP energy per Si atom -5570.266159 kJ/mol
# Density = 1.957285 g / cm^3
# Si number density = 19.617500 Si / 1000 Ang^3
#
#
#
# Elastic Constant Matrix: (Units=GPa)
#
#
# Indices 1 2 3 4 5 6 
#
# 1 73.7982 52.2284 22.5983 0.0000 0.0000 0.0000
# 2 52.2284 115.1430 40.3666 0.0000 0.0000 0.0000
# 3 22.5983 40.3666 112.3896 0.0000 0.0000 0.0000
# 4 0.0000 0.0000 0.0000 17.1990 0.0000 0.0000
# 5 0.0000 0.0000 0.0000 0.0000 17.8791 0.0000
# 6 0.0000 0.0000 0.0000 0.0000 0.0000 24.0189
#
#
#
# Elastic Compliance Matrix: (Units=1/GPa)
#
#
# Indices 1 2 3 4 5 6 
#
# 1 0.020032 -0.008780 -0.000874 0.000000 0.000000 0.000000
# 2 -0.008780 0.013784 -0.003185 0.000000 0.000000 0.000000
# 3 -0.000874 -0.003185 0.010218 0.000000 0.000000 0.000000
# 4 0.000000 0.000000 0.000000 0.058143 0.000000 0.000000
# 5 0.000000 0.000000 0.000000 0.000000 0.055931 0.000000
# 6 0.000000 0.000000 0.000000 0.000000 0.000000 0.041634
#
#
# Mechanical properties :
#
#
# Convention : Reuss Voigt Hill
#
# Bulk Modulus (GPa) = 54.48347 59.07971 56.78159
# Shear Modulus (GPa) = 21.59463 24.22855 22.91159
#
# Velocity S-wave (km/s) = 3.32141 3.51814 3.42119
# Velocity P-wave (km/s) = 6.52244 6.83259 6.67931
#
# Compressibility (1/GPa) = 0.01835419
#
# Stress axis : x y z
#
# Youngs Moduli (GPa) = 49.92039 72.54747 97.87098
#
# Poissons Ratio (x) = 0.63695 0.08558
# Poissons Ratio (y) = 0.43829 0.31176
# Poissons Ratio (z) = 0.04365 0.23109
#
# Static dielectric constant tensor:
#      x y z
#    x 1.730570 0.000000 0.000000 
#    y 0.000000 1.922240 0.000000 
#    z 0.000000 0.000000 1.892260 
# 
# From -- ./inp_files/2862.got.cif
#   From: 2010.05.17/outbox.cif.g08.bks.cpg/sg56_2_cif.got.tgz:2862.got - 2010.06.03 13:42:01.
