data_PCOD9432094
_publ_section_title
;
Structure prediction by ZEFSAII (Michael W. Deem and Ramdas Pophale) SiO2 
 PCOD9432094
Probable space group: P C C N
;
_chemical_formula_sum "Si O2"
_cell_formula_units_Z 64
_cell_length_a 17.053248
_cell_length_b 12.332672
_cell_length_c 14.632877
_cell_angle_alpha 90.000000
_cell_angle_beta 90.000000
_cell_angle_gamma 90.000000
_cell_volume 3077.471298
_symmetry_space_group_name_H-M "P C C N"
_symmetry_group_IT_number 56
_symmetry_cell_setting 'orthorhombic'
loop_
_space_group_symop_operation_xyz
x,y,z
1/2-x,1/2-y,z
1/2+x,-y,1/2-z
-x,1/2+y,1/2-z
-x,-y,-z
1/2+x,1/2+y,-z
1/2-x,y,1/2+z
x,1/2-y,1/2+z
loop_
_atom_site_type_symbol
_atom_site_label
_atom_site_fract_x
_atom_site_fract_y
_atom_site_fract_z
Si Si1 0.473744 0.841059 0.731749
Si Si2 0.099003 0.500008 0.221139
Si Si3 0.200837 0.871117 0.468822
Si Si4 0.913176 0.549597 0.988042
Si Si5 0.559592 0.779450 0.556033
Si Si6 0.166963 0.774662 0.670470
Si Si7 0.074584 0.784474 0.908517
Si Si8 0.647758 0.507226 0.090948
O O1 0.512338 0.957916 0.751035
O O2 0.533250 0.784714 0.661092
O O3 0.389043 0.829611 0.682308
O O4 0.468362 0.778055 0.827120
O O5 0.110393 0.454000 0.118933
O O6 0.116009 0.627749 0.212349
O O7 0.157984 0.461587 0.301758
O O8 0.191056 0.822923 0.571479
O O9 0.161490 0.770911 0.413383
O O10 0.137832 0.964764 0.456718
O O11 0.280291 0.939156 0.451644
O O12 0.900228 0.668029 0.028419
O O13 0.000000 0.500000 0.000000
O O14 0.478513 0.771351 0.498463
O O15 0.612304 0.887400 0.540515
O O16 0.250000 0.750000 0.716946
O O17 0.082335 0.913257 0.901115
#
# Coordination Sequence:
#
# PCOD9432094 Si02
#       8
#     8   8   8   8   8   8   8   8
#     4  11  22  38  66 100 132 174 229 291 332 414
#     4  10  22  40  63  99 136 170 230 290 343 414
#     4  11  24  41  67  97 131 183 228 280 352 423
#     4  11  20  42  73  92 128 182 242 283 339 424
#     4  11  23  42  66  98 133 175 229 285 341 413
#     4  11  22  40  65  97 135 180 234 290 345 418
#     4  12  21  40  67  95 136 178 229 276 351 407
#     4  11  25  38  62 101 144 170 221 291 353 407
#
# _framework density 20.796294
#
# number of rings (size 3 to 8) (size 9 to 14) (size 15 to 20)
#    0.000    1.000    5.000    2.250    1.750    0.500 
#    0.000    0.000    5.500    3.000    0.000    0.000 
#    0.000    0.000    0.000    0.000    0.000    0.000 
#
# Total GULP energy -356293.615144 kJ/mol
# GULP energy per Si atom -5567.087737 kJ/mol
# Density = 2.074896 g / cm^3
# Si number density = 20.796294 Si / 1000 Ang^3
#
#
#
# Elastic Constant Matrix: (Units=GPa)
#
#
# Indices 1 2 3 4 5 6 
#
# 1 88.7595 65.9965 8.8069 0.0000 0.0000 0.0000
# 2 65.9965 154.7279 19.3312 0.0000 0.0000 0.0000
# 3 8.8069 19.3312 76.7326 0.0000 0.0000 0.0000
# 4 0.0000 0.0000 0.0000 -49.0133 0.0000 0.0000
# 5 0.0000 0.0000 0.0000 0.0000 24.9293 0.0000
# 6 0.0000 0.0000 0.0000 0.0000 0.0000 44.3766
#
#
#
# Elastic Compliance Matrix: (Units=1/GPa)
#
#
# Indices 1 2 3 4 5 6 
#
# 1 0.016500 -0.007022 -0.000125 0.000000 0.000000 0.000000
# 2 -0.007022 0.009662 -0.001628 0.000000 0.000000 0.000000
# 3 -0.000125 -0.001628 0.013457 0.000000 0.000000 0.000000
# 4 0.000000 0.000000 0.000000 -0.020403 0.000000 0.000000
# 5 0.000000 0.000000 0.000000 0.000000 0.040113 0.000000
# 6 0.000000 0.000000 0.000000 0.000000 0.000000 0.022534
#
#
# Mechanical properties :
#
#
# Convention : Reuss Voigt Hill
#
# Bulk Modulus (GPa) = 45.31355 56.49879 50.90617
# Shear Modulus (GPa) = 46.82974 19.13089 32.98032
#
# Velocity S-wave (km/s) = 4.75049 3.03631 3.98662
# Velocity P-wave (km/s) = 7.20598 6.28641 6.76184
#
# Compressibility (1/GPa) = 0.02206845
#
# Stress axis : x y z
#
# Youngs Moduli (GPa) = 60.60562 103.50268 74.31227
#
# Poissons Ratio (x) = 0.72682 0.00926
# Poissons Ratio (y) = 0.42559 0.12098
# Poissons Ratio (z) = 0.00756 0.16851
#
# Static dielectric constant tensor:
#      x y z
#    x 1.820160 0.000000 0.000000 
#    y 0.000000 1.772580 0.000000 
#    z 0.000000 0.000000 1.873640 
# 
# From -- ./inp_files/12868.got.cif
#   From: 2010.05.17/outbox.cif.g08.bks.cpg/sg56_7_cif.got.tgz:12868.got - 2010.06.03 13:42:01.
