data_PCOD9432338
_publ_section_title
;
Structure prediction by ZEFSAII (Michael W. Deem and Ramdas Pophale) SiO2 
 PCOD9432338
Probable space group: P C C N
;
_chemical_formula_sum "Si O2"
_cell_formula_units_Z 56
_cell_length_a 19.821723
_cell_length_b 9.123281
_cell_length_c 14.488870
_cell_angle_alpha 90.000000
_cell_angle_beta 90.000000
_cell_angle_gamma 90.000000
_cell_volume 2620.154918
_symmetry_space_group_name_H-M "P C C N"
_symmetry_group_IT_number 56
_symmetry_cell_setting 'orthorhombic'
loop_
_space_group_symop_operation_xyz
x,y,z
1/2-x,1/2-y,z
1/2+x,-y,1/2-z
-x,1/2+y,1/2-z
-x,-y,-z
1/2+x,1/2+y,-z
1/2-x,y,1/2+z
x,1/2-y,1/2+z
loop_
_atom_site_type_symbol
_atom_site_label
_atom_site_fract_x
_atom_site_fract_y
_atom_site_fract_z
Si Si1 0.425188 0.723361 0.998061
Si Si2 0.533186 0.841099 0.852575
Si Si3 0.327307 0.236567 0.670205
Si Si4 0.006958 0.175106 0.337839
Si Si5 0.289531 0.886983 0.942849
Si Si6 0.834247 0.965503 0.977987
Si Si7 0.658104 0.697295 0.616189
O O1 0.452054 0.739904 0.101635
O O2 0.485913 0.774229 0.932052
O O3 0.360394 0.826778 0.979963
O O4 0.396139 0.560460 0.982418
O O5 0.613753 0.838217 0.870934
O O6 0.518934 0.745513 0.761553
O O7 0.513860 0.006959 0.832425
O O8 0.250000 0.250000 0.639418
O O9 0.348663 0.080643 0.626956
O O10 0.328402 0.252597 0.779918
O O11 0.078079 0.177760 0.390608
O O12 0.250000 0.750000 0.893632
O O13 0.233507 0.937870 0.017015
O O14 0.306793 0.038476 0.891187
O O15 0.823767 0.820701 0.040890
#
# Coordination Sequence:
#
# PCOD9432338 Si02
#       7
#     8   8   8   8   8   8   8
#     4  11  25  43  71  99 138 182 222 280 352 395
#     4  11  26  45  69 100 137 176 228 281 343 408
#     4  11  25  41  68 100 132 174 226 277 342 401
#     4  11  26  43  70  99 135 175 227 288 334 415
#     4  10  22  43  64  97 135 181 230 278 339 403
#     4  11  25  41  69  99 137 181 229 281 331 422
#     4  11  23  44  68  95 135 177 229 280 342 401
#
# _framework density 21.372782000000001
#
# number of rings (size 3 to 8) (size 9 to 14) (size 15 to 20)
#    0.000    1.143    1.429    3.429   12.000    1.143 
#    0.000    2.143    0.000    0.000    0.000    0.000 
#    0.000    0.000    0.000    0.000    0.000    0.000 
#
# Total GULP energy -312601.261474 kJ/mol
# GULP energy per Si atom -5582.165383 kJ/mol
# Density = 2.132414 g / cm^3
# Si number density = 21.372782 Si / 1000 Ang^3
#
#
#
# Elastic Constant Matrix: (Units=GPa)
#
#
# Indices 1 2 3 4 5 6 
#
# 1 153.3631 43.7117 23.7048 0.0000 0.0000 0.0000
# 2 43.7117 109.0406 22.7889 0.0000 0.0000 0.0000
# 3 23.7048 22.7889 76.1875 0.0000 0.0000 0.0000
# 4 0.0000 0.0000 0.0000 25.1208 0.0000 0.0000
# 5 0.0000 0.0000 0.0000 0.0000 7.9241 0.0000
# 6 0.0000 0.0000 0.0000 0.0000 0.0000 37.6895
#
#
#
# Elastic Compliance Matrix: (Units=1/GPa)
#
#
# Indices 1 2 3 4 5 6 
#
# 1 0.007526 -0.002696 -0.001535 0.000000 0.000000 0.000000
# 2 -0.002696 0.010748 -0.002376 0.000000 0.000000 0.000000
# 3 -0.001535 -0.002376 0.014314 0.000000 0.000000 0.000000
# 4 0.000000 0.000000 0.000000 0.039808 0.000000 0.000000
# 5 0.000000 0.000000 0.000000 0.000000 0.126197 0.000000
# 6 0.000000 0.000000 0.000000 0.000000 0.000000 0.026533
#
#
# Mechanical properties :
#
#
# Convention : Reuss Voigt Hill
#
# Bulk Modulus (GPa) = 51.61715 57.66688 54.64201
# Shear Modulus (GPa) = 20.42495 30.70594 25.56545
#
# Velocity S-wave (km/s) = 3.09472 3.79447 3.46232
# Velocity P-wave (km/s) = 6.08054 6.79981 6.45021
#
# Compressibility (1/GPa) = 0.01937341
#
# Stress axis : x y z
#
# Youngs Moduli (GPa) = 132.86828 93.03761 69.86214
#
# Poissons Ratio (x) = 0.25085 0.10725
# Poissons Ratio (y) = 0.35824 0.16600
# Poissons Ratio (z) = 0.20398 0.22107
#
# Static dielectric constant tensor:
#      x y z
#    x 1.811340 0.000000 0.000000 
#    y 0.000000 1.786120 0.000000 
#    z 0.000000 0.000000 1.742820 
# 
# From -- ./inp_files/13072.got.cif
#   From: 2010.05.17/outbox.cif.g08.bks.cpg/sg56_7_cif.got.tgz:13072.got - 2010.06.03 13:42:01.
