data_PCOD9432952
_publ_section_title
;
Structure prediction by ZEFSAII (Michael W. Deem and Ramdas Pophale) SiO2 
 PCOD9432952
Probable space group: P C C N
;
_chemical_formula_sum "Si O2"
_cell_formula_units_Z 24
_cell_length_a 8.954704
_cell_length_b 9.591489
_cell_length_c 10.187862
_cell_angle_alpha 90.000000
_cell_angle_beta 90.000000
_cell_angle_gamma 90.000000
_cell_volume 875.024718
_symmetry_space_group_name_H-M "P C C N"
_symmetry_group_IT_number 56
_symmetry_cell_setting 'orthorhombic'
loop_
_space_group_symop_operation_xyz
x,y,z
1/2-x,1/2-y,z
1/2+x,-y,1/2-z
-x,1/2+y,1/2-z
-x,-y,-z
1/2+x,1/2+y,-z
1/2-x,y,1/2+z
x,1/2-y,1/2+z
loop_
_atom_site_type_symbol
_atom_site_label
_atom_site_fract_x
_atom_site_fract_y
_atom_site_fract_z
Si Si1 0.779507 0.112161 0.016407
Si Si2 0.043531 0.373132 0.337410
Si Si3 0.024786 0.365791 0.034393
O O1 0.866250 0.101413 0.872380
O O2 0.621764 0.014456 0.997030
O O3 0.629237 0.009322 0.612593
O O4 0.635191 0.230973 0.049031
O O5 0.086612 0.236355 0.420358
O O6 0.072183 0.349698 0.185790
#
# Coordination Sequence:
#
# PCOD9432952 Si02
#       3
#     8   8   8
#     4   9  22  43  73  94 142 188 242 300 359 430
#     4  10  24  44  70 104 142 191 252 297 365 449
#     4  11  26  41  72 103 146 193 238 303 376 432
#
# _framework density 27.427796000000001
#
# number of rings (size 3 to 8) (size 9 to 14) (size 15 to 20)
#    0.000    2.000    0.000    0.000   18.667    8.000 
#    0.000    3.333    0.000    0.000    0.000    0.000 
#    0.000    0.000    0.000    0.000    0.000    0.000 
#
# Total GULP energy -134024.652426 kJ/mol
# GULP energy per Si atom -5584.360518 kJ/mol
# Density = 2.736537 g / cm^3
# Si number density = 27.427796 Si / 1000 Ang^3
#
#
#
# Elastic Constant Matrix: (Units=GPa)
#
#
# Indices 1 2 3 4 5 6 
#
# 1 192.1852 101.9249 31.3720 0.0000 0.0000 0.0000
# 2 101.9249 358.0787 146.5816 0.0000 0.0000 0.0000
# 3 31.3720 146.5816 254.9210 0.0000 0.0000 0.0000
# 4 0.0000 0.0000 0.0000 30.6393 0.0000 0.0000
# 5 0.0000 0.0000 0.0000 0.0000 14.0969 0.0000
# 6 0.0000 0.0000 0.0000 0.0000 0.0000 72.1154
#
#
#
# Elastic Compliance Matrix: (Units=1/GPa)
#
#
# Indices 1 2 3 4 5 6 
#
# 1 0.006149 -0.001884 0.000327 0.000000 0.000000 0.000000
# 2 -0.001884 0.004230 -0.002200 0.000000 0.000000 0.000000
# 3 0.000327 -0.002200 0.005148 0.000000 0.000000 0.000000
# 4 0.000000 0.000000 0.000000 0.032638 0.000000 0.000000
# 5 0.000000 0.000000 0.000000 0.000000 0.070937 0.000000
# 6 0.000000 0.000000 0.000000 0.000000 0.000000 0.013867
#
#
# Mechanical properties :
#
#
# Convention : Reuss Voigt Hill
#
# Bulk Modulus (GPa) = 124.82465 151.66020 138.24243
# Shear Modulus (GPa) = 34.92739 58.39076 46.65908
#
# Velocity S-wave (km/s) = 3.57239 4.61900 4.12899
# Velocity P-wave (km/s) = 7.91360 9.15758 8.55822
#
# Compressibility (1/GPa) = 0.00801124
#
# Stress axis : x y z
#
# Youngs Moduli (GPa) = 162.62314 236.42762 194.26022
#
# Poissons Ratio (x) = 0.44543 -0.06344
# Poissons Ratio (y) = 0.30638 0.42741
# Poissons Ratio (z) = -0.05311 0.52019
#
# Static dielectric constant tensor:
#      x y z
#    x 2.164580 0.000000 0.000000 
#    y 0.000000 2.122070 0.000000 
#    z 0.000000 0.000000 1.886450 
# 
# From -- ./inp_files/2353.got.cif
#   From: 2010.05.17/outbox.cif.g08.bks.cpg/sg56_2_cif.got.tgz:2353.got - 2010.06.03 13:42:01.
