data_PCOD9432124
_publ_section_title
;
Structure prediction by ZEFSAII (Michael W. Deem and Ramdas Pophale) SiO2 
 PCOD9432124
Probable space group: P C C N
;
_chemical_formula_sum "Si O2"
_cell_formula_units_Z 32
_cell_length_a 5.037999
_cell_length_b 13.075167
_cell_length_c 18.162508
_cell_angle_alpha 90.000000
_cell_angle_beta 90.000000
_cell_angle_gamma 90.000000
_cell_volume 1196.413046
_symmetry_space_group_name_H-M "P C C N"
_symmetry_group_IT_number 56
_symmetry_cell_setting 'orthorhombic'
loop_
_space_group_symop_operation_xyz
x,y,z
1/2-x,1/2-y,z
1/2+x,-y,1/2-z
-x,1/2+y,1/2-z
-x,-y,-z
1/2+x,1/2+y,-z
1/2-x,y,1/2+z
x,1/2-y,1/2+z
loop_
_atom_site_type_symbol
_atom_site_label
_atom_site_fract_x
_atom_site_fract_y
_atom_site_fract_z
Si Si1 0.422097 0.658463 0.458072
Si Si2 0.784124 0.934568 0.073788
Si Si3 0.071435 0.340600 0.208721
Si Si4 0.216287 0.932826 0.674525
O O1 0.250000 0.750000 0.490327
O O2 0.258316 0.552426 0.450575
O O3 0.680775 0.632648 0.506044
O O4 0.496620 0.686512 0.374759
O O5 0.568973 0.915164 0.138625
O O6 0.069036 0.919489 0.109412
O O7 0.250000 0.250000 0.239306
O O8 0.222612 0.449361 0.201467
O O9 0.816462 0.364263 0.258538
#
# Coordination Sequence:
#
# PCOD9432124 Si02
#       4
#     8   8   8   8
#     4  10  22  40  66  98 132 176 230 281 339 410
#     4  10  24  43  66  94 136 180 220 282 348 404
#     4  11  24  42  72 103 139 186 237 290 350 419
#     4  11  24  45  66  98 139 178 227 284 345 412
#
# _framework density 26.746614999999998
#
# number of rings (size 3 to 8) (size 9 to 14) (size 15 to 20)
#    0.000    1.500    0.000    4.500    0.000   15.000 
#    0.000    0.000    0.000    0.000    0.000    0.000 
#    0.000    0.000    0.000    0.000    0.000    0.000 
#
# Total GULP energy -179866.459111 kJ/mol
# GULP energy per Si atom -5620.826847 kJ/mol
# Density = 2.668574 g / cm^3
# Si number density = 26.746615 Si / 1000 Ang^3
#
#
#
# Elastic Constant Matrix: (Units=GPa)
#
#
# Indices 1 2 3 4 5 6 
#
# 1 90.6697 48.6845 41.8150 0.0000 0.0000 0.0000
# 2 48.6845 133.3889 31.2811 0.0000 0.0000 0.0000
# 3 41.8150 31.2811 142.2848 0.0000 0.0000 0.0000
# 4 0.0000 0.0000 0.0000 15.7665 0.0000 0.0000
# 5 0.0000 0.0000 0.0000 0.0000 50.1588 0.0000
# 6 0.0000 0.0000 0.0000 0.0000 0.0000 53.6965
#
#
#
# Elastic Compliance Matrix: (Units=1/GPa)
#
#
# Indices 1 2 3 4 5 6 
#
# 1 0.015139 -0.004726 -0.003410 0.000000 0.000000 0.000000
# 2 -0.004726 0.009380 -0.000673 0.000000 0.000000 0.000000
# 3 -0.003410 -0.000673 0.008178 0.000000 0.000000 0.000000
# 4 0.000000 0.000000 0.000000 0.063426 0.000000 0.000000
# 5 0.000000 0.000000 0.000000 0.000000 0.019937 0.000000
# 6 0.000000 0.000000 0.000000 0.000000 0.000000 0.018623
#
#
# Mechanical properties :
#
#
# Convention : Reuss Voigt Hill
#
# Bulk Modulus (GPa) = 66.31882 67.76718 67.04300
# Shear Modulus (GPa) = 31.78086 40.22855 36.00470
#
# Velocity S-wave (km/s) = 3.45080 3.88243 3.67296
# Velocity P-wave (km/s) = 6.38172 6.74458 6.56566
#
# Compressibility (1/GPa) = 0.01507868
#
# Stress axis : x y z
#
# Youngs Moduli (GPa) = 66.05338 106.61431 122.27377
#
# Poissons Ratio (x) = 0.50384 0.41698
# Poissons Ratio (y) = 0.31216 0.08232
# Poissons Ratio (z) = 0.22526 0.07178
#
# Static dielectric constant tensor:
#      x y z
#    x 2.093690 0.000000 0.000000 
#    y 0.000000 2.040200 0.000000 
#    z 0.000000 0.000000 2.069480 
# 
# From -- ./inp_files/13678.got.cif
#   From: 2010.05.17/outbox.cif.g08.bks.cpg/sg56_7_cif.got.tgz:13678.got - 2010.06.03 13:42:01.
