data_PCOD9432312
_publ_section_title
;
Structure prediction by ZEFSAII (Michael W. Deem and Ramdas Pophale) SiO2 
 PCOD9432312
Probable space group: P C C N
;
_chemical_formula_sum "Si O2"
_cell_formula_units_Z 48
_cell_length_a 8.057901
_cell_length_b 10.261130
_cell_length_c 22.613166
_cell_angle_alpha 90.000000
_cell_angle_beta 90.000000
_cell_angle_gamma 90.000000
_cell_volume 1869.728242
_symmetry_space_group_name_H-M "P C C N"
_symmetry_group_IT_number 56
_symmetry_cell_setting 'orthorhombic'
loop_
_space_group_symop_operation_xyz
x,y,z
1/2-x,1/2-y,z
1/2+x,-y,1/2-z
-x,1/2+y,1/2-z
-x,-y,-z
1/2+x,1/2+y,-z
1/2-x,y,1/2+z
x,1/2-y,1/2+z
loop_
_atom_site_type_symbol
_atom_site_label
_atom_site_fract_x
_atom_site_fract_y
_atom_site_fract_z
Si Si1 0.531905 0.821586 0.906839
Si Si2 0.131283 0.019267 0.793801
Si Si3 0.250000 0.750000 0.610012
Si Si4 0.250000 0.750000 0.817255
Si Si5 0.523407 0.823020 0.528343
Si Si6 0.192601 0.429634 0.915325
Si Si7 0.746090 0.511882 0.328749
O O1 0.413500 0.759333 0.857449
O O2 0.423848 0.948150 0.924991
O O3 0.698641 0.885756 0.880426
O O4 0.534209 0.725687 0.962063
O O5 0.219778 0.880416 0.782284
O O6 0.153976 0.075879 0.728466
O O7 0.236679 0.077205 0.848403
O O8 0.941178 0.005453 0.814310
O O9 0.354423 0.837168 0.563486
O O10 0.319725 0.632831 0.651691
O O11 0.596522 0.698888 0.565340
O O12 0.647241 0.940173 0.542300
#
# Coordination Sequence:
#
# PCOD9432312 Si02
#       7
#     8   8   4   4   8   8   8
#     4  11  24  47  69 105 142 188 234 299 351 426
#     4  11  24  47  68 106 139 189 232 295 353 434
#     4  12  24  44  70 112 136 188 240 296 362 430
#     4  10  24  46  68 100 146 182 240 286 358 420
#     4  11  23  43  68 104 139 185 241 289 350 425
#     4  10  22  42  71  95 141 185 231 287 352 413
#     4  12  26  44  76 103 147 182 240 293 369 420
#
# _framework density 25.672180999999998
#
# number of rings (size 3 to 8) (size 9 to 14) (size 15 to 20)
#    0.000    1.000    3.333    3.500    0.000    3.333 
#    0.000    3.333    0.000    0.000    0.000    0.000 
#    0.000    0.000    0.000    0.000    0.000    0.000 
#
# Total GULP energy -268458.721730 kJ/mol
# GULP energy per Si atom -5592.890036 kJ/mol
# Density = 2.561375 g / cm^3
# Si number density = 25.672181 Si / 1000 Ang^3
#
#
#
# Elastic Constant Matrix: (Units=GPa)
#
#
# Indices 1 2 3 4 5 6 
#
# 1 83.2150 -5.1591 46.2102 0.0000 0.0000 0.0000
# 2 -5.1591 67.0104 24.4249 0.0000 0.0000 0.0000
# 3 46.2102 24.4249 165.5148 0.0000 0.0000 0.0000
# 4 0.0000 0.0000 0.0000 22.6048 0.0000 0.0000
# 5 0.0000 0.0000 0.0000 0.0000 46.5611 0.0000
# 6 0.0000 0.0000 0.0000 0.0000 0.0000 36.4191
#
#
#
# Elastic Compliance Matrix: (Units=1/GPa)
#
#
# Indices 1 2 3 4 5 6 
#
# 1 0.014695 0.002776 -0.004512 0.000000 0.000000 0.000000
# 2 0.002776 0.016296 -0.003180 0.000000 0.000000 0.000000
# 3 -0.004512 -0.003180 0.007771 0.000000 0.000000 0.000000
# 4 0.000000 0.000000 0.000000 0.044238 0.000000 0.000000
# 5 0.000000 0.000000 0.000000 0.000000 0.021477 0.000000
# 6 0.000000 0.000000 0.000000 0.000000 0.000000 0.027458
#
#
# Mechanical properties :
#
#
# Convention : Reuss Voigt Hill
#
# Bulk Modulus (GPa) = 34.56696 49.63247 42.09972
# Shear Modulus (GPa) = 33.02280 37.80129 35.41204
#
# Velocity S-wave (km/s) = 3.59043 3.84143 3.71805
# Velocity P-wave (km/s) = 5.53915 6.24905 5.90478
#
# Compressibility (1/GPa) = 0.02892936
#
# Stress axis : x y z
#
# Youngs Moduli (GPa) = 68.05071 61.36549 128.68677
#
# Poissons Ratio (x) = -0.17036 0.58068
# Poissons Ratio (y) = -0.18891 0.40920
# Poissons Ratio (z) = 0.30707 0.19513
#
# Static dielectric constant tensor:
#      x y z
#    x 2.189740 0.000000 0.000000 
#    y 0.000000 2.234190 0.000000 
#    z 0.000000 0.000000 2.024980 
# 
# From -- ./inp_files/20540.got.cif
#   From: 2010.05.17/outbox.cif.g08.bks.cpg/sg56_11_cif.got.tgz:20540.got - 2010.06.03 13:42:01.
