data_PCOD9432983
_publ_section_title
;
Structure prediction by ZEFSAII (Michael W. Deem and Ramdas Pophale) SiO2 
 PCOD9432983
Probable space group: P C C N
;
_chemical_formula_sum "Si O2"
_cell_formula_units_Z 40
_cell_length_a 5.074424
_cell_length_b 11.705935
_cell_length_c 26.803305
_cell_angle_alpha 90.000000
_cell_angle_beta 90.000000
_cell_angle_gamma 90.000000
_cell_volume 1592.139837
_symmetry_space_group_name_H-M "P C C N"
_symmetry_group_IT_number 56
_symmetry_cell_setting 'orthorhombic'
loop_
_space_group_symop_operation_xyz
x,y,z
1/2-x,1/2-y,z
1/2+x,-y,1/2-z
-x,1/2+y,1/2-z
-x,-y,-z
1/2+x,1/2+y,-z
1/2-x,y,1/2+z
x,1/2-y,1/2+z
loop_
_atom_site_type_symbol
_atom_site_label
_atom_site_fract_x
_atom_site_fract_y
_atom_site_fract_z
Si Si1 0.549459 0.356440 0.446687
Si Si2 0.250000 0.250000 0.864029
Si Si3 0.052770 0.572071 0.813492
Si Si4 0.750000 0.750000 0.383582
Si Si5 0.558718 0.419917 0.803658
Si Si6 0.182332 0.076856 0.036267
O O1 0.750000 0.250000 0.448215
O O2 0.343141 0.343273 0.403118
O O3 0.684081 0.474810 0.434277
O O4 0.396998 0.366567 0.499169
O O5 0.475426 0.306321 0.831887
O O6 0.944891 0.672642 0.849485
O O7 0.844953 0.467768 0.815945
O O8 0.035991 0.607132 0.755147
O O9 0.345830 0.519174 0.818534
O O10 0.591476 0.832690 0.422537
O O11 0.000000 0.000000 0.000000
#
# Coordination Sequence:
#
# PCOD9432983 Si02
#       6
#     8   4   8   4   8   8
#     4  11  25  44  68  99 139 187 236 291 365 426
#     4  12  24  38  70 102 130 182 230 290 348 436
#     4  10  24  47  68 105 140 189 233 295 362 431
#     4  12  24  42  72 102 140 192 246 296 364 444
#     4  10  24  45  71 101 149 178 234 299 357 429
#     4  11  25  47  67  99 145 184 238 306 355 425
#
# _framework density 25.123422999999999
#
# number of rings (size 3 to 8) (size 9 to 14) (size 15 to 20)
#    0.000    1.200    0.000    4.800    8.400    0.800 
#   10.800    6.000    0.000    0.000    0.000    0.000 
#    0.000    0.000    0.000    0.000    0.000    0.000 
#
# Total GULP energy -223926.778416 kJ/mol
# GULP energy per Si atom -5598.169460 kJ/mol
# Density = 2.506624 g / cm^3
# Si number density = 25.123423 Si / 1000 Ang^3
#
#
#
# Elastic Constant Matrix: (Units=GPa)
#
#
# Indices 1 2 3 4 5 6 
#
# 1 63.2517 2.3239 8.6357 0.0000 0.0000 0.0000
# 2 2.3239 100.4949 52.6164 0.0000 0.0000 0.0000
# 3 8.6357 52.6164 131.4987 0.0000 0.0000 0.0000
# 4 0.0000 0.0000 0.0000 120.4494 0.0000 0.0000
# 5 0.0000 0.0000 0.0000 0.0000 18.5287 0.0000
# 6 0.0000 0.0000 0.0000 0.0000 0.0000 38.3640
#
#
#
# Elastic Compliance Matrix: (Units=1/GPa)
#
#
# Indices 1 2 3 4 5 6 
#
# 1 0.015957 0.000227 -0.001139 0.000000 0.000000 0.000000
# 2 0.000227 0.012591 -0.005053 0.000000 0.000000 0.000000
# 3 -0.001139 -0.005053 0.009701 0.000000 0.000000 0.000000
# 4 0.000000 0.000000 0.000000 0.008302 0.000000 0.000000
# 5 0.000000 0.000000 0.000000 0.000000 0.053970 0.000000
# 6 0.000000 0.000000 0.000000 0.000000 0.000000 0.026066
#
#
# Mechanical properties :
#
#
# Convention : Reuss Voigt Hill
#
# Bulk Modulus (GPa) = 37.99360 46.93304 42.46332
# Shear Modulus (GPa) = 33.94649 50.91302 42.42975
#
# Velocity S-wave (km/s) = 3.67984 4.50657 4.11402
# Velocity P-wave (km/s) = 5.76286 6.76760 6.28534
#
# Compressibility (1/GPa) = 0.02632022
#
# Stress axis : x y z
#
# Youngs Moduli (GPa) = 62.66847 79.42111 103.07923
#
# Poissons Ratio (x) = -0.01805 0.11739
# Poissons Ratio (y) = -0.01424 0.52086
# Poissons Ratio (z) = 0.07137 0.40131
#
# Static dielectric constant tensor:
#      x y z
#    x 1.926660 0.000000 0.000000 
#    y 0.000000 2.014070 0.000000 
#    z 0.000000 0.000000 1.987690 
# 
# From -- ./inp_files/21584.got.cif
#   From: 2010.05.17/outbox.cif.g08.bks.cpg/sg56_11_cif.got.tgz:21584.got - 2010.06.03 13:42:01.
