data_PCOD9432911
_publ_section_title
;
Structure prediction by ZEFSAII (Michael W. Deem and Ramdas Pophale) SiO2 
 PCOD9432911
Probable space group: P C C N
;
_chemical_formula_sum "Si O2"
_cell_formula_units_Z 40
_cell_length_a 10.914847
_cell_length_b 18.475933
_cell_length_c 9.100862
_cell_angle_alpha 90.000000
_cell_angle_beta 90.000000
_cell_angle_gamma 90.000000
_cell_volume 1835.297868
_symmetry_space_group_name_H-M "P C C N"
_symmetry_group_IT_number 56
_symmetry_cell_setting 'orthorhombic'
loop_
_space_group_symop_operation_xyz
x,y,z
1/2-x,1/2-y,z
1/2+x,-y,1/2-z
-x,1/2+y,1/2-z
-x,-y,-z
1/2+x,1/2+y,-z
1/2-x,y,1/2+z
x,1/2-y,1/2+z
loop_
_atom_site_type_symbol
_atom_site_label
_atom_site_fract_x
_atom_site_fract_y
_atom_site_fract_z
Si Si1 0.875407 0.710924 0.294217
Si Si2 0.047623 0.919439 0.325338
Si Si3 0.008393 0.685489 0.585138
Si Si4 0.982955 0.909382 0.647368
Si Si5 0.299471 0.669398 0.828765
O O1 0.750000 0.750000 0.271258
O O2 0.907500 0.702498 0.463594
O O3 0.983940 0.755220 0.211607
O O4 0.872799 0.632279 0.223738
O O5 0.995318 0.888682 0.173744
O O6 0.982917 0.892636 0.474429
O O7 0.182729 0.883914 0.338291
O O8 0.033983 0.005565 0.329134
O O9 0.131892 0.681711 0.486315
O O10 0.104543 0.874996 0.724761
O O11 0.250000 0.750000 0.783841
#
# Coordination Sequence:
#
# PCOD9432911 Si02
#       5
#     8   8   8   8   8
#     4  11  23  42  65  92 130 173 218 275 332 394
#     4  11  23  42  66  97 137 173 216 282 334 389
#     4  11  24  40  65  96 126 170 228 272 327 404
#     4  10  24  43  67 100 134 175 226 270 333 407
#     4  11  23  42  69  97 131 178 227 281 336 394
#
# _framework density 21.794826
#
# number of rings (size 3 to 8) (size 9 to 14) (size 15 to 20)
#    0.000    1.200    0.000    6.600    0.000    8.000 
#    0.000   11.000    0.000    0.000    0.000    0.000 
#    0.000    0.000    0.000    0.000    0.000    0.000 
#
# Total GULP energy -223349.297760 kJ/mol
# GULP energy per Si atom -5583.732444 kJ/mol
# Density = 2.174522 g / cm^3
# Si number density = 21.794826 Si / 1000 Ang^3
#
#
#
# Elastic Constant Matrix: (Units=GPa)
#
#
# Indices 1 2 3 4 5 6 
#
# 1 66.3431 41.7011 32.7254 0.0000 0.0000 0.0000
# 2 41.7011 113.2596 58.9937 0.0000 0.0000 0.0000
# 3 32.7254 58.9937 149.3613 0.0000 0.0000 0.0000
# 4 0.0000 0.0000 0.0000 41.6430 0.0000 0.0000
# 5 0.0000 0.0000 0.0000 0.0000 144.3314 0.0000
# 6 0.0000 0.0000 0.0000 0.0000 0.0000 34.9810
#
#
#
# Elastic Compliance Matrix: (Units=1/GPa)
#
#
# Indices 1 2 3 4 5 6 
#
# 1 0.020013 -0.006402 -0.001856 0.000000 0.000000 0.000000
# 2 -0.006402 0.013164 -0.003797 0.000000 0.000000 0.000000
# 3 -0.001856 -0.003797 0.008602 0.000000 0.000000 0.000000
# 4 0.000000 0.000000 0.000000 0.024014 0.000000 0.000000
# 5 0.000000 0.000000 0.000000 0.000000 0.006929 0.000000
# 6 0.000000 0.000000 0.000000 0.000000 0.000000 0.028587
#
#
# Mechanical properties :
#
#
# Convention : Reuss Voigt Hill
#
# Bulk Modulus (GPa) = 56.59732 66.20048 61.39890
# Shear Modulus (GPa) = 38.07893 57.22733 47.65313
#
# Velocity S-wave (km/s) = 4.18443 5.12975 4.68101
# Velocity P-wave (km/s) = 7.02642 8.09482 7.57947
#
# Compressibility (1/GPa) = 0.01766868
#
# Stress axis : x y z
#
# Youngs Moduli (GPa) = 49.96832 75.96527 116.25814
#
# Poissons Ratio (x) = 0.48630 0.21582
# Poissons Ratio (y) = 0.31987 0.44141
# Poissons Ratio (z) = 0.09276 0.28843
#
# Static dielectric constant tensor:
#      x y z
#    x 1.845400 0.000000 0.000000 
#    y 0.000000 1.803590 0.000000 
#    z 0.000000 0.000000 1.801210 
# 
# From -- ./inp_files/2574.got.cif
#   From: 2010.05.17/outbox.cif.g08.bks.cpg/sg56_2_cif.got.tgz:2574.got - 2010.06.03 13:42:01.
