data_PCOD9432011
_publ_section_title
;
Structure prediction by ZEFSAII (Michael W. Deem and Ramdas Pophale) SiO2 
 PCOD9432011
Probable space group: P C C N
;
_chemical_formula_sum "Si O2"
_cell_formula_units_Z 60
_cell_length_a 5.648317
_cell_length_b 20.547764
_cell_length_c 23.237114
_cell_angle_alpha 90.000000
_cell_angle_beta 90.000000
_cell_angle_gamma 90.000000
_cell_volume 2696.906067
_symmetry_space_group_name_H-M "P C C N"
_symmetry_group_IT_number 56
_symmetry_cell_setting 'orthorhombic'
loop_
_space_group_symop_operation_xyz
x,y,z
1/2-x,1/2-y,z
1/2+x,-y,1/2-z
-x,1/2+y,1/2-z
-x,-y,-z
1/2+x,1/2+y,-z
1/2-x,y,1/2+z
x,1/2-y,1/2+z
loop_
_atom_site_type_symbol
_atom_site_label
_atom_site_fract_x
_atom_site_fract_y
_atom_site_fract_z
Si Si1 0.348717 0.092311 0.034728
Si Si2 0.232236 0.464826 0.736717
Si Si3 0.994298 0.373713 0.819318
Si Si4 0.623729 0.180199 0.120196
Si Si5 0.903597 0.313404 0.242430
Si Si6 0.479937 0.562834 0.878195
Si Si7 0.602029 0.535377 0.585545
Si Si8 0.250000 0.250000 0.331587
O O1 0.473677 0.153660 0.065809
O O2 0.089430 0.082525 0.060657
O O3 0.482705 0.028258 0.058479
O O4 0.347152 0.085320 0.966318
O O5 0.998029 0.507686 0.755200
O O6 0.199434 0.403344 0.778566
O O7 0.174431 0.446640 0.671073
O O8 0.945551 0.427791 0.867369
O O9 0.085067 0.309366 0.853772
O O10 0.779801 0.361297 0.774905
O O11 0.750000 0.250000 0.108482
O O12 0.475538 0.176357 0.180147
O O13 0.815501 0.124326 0.135998
O O14 0.750000 0.250000 0.226946
O O15 0.071720 0.288145 0.291396
O O16 0.332863 0.496081 0.884553
#
# Coordination Sequence:
#
# PCOD9432011 Si02
#       8
#     8   8   8   8   8   8   8   4
#     4  10  23  40  66  87 126 172 225 273 343 406
#     4  12  26  40  65 105 138 175 226 289 354 408
#     4  11  22  39  62  90 134 172 224 280 344 410
#     4  10  22  39  59  93 129 169 221 276 333 402
#     4   9  20  37  56  86 125 168 215 268 336 402
#     4  11  22  38  64  95 129 169 220 275 341 409
#     4  10  22  44  61  93 126 172 220 283 340 406
#     4  10  24  38  60  92 128 184 222 266 346 420
#
# _framework density 22.247717999999999
#
# number of rings (size 3 to 8) (size 9 to 14) (size 15 to 20)
#    0.000    1.600    2.667    1.200    5.600    1.600 
#    0.000    3.333    0.000    0.000    0.000    0.000 
#    0.000    0.000    0.000    0.000    0.000    0.000 
#
# Total GULP energy -334420.805228 kJ/mol
# GULP energy per Si atom -5573.680087 kJ/mol
# Density = 2.219708 g / cm^3
# Si number density = 22.247718 Si / 1000 Ang^3
#
#
#
# Elastic Constant Matrix: (Units=GPa)
#
#
# Indices 1 2 3 4 5 6 
#
# 1 45.8681 34.4374 -10.7869 0.0000 0.0000 0.0000
# 2 34.4374 110.4851 41.9601 0.0000 0.0000 0.0000
# 3 -10.7869 41.9601 87.2137 0.0000 0.0000 0.0000
# 4 0.0000 0.0000 0.0000 27.2849 0.0000 0.0000
# 5 0.0000 0.0000 0.0000 0.0000 22.0406 0.0000
# 6 0.0000 0.0000 0.0000 0.0000 0.0000 35.0857
#
#
#
# Elastic Compliance Matrix: (Units=1/GPa)
#
#
# Indices 1 2 3 4 5 6 
#
# 1 0.036841 -0.016168 0.012335 0.000000 0.000000 0.000000
# 2 -0.016168 0.018170 -0.010742 0.000000 0.000000 0.000000
# 3 0.012335 -0.010742 0.018160 0.000000 0.000000 0.000000
# 4 0.000000 0.000000 0.000000 0.036650 0.000000 0.000000
# 5 0.000000 0.000000 0.000000 0.000000 0.045371 0.000000
# 6 0.000000 0.000000 0.000000 0.000000 0.000000 0.028502
#
#
# Mechanical properties :
#
#
# Convention : Reuss Voigt Hill
#
# Bulk Modulus (GPa) = 22.71556 41.64312 32.17934
# Shear Modulus (GPa) = 21.97646 28.74599 25.36123
#
# Velocity S-wave (km/s) = 3.14635 3.59846 3.37997
# Velocity P-wave (km/s) = 4.84064 6.00198 5.45232
#
# Compressibility (1/GPa) = 0.04402268
#
# Stress axis : x y z
#
# Youngs Moduli (GPa) = 27.14342 55.03619 55.06688
#
# Poissons Ratio (x) = 0.88982 -0.67927
# Poissons Ratio (y) = 0.43885 0.59150
# Poissons Ratio (z) = -0.33482 0.59117
#
# Static dielectric constant tensor:
#      x y z
#    x 1.860660 0.000000 0.000000 
#    y 0.000000 2.021940 0.000000 
#    z 0.000000 0.000000 1.821270 
# 
# From -- ./inp_files/20160.got.cif
#   From: 2010.05.17/outbox.cif.g08.bks.cpg/sg56_11_cif.got.tgz:20160.got - 2010.06.03 13:42:01.
