data_PCOD9432271
_publ_section_title
;
Structure prediction by ZEFSAII (Michael W. Deem and Ramdas Pophale) SiO2 
 PCOD9432271
Probable space group: P C C N
;
_chemical_formula_sum "Si O2"
_cell_formula_units_Z 28
_cell_length_a 15.828040
_cell_length_b 6.645133
_cell_length_c 9.483371
_cell_angle_alpha 90.000000
_cell_angle_beta 90.000000
_cell_angle_gamma 90.000000
_cell_volume 997.455565
_symmetry_space_group_name_H-M "P C C N"
_symmetry_group_IT_number 56
_symmetry_cell_setting 'orthorhombic'
loop_
_space_group_symop_operation_xyz
x,y,z
1/2-x,1/2-y,z
1/2+x,-y,1/2-z
-x,1/2+y,1/2-z
-x,-y,-z
1/2+x,1/2+y,-z
1/2-x,y,1/2+z
x,1/2-y,1/2+z
loop_
_atom_site_type_symbol
_atom_site_label
_atom_site_fract_x
_atom_site_fract_y
_atom_site_fract_z
Si Si1 0.542230 0.318886 0.592052
Si Si2 0.846725 0.304161 0.836437
Si Si3 0.865458 0.707894 0.318278
Si Si4 0.250000 0.250000 0.435124
O O1 0.500000 0.500000 0.500000
O O2 0.590425 0.326683 0.740347
O O3 0.618906 0.259133 0.491494
O O4 0.462278 0.182065 0.634422
O O5 0.750000 0.250000 0.813521
O O6 0.858915 0.543681 0.808057
O O7 0.819025 0.654109 0.170553
O O8 0.808229 0.637071 0.449948
#
# Coordination Sequence:
#
# PCOD9432271 Si02
#       4
#     8   8   8   4
#     4  10  23  43  63  99 138 172 224 281 341 396
#     4  11  24  41  70  99 133 176 230 281 334 403
#     4  10  23  42  67  95 136 176 225 277 343 401
#     4  10  22  42  66  96 134 178 224 276 344 402
#
# _framework density 28.071424
#
# number of rings (size 3 to 8) (size 9 to 14) (size 15 to 20)
#    0.000    1.714    0.000    2.571   12.000    0.000 
#    5.143    7.143    0.000    0.000    0.000    0.000 
#    0.000    0.000    0.000    0.000    0.000    0.000 
#
# Total GULP energy -156372.209496 kJ/mol
# GULP energy per Si atom -5584.721768 kJ/mol
# Density = 2.800753 g / cm^3
# Si number density = 28.071424 Si / 1000 Ang^3
#
#
#
# Elastic Constant Matrix: (Units=GPa)
#
#
# Indices 1 2 3 4 5 6 
#
# 1 188.6850 7.3766 33.5777 0.0000 0.0000 0.0000
# 2 7.3766 118.4212 -6.5083 0.0000 0.0000 0.0000
# 3 33.5777 -6.5083 191.3149 0.0000 0.0000 0.0000
# 4 0.0000 0.0000 0.0000 19.3209 0.0000 0.0000
# 5 0.0000 0.0000 0.0000 0.0000 35.8497 0.0000
# 6 0.0000 0.0000 0.0000 0.0000 0.0000 31.2765
#
#
#
# Elastic Compliance Matrix: (Units=1/GPa)
#
#
# Indices 1 2 3 4 5 6 
#
# 1 0.005489 -0.000396 -0.000977 0.000000 0.000000 0.000000
# 2 -0.000396 0.008489 0.000358 0.000000 0.000000 0.000000
# 3 -0.000977 0.000358 0.005411 0.000000 0.000000 0.000000
# 4 0.000000 0.000000 0.000000 0.051757 0.000000 0.000000
# 5 0.000000 0.000000 0.000000 0.000000 0.027894 0.000000
# 6 0.000000 0.000000 0.000000 0.000000 0.000000 0.031973
#
#
# Mechanical properties :
#
#
# Convention : Reuss Voigt Hill
#
# Bulk Modulus (GPa) = 57.60366 63.03479 60.31922
# Shear Modulus (GPa) = 36.01574 48.22109 42.11841
#
# Velocity S-wave (km/s) = 3.58579 4.14913 3.87770
# Velocity P-wave (km/s) = 6.14075 6.74223 6.44850
#
# Compressibility (1/GPa) = 0.01736001
#
# Stress axis : x y z
#
# Youngs Moduli (GPa) = 182.17778 117.80277 184.82171
#
# Poissons Ratio (x) = 0.04660 0.18054
# Poissons Ratio (y) = 0.07207 -0.06621
# Poissons Ratio (z) = 0.17796 -0.04220
#
# Static dielectric constant tensor:
#      x y z
#    x 2.142730 0.000000 0.000000 
#    y 0.000000 2.571560 0.000000 
#    z 0.000000 0.000000 2.088460 
# 
# From -- ./inp_files/1865.got.cif
#   From: 2010.05.17/outbox.cif.g08.bks.cpg/sg56_1_cif.got.tgz:1865.got - 2010.06.03 13:42:01.
