data_PCOD9432293
_publ_section_title
;
Structure prediction by ZEFSAII (Michael W. Deem and Ramdas Pophale) SiO2 
 PCOD9432293
Probable space group: P C C N
;
_chemical_formula_sum "Si O2"
_cell_formula_units_Z 36
_cell_length_a 24.186208
_cell_length_b 5.435428
_cell_length_c 10.641436
_cell_angle_alpha 90.000000
_cell_angle_beta 90.000000
_cell_angle_gamma 90.000000
_cell_volume 1398.948633
_symmetry_space_group_name_H-M "P C C N"
_symmetry_group_IT_number 56
_symmetry_cell_setting 'orthorhombic'
loop_
_space_group_symop_operation_xyz
x,y,z
1/2-x,1/2-y,z
1/2+x,-y,1/2-z
-x,1/2+y,1/2-z
-x,-y,-z
1/2+x,1/2+y,-z
1/2-x,y,1/2+z
x,1/2-y,1/2+z
loop_
_atom_site_type_symbol
_atom_site_label
_atom_site_fract_x
_atom_site_fract_y
_atom_site_fract_z
Si Si1 0.532230 0.065772 0.269673
Si Si2 0.945341 0.326499 0.003862
Si Si3 0.659032 0.907729 0.902360
Si Si4 0.311298 0.359906 0.331211
Si Si5 0.250000 0.750000 0.209642
O O1 0.486155 0.285720 0.256840
O O2 0.546153 0.083036 0.418526
O O3 0.570224 0.159899 0.152087
O O4 0.895267 0.437928 0.924597
O O5 0.000000 0.500000 0.000000
O O6 0.667349 0.777112 0.035247
O O7 0.652629 0.734850 0.783489
O O8 0.715095 0.065278 0.878278
O O9 0.250000 0.250000 0.318510
O O10 0.297258 0.641741 0.301154
#
# Coordination Sequence:
#
# PCOD9432293 Si02
#       5
#     8   8   8   8   4
#     4  10  22  45  70  98 141 189 236 292 351 422
#     4  10  24  44  67 101 138 185 232 285 352 424
#     4  11  24  42  67 102 132 183 230 287 361 417
#     4  10  22  43  69  96 136 173 229 292 354 429
#     4  10  22  42  68  98 132 170 232 288 362 420
#
# _framework density 25.733612999999998
#
# number of rings (size 3 to 8) (size 9 to 14) (size 15 to 20)
#    0.000    1.778    0.000    3.333    3.111    8.889 
#    8.000    0.000    0.000    0.000    0.000    0.000 
#    0.000    0.000    0.000    0.000    0.000    0.000 
#
# Total GULP energy -200849.742569 kJ/mol
# GULP energy per Si atom -5579.159516 kJ/mol
# Density = 2.567504 g / cm^3
# Si number density = 25.733613 Si / 1000 Ang^3
#
#
#
# Elastic Constant Matrix: (Units=GPa)
#
#
# Indices 1 2 3 4 5 6 
#
# 1 70.4793 3.6411 16.8059 0.0000 0.0000 0.0000
# 2 3.6411 34.5666 19.2935 0.0000 0.0000 0.0000
# 3 16.8059 19.2935 172.6401 0.0000 0.0000 0.0000
# 4 0.0000 0.0000 0.0000 37.4138 0.0000 0.0000
# 5 0.0000 0.0000 0.0000 0.0000 74.4158 0.0000
# 6 0.0000 0.0000 0.0000 0.0000 0.0000 17.2504
#
#
#
# Elastic Compliance Matrix: (Units=1/GPa)
#
#
# Indices 1 2 3 4 5 6 
#
# 1 0.014546 -0.000791 -0.001328 0.000000 0.000000 0.000000
# 2 -0.000791 0.030897 -0.003376 0.000000 0.000000 0.000000
# 3 -0.001328 -0.003376 0.006299 0.000000 0.000000 0.000000
# 4 0.000000 0.000000 0.000000 0.026728 0.000000 0.000000
# 5 0.000000 0.000000 0.000000 0.000000 0.013438 0.000000
# 6 0.000000 0.000000 0.000000 0.000000 0.000000 0.057970
#
#
# Mechanical properties :
#
#
# Convention : Reuss Voigt Hill
#
# Bulk Modulus (GPa) = 24.53826 39.68524 32.11175
# Shear Modulus (GPa) = 28.66122 41.67903 35.17013
#
# Velocity S-wave (km/s) = 3.34093 4.02883 3.70090
# Velocity P-wave (km/s) = 4.94355 6.09073 5.54688
#
# Compressibility (1/GPa) = 0.04075269
#
# Stress axis : x y z
#
# Youngs Moduli (GPa) = 68.74740 32.36534 158.75763
#
# Poissons Ratio (x) = 0.02561 0.21076
# Poissons Ratio (y) = 0.05440 0.53595
# Poissons Ratio (z) = 0.09127 0.10926
#
# Static dielectric constant tensor:
#      x y z
#    x 2.093700 0.000000 0.000000 
#    y 0.000000 3.350940 0.000000 
#    z 0.000000 0.000000 2.150620 
# 
# From -- ./inp_files/5542.got.cif
#   From: 2010.05.17/outbox.cif.g08.bks.cpg/sg56_3_cif.got.tgz:5542.got - 2010.06.03 13:42:01.
