data_PCOD9432764
_publ_section_title
;
Structure prediction by ZEFSAII (Michael W. Deem and Ramdas Pophale) SiO2 
 PCOD9432764
Probable space group: P C C N
;
_chemical_formula_sum "Si O2"
_cell_formula_units_Z 48
_cell_length_a 16.805714
_cell_length_b 8.350718
_cell_length_c 15.015593
_cell_angle_alpha 90.000000
_cell_angle_beta 90.000000
_cell_angle_gamma 90.000000
_cell_volume 2107.284994
_symmetry_space_group_name_H-M "P C C N"
_symmetry_group_IT_number 56
_symmetry_cell_setting 'orthorhombic'
loop_
_space_group_symop_operation_xyz
x,y,z
1/2-x,1/2-y,z
1/2+x,-y,1/2-z
-x,1/2+y,1/2-z
-x,-y,-z
1/2+x,1/2+y,-z
1/2-x,y,1/2+z
x,1/2-y,1/2+z
loop_
_atom_site_type_symbol
_atom_site_label
_atom_site_fract_x
_atom_site_fract_y
_atom_site_fract_z
Si Si1 0.273760 0.429199 0.464242
Si Si2 0.436971 0.366768 0.533725
Si Si3 0.321867 0.877783 0.596374
Si Si4 0.513221 0.315198 0.193621
Si Si5 0.497007 0.176975 0.377271
Si Si6 0.321357 0.875499 0.792405
O O1 0.250000 0.250000 0.444001
O O2 0.347994 0.432845 0.532402
O O3 0.200275 0.514000 0.512882
O O4 0.304884 0.512364 0.375385
O O5 0.500000 0.500000 0.500000
O O6 0.460118 0.289953 0.627202
O O7 0.443353 0.227461 0.459556
O O8 0.250000 0.750000 0.597203
O O9 0.411161 0.810101 0.589859
O O10 0.322818 0.957708 0.694901
O O11 0.483840 0.299049 0.295269
O O12 0.516691 0.497152 0.158938
O O13 0.598571 0.227055 0.195113
O O14 0.250000 0.750000 0.790741
#
# Coordination Sequence:
#
# PCOD9432764 Si02
#       6
#     8   8   8   8   8   8
#     4  12  26  42  67 102 137 174 229 286 342 410
#     4  12  24  43  68 102 137 179 225 287 352 404
#     4  10  23  46  68  95 131 184 225 271 344 420
#     4  11  24  44  68 100 138 177 230 284 344 416
#     4  11  25  43  73 101 135 181 231 283 349 415
#     4  10  24  43  68  96 133 182 224 275 345 410
#
# _framework density 22.778123999999998
#
# number of rings (size 3 to 8) (size 9 to 14) (size 15 to 20)
#    0.000    1.000    1.667    4.000    7.000    3.333 
#    0.000    0.000    0.000    0.000    0.000    0.000 
#    0.000    0.000    0.000    0.000    0.000    0.000 
#
# Total GULP energy -268776.305635 kJ/mol
# GULP energy per Si atom -5599.506367 kJ/mol
# Density = 2.272628 g / cm^3
# Si number density = 22.778124 Si / 1000 Ang^3
#
#
#
# Elastic Constant Matrix: (Units=GPa)
#
#
# Indices 1 2 3 4 5 6 
#
# 1 65.2037 10.9141 35.4227 0.0000 0.0000 0.0000
# 2 10.9141 70.1520 10.8330 0.0000 0.0000 0.0000
# 3 35.4227 10.8330 81.4108 0.0000 0.0000 0.0000
# 4 0.0000 0.0000 0.0000 32.1120 0.0000 0.0000
# 5 0.0000 0.0000 0.0000 0.0000 33.2125 0.0000
# 6 0.0000 0.0000 0.0000 0.0000 0.0000 25.5299
#
#
#
# Elastic Compliance Matrix: (Units=1/GPa)
#
#
# Indices 1 2 3 4 5 6 
#
# 1 0.020312 -0.001833 -0.008594 0.000000 0.000000 0.000000
# 2 -0.001833 0.014719 -0.001161 0.000000 0.000000 0.000000
# 3 -0.008594 -0.001161 0.016177 0.000000 0.000000 0.000000
# 4 0.000000 0.000000 0.000000 0.031141 0.000000 0.000000
# 5 0.000000 0.000000 0.000000 0.000000 0.030109 0.000000
# 6 0.000000 0.000000 0.000000 0.000000 0.000000 0.039170
#
#
# Mechanical properties :
#
#
# Convention : Reuss Voigt Hill
#
# Bulk Modulus (GPa) = 35.67314 36.78957 36.23136
# Shear Modulus (GPa) = 27.15188 28.81065 27.98126
#
# Velocity S-wave (km/s) = 3.45630 3.56032 3.50869
# Velocity P-wave (km/s) = 5.62345 5.75217 5.68817
#
# Compressibility (1/GPa) = 0.02803229
#
# Stress axis : x y z
#
# Youngs Moduli (GPa) = 49.23137 67.93831 61.81501
#
# Poissons Ratio (x) = 0.12453 0.53125
# Poissons Ratio (y) = 0.09024 0.07177
# Poissons Ratio (z) = 0.42310 0.07888
#
# Static dielectric constant tensor:
#      x y z
#    x 1.822320 0.000000 0.000000 
#    y 0.000000 1.835980 0.000000 
#    z 0.000000 0.000000 1.846390 
# 
# From -- ./inp_files/10658.got.cif
#   From: 2010.05.17/outbox.cif.g08.bks.cpg/sg56_6_cif.got.tgz:10658.got - 2010.06.03 13:42:01.
