data_PCOD9432838
_publ_section_title
;
Structure prediction by ZEFSAII (Michael W. Deem and Ramdas Pophale) SiO2 
 PCOD9432838
Probable space group: P C C N
;
_chemical_formula_sum "Si O2"
_cell_formula_units_Z 40
_cell_length_a 8.163721
_cell_length_b 23.209043
_cell_length_c 8.845264
_cell_angle_alpha 90.000000
_cell_angle_beta 90.000000
_cell_angle_gamma 90.000000
_cell_volume 1675.931203
_symmetry_space_group_name_H-M "P C C N"
_symmetry_group_IT_number 56
_symmetry_cell_setting 'orthorhombic'
loop_
_space_group_symop_operation_xyz
x,y,z
1/2-x,1/2-y,z
1/2+x,-y,1/2-z
-x,1/2+y,1/2-z
-x,-y,-z
1/2+x,1/2+y,-z
1/2-x,y,1/2+z
x,1/2-y,1/2+z
loop_
_atom_site_type_symbol
_atom_site_label
_atom_site_fract_x
_atom_site_fract_y
_atom_site_fract_z
Si Si1 0.418847 0.175122 0.246060
Si Si2 0.510502 0.551881 0.718444
Si Si3 0.250000 0.750000 0.015600
Si Si4 0.307842 0.056191 0.099490
Si Si5 0.250000 0.250000 0.999907
Si Si6 0.690932 0.168240 0.746286
O O1 0.346023 0.115424 0.185476
O O2 0.379181 0.220532 0.113456
O O3 0.329627 0.200798 0.393530
O O4 0.612530 0.164331 0.265195
O O5 0.629904 0.559607 0.572668
O O6 0.617309 0.544788 0.869332
O O7 0.404428 0.496150 0.678577
O O8 0.397647 0.608064 0.736964
O O9 0.170185 0.798502 0.910578
O O10 0.366123 0.786568 0.126580
#
# Coordination Sequence:
#
# PCOD9432838 Si02
#       6
#     8   8   4   8   4   8
#     4  11  22  42  69 101 142 181 225 278 342 406
#     4  11  26  47  72 101 136 178 232 286 349 413
#     4  10  24  40  66 100 136 176 228 276 330 396
#     4  11  25  46  70 101 137 177 227 287 347 414
#     4  10  24  40  68 108 144 184 226 280 342 406
#     4  11  23  43  70 101 137 183 231 283 338 411
#
# _framework density 23.867329000000002
#
# number of rings (size 3 to 8) (size 9 to 14) (size 15 to 20)
#    0.000    1.200    0.000    4.800    0.000   13.600 
#    0.000    0.000    0.000    0.000    0.000    0.000 
#    0.000    0.000    0.000    0.000    0.000    0.000 
#
# Total GULP energy -224123.410072 kJ/mol
# GULP energy per Si atom -5603.085252 kJ/mol
# Density = 2.381301 g / cm^3
# Si number density = 23.867329 Si / 1000 Ang^3
#
#
#
# Elastic Constant Matrix: (Units=GPa)
#
#
# Indices 1 2 3 4 5 6 
#
# 1 106.0291 15.2680 39.5406 0.0000 0.0000 0.0000
# 2 15.2680 116.6821 43.6792 0.0000 0.0000 0.0000
# 3 39.5406 43.6792 130.9094 0.0000 0.0000 0.0000
# 4 0.0000 0.0000 0.0000 -0.3427 0.0000 0.0000
# 5 0.0000 0.0000 0.0000 0.0000 35.0287 0.0000
# 6 0.0000 0.0000 0.0000 0.0000 0.0000 44.2587
#
#
#
# Elastic Compliance Matrix: (Units=1/GPa)
#
#
# Indices 1 2 3 4 5 6 
#
# 1 0.010633 -0.000216 -0.003140 0.000000 0.000000 0.000000
# 2 -0.000216 0.009798 -0.003204 0.000000 0.000000 0.000000
# 3 -0.003140 -0.003204 0.009656 0.000000 0.000000 0.000000
# 4 0.000000 0.000000 0.000000 -2.918165 0.000000 0.000000
# 5 0.000000 0.000000 0.000000 0.000000 0.028548 0.000000
# 6 0.000000 0.000000 0.000000 0.000000 0.000000 0.022594
#
#
# Mechanical properties :
#
#
# Convention : Reuss Voigt Hill
#
# Bulk Modulus (GPa) = 58.93380 61.17735 60.05558
# Shear Modulus (GPa) = -1.77421 32.79780 15.51180
#
# Velocity S-wave (km/s) = -0.86312 3.71100 2.55211
# Velocity P-wave (km/s) = 4.87366 6.63701 5.82248
#
# Compressibility (1/GPa) = 0.01696819
#
# Stress axis : x y z
#
# Youngs Moduli (GPa) = 94.04395 102.06236 103.56039
#
# Poissons Ratio (x) = 0.02205 0.32514
# Poissons Ratio (y) = 0.02032 0.33180
# Poissons Ratio (z) = 0.29527 0.32700
#
# Static dielectric constant tensor:
#      x y z
#    x 2.018820 0.000000 0.000000 
#    y 0.000000 1.859190 0.000000 
#    z 0.000000 0.000000 1.931930 
# 
# From -- ./inp_files/2095.got.cif
#   From: 2010.05.17/outbox.cif.g08.bks.cpg/sg56_2_cif.got.tgz:2095.got - 2010.06.03 13:42:01.
