data_PCOD9432064
_publ_section_title
;
Structure prediction by ZEFSAII (Michael W. Deem and Ramdas Pophale) SiO2 
 PCOD9432064
Probable space group: P C C N
;
_chemical_formula_sum "Si O2"
_cell_formula_units_Z 48
_cell_length_a 17.967158
_cell_length_b 11.085710
_cell_length_c 12.215528
_cell_angle_alpha 90.000000
_cell_angle_beta 90.000000
_cell_angle_gamma 90.000000
_cell_volume 2433.073025
_symmetry_space_group_name_H-M "P C C N"
_symmetry_group_IT_number 56
_symmetry_cell_setting 'orthorhombic'
loop_
_space_group_symop_operation_xyz
x,y,z
1/2-x,1/2-y,z
1/2+x,-y,1/2-z
-x,1/2+y,1/2-z
-x,-y,-z
1/2+x,1/2+y,-z
1/2-x,y,1/2+z
x,1/2-y,1/2+z
loop_
_atom_site_type_symbol
_atom_site_label
_atom_site_fract_x
_atom_site_fract_y
_atom_site_fract_z
Si Si1 0.123896 0.286858 0.031863
Si Si2 0.363292 0.926816 0.993208
Si Si3 0.618063 0.378349 0.766946
Si Si4 0.632978 0.639854 0.761787
Si Si5 0.994475 0.210039 0.385878
Si Si6 0.250000 0.250000 0.879355
Si Si7 0.750000 0.250000 0.392742
O O1 0.139955 0.429031 0.012800
O O2 0.133889 0.250708 0.156053
O O3 0.041809 0.250084 0.991790
O O4 0.182938 0.212432 0.958643
O O5 0.431858 0.879369 0.067680
O O6 0.290833 0.852506 0.033810
O O7 0.378544 0.895853 0.864915
O O8 0.625564 0.511494 0.817578
O O9 0.545328 0.311440 0.813192
O O10 0.687216 0.304527 0.814078
O O11 0.560055 0.651557 0.686136
O O12 0.710221 0.650017 0.695238
#
# Coordination Sequence:
#
# PCOD9432064 Si02
#       7
#     8   8   8   8   8   4   4
#     4  11  23  39  66  94 128 165 209 262 319 374
#     4  11  22  43  68  88 130 170 207 258 325 379
#     4  11  23  43  64  91 130 163 216 260 311 386
#     4  11  24  38  65  94 127 164 215 261 315 377
#     4  10  23  41  62  94 120 168 213 255 313 374
#     4  10  22  40  58  98 124 164 206 258 318 378
#     4  10  26  40  64  98 124 168 210 262 318 380
#
# _framework density 19.728137
#
# number of rings (size 3 to 8) (size 9 to 14) (size 15 to 20)
#    0.000    1.333    3.333    2.500    7.000    0.667 
#    0.000    0.000    0.000    0.000    0.000    0.000 
#    0.000    0.000    0.000    0.000    0.000    0.000 
#
# Total GULP energy -267609.260348 kJ/mol
# GULP energy per Si atom -5575.192924 kJ/mol
# Density = 1.968324 g / cm^3
# Si number density = 19.728137 Si / 1000 Ang^3
#
#
#
# Elastic Constant Matrix: (Units=GPa)
#
#
# Indices 1 2 3 4 5 6 
#
# 1 119.4719 50.2970 26.1272 0.0000 0.0000 0.0000
# 2 50.2970 101.7340 50.4940 0.0000 0.0000 0.0000
# 3 26.1272 50.4940 95.4248 0.0000 0.0000 0.0000
# 4 0.0000 0.0000 0.0000 30.8586 0.0000 0.0000
# 5 0.0000 0.0000 0.0000 0.0000 26.8729 0.0000
# 6 0.0000 0.0000 0.0000 0.0000 0.0000 19.4504
#
#
#
# Elastic Compliance Matrix: (Units=1/GPa)
#
#
# Indices 1 2 3 4 5 6 
#
# 1 0.010572 -0.005140 -0.000175 0.000000 0.000000 0.000000
# 2 -0.005140 0.015830 -0.006969 0.000000 0.000000 0.000000
# 3 -0.000175 -0.006969 0.014215 0.000000 0.000000 0.000000
# 4 0.000000 0.000000 0.000000 0.032406 0.000000 0.000000
# 5 0.000000 0.000000 0.000000 0.000000 0.037212 0.000000
# 6 0.000000 0.000000 0.000000 0.000000 0.000000 0.051413
#
#
# Mechanical properties :
#
#
# Convention : Reuss Voigt Hill
#
# Bulk Modulus (GPa) = 62.30821 63.38524 62.84673
# Shear Modulus (GPa) = 26.10071 28.08387 27.09229
#
# Velocity S-wave (km/s) = 3.64128 3.77708 3.70980
# Velocity P-wave (km/s) = 7.02357 7.15688 7.09054
#
# Compressibility (1/GPa) = 0.01604925
#
# Stress axis : x y z
#
# Youngs Moduli (GPa) = 94.58599 63.17198 70.34856
#
# Poissons Ratio (x) = 0.32472 0.01229
# Poissons Ratio (y) = 0.48619 0.49026
# Poissons Ratio (z) = 0.01653 0.44024
#
# Static dielectric constant tensor:
#      x y z
#    x 1.693480 0.000000 0.000000 
#    y 0.000000 1.676630 0.000000 
#    z 0.000000 0.000000 1.739730 
# 
# From -- ./inp_files/7179.got.cif
#   From: 2010.05.17/outbox.cif.g08.bks.cpg/sg56_4_cif.got.tgz:7179.got - 2010.06.03 13:42:01.
