data_PCOD9432433
_publ_section_title
;
Structure prediction by ZEFSAII (Michael W. Deem and Ramdas Pophale) SiO2 
 PCOD9432433
Probable space group: P C C N
;
_chemical_formula_sum "Si O2"
_cell_formula_units_Z 64
_cell_length_a 11.579569
_cell_length_b 29.120578
_cell_length_c 8.380720
_cell_angle_alpha 90.000000
_cell_angle_beta 90.000000
_cell_angle_gamma 90.000000
_cell_volume 2826.010147
_symmetry_space_group_name_H-M "P C C N"
_symmetry_group_IT_number 56
_symmetry_cell_setting 'orthorhombic'
loop_
_space_group_symop_operation_xyz
x,y,z
1/2-x,1/2-y,z
1/2+x,-y,1/2-z
-x,1/2+y,1/2-z
-x,-y,-z
1/2+x,1/2+y,-z
1/2-x,y,1/2+z
x,1/2-y,1/2+z
loop_
_atom_site_type_symbol
_atom_site_label
_atom_site_fract_x
_atom_site_fract_y
_atom_site_fract_z
Si Si1 0.088036 0.060507 0.133460
Si Si2 0.270337 0.023078 0.894819
Si Si3 0.873664 0.030164 0.336142
Si Si4 0.014859 0.341663 0.663009
Si Si5 0.695701 0.201077 0.467079
Si Si6 0.011462 0.804614 0.293779
Si Si7 0.621712 0.766861 0.497158
Si Si8 0.095729 0.629238 0.019989
O O1 0.180955 0.062172 0.278465
O O2 0.983307 0.033198 0.218417
O O3 0.042952 0.110073 0.080654
O O4 0.155254 0.037244 0.988700
O O5 0.235333 0.980625 0.779292
O O6 0.363679 0.009013 0.028749
O O7 0.869868 0.077716 0.434215
O O8 0.902091 0.317488 0.588005
O O9 0.990866 0.355428 0.841894
O O10 0.115018 0.304911 0.642011
O O11 0.750000 0.250000 0.507281
O O12 0.631079 0.206999 0.296947
O O13 0.793567 0.162298 0.464562
O O14 0.968724 0.772663 0.440679
O O15 0.920067 0.793222 0.155552
O O16 0.032449 0.856248 0.356676
O O17 0.750000 0.750000 0.515788
#
# Coordination Sequence:
#
# PCOD9432433 Si02
#       8
#     8   8   8   8   8   8   8   8
#     4  10  22  45  67 103 139 179 231 290 337 413
#     4  10  22  44  71  99 139 188 227 281 357 404
#     4  10  23  40  71 103 137 178 232 279 346 414
#     4  10  23  43  66 101 137 174 233 278 336 409
#     4  11  23  40  66  98 138 180 213 274 347 408
#     4  11  24  40  63  97 129 176 220 271 335 398
#     4  11  23  45  67  91 129 177 227 275 327 394
#     4  11  23  39  65 100 139 169 222 281 335 412
#
# _framework density 22.64677
#
# number of rings (size 3 to 8) (size 9 to 14) (size 15 to 20)
#    0.000    1.500    0.000    4.875    5.250    2.000 
#   11.250    5.625    0.000    0.000    0.000    0.000 
#    0.000    0.000    0.000    0.000    0.000    0.000 
#
# Total GULP energy -357341.401675 kJ/mol
# GULP energy per Si atom -5583.459401 kJ/mol
# Density = 2.259522 g / cm^3
# Si number density = 22.646770 Si / 1000 Ang^3
#
#
#
# Elastic Constant Matrix: (Units=GPa)
#
#
# Indices 1 2 3 4 5 6 
#
# 1 80.0236 20.9811 11.0105 0.0000 0.0000 0.0000
# 2 20.9811 80.7809 16.3339 0.0000 0.0000 0.0000
# 3 11.0105 16.3339 48.2800 0.0000 0.0000 0.0000
# 4 0.0000 0.0000 0.0000 31.0555 0.0000 0.0000
# 5 0.0000 0.0000 0.0000 0.0000 26.4966 0.0000
# 6 0.0000 0.0000 0.0000 0.0000 0.0000 26.2808
#
#
#
# Elastic Compliance Matrix: (Units=1/GPa)
#
#
# Indices 1 2 3 4 5 6 
#
# 1 0.013595 -0.003117 -0.002046 0.000000 0.000000 0.000000
# 2 -0.003117 0.014003 -0.004027 0.000000 0.000000 0.000000
# 3 -0.002046 -0.004027 0.022541 0.000000 0.000000 0.000000
# 4 0.000000 0.000000 0.000000 0.032200 0.000000 0.000000
# 5 0.000000 0.000000 0.000000 0.000000 0.037741 0.000000
# 6 0.000000 0.000000 0.000000 0.000000 0.000000 0.038051
#
#
# Mechanical properties :
#
#
# Convention : Reuss Voigt Hill
#
# Bulk Modulus (GPa) = 31.48606 33.97062 32.72834
# Shear Modulus (GPa) = 26.72409 27.48386 27.10397
#
# Velocity S-wave (km/s) = 3.43890 3.48744 3.46325
# Velocity P-wave (km/s) = 5.44989 5.59009 5.52043
#
# Compressibility (1/GPa) = 0.03176009
#
# Stress axis : x y z
#
# Youngs Moduli (GPa) = 73.55579 71.41331 44.36299
#
# Poissons Ratio (x) = 0.22262 0.09076
# Poissons Ratio (y) = 0.22930 0.17863
# Poissons Ratio (z) = 0.15048 0.28755
#
# Static dielectric constant tensor:
#      x y z
#    x 1.864170 0.000000 0.000000 
#    y 0.000000 1.864040 0.000000 
#    z 0.000000 0.000000 1.894760 
# 
# From -- ./inp_files/2963.got.cif
#   From: 2010.05.17/outbox.cif.g08.bks.cpg/sg56_2_cif.got.tgz:2963.got - 2010.06.03 13:42:01.
