data_PCOD9432957
_publ_section_title
;
Structure prediction by ZEFSAII (Michael W. Deem and Ramdas Pophale) SiO2 
 PCOD9432957
Probable space group: P C C N
;
_chemical_formula_sum "Si O2"
_cell_formula_units_Z 36
_cell_length_a 8.918690
_cell_length_b 13.781041
_cell_length_c 12.543774
_cell_angle_alpha 90.000000
_cell_angle_beta 90.000000
_cell_angle_gamma 90.000000
_cell_volume 1541.740618
_symmetry_space_group_name_H-M "P C C N"
_symmetry_group_IT_number 56
_symmetry_cell_setting 'orthorhombic'
loop_
_space_group_symop_operation_xyz
x,y,z
1/2-x,1/2-y,z
1/2+x,-y,1/2-z
-x,1/2+y,1/2-z
-x,-y,-z
1/2+x,1/2+y,-z
1/2-x,y,1/2+z
x,1/2-y,1/2+z
loop_
_atom_site_type_symbol
_atom_site_label
_atom_site_fract_x
_atom_site_fract_y
_atom_site_fract_z
Si Si1 0.500954 0.391309 0.956225
Si Si2 0.390282 0.097142 0.779981
Si Si3 0.092291 0.720688 0.368289
Si Si4 0.750000 0.750000 0.064946
Si Si5 0.053091 0.090443 0.706658
O O1 0.350752 0.331479 0.990141
O O2 0.504147 0.392639 0.828701
O O3 0.500000 0.500000 0.000000
O O4 0.623363 0.326987 0.016531
O O5 0.512447 0.136334 0.697915
O O6 0.357261 0.185225 0.860137
O O7 0.231104 0.075117 0.722613
O O8 0.460965 0.002288 0.833678
O O9 0.250000 0.750000 0.318762
O O10 0.986522 0.815229 0.362292
#
# Coordination Sequence:
#
# PCOD9432957 Si02
#       5
#     8   8   8   4   8
#     4  11  24  43  68  99 138 181 228 291 353 416
#     4  11  21  46  70 101 136 188 228 289 357 414
#     4  12  25  42  68 103 141 181 239 286 353 416
#     4  10  24  44  72 102 142 182 242 290 356 424
#     4  11  24  43  73  99 141 186 235 292 357 424
#
# _framework density 23.35023
#
# number of rings (size 3 to 8) (size 9 to 14) (size 15 to 20)
#    0.000    0.889    6.667    1.333    6.222    0.889 
#    4.000    1.111    0.000    0.000    0.000    0.000 
#    0.000    0.000    0.000    0.000    0.000    0.000 
#
# Total GULP energy -201240.098987 kJ/mol
# GULP energy per Si atom -5590.002750 kJ/mol
# Density = 2.329708 g / cm^3
# Si number density = 23.350230 Si / 1000 Ang^3
#
#
#
# Elastic Constant Matrix: (Units=GPa)
#
#
# Indices 1 2 3 4 5 6 
#
# 1 86.9922 39.6243 -3.1160 0.0000 0.0000 0.0000
# 2 39.6243 174.9630 31.2435 0.0000 0.0000 0.0000
# 3 -3.1160 31.2435 70.6045 0.0000 0.0000 0.0000
# 4 0.0000 0.0000 0.0000 29.0738 0.0000 0.0000
# 5 0.0000 0.0000 0.0000 0.0000 12.4492 0.0000
# 6 0.0000 0.0000 0.0000 0.0000 0.0000 52.9395
#
#
#
# Elastic Compliance Matrix: (Units=1/GPa)
#
#
# Indices 1 2 3 4 5 6 
#
# 1 0.013085 -0.003330 0.002051 0.000000 0.000000 0.000000
# 2 -0.003330 0.007053 -0.003268 0.000000 0.000000 0.000000
# 3 0.002051 -0.003268 0.015700 0.000000 0.000000 0.000000
# 4 0.000000 0.000000 0.000000 0.034395 0.000000 0.000000
# 5 0.000000 0.000000 0.000000 0.000000 0.080327 0.000000
# 6 0.000000 0.000000 0.000000 0.000000 0.000000 0.018889
#
#
# Mechanical properties :
#
#
# Convention : Reuss Voigt Hill
#
# Bulk Modulus (GPa) = 37.39023 52.00704 44.69863
# Shear Modulus (GPa) = 26.67253 36.54636 31.60945
#
# Velocity S-wave (km/s) = 3.38343 3.96048 3.68327
# Velocity P-wave (km/s) = 5.59563 6.57532 6.10515
#
# Compressibility (1/GPa) = 0.02674496
#
# Stress axis : x y z
#
# Youngs Moduli (GPa) = 76.42094 141.78011 63.69395
#
# Poissons Ratio (x) = 0.47209 -0.13063
# Poissons Ratio (y) = 0.25446 0.20816
# Poissons Ratio (z) = -0.15674 0.46335
#
# Static dielectric constant tensor:
#      x y z
#    x 1.956240 0.000000 0.000000 
#    y 0.000000 1.861660 0.000000 
#    z 0.000000 0.000000 1.969070 
# 
# From -- ./inp_files/10312.got.cif
#   From: 2010.05.17/outbox.cif.g08.bks.cpg/sg56_6_cif.got.tgz:10312.got - 2010.06.03 13:42:01.
