data_PCOD9432688
_publ_section_title
;
Structure prediction by ZEFSAII (Michael W. Deem and Ramdas Pophale) SiO2 
 PCOD9432688
Probable space group: P C C N
;
_chemical_formula_sum "Si O2"
_cell_formula_units_Z 24
_cell_length_a 13.693628
_cell_length_b 7.137133
_cell_length_c 10.446319
_cell_angle_alpha 90.000000
_cell_angle_beta 90.000000
_cell_angle_gamma 90.000000
_cell_volume 1020.952647
_symmetry_space_group_name_H-M "P C C N"
_symmetry_group_IT_number 56
_symmetry_cell_setting 'orthorhombic'
loop_
_space_group_symop_operation_xyz
x,y,z
1/2-x,1/2-y,z
1/2+x,-y,1/2-z
-x,1/2+y,1/2-z
-x,-y,-z
1/2+x,1/2+y,-z
1/2-x,y,1/2+z
x,1/2-y,1/2+z
loop_
_atom_site_type_symbol
_atom_site_label
_atom_site_fract_x
_atom_site_fract_y
_atom_site_fract_z
Si Si1 0.362370 0.301814 0.103262
Si Si2 0.050662 0.387103 0.859740
Si Si3 0.637605 0.195005 0.296717
O O1 0.250000 0.250000 0.087346
O O2 0.396169 0.264130 0.248801
O O3 0.372913 0.528263 0.098104
O O4 0.422804 0.196908 0.995615
O O5 0.097389 0.589705 0.830611
O O6 0.936392 0.359601 0.831596
O O7 0.750000 0.250000 0.285104
#
# Coordination Sequence:
#
# PCOD9432688 Si02
#       3
#     8   8   8
#     4  10  23  43  72  99 147 182 239 285 359 417
#     4  10  24  45  70 100 148 179 242 290 353 417
#     4  10  25  45  74 105 141 190 240 289 357 425
#
# _framework density 23.507455
#
# number of rings (size 3 to 8) (size 9 to 14) (size 15 to 20)
#    2.000    0.000    0.000    2.000    4.667    1.333 
#    0.000    0.000    0.000    0.000    0.000    0.000 
#    0.000    0.000    0.000    0.000    0.000    0.000 
#
# Total GULP energy -134040.369438 kJ/mol
# GULP energy per Si atom -5585.015393 kJ/mol
# Density = 2.345395 g / cm^3
# Si number density = 23.507455 Si / 1000 Ang^3
#
#
#
# Elastic Constant Matrix: (Units=GPa)
#
#
# Indices 1 2 3 4 5 6 
#
# 1 181.1300 35.7262 43.7607 0.0000 0.0000 0.0000
# 2 35.7262 110.9567 40.9348 0.0000 0.0000 0.0000
# 3 43.7607 40.9348 130.6664 0.0000 0.0000 0.0000
# 4 0.0000 0.0000 0.0000 31.8880 0.0000 0.0000
# 5 0.0000 0.0000 0.0000 0.0000 8.4899 0.0000
# 6 0.0000 0.0000 0.0000 0.0000 0.0000 43.2928
#
#
#
# Elastic Compliance Matrix: (Units=1/GPa)
#
#
# Indices 1 2 3 4 5 6 
#
# 1 0.006191 -0.001389 -0.001638 0.000000 0.000000 0.000000
# 2 -0.001389 0.010502 -0.002825 0.000000 0.000000 0.000000
# 3 -0.001638 -0.002825 0.009087 0.000000 0.000000 0.000000
# 4 0.000000 0.000000 0.000000 0.031360 0.000000 0.000000
# 5 0.000000 0.000000 0.000000 0.000000 0.117788 0.000000
# 6 0.000000 0.000000 0.000000 0.000000 0.000000 0.023099
#
#
# Mechanical properties :
#
#
# Convention : Reuss Voigt Hill
#
# Bulk Modulus (GPa) = 71.04625 73.73296 72.38960
# Shear Modulus (GPa) = 23.31865 36.88956 30.10410
#
# Velocity S-wave (km/s) = 3.15297 3.96570 3.58246
# Velocity P-wave (km/s) = 6.59874 7.23898 6.92627
#
# Compressibility (1/GPa) = 0.01407534
#
# Stress axis : x y z
#
# Youngs Moduli (GPa) = 161.53466 95.22090 110.05141
#
# Poissons Ratio (x) = 0.13225 0.18028
# Poissons Ratio (y) = 0.22436 0.31088
# Poissons Ratio (z) = 0.26462 0.26898
#
# Static dielectric constant tensor:
#      x y z
#    x 1.823820 0.000000 0.000000 
#    y 0.000000 1.975720 0.000000 
#    z 0.000000 0.000000 1.874700 
# 
# From -- ./inp_files/1788.got.cif
#   From: 2010.05.17/outbox.cif.g08.bks.cpg/sg56_1_cif.got.tgz:1788.got - 2010.06.03 13:42:01.
