data_PCOD9432464
_publ_section_title
;
Structure prediction by ZEFSAII (Michael W. Deem and Ramdas Pophale) SiO2 
 PCOD9432464
Probable space group: P C C N
;
_chemical_formula_sum "Si O2"
_cell_formula_units_Z 48
_cell_length_a 20.186207
_cell_length_b 8.990856
_cell_length_c 11.143286
_cell_angle_alpha 90.000000
_cell_angle_beta 90.000000
_cell_angle_gamma 90.000000
_cell_volume 2022.409243
_symmetry_space_group_name_H-M "P C C N"
_symmetry_group_IT_number 56
_symmetry_cell_setting 'orthorhombic'
loop_
_space_group_symop_operation_xyz
x,y,z
1/2-x,1/2-y,z
1/2+x,-y,1/2-z
-x,1/2+y,1/2-z
-x,-y,-z
1/2+x,1/2+y,-z
1/2-x,y,1/2+z
x,1/2-y,1/2+z
loop_
_atom_site_type_symbol
_atom_site_label
_atom_site_fract_x
_atom_site_fract_y
_atom_site_fract_z
Si Si1 0.073831 0.502314 0.262738
Si Si2 0.641291 0.667376 0.452530
Si Si3 0.646614 0.180181 0.548997
Si Si4 0.287024 0.453361 0.103425
Si Si5 0.459155 0.814915 0.651317
Si Si6 0.142801 0.982136 0.327886
O O1 0.096476 0.397554 0.153379
O O2 0.134318 0.570947 0.338952
O O3 0.038674 0.649800 0.208036
O O4 0.027211 0.404084 0.347482
O O5 0.714849 0.600313 0.431387
O O6 0.655794 0.841690 0.444881
O O7 0.617735 0.606487 0.580402
O O8 0.577045 0.196398 0.476750
O O9 0.666109 0.340690 0.596158
O O10 0.696655 0.110756 0.454379
O O11 0.298424 0.456232 0.245605
O O12 0.412316 0.914470 0.739028
#
# Coordination Sequence:
#
# PCOD9432464 Si02
#       6
#     8   8   8   8   8   8
#     4  11  24  41  67  95 134 175 222 279 330 394
#     4  11  25  44  66 100 132 176 223 273 335 395
#     4  10  22  46  65  97 133 173 227 273 335 395
#     4  10  26  43  69  98 134 177 224 270 339 400
#     4  10  23  43  63  99 132 176 225 272 336 394
#     4  10  23  46  65  97 137 169 223 277 327 403
#
# _framework density 23.734068000000001
#
# number of rings (size 3 to 8) (size 9 to 14) (size 15 to 20)
#    0.000    1.667    1.667    0.500    9.333    2.667 
#    3.000    0.000    0.000    0.000    0.000    0.000 
#    0.000    0.000    0.000    0.000    0.000    0.000 
#
# Total GULP energy -268719.855506 kJ/mol
# GULP energy per Si atom -5598.330323 kJ/mol
# Density = 2.368005 g / cm^3
# Si number density = 23.734068 Si / 1000 Ang^3
#
#
#
# Elastic Constant Matrix: (Units=GPa)
#
#
# Indices 1 2 3 4 5 6 
#
# 1 34.0648 14.5229 -6.2507 0.0000 0.0000 0.0000
# 2 14.5229 88.3359 16.0290 0.0000 0.0000 0.0000
# 3 -6.2507 16.0290 86.3263 0.0000 0.0000 0.0000
# 4 0.0000 0.0000 0.0000 34.6195 0.0000 0.0000
# 5 0.0000 0.0000 0.0000 0.0000 21.6052 0.0000
# 6 0.0000 0.0000 0.0000 0.0000 0.0000 31.1981
#
#
#
# Elastic Compliance Matrix: (Units=1/GPa)
#
#
# Indices 1 2 3 4 5 6 
#
# 1 0.032541 -0.005979 0.003466 0.000000 0.000000 0.000000
# 2 -0.005979 0.012814 -0.002812 0.000000 0.000000 0.000000
# 3 0.003466 -0.002812 0.012357 0.000000 0.000000 0.000000
# 4 0.000000 0.000000 0.000000 0.028885 0.000000 0.000000
# 5 0.000000 0.000000 0.000000 0.000000 0.046285 0.000000
# 6 0.000000 0.000000 0.000000 0.000000 0.000000 0.032053
#
#
# Mechanical properties :
#
#
# Convention : Reuss Voigt Hill
#
# Bulk Modulus (GPa) = 21.24844 28.59215 24.92029
# Shear Modulus (GPa) = 26.14076 29.77961 27.96019
#
# Velocity S-wave (km/s) = 3.32234 3.54605 3.43601
# Velocity P-wave (km/s) = 4.86718 5.37019 5.12486
#
# Compressibility (1/GPa) = 0.04706228
#
# Stress axis : x y z
#
# Youngs Moduli (GPa) = 30.73063 78.04174 80.92512
#
# Poissons Ratio (x) = 0.46660 -0.28051
# Poissons Ratio (y) = 0.18373 0.22757
# Poissons Ratio (z) = -0.10652 0.21946
#
# Static dielectric constant tensor:
#      x y z
#    x 1.926840 0.000000 0.000000 
#    y 0.000000 1.885760 0.000000 
#    z 0.000000 0.000000 1.870910 
# 
# From -- ./inp_files/6402.got.cif
#   From: 2010.05.17/outbox.cif.g08.bks.cpg/sg56_4_cif.got.tgz:6402.got - 2010.06.03 13:42:01.
