data_PCOD9432956
_publ_section_title
;
Structure prediction by ZEFSAII (Michael W. Deem and Ramdas Pophale) SiO2 
 PCOD9432956
Probable space group: P C C N
;
_chemical_formula_sum "Si O2"
_cell_formula_units_Z 40
_cell_length_a 8.182784
_cell_length_b 20.430578
_cell_length_c 10.341178
_cell_angle_alpha 90.000000
_cell_angle_beta 90.000000
_cell_angle_gamma 90.000000
_cell_volume 1728.827867
_symmetry_space_group_name_H-M "P C C N"
_symmetry_group_IT_number 56
_symmetry_cell_setting 'orthorhombic'
loop_
_space_group_symop_operation_xyz
x,y,z
1/2-x,1/2-y,z
1/2+x,-y,1/2-z
-x,1/2+y,1/2-z
-x,-y,-z
1/2+x,1/2+y,-z
1/2-x,y,1/2+z
x,1/2-y,1/2+z
loop_
_atom_site_type_symbol
_atom_site_label
_atom_site_fract_x
_atom_site_fract_y
_atom_site_fract_z
Si Si1 0.416503 0.320052 0.738913
Si Si2 0.295550 0.919413 0.759834
Si Si3 0.895882 0.205157 0.144134
Si Si4 0.302887 0.498906 0.005910
Si Si5 0.711333 0.845534 0.501506
O O1 0.527386 0.385014 0.750605
O O2 0.524853 0.255130 0.746750
O O3 0.280903 0.325946 0.849172
O O4 0.339870 0.315268 0.596866
O O5 0.177547 0.858243 0.786703
O O6 0.254620 0.959434 0.631453
O O7 0.276802 0.967621 0.881082
O O8 0.750000 0.250000 0.083473
O O9 0.030777 0.177017 0.045504
O O10 0.500000 0.500000 0.000000
O O11 0.261758 0.422799 0.013297
#
# Coordination Sequence:
#
# PCOD9432956 Si02
#       5
#     8   8   8   8   8
#     4  11  26  44  69 103 141 188 234 292 353 417
#     4  11  24  47  72 104 136 190 233 289 357 425
#     4  10  24  44  71  98 139 185 239 290 354 425
#     4  12  24  45  73 104 145 178 237 294 351 429
#     4  12  25  46  69 105 143 179 236 296 354 422
#
# _framework density 23.137063000000001
#
# number of rings (size 3 to 8) (size 9 to 14) (size 15 to 20)
#    0.000    0.800    4.000    1.800    0.000   11.200 
#    0.000    0.000    0.000    0.000    0.000    0.000 
#    0.000    0.000    0.000    0.000    0.000    0.000 
#
# Total GULP energy -223990.410967 kJ/mol
# GULP energy per Si atom -5599.760274 kJ/mol
# Density = 2.308440 g / cm^3
# Si number density = 23.137063 Si / 1000 Ang^3
#
#
#
# Elastic Constant Matrix: (Units=GPa)
#
#
# Indices 1 2 3 4 5 6 
#
# 1 28.5970 12.7108 -4.3229 0.0000 0.0000 0.0000
# 2 12.7108 164.7797 23.8863 0.0000 0.0000 0.0000
# 3 -4.3229 23.8863 100.9316 0.0000 0.0000 0.0000
# 4 0.0000 0.0000 0.0000 5.7011 0.0000 0.0000
# 5 0.0000 0.0000 0.0000 0.0000 30.3273 0.0000
# 6 0.0000 0.0000 0.0000 0.0000 0.0000 39.0701
#
#
#
# Elastic Compliance Matrix: (Units=1/GPa)
#
#
# Indices 1 2 3 4 5 6 
#
# 1 0.036729 -0.003170 0.002323 0.000000 0.000000 0.000000
# 2 -0.003170 0.006558 -0.001688 0.000000 0.000000 0.000000
# 3 0.002323 -0.001688 0.010407 0.000000 0.000000 0.000000
# 4 0.000000 0.000000 0.000000 0.175406 0.000000 0.000000
# 5 0.000000 0.000000 0.000000 0.000000 0.032974 0.000000
# 6 0.000000 0.000000 0.000000 0.000000 0.000000 0.025595
#
#
# Mechanical properties :
#
#
# Convention : Reuss Voigt Hill
#
# Bulk Modulus (GPa) = 20.56570 39.87295 30.21933
# Shear Modulus (GPa) = 16.18411 32.48863 24.33637
#
# Velocity S-wave (km/s) = 2.64765 3.75131 3.24672
# Velocity P-wave (km/s) = 4.27255 6.00282 5.21002
#
# Compressibility (1/GPa) = 0.04862465
#
# Stress axis : x y z
#
# Youngs Moduli (GPa) = 27.22647 152.48808 96.09257
#
# Poissons Ratio (x) = 0.48339 -0.22325
# Poissons Ratio (y) = 0.08631 0.16218
# Poissons Ratio (z) = -0.06326 0.25736
#
# Static dielectric constant tensor:
#      x y z
#    x 1.893160 0.000000 0.000000 
#    y 0.000000 1.912410 0.000000 
#    z 0.000000 0.000000 1.864380 
# 
# From -- ./inp_files/2065.got.cif
#   From: 2010.05.17/outbox.cif.g08.bks.cpg/sg56_2_cif.got.tgz:2065.got - 2010.06.03 13:42:01.
