data_PCOD9432926
_publ_section_title
;
Structure prediction by ZEFSAII (Michael W. Deem and Ramdas Pophale) SiO2 
 PCOD9432926
Probable space group: P C C N
;
_chemical_formula_sum "Si O2"
_cell_formula_units_Z 40
_cell_length_a 15.055762
_cell_length_b 10.263881
_cell_length_c 9.602417
_cell_angle_alpha 90.000000
_cell_angle_beta 90.000000
_cell_angle_gamma 90.000000
_cell_volume 1483.866776
_symmetry_space_group_name_H-M "P C C N"
_symmetry_group_IT_number 56
_symmetry_cell_setting 'orthorhombic'
loop_
_space_group_symop_operation_xyz
x,y,z
1/2-x,1/2-y,z
1/2+x,-y,1/2-z
-x,1/2+y,1/2-z
-x,-y,-z
1/2+x,1/2+y,-z
1/2-x,y,1/2+z
x,1/2-y,1/2+z
loop_
_atom_site_type_symbol
_atom_site_label
_atom_site_fract_x
_atom_site_fract_y
_atom_site_fract_z
Si Si1 0.698284 0.921045 0.307354
Si Si2 0.900132 0.835978 0.333320
Si Si3 0.416231 0.594108 0.828660
Si Si4 0.947896 0.205579 0.462825
Si Si5 0.737489 0.071619 0.049254
O O1 0.796546 0.872829 0.351407
O O2 0.619285 0.818612 0.321957
O O3 0.702272 0.953425 0.144746
O O4 0.698962 0.038475 0.417770
O O5 0.969899 0.861654 0.456213
O O6 0.926124 0.942123 0.213332
O O7 0.453806 0.651000 0.971241
O O8 0.451469 0.683139 0.701233
O O9 0.310397 0.624661 0.840920
O O10 0.850879 0.147139 0.504459
#
# Coordination Sequence:
#
# PCOD9432926 Si02
#       5
#     8   8   8   8   8
#     4  10  24  43  78 103 143 188 242 304 366 447
#     4  10  24  48  70 111 145 190 248 308 372 431
#     4  11  27  46  67 108 145 196 245 302 373 442
#     4  12  26  44  76 101 156 187 247 309 370 444
#     4  11  23  46  73 104 142 190 245 292 379 430
#
# _framework density 26.956599000000001
#
# number of rings (size 3 to 8) (size 9 to 14) (size 15 to 20)
#    0.000    1.200    4.000    1.200    5.600   11.200 
#    0.000    2.000    0.000    0.000    0.000    0.000 
#    0.000    0.000    0.000    0.000    0.000    0.000 
#
# Total GULP energy -222981.367669 kJ/mol
# GULP energy per Si atom -5574.534192 kJ/mol
# Density = 2.689524 g / cm^3
# Si number density = 26.956599 Si / 1000 Ang^3
#
#
#
# Elastic Constant Matrix: (Units=GPa)
#
#
# Indices 1 2 3 4 5 6 
#
# 1 147.3663 43.7670 71.6073 0.0000 0.0000 0.0000
# 2 43.7670 85.4870 57.0497 0.0000 0.0000 0.0000
# 3 71.6073 57.0497 174.1695 0.0000 0.0000 0.0000
# 4 0.0000 0.0000 0.0000 -7.6361 0.0000 0.0000
# 5 0.0000 0.0000 0.0000 0.0000 53.9207 0.0000
# 6 0.0000 0.0000 0.0000 0.0000 0.0000 17.4513
#
#
#
# Elastic Compliance Matrix: (Units=1/GPa)
#
#
# Indices 1 2 3 4 5 6 
#
# 1 0.008949 -0.002721 -0.002788 0.000000 0.000000 0.000000
# 2 -0.002721 0.015797 -0.004056 0.000000 0.000000 0.000000
# 3 -0.002788 -0.004056 0.008216 0.000000 0.000000 0.000000
# 4 0.000000 0.000000 0.000000 -0.130957 0.000000 0.000000
# 5 0.000000 0.000000 0.000000 0.000000 0.018546 0.000000
# 6 0.000000 0.000000 0.000000 0.000000 0.000000 0.057302
#
#
# Mechanical properties :
#
#
# Convention : Reuss Voigt Hill
#
# Bulk Modulus (GPa) = 72.29100 83.54121 77.91611
# Shear Modulus (GPa) = 3138.30170 28.38710 1583.34440
#
# Velocity S-wave (km/s) = 34.15747 3.24862 24.26197
# Velocity P-wave (km/s) = 39.78089 6.71786 28.52761
#
# Compressibility (1/GPa) = 0.01383298
#
# Stress axis : x y z
#
# Youngs Moduli (GPa) = 111.74976 63.30167 121.71095
#
# Poissons Ratio (x) = 0.17224 0.33931
# Poissons Ratio (y) = 0.30407 0.49363
# Poissons Ratio (z) = 0.31154 0.25674
#
# Static dielectric constant tensor:
#      x y z
#    x 2.055680 0.000000 0.000000 
#    y 0.000000 2.627380 0.000000 
#    z 0.000000 0.000000 2.137740 
# 
# From -- ./inp_files/3891.got.cif
#   From: 2010.05.17/outbox.cif.g08.bks.cpg/sg56_2_cif.got.tgz:3891.got - 2010.06.03 13:42:01.
