data_PCOD9432113
_publ_section_title
;
Structure prediction by ZEFSAII (Michael W. Deem and Ramdas Pophale) SiO2 
 PCOD9432113
Probable space group: P C C N
;
_chemical_formula_sum "Si O2"
_cell_formula_units_Z 48
_cell_length_a 5.698285
_cell_length_b 17.280913
_cell_length_c 20.551417
_cell_angle_alpha 90.000000
_cell_angle_beta 90.000000
_cell_angle_gamma 90.000000
_cell_volume 2023.730243
_symmetry_space_group_name_H-M "P C C N"
_symmetry_group_IT_number 56
_symmetry_cell_setting 'orthorhombic'
loop_
_space_group_symop_operation_xyz
x,y,z
1/2-x,1/2-y,z
1/2+x,-y,1/2-z
-x,1/2+y,1/2-z
-x,-y,-z
1/2+x,1/2+y,-z
1/2-x,y,1/2+z
x,1/2-y,1/2+z
loop_
_atom_site_type_symbol
_atom_site_label
_atom_site_fract_x
_atom_site_fract_y
_atom_site_fract_z
Si Si1 0.549421 0.590979 0.488762
Si Si2 0.359631 0.327907 0.640611
Si Si3 0.048877 0.583052 0.534299
Si Si4 0.857105 0.669435 0.215135
Si Si5 0.958690 0.538504 0.673512
Si Si6 0.250922 0.887164 0.283816
O O1 0.500000 0.500000 0.500000
O O2 0.623921 0.607776 0.414493
O O3 0.285304 0.622997 0.505376
O O4 0.785011 0.619336 0.526919
O O5 0.250000 0.250000 0.611860
O O6 0.220625 0.338995 0.708490
O O7 0.620875 0.328291 0.669255
O O8 0.000000 0.500000 0.500000
O O9 0.096451 0.564244 0.609757
O O10 0.750000 0.750000 0.191866
O O11 0.763598 0.595897 0.176850
O O12 0.130708 0.661595 0.226037
O O13 0.891260 0.448910 0.672572
O O14 0.085904 0.555309 0.741782
#
# Coordination Sequence:
#
# PCOD9432113 Si02
#       6
#     8   8   8   8   8   8
#     4  10  22  40  65  97 132 183 234 294 356 427
#     4  10  24  42  68 100 139 183 237 305 374 440
#     4  10  23  39  65  97 135 180 236 293 354 417
#     4  10  24  43  67 103 142 182 230 293 390 437
#     4  11  23  38  70 108 135 185 240 306 359 443
#     4  11  22  40  71 104 142 177 241 306 370 448
#
# _framework density 23.718574
#
# number of rings (size 3 to 8) (size 9 to 14) (size 15 to 20)
#    0.000    1.667    1.667    2.000    9.333    6.000 
#    0.000    0.833    3.667    0.000    0.000    0.000 
#    0.000    0.000    0.000    0.000    0.000    0.000 
#
# Total GULP energy -267310.331192 kJ/mol
# GULP energy per Si atom -5568.965233 kJ/mol
# Density = 2.366459 g / cm^3
# Si number density = 23.718574 Si / 1000 Ang^3
#
#
#
# Elastic Constant Matrix: (Units=GPa)
#
#
# Indices 1 2 3 4 5 6 
#
# 1 103.6767 30.0710 -6.4980 0.0000 0.0000 0.0000
# 2 30.0710 92.2295 -5.6416 0.0000 0.0000 0.0000
# 3 -6.4980 -5.6416 70.7812 0.0000 0.0000 0.0000
# 4 0.0000 0.0000 0.0000 18.3475 0.0000 0.0000
# 5 0.0000 0.0000 0.0000 0.0000 30.2022 0.0000
# 6 0.0000 0.0000 0.0000 0.0000 0.0000 24.9953
#
#
#
# Elastic Compliance Matrix: (Units=1/GPa)
#
#
# Indices 1 2 3 4 5 6 
#
# 1 0.010688 -0.003441 0.000707 0.000000 0.000000 0.000000
# 2 -0.003441 0.012004 0.000641 0.000000 0.000000 0.000000
# 3 0.000707 0.000641 0.014244 0.000000 0.000000 0.000000
# 4 0.000000 0.000000 0.000000 0.054503 0.000000 0.000000
# 5 0.000000 0.000000 0.000000 0.000000 0.033110 0.000000
# 6 0.000000 0.000000 0.000000 0.000000 0.000000 0.040008
#
#
# Mechanical properties :
#
#
# Convention : Reuss Voigt Hill
#
# Bulk Modulus (GPa) = 30.53612 33.61670 32.07641
# Shear Modulus (GPa) = 27.83032 31.29275 29.56153
#
# Velocity S-wave (km/s) = 3.42914 3.63621 3.53419
# Velocity P-wave (km/s) = 5.34612 5.64210 5.49610
#
# Compressibility (1/GPa) = 0.03274810
#
# Stress axis : x y z
#
# Youngs Moduli (GPa) = 93.56406 83.30692 70.20492
#
# Poissons Ratio (x) = 0.28670 -0.04963
# Poissons Ratio (y) = 0.32200 -0.04499
# Poissons Ratio (z) = -0.06614 -0.05338
#
# Static dielectric constant tensor:
#      x y z
#    x 2.388160 0.000000 0.000000 
#    y 0.000000 1.903450 0.000000 
#    z 0.000000 0.000000 1.895500 
# 
# From -- ./inp_files/17522.got.cif
#   From: 2010.05.17/outbox.cif.g08.bks.cpg/sg56_9_cif.got.tgz:17522.got - 2010.06.03 13:42:01.
