data_PCOD9432507
_publ_section_title
;
Structure prediction by ZEFSAII (Michael W. Deem and Ramdas Pophale) SiO2 
 PCOD9432507
Probable space group: P C C N
;
_chemical_formula_sum "Si O2"
_cell_formula_units_Z 48
_cell_length_a 15.103354
_cell_length_b 12.201185
_cell_length_c 10.877966
_cell_angle_alpha 90.000000
_cell_angle_beta 90.000000
_cell_angle_gamma 90.000000
_cell_volume 2004.578698
_symmetry_space_group_name_H-M "P C C N"
_symmetry_group_IT_number 56
_symmetry_cell_setting 'orthorhombic'
loop_
_space_group_symop_operation_xyz
x,y,z
1/2-x,1/2-y,z
1/2+x,-y,1/2-z
-x,1/2+y,1/2-z
-x,-y,-z
1/2+x,1/2+y,-z
1/2-x,y,1/2+z
x,1/2-y,1/2+z
loop_
_atom_site_type_symbol
_atom_site_label
_atom_site_fract_x
_atom_site_fract_y
_atom_site_fract_z
Si Si1 0.880635 0.015287 0.680109
Si Si2 0.750000 0.750000 0.766493
Si Si3 0.084128 0.289210 0.906930
Si Si4 0.750000 0.250000 0.914492
Si Si5 0.132390 0.108566 0.080866
Si Si6 0.695100 0.427984 0.098697
Si Si7 0.416162 0.750054 0.263831
O O1 0.774073 0.032803 0.687083
O O2 0.923860 0.134248 0.665048
O O3 0.899936 0.920022 0.580881
O O4 0.910931 0.961820 0.809808
O O5 0.666524 0.754887 0.675530
O O6 0.776460 0.846749 0.859656
O O7 0.082055 0.215790 0.029601
O O8 0.999357 0.272304 0.821699
O O9 0.750111 0.355478 0.001062
O O10 0.665245 0.263667 0.830286
O O11 0.150575 0.028868 0.968718
O O12 0.619694 0.349366 0.153234
#
# Coordination Sequence:
#
# PCOD9432507 Si02
#       7
#     8   4   8   4   8   8   8
#     4  11  23  45  68 100 141 185 233 284 350 420
#     4  10  22  48  66 104 138 180 234 284 350 416
#     4  11  27  43  72 106 142 182 236 297 349 418
#     4  12  22  44  70 104 138 188 230 294 346 424
#     4  11  22  42  75  97 135 186 233 279 360 409
#     4  12  22  44  75  98 144 184 232 292 346 409
#     4  12  25  45  67 111 141 187 237 283 354 422
#
# _framework density 23.945181999999999
#
# number of rings (size 3 to 8) (size 9 to 14) (size 15 to 20)
#    0.000    0.667    5.000    3.500    2.333    3.333 
#    0.000    0.833    0.000    0.000    0.000    0.000 
#    0.000    0.000    0.000    0.000    0.000    0.000 
#
# Total GULP energy -268521.399930 kJ/mol
# GULP energy per Si atom -5594.195832 kJ/mol
# Density = 2.389068 g / cm^3
# Si number density = 23.945182 Si / 1000 Ang^3
#
#
#
# Elastic Constant Matrix: (Units=GPa)
#
#
# Indices 1 2 3 4 5 6 
#
# 1 77.0377 18.7822 5.7614 0.0000 0.0000 0.0000
# 2 18.7822 157.9699 33.2659 0.0000 0.0000 0.0000
# 3 5.7614 33.2659 63.4408 0.0000 0.0000 0.0000
# 4 0.0000 0.0000 0.0000 46.3898 0.0000 0.0000
# 5 0.0000 0.0000 0.0000 0.0000 11.3208 0.0000
# 6 0.0000 0.0000 0.0000 0.0000 0.0000 25.3775
#
#
#
# Elastic Compliance Matrix: (Units=1/GPa)
#
#
# Indices 1 2 3 4 5 6 
#
# 1 0.013379 -0.001501 -0.000428 0.000000 0.000000 0.000000
# 2 -0.001501 0.007284 -0.003683 0.000000 0.000000 0.000000
# 3 -0.000428 -0.003683 0.017733 0.000000 0.000000 0.000000
# 4 0.000000 0.000000 0.000000 0.021556 0.000000 0.000000
# 5 0.000000 0.000000 0.000000 0.000000 0.088333 0.000000
# 6 0.000000 0.000000 0.000000 0.000000 0.000000 0.039405
#
#
# Mechanical properties :
#
#
# Convention : Reuss Voigt Hill
#
# Bulk Modulus (GPa) = 36.80284 46.00750 41.40517
# Shear Modulus (GPa) = 24.04175 32.66021 28.35098
#
# Velocity S-wave (km/s) = 3.17209 3.69719 3.44466
# Velocity P-wave (km/s) = 5.36835 6.12217 5.75761
#
# Compressibility (1/GPa) = 0.02717182
#
# Stress axis : x y z
#
# Youngs Moduli (GPa) = 74.74671 137.27987 56.39189
#
# Poissons Ratio (x) = 0.20599 0.02415
# Poissons Ratio (y) = 0.11216 0.20771
# Poissons Ratio (z) = 0.03200 0.50565
#
# Static dielectric constant tensor:
#      x y z
#    x 1.855530 0.000000 0.000000 
#    y 0.000000 1.951910 0.000000 
#    z 0.000000 0.000000 1.939230 
# 
# From -- ./inp_files/8319.got.cif
#   From: 2010.05.17/outbox.cif.g08.bks.cpg/sg56_5_cif.got.tgz:8319.got - 2010.06.03 13:42:01.
