data_PCOD9432971
_publ_section_title
;
Structure prediction by ZEFSAII (Michael W. Deem and Ramdas Pophale) SiO2 
 PCOD9432971
Probable space group: P C C N
;
_chemical_formula_sum "Si O2"
_cell_formula_units_Z 60
_cell_length_a 12.771590
_cell_length_b 9.802403
_cell_length_c 22.970470
_cell_angle_alpha 90.000000
_cell_angle_beta 90.000000
_cell_angle_gamma 90.000000
_cell_volume 2875.725331
_symmetry_space_group_name_H-M "P C C N"
_symmetry_group_IT_number 56
_symmetry_cell_setting 'orthorhombic'
loop_
_space_group_symop_operation_xyz
x,y,z
1/2-x,1/2-y,z
1/2+x,-y,1/2-z
-x,1/2+y,1/2-z
-x,-y,-z
1/2+x,1/2+y,-z
1/2-x,y,1/2+z
x,1/2-y,1/2+z
loop_
_atom_site_type_symbol
_atom_site_label
_atom_site_fract_x
_atom_site_fract_y
_atom_site_fract_z
Si Si1 0.250000 0.750000 0.048770
Si Si2 0.130098 0.243811 0.094779
Si Si3 0.845681 0.444726 0.357272
Si Si4 0.979490 0.162343 0.493918
Si Si5 0.192820 0.129048 0.789108
Si Si6 0.456918 0.054262 0.189559
Si Si7 0.470123 0.229607 0.865362
Si Si8 0.816081 0.384084 0.223583
O O1 0.273003 0.623039 0.092718
O O2 0.356486 0.790860 0.013375
O O3 0.250000 0.250000 0.072027
O O4 0.107658 0.365504 0.140462
O O5 0.124864 0.098547 0.127134
O O6 0.041410 0.261913 0.045629
O O7 0.804534 0.427757 0.291503
O O8 0.946833 0.349641 0.357671
O O9 0.033581 0.198974 0.433070
O O10 0.000000 0.000000 0.500000
O O11 0.250000 0.250000 0.753257
O O12 0.135521 0.213331 0.838746
O O13 0.108423 0.055365 0.748645
O O14 0.269810 0.012645 0.810871
O O15 0.564360 0.132584 0.204753
O O16 0.487145 0.903699 0.168150
O O17 0.750000 0.250000 0.213369
#
# Coordination Sequence:
#
# PCOD9432971 Si02
#       8
#     4   8   8   8   8   8   8   8
#     4  10  24  44  78 106 140 186 250 298 364 432
#     4  12  27  46  73 108 141 190 252 301 356 436
#     4  11  23  43  71 103 138 188 238 295 352 436
#     4  11  24  50  76 103 141 194 244 306 370 425
#     4  12  25  41  65 105 142 182 233 291 359 434
#     4  12  25  45  68 104 143 187 239 291 362 437
#     4  11  25  45  71  98 145 186 237 298 362 431
#     4  12  25  41  71 104 144 194 231 294 369 440
#
# _framework density 20.864301000000001
#
# number of rings (size 3 to 8) (size 9 to 14) (size 15 to 20)
#    0.000    0.533    4.667    3.600    5.600    2.667 
#    1.200    1.333    0.000    0.000    0.000    0.000 
#    0.000    0.000    0.000    0.000    0.000    0.000 
#
# Total GULP energy -335418.293399 kJ/mol
# GULP energy per Si atom -5590.304890 kJ/mol
# Density = 2.081681 g / cm^3
# Si number density = 20.864301 Si / 1000 Ang^3
#
#
#
# Elastic Constant Matrix: (Units=GPa)
#
#
# Indices 1 2 3 4 5 6 
#
# 1 126.8297 26.6948 35.0677 0.0000 0.0000 0.0000
# 2 26.6948 113.6376 12.0438 0.0000 0.0000 0.0000
# 3 35.0677 12.0438 65.1167 0.0000 0.0000 0.0000
# 4 0.0000 0.0000 0.0000 10.1410 0.0000 0.0000
# 5 0.0000 0.0000 0.0000 0.0000 28.1242 0.0000
# 6 0.0000 0.0000 0.0000 0.0000 0.0000 41.3383
#
#
#
# Elastic Compliance Matrix: (Units=1/GPa)
#
#
# Indices 1 2 3 4 5 6 
#
# 1 0.009590 -0.001739 -0.004843 0.000000 0.000000 0.000000
# 2 -0.001739 0.009291 -0.000782 0.000000 0.000000 0.000000
# 3 -0.004843 -0.000782 0.018110 0.000000 0.000000 0.000000
# 4 0.000000 0.000000 0.000000 0.098610 0.000000 0.000000
# 5 0.000000 0.000000 0.000000 0.000000 0.035557 0.000000
# 6 0.000000 0.000000 0.000000 0.000000 0.000000 0.024191
#
#
# Mechanical properties :
#
#
# Convention : Reuss Voigt Hill
#
# Bulk Modulus (GPa) = 44.91782 50.35519 47.63650
# Shear Modulus (GPa) = 22.98891 31.37255 27.18073
#
# Velocity S-wave (km/s) = 3.32298 3.88190 3.61326
# Velocity P-wave (km/s) = 6.02480 6.65426 6.34734
#
# Compressibility (1/GPa) = 0.02226288
#
# Stress axis : x y z
#
# Youngs Moduli (GPa) = 104.27878 107.62667 55.21937
#
# Poissons Ratio (x) = 0.18721 0.26741
# Poissons Ratio (y) = 0.18139 0.04317
# Poissons Ratio (z) = 0.50499 0.08414
#
# Static dielectric constant tensor:
#      x y z
#    x 1.776160 0.000000 0.000000 
#    y 0.000000 1.668470 0.000000 
#    z 0.000000 0.000000 1.775770 
# 
# From -- ./inp_files/22326.got.cif
#   From: 2010.05.17/outbox.cif.g08.bks.cpg/sg56_12_cif.got.tgz:22326.got - 2010.06.03 13:42:01.
