data_PCOD9432041
_publ_section_title
;
Structure prediction by ZEFSAII (Michael W. Deem and Ramdas Pophale) SiO2 
 PCOD9432041
Probable space group: P C C N
;
_chemical_formula_sum "Si O2"
_cell_formula_units_Z 64
_cell_length_a 12.757365
_cell_length_b 9.057859
_cell_length_c 26.657617
_cell_angle_alpha 90.000000
_cell_angle_beta 90.000000
_cell_angle_gamma 90.000000
_cell_volume 3080.405295
_symmetry_space_group_name_H-M "P C C N"
_symmetry_group_IT_number 56
_symmetry_cell_setting 'orthorhombic'
loop_
_space_group_symop_operation_xyz
x,y,z
1/2-x,1/2-y,z
1/2+x,-y,1/2-z
-x,1/2+y,1/2-z
-x,-y,-z
1/2+x,1/2+y,-z
1/2-x,y,1/2+z
x,1/2-y,1/2+z
loop_
_atom_site_type_symbol
_atom_site_label
_atom_site_fract_x
_atom_site_fract_y
_atom_site_fract_z
Si Si1 0.013321 0.506499 0.584504
Si Si2 0.730505 0.572828 0.961369
Si Si3 0.726283 0.575457 0.070453
Si Si4 0.037568 0.750689 0.666853
Si Si5 0.378009 0.486606 0.222013
Si Si6 0.017555 0.248487 0.166599
Si Si7 0.809031 0.510182 0.854423
Si Si8 0.646382 0.988993 0.168439
O O1 0.896801 0.542408 0.566244
O O2 0.107667 0.466110 0.547068
O O3 0.043216 0.649505 0.617377
O O4 0.003067 0.367889 0.621997
O O5 0.750000 0.750000 0.957937
O O6 0.788018 0.501903 0.913667
O O7 0.770199 0.523561 0.016299
O O8 0.750000 0.750000 0.073161
O O9 0.774221 0.511624 0.121954
O O10 0.056022 0.635207 0.711960
O O11 0.931501 0.847296 0.664457
O O12 0.131230 0.867266 0.665577
O O13 0.458318 0.351156 0.215339
O O14 0.297342 0.473593 0.176294
O O15 0.315226 0.482196 0.274061
O O16 0.118465 0.349382 0.156092
O O17 0.922177 0.362161 0.167534
#
# Coordination Sequence:
#
# PCOD9432041 Si02
#       8
#     8   8   8   8   8   8   8   8
#     4  11  21  43  68  92 129 174 219 269 323 393
#     4  11  21  41  71  97 129 169 220 279 330 395
#     4  11  25  43  64  97 134 179 215 267 341 397
#     4  10  22  39  65  95 129 164 220 268 322 387
#     4  11  21  39  67  95 129 178 215 269 333 392
#     4  10  22  40  66  92 130 166 223 267 323 393
#     4  11  20  40  65 100 120 162 223 272 321 382
#     4  11  24  44  60  95 138 172 216 271 329 401
#
# _framework density 20.776486999999999
#
# number of rings (size 3 to 8) (size 9 to 14) (size 15 to 20)
#    0.000    1.250    5.000    1.875    0.000    1.500 
#   13.500    6.250    0.000    0.000    0.000    0.000 
#    0.000    0.000    0.000    0.000    0.000    0.000 
#
# Total GULP energy -357288.049524 kJ/mol
# GULP energy per Si atom -5582.625774 kJ/mol
# Density = 2.072920 g / cm^3
# Si number density = 20.776487 Si / 1000 Ang^3
#
#
#
# Elastic Constant Matrix: (Units=GPa)
#
#
# Indices 1 2 3 4 5 6 
#
# 1 54.9948 29.5117 11.0432 0.0000 0.0000 0.0000
# 2 29.5117 108.1885 26.3881 0.0000 0.0000 0.0000
# 3 11.0432 26.3881 131.8325 0.0000 0.0000 0.0000
# 4 0.0000 0.0000 0.0000-7792.4028 0.0000 0.0000
# 5 0.0000 0.0000 0.0000 0.0000 37.8096 0.0000
# 6 0.0000 0.0000 0.0000 0.0000 0.0000 11.7111
#
#
#
# Elastic Compliance Matrix: (Units=1/GPa)
#
#
# Indices 1 2 3 4 5 6 
#
# 1 0.021355 -0.005666 -0.000655 0.000000 0.000000 0.000000
# 2 -0.005666 0.011221 -0.001771 0.000000 0.000000 0.000000
# 3 -0.000655 -0.001771 0.007995 0.000000 0.000000 0.000000
# 4 0.000000 0.000000 0.000000 -0.000128 0.000000 0.000000
# 5 0.000000 0.000000 0.000000 0.000000 0.026448 0.000000
# 6 0.000000 0.000000 0.000000 0.000000 0.000000 0.085389
#
#
# Mechanical properties :
#
#
# Convention : Reuss Voigt Hill
#
# Bulk Modulus (GPa) = 41.00514 47.65577 44.33046
# Shear Modulus (GPa) = 28.31372 -1533.37157 -752.52892
#
# Velocity S-wave (km/s) = 3.69559 -27.19622 -19.05226
# Velocity P-wave (km/s) = 6.16352 31.03533 21.50817
#
# Compressibility (1/GPa) = 0.02438719
#
# Stress axis : x y z
#
# Youngs Moduli (GPa) = 46.82663 89.12142 125.08126
#
# Poissons Ratio (x) = 0.50493 0.08191
# Poissons Ratio (y) = 0.26530 0.22157
# Poissons Ratio (z) = 0.03066 0.15787
#
# Static dielectric constant tensor:
#      x y z
#    x 1.744500 0.000000 0.000000 
#    y 0.000000 1.736210 0.000000 
#    z 0.000000 0.000000 1.783090 
# 
# From -- ./inp_files/23513.got.cif
#   From: 2010.05.17/outbox.cif.g08.bks.cpg/sg56_12_cif.got.tgz:23513.got - 2010.06.03 13:42:01.
