data_PCOD9432893
_publ_section_title
;
Structure prediction by ZEFSAII (Michael W. Deem and Ramdas Pophale) SiO2 
 PCOD9432893
Probable space group: P C C N
;
_chemical_formula_sum "Si O2"
_cell_formula_units_Z 48
_cell_length_a 9.170077
_cell_length_b 12.913925
_cell_length_c 18.355112
_cell_angle_alpha 90.000000
_cell_angle_beta 90.000000
_cell_angle_gamma 90.000000
_cell_volume 2173.643321
_symmetry_space_group_name_H-M "P C C N"
_symmetry_group_IT_number 56
_symmetry_cell_setting 'orthorhombic'
loop_
_space_group_symop_operation_xyz
x,y,z
1/2-x,1/2-y,z
1/2+x,-y,1/2-z
-x,1/2+y,1/2-z
-x,-y,-z
1/2+x,1/2+y,-z
1/2-x,y,1/2+z
x,1/2-y,1/2+z
loop_
_atom_site_type_symbol
_atom_site_label
_atom_site_fract_x
_atom_site_fract_y
_atom_site_fract_z
Si Si1 0.904927 0.572124 0.195071
Si Si2 0.750000 0.750000 0.602180
Si Si3 0.750000 0.250000 0.087955
Si Si4 0.074504 0.017574 0.077918
Si Si5 0.141958 0.564387 0.309494
Si Si6 0.441867 0.241388 0.534280
Si Si7 0.096954 0.471411 0.070618
O O1 0.824126 0.662726 0.151203
O O2 0.773704 0.500973 0.226135
O O3 0.025059 0.609497 0.252768
O O4 0.998637 0.503907 0.138411
O O5 0.624661 0.783516 0.544468
O O6 0.717107 0.348596 0.139643
O O7 0.612650 0.236420 0.035977
O O8 0.079956 0.142587 0.085181
O O9 0.241031 0.979130 0.075677
O O10 0.959040 0.988592 0.140388
O O11 0.000000 0.000000 0.000000
O O12 0.377917 0.348341 0.563919
O O13 0.000000 0.500000 0.000000
#
# Coordination Sequence:
#
# PCOD9432893 Si02
#       7
#     8   4   4   8   8   8   8
#     4  12  26  45  68  95 142 186 233 290 356 436
#     4  12  24  44  66 108 132 182 230 292 360 420
#     4  10  24  42  70 102 132 178 236 292 350 424
#     4  11  23  40  69 102 134 171 229 287 342 410
#     4  11  25  46  65  98 135 185 230 284 356 433
#     4  11  21  40  69  98 137 168 230 288 349 412
#     4  12  21  40  68  98 134 176 223 284 349 407
#
# _framework density 22.082740000000001
#
# number of rings (size 3 to 8) (size 9 to 14) (size 15 to 20)
#    0.000    0.667    5.000    3.000    2.333    1.333 
#    6.000    2.500    0.000    0.000    0.000    0.000 
#    0.000    0.000    0.000    0.000    0.000    0.000 
#
# Total GULP energy -267933.215908 kJ/mol
# GULP energy per Si atom -5581.941998 kJ/mol
# Density = 2.203248 g / cm^3
# Si number density = 22.082740 Si / 1000 Ang^3
#
#
#
# Elastic Constant Matrix: (Units=GPa)
#
#
# Indices 1 2 3 4 5 6 
#
# 1 201.1708 11.9413 40.2094 0.0000 0.0000 0.0000
# 2 11.9413 54.5955 4.7134 0.0000 0.0000 0.0000
# 3 40.2094 4.7134 74.4829 0.0000 0.0000 0.0000
# 4 0.0000 0.0000 0.0000 26.8812 0.0000 0.0000
# 5 0.0000 0.0000 0.0000 0.0000 56.1413 0.0000
# 6 0.0000 0.0000 0.0000 0.0000 0.0000 29.6879
#
#
#
# Elastic Compliance Matrix: (Units=1/GPa)
#
#
# Indices 1 2 3 4 5 6 
#
# 1 0.005623 -0.000973 -0.002974 0.000000 0.000000 0.000000
# 2 -0.000973 0.018586 -0.000651 0.000000 0.000000 0.000000
# 3 -0.002974 -0.000651 0.015073 0.000000 0.000000 0.000000
# 4 0.000000 0.000000 0.000000 0.037201 0.000000 0.000000
# 5 0.000000 0.000000 0.000000 0.000000 0.017812 0.000000
# 6 0.000000 0.000000 0.000000 0.000000 0.000000 0.033684
#
#
# Mechanical properties :
#
#
# Convention : Reuss Voigt Hill
#
# Bulk Modulus (GPa) = 33.23877 49.33084 41.28481
# Shear Modulus (GPa) = 33.96687 40.76777 37.36732
#
# Velocity S-wave (km/s) = 3.92620 4.30133 4.11804
# Velocity P-wave (km/s) = 5.96975 6.85975 6.43017
#
# Compressibility (1/GPa) = 0.03008535
#
# Stress axis : x y z
#
# Youngs Moduli (GPa) = 177.83767 53.80524 66.34555
#
# Poissons Ratio (x) = 0.05236 0.19731
# Poissons Ratio (y) = 0.17306 0.04318
# Poissons Ratio (z) = 0.52890 0.03502
#
# Static dielectric constant tensor:
#      x y z
#    x 1.894450 0.000000 0.000000 
#    y 0.000000 1.870160 0.000000 
#    z 0.000000 0.000000 1.813740 
# 
# From -- ./inp_files/14882.got.cif
#   From: 2010.05.17/outbox.cif.g08.bks.cpg/sg56_8_cif.got.tgz:14882.got - 2010.06.03 13:42:01.
