data_PCOD9432330
_publ_section_title
;
Structure prediction by ZEFSAII (Michael W. Deem and Ramdas Pophale) SiO2 
 PCOD9432330
Probable space group: P C C N
;
_chemical_formula_sum "Si O2"
_cell_formula_units_Z 28
_cell_length_a 13.342865
_cell_length_b 4.966403
_cell_length_c 18.345674
_cell_angle_alpha 90.000000
_cell_angle_beta 90.000000
_cell_angle_gamma 90.000000
_cell_volume 1215.695255
_symmetry_space_group_name_H-M "P C C N"
_symmetry_group_IT_number 56
_symmetry_cell_setting 'orthorhombic'
loop_
_space_group_symop_operation_xyz
x,y,z
1/2-x,1/2-y,z
1/2+x,-y,1/2-z
-x,1/2+y,1/2-z
-x,-y,-z
1/2+x,1/2+y,-z
1/2-x,y,1/2+z
x,1/2-y,1/2+z
loop_
_atom_site_type_symbol
_atom_site_label
_atom_site_fract_x
_atom_site_fract_y
_atom_site_fract_z
Si Si1 0.474389 0.105808 0.345217
Si Si2 0.602025 0.603781 0.310838
Si Si3 0.682886 0.482864 0.037341
Si Si4 0.750000 0.250000 0.896573
O O1 0.566434 0.904214 0.328639
O O2 0.399049 0.070450 0.276401
O O3 0.417000 0.037594 0.418720
O O4 0.513839 0.409328 0.341081
O O5 0.699528 0.480063 0.348402
O O6 0.750000 0.250000 0.074819
O O7 0.750000 0.750000 0.033198
O O8 0.670519 0.370561 0.955306
#
# Coordination Sequence:
#
# PCOD9432330 Si02
#       4
#     8   8   8   4
#     4  10  22  43  62  88 121 163 209 246 317 356
#     4  10  23  40  64  89 121 160 205 262 297 370
#     4  10  23  40  59  92 122 161 204 243 309 367
#     4  10  26  38  62  94 128 154 210 246 318 352
#
# _framework density 23.032088000000002
#
# number of rings (size 3 to 8) (size 9 to 14) (size 15 to 20)
#    0.857    1.143    0.000    1.714    6.000    2.286 
#    0.000    0.000    0.000    0.000    0.000    0.000 
#    0.000    0.000    0.000    0.000    0.000    0.000 
#
# Total GULP energy -156500.054918 kJ/mol
# GULP energy per Si atom -5589.287676 kJ/mol
# Density = 2.297967 g / cm^3
# Si number density = 23.032088 Si / 1000 Ang^3
#
#
#
# Elastic Constant Matrix: (Units=GPa)
#
#
# Indices 1 2 3 4 5 6 
#
# 1 49.6231 -13.1175 34.8069 0.0000 0.0000 0.0000
# 2 -13.1175 81.1072 -5.8333 0.0000 0.0000 0.0000
# 3 34.8069 -5.8333 106.9335 0.0000 0.0000 0.0000
# 4 0.0000 0.0000 0.0000 -16.2063 0.0000 0.0000
# 5 0.0000 0.0000 0.0000 0.0000 -21.7757 0.0000
# 6 0.0000 0.0000 0.0000 0.0000 0.0000 35.7066
#
#
#
# Elastic Compliance Matrix: (Units=1/GPa)
#
#
# Indices 1 2 3 4 5 6 
#
# 1 0.027222 0.003780 -0.008654 0.000000 0.000000 0.000000
# 2 0.003780 0.012903 -0.000527 0.000000 0.000000 0.000000
# 3 -0.008654 -0.000527 0.012140 0.000000 0.000000 0.000000
# 4 0.000000 0.000000 0.000000 -0.061704 0.000000 0.000000
# 5 0.000000 0.000000 0.000000 0.000000 -0.045923 0.000000
# 6 0.000000 0.000000 0.000000 0.000000 0.000000 0.028006
#
#
# Mechanical properties :
#
#
# Convention : Reuss Voigt Hill
#
# Bulk Modulus (GPa) = 24.11812 29.93068 27.02440
# Shear Modulus (GPa) = -1828.82020 14.33209 -907.24405
#
# Velocity S-wave (km/s) = -28.20913 2.49723 -19.86856
# Velocity P-wave (km/s) = 32.41161 4.61934 22.68451
#
# Compressibility (1/GPa) = 0.04146260
#
# Stress axis : x y z
#
# Youngs Moduli (GPa) = 36.73549 77.50224 82.37295
#
# Poissons Ratio (x) = -0.29297 0.71289
# Poissons Ratio (y) = -0.13886 0.04338
# Poissons Ratio (z) = 0.31793 0.04081
#
# Static dielectric constant tensor:
#      x y z
#    x 1.979080 0.000000 0.000000 
#    y 0.000000 1.847380 0.000000 
#    z 0.000000 0.000000 1.833210 
# 
# From -- ./inp_files/9348.got.cif
#   From: 2010.05.17/outbox.cif.g08.bks.cpg/sg56_5_cif.got.tgz:9348.got - 2010.06.03 13:42:01.
