data_PCOD9432100
_publ_section_title
;
Structure prediction by ZEFSAII (Michael W. Deem and Ramdas Pophale) SiO2 
 PCOD9432100
Probable space group: P C C N
;
_chemical_formula_sum "Si O2"
_cell_formula_units_Z 44
_cell_length_a 10.608001
_cell_length_b 10.387753
_cell_length_c 18.346233
_cell_angle_alpha 90.000000
_cell_angle_beta 90.000000
_cell_angle_gamma 90.000000
_cell_volume 2021.631851
_symmetry_space_group_name_H-M "P C C N"
_symmetry_group_IT_number 56
_symmetry_cell_setting 'orthorhombic'
loop_
_space_group_symop_operation_xyz
x,y,z
1/2-x,1/2-y,z
1/2+x,-y,1/2-z
-x,1/2+y,1/2-z
-x,-y,-z
1/2+x,1/2+y,-z
1/2-x,y,1/2+z
x,1/2-y,1/2+z
loop_
_atom_site_type_symbol
_atom_site_label
_atom_site_fract_x
_atom_site_fract_y
_atom_site_fract_z
Si Si1 0.690060 0.037876 0.356210
Si Si2 0.042903 0.717214 0.867069
Si Si3 0.015926 0.561303 0.118401
Si Si4 0.100040 0.713318 0.519383
Si Si5 0.879666 0.806016 0.753413
Si Si6 0.250000 0.750000 0.261238
O O1 0.610498 0.095549 0.423481
O O2 0.693655 0.144316 0.292128
O O3 0.836031 0.024442 0.378876
O O4 0.642910 0.911615 0.316364
O O5 0.065693 0.568827 0.892452
O O6 0.144407 0.792574 0.817966
O O7 0.939650 0.695871 0.803762
O O8 0.035229 0.798738 0.940820
O O9 0.965423 0.631649 0.191160
O O10 0.020920 0.672120 0.057522
O O11 0.250000 0.750000 0.508447
O O12 0.750000 0.750000 0.721814
#
# Coordination Sequence:
#
# PCOD9432100 Si02
#       6
#     8   8   8   8   8   4
#     4  11  21  40  64  89 126 169 209 263 314 374
#     4  12  23  39  65  95 126 167 214 261 320 380
#     4  11  22  40  66  89 124 169 209 264 316 375
#     4  10  22  40  64  92 127 167 213 260 320 385
#     4  12  25  39  65  99 129 163 219 266 314 378
#     4  12  20  38  66  92 114 168 222 254 310 378
#
# _framework density 21.764596999999998
#
# number of rings (size 3 to 8) (size 9 to 14) (size 15 to 20)
#    0.000    0.727    9.091    0.545    0.000    0.727 
#    0.000    0.909    0.000    0.000    0.000    0.000 
#    0.000    0.000    0.000    0.000    0.000    0.000 
#
# Total GULP energy -245055.655317 kJ/mol
# GULP energy per Si atom -5569.446712 kJ/mol
# Density = 2.171506 g / cm^3
# Si number density = 21.764597 Si / 1000 Ang^3
#
#
#
# Elastic Constant Matrix: (Units=GPa)
#
#
# Indices 1 2 3 4 5 6 
#
# 1 31.0482 -4.6488 17.9799 0.0000 0.0000 0.0000
# 2 -4.6488 46.6381 9.0243 0.0000 0.0000 0.0000
# 3 17.9799 9.0243 117.8840 0.0000 0.0000 0.0000
# 4 0.0000 0.0000 0.0000 56.6106 0.0000 0.0000
# 5 0.0000 0.0000 0.0000 0.0000 16.0118 0.0000
# 6 0.0000 0.0000 0.0000 0.0000 0.0000 10.3514
#
#
#
# Elastic Compliance Matrix: (Units=1/GPa)
#
#
# Indices 1 2 3 4 5 6 
#
# 1 0.036343 0.004766 -0.005908 0.000000 0.000000 0.000000
# 2 0.004766 0.022389 -0.002441 0.000000 0.000000 0.000000
# 3 -0.005908 -0.002441 0.009571 0.000000 0.000000 0.000000
# 4 0.000000 0.000000 0.000000 0.017665 0.000000 0.000000
# 5 0.000000 0.000000 0.000000 0.000000 0.062454 0.000000
# 6 0.000000 0.000000 0.000000 0.000000 0.000000 0.096605
#
#
# Mechanical properties :
#
#
# Convention : Reuss Voigt Hill
#
# Bulk Modulus (GPa) = 16.35677 26.69788 21.52733
# Shear Modulus (GPa) = 18.34382 28.14241 23.24312
#
# Velocity S-wave (km/s) = 2.90630 3.59978 3.27147
# Velocity P-wave (km/s) = 4.33517 5.43794 4.91757
#
# Compressibility (1/GPa) = 0.06113678
#
# Stress axis : x y z
#
# Youngs Moduli (GPa) = 27.51574 44.66472 104.48388
#
# Poissons Ratio (x) = -0.21286 0.61728
# Poissons Ratio (y) = -0.13113 0.25503
# Poissons Ratio (z) = 0.16256 0.10902
#
# Static dielectric constant tensor:
#      x y z
#    x 1.915660 0.000000 0.000000 
#    y 0.000000 1.906190 0.000000 
#    z 0.000000 0.000000 1.751350 
# 
# From -- ./inp_files/15550.got.cif
#   From: 2010.05.17/outbox.cif.g08.bks.cpg/sg56_8_cif.got.tgz:15550.got - 2010.06.03 13:42:01.
