data_PCOD9432603
_publ_section_title
;
Structure prediction by ZEFSAII (Michael W. Deem and Ramdas Pophale) SiO2 
 PCOD9432603
Probable space group: P C C N
;
_chemical_formula_sum "Si O2"
_cell_formula_units_Z 40
_cell_length_a 5.101959
_cell_length_b 12.061732
_cell_length_c 28.851673
_cell_angle_alpha 90.000000
_cell_angle_beta 90.000000
_cell_angle_gamma 90.000000
_cell_volume 1775.487586
_symmetry_space_group_name_H-M "P C C N"
_symmetry_group_IT_number 56
_symmetry_cell_setting 'orthorhombic'
loop_
_space_group_symop_operation_xyz
x,y,z
1/2-x,1/2-y,z
1/2+x,-y,1/2-z
-x,1/2+y,1/2-z
-x,-y,-z
1/2+x,1/2+y,-z
1/2-x,y,1/2+z
x,1/2-y,1/2+z
loop_
_atom_site_type_symbol
_atom_site_label
_atom_site_fract_x
_atom_site_fract_y
_atom_site_fract_z
Si Si1 0.220481 0.073819 0.250227
Si Si2 0.250000 0.250000 0.582984
Si Si3 0.441824 0.658370 0.833612
Si Si4 0.750000 0.750000 0.172422
Si Si5 0.394703 0.489001 0.552102
Si Si6 0.388056 0.059352 0.389412
O O1 0.142444 0.157269 0.291747
O O2 0.174770 0.134991 0.201681
O O3 0.514696 0.027915 0.251115
O O4 0.471635 0.209283 0.617890
O O5 0.359286 0.356347 0.557164
O O6 0.250000 0.750000 0.812241
O O7 0.356255 0.536012 0.849849
O O8 0.924089 0.824896 0.137680
O O9 0.500000 0.500000 0.500000
O O10 0.616461 0.547047 0.583286
O O11 0.121124 0.535807 0.573641
#
# Coordination Sequence:
#
# PCOD9432603 Si02
#       6
#     8   4   8   4   8   8
#     4  12  30  46  71 106 152 206 261 310 363 446
#     4  10  23  41  76 104 138 192 236 311 365 444
#     4  11  23  44  73 104 141 195 256 299 357 432
#     4  12  29  49  72 112 162 198 246 317 383 446
#     4  11  25  48  76 109 144 184 250 307 380 460
#     4  11  26  46  73 108 148 194 240 307 381 442
#
# _framework density 22.529022000000001
#
# number of rings (size 3 to 8) (size 9 to 14) (size 15 to 20)
#    0.000    0.800    4.000    1.200   11.200    3.200 
#    0.000    4.000    0.000    0.000    0.000    0.000 
#    0.000    0.000    0.000    0.000    0.000    0.000 
#
# Total GULP energy -223183.300621 kJ/mol
# GULP energy per Si atom -5579.582516 kJ/mol
# Density = 2.247774 g / cm^3
# Si number density = 22.529022 Si / 1000 Ang^3
#
#
#
# Elastic Constant Matrix: (Units=GPa)
#
#
# Indices 1 2 3 4 5 6 
#
# 1 87.1575 21.4459 11.9253 0.0000 0.0000 0.0000
# 2 21.4459 140.4867 56.5520 0.0000 0.0000 0.0000
# 3 11.9253 56.5520 106.7756 0.0000 0.0000 0.0000
# 4 0.0000 0.0000 0.0000 27.8804 0.0000 0.0000
# 5 0.0000 0.0000 0.0000 0.0000 29.2701 0.0000
# 6 0.0000 0.0000 0.0000 0.0000 0.0000 30.7411
#
#
#
# Elastic Compliance Matrix: (Units=1/GPa)
#
#
# Indices 1 2 3 4 5 6 
#
# 1 0.011940 -0.001634 -0.000468 0.000000 0.000000 0.000000
# 2 -0.001634 0.009271 -0.004728 0.000000 0.000000 0.000000
# 3 -0.000468 -0.004728 0.011922 0.000000 0.000000 0.000000
# 4 0.000000 0.000000 0.000000 0.035867 0.000000 0.000000
# 5 0.000000 0.000000 0.000000 0.000000 0.034165 0.000000
# 6 0.000000 0.000000 0.000000 0.000000 0.000000 0.032530
#
#
# Mechanical properties :
#
#
# Convention : Reuss Voigt Hill
#
# Bulk Modulus (GPa) = 51.35475 57.14067 54.24771
# Shear Modulus (GPa) = 32.08340 33.87808 32.98074
#
# Velocity S-wave (km/s) = 3.77781 3.88203 3.83027
# Velocity P-wave (km/s) = 6.47098 6.74624 6.61004
#
# Compressibility (1/GPa) = 0.01947240
#
# Stress axis : x y z
#
# Youngs Moduli (GPa) = 83.75464 107.86765 83.88174
#
# Poissons Ratio (x) = 0.17629 0.03925
# Poissons Ratio (y) = 0.13688 0.39655
# Poissons Ratio (z) = 0.03919 0.50995
#
# Static dielectric constant tensor:
#      x y z
#    x 1.856140 0.000000 0.000000 
#    y 0.000000 1.926330 0.000000 
#    z 0.000000 0.000000 1.828250 
# 
# From -- ./inp_files/21560.got.cif
#   From: 2010.05.17/outbox.cif.g08.bks.cpg/sg56_11_cif.got.tgz:21560.got - 2010.06.03 13:42:01.
