data_PCOD9432038
_publ_section_title
;
Structure prediction by ZEFSAII (Michael W. Deem and Ramdas Pophale) SiO2 
 PCOD9432038
Probable space group: P C C N
;
_chemical_formula_sum "Si O2"
_cell_formula_units_Z 60
_cell_length_a 16.886034
_cell_length_b 7.761854
_cell_length_c 19.610836
_cell_angle_alpha 90.000000
_cell_angle_beta 90.000000
_cell_angle_gamma 90.000000
_cell_volume 2570.332080
_symmetry_space_group_name_H-M "P C C N"
_symmetry_group_IT_number 56
_symmetry_cell_setting 'orthorhombic'
loop_
_space_group_symop_operation_xyz
x,y,z
1/2-x,1/2-y,z
1/2+x,-y,1/2-z
-x,1/2+y,1/2-z
-x,-y,-z
1/2+x,1/2+y,-z
1/2-x,y,1/2+z
x,1/2-y,1/2+z
loop_
_atom_site_type_symbol
_atom_site_label
_atom_site_fract_x
_atom_site_fract_y
_atom_site_fract_z
Si Si1 0.884366 0.497623 0.456104
Si Si2 0.132304 0.192626 0.449370
Si Si3 0.465269 0.675004 0.586307
Si Si4 0.290855 0.987184 0.069438
Si Si5 0.814626 0.970992 0.281145
Si Si6 0.750000 0.750000 0.169552
Si Si7 0.926537 0.220996 0.764446
Si Si8 0.069413 0.159926 0.187963
O O1 0.883220 0.618226 0.520967
O O2 0.946763 0.345338 0.457125
O O3 0.796400 0.411686 0.448287
O O4 0.906145 0.614354 0.389690
O O5 0.189896 0.106490 0.504836
O O6 0.176096 0.212090 0.378471
O O7 0.047793 0.098063 0.439412
O O8 0.381108 0.579081 0.582270
O O9 0.473802 0.730122 0.665529
O O10 0.271573 0.048581 0.146420
O O11 0.763105 0.912374 0.218094
O O12 0.883824 0.827154 0.285678
O O13 0.848321 0.162368 0.270522
O O14 0.978210 0.286533 0.700890
O O15 0.914989 0.016683 0.770236
#
# Coordination Sequence:
#
# PCOD9432038 Si02
#       8
#     8   8   8   8   8   4   8   8
#     4  11  22  40  67  97 130 176 230 281 335 414
#     4  12  23  43  66  99 132 179 226 279 345 418
#     4  10  24  40  67  98 134 173 225 286 342 406
#     4  11  22  44  68  98 129 177 233 277 345 415
#     4  11  23  42  69  97 133 188 224 281 354 407
#     4  12  26  40  70  94 144 176 228 288 352 420
#     4  10  22  39  65 104 140 172 232 285 340 411
#     4  11  20  38  67 100 136 177 226 286 336 411
#
# _framework density 23.343288000000001
#
# number of rings (size 3 to 8) (size 9 to 14) (size 15 to 20)
#    0.000    1.067    4.000    2.800    1.867    0.000 
#    0.000    2.000    2.933    0.000    0.000    0.000 
#    0.000    0.000    0.000    0.000    0.000    0.000 
#
# Total GULP energy -335007.686317 kJ/mol
# GULP energy per Si atom -5583.461439 kJ/mol
# Density = 2.329016 g / cm^3
# Si number density = 23.343288 Si / 1000 Ang^3
#
#
#
# Elastic Constant Matrix: (Units=GPa)
#
#
# Indices 1 2 3 4 5 6 
#
# 1 123.4613 1.9351 30.8372 0.0000 0.0000 0.0000
# 2 1.9351 49.4991 5.2248 0.0000 0.0000 0.0000
# 3 30.8372 5.2248 95.0286 0.0000 0.0000 0.0000
# 4 0.0000 0.0000 0.0000 17.1854 0.0000 0.0000
# 5 0.0000 0.0000 0.0000 0.0000 -0.9734 0.0000
# 6 0.0000 0.0000 0.0000 0.0000 0.0000 37.9183
#
#
#
# Elastic Compliance Matrix: (Units=1/GPa)
#
#
# Indices 1 2 3 4 5 6 
#
# 1 0.008814 -0.000043 -0.002858 0.000000 0.000000 0.000000
# 2 -0.000043 0.020321 -0.001103 0.000000 0.000000 0.000000
# 3 -0.002858 -0.001103 0.011511 0.000000 0.000000 0.000000
# 4 0.000000 0.000000 0.000000 0.058189 0.000000 0.000000
# 5 0.000000 0.000000 0.000000 0.000000 -1.027307 0.000000
# 6 0.000000 0.000000 0.000000 0.000000 0.000000 0.026372
#
#
# Mechanical properties :
#
#
# Convention : Reuss Voigt Hill
#
# Bulk Modulus (GPa) = 30.63947 38.22038 34.42992
# Shear Modulus (GPa) = -5.66116 26.15884 10.24884
#
# Velocity S-wave (km/s) = -1.55899 3.35119 2.09762
# Velocity P-wave (km/s) = 3.14857 5.60203 4.54402
#
# Compressibility (1/GPa) = 0.03263764
#
# Stress axis : x y z
#
# Youngs Moduli (GPa) = 113.45329 49.21135 86.87188
#
# Poissons Ratio (x) = 0.00211 0.24827
# Poissons Ratio (y) = 0.00487 0.09585
# Poissons Ratio (z) = 0.32424 0.05430
#
# Static dielectric constant tensor:
#      x y z
#    x 1.954930 0.000000 0.000000 
#    y 0.000000 1.920110 0.000000 
#    z 0.000000 0.000000 1.847660 
# 
# From -- ./inp_files/16645.got.cif
#   From: 2010.05.17/outbox.cif.g08.bks.cpg/sg56_9_cif.got.tgz:16645.got - 2010.06.03 13:42:01.
