data_PCOD9432761
_publ_section_title
;
Structure prediction by ZEFSAII (Michael W. Deem and Ramdas Pophale) SiO2 
 PCOD9432761
Probable space group: P C C N
;
_chemical_formula_sum "Si O2"
_cell_formula_units_Z 28
_cell_length_a 10.012041
_cell_length_b 11.347215
_cell_length_c 9.209383
_cell_angle_alpha 90.000000
_cell_angle_beta 90.000000
_cell_angle_gamma 90.000000
_cell_volume 1046.266784
_symmetry_space_group_name_H-M "P C C N"
_symmetry_group_IT_number 56
_symmetry_cell_setting 'orthorhombic'
loop_
_space_group_symop_operation_xyz
x,y,z
1/2-x,1/2-y,z
1/2+x,-y,1/2-z
-x,1/2+y,1/2-z
-x,-y,-z
1/2+x,1/2+y,-z
1/2-x,y,1/2+z
x,1/2-y,1/2+z
loop_
_atom_site_type_symbol
_atom_site_label
_atom_site_fract_x
_atom_site_fract_y
_atom_site_fract_z
Si Si1 0.760161 0.372100 0.081322
Si Si2 0.250000 0.250000 0.506108
Si Si3 0.006480 0.882221 0.098346
Si Si4 0.365545 0.475524 0.661815
O O1 0.750000 0.250000 0.169256
O O2 0.641981 0.334796 0.966269
O O3 0.865504 0.432051 0.969684
O O4 0.710149 0.469431 0.198374
O O5 0.383214 0.207858 0.421794
O O6 0.287228 0.362994 0.601518
O O7 0.000639 0.925377 0.264274
O O8 0.000000 0.000000 0.000000
#
# Coordination Sequence:
#
# PCOD9432761 Si02
#       4
#     8   4   8   8
#     4  11  25  48  71 103 150 189 248 309 372 448
#     4  12  22  44  74 106 144 192 244 304 376 456
#     4  10  23  46  67 105 146 186 242 302 358 451
#     4  11  23  42  73 104 139 193 239 302 377 438
#
# _framework density 26.761817000000001
#
# number of rings (size 3 to 8) (size 9 to 14) (size 15 to 20)
#    0.000    1.143    5.714    1.714    0.000    6.857 
#    5.143    2.857    0.000    0.000    0.000    0.000 
#    0.000    0.000    0.000    0.000    0.000    0.000 
#
# Total GULP energy -156307.261392 kJ/mol
# GULP energy per Si atom -5582.402193 kJ/mol
# Density = 2.670091 g / cm^3
# Si number density = 26.761817 Si / 1000 Ang^3
#
#
#
# Elastic Constant Matrix: (Units=GPa)
#
#
# Indices 1 2 3 4 5 6 
#
# 1 77.0610 11.3430 23.7495 0.0000 0.0000 0.0000
# 2 11.3430 169.0056 40.8369 0.0000 0.0000 0.0000
# 3 23.7495 40.8369 190.7094 0.0000 0.0000 0.0000
# 4 0.0000 0.0000 0.0000 -27.7242 0.0000 0.0000
# 5 0.0000 0.0000 0.0000 0.0000 22.0322 0.0000
# 6 0.0000 0.0000 0.0000 0.0000 0.0000 39.3129
#
#
#
# Elastic Compliance Matrix: (Units=1/GPa)
#
#
# Indices 1 2 3 4 5 6 
#
# 1 0.013539 -0.000529 -0.001573 0.000000 0.000000 0.000000
# 2 -0.000529 0.006260 -0.001275 0.000000 0.000000 0.000000
# 3 -0.001573 -0.001275 0.005712 0.000000 0.000000 0.000000
# 4 0.000000 0.000000 0.000000 -0.036070 0.000000 0.000000
# 5 0.000000 0.000000 0.000000 0.000000 0.045388 0.000000
# 6 0.000000 0.000000 0.000000 0.000000 0.000000 0.025437
#
#
# Mechanical properties :
#
#
# Convention : Reuss Voigt Hill
#
# Bulk Modulus (GPa) = 53.30589 65.40388 59.35489
# Shear Modulus (GPa) = 68.23756 30.78062 49.50909
#
# Velocity S-wave (km/s) = 5.05504 3.39509 4.30582
# Velocity P-wave (km/s) = 7.35072 6.31357 6.85180
#
# Compressibility (1/GPa) = 0.01875965
#
# Stress axis : x y z
#
# Youngs Moduli (GPa) = 73.85908 159.73276 175.05728
#
# Poissons Ratio (x) = 0.08444 0.27534
# Poissons Ratio (y) = 0.03905 0.22315
# Poissons Ratio (z) = 0.11617 0.20362
#
# Static dielectric constant tensor:
#      x y z
#    x 2.421340 0.000000 0.000000 
#    y 0.000000 2.802430 0.000000 
#    z 0.000000 0.000000 2.094670 
# 
# From -- ./inp_files/2393.got.cif
#   From: 2010.05.17/outbox.cif.g08.bks.cpg/sg56_2_cif.got.tgz:2393.got - 2010.06.03 13:42:01.
