data_PCOD9432046
_publ_section_title
;
Structure prediction by ZEFSAII (Michael W. Deem and Ramdas Pophale) SiO2 
 PCOD9432046
Probable space group: P C C N
;
_chemical_formula_sum "Si O2"
_cell_formula_units_Z 44
_cell_length_a 7.345972
_cell_length_b 12.940275
_cell_length_c 22.407863
_cell_angle_alpha 90.000000
_cell_angle_beta 90.000000
_cell_angle_gamma 90.000000
_cell_volume 2130.066759
_symmetry_space_group_name_H-M "P C C N"
_symmetry_group_IT_number 56
_symmetry_cell_setting 'orthorhombic'
loop_
_space_group_symop_operation_xyz
x,y,z
1/2-x,1/2-y,z
1/2+x,-y,1/2-z
-x,1/2+y,1/2-z
-x,-y,-z
1/2+x,1/2+y,-z
1/2-x,y,1/2+z
x,1/2-y,1/2+z
loop_
_atom_site_type_symbol
_atom_site_label
_atom_site_fract_x
_atom_site_fract_y
_atom_site_fract_z
Si Si1 0.962039 0.249249 0.838169
Si Si2 0.750000 0.250000 0.153961
Si Si3 0.713148 0.066458 0.068207
Si Si4 0.605736 0.102024 0.935844
Si Si5 0.404474 0.166506 0.722868
Si Si6 0.053849 0.523172 0.640020
O O1 0.750000 0.250000 0.819978
O O2 0.961030 0.291735 0.905592
O O3 0.025351 0.130963 0.834658
O O4 0.067780 0.325253 0.793910
O O5 0.667814 0.159809 0.112717
O O6 0.590958 0.293872 0.194149
O O7 0.566137 0.974592 0.067130
O O8 0.695054 0.109881 0.001042
O O9 0.907541 0.025966 0.093745
O O10 0.764168 0.054892 0.894735
O O11 0.250000 0.250000 0.706588
O O12 0.386919 0.054436 0.692914
#
# Coordination Sequence:
#
# PCOD9432046 Si02
#       6
#     8   4   8   8   8   8
#     4  10  23  41  63  91 127 165 210 262 315 375
#     4  10  22  40  60  94 122 164 206 258 316 368
#     4  10  22  39  67  87 125 163 206 260 313 377
#     4  10  22  42  60  95 122 163 210 259 315 374
#     4  11  23  40  62  91 128 167 209 260 309 379
#     4  10  23  40  64  93 123 166 209 259 315 374
#
# _framework density 20.65663
#
# number of rings (size 3 to 8) (size 9 to 14) (size 15 to 20)
#    0.000    1.818    0.909    1.636    6.364    4.364 
#    0.000    0.000    0.000    0.000    0.000    0.000 
#    0.000    0.000    0.000    0.000    0.000    0.000 
#
# Total GULP energy -245524.200197 kJ/mol
# GULP energy per Si atom -5580.095459 kJ/mol
# Density = 2.060961 g / cm^3
# Si number density = 20.656630 Si / 1000 Ang^3
#
#
#
# Elastic Constant Matrix: (Units=GPa)
#
#
# Indices 1 2 3 4 5 6 
#
# 1 47.5703 0.8275 12.7436 0.0000 0.0000 0.0000
# 2 0.8275 90.6221 43.3304 0.0000 0.0000 0.0000
# 3 12.7436 43.3304 106.7978 0.0000 0.0000 0.0000
# 4 0.0000 0.0000 0.0000 4.0645 0.0000 0.0000
# 5 0.0000 0.0000 0.0000 0.0000 3.4606 0.0000
# 6 0.0000 0.0000 0.0000 0.0000 0.0000 22.7436
#
#
#
# Elastic Compliance Matrix: (Units=1/GPa)
#
#
# Indices 1 2 3 4 5 6 
#
# 1 0.021838 0.001298 -0.003133 0.000000 0.000000 0.000000
# 2 0.001298 0.013768 -0.005741 0.000000 0.000000 0.000000
# 3 -0.003133 -0.005741 0.012067 0.000000 0.000000 0.000000
# 4 0.000000 0.000000 0.000000 0.246033 0.000000 0.000000
# 5 0.000000 0.000000 0.000000 0.000000 0.288971 0.000000
# 6 0.000000 0.000000 0.000000 0.000000 0.000000 0.043968
#
#
# Mechanical properties :
#
#
# Convention : Reuss Voigt Hill
#
# Bulk Modulus (GPa) = 30.74805 39.86591 35.30698
# Shear Modulus (GPa) = 7.66124 18.59298 13.12711
#
# Velocity S-wave (km/s) = 1.92793 3.00342 2.52363
# Velocity P-wave (km/s) = 4.45797 5.60077 5.06172
#
# Compressibility (1/GPa) = 0.03252239
#
# Stress axis : x y z
#
# Youngs Moduli (GPa) = 45.79142 72.63243 82.87399
#
# Poissons Ratio (x) = -0.09431 0.25961
# Poissons Ratio (y) = -0.05946 0.47577
# Poissons Ratio (z) = 0.14345 0.41698
#
# Static dielectric constant tensor:
#      x y z
#    x 1.747460 0.000000 0.000000 
#    y 0.000000 1.772200 0.000000 
#    z 0.000000 0.000000 1.756010 
# 
# From -- ./inp_files/20420.got.cif
#   From: 2010.05.17/outbox.cif.g08.bks.cpg/sg56_11_cif.got.tgz:20420.got - 2010.06.03 13:42:01.
