data_PCOD9432142
_publ_section_title
;
Structure prediction by ZEFSAII (Michael W. Deem and Ramdas Pophale) SiO2 
 PCOD9432142
Probable space group: P C C N
;
_chemical_formula_sum "Si O2"
_cell_formula_units_Z 24
_cell_length_a 5.047011
_cell_length_b 9.920823
_cell_length_c 17.888352
_cell_angle_alpha 90.000000
_cell_angle_beta 90.000000
_cell_angle_gamma 90.000000
_cell_volume 895.678779
_symmetry_space_group_name_H-M "P C C N"
_symmetry_group_IT_number 56
_symmetry_cell_setting 'orthorhombic'
loop_
_space_group_symop_operation_xyz
x,y,z
1/2-x,1/2-y,z
1/2+x,-y,1/2-z
-x,1/2+y,1/2-z
-x,-y,-z
1/2+x,1/2+y,-z
1/2-x,y,1/2+z
x,1/2-y,1/2+z
loop_
_atom_site_type_symbol
_atom_site_label
_atom_site_fract_x
_atom_site_fract_y
_atom_site_fract_z
Si Si1 0.298553 0.584639 0.281713
Si Si2 0.494480 0.995636 0.409252
Si Si3 0.750000 0.250000 0.440666
Si Si4 0.750000 0.750000 0.952208
O O1 0.250000 0.750000 0.275165
O O2 0.275631 0.541426 0.369817
O O3 0.555108 0.508470 0.249309
O O4 0.367291 0.633896 0.110936
O O5 0.672323 0.867421 0.396887
O O6 0.500000 0.000000 0.500000
O O7 0.499065 0.287360 0.493756
#
# Coordination Sequence:
#
# PCOD9432142 Si02
#       4
#     8   8   4   4
#     4  12  31  57  85 119 169 225 280 342 421 502
#     4  10  25  47  82 114 161 205 277 336 413 481
#     4  10  22  42  68 118 158 196 258 332 408 480
#     4  10  22  40  70 114 160 202 254 332 408 478
#
# _framework density 26.795318999999999
#
# number of rings (size 3 to 8) (size 9 to 14) (size 15 to 20)
#    0.000    1.333    0.000    2.000   16.333    5.333 
#   12.000    0.000    0.000    0.000    0.000    0.000 
#    0.000    0.000    0.000    0.000    0.000    0.000 
#
# Total GULP energy -134011.941595 kJ/mol
# GULP energy per Si atom -5583.830900 kJ/mol
# Density = 2.673433 g / cm^3
# Si number density = 26.795319 Si / 1000 Ang^3
#
#
#
# Elastic Constant Matrix: (Units=GPa)
#
#
# Indices 1 2 3 4 5 6 
#
# 1 149.9140 -9.0816 30.1438 0.0000 0.0000 0.0000
# 2 -9.0816 159.5741 23.2737 0.0000 0.0000 0.0000
# 3 30.1438 23.2737 93.7212 0.0000 0.0000 0.0000
# 4 0.0000 0.0000 0.0000 18.9341 0.0000 0.0000
# 5 0.0000 0.0000 0.0000 0.0000 31.7454 0.0000
# 6 0.0000 0.0000 0.0000 0.0000 0.0000 39.3322
#
#
#
# Elastic Compliance Matrix: (Units=1/GPa)
#
#
# Indices 1 2 3 4 5 6 
#
# 1 0.007224 0.000778 -0.002517 0.000000 0.000000 0.000000
# 2 0.000778 0.006586 -0.001886 0.000000 0.000000 0.000000
# 3 -0.002517 -0.001886 0.011948 0.000000 0.000000 0.000000
# 4 0.000000 0.000000 0.000000 0.052815 0.000000 0.000000
# 5 0.000000 0.000000 0.000000 0.000000 0.031501 0.000000
# 6 0.000000 0.000000 0.000000 0.000000 0.000000 0.025424
#
#
# Mechanical properties :
#
#
# Convention : Reuss Voigt Hill
#
# Bulk Modulus (GPa) = 54.02814 54.65344 54.34079
# Shear Modulus (GPa) = 33.57612 41.92722 37.75167
#
# Velocity S-wave (km/s) = 3.54370 3.95995 3.75759
# Velocity P-wave (km/s) = 6.07871 6.43033 6.25699
#
# Compressibility (1/GPa) = 0.01850887
#
# Stress axis : x y z
#
# Youngs Moduli (GPa) = 138.43409 151.83708 83.69842
#
# Poissons Ratio (x) = -0.11815 0.21064
# Poissons Ratio (y) = -0.10772 0.15784
# Poissons Ratio (z) = 0.34838 0.28633
#
# Static dielectric constant tensor:
#      x y z
#    x 2.093350 0.000000 0.000000 
#    y 0.000000 2.465220 0.000000 
#    z 0.000000 0.000000 2.376160 
# 
# From -- ./inp_files/9315.got.cif
#   From: 2010.05.17/outbox.cif.g08.bks.cpg/sg56_5_cif.got.tgz:9315.got - 2010.06.03 13:42:01.
