data_PCOD9432386
_publ_section_title
;
Structure prediction by ZEFSAII (Michael W. Deem and Ramdas Pophale) SiO2 
 PCOD9432386
Probable space group: P C C N
;
_chemical_formula_sum "Si O2"
_cell_formula_units_Z 32
_cell_length_a 7.843300
_cell_length_b 8.241191
_cell_length_c 17.157397
_cell_angle_alpha 90.000000
_cell_angle_beta 90.000000
_cell_angle_gamma 90.000000
_cell_volume 1109.022116
_symmetry_space_group_name_H-M "P C C N"
_symmetry_group_IT_number 56
_symmetry_cell_setting 'orthorhombic'
loop_
_space_group_symop_operation_xyz
x,y,z
1/2-x,1/2-y,z
1/2+x,-y,1/2-z
-x,1/2+y,1/2-z
-x,-y,-z
1/2+x,1/2+y,-z
1/2-x,y,1/2+z
x,1/2-y,1/2+z
loop_
_atom_site_type_symbol
_atom_site_label
_atom_site_fract_x
_atom_site_fract_y
_atom_site_fract_z
Si Si1 0.918505 0.634607 0.151162
Si Si2 0.683494 0.444005 0.243907
Si Si3 0.065514 0.754750 0.002957
Si Si4 0.113591 0.058878 0.120030
O O1 0.750000 0.750000 0.153843
O O2 0.853480 0.468231 0.191026
O O3 0.078221 0.691557 0.205497
O O4 0.986417 0.625345 0.063384
O O5 0.548302 0.464806 0.175429
O O6 0.732571 0.558565 0.318007
O O7 0.250000 0.750000 0.962998
O O8 0.107025 0.904274 0.062450
O O9 0.927147 0.795808 0.938364
#
# Coordination Sequence:
#
# PCOD9432386 Si02
#       4
#     8   8   8   8
#     4  11  22  43  74 103 150 199 251 323 387 445
#     4  10  22  44  72 107 140 196 263 311 361 481
#     4  11  22  44  70 104 153 206 244 318 387 456
#     4  10  22  43  73 102 148 197 263 304 379 460
#
# _framework density 28.85425
#
# number of rings (size 3 to 8) (size 9 to 14) (size 15 to 20)
#    0.000    1.500    5.000    0.000    0.000    0.000 
#    9.000   12.500    0.000    0.000    0.000    0.000 
#    0.000    0.000    0.000    0.000    0.000    0.000 
#
# Total GULP energy -178358.877540 kJ/mol
# GULP energy per Si atom -5573.714923 kJ/mol
# Density = 2.878858 g / cm^3
# Si number density = 28.854250 Si / 1000 Ang^3
#
#
#
# Elastic Constant Matrix: (Units=GPa)
#
#
# Indices 1 2 3 4 5 6 
#
# 1 209.8524 31.1806 87.8716 0.0000 0.0000 0.0000
# 2 31.1806 58.8096 65.2496 0.0000 0.0000 0.0000
# 3 87.8716 65.2496 153.1193 0.0000 0.0000 0.0000
# 4 0.0000 0.0000 0.0000 65.5521 0.0000 0.0000
# 5 0.0000 0.0000 0.0000 0.0000 65.1835 0.0000
# 6 0.0000 0.0000 0.0000 0.0000 0.0000 31.2726
#
#
#
# Elastic Compliance Matrix: (Units=1/GPa)
#
#
# Indices 1 2 3 4 5 6 
#
# 1 0.006323 0.001278 -0.004173 0.000000 0.000000 0.000000
# 2 0.001278 0.032512 -0.014587 0.000000 0.000000 0.000000
# 3 -0.004173 -0.014587 0.015142 0.000000 0.000000 0.000000
# 4 0.000000 0.000000 0.000000 0.015255 0.000000 0.000000
# 5 0.000000 0.000000 0.000000 0.000000 0.015341 0.000000
# 6 0.000000 0.000000 0.000000 0.000000 0.000000 0.031977
#
#
# Mechanical properties :
#
#
# Convention : Reuss Voigt Hill
#
# Bulk Modulus (GPa) = 52.60257 87.82054 70.21156
# Shear Modulus (GPa) = 31.67527 48.23360 39.95444
#
# Velocity S-wave (km/s) = 3.31685 4.09299 3.72519
# Velocity P-wave (km/s) = 5.73922 7.26903 6.54895
#
# Compressibility (1/GPa) = 0.01901048
#
# Stress axis : x y z
#
# Youngs Moduli (GPa) = 158.15911 30.75831 66.04227
#
# Poissons Ratio (x) = -0.03930 0.27559
# Poissons Ratio (y) = -0.20206 0.96339
# Poissons Ratio (z) = 0.65998 0.44869
#
# Static dielectric constant tensor:
#      x y z
#    x 2.296620 0.000000 0.000000 
#    y 0.000000 2.586620 0.000000 
#    z 0.000000 0.000000 2.047470 
# 
# From -- ./inp_files/14356.got.cif
#   From: 2010.05.17/outbox.cif.g08.bks.cpg/sg56_8_cif.got.tgz:14356.got - 2010.06.03 13:42:01.
