data_PCOD9432025
_publ_section_title
;
Structure prediction by ZEFSAII (Michael W. Deem and Ramdas Pophale) SiO2 
 PCOD9432025
Probable space group: P C C N
;
_chemical_formula_sum "Si O2"
_cell_formula_units_Z 64
_cell_length_a 10.118268
_cell_length_b 27.298896
_cell_length_c 9.562169
_cell_angle_alpha 90.000000
_cell_angle_beta 90.000000
_cell_angle_gamma 90.000000
_cell_volume 2641.238854
_symmetry_space_group_name_H-M "P C C N"
_symmetry_group_IT_number 56
_symmetry_cell_setting 'orthorhombic'
loop_
_space_group_symop_operation_xyz
x,y,z
1/2-x,1/2-y,z
1/2+x,-y,1/2-z
-x,1/2+y,1/2-z
-x,-y,-z
1/2+x,1/2+y,-z
1/2-x,y,1/2+z
x,1/2-y,1/2+z
loop_
_atom_site_type_symbol
_atom_site_label
_atom_site_fract_x
_atom_site_fract_y
_atom_site_fract_z
Si Si1 0.161139 0.948337 0.543056
Si Si2 0.150923 0.796125 0.977221
Si Si3 0.771641 0.565852 0.627196
Si Si4 0.340626 0.205695 0.554901
Si Si5 0.867323 0.660120 0.152959
Si Si6 0.635018 0.510398 0.871639
Si Si7 0.963753 0.542313 0.816395
Si Si8 0.342198 0.652834 0.684058
O O1 0.086736 0.936031 0.400326
O O2 0.144230 0.904836 0.652608
O O3 0.314261 0.961643 0.549241
O O4 0.109542 0.003639 0.581927
O O5 0.250000 0.750000 0.954281
O O6 0.163320 0.832211 0.844739
O O7 0.993678 0.783548 0.987343
O O8 0.285097 0.675378 0.107873
O O9 0.655307 0.604136 0.607565
O O10 0.707353 0.522829 0.722818
O O11 0.840056 0.553574 0.480601
O O12 0.879303 0.584079 0.740634
O O13 0.250000 0.250000 0.613023
O O14 0.249687 0.187583 0.427484
O O15 0.350005 0.166943 0.681220
O O16 0.018933 0.674872 0.123993
O O17 0.495845 0.494079 0.812518
#
# Coordination Sequence:
#
# PCOD9432025 Si02
#       8
#     8   8   8   8   8   8   8   8
#     4  10  23  39  61  95 132 180 232 283 348 393
#     4  11  26  49  71 102 135 181 226 285 359 420
#     4  11  23  38  64  92 134 180 224 282 341 405
#     4  11  25  46  72 103 136 171 221 283 352 426
#     4  11  25  43  68 107 135 175 228 285 343 415
#     4  11  21  39  59  91 132 181 233 280 337 405
#     4  10  22  39  62  91 135 186 230 286 341 411
#     4  11  26  43  73 100 143 181 233 293 337 427
#
# _framework density 24.231051999999998
#
# number of rings (size 3 to 8) (size 9 to 14) (size 15 to 20)
#    0.000    1.250    1.250    3.375    7.000    6.000 
#    0.000    0.000    0.000    0.000    0.000    0.000 
#    0.000    0.000    0.000    0.000    0.000    0.000 
#
# Total GULP energy -356781.776644 kJ/mol
# GULP energy per Si atom -5574.715260 kJ/mol
# Density = 2.417590 g / cm^3
# Si number density = 24.231052 Si / 1000 Ang^3
#
#
#
# Elastic Constant Matrix: (Units=GPa)
#
#
# Indices 1 2 3 4 5 6 
#
# 1 105.3752 -5.9720 29.3252 0.0000 0.0000 0.0000
# 2 -5.9720 30.2676 -9.5178 0.0000 0.0000 0.0000
# 3 29.3252 -9.5178 79.7345 0.0000 0.0000 0.0000
# 4 0.0000 0.0000 0.0000 24.7703 0.0000 0.0000
# 5 0.0000 0.0000 0.0000 0.0000 45.3457 0.0000
# 6 0.0000 0.0000 0.0000 0.0000 0.0000 22.0123
#
#
#
# Elastic Compliance Matrix: (Units=1/GPa)
#
#
# Indices 1 2 3 4 5 6 
#
# 1 0.010595 0.000899 -0.003790 0.000000 0.000000 0.000000
# 2 0.000899 0.034403 0.003776 0.000000 0.000000 0.000000
# 3 -0.003790 0.003776 0.014386 0.000000 0.000000 0.000000
# 4 0.000000 0.000000 0.000000 0.040371 0.000000 0.000000
# 5 0.000000 0.000000 0.000000 0.000000 0.022053 0.000000
# 6 0.000000 0.000000 0.000000 0.000000 0.000000 0.045429
#
#
# Mechanical properties :
#
#
# Convention : Reuss Voigt Hill
#
# Bulk Modulus (GPa) = 16.35165 27.00535 21.67850
# Shear Modulus (GPa) = 26.90308 31.86178 29.38243
#
# Velocity S-wave (km/s) = 3.33569 3.63011 3.48601
# Velocity P-wave (km/s) = 4.64743 5.36091 5.01687
#
# Compressibility (1/GPa) = 0.06115590
#
# Stress axis : x y z
#
# Youngs Moduli (GPa) = 94.38010 29.06686 69.51146
#
# Poissons Ratio (x) = -0.02613 0.26342
# Poissons Ratio (y) = -0.08484 -0.26248
# Poissons Ratio (z) = 0.35766 -0.10976
#
# Static dielectric constant tensor:
#      x y z
#    x 2.170030 0.000000 0.000000 
#    y 0.000000 1.986410 0.000000 
#    z 0.000000 0.000000 1.931780 
# 
# From -- ./inp_files/2966.got.cif
#   From: 2010.05.17/outbox.cif.g08.bks.cpg/sg56_2_cif.got.tgz:2966.got - 2010.06.03 13:42:01.
