data_PCOD9432568
_publ_section_title
;
Structure prediction by ZEFSAII (Michael W. Deem and Ramdas Pophale) SiO2 
 PCOD9432568
Probable space group: P C C N
;
_chemical_formula_sum "Si O2"
_cell_formula_units_Z 60
_cell_length_a 11.228888
_cell_length_b 26.941100
_cell_length_c 8.545456
_cell_angle_alpha 90.000000
_cell_angle_beta 90.000000
_cell_angle_gamma 90.000000
_cell_volume 2585.159338
_symmetry_space_group_name_H-M "P C C N"
_symmetry_group_IT_number 56
_symmetry_cell_setting 'orthorhombic'
loop_
_space_group_symop_operation_xyz
x,y,z
1/2-x,1/2-y,z
1/2+x,-y,1/2-z
-x,1/2+y,1/2-z
-x,-y,-z
1/2+x,1/2+y,-z
1/2-x,y,1/2+z
x,1/2-y,1/2+z
loop_
_atom_site_type_symbol
_atom_site_label
_atom_site_fract_x
_atom_site_fract_y
_atom_site_fract_z
Si Si1 0.250000 0.250000 0.229134
Si Si2 0.268690 0.657973 0.182852
Si Si3 0.657241 0.087903 0.579615
Si Si4 0.513279 0.983793 0.816905
Si Si5 0.083588 0.414167 0.450428
Si Si6 0.222946 0.495946 0.618054
Si Si7 0.127963 0.720889 0.953390
Si Si8 0.910049 0.703148 0.514011
O O1 0.146920 0.272456 0.333754
O O2 0.312391 0.290381 0.121735
O O3 0.334118 0.636599 0.032030
O O4 0.214652 0.609973 0.266960
O O5 0.157524 0.690256 0.113803
O O6 0.361765 0.685273 0.299946
O O7 0.520385 0.072525 0.575530
O O8 0.722158 0.042564 0.498524
O O9 0.534473 0.931358 0.720729
O O10 0.651099 0.000429 0.795134
O O11 0.389733 0.999765 0.734961
O O12 0.500000 0.000000 0.000000
O O13 0.196776 0.445673 0.515457
O O14 0.088924 0.355340 0.456404
O O15 0.250000 0.750000 0.934071
O O16 0.022219 0.760882 0.969465
#
# Coordination Sequence:
#
# PCOD9432568 Si02
#       8
#     4   8   8   8   8   8   8   8
#     4  10  28  50  70  96 140 194 236 310 352 412
#     4  10  23  41  67 113 141 189 233 288 388 434
#     4  10  23  40  69 104 146 183 235 293 364 440
#     4  11  25  47  75 107 148 194 243 304 370 439
#     4  11  26  43  73 103 142 191 245 297 361 441
#     4  11  26  48  73 105 155 193 244 310 367 442
#     4  11  24  41  71 103 145 179 227 301 365 431
#     4  11  26  50  75 102 144 188 253 297 367 442
#
# _framework density 23.209399000000001
#
# number of rings (size 3 to 8) (size 9 to 14) (size 15 to 20)
#    0.000    1.333    0.000    4.400   16.800    0.000 
#    0.000    0.000    0.000    0.000    0.000    0.000 
#    0.000    0.000    0.000    0.000    0.000    0.000 
#
# Total GULP energy -334307.844425 kJ/mol
# GULP energy per Si atom -5571.797407 kJ/mol
# Density = 2.315657 g / cm^3
# Si number density = 23.209399 Si / 1000 Ang^3
#
#
#
# Elastic Constant Matrix: (Units=GPa)
#
#
# Indices 1 2 3 4 5 6 
#
# 1 106.9993 41.8549 34.4759 0.0000 0.0000 0.0000
# 2 41.8549 119.7889 42.7445 0.0000 0.0000 0.0000
# 3 34.4759 42.7445 121.7403 0.0000 0.0000 0.0000
# 4 0.0000 0.0000 0.0000 44.0113 0.0000 0.0000
# 5 0.0000 0.0000 0.0000 0.0000 35.4775 0.0000
# 6 0.0000 0.0000 0.0000 0.0000 0.0000 24.3728
#
#
#
# Elastic Compliance Matrix: (Units=1/GPa)
#
#
# Indices 1 2 3 4 5 6 
#
# 1 0.011263 -0.003198 -0.002067 0.000000 0.000000 0.000000
# 2 -0.003198 0.010452 -0.002764 0.000000 0.000000 0.000000
# 3 -0.002067 -0.002764 0.009770 0.000000 0.000000 0.000000
# 4 0.000000 0.000000 0.000000 0.022721 0.000000 0.000000
# 5 0.000000 0.000000 0.000000 0.000000 0.028187 0.000000
# 6 0.000000 0.000000 0.000000 0.000000 0.000000 0.041029
#
#
# Mechanical properties :
#
#
# Convention : Reuss Voigt Hill
#
# Bulk Modulus (GPa) = 64.82101 65.18657 65.00379
# Shear Modulus (GPa) = 34.57299 36.06920 35.32109
#
# Velocity S-wave (km/s) = 3.86374 3.94646 3.90531
# Velocity P-wave (km/s) = 6.92055 6.99380 6.95727
#
# Compressibility (1/GPa) = 0.01542710
#
# Stress axis : x y z
#
# Youngs Moduli (GPa) = 88.78919 95.67864 102.35406
#
# Poissons Ratio (x) = 0.30596 0.21154
# Poissons Ratio (y) = 0.28393 0.28292
# Poissons Ratio (z) = 0.18350 0.26447
#
# Static dielectric constant tensor:
#      x y z
#    x 1.910210 0.000000 0.000000 
#    y 0.000000 1.957210 0.000000 
#    z 0.000000 0.000000 1.972930 
# 
# From -- ./inp_files/2900.got.cif
#   From: 2010.05.17/outbox.cif.g08.bks.cpg/sg56_2_cif.got.tgz:2900.got - 2010.06.03 13:42:01.
