data_PCOD9432840
_publ_section_title
;
Structure prediction by ZEFSAII (Michael W. Deem and Ramdas Pophale) SiO2 
 PCOD9432840
Probable space group: P C C N
;
_chemical_formula_sum "Si O2"
_cell_formula_units_Z 44
_cell_length_a 11.566861
_cell_length_b 7.889894
_cell_length_c 17.971968
_cell_angle_alpha 90.000000
_cell_angle_beta 90.000000
_cell_angle_gamma 90.000000
_cell_volume 1640.145293
_symmetry_space_group_name_H-M "P C C N"
_symmetry_group_IT_number 56
_symmetry_cell_setting 'orthorhombic'
loop_
_space_group_symop_operation_xyz
x,y,z
1/2-x,1/2-y,z
1/2+x,-y,1/2-z
-x,1/2+y,1/2-z
-x,-y,-z
1/2+x,1/2+y,-z
1/2-x,y,1/2+z
x,1/2-y,1/2+z
loop_
_atom_site_type_symbol
_atom_site_label
_atom_site_fract_x
_atom_site_fract_y
_atom_site_fract_z
Si Si1 0.484964 0.247372 0.737569
Si Si2 0.137308 0.686610 0.020559
Si Si3 0.750000 0.250000 0.206627
Si Si4 0.174761 0.098394 0.867343
Si Si5 0.415631 0.346898 0.582909
Si Si6 0.564986 0.004284 0.386896
O O1 0.624127 0.244402 0.747295
O O2 0.398811 0.295992 0.804025
O O3 0.454539 0.371254 0.668310
O O4 0.449678 0.066382 0.698099
O O5 0.250000 0.750000 0.979022
O O6 0.154601 0.504321 0.055815
O O7 0.116035 0.820219 0.086682
O O8 0.030420 0.665452 0.966529
O O9 0.743687 0.435535 0.164851
O O10 0.250000 0.250000 0.902730
O O11 0.068942 0.019212 0.914130
O O12 0.369517 0.156694 0.579491
#
# Coordination Sequence:
#
# PCOD9432840 Si02
#       6
#     8   8   4   8   8   8
#     4   9  23  45  63  96 131 172 222 273 335 402
#     4  11  23  41  72  98 129 178 223 276 346 394
#     4  10  24  40  66  92 132 178 214 282 326 398
#     4  11  25  42  67  98 132 181 231 274 340 408
#     4   9  23  45  64  95 136 168 226 279 320 419
#     4   9  23  44  63  95 137 168 218 278 331 400
#
# _framework density 26.826892999999998
#
# number of rings (size 3 to 8) (size 9 to 14) (size 15 to 20)
#    1.091    1.091    0.000    0.545    8.909    2.182 
#    6.545    0.000    0.000    0.000    0.000    0.000 
#    0.000    0.000    0.000    0.000    0.000    0.000 
#
# Total GULP energy -245610.765845 kJ/mol
# GULP energy per Si atom -5582.062860 kJ/mol
# Density = 2.676583 g / cm^3
# Si number density = 26.826893 Si / 1000 Ang^3
#
#
#
# Elastic Constant Matrix: (Units=GPa)
#
#
# Indices 1 2 3 4 5 6 
#
# 1 121.9550 80.4181 24.7528 0.0000 0.0000 0.0000
# 2 80.4181 190.0559 18.7330 0.0000 0.0000 0.0000
# 3 24.7528 18.7330 69.5241 0.0000 0.0000 0.0000
# 4 0.0000 0.0000 0.0000 38.3160 0.0000 0.0000
# 5 0.0000 0.0000 0.0000 0.0000 -63.1483 0.0000
# 6 0.0000 0.0000 0.0000 0.0000 0.0000 58.2716
#
#
#
# Elastic Compliance Matrix: (Units=1/GPa)
#
#
# Indices 1 2 3 4 5 6 
#
# 1 0.011941 -0.004760 -0.002969 0.000000 0.000000 0.000000
# 2 -0.004760 0.007303 -0.000273 0.000000 0.000000 0.000000
# 3 -0.002969 -0.000273 0.015514 0.000000 0.000000 0.000000
# 4 0.000000 0.000000 0.000000 0.026099 0.000000 0.000000
# 5 0.000000 0.000000 0.000000 0.000000 -0.015836 0.000000
# 6 0.000000 0.000000 0.000000 0.000000 0.000000 0.017161
#
#
# Mechanical properties :
#
#
# Convention : Reuss Voigt Hill
#
# Bulk Modulus (GPa) = 53.32150 69.92698 61.62424
# Shear Modulus (GPa) = 59.21591 23.86327 41.53959
#
# Velocity S-wave (km/s) = 4.70332 2.98573 3.93928
# Velocity P-wave (km/s) = 7.02953 6.16512 6.61147
#
# Compressibility (1/GPa) = 0.01875416
#
# Stress axis : x y z
#
# Youngs Moduli (GPa) = 83.74434 136.93749 64.45770
#
# Poissons Ratio (x) = 0.65182 0.19137
# Poissons Ratio (y) = 0.39862 0.01759
# Poissons Ratio (z) = 0.24863 0.03738
#
# Static dielectric constant tensor:
#      x y z
#    x 2.068290 0.000000 0.000000 
#    y 0.000000 2.159910 0.000000 
#    z 0.000000 0.000000 2.149510 
# 
# From -- ./inp_files/20837.got.cif
#   From: 2010.05.17/outbox.cif.g08.bks.cpg/sg56_11_cif.got.tgz:20837.got - 2010.06.03 13:42:01.
