data_PCOD9432651
_publ_section_title
;
Structure prediction by ZEFSAII (Michael W. Deem and Ramdas Pophale) SiO2 
 PCOD9432651
Probable space group: P C C N
;
_chemical_formula_sum "Si O2"
_cell_formula_units_Z 40
_cell_length_a 15.202234
_cell_length_b 10.499992
_cell_length_c 10.671838
_cell_angle_alpha 90.000000
_cell_angle_beta 90.000000
_cell_angle_gamma 90.000000
_cell_volume 1703.474376
_symmetry_space_group_name_H-M "P C C N"
_symmetry_group_IT_number 56
_symmetry_cell_setting 'orthorhombic'
loop_
_space_group_symop_operation_xyz
x,y,z
1/2-x,1/2-y,z
1/2+x,-y,1/2-z
-x,1/2+y,1/2-z
-x,-y,-z
1/2+x,1/2+y,-z
1/2-x,y,1/2+z
x,1/2-y,1/2+z
loop_
_atom_site_type_symbol
_atom_site_label
_atom_site_fract_x
_atom_site_fract_y
_atom_site_fract_z
Si Si1 0.044504 0.436609 0.619408
Si Si2 0.777991 0.609077 0.111669
Si Si3 0.056303 0.333263 0.018623
Si Si4 0.585861 0.094991 0.844307
Si Si5 0.771505 0.028875 0.860134
O O1 0.084581 0.301145 0.574872
O O2 0.122979 0.534308 0.659095
O O3 0.000000 0.500000 0.500000
O O4 0.968779 0.396076 0.716998
O O5 0.750000 0.750000 0.080592
O O6 0.749163 0.572376 0.249905
O O7 0.882885 0.618475 0.096102
O O8 0.742470 0.516548 0.003241
O O9 0.069898 0.446555 0.116946
O O10 0.959877 0.328357 0.957996
O O11 0.689713 0.125009 0.838191
#
# Coordination Sequence:
#
# PCOD9432651 Si02
#       5
#     8   8   8   8   8
#     4  12  25  41  70 100 131 182 242 286 340 437
#     4  11  20  35  64 101 127 168 224 302 347 393
#     4  10  23  43  65  95 136 178 223 294 357 407
#     4  10  24  42  66  97 139 175 217 293 362 415
#     4  11  23  39  65  99 135 172 231 287 354 413
#
# _framework density 23.481422999999999
#
# number of rings (size 3 to 8) (size 9 to 14) (size 15 to 20)
#    0.000    1.200    4.000    1.800    5.600    0.000 
#    0.000    1.000    0.000    0.000    0.000    0.000 
#    0.000    0.000    0.000    0.000    0.000    0.000 
#
# Total GULP energy -222992.804057 kJ/mol
# GULP energy per Si atom -5574.820101 kJ/mol
# Density = 2.342798 g / cm^3
# Si number density = 23.481423 Si / 1000 Ang^3
#
#
#
# Elastic Constant Matrix: (Units=GPa)
#
#
# Indices 1 2 3 4 5 6 
#
# 1 140.9458 -3.7306 26.9185 0.0000 0.0000 0.0000
# 2 -3.7306 14.4976 5.0992 0.0000 0.0000 0.0000
# 3 26.9185 5.0992 83.2587 0.0000 0.0000 0.0000
# 4 0.0000 0.0000 0.0000 23.5540 0.0000 0.0000
# 5 0.0000 0.0000 0.0000 0.0000 43.2104 0.0000
# 6 0.0000 0.0000 0.0000 0.0000 0.0000 22.6196
#
#
#
# Elastic Compliance Matrix: (Units=1/GPa)
#
#
# Indices 1 2 3 4 5 6 
#
# 1 0.007680 0.002912 -0.002662 0.000000 0.000000 0.000000
# 2 0.002912 0.071600 -0.005327 0.000000 0.000000 0.000000
# 3 -0.002662 -0.005327 0.013198 0.000000 0.000000 0.000000
# 4 0.000000 0.000000 0.000000 0.042456 0.000000 0.000000
# 5 0.000000 0.000000 0.000000 0.000000 0.023143 0.000000
# 6 0.000000 0.000000 0.000000 0.000000 0.000000 0.044209
#
#
# Mechanical properties :
#
#
# Convention : Reuss Voigt Hill
#
# Bulk Modulus (GPa) = 12.14684 32.80848 22.47766
# Shear Modulus (GPa) = 20.84385 31.90447 26.37416
#
# Velocity S-wave (km/s) = 2.98262 3.69007 3.35504
# Velocity P-wave (km/s) = 4.12862 5.67079 4.96001
#
# Compressibility (1/GPa) = 0.08232595
#
# Stress axis : x y z
#
# Youngs Moduli (GPa) = 130.20278 13.96651 75.77191
#
# Poissons Ratio (x) = -0.04068 0.20167
# Poissons Ratio (y) = -0.37921 0.40362
# Poissons Ratio (z) = 0.34654 0.07440
#
# Static dielectric constant tensor:
#      x y z
#    x 2.115830 0.000000 0.000000 
#    y 0.000000 1.875590 0.000000 
#    z 0.000000 0.000000 1.865350 
# 
# From -- ./inp_files/7639.got.cif
#   From: 2010.05.17/outbox.cif.g08.bks.cpg/sg56_4_cif.got.tgz:7639.got - 2010.06.03 13:42:01.
