data_PCOD9432344
_publ_section_title
;
Structure prediction by ZEFSAII (Michael W. Deem and Ramdas Pophale) SiO2 
 PCOD9432344
Probable space group: P C C N
;
_chemical_formula_sum "Si O2"
_cell_formula_units_Z 56
_cell_length_a 29.577026
_cell_length_b 5.408852
_cell_length_c 14.337217
_cell_angle_alpha 90.000000
_cell_angle_beta 90.000000
_cell_angle_gamma 90.000000
_cell_volume 2293.635806
_symmetry_space_group_name_H-M "P C C N"
_symmetry_group_IT_number 56
_symmetry_cell_setting 'orthorhombic'
loop_
_space_group_symop_operation_xyz
x,y,z
1/2-x,1/2-y,z
1/2+x,-y,1/2-z
-x,1/2+y,1/2-z
-x,-y,-z
1/2+x,1/2+y,-z
1/2-x,y,1/2+z
x,1/2-y,1/2+z
loop_
_atom_site_type_symbol
_atom_site_label
_atom_site_fract_x
_atom_site_fract_y
_atom_site_fract_z
Si Si1 0.961071 0.464747 0.794436
Si Si2 0.575172 0.884903 0.504416
Si Si3 0.119895 0.853665 0.149482
Si Si4 0.800781 0.703422 0.600335
Si Si5 0.982361 0.253662 0.096816
Si Si6 0.199058 0.795055 0.523619
Si Si7 0.111456 0.306434 0.808115
O O1 0.926981 0.291839 0.850287
O O2 0.982556 0.376537 0.697927
O O3 0.925578 0.673138 0.757385
O O4 0.003790 0.480497 0.864645
O O5 0.527563 0.805234 0.460649
O O6 0.592842 0.710168 0.586446
O O7 0.611018 0.920972 0.422593
O O8 0.562637 0.151771 0.550505
O O9 0.162376 0.715935 0.106009
O O10 0.121921 0.937221 0.256813
O O11 0.750000 0.750000 0.637218
O O12 0.805713 0.445179 0.544291
O O13 0.839004 0.689897 0.679542
O O14 0.806604 0.947305 0.533341
O O15 0.250000 0.750000 0.560555
#
# Coordination Sequence:
#
# PCOD9432344 Si02
#       7
#     8   8   8   8   8   8   8
#     4  11  25  43  67 102 146 180 249 308 372 445
#     4  10  22  45  70  97 136 191 241 290 376 439
#     4  12  25  43  71 107 143 191 243 311 373 447
#     4  10  23  47  76 106 149 194 247 302 371 453
#     4  10  22  43  65  97 135 183 236 300 359 442
#     4  10  24  47  76 109 145 196 245 303 369 451
#     4  11  25  44  70 105 145 188 243 306 374 449
#
# _framework density 24.415386999999999
#
# number of rings (size 3 to 8) (size 9 to 14) (size 15 to 20)
#    0.000    1.429    2.857    0.857    6.000    0.571 
#    2.571    0.000    0.000    0.000    0.000    0.000 
#    0.000    0.000    0.000    0.000    0.000    0.000 
#
# Total GULP energy -312394.991649 kJ/mol
# GULP energy per Si atom -5578.481994 kJ/mol
# Density = 2.435982 g / cm^3
# Si number density = 24.415387 Si / 1000 Ang^3
#
#
#
# Elastic Constant Matrix: (Units=GPa)
#
#
# Indices 1 2 3 4 5 6 
#
# 1 118.2800 25.4030 43.6008 0.0000 0.0000 0.0000
# 2 25.4030 62.0492 13.2165 0.0000 0.0000 0.0000
# 3 43.6008 13.2165 74.1540 0.0000 0.0000 0.0000
# 4 0.0000 0.0000 0.0000 -18.3247 0.0000 0.0000
# 5 0.0000 0.0000 0.0000 0.0000 333.4873 0.0000
# 6 0.0000 0.0000 0.0000 0.0000 0.0000 28.0532
#
#
#
# Elastic Compliance Matrix: (Units=1/GPa)
#
#
# Indices 1 2 3 4 5 6 
#
# 1 0.011437 -0.003378 -0.006123 0.000000 0.000000 0.000000
# 2 -0.003378 0.017750 -0.001177 0.000000 0.000000 0.000000
# 3 -0.006123 -0.001177 0.017295 0.000000 0.000000 0.000000
# 4 0.000000 0.000000 0.000000 -0.054571 0.000000 0.000000
# 5 0.000000 0.000000 0.000000 0.000000 0.002999 0.000000
# 6 0.000000 0.000000 0.000000 0.000000 0.000000 0.035647
#
#
# Mechanical properties :
#
#
# Convention : Reuss Voigt Hill
#
# Bulk Modulus (GPa) = 39.79927 46.54709 43.17318
# Shear Modulus (GPa) = 82.93546 80.12735 81.53141
#
# Velocity S-wave (km/s) = 5.83458 5.73495 5.78498
# Velocity P-wave (km/s) = 7.85659 7.93466 7.89572
#
# Compressibility (1/GPa) = 0.02512609
#
# Stress axis : x y z
#
# Youngs Moduli (GPa) = 87.43572 56.33787 57.81946
#
# Poissons Ratio (x) = 0.19032 0.35400
# Poissons Ratio (y) = 0.29537 0.06807
# Poissons Ratio (z) = 0.53533 0.06633
#
# Static dielectric constant tensor:
#      x y z
#    x 2.020560 0.000000 0.000000 
#    y 0.000000 2.226190 0.000000 
#    z 0.000000 0.000000 1.978470 
# 
# From -- ./inp_files/13454.got.cif
#   From: 2010.05.17/outbox.cif.g08.bks.cpg/sg56_7_cif.got.tgz:13454.got - 2010.06.03 13:42:01.
