data_PCOD9432013
_publ_section_title
;
Structure prediction by ZEFSAII (Michael W. Deem and Ramdas Pophale) SiO2 
 PCOD9432013
Probable space group: P C C N
;
_chemical_formula_sum "Si O2"
_cell_formula_units_Z 60
_cell_length_a 14.297889
_cell_length_b 13.951832
_cell_length_c 15.506187
_cell_angle_alpha 90.000000
_cell_angle_beta 90.000000
_cell_angle_gamma 90.000000
_cell_volume 3093.201245
_symmetry_space_group_name_H-M "P C C N"
_symmetry_group_IT_number 56
_symmetry_cell_setting 'orthorhombic'
loop_
_space_group_symop_operation_xyz
x,y,z
1/2-x,1/2-y,z
1/2+x,-y,1/2-z
-x,1/2+y,1/2-z
-x,-y,-z
1/2+x,1/2+y,-z
1/2-x,y,1/2+z
x,1/2-y,1/2+z
loop_
_atom_site_type_symbol
_atom_site_label
_atom_site_fract_x
_atom_site_fract_y
_atom_site_fract_z
Si Si1 0.657028 0.686054 0.617392
Si Si2 0.383581 0.566238 0.172686
Si Si3 0.500046 0.739297 0.251788
Si Si4 0.565895 0.059041 0.695606
Si Si5 0.934579 0.763695 0.448096
Si Si6 0.750000 0.750000 0.859513
Si Si7 0.264906 0.061447 0.256399
Si Si8 0.932488 0.091709 0.009477
O O1 0.750000 0.750000 0.601283
O O2 0.589192 0.738944 0.688330
O O3 0.598124 0.670155 0.528956
O O4 0.702721 0.592537 0.661136
O O5 0.433198 0.657947 0.214340
O O6 0.461389 0.481724 0.181454
O O7 0.290549 0.526284 0.214320
O O8 0.367104 0.589081 0.072585
O O9 0.446934 0.841707 0.254934
O O10 0.524849 0.711290 0.352141
O O11 0.611467 0.083602 0.603184
O O12 0.630153 0.975057 0.731199
O O13 0.836425 0.719415 0.418245
O O14 0.003505 0.685928 0.488906
O O15 0.731726 0.843478 0.802124
O O16 0.000000 0.000000 0.000000
#
# Coordination Sequence:
#
# PCOD9432013 Si02
#       8
#     8   8   8   8   8   4   8   8
#     4  12  21  36  62  93 121 155 205 262 322 358
#     4  11  21  39  65  88 121 168 211 250 311 383
#     4  11  22  42  61  87 130 167 203 257 314 369
#     4  10  22  39  60  89 129 161 208 260 310 372
#     4  11  21  34  60  93 121 161 196 266 324 362
#     4  12  20  36  58  96 128 148 204 272 318 360
#     4  12  24  37  63  94 124 166 209 255 318 378
#     4   9  19  33  57  88 117 158 206 246 307 376
#
# _framework density 19.397379000000001
#
# number of rings (size 3 to 8) (size 9 to 14) (size 15 to 20)
#    0.000    1.067    5.333    3.200    1.867    1.600 
#    0.000    0.667    2.933    1.600    0.000    0.000 
#    0.000    0.000    0.000    0.000    0.000    0.000 
#
# Total GULP energy -334269.067294 kJ/mol
# GULP energy per Si atom -5571.151122 kJ/mol
# Density = 1.935323 g / cm^3
# Si number density = 19.397379 Si / 1000 Ang^3
#
#
#
# Elastic Constant Matrix: (Units=GPa)
#
#
# Indices 1 2 3 4 5 6 
#
# 1 33.2539 -2.2892 2.2311 0.0000 0.0000 0.0000
# 2 -2.2892 59.4594 7.4608 0.0000 0.0000 0.0000
# 3 2.2311 7.4608 77.2015 0.0000 0.0000 0.0000
# 4 0.0000 0.0000 0.0000 22.6870 0.0000 0.0000
# 5 0.0000 0.0000 0.0000 0.0000 8.4092 0.0000
# 6 0.0000 0.0000 0.0000 0.0000 0.0000 26.8754
#
#
#
# Elastic Compliance Matrix: (Units=1/GPa)
#
#
# Indices 1 2 3 4 5 6 
#
# 1 0.030227 0.001289 -0.000998 0.000000 0.000000 0.000000
# 2 0.001289 0.017080 -0.001688 0.000000 0.000000 0.000000
# 3 -0.000998 -0.001688 0.013145 0.000000 0.000000 0.000000
# 4 0.000000 0.000000 0.000000 0.044078 0.000000 0.000000
# 5 0.000000 0.000000 0.000000 0.000000 0.118918 0.000000
# 6 0.000000 0.000000 0.000000 0.000000 0.000000 0.037209
#
#
# Mechanical properties :
#
#
# Convention : Reuss Voigt Hill
#
# Bulk Modulus (GPa) = 17.34362 20.52447 18.93404
# Shear Modulus (GPa) = 17.68849 22.42846 20.05848
#
# Velocity S-wave (km/s) = 3.02305 3.40407 3.21920
# Velocity P-wave (km/s) = 4.59845 5.10434 4.85798
#
# Compressibility (1/GPa) = 0.05765810
#
# Stress axis : x y z
#
# Youngs Moduli (GPa) = 33.08263 58.54930 76.07416
#
# Poissons Ratio (x) = -0.07547 0.07593
# Poissons Ratio (y) = -0.04264 0.12840
# Poissons Ratio (z) = 0.03302 0.09882
#
# Static dielectric constant tensor:
#      x y z
#    x 1.680750 0.000000 0.000000 
#    y 0.000000 1.662400 0.000000 
#    z 0.000000 0.000000 1.721530 
# 
# From -- ./inp_files/12393.got.cif
#   From: 2010.05.17/outbox.cif.g08.bks.cpg/sg56_7_cif.got.tgz:12393.got - 2010.06.03 13:42:01.
