data_PCOD9432821
_publ_section_title
;
Structure prediction by ZEFSAII (Michael W. Deem and Ramdas Pophale) SiO2 
 PCOD9432821
Probable space group: P C C N
;
_chemical_formula_sum "Si O2"
_cell_formula_units_Z 52
_cell_length_a 25.139913
_cell_length_b 12.552695
_cell_length_c 8.784928
_cell_angle_alpha 90.000000
_cell_angle_beta 90.000000
_cell_angle_gamma 90.000000
_cell_volume 2772.291884
_symmetry_space_group_name_H-M "P C C N"
_symmetry_group_IT_number 56
_symmetry_cell_setting 'orthorhombic'
loop_
_space_group_symop_operation_xyz
x,y,z
1/2-x,1/2-y,z
1/2+x,-y,1/2-z
-x,1/2+y,1/2-z
-x,-y,-z
1/2+x,1/2+y,-z
1/2-x,y,1/2+z
x,1/2-y,1/2+z
loop_
_atom_site_type_symbol
_atom_site_label
_atom_site_fract_x
_atom_site_fract_y
_atom_site_fract_z
Si Si1 0.396081 0.558133 0.068415
Si Si2 0.533457 0.879648 0.288610
Si Si3 0.818870 0.154182 0.738789
Si Si4 0.417319 0.539896 0.739394
Si Si5 0.966851 0.842213 0.437051
Si Si6 0.410415 0.799368 0.987409
Si Si7 0.250000 0.750000 0.998971
O O1 0.441265 0.482493 0.134318
O O2 0.346387 0.552082 0.184378
O O3 0.414560 0.682064 0.060528
O O4 0.384472 0.526074 0.893951
O O5 0.469873 0.893729 0.288474
O O6 0.549013 0.774696 0.381335
O O7 0.548173 0.866049 0.111545
O O8 0.867419 0.207372 0.646349
O O9 0.771561 0.158116 0.614835
O O10 0.796312 0.214206 0.887031
O O11 0.440580 0.431485 0.668848
O O12 0.391272 0.611282 0.607977
O O13 0.031651 0.841241 0.433078
#
# Coordination Sequence:
#
# PCOD9432821 Si02
#       7
#     8   8   8   8   8   8   4
#     4  12  22  35  57  82 113 159 197 238 290 349
#     4  11  23  35  53  78 117 162 210 247 280 323
#     4  11  22  38  57  83 116 152 188 236 298 367
#     4  11  23  34  55  80 114 160 208 242 280 331
#     4  11  23  38  52  80 121 163 208 246 272 323
#     4  11  22  36  57  82 116 161 200 240 288 344
#     4  10  24  38  58  84 116 150 178 242 314 366
#
# _framework density 18.757045000000002
#
# number of rings (size 3 to 8) (size 9 to 14) (size 15 to 20)
#    0.000    0.923    3.077    6.000    6.462    0.000 
#    0.000    0.000    0.000    0.000    0.000    0.000 
#    0.000   33.231    0.000    0.000    0.000    0.000 
#
# Total GULP energy -290183.162975 kJ/mol
# GULP energy per Si atom -5580.445442 kJ/mol
# Density = 1.871435 g / cm^3
# Si number density = 18.757045 Si / 1000 Ang^3
#
#
#
# Elastic Constant Matrix: (Units=GPa)
#
#
# Indices 1 2 3 4 5 6 
#
# 1 44.5196 16.1030 36.9580 0.0000 0.0000 0.0000
# 2 16.1030 85.0355 40.5219 0.0000 0.0000 0.0000
# 3 36.9580 40.5219 136.0931 0.0000 0.0000 0.0000
# 4 0.0000 0.0000 0.0000 36.6036 0.0000 0.0000
# 5 0.0000 0.0000 0.0000 0.0000 33.7689 0.0000
# 6 0.0000 0.0000 0.0000 0.0000 0.0000 10.3941
#
#
#
# Elastic Compliance Matrix: (Units=1/GPa)
#
#
# Indices 1 2 3 4 5 6 
#
# 1 0.029302 -0.002047 -0.007348 0.000000 0.000000 0.000000
# 2 -0.002047 0.013847 -0.003567 0.000000 0.000000 0.000000
# 3 -0.007348 -0.003567 0.010405 0.000000 0.000000 0.000000
# 4 0.000000 0.000000 0.000000 0.027320 0.000000 0.000000
# 5 0.000000 0.000000 0.000000 0.000000 0.029613 0.000000
# 6 0.000000 0.000000 0.000000 0.000000 0.000000 0.096208
#
#
# Mechanical properties :
#
#
# Convention : Reuss Voigt Hill
#
# Bulk Modulus (GPa) = 36.19201 50.31267 43.25234
# Shear Modulus (GPa) = 20.67559 27.62435 24.14997
#
# Velocity S-wave (km/s) = 3.32367 3.84180 3.59209
# Velocity P-wave (km/s) = 5.83661 6.82355 6.34929
#
# Compressibility (1/GPa) = 0.02763040
#
# Stress axis : x y z
#
# Youngs Moduli (GPa) = 34.12691 72.21612 96.10393
#
# Poissons Ratio (x) = 0.14786 0.70616
# Poissons Ratio (y) = 0.06987 0.34281
# Poissons Ratio (z) = 0.25076 0.25760
#
# Static dielectric constant tensor:
#      x y z
#    x 1.701260 0.000000 0.000000 
#    y 0.000000 1.641780 0.000000 
#    z 0.000000 0.000000 1.744500 
# 
# From -- ./inp_files/2866.got.cif
#   From: 2010.05.17/outbox.cif.g08.bks.cpg/sg56_2_cif.got.tgz:2866.got - 2010.06.03 13:42:01.
