data_PCOD9432561
_publ_section_title
;
Structure prediction by ZEFSAII (Michael W. Deem and Ramdas Pophale) SiO2 
 PCOD9432561
Probable space group: P C C N
;
_chemical_formula_sum "Si O2"
_cell_formula_units_Z 28
_cell_length_a 7.235355
_cell_length_b 10.665583
_cell_length_c 17.909750
_cell_angle_alpha 90.000000
_cell_angle_beta 90.000000
_cell_angle_gamma 90.000000
_cell_volume 1382.082500
_symmetry_space_group_name_H-M "P C C N"
_symmetry_group_IT_number 56
_symmetry_cell_setting 'orthorhombic'
loop_
_space_group_symop_operation_xyz
x,y,z
1/2-x,1/2-y,z
1/2+x,-y,1/2-z
-x,1/2+y,1/2-z
-x,-y,-z
1/2+x,1/2+y,-z
1/2-x,y,1/2+z
x,1/2-y,1/2+z
loop_
_atom_site_type_symbol
_atom_site_label
_atom_site_fract_x
_atom_site_fract_y
_atom_site_fract_z
Si Si1 0.250000 0.750000 0.537408
Si Si2 0.574356 0.661859 0.768172
Si Si3 0.548661 0.806919 0.914692
Si Si4 0.295409 0.552410 0.653968
O O1 0.414297 0.708208 0.483480
O O2 0.196914 0.635417 0.591462
O O3 0.750000 0.750000 0.746972
O O4 0.488494 0.727713 0.841526
O O5 0.426786 0.639020 0.704219
O O6 0.657072 0.528131 0.794677
O O7 0.750000 0.750000 0.933464
O O8 0.579749 0.948582 0.887937
#
# Coordination Sequence:
#
# PCOD9432561 Si02
#       4
#     4   8   8   8
#     4  12  24  36  68  94 126 174 200 250 332 372
#     4   9  22  41  63  90 125 160 212 267 300 369
#     4   9  23  44  58  93 133 158 211 263 308 372
#     4  10  23  40  64  95 119 169 214 249 321 367
#
# _framework density 20.259281999999999
#
# number of rings (size 3 to 8) (size 9 to 14) (size 15 to 20)
#    0.000    2.857    0.000    0.857   12.000    5.714 
#    0.000    0.000    0.000    0.000    0.000    0.000 
#    0.000    0.000    0.000    0.000    0.000    0.000 
#
# Total GULP energy -156395.145946 kJ/mol
# GULP energy per Si atom -5585.540927 kJ/mol
# Density = 2.021317 g / cm^3
# Si number density = 20.259282 Si / 1000 Ang^3
#
#
#
# Elastic Constant Matrix: (Units=GPa)
#
#
# Indices 1 2 3 4 5 6 
#
# 1 28.8619 -2.6783 25.4144 0.0000 0.0000 0.0000
# 2 -2.6783 55.4572 21.2684 0.0000 0.0000 0.0000
# 3 25.4144 21.2684 70.3068 0.0000 0.0000 0.0000
# 4 0.0000 0.0000 0.0000 12.8048 0.0000 0.0000
# 5 0.0000 0.0000 0.0000 0.0000 20.4739 0.0000
# 6 0.0000 0.0000 0.0000 0.0000 0.0000 6.7057
#
#
#
# Elastic Compliance Matrix: (Units=1/GPa)
#
#
# Indices 1 2 3 4 5 6 
#
# 1 0.057198 0.012095 -0.024335 0.000000 0.000000 0.000000
# 2 0.012095 0.022956 -0.011317 0.000000 0.000000 0.000000
# 3 -0.024335 -0.011317 0.026443 0.000000 0.000000 0.000000
# 4 0.000000 0.000000 0.000000 0.078096 0.000000 0.000000
# 5 0.000000 0.000000 0.000000 0.000000 0.048843 0.000000
# 6 0.000000 0.000000 0.000000 0.000000 0.000000 0.149128
#
#
# Mechanical properties :
#
#
# Convention : Reuss Voigt Hill
#
# Bulk Modulus (GPa) = 16.81097 26.95946 21.88521
# Shear Modulus (GPa) = 11.12088 15.37162 13.24625
#
# Velocity S-wave (km/s) = 2.34546 2.75752 2.55980
# Velocity P-wave (km/s) = 3.95612 4.84507 4.42298
#
# Compressibility (1/GPa) = 0.05948497
#
# Stress axis : x y z
#
# Youngs Moduli (GPa) = 17.48303 43.56152 37.81685
#
# Poissons Ratio (x) = -0.52688 0.92027
# Poissons Ratio (y) = -0.21146 0.42795
# Poissons Ratio (z) = 0.42545 0.49296
#
# Static dielectric constant tensor:
#      x y z
#    x 1.697650 0.000000 0.000000 
#    y 0.000000 1.740700 0.000000 
#    z 0.000000 0.000000 1.691300 
# 
# From -- ./inp_files/9972.got.cif
#   From: 2010.05.17/outbox.cif.g08.bks.cpg/sg56_5_cif.got.tgz:9972.got - 2010.06.03 13:42:01.
