data_PCOD9432272
_publ_section_title
;
Structure prediction by ZEFSAII (Michael W. Deem and Ramdas Pophale) SiO2 
 PCOD9432272
Probable space group: P C C N
;
_chemical_formula_sum "Si O2"
_cell_formula_units_Z 36
_cell_length_a 14.268226
_cell_length_b 5.409367
_cell_length_c 19.614204
_cell_angle_alpha 90.000000
_cell_angle_beta 90.000000
_cell_angle_gamma 90.000000
_cell_volume 1513.864883
_symmetry_space_group_name_H-M "P C C N"
_symmetry_group_IT_number 56
_symmetry_cell_setting 'orthorhombic'
loop_
_space_group_symop_operation_xyz
x,y,z
1/2-x,1/2-y,z
1/2+x,-y,1/2-z
-x,1/2+y,1/2-z
-x,-y,-z
1/2+x,1/2+y,-z
1/2-x,y,1/2+z
x,1/2-y,1/2+z
loop_
_atom_site_type_symbol
_atom_site_label
_atom_site_fract_x
_atom_site_fract_y
_atom_site_fract_z
Si Si1 0.853525 0.868472 0.406450
Si Si2 0.750000 0.250000 0.953854
Si Si3 0.190806 0.494149 0.336889
Si Si4 0.950249 0.654927 0.771349
Si Si5 0.099968 0.078638 0.971821
O O1 0.750000 0.750000 0.394856
O O2 0.927535 0.795560 0.350449
O O3 0.883303 0.830303 0.485431
O O4 0.831029 0.155663 0.403694
O O5 0.691153 0.428950 0.001995
O O6 0.250000 0.750000 0.340396
O O7 0.144574 0.447040 0.263678
O O8 0.106818 0.465943 0.391723
O O9 0.250000 0.250000 0.353685
O O10 0.019693 0.419074 0.761374
O O11 0.000000 0.000000 0.000000
#
# Coordination Sequence:
#
# PCOD9432272 Si02
#       5
#     8   4   8   8   8
#     4  10  24  43  70  97 139 193 236 296 359 443
#     4  10  22  42  66  96 138 178 242 284 362 438
#     4  12  26  47  74 106 152 195 244 310 378 439
#     4  12  28  47  71 107 145 190 254 303 370 446
#     4  11  24  43  69 104 142 190 240 304 362 440
#
# _framework density 23.780192
#
# number of rings (size 3 to 8) (size 9 to 14) (size 15 to 20)
#    0.000    0.889    1.111    5.333   10.889    0.889 
#    0.000    0.000    0.000    0.000    0.000    0.000 
#    0.000    0.000    0.000    0.000    0.000    0.000 
#
# Total GULP energy -200539.473349 kJ/mol
# GULP energy per Si atom -5570.540926 kJ/mol
# Density = 2.372607 g / cm^3
# Si number density = 23.780192 Si / 1000 Ang^3
#
#
#
# Elastic Constant Matrix: (Units=GPa)
#
#
# Indices 1 2 3 4 5 6 
#
# 1 74.2889 25.4766 3.8208 0.0000 0.0000 0.0000
# 2 25.4766 89.3410 5.6168 0.0000 0.0000 0.0000
# 3 3.8208 5.6168 63.3339 0.0000 0.0000 0.0000
# 4 0.0000 0.0000 0.0000 16.7670 0.0000 0.0000
# 5 0.0000 0.0000 0.0000 0.0000 48.2337 0.0000
# 6 0.0000 0.0000 0.0000 0.0000 0.0000 36.3969
#
#
#
# Elastic Compliance Matrix: (Units=1/GPa)
#
#
# Indices 1 2 3 4 5 6 
#
# 1 0.014937 -0.004226 -0.000526 0.000000 0.000000 0.000000
# 2 -0.004226 0.012452 -0.000849 0.000000 0.000000 0.000000
# 3 -0.000526 -0.000849 0.015896 0.000000 0.000000 0.000000
# 4 0.000000 0.000000 0.000000 0.059641 0.000000 0.000000
# 5 0.000000 0.000000 0.000000 0.000000 0.020732 0.000000
# 6 0.000000 0.000000 0.000000 0.000000 0.000000 0.027475
#
#
# Mechanical properties :
#
#
# Convention : Reuss Voigt Hill
#
# Bulk Modulus (GPa) = 31.17077 32.97690 32.07383
# Shear Modulus (GPa) = 28.89644 33.08283 30.98964
#
# Velocity S-wave (km/s) = 3.48968 3.73392 3.61386
# Velocity P-wave (km/s) = 5.41973 5.69974 5.56150
#
# Compressibility (1/GPa) = 0.03208134
#
# Stress axis : x y z
#
# Youngs Moduli (GPa) = 66.94576 80.31035 62.90730
#
# Poissons Ratio (x) = 0.33943 0.03311
# Poissons Ratio (y) = 0.28295 0.05343
# Poissons Ratio (z) = 0.03523 0.06821
#
# Static dielectric constant tensor:
#      x y z
#    x 1.969090 0.000000 0.000000 
#    y 0.000000 2.180100 0.000000 
#    z 0.000000 0.000000 2.037890 
# 
# From -- ./inp_files/18915.got.cif
#   From: 2010.05.17/outbox.cif.g08.bks.cpg/sg56_10_cif.got.tgz:18915.got - 2010.06.03 13:42:01.
