data_PCOD9432137
_publ_section_title
;
Structure prediction by ZEFSAII (Michael W. Deem and Ramdas Pophale) SiO2 
 PCOD9432137
Probable space group: P C C N
;
_chemical_formula_sum "Si O2"
_cell_formula_units_Z 64
_cell_length_a 19.219511
_cell_length_b 8.864545
_cell_length_c 19.049237
_cell_angle_alpha 90.000000
_cell_angle_beta 90.000000
_cell_angle_gamma 90.000000
_cell_volume 3245.460800
_symmetry_space_group_name_H-M "P C C N"
_symmetry_group_IT_number 56
_symmetry_cell_setting 'orthorhombic'
loop_
_space_group_symop_operation_xyz
x,y,z
1/2-x,1/2-y,z
1/2+x,-y,1/2-z
-x,1/2+y,1/2-z
-x,-y,-z
1/2+x,1/2+y,-z
1/2-x,y,1/2+z
x,1/2-y,1/2+z
loop_
_atom_site_type_symbol
_atom_site_label
_atom_site_fract_x
_atom_site_fract_y
_atom_site_fract_z
Si Si1 0.058232 0.891850 0.217118
Si Si2 0.324438 0.826522 0.259162
Si Si3 0.929249 0.751346 0.145374
Si Si4 0.426653 0.308347 0.122315
Si Si5 0.832078 0.232816 0.075059
Si Si6 0.326122 0.183433 0.237570
Si Si7 0.418567 0.466783 0.984303
Si Si8 0.051113 0.568725 0.882598
O O1 0.120478 0.770092 0.213790
O O2 0.060496 0.939729 0.298146
O O3 0.987612 0.805462 0.199845
O O4 0.058450 0.037179 0.166357
O O5 0.250000 0.750000 0.247649
O O6 0.339487 0.814713 0.342779
O O7 0.324691 0.003270 0.244248
O O8 0.860523 0.738883 0.193374
O O9 0.915469 0.879272 0.088558
O O10 0.959480 0.607691 0.103034
O O11 0.373033 0.220790 0.170752
O O12 0.492771 0.198333 0.107782
O O13 0.395564 0.363077 0.048813
O O14 0.750000 0.250000 0.060158
O O15 0.879413 0.382528 0.076184
O O16 0.870746 0.113437 0.025337
O O17 0.250000 0.250000 0.228542
O O18 0.500000 0.500000 0.000000
#
# Coordination Sequence:
#
# PCOD9432137 Si02
#       8
#     8   8   8   8   8   8   8   8
#     4  11  20  37  65  97 126 169 217 279 333 391
#     4  10  22  40  68  98 130 166 225 279 337 396
#     4  12  24  38  67 100 131 172 227 276 334 404
#     4  12  24  42  68  95 143 174 221 279 344 408
#     4  10  22  41  67  96 132 174 225 281 335 405
#     4  12  25  42  65 100 135 173 220 285 338 404
#     4  12  24  45  66  97 134 186 224 276 347 412
#     4  11  21  37  66 101 127 166 224 285 330 393
#
# _framework density 19.719850000000001
#
# number of rings (size 3 to 8) (size 9 to 14) (size 15 to 20)
#    0.000    0.750    6.250    1.500    5.250    0.500 
#    0.000    3.750    0.000    0.000    0.000    0.000 
#    0.000    0.000    0.000    0.000    0.000    0.000 
#
# Total GULP energy -357201.929405 kJ/mol
# GULP energy per Si atom -5581.280147 kJ/mol
# Density = 1.967497 g / cm^3
# Si number density = 19.719850 Si / 1000 Ang^3
#
#
#
# Elastic Constant Matrix: (Units=GPa)
#
#
# Indices 1 2 3 4 5 6 
#
# 1 96.5779 27.6262 15.4291 0.0000 0.0000 0.0000
# 2 27.6262 97.5364 -6.4890 0.0000 0.0000 0.0000
# 3 15.4291 -6.4890 47.7420 0.0000 0.0000 0.0000
# 4 0.0000 0.0000 0.0000 25.8612 0.0000 0.0000
# 5 0.0000 0.0000 0.0000 0.0000 -21.2511 0.0000
# 6 0.0000 0.0000 0.0000 0.0000 0.0000 27.8495
#
#
#
# Elastic Compliance Matrix: (Units=1/GPa)
#
#
# Indices 1 2 3 4 5 6 
#
# 1 0.012128 -0.003730 -0.004427 0.000000 0.000000 0.000000
# 2 -0.003730 0.011493 0.002767 0.000000 0.000000 0.000000
# 3 -0.004427 0.002767 0.022753 0.000000 0.000000 0.000000
# 4 0.000000 0.000000 0.000000 0.038668 0.000000 0.000000
# 5 0.000000 0.000000 0.000000 0.000000 -0.047056 0.000000
# 6 0.000000 0.000000 0.000000 0.000000 0.000000 0.035907
#
#
# Mechanical properties :
#
#
# Convention : Reuss Voigt Hill
#
# Bulk Modulus (GPa) = 28.09264 34.99876 31.54570
# Shear Modulus (GPa) = 51.79410 20.17793 35.98602
#
# Velocity S-wave (km/s) = 5.13049 3.20227 4.27648
# Velocity P-wave (km/s) = 7.02658 5.60885 6.35736
#
# Compressibility (1/GPa) = 0.03559652
#
# Stress axis : x y z
#
# Youngs Moduli (GPa) = 82.45103 87.00868 43.95098
#
# Poissons Ratio (x) = 0.32452 0.19455
# Poissons Ratio (y) = 0.30752 -0.12163
# Poissons Ratio (z) = 0.36497 -0.24080
#
# Static dielectric constant tensor:
#      x y z
#    x 1.725460 0.000000 0.000000 
#    y 0.000000 1.683920 0.000000 
#    z 0.000000 0.000000 1.684380 
# 
# From -- ./inp_files/19350.got.cif
#   From: 2010.05.17/outbox.cif.g08.bks.cpg/sg56_10_cif.got.tgz:19350.got - 2010.06.03 13:42:01.
