data_PCOD9432118
_publ_section_title
;
Structure prediction by ZEFSAII (Michael W. Deem and Ramdas Pophale) SiO2 
 PCOD9432118
Probable space group: P C C N
;
_chemical_formula_sum "Si O2"
_cell_formula_units_Z 60
_cell_length_a 23.150885
_cell_length_b 9.439973
_cell_length_c 11.611670
_cell_angle_alpha 90.000000
_cell_angle_beta 90.000000
_cell_angle_gamma 90.000000
_cell_volume 2537.657666
_symmetry_space_group_name_H-M "P C C N"
_symmetry_group_IT_number 56
_symmetry_cell_setting 'orthorhombic'
loop_
_space_group_symop_operation_xyz
x,y,z
1/2-x,1/2-y,z
1/2+x,-y,1/2-z
-x,1/2+y,1/2-z
-x,-y,-z
1/2+x,1/2+y,-z
1/2-x,y,1/2+z
x,1/2-y,1/2+z
loop_
_atom_site_type_symbol
_atom_site_label
_atom_site_fract_x
_atom_site_fract_y
_atom_site_fract_z
Si Si1 0.336093 0.086886 0.020975
Si Si2 0.363602 0.922275 0.252456
Si Si3 0.260769 0.519072 0.320044
Si Si4 0.250000 0.250000 0.150989
Si Si5 0.129163 0.611521 0.687177
Si Si6 0.448554 0.482071 0.365681
Si Si7 0.998275 0.746899 0.003578
Si Si8 0.085918 0.008103 0.983160
O O1 0.305887 0.229753 0.068456
O O2 0.353649 0.009365 0.137385
O O3 0.284363 0.016813 0.946683
O O4 0.392605 0.065797 0.941751
O O5 0.301003 0.907593 0.313189
O O6 0.387731 0.773352 0.208684
O O7 0.401739 0.002311 0.347388
O O8 0.255271 0.380041 0.239320
O O9 0.312298 0.600500 0.258349
O O10 0.078463 0.516870 0.743307
O O11 0.138531 0.546718 0.561373
O O12 0.489514 0.346891 0.381196
O O13 0.479934 0.623946 0.415349
O O14 0.043427 0.874692 0.007630
O O15 0.940173 0.839709 0.982560
#
# Coordination Sequence:
#
# PCOD9432118 Si02
#       8
#     8   8   8   4   8   8   8   8
#     4  10  23  42  70  97 139 184 221 302 341 427
#     4  11  24  43  68 101 139 182 231 290 357 424
#     4  10  24  42  66 101 137 182 229 283 353 435
#     4  10  22  40  66 102 136 180 240 274 362 418
#     4  11  24  43  69 101 136 183 230 292 358 427
#     4  10  22  45  69  99 142 179 235 284 364 416
#     4  10  23  46  67 103 135 185 236 292 350 418
#     4  11  25  44  70 101 143 176 245 293 344 427
#
# _framework density 23.643851000000002
#
# number of rings (size 3 to 8) (size 9 to 14) (size 15 to 20)
#    0.000    1.600    1.333    1.600    7.467    5.333 
#    9.600    0.000    0.000    0.000    0.000    0.000 
#    0.000    0.000    0.000    0.000    0.000    0.000 
#
# Total GULP energy -334754.328263 kJ/mol
# GULP energy per Si atom -5579.238804 kJ/mol
# Density = 2.359004 g / cm^3
# Si number density = 23.643851 Si / 1000 Ang^3
#
#
#
# Elastic Constant Matrix: (Units=GPa)
#
#
# Indices 1 2 3 4 5 6 
#
# 1 73.0844 38.4243 22.1300 0.0000 0.0000 0.0000
# 2 38.4243 127.6352 31.0072 0.0000 0.0000 0.0000
# 3 22.1300 31.0072 105.1007 0.0000 0.0000 0.0000
# 4 0.0000 0.0000 0.0000 7.5623 0.0000 0.0000
# 5 0.0000 0.0000 0.0000 0.0000 26.0539 0.0000
# 6 0.0000 0.0000 0.0000 0.0000 0.0000 39.9632
#
#
#
# Elastic Compliance Matrix: (Units=1/GPa)
#
#
# Indices 1 2 3 4 5 6 
#
# 1 0.016712 -0.004499 -0.002192 0.000000 0.000000 0.000000
# 2 -0.004499 0.009651 -0.001900 0.000000 0.000000 0.000000
# 3 -0.002192 -0.001900 0.010537 0.000000 0.000000 0.000000
# 4 0.000000 0.000000 0.000000 0.132235 0.000000 0.000000
# 5 0.000000 0.000000 0.000000 0.000000 0.038382 0.000000
# 6 0.000000 0.000000 0.000000 0.000000 0.000000 0.025023
#
#
# Mechanical properties :
#
#
# Convention : Reuss Voigt Hill
#
# Bulk Modulus (GPa) = 50.71337 54.32704 52.52021
# Shear Modulus (GPa) = 19.50901 28.99982 24.25441
#
# Velocity S-wave (km/s) = 2.87561 3.50598 3.20632
# Velocity P-wave (km/s) = 5.70271 6.27824 5.99738
#
# Compressibility (1/GPa) = 0.01971867
#
# Stress axis : x y z
#
# Youngs Moduli (GPa) = 59.83880 103.61967 94.90658
#
# Poissons Ratio (x) = 0.46614 0.20800
# Poissons Ratio (y) = 0.26919 0.18032
# Poissons Ratio (z) = 0.13114 0.19687
#
# Static dielectric constant tensor:
#      x y z
#    x 2.000090 0.000000 0.000000 
#    y 0.000000 1.917710 0.000000 
#    z 0.000000 0.000000 1.858520 
# 
# From -- ./inp_files/9070.got.cif
#   From: 2010.05.17/outbox.cif.g08.bks.cpg/sg56_5_cif.got.tgz:9070.got - 2010.06.03 13:42:01.
