data_PCOD9432710
_publ_section_title
;
Structure prediction by ZEFSAII (Michael W. Deem and Ramdas Pophale) SiO2 
 PCOD9432710
Probable space group: P C C N
;
_chemical_formula_sum "Si O2"
_cell_formula_units_Z 40
_cell_length_a 17.886699
_cell_length_b 5.168049
_cell_length_c 18.658429
_cell_angle_alpha 90.000000
_cell_angle_beta 90.000000
_cell_angle_gamma 90.000000
_cell_volume 1724.772804
_symmetry_space_group_name_H-M "P C C N"
_symmetry_group_IT_number 56
_symmetry_cell_setting 'orthorhombic'
loop_
_space_group_symop_operation_xyz
x,y,z
1/2-x,1/2-y,z
1/2+x,-y,1/2-z
-x,1/2+y,1/2-z
-x,-y,-z
1/2+x,1/2+y,-z
1/2-x,y,1/2+z
x,1/2-y,1/2+z
loop_
_atom_site_type_symbol
_atom_site_label
_atom_site_fract_x
_atom_site_fract_y
_atom_site_fract_z
Si Si1 0.546598 0.567832 0.730963
Si Si2 0.566152 0.882804 0.596590
Si Si3 0.796865 0.484304 0.687102
Si Si4 0.552422 0.804140 0.952678
Si Si5 0.166550 0.333476 0.170061
O O1 0.511626 0.290934 0.745072
O O2 0.552679 0.628431 0.645949
O O3 0.620657 0.628458 0.778405
O O4 0.597977 0.820997 0.518503
O O5 0.627411 0.019354 0.643936
O O6 0.495861 0.071228 0.582754
O O7 0.750000 0.250000 0.659322
O O8 0.816785 0.449884 0.770636
O O9 0.750000 0.750000 0.679833
O O10 0.610037 0.907261 0.893459
O O11 0.500000 0.000000 0.000000
O O12 0.250000 0.250000 0.145579
#
# Coordination Sequence:
#
# PCOD9432710 Si02
#       5
#     8   8   8   8   8
#     4  11  22  41  73 103 135 184 238 293 352 420
#     4  10  24  40  70 100 140 188 245 287 354 440
#     4  10  24  46  73 105 142 185 245 302 364 420
#     4  11  23  45  67 106 145 195 240 290 362 443
#     4  10  23  44  69 105 144 182 238 302 358 413
#
# _framework density 23.191459999999999
#
# number of rings (size 3 to 8) (size 9 to 14) (size 15 to 20)
#    0.000    1.600    2.000    1.200    2.800    8.800 
#   14.400    0.000    0.000    0.000    0.000    0.000 
#    0.000    0.000    0.000    0.000    0.000    0.000 
#
# Total GULP energy -223399.215351 kJ/mol
# GULP energy per Si atom -5584.980384 kJ/mol
# Density = 2.313868 g / cm^3
# Si number density = 23.191460 Si / 1000 Ang^3
#
#
#
# Elastic Constant Matrix: (Units=GPa)
#
#
# Indices 1 2 3 4 5 6 
#
# 1 125.3031 25.5529 53.1127 0.0000 0.0000 0.0000
# 2 25.5529 74.4769 11.7023 0.0000 0.0000 0.0000
# 3 53.1127 11.7023 149.2233 0.0000 0.0000 0.0000
# 4 0.0000 0.0000 0.0000 15.9155 0.0000 0.0000
# 5 0.0000 0.0000 0.0000 0.0000 43.4965 0.0000
# 6 0.0000 0.0000 0.0000 0.0000 0.0000 34.2894
#
#
#
# Elastic Compliance Matrix: (Units=1/GPa)
#
#
# Indices 1 2 3 4 5 6 
#
# 1 0.009982 -0.002902 -0.003325 0.000000 0.000000 0.000000
# 2 -0.002902 0.014438 -0.000099 0.000000 0.000000 0.000000
# 3 -0.003325 -0.000099 0.007893 0.000000 0.000000 0.000000
# 4 0.000000 0.000000 0.000000 0.062832 0.000000 0.000000
# 5 0.000000 0.000000 0.000000 0.000000 0.022990 0.000000
# 6 0.000000 0.000000 0.000000 0.000000 0.000000 0.029164
#
#
# Mechanical properties :
#
#
# Convention : Reuss Voigt Hill
#
# Bulk Modulus (GPa) = 50.86631 58.85988 54.86310
# Shear Modulus (GPa) = 30.02898 35.98263 33.00580
#
# Velocity S-wave (km/s) = 3.60228 3.94324 3.77661
# Velocity P-wave (km/s) = 6.26759 6.79465 6.53644
#
# Compressibility (1/GPa) = 0.01965938
#
# Stress axis : x y z
#
# Youngs Moduli (GPa) = 100.18022 69.25999 126.69928
#
# Poissons Ratio (x) = 0.20101 0.42131
# Poissons Ratio (y) = 0.29075 0.01258
# Poissons Ratio (z) = 0.33313 0.00687
#
# Static dielectric constant tensor:
#      x y z
#    x 1.813590 0.000000 0.000000 
#    y 0.000000 1.954530 0.000000 
#    z 0.000000 0.000000 1.896420 
# 
# From -- ./inp_files/16448.got.cif
#   From: 2010.05.17/outbox.cif.g08.bks.cpg/sg56_9_cif.got.tgz:16448.got - 2010.06.03 13:42:01.
