data_PCOD9432128
_publ_section_title
;
Structure prediction by ZEFSAII (Michael W. Deem and Ramdas Pophale) SiO2 
 PCOD9432128
Probable space group: P C C N
;
_chemical_formula_sum "Si O2"
_cell_formula_units_Z 40
_cell_length_a 18.733357
_cell_length_b 15.732033
_cell_length_c 5.125204
_cell_angle_alpha 90.000000
_cell_angle_beta 90.000000
_cell_angle_gamma 90.000000
_cell_volume 1510.468298
_symmetry_space_group_name_H-M "P C C N"
_symmetry_group_IT_number 56
_symmetry_cell_setting 'orthorhombic'
loop_
_space_group_symop_operation_xyz
x,y,z
1/2-x,1/2-y,z
1/2+x,-y,1/2-z
-x,1/2+y,1/2-z
-x,-y,-z
1/2+x,1/2+y,-z
1/2-x,y,1/2+z
x,1/2-y,1/2+z
loop_
_atom_site_type_symbol
_atom_site_label
_atom_site_fract_x
_atom_site_fract_y
_atom_site_fract_z
Si Si1 0.289114 0.571552 0.433902
Si Si2 0.056418 0.129212 0.607182
Si Si3 0.930557 0.440275 0.742284
Si Si4 0.210033 0.366050 0.889910
Si Si5 0.570426 0.300986 0.861381
O O1 0.266721 0.605061 0.151239
O O2 0.365346 0.582794 0.568094
O O3 0.285600 0.469274 0.395558
O O4 0.131469 0.156670 0.489290
O O5 0.001099 0.098832 0.379196
O O6 0.014418 0.195325 0.788954
O O7 0.067977 0.041808 0.770437
O O8 0.918927 0.396895 0.463268
O O9 0.269480 0.338740 0.100178
O O10 0.597079 0.254413 0.603930
#
# Coordination Sequence:
#
# PCOD9432128 Si02
#       5
#     8   8   8   8   8
#     4   9  19  34  56  89 126 159 198 257 322 372
#     4  10  22  40  67  98 126 162 216 269 313 372
#     4  10  22  40  67  98 126 162 216 269 313 372
#     4   9  19  34  56  89 126 159 198 257 322 372
#     4  12  25  42  61  90 128 168 206 256 317 376
#
# _framework density 26.481856000000001
#
# number of rings (size 3 to 8) (size 9 to 14) (size 15 to 20)
#    0.000    2.000    2.000    0.600    5.600    0.000 
#    0.000    0.000    0.000    7.200    0.000    0.000 
#    0.000    0.000    0.000    0.000    0.000    0.000 
#
# Total GULP energy -223793.277564 kJ/mol
# GULP energy per Si atom -5594.831939 kJ/mol
# Density = 2.642158 g / cm^3
# Si number density = 26.481856 Si / 1000 Ang^3
#
#
#
# Elastic Constant Matrix: (Units=GPa)
#
#
# Indices 1 2 3 4 5 6 
#
# 1 95.0454 -12.0402 13.9310 0.0000 0.0000 0.0000
# 2 -12.0402 63.5427 11.4380 0.0000 0.0000 0.0000
# 3 13.9310 11.4380 126.1701 0.0000 0.0000 0.0000
# 4 0.0000 0.0000 0.0000 31.2719 0.0000 0.0000
# 5 0.0000 0.0000 0.0000 0.0000 28.3999 0.0000
# 6 0.0000 0.0000 0.0000 0.0000 0.0000 20.9695
#
#
#
# Elastic Compliance Matrix: (Units=1/GPa)
#
#
# Indices 1 2 3 4 5 6 
#
# 1 0.011028 0.002347 -0.001430 0.000000 0.000000 0.000000
# 2 0.002347 0.016498 -0.001755 0.000000 0.000000 0.000000
# 3 -0.001430 -0.001755 0.008243 0.000000 0.000000 0.000000
# 4 0.000000 0.000000 0.000000 0.031978 0.000000 0.000000
# 5 0.000000 0.000000 0.000000 0.000000 0.035211 0.000000
# 6 0.000000 0.000000 0.000000 0.000000 0.000000 0.047688
#
#
# Mechanical properties :
#
#
# Convention : Reuss Voigt Hill
#
# Bulk Modulus (GPa) = 29.33155 34.60175 31.96665
# Shear Modulus (GPa) = 30.54611 34.22357 32.38484
#
# Velocity S-wave (km/s) = 3.39997 3.59881 3.50080
# Velocity P-wave (km/s) = 5.14909 5.51028 5.33275
#
# Compressibility (1/GPa) = 0.03409298
#
# Stress axis : x y z
#
# Youngs Moduli (GPa) = 90.67594 60.61315 121.31755
#
# Poissons Ratio (x) = -0.14227 0.17354
# Poissons Ratio (y) = -0.21283 0.21289
# Poissons Ratio (z) = 0.12971 0.10636
#
# Static dielectric constant tensor:
#      x y z
#    x 2.134130 0.000000 0.000000 
#    y 0.000000 2.194380 0.000000 
#    z 0.000000 0.000000 2.089060 
# 
# From -- ./inp_files/629.got.cif
#   From: 2010.05.17/outbox.cif.g08.bks.cpg/sg56_1_cif.got.tgz:629.got - 2010.06.03 13:42:01.
