data_PCOD9432051
_publ_section_title
;
Structure prediction by ZEFSAII (Michael W. Deem and Ramdas Pophale) SiO2 
 PCOD9432051
Probable space group: P C C N
;
_chemical_formula_sum "Si O2"
_cell_formula_units_Z 60
_cell_length_a 17.227685
_cell_length_b 17.532058
_cell_length_c 8.549257
_cell_angle_alpha 90.000000
_cell_angle_beta 90.000000
_cell_angle_gamma 90.000000
_cell_volume 2582.189993
_symmetry_space_group_name_H-M "P C C N"
_symmetry_group_IT_number 56
_symmetry_cell_setting 'orthorhombic'
loop_
_space_group_symop_operation_xyz
x,y,z
1/2-x,1/2-y,z
1/2+x,-y,1/2-z
-x,1/2+y,1/2-z
-x,-y,-z
1/2+x,1/2+y,-z
1/2-x,y,1/2+z
x,1/2-y,1/2+z
loop_
_atom_site_type_symbol
_atom_site_label
_atom_site_fract_x
_atom_site_fract_y
_atom_site_fract_z
Si Si1 0.683890 0.994596 0.259752
Si Si2 0.229699 0.902924 0.987391
Si Si3 0.008278 0.481535 0.772409
Si Si4 0.181339 0.154232 0.058012
Si Si5 0.393100 0.717908 0.903519
Si Si6 0.101634 0.636333 0.080440
Si Si7 0.250000 0.250000 0.799185
Si Si8 0.488637 0.111623 0.450099
O O1 0.599725 0.975268 0.188695
O O2 0.712349 0.919581 0.350259
O O3 0.669362 0.055544 0.398275
O O4 0.743082 0.035670 0.142737
O O5 0.309040 0.889463 0.081397
O O6 0.189993 0.823952 0.935278
O O7 0.955310 0.435965 0.896707
O O8 0.991192 0.567651 0.715442
O O9 0.993048 0.439537 0.605193
O O10 0.181750 0.223191 0.183554
O O11 0.233360 0.180518 0.914297
O O12 0.098293 0.137781 0.986409
O O13 0.413213 0.689743 0.730327
O O14 0.398957 0.808244 0.929995
O O15 0.452799 0.680783 0.026139
#
# Coordination Sequence:
#
# PCOD9432051 Si02
#       8
#     8   8   8   8   8   8   4   8
#     4  11  23  41  69  99 135 176 235 286 353 415
#     4  12  24  41  67  99 135 182 230 295 346 420
#     4   9  20  41  63  96 129 177 225 286 339 414
#     4  10  22  39  67  95 130 179 220 287 345 422
#     4  11  24  43  63  99 133 185 231 282 355 423
#     4  11  26  41  68  97 140 182 234 285 355 417
#     4  10  22  42  60  98 140 168 228 282 354 418
#     4   9  19  38  69  89 132 177 228 273 349 410
#
# _framework density 23.236091999999999
#
# number of rings (size 3 to 8) (size 9 to 14) (size 15 to 20)
#    0.000    1.600    2.667    1.200    3.733    5.867 
#    0.000    0.000    0.000    0.000    0.000    0.000 
#    0.000    0.000    0.000    0.000    0.000    0.000 
#
# Total GULP energy -334800.300879 kJ/mol
# GULP energy per Si atom -5580.005015 kJ/mol
# Density = 2.318321 g / cm^3
# Si number density = 23.236092 Si / 1000 Ang^3
#
#
#
# Elastic Constant Matrix: (Units=GPa)
#
#
# Indices 1 2 3 4 5 6 
#
# 1 43.4572 25.6261 9.7434 0.0000 0.0000 0.0000
# 2 25.6261 86.0765 37.7005 0.0000 0.0000 0.0000
# 3 9.7434 37.7005 67.8542 0.0000 0.0000 0.0000
# 4 0.0000 0.0000 0.0000 50.2486 0.0000 0.0000
# 5 0.0000 0.0000 0.0000 0.0000 25.2086 0.0000
# 6 0.0000 0.0000 0.0000 0.0000 0.0000 15.8577
#
#
#
# Elastic Compliance Matrix: (Units=1/GPa)
#
#
# Indices 1 2 3 4 5 6 
#
# 1 0.027944 -0.008672 0.000806 0.000000 0.000000 0.000000
# 2 -0.008672 0.018045 -0.008781 0.000000 0.000000 0.000000
# 3 0.000806 -0.008781 0.019501 0.000000 0.000000 0.000000
# 4 0.000000 0.000000 0.000000 0.019901 0.000000 0.000000
# 5 0.000000 0.000000 0.000000 0.000000 0.039669 0.000000
# 6 0.000000 0.000000 0.000000 0.000000 0.000000 0.063061
#
#
# Mechanical properties :
#
#
# Convention : Reuss Voigt Hill
#
# Bulk Modulus (GPa) = 31.06027 38.16978 34.61503
# Shear Modulus (GPa) = 21.53800 26.55085 24.04442
#
# Velocity S-wave (km/s) = 3.04784 3.38399 3.22030
# Velocity P-wave (km/s) = 5.07760 5.63303 5.36251
#
# Compressibility (1/GPa) = 0.03219547
#
# Stress axis : x y z
#
# Youngs Moduli (GPa) = 35.78530 55.41578 51.28059
#
# Poissons Ratio (x) = 0.48059 -0.04132
# Poissons Ratio (y) = 0.31034 0.45029
# Poissons Ratio (z) = -0.02884 0.48660
#
# Static dielectric constant tensor:
#      x y z
#    x 1.845100 0.000000 0.000000 
#    y 0.000000 1.915300 0.000000 
#    z 0.000000 0.000000 1.903430 
# 
# From -- ./inp_files/4153.got.cif
#   From: 2010.05.17/outbox.cif.g08.bks.cpg/sg56_3_cif.got.tgz:4153.got - 2010.06.03 13:42:01.
