data_PCOD9432713
_publ_section_title
;
Structure prediction by ZEFSAII (Michael W. Deem and Ramdas Pophale) SiO2 
 PCOD9432713
Probable space group: P C C N
;
_chemical_formula_sum "Si O2"
_cell_formula_units_Z 24
_cell_length_a 5.231894
_cell_length_b 17.945242
_cell_length_c 9.370888
_cell_angle_alpha 90.000000
_cell_angle_beta 90.000000
_cell_angle_gamma 90.000000
_cell_volume 879.810221
_symmetry_space_group_name_H-M "P C C N"
_symmetry_group_IT_number 56
_symmetry_cell_setting 'orthorhombic'
loop_
_space_group_symop_operation_xyz
x,y,z
1/2-x,1/2-y,z
1/2+x,-y,1/2-z
-x,1/2+y,1/2-z
-x,-y,-z
1/2+x,1/2+y,-z
1/2-x,y,1/2+z
x,1/2-y,1/2+z
loop_
_atom_site_type_symbol
_atom_site_label
_atom_site_fract_x
_atom_site_fract_y
_atom_site_fract_z
Si Si1 0.015710 0.296480 0.452213
Si Si2 0.266183 0.935392 0.075286
Si Si3 0.055427 0.409546 0.674906
O O1 0.750000 0.250000 0.466771
O O2 0.934286 0.372193 0.370568
O O3 0.114275 0.331052 0.603015
O O4 0.250000 0.250000 0.393220
O O5 0.519137 0.911424 0.156861
O O6 0.219253 0.927106 0.906757
O O7 0.213782 0.019624 0.121117
#
# Coordination Sequence:
#
# PCOD9432713 Si02
#       3
#     8   8   8
#     4  10  23  44  69  98 140 184 222 280 347 414
#     4   9  21  42  66  98 134 182 233 283 337 406
#     4   9  21  42  66  98 134 182 233 283 337 406
#
# _framework density 27.278607000000001
#
# number of rings (size 3 to 8) (size 9 to 14) (size 15 to 20)
#    2.000    0.667    0.000    0.000    0.000    8.000 
#    0.000    3.333    0.000    0.000    0.000    0.000 
#    0.000    0.000    0.000    0.000    0.000    0.000 
#
# Total GULP energy -133841.745501 kJ/mol
# GULP energy per Si atom -5576.739396 kJ/mol
# Density = 2.721652 g / cm^3
# Si number density = 27.278607 Si / 1000 Ang^3
#
#
#
# Elastic Constant Matrix: (Units=GPa)
#
#
# Indices 1 2 3 4 5 6 
#
# 1 105.4372 89.7089 13.0465 0.0000 0.0000 0.0000
# 2 89.7089 175.3168 20.9927 0.0000 0.0000 0.0000
# 3 13.0465 20.9927 75.4834 0.0000 0.0000 0.0000
# 4 0.0000 0.0000 0.0000 33.4417 0.0000 0.0000
# 5 0.0000 0.0000 0.0000 0.0000 25.1601 0.0000
# 6 0.0000 0.0000 0.0000 0.0000 0.0000 52.0616
#
#
#
# Elastic Compliance Matrix: (Units=1/GPa)
#
#
# Indices 1 2 3 4 5 6 
#
# 1 0.016818 -0.008542 -0.000531 0.000000 0.000000 0.000000
# 2 -0.008542 0.010239 -0.001371 0.000000 0.000000 0.000000
# 3 -0.000531 -0.001371 0.013721 0.000000 0.000000 0.000000
# 4 0.000000 0.000000 0.000000 0.029903 0.000000 0.000000
# 5 0.000000 0.000000 0.000000 0.000000 0.039745 0.000000
# 6 0.000000 0.000000 0.000000 0.000000 0.000000 0.019208
#
#
# Mechanical properties :
#
#
# Convention : Reuss Voigt Hill
#
# Bulk Modulus (GPa) = 50.27841 67.08153 58.67997
# Shear Modulus (GPa) = 31.81618 37.63196 34.72407
#
# Velocity S-wave (km/s) = 3.41888 3.71825 3.57170
# Velocity P-wave (km/s) = 5.83579 6.56342 6.21027
#
# Compressibility (1/GPa) = 0.01988925
#
# Stress axis : x y z
#
# Youngs Moduli (GPa) = 59.46069 97.66518 72.88045
#
# Poissons Ratio (x) = 0.83426 0.03871
# Poissons Ratio (y) = 0.50791 0.09993
# Poissons Ratio (z) = 0.03158 0.13392
#
# Static dielectric constant tensor:
#      x y z
#    x 2.201700 0.000000 0.000000 
#    y 0.000000 2.130780 0.000000 
#    z 0.000000 0.000000 2.112860 
# 
# From -- ./inp_files/5347.got.cif
#   From: 2010.05.17/outbox.cif.g08.bks.cpg/sg56_3_cif.got.tgz:5347.got - 2010.06.03 13:42:01.
