data_PCOD9432780
_publ_section_title
;
Structure prediction by ZEFSAII (Michael W. Deem and Ramdas Pophale) SiO2 
 PCOD9432780
Probable space group: P C C N
;
_chemical_formula_sum "Si O2"
_cell_formula_units_Z 60
_cell_length_a 9.035768
_cell_length_b 12.547003
_cell_length_c 24.707163
_cell_angle_alpha 90.000000
_cell_angle_beta 90.000000
_cell_angle_gamma 90.000000
_cell_volume 2801.095745
_symmetry_space_group_name_H-M "P C C N"
_symmetry_group_IT_number 56
_symmetry_cell_setting 'orthorhombic'
loop_
_space_group_symop_operation_xyz
x,y,z
1/2-x,1/2-y,z
1/2+x,-y,1/2-z
-x,1/2+y,1/2-z
-x,-y,-z
1/2+x,1/2+y,-z
1/2-x,y,1/2+z
x,1/2-y,1/2+z
loop_
_atom_site_type_symbol
_atom_site_label
_atom_site_fract_x
_atom_site_fract_y
_atom_site_fract_z
Si Si1 0.350642 0.142244 0.289853
Si Si2 0.082393 0.301084 0.176702
Si Si3 0.779372 0.480104 0.623867
Si Si4 0.949356 0.887196 0.555776
Si Si5 0.628275 0.602519 0.439361
Si Si6 0.250000 0.750000 0.836692
Si Si7 0.905732 0.203158 0.875521
Si Si8 0.569363 0.504480 0.940650
O O1 0.250000 0.250000 0.292106
O O2 0.398405 0.120799 0.228282
O O3 0.496064 0.162532 0.325938
O O4 0.269709 0.044733 0.319877
O O5 0.250000 0.250000 0.176381
O O6 0.075261 0.350006 0.116878
O O7 0.921545 0.242022 0.188251
O O8 0.693582 0.551952 0.579855
O O9 0.730970 0.359538 0.631084
O O10 0.944732 0.469392 0.602658
O O11 0.924067 0.844622 0.495183
O O12 0.998819 0.793590 0.594783
O O13 0.069826 0.981170 0.555167
O O14 0.804056 0.592343 0.438909
O O15 0.750000 0.250000 0.856997
O O16 0.875898 0.110628 0.919548
O O17 0.500000 0.500000 0.000000
#
# Coordination Sequence:
#
# PCOD9432780 Si02
#       8
#     8   8   8   8   8   4   8   8
#     4  10  23  46  74  98 138 182 237 299 350 421
#     4  11  26  49  70 105 144 190 241 294 364 429
#     4  11  23  46  70 102 137 185 236 289 358 426
#     4  11  22  42  69  98 135 184 225 288 355 420
#     4  11  23  44  63  97 144 178 230 291 360 424
#     4  12  26  48  72 104 148 192 238 292 364 438
#     4  11  23  41  70 102 132 182 239 290 356 429
#     4  11  23  41  65 102 139 176 237 292 354 439
#
# _framework density 21.420188
#
# number of rings (size 3 to 8) (size 9 to 14) (size 15 to 20)
#    0.000    1.067    5.333    0.800    0.933    2.133 
#   14.400    0.000    0.000    0.000    0.000    0.000 
#    0.000    0.000    0.000    0.000    0.000    0.000 
#
# Total GULP energy -334488.619505 kJ/mol
# GULP energy per Si atom -5574.810325 kJ/mol
# Density = 2.137144 g / cm^3
# Si number density = 21.420188 Si / 1000 Ang^3
#
#
#
# Elastic Constant Matrix: (Units=GPa)
#
#
# Indices 1 2 3 4 5 6 
#
# 1 122.9033 8.3113 24.6819 0.0000 0.0000 0.0000
# 2 8.3113 54.8312 26.4108 0.0000 0.0000 0.0000
# 3 24.6819 26.4108 140.2926 0.0000 0.0000 0.0000
# 4 0.0000 0.0000 0.0000-1333.4709 0.0000 0.0000
# 5 0.0000 0.0000 0.0000 0.0000 12.9792 0.0000
# 6 0.0000 0.0000 0.0000 0.0000 0.0000 21.3655
#
#
#
# Elastic Compliance Matrix: (Units=1/GPa)
#
#
# Indices 1 2 3 4 5 6 
#
# 1 0.008454 -0.000621 -0.001370 0.000000 0.000000 0.000000
# 2 -0.000621 0.020102 -0.003675 0.000000 0.000000 0.000000
# 3 -0.001370 -0.003675 0.008061 0.000000 0.000000 0.000000
# 4 0.000000 0.000000 0.000000 -0.000750 0.000000 0.000000
# 5 0.000000 0.000000 0.000000 0.000000 0.077046 0.000000
# 6 0.000000 0.000000 0.000000 0.000000 0.000000 0.046804
#
#
# Mechanical properties :
#
#
# Convention : Reuss Voigt Hill
#
# Bulk Modulus (GPa) = 39.55171 48.53724 44.04447
# Shear Modulus (GPa) = 27.85843 -242.58372 -107.36265
#
# Velocity S-wave (km/s) = 3.61025 -10.65345 -7.08738
# Velocity P-wave (km/s) = 5.99027 11.34104 6.80940
#
# Compressibility (1/GPa) = 0.02528335
#
# Stress axis : x y z
#
# Youngs Moduli (GPa) = 118.29154 49.74590 124.05590
#
# Poissons Ratio (x) = 0.03091 0.16999
# Poissons Ratio (y) = 0.07350 0.45591
# Poissons Ratio (z) = 0.16209 0.18282
#
# Static dielectric constant tensor:
#      x y z
#    x 1.946240 0.000000 0.000000 
#    y 0.000000 1.812600 0.000000 
#    z 0.000000 0.000000 1.769730 
# 
# From -- ./inp_files/20640.got.cif
#   From: 2010.05.17/outbox.cif.g08.bks.cpg/sg56_11_cif.got.tgz:20640.got - 2010.06.03 13:42:01.
