data_PCOD9432071
_publ_section_title
;
Structure prediction by ZEFSAII (Michael W. Deem and Ramdas Pophale) SiO2 
 PCOD9432071
Probable space group: P C C N
;
_chemical_formula_sum "Si O2"
_cell_formula_units_Z 56
_cell_length_a 21.392377
_cell_length_b 11.662522
_cell_length_c 9.581227
_cell_angle_alpha 90.000000
_cell_angle_beta 90.000000
_cell_angle_gamma 90.000000
_cell_volume 2390.411389
_symmetry_space_group_name_H-M "P C C N"
_symmetry_group_IT_number 56
_symmetry_cell_setting 'orthorhombic'
loop_
_space_group_symop_operation_xyz
x,y,z
1/2-x,1/2-y,z
1/2+x,-y,1/2-z
-x,1/2+y,1/2-z
-x,-y,-z
1/2+x,1/2+y,-z
1/2-x,y,1/2+z
x,1/2-y,1/2+z
loop_
_atom_site_type_symbol
_atom_site_label
_atom_site_fract_x
_atom_site_fract_y
_atom_site_fract_z
Si Si1 0.839238 0.682490 0.917649
Si Si2 0.686747 0.304372 0.516608
Si Si3 0.529640 0.624978 0.490071
Si Si4 0.364404 0.107266 0.391963
Si Si5 0.732319 0.987117 0.442645
Si Si6 0.635425 0.380310 0.796939
Si Si7 0.502817 0.844687 0.673487
O O1 0.847602 0.671170 0.751500
O O2 0.772165 0.628465 0.947563
O O3 0.895217 0.612121 0.992570
O O4 0.852709 0.807424 0.978910
O O5 0.750000 0.250000 0.581886
O O6 0.714062 0.417127 0.443578
O O7 0.639736 0.334908 0.639750
O O8 0.659125 0.218393 0.402768
O O9 0.500000 0.500000 0.500000
O O10 0.506618 0.720630 0.598978
O O11 0.514444 0.673485 0.337185
O O12 0.437849 0.082029 0.381081
O O13 0.314656 0.007937 0.423820
O O14 0.684954 0.016593 0.316743
O O15 0.564243 0.404541 0.838853
#
# Coordination Sequence:
#
# PCOD9432071 Si02
#       7
#     8   8   8   8   8   8   8
#     4  10  23  42  67  91 130 167 222 272 328 396
#     4  10  22  40  60  91 128 167 208 265 330 391
#     4  10  23  47  70 101 135 184 219 281 343 398
#     4  10  23  44  62  93 129 168 219 277 326 390
#     4  11  23  38  65  97 127 172 219 265 335 398
#     4  11  23  40  65  93 132 166 216 276 329 401
#     4  10  23  45  67  99 134 174 228 277 335 404
#
# _framework density 23.426929999999999
#
# number of rings (size 3 to 8) (size 9 to 14) (size 15 to 20)
#    0.000    1.714    0.000    3.429    4.000    5.143 
#   18.000    0.000    0.000    0.000    0.000    0.000 
#    0.000    0.000    0.000    0.000    0.000    0.000 
#
# Total GULP energy -312934.292400 kJ/mol
# GULP energy per Si atom -5588.112364 kJ/mol
# Density = 2.337361 g / cm^3
# Si number density = 23.426930 Si / 1000 Ang^3
#
#
#
# Elastic Constant Matrix: (Units=GPa)
#
#
# Indices 1 2 3 4 5 6 
#
# 1 161.2939 10.6873 2.2504 0.0000 0.0000 0.0000
# 2 10.6873 49.2971 5.2249 0.0000 0.0000 0.0000
# 3 2.2504 5.2249 64.2159 0.0000 0.0000 0.0000
# 4 0.0000 0.0000 0.0000 14.5724 0.0000 0.0000
# 5 0.0000 0.0000 0.0000 0.0000 27.9968 0.0000
# 6 0.0000 0.0000 0.0000 0.0000 0.0000 34.4322
#
#
#
# Elastic Compliance Matrix: (Units=1/GPa)
#
#
# Indices 1 2 3 4 5 6 
#
# 1 0.006291 -0.001352 -0.000110 0.000000 0.000000 0.000000
# 2 -0.001352 0.020752 -0.001641 0.000000 0.000000 0.000000
# 3 -0.000110 -0.001641 0.015710 0.000000 0.000000 0.000000
# 4 0.000000 0.000000 0.000000 0.068623 0.000000 0.000000
# 5 0.000000 0.000000 0.000000 0.000000 0.035718 0.000000
# 6 0.000000 0.000000 0.000000 0.000000 0.000000 0.029043
#
#
# Mechanical properties :
#
#
# Convention : Reuss Voigt Hill
#
# Bulk Modulus (GPa) = 27.36302 34.57024 30.96663
# Shear Modulus (GPa) = 25.70350 32.50992 29.10671
#
# Velocity S-wave (km/s) = 3.31596 3.72925 3.52866
# Velocity P-wave (km/s) = 5.13481 5.77336 5.46342
#
# Compressibility (1/GPa) = 0.03654567
#
# Stress axis : x y z
#
# Youngs Moduli (GPa) = 158.95735 48.18760 63.65428
#
# Poissons Ratio (x) = 0.06516 0.00703
# Poissons Ratio (y) = 0.21493 0.10446
# Poissons Ratio (z) = 0.01756 0.07908
#
# Static dielectric constant tensor:
#      x y z
#    x 1.941010 0.000000 0.000000 
#    y 0.000000 1.985950 0.000000 
#    z 0.000000 0.000000 1.857210 
# 
# From -- ./inp_files/4484.got.cif
#   From: 2010.05.17/outbox.cif.g08.bks.cpg/sg56_3_cif.got.tgz:4484.got - 2010.06.03 13:42:01.
