data_PCOD9432402
_publ_section_title
;
Structure prediction by ZEFSAII (Michael W. Deem and Ramdas Pophale) SiO2 
 PCOD9432402
Probable space group: P C C N
;
_chemical_formula_sum "Si O2"
_cell_formula_units_Z 48
_cell_length_a 12.366561
_cell_length_b 8.768845
_cell_length_c 21.608748
_cell_angle_alpha 90.000000
_cell_angle_beta 90.000000
_cell_angle_gamma 90.000000
_cell_volume 2343.262500
_symmetry_space_group_name_H-M "P C C N"
_symmetry_group_IT_number 56
_symmetry_cell_setting 'orthorhombic'
loop_
_space_group_symop_operation_xyz
x,y,z
1/2-x,1/2-y,z
1/2+x,-y,1/2-z
-x,1/2+y,1/2-z
-x,-y,-z
1/2+x,1/2+y,-z
1/2-x,y,1/2+z
x,1/2-y,1/2+z
loop_
_atom_site_type_symbol
_atom_site_label
_atom_site_fract_x
_atom_site_fract_y
_atom_site_fract_z
Si Si1 0.250000 0.250000 0.962773
Si Si2 0.333876 0.447818 0.753281
Si Si3 0.836643 0.964116 0.638685
Si Si4 0.750000 0.250000 0.569646
Si Si5 0.499111 0.301887 0.273520
Si Si6 0.877564 0.019187 0.980509
Si Si7 0.674614 0.395408 0.842075
O O1 0.326737 0.150055 0.918690
O O2 0.183078 0.135491 0.003512
O O3 0.264899 0.433755 0.815877
O O4 0.416646 0.589943 0.761880
O O5 0.403051 0.294378 0.741449
O O6 0.248858 0.492747 0.699421
O O7 0.942273 0.915885 0.677108
O O8 0.820576 0.134896 0.612426
O O9 0.823901 0.351748 0.524238
O O10 0.572811 0.170855 0.304528
O O11 0.864327 0.046997 0.907956
O O12 0.000000 0.000000 0.000000
O O13 0.750000 0.250000 0.854416
#
# Coordination Sequence:
#
# PCOD9432402 Si02
#       7
#     4   8   8   4   8   8   8
#     4  10  22  44  66  96 130 174 222 276 320 400
#     4  11  24  41  68  99 141 172 226 277 343 400
#     4  11  22  44  65  96 134 170 228 276 328 403
#     4  10  26  42  72  96 130 178 226 278 330 406
#     4  11  23  42  66  98 135 182 214 276 351 401
#     4  11  23  48  69  97 136 179 225 275 339 397
#     4  10  23  44  66  99 140 174 225 284 328 404
#
# _framework density 20.484259999999999
#
# number of rings (size 3 to 8) (size 9 to 14) (size 15 to 20)
#    0.000    1.333    2.500    2.000    8.167    0.000 
#   12.000    2.500    0.000    0.000    0.000    0.000 
#    0.000    0.000    0.000    0.000    0.000    0.000 
#
# Total GULP energy -268237.367457 kJ/mol
# GULP energy per Si atom -5588.278489 kJ/mol
# Density = 2.043764 g / cm^3
# Si number density = 20.484260 Si / 1000 Ang^3
#
#
#
# Elastic Constant Matrix: (Units=GPa)
#
#
# Indices 1 2 3 4 5 6 
#
# 1 117.6533 60.7136 32.5417 0.0000 0.0000 0.0000
# 2 60.7136 126.8831 49.9413 0.0000 0.0000 0.0000
# 3 32.5417 49.9413 60.6112 0.0000 0.0000 0.0000
# 4 0.0000 0.0000 0.0000 26.8536 0.0000 0.0000
# 5 0.0000 0.0000 0.0000 0.0000 20.2533 0.0000
# 6 0.0000 0.0000 0.0000 0.0000 0.0000 34.9232
#
#
#
# Elastic Compliance Matrix: (Units=1/GPa)
#
#
# Indices 1 2 3 4 5 6 
#
# 1 0.011524 -0.004557 -0.002432 0.000000 0.000000 0.000000
# 2 -0.004557 0.013466 -0.008649 0.000000 0.000000 0.000000
# 3 -0.002432 -0.008649 0.024931 0.000000 0.000000 0.000000
# 4 0.000000 0.000000 0.000000 0.037239 0.000000 0.000000
# 5 0.000000 0.000000 0.000000 0.000000 0.049375 0.000000
# 6 0.000000 0.000000 0.000000 0.000000 0.000000 0.028634
#
#
# Mechanical properties :
#
#
# Convention : Reuss Voigt Hill
#
# Bulk Modulus (GPa) = 53.63535 65.72676 59.68105
# Shear Modulus (GPa) = 24.67193 27.20275 25.93734
#
# Velocity S-wave (km/s) = 3.47426 3.64810 3.56224
# Velocity P-wave (km/s) = 6.50650 7.06406 6.79101
#
# Compressibility (1/GPa) = 0.01864442
#
# Stress axis : x y z
#
# Youngs Moduli (GPa) = 86.77708 74.26189 40.11081
#
# Poissons Ratio (x) = 0.33839 0.09757
# Poissons Ratio (y) = 0.39542 0.34691
# Poissons Ratio (z) = 0.21108 0.64228
#
# Static dielectric constant tensor:
#      x y z
#    x 1.723900 0.000000 0.000000 
#    y 0.000000 1.794730 0.000000 
#    z 0.000000 0.000000 1.703730 
# 
# From -- ./inp_files/20937.got.cif
#   From: 2010.05.17/outbox.cif.g08.bks.cpg/sg56_11_cif.got.tgz:20937.got - 2010.06.03 13:42:01.
