data_PCOD9432988
_publ_section_title
;
Structure prediction by ZEFSAII (Michael W. Deem and Ramdas Pophale) SiO2 
 PCOD9432988
Probable space group: P C C N
;
_chemical_formula_sum "Si O2"
_cell_formula_units_Z 20
_cell_length_a 11.956026
_cell_length_b 5.299592
_cell_length_c 13.613002
_cell_angle_alpha 90.000000
_cell_angle_beta 90.000000
_cell_angle_gamma 90.000000
_cell_volume 862.547846
_symmetry_space_group_name_H-M "P C C N"
_symmetry_group_IT_number 56
_symmetry_cell_setting 'orthorhombic'
loop_
_space_group_symop_operation_xyz
x,y,z
1/2-x,1/2-y,z
1/2+x,-y,1/2-z
-x,1/2+y,1/2-z
-x,-y,-z
1/2+x,1/2+y,-z
1/2-x,y,1/2+z
x,1/2-y,1/2+z
loop_
_atom_site_type_symbol
_atom_site_label
_atom_site_fract_x
_atom_site_fract_y
_atom_site_fract_z
Si Si1 0.020167 0.369974 0.187505
Si Si2 0.250000 0.250000 0.079367
Si Si3 0.205603 0.503590 0.891372
O O1 0.138528 0.305777 0.138971
O O2 0.020525 0.607666 0.262273
O O3 0.926992 0.465261 0.109200
O O4 0.260854 0.475969 0.999100
O O5 0.250000 0.750000 0.838958
O O6 0.250000 0.250000 0.840732
#
# Coordination Sequence:
#
# PCOD9432988 Si02
#       3
#     8   4   8
#     4  12  28  44  73 109 149 185 242 304 367 413
#     4  10  28  46  76  98 146 198 238 292 356 442
#     4  10  24  45  74 100 144 187 247 283 361 436
#
# _framework density 23.18712
#
# number of rings (size 3 to 8) (size 9 to 14) (size 15 to 20)
#    1.200    0.000    0.000    3.600   14.000    1.600 
#    0.000    0.000    0.000    0.000    0.000    0.000 
#    0.000    0.000    0.000    0.000    0.000    0.000 
#
# Total GULP energy -111462.368680 kJ/mol
# GULP energy per Si atom -5573.118434 kJ/mol
# Density = 2.313434 g / cm^3
# Si number density = 23.187120 Si / 1000 Ang^3
#
#
#
# Elastic Constant Matrix: (Units=GPa)
#
#
# Indices 1 2 3 4 5 6 
#
# 1 162.2144 51.9951 30.2757 0.0000 0.0000 0.0000
# 2 51.9951 195.5280 21.2010 0.0000 0.0000 0.0000
# 3 30.2757 21.2010 50.4139 0.0000 0.0000 0.0000
# 4 0.0000 0.0000 0.0000 2.1261 0.0000 0.0000
# 5 0.0000 0.0000 0.0000 0.0000 32.0053 0.0000
# 6 0.0000 0.0000 0.0000 0.0000 0.0000 37.3496
#
#
#
# Elastic Compliance Matrix: (Units=1/GPa)
#
#
# Indices 1 2 3 4 5 6 
#
# 1 0.007365 -0.001550 -0.003771 0.000000 0.000000 0.000000
# 2 -0.001550 0.005685 -0.001460 0.000000 0.000000 0.000000
# 3 -0.003771 -0.001460 0.022715 0.000000 0.000000 0.000000
# 4 0.000000 0.000000 0.000000 0.470347 0.000000 0.000000
# 5 0.000000 0.000000 0.000000 0.000000 0.031245 0.000000
# 6 0.000000 0.000000 0.000000 0.000000 0.000000 0.026774
#
#
# Mechanical properties :
#
#
# Convention : Reuss Voigt Hill
#
# Bulk Modulus (GPa) = 45.04006 68.34443 56.69224
# Shear Modulus (GPa) = 8.54564 34.60850 21.57707
#
# Velocity S-wave (km/s) = 1.92185 3.86758 3.05382
# Velocity P-wave (km/s) = 4.93877 7.03444 6.07762
#
# Compressibility (1/GPa) = 0.02220246
#
# Stress axis : x y z
#
# Youngs Moduli (GPa) = 135.77165 175.90913 44.02430
#
# Poissons Ratio (x) = 0.27260 0.16604
# Poissons Ratio (y) = 0.21040 0.06428
# Poissons Ratio (z) = 0.51206 0.25683
#
# Static dielectric constant tensor:
#      x y z
#    x 1.874790 0.000000 0.000000 
#    y 0.000000 1.951660 0.000000 
#    z 0.000000 0.000000 1.888790 
# 
# From -- ./inp_files/7450.got.cif
#   From: 2010.05.17/outbox.cif.g08.bks.cpg/sg56_4_cif.got.tgz:7450.got - 2010.06.03 13:42:01.
