data_PCOD9432249
_publ_section_title
;
Structure prediction by ZEFSAII (Michael W. Deem and Ramdas Pophale) SiO2 
 PCOD9432249
Probable space group: P C C N
;
_chemical_formula_sum "Si O2"
_cell_formula_units_Z 48
_cell_length_a 16.479208
_cell_length_b 21.889745
_cell_length_c 5.397027
_cell_angle_alpha 90.000000
_cell_angle_beta 90.000000
_cell_angle_gamma 90.000000
_cell_volume 1946.846132
_symmetry_space_group_name_H-M "P C C N"
_symmetry_group_IT_number 56
_symmetry_cell_setting 'orthorhombic'
loop_
_space_group_symop_operation_xyz
x,y,z
1/2-x,1/2-y,z
1/2+x,-y,1/2-z
-x,1/2+y,1/2-z
-x,-y,-z
1/2+x,1/2+y,-z
1/2-x,y,1/2+z
x,1/2-y,1/2+z
loop_
_atom_site_type_symbol
_atom_site_label
_atom_site_fract_x
_atom_site_fract_y
_atom_site_fract_z
Si Si1 0.616380 0.097193 0.065164
Si Si2 0.197048 0.004392 0.718734
Si Si3 0.924696 0.611080 0.952118
Si Si4 0.658990 0.225679 0.237486
Si Si5 0.716836 0.818947 0.817732
Si Si6 0.550781 0.512477 0.760430
O O1 0.521479 0.118379 0.076709
O O2 0.664075 0.155782 0.153101
O O3 0.651935 0.062215 0.823311
O O4 0.616500 0.040518 0.253311
O O5 0.254282 0.010171 0.474383
O O6 0.129043 0.058731 0.693151
O O7 0.876599 0.672383 0.891647
O O8 0.919719 0.581351 0.227455
O O9 0.750000 0.250000 0.273992
O O10 0.619800 0.237297 0.506981
O O11 0.750000 0.750000 0.795920
O O12 0.763364 0.847202 0.052067
O O13 0.500000 0.500000 0.500000
O O14 0.500000 0.500000 0.000000
#
# Coordination Sequence:
#
# PCOD9432249 Si02
#       6
#     8   8   8   8   8   8
#     4  10  24  43  70  99 138 177 227 289 340 404
#     4  11  25  41  69 101 136 178 219 268 352 418
#     4  10  22  43  67 102 136 173 222 282 332 398
#     4  10  24  44  67  91 134 178 231 281 335 401
#     4  10  22  42  65  90 129 178 224 271 325 394
#     4   9  20  37  61  97 131 162 201 264 338 393
#
# _framework density 24.655259999999998
#
# number of rings (size 3 to 8) (size 9 to 14) (size 15 to 20)
#    0.000    2.000    0.000    2.500    4.667   16.000 
#    6.000    0.000    0.000    0.000    0.000    0.000 
#    0.000    0.000    0.000    0.000    0.000    0.000 
#
# Total GULP energy -267358.475931 kJ/mol
# GULP energy per Si atom -5569.968249 kJ/mol
# Density = 2.459914 g / cm^3
# Si number density = 24.655260 Si / 1000 Ang^3
#
#
#
# Elastic Constant Matrix: (Units=GPa)
#
#
# Indices 1 2 3 4 5 6 
#
# 1 121.5566 37.5002 28.3322 0.0000 0.0000 0.0000
# 2 37.5002 62.0058 -29.8261 0.0000 0.0000 0.0000
# 3 28.3322 -29.8261 146.8023 0.0000 0.0000 0.0000
# 4 0.0000 0.0000 0.0000 7.9532 0.0000 0.0000
# 5 0.0000 0.0000 0.0000 0.0000 47.1881 0.0000
# 6 0.0000 0.0000 0.0000 0.0000 0.0000 49.8265
#
#
#
# Elastic Compliance Matrix: (Units=1/GPa)
#
#
# Indices 1 2 3 4 5 6 
#
# 1 0.012100 -0.009356 -0.004236 0.000000 0.000000 0.000000
# 2 -0.009356 0.025108 0.006907 0.000000 0.000000 0.000000
# 3 -0.004236 0.006907 0.009033 0.000000 0.000000 0.000000
# 4 0.000000 0.000000 0.000000 0.125735 0.000000 0.000000
# 5 0.000000 0.000000 0.000000 0.000000 0.021192 0.000000
# 6 0.000000 0.000000 0.000000 0.000000 0.000000 0.020070
#
#
# Mechanical properties :
#
#
# Convention : Reuss Voigt Hill
#
# Bulk Modulus (GPa) = 30.42186 44.70860 37.56523
# Shear Modulus (GPa) = 21.04691 40.61745 30.83218
#
# Velocity S-wave (km/s) = 2.92489 4.06324 3.54012
# Velocity P-wave (km/s) = 4.87569 6.33925 5.65502
#
# Compressibility (1/GPa) = 0.03287110
#
# Stress axis : x y z
#
# Youngs Moduli (GPa) = 82.64334 39.82788 110.70881
#
# Poissons Ratio (x) = 0.37262 0.46897
# Poissons Ratio (y) = 0.77318 -0.76465
# Poissons Ratio (z) = 0.35008 -0.27509
#
# Static dielectric constant tensor:
#      x y z
#    x 1.984990 0.000000 0.000000 
#    y 0.000000 2.187740 0.000000 
#    z 0.000000 0.000000 2.094060 
# 
# From -- ./inp_files/715.got.cif
#   From: 2010.05.17/outbox.cif.g08.bks.cpg/sg56_1_cif.got.tgz:715.got - 2010.06.03 13:42:01.
