data_PCOD9432383
_publ_section_title
;
Structure prediction by ZEFSAII (Michael W. Deem and Ramdas Pophale) SiO2 
 PCOD9432383
Probable space group: P C C N
;
_chemical_formula_sum "Si O2"
_cell_formula_units_Z 40
_cell_length_a 10.841105
_cell_length_b 10.220398
_cell_length_c 15.913325
_cell_angle_alpha 90.000000
_cell_angle_beta 90.000000
_cell_angle_gamma 90.000000
_cell_volume 1763.202900
_symmetry_space_group_name_H-M "P C C N"
_symmetry_group_IT_number 56
_symmetry_cell_setting 'orthorhombic'
loop_
_space_group_symop_operation_xyz
x,y,z
1/2-x,1/2-y,z
1/2+x,-y,1/2-z
-x,1/2+y,1/2-z
-x,-y,-z
1/2+x,1/2+y,-z
1/2-x,y,1/2+z
x,1/2-y,1/2+z
loop_
_atom_site_type_symbol
_atom_site_label
_atom_site_fract_x
_atom_site_fract_y
_atom_site_fract_z
Si Si1 0.558808 0.951720 0.415089
Si Si2 0.833269 0.457757 0.921750
Si Si3 0.883648 0.786822 0.700977
Si Si4 0.985212 0.967043 0.259087
Si Si5 0.950003 0.799582 0.513407
O O1 0.687693 0.029438 0.408953
O O2 0.472658 0.979536 0.335654
O O3 0.572137 0.799005 0.436673
O O4 0.500000 0.000000 0.500000
O O5 0.889329 0.487842 0.829804
O O6 0.907172 0.333902 0.961767
O O7 0.878203 0.571131 0.984875
O O8 0.750000 0.750000 0.734023
O O9 0.980214 0.689792 0.747977
O O10 0.894661 0.754780 0.602315
O O11 0.899845 0.942552 0.712083
#
# Coordination Sequence:
#
# PCOD9432383 Si02
#       5
#     8   8   8   8   8
#     4  12  23  41  69  99 138 180 232 283 356 418
#     4  10  23  43  68 100 138 177 232 295 347 425
#     4  11  22  42  69 100 141 185 238 291 350 421
#     4  11  24  42  68 104 136 185 233 288 359 415
#     4  10  22  43  71  98 131 184 234 285 352 415
#
# _framework density 22.685987000000001
#
# number of rings (size 3 to 8) (size 9 to 14) (size 15 to 20)
#    0.000    1.200    2.000    4.200    0.000    0.800 
#    3.600    3.000    8.800    0.000    0.000    0.000 
#    0.000    0.000    0.000    0.000    0.000    0.000 
#
# Total GULP energy -222946.426387 kJ/mol
# GULP energy per Si atom -5573.660660 kJ/mol
# Density = 2.263435 g / cm^3
# Si number density = 22.685987 Si / 1000 Ang^3
#
#
#
# Elastic Constant Matrix: (Units=GPa)
#
#
# Indices 1 2 3 4 5 6 
#
# 1 91.8354 24.0553 21.3661 0.0000 0.0000 0.0000
# 2 24.0553 71.3585 -9.5860 0.0000 0.0000 0.0000
# 3 21.3661 -9.5860 115.4569 0.0000 0.0000 0.0000
# 4 0.0000 0.0000 0.0000 39.2125 0.0000 0.0000
# 5 0.0000 0.0000 0.0000 0.0000 11.2736 0.0000
# 6 0.0000 0.0000 0.0000 0.0000 0.0000 17.4190
#
#
#
# Elastic Compliance Matrix: (Units=1/GPa)
#
#
# Indices 1 2 3 4 5 6 
#
# 1 0.012751 -0.004667 -0.002747 0.000000 0.000000 0.000000
# 2 -0.004667 0.015880 0.002182 0.000000 0.000000 0.000000
# 3 -0.002747 0.002182 0.009351 0.000000 0.000000 0.000000
# 4 0.000000 0.000000 0.000000 0.025502 0.000000 0.000000
# 5 0.000000 0.000000 0.000000 0.000000 0.088702 0.000000
# 6 0.000000 0.000000 0.000000 0.000000 0.000000 0.057408
#
#
# Mechanical properties :
#
#
# Convention : Reuss Voigt Hill
#
# Bulk Modulus (GPa) = 36.34082 38.92461 37.63271
# Shear Modulus (GPa) = 21.81197 29.76872 25.79034
#
# Velocity S-wave (km/s) = 3.10413 3.62637 3.37536
# Velocity P-wave (km/s) = 5.37599 5.89316 5.64051
#
# Compressibility (1/GPa) = 0.02751727
#
# Stress axis : x y z
#
# Youngs Moduli (GPa) = 78.42668 62.97108 106.94272
#
# Poissons Ratio (x) = 0.29391 0.29379
# Poissons Ratio (y) = 0.36605 -0.23337
# Poissons Ratio (z) = 0.21545 -0.13742
#
# Static dielectric constant tensor:
#      x y z
#    x 1.893420 0.000000 0.000000 
#    y 0.000000 -0.525480 0.000000 
#    z 0.000000 0.000000 1.820800 
# 
# From -- ./inp_files/14420.got.cif
#   From: 2010.05.17/outbox.cif.g08.bks.cpg/sg56_8_cif.got.tgz:14420.got - 2010.06.03 13:42:01.
