data_PCOD9432978
_publ_section_title
;
Structure prediction by ZEFSAII (Michael W. Deem and Ramdas Pophale) SiO2 
 PCOD9432978
Probable space group: P C C N
;
_chemical_formula_sum "Si O2"
_cell_formula_units_Z 48
_cell_length_a 9.850894
_cell_length_b 9.000922
_cell_length_c 23.378172
_cell_angle_alpha 90.000000
_cell_angle_beta 90.000000
_cell_angle_gamma 90.000000
_cell_volume 2072.875381
_symmetry_space_group_name_H-M "P C C N"
_symmetry_group_IT_number 56
_symmetry_cell_setting 'orthorhombic'
loop_
_space_group_symop_operation_xyz
x,y,z
1/2-x,1/2-y,z
1/2+x,-y,1/2-z
-x,1/2+y,1/2-z
-x,-y,-z
1/2+x,1/2+y,-z
1/2-x,y,1/2+z
x,1/2-y,1/2+z
loop_
_atom_site_type_symbol
_atom_site_label
_atom_site_fract_x
_atom_site_fract_y
_atom_site_fract_z
Si Si1 0.876767 0.848442 0.349318
Si Si2 0.359694 0.648422 0.965790
Si Si3 0.138582 0.651004 0.338941
Si Si4 0.899924 0.811173 0.027653
Si Si5 0.906048 0.193785 0.368661
Si Si6 0.885998 0.832386 0.212904
O O1 0.750000 0.750000 0.371499
O O2 0.863154 0.857192 0.280147
O O3 0.011166 0.751428 0.352574
O O4 0.896346 0.014417 0.373487
O O5 0.250000 0.750000 0.996227
O O6 0.306167 0.615574 0.902105
O O7 0.372350 0.483060 0.988070
O O8 0.501943 0.733747 0.975146
O O9 0.250000 0.750000 0.306815
O O10 0.100384 0.497413 0.311250
O O11 0.750000 0.750000 0.035060
O O12 0.996569 0.771466 0.082612
O O13 0.750000 0.250000 0.368497
O O14 0.984957 0.238498 0.309549
O O15 0.750000 0.750000 0.190828
#
# Coordination Sequence:
#
# PCOD9432978 Si02
#       6
#     8   8   8   8   8   8
#     4  11  26  42  64 100 138 182 226 279 338 400
#     4  10  24  45  69 102 136 170 224 282 338 410
#     4  11  23  41  67  99 133 174 222 275 337 401
#     4  11  25  46  72 101 133 177 223 277 343 409
#     4  12  25  43  68  98 136 179 229 281 338 405
#     4  11  23  43  69  98 136 180 229 276 338 401
#
# _framework density 23.156241999999999
#
# number of rings (size 3 to 8) (size 9 to 14) (size 15 to 20)
#    0.000    1.000    1.667    4.000    4.667    6.667 
#    3.000    0.000    0.000    0.000    0.000    0.000 
#    0.000    0.000    0.000    0.000    0.000    0.000 
#
# Total GULP energy -267699.898417 kJ/mol
# GULP energy per Si atom -5577.081217 kJ/mol
# Density = 2.310354 g / cm^3
# Si number density = 23.156242 Si / 1000 Ang^3
#
#
#
# Elastic Constant Matrix: (Units=GPa)
#
#
# Indices 1 2 3 4 5 6 
#
# 1 194.6071 81.5297 5.0130 0.0000 0.0000 0.0000
# 2 81.5297 146.7473 -0.0061 0.0000 0.0000 0.0000
# 3 5.0130 -0.0061 31.0433 0.0000 0.0000 0.0000
# 4 0.0000 0.0000 0.0000 20.7502 0.0000 0.0000
# 5 0.0000 0.0000 0.0000 0.0000 25.1848 0.0000
# 6 0.0000 0.0000 0.0000 0.0000 0.0000 44.7849
#
#
#
# Elastic Compliance Matrix: (Units=1/GPa)
#
#
# Indices 1 2 3 4 5 6 
#
# 1 0.006734 -0.003741 -0.001088 0.000000 0.000000 0.000000
# 2 -0.003741 0.008893 0.000606 0.000000 0.000000 0.000000
# 3 -0.001088 0.000606 0.032389 0.000000 0.000000 0.000000
# 4 0.000000 0.000000 0.000000 0.048192 0.000000 0.000000
# 5 0.000000 0.000000 0.000000 0.000000 0.039707 0.000000
# 6 0.000000 0.000000 0.000000 0.000000 0.000000 0.022329
#
#
# Mechanical properties :
#
#
# Convention : Reuss Voigt Hill
#
# Bulk Modulus (GPa) = 25.27246 60.60788 42.94017
# Shear Modulus (GPa) = 27.79623 37.20137 32.49880
#
# Velocity S-wave (km/s) = 3.46840 4.01251 3.75034
# Velocity P-wave (km/s) = 5.19397 6.90632 6.11043
#
# Compressibility (1/GPa) = 0.03956877
#
# Stress axis : x y z
#
# Youngs Moduli (GPa) = 148.50031 112.44735 30.87481
#
# Poissons Ratio (x) = 0.42070 0.03360
# Poissons Ratio (y) = 0.55559 -0.01871
# Poissons Ratio (z) = 0.16159 -0.06813
#
# Static dielectric constant tensor:
#      x y z
#    x 1.989600 0.000000 0.000000 
#    y 0.000000 1.870760 0.000000 
#    z 0.000000 0.000000 2.058830 
# 
# From -- ./inp_files/23225.got.cif
#   From: 2010.05.17/outbox.cif.g08.bks.cpg/sg56_12_cif.got.tgz:23225.got - 2010.06.03 13:42:01.
