data_PCOD9432085
_publ_section_title
;
Structure prediction by ZEFSAII (Michael W. Deem and Ramdas Pophale) SiO2 
 PCOD9432085
Probable space group: P C C N
;
_chemical_formula_sum "Si O2"
_cell_formula_units_Z 56
_cell_length_a 33.194606
_cell_length_b 5.349865
_cell_length_c 14.581804
_cell_angle_alpha 90.000000
_cell_angle_beta 90.000000
_cell_angle_gamma 90.000000
_cell_volume 2589.533881
_symmetry_space_group_name_H-M "P C C N"
_symmetry_group_IT_number 56
_symmetry_cell_setting 'orthorhombic'
loop_
_space_group_symop_operation_xyz
x,y,z
1/2-x,1/2-y,z
1/2+x,-y,1/2-z
-x,1/2+y,1/2-z
-x,-y,-z
1/2+x,1/2+y,-z
1/2-x,y,1/2+z
x,1/2-y,1/2+z
loop_
_atom_site_type_symbol
_atom_site_label
_atom_site_fract_x
_atom_site_fract_y
_atom_site_fract_z
Si Si1 0.140976 0.089939 0.316310
Si Si2 0.942851 0.378996 0.552880
Si Si3 0.771425 0.498595 0.483157
Si Si4 0.772346 0.501443 0.264019
Si Si5 0.491734 0.772157 0.101335
Si Si6 0.143856 0.586212 0.430984
Si Si7 0.552913 0.069273 0.227463
O O1 0.145142 0.372227 0.352913
O O2 0.180226 0.022467 0.256831
O O3 0.143399 0.872241 0.394467
O O4 0.096010 0.069996 0.273440
O O5 0.963223 0.171046 0.486487
O O6 0.898741 0.445951 0.518441
O O7 0.938541 0.301855 0.659541
O O8 0.972461 0.611227 0.557262
O O9 0.750000 0.250000 0.518965
O O10 0.767627 0.500095 0.373592
O O11 0.817793 0.473834 0.508423
O O12 0.750000 0.750000 0.517513
O O13 0.750000 0.250000 0.230037
O O14 0.750000 0.750000 0.228816
O O15 0.462486 0.620891 0.170688
O O16 0.515110 0.950936 0.171929
#
# Coordination Sequence:
#
# PCOD9432085 Si02
#       7
#     8   8   8   8   8   8   8
#     4  11  24  39  64  92 128 159 207 267 305 377
#     4  10  23  39  61  90 125 165 212 263 313 384
#     4  10  22  40  63  88 125 163 206 254 311 385
#     4  10  22  41  63  91 125 164 207 254 313 382
#     4  11  21  40  64  86 125 170 207 263 323 376
#     4  11  23  41  61  94 126 159 210 261 312 373
#     4  11  22  40  62  93 126 165 217 262 319 385
#
# _framework density 21.625513999999999
#
# number of rings (size 3 to 8) (size 9 to 14) (size 15 to 20)
#    0.000    1.429    2.857    2.143    2.000    3.429 
#    0.000    0.000    6.286    0.000    0.000    0.000 
#    0.000    0.000    0.000    0.000    0.000    0.000 
#
# Total GULP energy -312291.789835 kJ/mol
# GULP energy per Si atom -5576.639104 kJ/mol
# Density = 2.157629 g / cm^3
# Si number density = 21.625514 Si / 1000 Ang^3
#
#
#
# Elastic Constant Matrix: (Units=GPa)
#
#
# Indices 1 2 3 4 5 6 
#
# 1 142.1741 31.9177 29.3128 0.0000 0.0000 0.0000
# 2 31.9177 81.3906 15.7953 0.0000 0.0000 0.0000
# 3 29.3128 15.7953 69.0454 0.0000 0.0000 0.0000
# 4 0.0000 0.0000 0.0000 29.2274 0.0000 0.0000
# 5 0.0000 0.0000 0.0000 0.0000 31.8235 0.0000
# 6 0.0000 0.0000 0.0000 0.0000 0.0000 33.5950
#
#
#
# Elastic Compliance Matrix: (Units=1/GPa)
#
#
# Indices 1 2 3 4 5 6 
#
# 1 0.008227 -0.002667 -0.002883 0.000000 0.000000 0.000000
# 2 -0.002667 0.013722 -0.002007 0.000000 0.000000 0.000000
# 3 -0.002883 -0.002007 0.016166 0.000000 0.000000 0.000000
# 4 0.000000 0.000000 0.000000 0.034214 0.000000 0.000000
# 5 0.000000 0.000000 0.000000 0.000000 0.031423 0.000000
# 6 0.000000 0.000000 0.000000 0.000000 0.000000 0.029766
#
#
# Mechanical properties :
#
#
# Convention : Reuss Voigt Hill
#
# Bulk Modulus (GPa) = 43.47428 49.62907 46.55168
# Shear Modulus (GPa) = 31.99017 33.30148 32.64583
#
# Velocity S-wave (km/s) = 3.85031 3.92843 3.88957
# Velocity P-wave (km/s) = 6.31771 6.60121 6.46101
#
# Compressibility (1/GPa) = 0.02300210
#
# Stress axis : x y z
#
# Youngs Moduli (GPa) = 121.55689 72.87742 61.85788
#
# Poissons Ratio (x) = 0.19434 0.17831
# Poissons Ratio (y) = 0.32416 0.12414
# Poissons Ratio (z) = 0.35039 0.14626
#
# Static dielectric constant tensor:
#      x y z
#    x 1.847230 0.000000 0.000000 
#    y 0.000000 1.853340 0.000000 
#    z 0.000000 0.000000 1.800140 
# 
# From -- ./inp_files/13473.got.cif
#   From: 2010.05.17/outbox.cif.g08.bks.cpg/sg56_7_cif.got.tgz:13473.got - 2010.06.03 13:42:01.
