data_PCOD9432908
_publ_section_title
;
Structure prediction by ZEFSAII (Michael W. Deem and Ramdas Pophale) SiO2 
 PCOD9432908
Probable space group: P C C N
;
_chemical_formula_sum "Si O2"
_cell_formula_units_Z 36
_cell_length_a 5.125665
_cell_length_b 16.320049
_cell_length_c 19.875330
_cell_angle_alpha 90.000000
_cell_angle_beta 90.000000
_cell_angle_gamma 90.000000
_cell_volume 1662.593296
_symmetry_space_group_name_H-M "P C C N"
_symmetry_group_IT_number 56
_symmetry_cell_setting 'orthorhombic'
loop_
_space_group_symop_operation_xyz
x,y,z
1/2-x,1/2-y,z
1/2+x,-y,1/2-z
-x,1/2+y,1/2-z
-x,-y,-z
1/2+x,1/2+y,-z
1/2-x,y,1/2+z
x,1/2-y,1/2+z
loop_
_atom_site_type_symbol
_atom_site_label
_atom_site_fract_x
_atom_site_fract_y
_atom_site_fract_z
Si Si1 0.349608 0.459438 0.936471
Si Si2 0.988241 0.198809 0.862721
Si Si3 0.121353 0.870533 0.886219
Si Si4 0.250000 0.750000 0.269792
Si Si5 0.617985 0.836567 0.970958
O O1 0.502742 0.389888 0.895581
O O2 0.292117 0.534308 0.886591
O O3 0.500000 0.500000 0.000000
O O4 0.121348 0.405517 0.970988
O O5 0.250000 0.250000 0.870948
O O6 0.750000 0.250000 0.894261
O O7 0.933363 0.201269 0.782599
O O8 0.127675 0.818159 0.818428
O O9 0.336276 0.832651 0.937330
O O10 0.829471 0.865744 0.915239
O O11 0.750000 0.750000 0.991289
#
# Coordination Sequence:
#
# PCOD9432908 Si02
#       5
#     8   8   8   4   8
#     4  10  24  43  65 103 133 167 223 282 338 391
#     4  10  25  45  69  95 134 180 220 272 335 401
#     4  11  23  40  67  97 127 175 218 276 322 396
#     4  10  24  46  68  90 136 178 230 256 338 410
#     4  11  21  38  67  95 133 170 217 270 337 392
#
# _framework density 21.652920000000002
#
# number of rings (size 3 to 8) (size 9 to 14) (size 15 to 20)
#    0.667    0.889    2.222    1.333    3.111   10.667 
#    4.000    0.000    0.000    0.000    0.000    0.000 
#    0.000    0.000    0.000    0.000    0.000    0.000 
#
# Total GULP energy -200804.605996 kJ/mol
# GULP energy per Si atom -5577.905722 kJ/mol
# Density = 2.160364 g / cm^3
# Si number density = 21.652920 Si / 1000 Ang^3
#
#
#
# Elastic Constant Matrix: (Units=GPa)
#
#
# Indices 1 2 3 4 5 6 
#
# 1 68.1259 23.0208 6.5784 0.0000 0.0000 0.0000
# 2 23.0208 188.9771 61.8644 0.0000 0.0000 0.0000
# 3 6.5784 61.8644 115.8381 0.0000 0.0000 0.0000
# 4 0.0000 0.0000 0.0000 48.1731 0.0000 0.0000
# 5 0.0000 0.0000 0.0000 0.0000 -12.5177 0.0000
# 6 0.0000 0.0000 0.0000 0.0000 0.0000 28.3477
#
#
#
# Elastic Compliance Matrix: (Units=1/GPa)
#
#
# Indices 1 2 3 4 5 6 
#
# 1 0.015311 -0.001915 0.000153 0.000000 0.000000 0.000000
# 2 -0.001915 0.006652 -0.003444 0.000000 0.000000 0.000000
# 3 0.000153 -0.003444 0.010463 0.000000 0.000000 0.000000
# 4 0.000000 0.000000 0.000000 0.020758 0.000000 0.000000
# 5 0.000000 0.000000 0.000000 0.000000 -0.079887 0.000000
# 6 0.000000 0.000000 0.000000 0.000000 0.000000 0.035276
#
#
# Mechanical properties :
#
#
# Convention : Reuss Voigt Hill
#
# Bulk Modulus (GPa) = 45.42378 61.76316 53.59347
# Shear Modulus (GPa) = 189.93186 31.56577 110.74882
#
# Velocity S-wave (km/s) = 9.37587 3.82227 7.15949
# Velocity P-wave (km/s) = 11.75725 6.93294 9.65139
#
# Compressibility (1/GPa) = 0.02201490
#
# Stress axis : x y z
#
# Youngs Moduli (GPa) = 65.31199 150.32119 95.57187
#
# Poissons Ratio (x) = 0.28792 -0.01466
# Poissons Ratio (y) = 0.12510 0.32915
# Poissons Ratio (z) = -0.01002 0.51771
#
# Static dielectric constant tensor:
#      x y z
#    x 1.806190 0.000000 0.000000 
#    y 0.000000 1.826810 0.000000 
#    z 0.000000 0.000000 1.820360 
# 
# From -- ./inp_files/17422.got.cif
#   From: 2010.05.17/outbox.cif.g08.bks.cpg/sg56_9_cif.got.tgz:17422.got - 2010.06.03 13:42:01.
