data_PCOD9432895
_publ_section_title
;
Structure prediction by ZEFSAII (Michael W. Deem and Ramdas Pophale) SiO2 
 PCOD9432895
Probable space group: P C C N
;
_chemical_formula_sum "Si O2"
_cell_formula_units_Z 36
_cell_length_a 8.682395
_cell_length_b 8.546996
_cell_length_c 22.676863
_cell_angle_alpha 90.000000
_cell_angle_beta 90.000000
_cell_angle_gamma 90.000000
_cell_volume 1682.813614
_symmetry_space_group_name_H-M "P C C N"
_symmetry_group_IT_number 56
_symmetry_cell_setting 'orthorhombic'
loop_
_space_group_symop_operation_xyz
x,y,z
1/2-x,1/2-y,z
1/2+x,-y,1/2-z
-x,1/2+y,1/2-z
-x,-y,-z
1/2+x,1/2+y,-z
1/2-x,y,1/2+z
x,1/2-y,1/2+z
loop_
_atom_site_type_symbol
_atom_site_label
_atom_site_fract_x
_atom_site_fract_y
_atom_site_fract_z
Si Si1 0.014149 0.580264 0.824101
Si Si2 0.250000 0.250000 0.533720
Si Si3 0.698760 0.582070 0.579694
Si Si4 0.696755 0.070894 0.292669
Si Si5 0.503721 0.404650 0.117761
O O1 0.840581 0.540751 0.806520
O O2 0.038044 0.762636 0.837673
O O3 0.060068 0.488548 0.883312
O O4 0.123902 0.531935 0.770529
O O5 0.327777 0.373941 0.488524
O O6 0.122506 0.336071 0.572702
O O7 0.750000 0.750000 0.606192
O O8 0.842944 0.465049 0.586295
O O9 0.750000 0.250000 0.293005
O O10 0.571510 0.041195 0.343470
#
# Coordination Sequence:
#
# PCOD9432895 Si02
#       5
#     8   4   8   8   8
#     4  12  24  44  68 104 133 182 222 291 348 422
#     4  10  24  46  70 100 136 192 226 298 326 418
#     4  10  24  42  70  97 139 177 235 276 343 403
#     4  12  25  41  69  99 139 174 229 281 357 418
#     4  12  23  48  68 101 141 182 232 284 351 414
#
# _framework density 21.392741999999998
#
# number of rings (size 3 to 8) (size 9 to 14) (size 15 to 20)
#    0.667    0.000    2.222    6.667    0.000    2.667 
#    0.000    0.000    0.000    0.000    0.000    0.000 
#    0.000    0.000    0.000    0.000    0.000    0.000 
#
# Total GULP energy -201387.361467 kJ/mol
# GULP energy per Si atom -5594.093374 kJ/mol
# Density = 2.134405 g / cm^3
# Si number density = 21.392742 Si / 1000 Ang^3
#
#
#
# Elastic Constant Matrix: (Units=GPa)
#
#
# Indices 1 2 3 4 5 6 
#
# 1 47.0472 -7.2478 34.3861 0.0000 0.0000 0.0000
# 2 -7.2478 46.5950 4.3174 0.0000 0.0000 0.0000
# 3 34.3861 4.3174 125.3115 0.0000 0.0000 0.0000
# 4 0.0000 0.0000 0.0000 24.8211 0.0000 0.0000
# 5 0.0000 0.0000 0.0000 0.0000 30.5108 0.0000
# 6 0.0000 0.0000 0.0000 0.0000 0.0000 40.4958
#
#
#
# Elastic Compliance Matrix: (Units=1/GPa)
#
#
# Indices 1 2 3 4 5 6 
#
# 1 0.027716 0.005032 -0.007779 0.000000 0.000000 0.000000
# 2 0.005032 0.022444 -0.002154 0.000000 0.000000 0.000000
# 3 -0.007779 -0.002154 0.010189 0.000000 0.000000 0.000000
# 4 0.000000 0.000000 0.000000 0.040288 0.000000 0.000000
# 5 0.000000 0.000000 0.000000 0.000000 0.032775 0.000000
# 6 0.000000 0.000000 0.000000 0.000000 0.000000 0.024694
#
#
# Mechanical properties :
#
#
# Convention : Reuss Voigt Hill
#
# Bulk Modulus (GPa) = 19.78369 31.31835 25.55102
# Shear Modulus (GPa) = 27.06265 31.66542 29.36403
#
# Velocity S-wave (km/s) = 3.56060 3.85150 3.70890
# Velocity P-wave (km/s) = 5.11583 5.86943 5.50554
#
# Compressibility (1/GPa) = 0.05054670
#
# Stress axis : x y z
#
# Youngs Moduli (GPa) = 36.08058 44.55571 98.14668
#
# Poissons Ratio (x) = -0.22420 0.76345
# Poissons Ratio (y) = -0.18155 0.21141
# Poissons Ratio (z) = 0.28066 0.09597
#
# Static dielectric constant tensor:
#      x y z
#    x 1.761430 0.000000 0.000000 
#    y 0.000000 1.773050 0.000000 
#    z 0.000000 0.000000 1.747090 
# 
# From -- ./inp_files/17884.got.cif
#   From: 2010.05.17/outbox.cif.g08.bks.cpg/sg56_9_cif.got.tgz:17884.got - 2010.06.03 13:42:01.
