data_PCOD9432905
_publ_section_title
;
Structure prediction by ZEFSAII (Michael W. Deem and Ramdas Pophale) SiO2 
 PCOD9432905
Probable space group: P C C N
;
_chemical_formula_sum "Si O2"
_cell_formula_units_Z 20
_cell_length_a 9.380809
_cell_length_b 4.527735
_cell_length_c 17.659008
_cell_angle_alpha 90.000000
_cell_angle_beta 90.000000
_cell_angle_gamma 90.000000
_cell_volume 750.045478
_symmetry_space_group_name_H-M "P C C N"
_symmetry_group_IT_number 56
_symmetry_cell_setting 'orthorhombic'
loop_
_space_group_symop_operation_xyz
x,y,z
1/2-x,1/2-y,z
1/2+x,-y,1/2-z
-x,1/2+y,1/2-z
-x,-y,-z
1/2+x,1/2+y,-z
1/2-x,y,1/2+z
x,1/2-y,1/2+z
loop_
_atom_site_type_symbol
_atom_site_label
_atom_site_fract_x
_atom_site_fract_y
_atom_site_fract_z
Si Si1 0.750000 0.250000 0.925994
Si Si2 0.085624 0.791907 0.282299
Si Si3 0.952346 0.721412 0.933857
O O1 0.639458 0.495428 0.962324
O O2 0.849722 0.491344 0.887648
O O3 0.250000 0.750000 0.261443
O O4 0.960586 0.624341 0.236502
O O5 0.067738 0.703068 0.370870
O O6 0.000000 0.500000 0.000000
#
# Coordination Sequence:
#
# PCOD9432905 Si02
#       3
#     4   8   8
#     4  10  24  42  76 108 152 198 264 326 418 462
#     4  12  29  49  80 113 158 209 269 331 413 494
#     4  11  25  47  78 108 158 207 272 335 409 488
#
# _framework density 26.665050000000001
#
# number of rings (size 3 to 8) (size 9 to 14) (size 15 to 20)
#    0.000    0.800    0.000    4.800   19.600    0.000 
#    7.200    0.000    0.000    0.000    0.000    0.000 
#    0.000    0.000    0.000    0.000    0.000    0.000 
#
# Total GULP energy -111352.086201 kJ/mol
# GULP energy per Si atom -5567.604310 kJ/mol
# Density = 2.660436 g / cm^3
# Si number density = 26.665050 Si / 1000 Ang^3
#
#
#
# Elastic Constant Matrix: (Units=GPa)
#
#
# Indices 1 2 3 4 5 6 
#
# 1 157.5533 52.7126 44.6190 0.0000 0.0000 0.0000
# 2 52.7126 176.0203 26.1475 0.0000 0.0000 0.0000
# 3 44.6190 26.1475 156.5584 0.0000 0.0000 0.0000
# 4 0.0000 0.0000 0.0000 25.7109 0.0000 0.0000
# 5 0.0000 0.0000 0.0000 0.0000 -7.3645 0.0000
# 6 0.0000 0.0000 0.0000 0.0000 0.0000 61.7703
#
#
#
# Elastic Compliance Matrix: (Units=1/GPa)
#
#
# Indices 1 2 3 4 5 6 
#
# 1 0.007524 -0.001984 -0.001813 0.000000 0.000000 0.000000
# 2 -0.001984 0.006349 -0.000495 0.000000 0.000000 0.000000
# 3 -0.001813 -0.000495 0.006987 0.000000 0.000000 0.000000
# 4 0.000000 0.000000 0.000000 0.038894 0.000000 0.000000
# 5 0.000000 0.000000 0.000000 0.000000 -0.135786 0.000000
# 6 0.000000 0.000000 0.000000 0.000000 0.000000 0.016189
#
#
# Mechanical properties :
#
#
# Convention : Reuss Voigt Hill
#
# Bulk Modulus (GPa) = 81.45982 81.89892 81.67937
# Shear Modulus (GPa) = -106.00521 40.46687 -32.76917
#
# Velocity S-wave (km/s) = -6.31195 3.89986 -3.50940
# Velocity P-wave (km/s) = 4.74397 7.14557 3.77849
#
# Compressibility (1/GPa) = 0.01227599
#
# Stress axis : x y z
#
# Youngs Moduli (GPa) = 132.90290 157.50967 143.12763
#
# Poissons Ratio (x) = 0.31249 0.25950
# Poissons Ratio (y) = 0.26367 0.07084
# Poissons Ratio (z) = 0.24096 0.07795
#
# Static dielectric constant tensor:
#      x y z
#    x 2.283330 0.000000 0.000000 
#    y 0.000000 2.009600 0.000000 
#    z 0.000000 0.000000 2.225480 
# 
# From -- ./inp_files/14217.got.cif
#   From: 2010.05.17/outbox.cif.g08.bks.cpg/sg56_8_cif.got.tgz:14217.got - 2010.06.03 13:42:01.
