data_PCOD9432020
_publ_section_title
;
Structure prediction by ZEFSAII (Michael W. Deem and Ramdas Pophale) SiO2 
 PCOD9432020
Probable space group: P C C N
;
_chemical_formula_sum "Si O2"
_cell_formula_units_Z 60
_cell_length_a 18.022622
_cell_length_b 14.367006
_cell_length_c 10.334547
_cell_angle_alpha 90.000000
_cell_angle_beta 90.000000
_cell_angle_gamma 90.000000
_cell_volume 2675.935813
_symmetry_space_group_name_H-M "P C C N"
_symmetry_group_IT_number 56
_symmetry_cell_setting 'orthorhombic'
loop_
_space_group_symop_operation_xyz
x,y,z
1/2-x,1/2-y,z
1/2+x,-y,1/2-z
-x,1/2+y,1/2-z
-x,-y,-z
1/2+x,1/2+y,-z
1/2-x,y,1/2+z
x,1/2-y,1/2+z
loop_
_atom_site_type_symbol
_atom_site_label
_atom_site_fract_x
_atom_site_fract_y
_atom_site_fract_z
Si Si1 0.044297 0.365840 0.897532
Si Si2 0.750000 0.250000 0.086555
Si Si3 0.178819 0.391711 0.495757
Si Si4 0.702677 0.889463 0.207069
Si Si5 0.350637 0.592543 0.309971
Si Si6 0.487953 0.436620 0.662051
Si Si7 0.019855 0.337476 0.435654
Si Si8 0.132525 0.599305 0.507770
O O1 0.121550 0.348488 0.823756
O O2 0.001514 0.268828 0.900600
O O3 0.998632 0.451913 0.836223
O O4 0.062140 0.400546 0.044435
O O5 0.800414 0.319494 0.167449
O O6 0.691798 0.318795 0.015763
O O7 0.231305 0.353308 0.382759
O O8 0.215641 0.387187 0.638532
O O9 0.099348 0.341471 0.504052
O O10 0.158897 0.499065 0.458926
O O11 0.690902 0.996870 0.161214
O O12 0.429405 0.598142 0.380308
O O13 0.371584 0.585495 0.161051
O O14 0.470362 0.394396 0.801400
O O15 0.952794 0.376052 0.523892
#
# Coordination Sequence:
#
# PCOD9432020 Si02
#       8
#     8   4   8   8   8   8   8   8
#     4  10  22  42  67  97 136 182 229 291 344 427
#     4  12  18  34  62  94 132 180 224 270 352 412
#     4  11  24  45  69  98 137 181 232 293 352 417
#     4  10  23  43  67  92 133 174 227 287 348 407
#     4   9  19  37  56  91 130 170 219 280 330 419
#     4   9  21  43  65  94 139 178 231 284 353 416
#     4  11  24  42  69 102 136 182 236 291 351 422
#     4  10  22  39  61  97 136 172 226 287 346 418
#
# _framework density 22.422063000000001
#
# number of rings (size 3 to 8) (size 9 to 14) (size 15 to 20)
#    0.000    1.867    1.333    2.400    3.733    0.533 
#    4.800    1.333    0.000    0.000    0.000    0.000 
#    0.000    0.000    0.000    0.000    0.000    0.000 
#
# Total GULP energy -334982.174098 kJ/mol
# GULP energy per Si atom -5583.036235 kJ/mol
# Density = 2.237103 g / cm^3
# Si number density = 22.422063 Si / 1000 Ang^3
#
#
#
# Elastic Constant Matrix: (Units=GPa)
#
#
# Indices 1 2 3 4 5 6 
#
# 1 75.7817 11.8570 38.6303 0.0000 0.0000 0.0000
# 2 11.8570 90.9517 22.5337 0.0000 0.0000 0.0000
# 3 38.6303 22.5337 70.4409 0.0000 0.0000 0.0000
# 4 0.0000 0.0000 0.0000 10.9526 0.0000 0.0000
# 5 0.0000 0.0000 0.0000 0.0000 31.5284 0.0000
# 6 0.0000 0.0000 0.0000 0.0000 0.0000 60.8417
#
#
#
# Elastic Compliance Matrix: (Units=1/GPa)
#
#
# Indices 1 2 3 4 5 6 
#
# 1 0.018317 0.000110 -0.010080 0.000000 0.000000 0.000000
# 2 0.000110 0.011942 -0.003880 0.000000 0.000000 0.000000
# 3 -0.010080 -0.003880 0.020966 0.000000 0.000000 0.000000
# 4 0.000000 0.000000 0.000000 0.091303 0.000000 0.000000
# 5 0.000000 0.000000 0.000000 0.000000 0.031717 0.000000
# 6 0.000000 0.000000 0.000000 0.000000 0.000000 0.016436
#
#
# Mechanical properties :
#
#
# Convention : Reuss Voigt Hill
#
# Bulk Modulus (GPa) = 42.51206 42.57959 42.54582
# Shear Modulus (GPa) = 22.10198 31.60808 26.85503
#
# Velocity S-wave (km/s) = 3.14303 3.75865 3.46454
# Velocity P-wave (km/s) = 5.67209 6.15369 5.91779
#
# Compressibility (1/GPa) = 0.02352274
#
# Stress axis : x y z
#
# Youngs Moduli (GPa) = 54.59350 83.73867 47.69698
#
# Poissons Ratio (x) = -0.00917 0.48080
# Poissons Ratio (y) = -0.00598 0.18507
# Poissons Ratio (z) = 0.55032 0.32492
#
# Static dielectric constant tensor:
#      x y z
#    x 1.940750 0.000000 0.000000 
#    y 0.000000 1.895220 0.000000 
#    z 0.000000 0.000000 1.821020 
# 
# From -- ./inp_files/8396.got.cif
#   From: 2010.05.17/outbox.cif.g08.bks.cpg/sg56_5_cif.got.tgz:8396.got - 2010.06.03 13:42:01.
