data_PCOD9432130
_publ_section_title
;
Structure prediction by ZEFSAII (Michael W. Deem and Ramdas Pophale) SiO2 
 PCOD9432130
Probable space group: P C C N
;
_chemical_formula_sum "Si O2"
_cell_formula_units_Z 32
_cell_length_a 9.469711
_cell_length_b 14.002006
_cell_length_c 8.575991
_cell_angle_alpha 90.000000
_cell_angle_beta 90.000000
_cell_angle_gamma 90.000000
_cell_volume 1137.133100
_symmetry_space_group_name_H-M "P C C N"
_symmetry_group_IT_number 56
_symmetry_cell_setting 'orthorhombic'
loop_
_space_group_symop_operation_xyz
x,y,z
1/2-x,1/2-y,z
1/2+x,-y,1/2-z
-x,1/2+y,1/2-z
-x,-y,-z
1/2+x,1/2+y,-z
1/2-x,y,1/2+z
x,1/2-y,1/2+z
loop_
_atom_site_type_symbol
_atom_site_label
_atom_site_fract_x
_atom_site_fract_y
_atom_site_fract_z
Si Si1 0.750000 0.750000 0.050199
Si Si2 0.899559 0.619564 0.299484
Si Si3 0.897994 0.127938 0.631713
Si Si4 0.250000 0.750000 0.107012
Si Si5 0.644372 0.495886 0.333367
O O1 0.851138 0.685256 0.156626
O O2 0.651763 0.679391 0.948104
O O3 0.802203 0.525423 0.295776
O O4 0.057104 0.578386 0.275643
O O5 0.871054 0.214318 0.510133
O O6 0.816968 0.168798 0.782784
O O7 0.055360 0.095101 0.675792
O O8 0.856193 0.043587 0.509250
#
# Coordination Sequence:
#
# PCOD9432130 Si02
#       5
#     4   8   8   4   8
#     4  10  24  46  70 100 140 188 230 288 360 418
#     4  11  25  46  71  99 140 186 236 287 351 418
#     4  10  22  40  67  99 134 169 223 283 342 403
#     4  10  22  42  70 100 132 176 224 284 346 414
#     4  11  24  43  68 101 138 179 232 289 340 415
#
# _framework density 28.140947000000001
#
# number of rings (size 3 to 8) (size 9 to 14) (size 15 to 20)
#    0.000    1.500    0.000    4.500    0.000    9.000 
#    0.000    2.500    0.000   18.000    0.000    0.000 
#    0.000    0.000    0.000    0.000    0.000    0.000 
#
# Total GULP energy -179348.367188 kJ/mol
# GULP energy per Si atom -5604.636475 kJ/mol
# Density = 2.807690 g / cm^3
# Si number density = 28.140947 Si / 1000 Ang^3
#
#
#
# Elastic Constant Matrix: (Units=GPa)
#
#
# Indices 1 2 3 4 5 6 
#
# 1 72.6655 3.2603 -11.9818 0.0000 0.0000 0.0000
# 2 3.2603 135.6658 10.5616 0.0000 0.0000 0.0000
# 3 -11.9818 10.5616 71.9440 0.0000 0.0000 0.0000
# 4 0.0000 0.0000 0.0000 51.4241 0.0000 0.0000
# 5 0.0000 0.0000 0.0000 0.0000 29.3451 0.0000
# 6 0.0000 0.0000 0.0000 0.0000 0.0000 59.7224
#
#
#
# Elastic Compliance Matrix: (Units=1/GPa)
#
#
# Indices 1 2 3 4 5 6 
#
# 1 0.014188 -0.000531 0.002441 0.000000 0.000000 0.000000
# 2 -0.000531 0.007476 -0.001186 0.000000 0.000000 0.000000
# 3 0.002441 -0.001186 0.014480 0.000000 0.000000 0.000000
# 4 0.000000 0.000000 0.000000 0.019446 0.000000 0.000000
# 5 0.000000 0.000000 0.000000 0.000000 0.034077 0.000000
# 6 0.000000 0.000000 0.000000 0.000000 0.000000 0.016744
#
#
# Mechanical properties :
#
#
# Convention : Reuss Voigt Hill
#
# Bulk Modulus (GPa) = 26.60121 31.55063 29.07592
# Shear Modulus (GPa) = 42.55507 46.66067 44.60787
#
# Velocity S-wave (km/s) = 3.89294 4.07640 3.98572
# Velocity P-wave (km/s) = 5.44793 5.77859 5.61569
#
# Compressibility (1/GPa) = 0.03759228
#
# Stress axis : x y z
#
# Youngs Moduli (GPa) = 70.48214 133.75888 69.05930
#
# Poissons Ratio (x) = 0.07102 -0.16856
# Poissons Ratio (y) = 0.03743 0.08190
# Poissons Ratio (z) = -0.17204 0.15863
#
# Static dielectric constant tensor:
#      x y z
#    x 2.224420 0.000000 0.000000 
#    y 0.000000 2.366620 0.000000 
#    z 0.000000 0.000000 2.135950 
# 
# From -- ./inp_files/2468.got.cif
#   From: 2010.05.17/outbox.cif.g08.bks.cpg/sg56_2_cif.got.tgz:2468.got - 2010.06.03 13:42:01.
