data_PCOD9432191
_publ_section_title
;
Structure prediction by ZEFSAII (Michael W. Deem and Ramdas Pophale) SiO2 
 PCOD9432191
Probable space group: P C C N
;
_chemical_formula_sum "Si O2"
_cell_formula_units_Z 56
_cell_length_a 21.383892
_cell_length_b 9.422568
_cell_length_c 14.228184
_cell_angle_alpha 90.000000
_cell_angle_beta 90.000000
_cell_angle_gamma 90.000000
_cell_volume 2866.853533
_symmetry_space_group_name_H-M "P C C N"
_symmetry_group_IT_number 56
_symmetry_cell_setting 'orthorhombic'
loop_
_space_group_symop_operation_xyz
x,y,z
1/2-x,1/2-y,z
1/2+x,-y,1/2-z
-x,1/2+y,1/2-z
-x,-y,-z
1/2+x,1/2+y,-z
1/2-x,y,1/2+z
x,1/2-y,1/2+z
loop_
_atom_site_type_symbol
_atom_site_label
_atom_site_fract_x
_atom_site_fract_y
_atom_site_fract_z
Si Si1 0.093476 0.211847 0.971695
Si Si2 0.303561 0.526595 0.008187
Si Si3 0.992076 0.175514 0.130399
Si Si4 0.868598 0.244103 0.851855
Si Si5 0.007084 0.358559 0.305191
Si Si6 0.839191 0.006518 0.493940
Si Si7 0.150638 0.755285 0.866907
O O1 0.064205 0.197201 0.868200
O O2 0.037015 0.171297 0.041564
O O3 0.119093 0.367733 0.994342
O O4 0.149070 0.100522 0.987704
O O5 0.329607 0.623209 0.093470
O O6 0.233545 0.473664 0.025035
O O7 0.304867 0.633706 0.919294
O O8 0.011940 0.301941 0.199650
O O9 0.919870 0.197972 0.104424
O O10 0.995409 0.027810 0.186405
O O11 0.861727 0.388086 0.911313
O O12 0.845030 0.259645 0.745054
O O13 0.941229 0.200393 0.844634
O O14 0.841655 0.100031 0.589102
#
# Coordination Sequence:
#
# PCOD9432191 Si02
#       7
#     8   8   8   8   8   8   8
#     4  12  24  40  64  89 130 161 194 255 310 355
#     4  11  22  43  61  87 126 164 208 245 296 359
#     4  11  24  41  66  94 123 157 200 252 313 366
#     4  10  22  41  66  90 120 157 206 254 304 358
#     4  11  24  41  66  94 123 157 200 252 313 366
#     4  11  26  38  61  94 119 166 210 245 291 365
#     4  10  22  41  66  90 120 157 206 254 304 358
#
# _framework density 19.533609999999999
#
# number of rings (size 3 to 8) (size 9 to 14) (size 15 to 20)
#    0.000    1.143    2.857    4.286    8.000    3.429 
#    0.000    0.000    0.000    5.143    0.000    0.000 
#    0.000    0.000    0.000    0.000    0.000    0.000 
#
# Total GULP energy -313181.559188 kJ/mol
# GULP energy per Si atom -5592.527843 kJ/mol
# Density = 1.948915 g / cm^3
# Si number density = 19.533610 Si / 1000 Ang^3
#
#
#
# Elastic Constant Matrix: (Units=GPa)
#
#
# Indices 1 2 3 4 5 6 
#
# 1 57.3510 -0.7285 -12.0212 0.0000 0.0000 0.0000
# 2 -0.7285 68.8707 13.2111 0.0000 0.0000 0.0000
# 3 -12.0212 13.2111 48.5973 0.0000 0.0000 0.0000
# 4 0.0000 0.0000 0.0000 19.3064 0.0000 0.0000
# 5 0.0000 0.0000 0.0000 0.0000 -17.4944 0.0000
# 6 0.0000 0.0000 0.0000 0.0000 0.0000 33.3468
#
#
#
# Elastic Compliance Matrix: (Units=1/GPa)
#
#
# Indices 1 2 3 4 5 6 
#
# 1 0.018423 -0.000717 0.004752 0.000000 0.000000 0.000000
# 2 -0.000717 0.015347 -0.004349 0.000000 0.000000 0.000000
# 3 0.004752 -0.004349 0.022935 0.000000 0.000000 0.000000
# 4 0.000000 0.000000 0.000000 0.051796 0.000000 0.000000
# 5 0.000000 0.000000 0.000000 0.000000 -0.057161 0.000000
# 6 0.000000 0.000000 0.000000 0.000000 0.000000 0.029988
#
#
# Mechanical properties :
#
#
# Convention : Reuss Voigt Hill
#
# Bulk Modulus (GPa) = 17.83243 19.52687 18.67965
# Shear Modulus (GPa) = 49.67791 18.65561 34.16676
#
# Velocity S-wave (km/s) = 5.04849 3.09374 4.18679
# Velocity P-wave (km/s) = 6.56749 4.77283 5.74072
#
# Compressibility (1/GPa) = 0.05607762
#
# Stress axis : x y z
#
# Youngs Moduli (GPa) = 54.27858 65.16070 43.60126
#
# Poissons Ratio (x) = 0.04670 -0.20720
# Poissons Ratio (y) = 0.03890 0.18963
# Poissons Ratio (z) = -0.25794 0.28340
#
# Static dielectric constant tensor:
#      x y z
#    x 1.680960 0.000000 0.000000 
#    y 0.000000 1.662930 0.000000 
#    z 0.000000 0.000000 1.674820 
# 
# From -- ./inp_files/10868.got.cif
#   From: 2010.05.17/outbox.cif.g08.bks.cpg/sg56_6_cif.got.tgz:10868.got - 2010.06.03 13:42:01.
