data_PCOD9432689
_publ_section_title
;
Structure prediction by ZEFSAII (Michael W. Deem and Ramdas Pophale) SiO2 
 PCOD9432689
Probable space group: P C C N
;
_chemical_formula_sum "Si O2"
_cell_formula_units_Z 40
_cell_length_a 9.688446
_cell_length_b 10.403861
_cell_length_c 18.061439
_cell_angle_alpha 90.000000
_cell_angle_beta 90.000000
_cell_angle_gamma 90.000000
_cell_volume 1820.543301
_symmetry_space_group_name_H-M "P C C N"
_symmetry_group_IT_number 56
_symmetry_cell_setting 'orthorhombic'
loop_
_space_group_symop_operation_xyz
x,y,z
1/2-x,1/2-y,z
1/2+x,-y,1/2-z
-x,1/2+y,1/2-z
-x,-y,-z
1/2+x,1/2+y,-z
1/2-x,y,1/2+z
x,1/2-y,1/2+z
loop_
_atom_site_type_symbol
_atom_site_label
_atom_site_fract_x
_atom_site_fract_y
_atom_site_fract_z
Si Si1 0.093471 0.616892 0.127640
Si Si2 0.200384 0.027289 0.326358
Si Si3 0.250000 0.750000 0.000720
Si Si4 0.196910 0.387947 0.659979
Si Si5 0.925696 0.037940 0.075928
Si Si6 0.250000 0.750000 0.255542
O O1 0.130457 0.697056 0.054838
O O2 0.204016 0.500772 0.130338
O O3 0.128436 0.704669 0.199496
O O4 0.941070 0.560892 0.132657
O O5 0.332720 0.060521 0.376884
O O6 0.208170 0.876316 0.301602
O O7 0.202409 0.100984 0.248499
O O8 0.184904 0.858140 0.950301
O O9 0.250000 0.250000 0.635048
O O10 0.043282 0.411049 0.630592
O O11 0.000000 0.000000 0.000000
#
# Coordination Sequence:
#
# PCOD9432689 Si02
#       6
#     8   8   4   8   8   4
#     4  10  23  43  73 103 144 190 241 291 366 423
#     4  11  25  43  75 105 140 192 237 297 360 423
#     4  11  25  48  74  96 146 196 236 300 368 430
#     4  11  25  44  71 107 141 183 241 298 352 428
#     4  12  27  48  69 104 150 184 235 301 359 425
#     4   9  21  44  68 106 146 184 240 308 344 422
#
# _framework density 21.971464000000001
#
# number of rings (size 3 to 8) (size 9 to 14) (size 15 to 20)
#    0.000    1.200    2.000    3.000    8.400    4.000 
#    0.000    0.000    0.000    0.000    0.000    0.000 
#    0.000    0.000    0.000    0.000    0.000    0.000 
#
# Total GULP energy -223814.246666 kJ/mol
# GULP energy per Si atom -5595.356167 kJ/mol
# Density = 2.192146 g / cm^3
# Si number density = 21.971464 Si / 1000 Ang^3
#
#
#
# Elastic Constant Matrix: (Units=GPa)
#
#
# Indices 1 2 3 4 5 6 
#
# 1 123.9265 -3.3168 48.9034 0.0000 0.0000 0.0000
# 2 -3.3168 37.1693 12.4263 0.0000 0.0000 0.0000
# 3 48.9034 12.4263 127.5032 0.0000 0.0000 0.0000
# 4 0.0000 0.0000 0.0000 1.1871 0.0000 0.0000
# 5 0.0000 0.0000 0.0000 0.0000 8.6881 0.0000
# 6 0.0000 0.0000 0.0000 0.0000 0.0000 34.9603
#
#
#
# Elastic Compliance Matrix: (Units=1/GPa)
#
#
# Indices 1 2 3 4 5 6 
#
# 1 0.009676 0.002175 -0.003923 0.000000 0.000000 0.000000
# 2 0.002175 0.028299 -0.003592 0.000000 0.000000 0.000000
# 3 -0.003923 -0.003592 0.009698 0.000000 0.000000 0.000000
# 4 0.000000 0.000000 0.000000 0.842420 0.000000 0.000000
# 5 0.000000 0.000000 0.000000 0.000000 0.115099 0.000000
# 6 0.000000 0.000000 0.000000 0.000000 0.000000 0.028604
#
#
# Mechanical properties :
#
#
# Convention : Reuss Voigt Hill
#
# Bulk Modulus (GPa) = 27.03307 44.95831 35.99569
# Shear Modulus (GPa) = 4.73123 24.33951 14.53537
#
# Velocity S-wave (km/s) = 1.46902 3.33194 2.57487
# Velocity P-wave (km/s) = 3.89972 5.94214 5.02577
#
# Compressibility (1/GPa) = 0.03699173
#
# Stress axis : x y z
#
# Youngs Moduli (GPa) = 103.35291 35.33699 103.11742
#
# Poissons Ratio (x) = -0.07686 0.40453
# Poissons Ratio (y) = -0.22479 0.37042
# Poissons Ratio (z) = 0.40545 0.12694
#
# Static dielectric constant tensor:
#      x y z
#    x 1.768440 0.000000 0.000000 
#    y 0.000000 1.848170 0.000000 
#    z 0.000000 0.000000 1.829410 
# 
# From -- ./inp_files/14498.got.cif
#   From: 2010.05.17/outbox.cif.g08.bks.cpg/sg56_8_cif.got.tgz:14498.got - 2010.06.03 13:42:01.
