data_PCOD9432729
_publ_section_title
;
Structure prediction by ZEFSAII (Michael W. Deem and Ramdas Pophale) SiO2 
 PCOD9432729
Probable space group: P C C N
;
_chemical_formula_sum "Si O2"
_cell_formula_units_Z 32
_cell_length_a 15.136739
_cell_length_b 7.526486
_cell_length_c 9.943748
_cell_angle_alpha 90.000000
_cell_angle_beta 90.000000
_cell_angle_gamma 90.000000
_cell_volume 1132.855951
_symmetry_space_group_name_H-M "P C C N"
_symmetry_group_IT_number 56
_symmetry_cell_setting 'orthorhombic'
loop_
_space_group_symop_operation_xyz
x,y,z
1/2-x,1/2-y,z
1/2+x,-y,1/2-z
-x,1/2+y,1/2-z
-x,-y,-z
1/2+x,1/2+y,-z
1/2-x,y,1/2+z
x,1/2-y,1/2+z
loop_
_atom_site_type_symbol
_atom_site_label
_atom_site_fract_x
_atom_site_fract_y
_atom_site_fract_z
Si Si1 0.192411 0.424705 0.684261
Si Si2 0.966765 0.210991 0.993464
Si Si3 0.179077 0.550921 0.383474
Si Si4 0.000126 0.930058 0.261244
O O1 0.250000 0.250000 0.720142
O O2 0.198241 0.441869 0.521806
O O3 0.244265 0.564001 0.776843
O O4 0.091051 0.456602 0.733368
O O5 0.903360 0.975429 0.203556
O O6 0.013988 0.348714 0.090289
O O7 0.973202 0.241685 0.836434
O O8 0.000000 0.000000 0.000000
O O9 0.133374 0.719492 0.455625
#
# Coordination Sequence:
#
# PCOD9432729 Si02
#       4
#     8   8   8   8
#     4  11  24  44  69 109 150 196 257 321 386 477
#     4   9  21  44  69 104 148 198 260 309 396 473
#     4  10  24  42  70 105 152 194 254 320 389 471
#     4  10  23  44  74 105 155 201 255 327 392 478
#
# _framework density 28.247191000000001
#
# number of rings (size 3 to 8) (size 9 to 14) (size 15 to 20)
#    0.000    2.000    0.000    3.000   14.000    3.000 
#    0.000   11.250    0.000    0.000    0.000    0.000 
#    0.000    0.000    0.000    0.000    0.000    0.000 
#
# Total GULP energy -178142.885260 kJ/mol
# GULP energy per Si atom -5566.965164 kJ/mol
# Density = 2.818290 g / cm^3
# Si number density = 28.247191 Si / 1000 Ang^3
#
#
#
# Elastic Constant Matrix: (Units=GPa)
#
#
# Indices 1 2 3 4 5 6 
#
# 1 205.5362 70.3877 79.9975 0.0000 0.0000 0.0000
# 2 70.3877 68.1248 74.6484 0.0000 0.0000 0.0000
# 3 79.9975 74.6484 165.4434 0.0000 0.0000 0.0000
# 4 0.0000 0.0000 0.0000 50.8048 0.0000 0.0000
# 5 0.0000 0.0000 0.0000 0.0000 62.1348 0.0000
# 6 0.0000 0.0000 0.0000 0.0000 0.0000 43.2254
#
#
#
# Elastic Compliance Matrix: (Units=1/GPa)
#
#
# Indices 1 2 3 4 5 6 
#
# 1 0.007535 -0.007502 -0.000258 0.000000 0.000000 0.000000
# 2 -0.007502 0.036503 -0.012843 0.000000 0.000000 0.000000
# 3 -0.000258 -0.012843 0.011964 0.000000 0.000000 0.000000
# 4 0.000000 0.000000 0.000000 0.019683 0.000000 0.000000
# 5 0.000000 0.000000 0.000000 0.000000 0.016094 0.000000
# 6 0.000000 0.000000 0.000000 0.000000 0.000000 0.023135
#
#
# Mechanical properties :
#
#
# Convention : Reuss Voigt Hill
#
# Bulk Modulus (GPa) = 67.58893 98.79684 83.19289
# Shear Modulus (GPa) = 31.04595 45.50439 38.27517
#
# Velocity S-wave (km/s) = 3.31884 4.01800 3.68504
# Velocity P-wave (km/s) = 6.21819 7.52180 6.90085
#
# Compressibility (1/GPa) = 0.01479532
#
# Stress axis : x y z
#
# Youngs Moduli (GPa) = 132.71194 27.39527 83.58457
#
# Poissons Ratio (x) = 0.20552 0.02161
# Poissons Ratio (y) = 0.99563 1.07344
# Poissons Ratio (z) = 0.03430 0.35182
#
# Static dielectric constant tensor:
#      x y z
#    x 2.237920 0.000000 0.000000 
#    y 0.000000 2.693940 0.000000 
#    z 0.000000 0.000000 2.582640 
# 
# From -- ./inp_files/4660.got.cif
#   From: 2010.05.17/outbox.cif.g08.bks.cpg/sg56_3_cif.got.tgz:4660.got - 2010.06.03 13:42:01.
