data_PCOD9432887
_publ_section_title
;
Structure prediction by ZEFSAII (Michael W. Deem and Ramdas Pophale) SiO2 
 PCOD9432887
Probable space group: P C C N
;
_chemical_formula_sum "Si O2"
_cell_formula_units_Z 40
_cell_length_a 8.719672
_cell_length_b 8.269944
_cell_length_c 26.819327
_cell_angle_alpha 90.000000
_cell_angle_beta 90.000000
_cell_angle_gamma 90.000000
_cell_volume 1933.973830
_symmetry_space_group_name_H-M "P C C N"
_symmetry_group_IT_number 56
_symmetry_cell_setting 'orthorhombic'
loop_
_space_group_symop_operation_xyz
x,y,z
1/2-x,1/2-y,z
1/2+x,-y,1/2-z
-x,1/2+y,1/2-z
-x,-y,-z
1/2+x,1/2+y,-z
1/2-x,y,1/2+z
x,1/2-y,1/2+z
loop_
_atom_site_type_symbol
_atom_site_label
_atom_site_fract_x
_atom_site_fract_y
_atom_site_fract_z
Si Si1 0.250000 0.750000 0.164304
Si Si2 0.750000 0.250000 0.999683
Si Si3 0.995670 0.321733 0.920537
Si Si4 0.808097 0.503163 0.579781
Si Si5 0.680071 0.918807 0.275628
Si Si6 0.838046 0.083270 0.192573
O O1 0.396753 0.787606 0.129153
O O2 0.276275 0.584958 0.195484
O O3 0.667324 0.374404 0.036499
O O4 0.629221 0.158104 0.964178
O O5 0.125254 0.459174 0.916412
O O6 0.095068 0.162324 0.931810
O O7 0.860675 0.445931 0.634202
O O8 0.750000 0.750000 0.295581
O O9 0.498567 0.906529 0.279253
O O10 0.739792 0.944736 0.219486
O O11 0.750000 0.250000 0.198426
#
# Coordination Sequence:
#
# PCOD9432887 Si02
#       6
#     4   4   8   8   8   8
#     4  11  24  47  66 100 148 181 240 283 344 418
#     4  11  22  43  68  98 132 171 234 289 346 416
#     4  10  24  42  68  95 137 181 220 290 350 412
#     4  11  23  41  69  97 133 179 232 278 351 413
#     4  12  28  44  72 103 143 190 237 288 350 416
#     4  12  26  46  69 102 142 187 234 291 344 425
#
# _framework density 20.682801000000001
#
# number of rings (size 3 to 8) (size 9 to 14) (size 15 to 20)
#    0.000    0.800    4.000    2.400    8.400    0.000 
#    0.000    0.000    0.000    0.000    0.000    0.000 
#    0.000    0.000    0.000    0.000    0.000    0.000 
#
# Total GULP energy -223585.523103 kJ/mol
# GULP energy per Si atom -5589.638078 kJ/mol
# Density = 2.063573 g / cm^3
# Si number density = 20.682801 Si / 1000 Ang^3
#
#
#
# Elastic Constant Matrix: (Units=GPa)
#
#
# Indices 1 2 3 4 5 6 
#
# 1 71.8267 -9.4700 2.8068 0.0000 0.0000 0.0000
# 2 -9.4700 82.6711 7.6647 0.0000 0.0000 0.0000
# 3 2.8068 7.6647 72.5164 0.0000 0.0000 0.0000
# 4 0.0000 0.0000 0.0000 17.6057 0.0000 0.0000
# 5 0.0000 0.0000 0.0000 0.0000 -101.5957 0.0000
# 6 0.0000 0.0000 0.0000 0.0000 0.0000 32.5261
#
#
#
# Elastic Compliance Matrix: (Units=1/GPa)
#
#
# Indices 1 2 3 4 5 6 
#
# 1 0.014174 0.001691 -0.000727 0.000000 0.000000 0.000000
# 2 0.001691 0.012418 -0.001378 0.000000 0.000000 0.000000
# 3 -0.000727 -0.001378 0.013964 0.000000 0.000000 0.000000
# 4 0.000000 0.000000 0.000000 0.056800 0.000000 0.000000
# 5 0.000000 0.000000 0.000000 0.000000 -0.009843 0.000000
# 6 0.000000 0.000000 0.000000 0.000000 0.000000 0.030745
#
#
# Mechanical properties :
#
#
# Convention : Reuss Voigt Hill
#
# Bulk Modulus (GPa) = 25.17200 25.44635 25.30917
# Shear Modulus (GPa) = 37.78509 4.77473 21.27991
#
# Velocity S-wave (km/s) = 4.27884 1.52104 3.21108
# Velocity P-wave (km/s) = 6.05048 3.92614 5.10014
#
# Compressibility (1/GPa) = 0.03972667
#
# Stress axis : x y z
#
# Youngs Moduli (GPa) = 70.55285 80.53088 71.61383
#
# Poissons Ratio (x) = -0.13618 0.05209
# Poissons Ratio (y) = -0.11931 0.09868
# Poissons Ratio (z) = 0.05132 0.11097
#
# Static dielectric constant tensor:
#      x y z
#    x 1.719270 0.000000 0.000000 
#    y 0.000000 1.730560 0.000000 
#    z 0.000000 0.000000 1.738580 
# 
# From -- ./inp_files/20357.got.cif
#   From: 2010.05.17/outbox.cif.g08.bks.cpg/sg56_11_cif.got.tgz:20357.got - 2010.06.03 13:42:01.
