data_PCOD9432150
_publ_section_title
;
Structure prediction by ZEFSAII (Michael W. Deem and Ramdas Pophale) SiO2 
 PCOD9432150
Probable space group: P C C N
;
_chemical_formula_sum "Si O2"
_cell_formula_units_Z 48
_cell_length_a 7.448913
_cell_length_b 17.837886
_cell_length_c 14.785295
_cell_angle_alpha 90.000000
_cell_angle_beta 90.000000
_cell_angle_gamma 90.000000
_cell_volume 1964.564446
_symmetry_space_group_name_H-M "P C C N"
_symmetry_group_IT_number 56
_symmetry_cell_setting 'orthorhombic'
loop_
_space_group_symop_operation_xyz
x,y,z
1/2-x,1/2-y,z
1/2+x,-y,1/2-z
-x,1/2+y,1/2-z
-x,-y,-z
1/2+x,1/2+y,-z
1/2-x,y,1/2+z
x,1/2-y,1/2+z
loop_
_atom_site_type_symbol
_atom_site_label
_atom_site_fract_x
_atom_site_fract_y
_atom_site_fract_z
Si Si1 0.355109 0.485881 0.347464
Si Si2 0.040526 0.231588 0.977653
Si Si3 0.227632 0.537594 0.652238
Si Si4 0.914660 0.301789 0.285365
Si Si5 0.851619 0.924953 0.990494
Si Si6 0.492077 0.859024 0.899393
O O1 0.558662 0.458385 0.362674
O O2 0.306833 0.487234 0.241877
O O3 0.220637 0.438734 0.408242
O O4 0.356276 0.572303 0.381903
O O5 0.250000 0.250000 0.993718
O O6 0.006143 0.236465 0.871095
O O7 0.016482 0.146146 0.011616
O O8 0.932866 0.295156 0.030981
O O9 0.158636 0.619372 0.677179
O O10 0.122579 0.501019 0.567587
O O11 0.750000 0.250000 0.255060
O O12 0.029598 0.320421 0.197121
O O13 0.671318 0.896291 0.937972
#
# Coordination Sequence:
#
# PCOD9432150 Si02
#       6
#     8   8   8   8   8   8
#     4  10  22  41  70  92 132 173 217 270 335 383
#     4  10  24  42  66  95 125 173 222 264 330 398
#     4  10  23  42  64  96 129 170 219 269 325 389
#     4  11  26  41  64  97 133 170 215 275 333 384
#     4  10  22  40  72  94 124 177 216 274 324 392
#     4   9  21  44  58  92 128 171 211 258 330 387
#
# _framework density 24.432896
#
# number of rings (size 3 to 8) (size 9 to 14) (size 15 to 20)
#    0.000    2.000    0.000    2.000   14.000    4.667 
#    3.000    0.000    0.000    0.000    0.000    0.000 
#    0.000    0.000    0.000    0.000    0.000    0.000 
#
# Total GULP energy -268679.973628 kJ/mol
# GULP energy per Si atom -5597.499451 kJ/mol
# Density = 2.437729 g / cm^3
# Si number density = 24.432896 Si / 1000 Ang^3
#
#
#
# Elastic Constant Matrix: (Units=GPa)
#
#
# Indices 1 2 3 4 5 6 
#
# 1 51.8129 -21.9260 -10.5604 0.0000 0.0000 0.0000
# 2 -21.9260 50.8941 14.1256 0.0000 0.0000 0.0000
# 3 -10.5604 14.1256 93.8997 0.0000 0.0000 0.0000
# 4 0.0000 0.0000 0.0000 34.4181 0.0000 0.0000
# 5 0.0000 0.0000 0.0000 0.0000 25.6744 0.0000
# 6 0.0000 0.0000 0.0000 0.0000 0.0000 21.1362
#
#
#
# Elastic Compliance Matrix: (Units=1/GPa)
#
#
# Indices 1 2 3 4 5 6 
#
# 1 0.023728 0.009895 0.001180 0.000000 0.000000 0.000000
# 2 0.009895 0.024631 -0.002592 0.000000 0.000000 0.000000
# 3 0.001180 -0.002592 0.011172 0.000000 0.000000 0.000000
# 4 0.000000 0.000000 0.000000 0.029054 0.000000 0.000000
# 5 0.000000 0.000000 0.000000 0.000000 0.038949 0.000000
# 6 0.000000 0.000000 0.000000 0.000000 0.000000 0.047312
#
#
# Mechanical properties :
#
#
# Convention : Reuss Voigt Hill
#
# Bulk Modulus (GPa) = 13.07253 17.76501 15.41877
# Shear Modulus (GPa) = 27.26559 30.57690 28.92125
#
# Velocity S-wave (km/s) = 3.34419 3.54144 3.44423
# Velocity P-wave (km/s) = 4.50261 4.89991 4.70545
#
# Compressibility (1/GPa) = 0.07649631
#
# Stress axis : x y z
#
# Youngs Moduli (GPa) = 42.14429 40.59916 89.50652
#
# Poissons Ratio (x) = -0.40172 -0.10562
# Poissons Ratio (y) = -0.41701 0.23204
# Poissons Ratio (z) = -0.04973 0.10525
#
# Static dielectric constant tensor:
#      x y z
#    x 2.022520 0.000000 0.000000 
#    y 0.000000 2.043900 0.000000 
#    z 0.000000 0.000000 1.926270 
# 
# From -- ./inp_files/10635.got.cif
#   From: 2010.05.17/outbox.cif.g08.bks.cpg/sg56_6_cif.got.tgz:10635.got - 2010.06.03 13:42:01.
