data_PCOD9432397
_publ_section_title
;
Structure prediction by ZEFSAII (Michael W. Deem and Ramdas Pophale) SiO2 
 PCOD9432397
Probable space group: P C C N
;
_chemical_formula_sum "Si O2"
_cell_formula_units_Z 48
_cell_length_a 16.099244
_cell_length_b 15.882597
_cell_length_c 9.382716
_cell_angle_alpha 90.000000
_cell_angle_beta 90.000000
_cell_angle_gamma 90.000000
_cell_volume 2399.139881
_symmetry_space_group_name_H-M "P C C N"
_symmetry_group_IT_number 56
_symmetry_cell_setting 'orthorhombic'
loop_
_space_group_symop_operation_xyz
x,y,z
1/2-x,1/2-y,z
1/2+x,-y,1/2-z
-x,1/2+y,1/2-z
-x,-y,-z
1/2+x,1/2+y,-z
1/2-x,y,1/2+z
x,1/2-y,1/2+z
loop_
_atom_site_type_symbol
_atom_site_label
_atom_site_fract_x
_atom_site_fract_y
_atom_site_fract_z
Si Si1 0.687406 0.671387 0.729351
Si Si2 0.992245 0.209248 0.257950
Si Si3 0.524060 0.142371 0.456540
Si Si4 0.227620 0.441537 0.025996
Si Si5 0.065555 0.960901 0.611084
Si Si6 0.895815 0.984296 0.075654
O O1 0.750000 0.750000 0.735017
O O2 0.592218 0.699633 0.752567
O O3 0.688347 0.631239 0.571517
O O4 0.724464 0.602596 0.841331
O O5 0.968156 0.299205 0.320993
O O6 0.956049 0.136887 0.362716
O O7 0.957596 0.193131 0.100394
O O8 0.576054 0.056428 0.465970
O O9 0.430163 0.107056 0.465482
O O10 0.157127 0.509150 0.063976
O O11 0.297794 0.483483 0.927541
O O12 0.062342 0.997160 0.772305
O O13 0.000000 0.000000 0.500000
#
# Coordination Sequence:
#
# PCOD9432397 Si02
#       6
#     8   8   8   8   8   8
#     4  12  25  37  61  96 135 167 215 275 337 394
#     4  11  24  41  61  98 127 172 217 268 334 392
#     4  10  23  40  67  91 133 170 215 269 331 389
#     4  12  23  42  64  92 131 176 220 273 326 399
#     4  11  24  41  65  95 132 175 222 266 329 401
#     4  10  22  44  64  95 131 176 219 271 336 395
#
# _framework density 20.007169999999999
#
# number of rings (size 3 to 8) (size 9 to 14) (size 15 to 20)
#    0.000    1.000    5.000    1.500    4.667    0.000 
#    0.000    0.833    0.000    4.000    0.000    0.000 
#    0.000    0.000    0.000    0.000    0.000    0.000 
#
# Total GULP energy -267826.762367 kJ/mol
# GULP energy per Si atom -5579.724216 kJ/mol
# Density = 1.996163 g / cm^3
# Si number density = 20.007170 Si / 1000 Ang^3
#
#
#
# Elastic Constant Matrix: (Units=GPa)
#
#
# Indices 1 2 3 4 5 6 
#
# 1 47.4138 9.6525 -4.3306 0.0000 0.0000 0.0000
# 2 9.6525 75.6671 22.5699 0.0000 0.0000 0.0000
# 3 -4.3306 22.5699 59.6338 0.0000 0.0000 0.0000
# 4 0.0000 0.0000 0.0000 36.4504 0.0000 0.0000
# 5 0.0000 0.0000 0.0000 0.0000 26.7585 0.0000
# 6 0.0000 0.0000 0.0000 0.0000 0.0000 21.9094
#
#
#
# Elastic Compliance Matrix: (Units=1/GPa)
#
#
# Indices 1 2 3 4 5 6 
#
# 1 0.022124 -0.003722 0.003015 0.000000 0.000000 0.000000
# 2 -0.003722 0.015524 -0.006146 0.000000 0.000000 0.000000
# 3 0.003015 -0.006146 0.019314 0.000000 0.000000 0.000000
# 4 0.000000 0.000000 0.000000 0.027435 0.000000 0.000000
# 5 0.000000 0.000000 0.000000 0.000000 0.037371 0.000000
# 6 0.000000 0.000000 0.000000 0.000000 0.000000 0.045643
#
#
# Mechanical properties :
#
#
# Convention : Reuss Voigt Hill
#
# Bulk Modulus (GPa) = 23.11738 26.49980 24.80859
# Shear Modulus (GPa) = 25.57113 27.34519 26.45816
#
# Velocity S-wave (km/s) = 3.57893 3.70100 3.64047
# Velocity P-wave (km/s) = 5.35331 5.61579 5.48612
#
# Compressibility (1/GPa) = 0.04325749
#
# Stress axis : x y z
#
# Youngs Moduli (GPa) = 45.19992 64.41801 51.77614
#
# Poissons Ratio (x) = 0.23974 -0.15611
# Poissons Ratio (y) = 0.16822 0.31819
# Poissons Ratio (z) = -0.13629 0.39588
#
# Static dielectric constant tensor:
#      x y z
#    x 1.721880 0.000000 0.000000 
#    y 0.000000 1.709120 0.000000 
#    z 0.000000 0.000000 1.753430 
# 
# From -- ./inp_files/3380.got.cif
#   From: 2010.05.17/outbox.cif.g08.bks.cpg/sg56_2_cif.got.tgz:3380.got - 2010.06.03 13:42:01.
