data_PCOD9432122
_publ_section_title
;
Structure prediction by ZEFSAII (Michael W. Deem and Ramdas Pophale) SiO2 
 PCOD9432122
Probable space group: P C C N
;
_chemical_formula_sum "Si O2"
_cell_formula_units_Z 40
_cell_length_a 8.164151
_cell_length_b 13.981905
_cell_length_c 16.819283
_cell_angle_alpha 90.000000
_cell_angle_beta 90.000000
_cell_angle_gamma 90.000000
_cell_volume 1919.927608
_symmetry_space_group_name_H-M "P C C N"
_symmetry_group_IT_number 56
_symmetry_cell_setting 'orthorhombic'
loop_
_space_group_symop_operation_xyz
x,y,z
1/2-x,1/2-y,z
1/2+x,-y,1/2-z
-x,1/2+y,1/2-z
-x,-y,-z
1/2+x,1/2+y,-z
1/2-x,y,1/2+z
x,1/2-y,1/2+z
loop_
_atom_site_type_symbol
_atom_site_label
_atom_site_fract_x
_atom_site_fract_y
_atom_site_fract_z
Si Si1 0.016227 0.525043 0.237572
Si Si2 0.655981 0.652673 0.865752
Si Si3 0.186394 0.642716 0.794998
Si Si4 0.185209 0.655161 0.464280
Si Si5 0.636829 0.010801 0.934615
O O1 0.892486 0.592650 0.286995
O O2 0.971682 0.411494 0.240903
O O3 0.182889 0.559330 0.278264
O O4 0.049750 0.549601 0.145296
O O5 0.750000 0.750000 0.846420
O O6 0.491553 0.662493 0.920832
O O7 0.783849 0.589385 0.913306
O O8 0.250000 0.750000 0.769498
O O9 0.186429 0.646824 0.890390
O O10 0.250000 0.750000 0.507013
O O11 0.214954 0.572346 0.527553
O O12 0.500000 0.000000 0.000000
#
# Coordination Sequence:
#
# PCOD9432122 Si02
#       5
#     8   8   8   8   8
#     4  11  23  41  66  98 130 181 231 282 340 416
#     4  11  25  45  69  97 135 185 233 284 347 423
#     4  10  22  40  66  94 135 181 231 280 345 421
#     4  10  22  42  68  96 132 178 221 281 353 414
#     4  12  23  41  68  97 137 173 225 281 350 408
#
# _framework density 20.834119000000001
#
# number of rings (size 3 to 8) (size 9 to 14) (size 15 to 20)
#    0.000    1.200    4.000    1.800    5.600    0.800 
#    0.000    3.000    0.000    0.000    0.000    0.000 
#    0.000    0.000    0.000    0.000    0.000    0.000 
#
# Total GULP energy -222675.085699 kJ/mol
# GULP energy per Si atom -5566.877142 kJ/mol
# Density = 2.078670 g / cm^3
# Si number density = 20.834119 Si / 1000 Ang^3
#
#
#
# Elastic Constant Matrix: (Units=GPa)
#
#
# Indices 1 2 3 4 5 6 
#
# 1 95.1311 48.6344 21.3534 0.0000 0.0000 0.0000
# 2 48.6344 144.2814 36.6510 0.0000 0.0000 0.0000
# 3 21.3534 36.6510 63.5160 0.0000 0.0000 0.0000
# 4 0.0000 0.0000 0.0000 26.0849 0.0000 0.0000
# 5 0.0000 0.0000 0.0000 0.0000 25.5246 0.0000
# 6 0.0000 0.0000 0.0000 0.0000 0.0000 41.6028
#
#
#
# Elastic Compliance Matrix: (Units=1/GPa)
#
#
# Indices 1 2 3 4 5 6 
#
# 1 0.012946 -0.003818 -0.002149 0.000000 0.000000 0.000000
# 2 -0.003818 0.009247 -0.004052 0.000000 0.000000 0.000000
# 3 -0.002149 -0.004052 0.018805 0.000000 0.000000 0.000000
# 4 0.000000 0.000000 0.000000 0.038336 0.000000 0.000000
# 5 0.000000 0.000000 0.000000 0.000000 0.039178 0.000000
# 6 0.000000 0.000000 0.000000 0.000000 0.000000 0.024037
#
#
# Mechanical properties :
#
#
# Convention : Reuss Voigt Hill
#
# Bulk Modulus (GPa) = 47.71194 57.35623 52.53408
# Shear Modulus (GPa) = 29.48545 31.72843 30.60694
#
# Velocity S-wave (km/s) = 3.76606 3.90668 3.83701
# Velocity P-wave (km/s) = 6.47005 6.92382 6.70077
#
# Compressibility (1/GPa) = 0.02095911
#
# Stress axis : x y z
#
# Youngs Moduli (GPa) = 77.24341 108.14007 53.17729
#
# Poissons Ratio (x) = 0.41287 0.11429
# Poissons Ratio (y) = 0.29491 0.21550
# Poissons Ratio (z) = 0.16602 0.43823
#
# Static dielectric constant tensor:
#      x y z
#    x 1.901230 0.000000 0.000000 
#    y 0.000000 3.129560 0.000000 
#    z 0.000000 0.000000 1.834220 
# 
# From -- ./inp_files/10406.got.cif
#   From: 2010.05.17/outbox.cif.g08.bks.cpg/sg56_6_cif.got.tgz:10406.got - 2010.06.03 13:42:01.
