data_PCOD9432331
_publ_section_title
;
Structure prediction by ZEFSAII (Michael W. Deem and Ramdas Pophale) SiO2 
 PCOD9432331
Probable space group: P C C N
;
_chemical_formula_sum "Si O2"
_cell_formula_units_Z 44
_cell_length_a 11.708790
_cell_length_b 7.990594
_cell_length_c 24.358401
_cell_angle_alpha 90.000000
_cell_angle_beta 90.000000
_cell_angle_gamma 90.000000
_cell_volume 2278.976556
_symmetry_space_group_name_H-M "P C C N"
_symmetry_group_IT_number 56
_symmetry_cell_setting 'orthorhombic'
loop_
_space_group_symop_operation_xyz
x,y,z
1/2-x,1/2-y,z
1/2+x,-y,1/2-z
-x,1/2+y,1/2-z
-x,-y,-z
1/2+x,1/2+y,-z
1/2-x,y,1/2+z
x,1/2-y,1/2+z
loop_
_atom_site_type_symbol
_atom_site_label
_atom_site_fract_x
_atom_site_fract_y
_atom_site_fract_z
Si Si1 0.250000 0.750000 0.350613
Si Si2 0.502976 0.704530 0.192802
Si Si3 0.750000 0.750000 0.999665
Si Si4 0.750000 0.250000 0.846723
Si Si5 0.829043 0.600110 0.893356
Si Si6 0.027996 0.588452 0.809294
Si Si7 0.830140 0.597147 0.604861
O O1 0.360301 0.701231 0.315163
O O2 0.223409 0.584108 0.385575
O O3 0.365813 0.713924 0.186829
O O4 0.532920 0.626474 0.251514
O O5 0.555081 0.608786 0.140466
O O6 0.551778 0.891697 0.191486
O O7 0.825109 0.637436 0.958356
O O8 0.669491 0.642728 0.040338
O O9 0.778653 0.417455 0.880879
O O10 0.750000 0.750000 0.870094
O O11 0.948465 0.616204 0.862250
O O12 0.750000 0.750000 0.626425
#
# Coordination Sequence:
#
# PCOD9432331 Si02
#       7
#     4   8   4   4   8   8   8
#     4  12  23  41  64  94 128 173 203 252 328 366
#     4  11  23  41  64  97 131 163 211 259 308 385
#     4   8  20  44  64  92 124 162 212 268 306 368
#     4  10  23  41  62  96 126 165 207 254 322 380
#     4   9  22  42  63  88 125 163 210 258 311 366
#     4  11  23  39  63  95 130 168 207 258 315 375
#     4  10  22  43  63  90 127 162 213 259 305 370
#
# _framework density 19.306913000000002
#
# number of rings (size 3 to 8) (size 9 to 14) (size 15 to 20)
#    1.091    0.727    1.818    1.636    5.091    2.909 
#    0.000   11.818    0.000    0.000    0.000    0.000 
#    0.000    0.000    0.000    0.000    0.000    0.000 
#
# Total GULP energy -245040.226349 kJ/mol
# GULP energy per Si atom -5569.096053 kJ/mol
# Density = 1.926297 g / cm^3
# Si number density = 19.306913 Si / 1000 Ang^3
#
#
#
# Elastic Constant Matrix: (Units=GPa)
#
#
# Indices 1 2 3 4 5 6 
#
# 1 69.0565 32.4879 41.6439 0.0000 0.0000 0.0000
# 2 32.4879 121.9523 44.5731 0.0000 0.0000 0.0000
# 3 41.6439 44.5731 149.6791 0.0000 0.0000 0.0000
# 4 0.0000 0.0000 0.0000 5.1168 0.0000 0.0000
# 5 0.0000 0.0000 0.0000 0.0000 26.7754 0.0000
# 6 0.0000 0.0000 0.0000 0.0000 0.0000 20.6647
#
#
#
# Elastic Compliance Matrix: (Units=1/GPa)
#
#
# Indices 1 2 3 4 5 6 
#
# 1 0.018602 -0.003438 -0.004152 0.000000 0.000000 0.000000
# 2 -0.003438 0.009837 -0.001973 0.000000 0.000000 0.000000
# 3 -0.004152 -0.001973 0.008424 0.000000 0.000000 0.000000
# 4 0.000000 0.000000 0.000000 0.195436 0.000000 0.000000
# 5 0.000000 0.000000 0.000000 0.000000 0.037348 0.000000
# 6 0.000000 0.000000 0.000000 0.000000 0.000000 0.048392
#
#
# Mechanical properties :
#
#
# Convention : Reuss Voigt Hill
#
# Bulk Modulus (GPa) = 56.37836 64.23308 60.30572
# Shear Modulus (GPa) = 14.57405 25.31022 19.94214
#
# Velocity S-wave (km/s) = 2.75046 3.62462 3.21737
# Velocity P-wave (km/s) = 6.27305 7.13154 6.71603
#
# Compressibility (1/GPa) = 0.01773730
#
# Stress axis : x y z
#
# Youngs Moduli (GPa) = 53.75770 101.65822 118.71545
#
# Poissons Ratio (x) = 0.34952 0.49286
# Poissons Ratio (y) = 0.18483 0.23420
# Poissons Ratio (z) = 0.22318 0.20055
#
# Static dielectric constant tensor:
#      x y z
#    x 1.697360 0.000000 0.000000 
#    y 0.000000 1.806650 0.000000 
#    z 0.000000 0.000000 1.666590 
# 
# From -- ./inp_files/20874.got.cif
#   From: 2010.05.17/outbox.cif.g08.bks.cpg/sg56_11_cif.got.tgz:20874.got - 2010.06.03 13:42:01.
