data_PCOD9432570
_publ_section_title
;
Structure prediction by ZEFSAII (Michael W. Deem and Ramdas Pophale) SiO2 
 PCOD9432570
Probable space group: P C C N
;
_chemical_formula_sum "Si O2"
_cell_formula_units_Z 48
_cell_length_a 10.007726
_cell_length_b 17.605015
_cell_length_c 12.806950
_cell_angle_alpha 90.000000
_cell_angle_beta 90.000000
_cell_angle_gamma 90.000000
_cell_volume 2256.407423
_symmetry_space_group_name_H-M "P C C N"
_symmetry_group_IT_number 56
_symmetry_cell_setting 'orthorhombic'
loop_
_space_group_symop_operation_xyz
x,y,z
1/2-x,1/2-y,z
1/2+x,-y,1/2-z
-x,1/2+y,1/2-z
-x,-y,-z
1/2+x,1/2+y,-z
1/2-x,y,1/2+z
x,1/2-y,1/2+z
loop_
_atom_site_type_symbol
_atom_site_label
_atom_site_fract_x
_atom_site_fract_y
_atom_site_fract_z
Si Si1 0.173111 0.669392 0.047706
Si Si2 0.463624 0.827820 0.829029
Si Si3 0.424723 0.509881 0.891139
Si Si4 0.221667 0.415938 0.254441
Si Si5 0.321968 0.932286 0.675233
Si Si6 0.516124 0.154343 0.732905
O O1 0.250000 0.750000 0.042808
O O2 0.285062 0.604590 0.064725
O O3 0.086207 0.659087 0.153568
O O4 0.081973 0.656707 0.947101
O O5 0.605471 0.863010 0.792595
O O6 0.347524 0.862742 0.754684
O O7 0.473823 0.737938 0.814096
O O8 0.304642 0.450341 0.871460
O O9 0.536671 0.473431 0.815589
O O10 0.414072 0.594539 0.846318
O O11 0.500000 0.500000 0.000000
O O12 0.224443 0.497015 0.194208
O O13 0.362426 0.372762 0.245950
#
# Coordination Sequence:
#
# PCOD9432570 Si02
#       6
#     8   8   8   8   8   8
#     4  12  26  41  72 102 137 185 240 297 359 422
#     4  11  26  43  70 102 138 190 238 297 368 422
#     4  10  23  40  69  99 137 187 229 284 361 415
#     4  10  23  46  66  98 143 181 230 297 349 435
#     4  10  23  43  63 100 137 175 236 291 342 429
#     4  11  24  45  67 100 144 181 237 301 351 434
#
# _framework density 21.272753000000002
#
# number of rings (size 3 to 8) (size 9 to 14) (size 15 to 20)
#    0.000    1.333    3.333    0.500    7.000    3.333 
#    0.000    1.667    0.000    0.000    0.000    0.000 
#    0.000    0.000    0.000    0.000    0.000    0.000 
#
# Total GULP energy -267486.809975 kJ/mol
# GULP energy per Si atom -5572.641874 kJ/mol
# Density = 2.122433 g / cm^3
# Si number density = 21.272753 Si / 1000 Ang^3
#
#
#
# Elastic Constant Matrix: (Units=GPa)
#
#
# Indices 1 2 3 4 5 6 
#
# 1 106.1645 43.8968 35.9746 0.0000 0.0000 0.0000
# 2 43.8968 153.3318 34.4909 0.0000 0.0000 0.0000
# 3 35.9746 34.4909 110.7599 0.0000 0.0000 0.0000
# 4 0.0000 0.0000 0.0000 13.5256 0.0000 0.0000
# 5 0.0000 0.0000 0.0000 0.0000 22.4968 0.0000
# 6 0.0000 0.0000 0.0000 0.0000 0.0000 43.9495
#
#
#
# Elastic Compliance Matrix: (Units=1/GPa)
#
#
# Indices 1 2 3 4 5 6 
#
# 1 0.011496 -0.002636 -0.002913 0.000000 0.000000 0.000000
# 2 -0.002636 0.007617 -0.001516 0.000000 0.000000 0.000000
# 3 -0.002913 -0.001516 0.010447 0.000000 0.000000 0.000000
# 4 0.000000 0.000000 0.000000 0.073934 0.000000 0.000000
# 5 0.000000 0.000000 0.000000 0.000000 0.044451 0.000000
# 6 0.000000 0.000000 0.000000 0.000000 0.000000 0.022753
#
#
# Mechanical properties :
#
#
# Convention : Reuss Voigt Hill
#
# Bulk Modulus (GPa) = 64.80664 66.55341 65.68003
# Shear Modulus (GPa) = 26.31966 33.05399 29.68683
#
# Velocity S-wave (km/s) = 3.52127 3.94613 3.73974
# Velocity P-wave (km/s) = 6.86026 7.21916 7.04200
#
# Compressibility (1/GPa) = 0.01543052
#
# Stress axis : x y z
#
# Youngs Moduli (GPa) = 86.98364 131.27761 95.72316
#
# Poissons Ratio (x) = 0.34604 0.27886
# Poissons Ratio (y) = 0.22929 0.14511
# Poissons Ratio (z) = 0.25340 0.19901
#
# Static dielectric constant tensor:
#      x y z
#    x 1.864430 0.000000 0.000000 
#    y 0.000000 1.807970 0.000000 
#    z 0.000000 0.000000 1.824940 
# 
# From -- ./inp_files/7148.got.cif
#   From: 2010.05.17/outbox.cif.g08.bks.cpg/sg56_4_cif.got.tgz:7148.got - 2010.06.03 13:42:01.
