data_PCOD9432166
_publ_section_title
;
Structure prediction by ZEFSAII (Michael W. Deem and Ramdas Pophale) SiO2 
 PCOD9432166
Probable space group: P C C N
;
_chemical_formula_sum "Si O2"
_cell_formula_units_Z 44
_cell_length_a 24.075847
_cell_length_b 8.822544
_cell_length_c 10.507182
_cell_angle_alpha 90.000000
_cell_angle_beta 90.000000
_cell_angle_gamma 90.000000
_cell_volume 2231.832835
_symmetry_space_group_name_H-M "P C C N"
_symmetry_group_IT_number 56
_symmetry_cell_setting 'orthorhombic'
loop_
_space_group_symop_operation_xyz
x,y,z
1/2-x,1/2-y,z
1/2+x,-y,1/2-z
-x,1/2+y,1/2-z
-x,-y,-z
1/2+x,1/2+y,-z
1/2-x,y,1/2+z
x,1/2-y,1/2+z
loop_
_atom_site_type_symbol
_atom_site_label
_atom_site_fract_x
_atom_site_fract_y
_atom_site_fract_z
Si Si1 0.444793 0.147919 0.104311
Si Si2 0.148145 0.922625 0.009160
Si Si3 0.750000 0.250000 0.103057
Si Si4 0.331937 0.991529 0.792769
Si Si5 0.118996 0.289373 0.364804
Si Si6 0.070903 0.844210 0.460624
O O1 0.416413 0.198591 0.235216
O O2 0.510830 0.171391 0.102990
O O3 0.419065 0.237156 0.983652
O O4 0.433975 0.970414 0.071795
O O5 0.156690 0.000905 0.143840
O O6 0.201071 0.818493 0.981467
O O7 0.094576 0.814201 0.010320
O O8 0.142645 0.047245 0.899852
O O9 0.721540 0.113059 0.181317
O O10 0.384084 0.908004 0.860397
O O11 0.333746 0.161026 0.848539
#
# Coordination Sequence:
#
# PCOD9432166 Si02
#       6
#     8   8   4   8   8   8
#     4  10  22  41  61  97 135 171 209 262 312 382
#     4  11  23  41  67  93 120 170 210 267 319 382
#     4  10  24  44  66  92 118 158 218 270 330 372
#     4  10  22  44  62  94 125 164 215 266 315 390
#     4  11  23  41  64  95 133 167 211 260 323 378
#     4   9  23  38  65  93 132 170 214 255 314 381
#
# _framework density 19.714739000000002
#
# number of rings (size 3 to 8) (size 9 to 14) (size 15 to 20)
#    0.000    1.818    1.818    0.545    7.636    4.364 
#    3.273    1.818    0.000    0.000    0.000    0.000 
#    0.000    0.000    0.000    0.000    0.000    0.000 
#
# Total GULP energy -245700.718609 kJ/mol
# GULP energy per Si atom -5584.107241 kJ/mol
# Density = 1.966987 g / cm^3
# Si number density = 19.714739 Si / 1000 Ang^3
#
#
#
# Elastic Constant Matrix: (Units=GPa)
#
#
# Indices 1 2 3 4 5 6 
#
# 1 89.4737 40.6675 22.1362 0.0000 0.0000 0.0000
# 2 40.6675 92.5697 7.1445 0.0000 0.0000 0.0000
# 3 22.1362 7.1445 88.4930 0.0000 0.0000 0.0000
# 4 0.0000 0.0000 0.0000 18.8284 0.0000 0.0000
# 5 0.0000 0.0000 0.0000 0.0000 13.3804 0.0000
# 6 0.0000 0.0000 0.0000 0.0000 0.0000 21.4737
#
#
#
# Elastic Compliance Matrix: (Units=1/GPa)
#
#
# Indices 1 2 3 4 5 6 
#
# 1 0.014814 -0.006261 -0.003200 0.000000 0.000000 0.000000
# 2 -0.006261 0.013517 0.000475 0.000000 0.000000 0.000000
# 3 -0.003200 0.000475 0.012062 0.000000 0.000000 0.000000
# 4 0.000000 0.000000 0.000000 0.053111 0.000000 0.000000
# 5 0.000000 0.000000 0.000000 0.000000 0.074736 0.000000
# 6 0.000000 0.000000 0.000000 0.000000 0.000000 0.046569
#
#
# Mechanical properties :
#
#
# Convention : Reuss Voigt Hill
#
# Bulk Modulus (GPa) = 44.60211 45.60363 45.10287
# Shear Modulus (GPa) = 20.81120 24.10905 22.46013
#
# Velocity S-wave (km/s) = 3.25255 3.50078 3.37895
# Velocity P-wave (km/s) = 6.06451 6.28670 6.17661
#
# Compressibility (1/GPa) = 0.02242046
#
# Stress axis : x y z
#
# Youngs Moduli (GPa) = 67.50379 73.98299 82.90159
#
# Poissons Ratio (x) = 0.46321 0.26530
# Poissons Ratio (y) = 0.42265 -0.03937
# Poissons Ratio (z) = 0.21602 -0.03514
#
# Static dielectric constant tensor:
#      x y z
#    x 1.671200 0.000000 0.000000 
#    y 0.000000 1.739870 0.000000 
#    z 0.000000 0.000000 1.661320 
# 
# From -- ./inp_files/6365.got.cif
#   From: 2010.05.17/outbox.cif.g08.bks.cpg/sg56_4_cif.got.tgz:6365.got - 2010.06.03 13:42:01.
