data_PCOD9432738
_publ_section_title
;
Structure prediction by ZEFSAII (Michael W. Deem and Ramdas Pophale) SiO2 
 PCOD9432738
Probable space group: P C C N
;
_chemical_formula_sum "Si O2"
_cell_formula_units_Z 36
_cell_length_a 11.291021
_cell_length_b 12.810885
_cell_length_c 11.094523
_cell_angle_alpha 90.000000
_cell_angle_beta 90.000000
_cell_angle_gamma 90.000000
_cell_volume 1604.800247
_symmetry_space_group_name_H-M "P C C N"
_symmetry_group_IT_number 56
_symmetry_cell_setting 'orthorhombic'
loop_
_space_group_symop_operation_xyz
x,y,z
1/2-x,1/2-y,z
1/2+x,-y,1/2-z
-x,1/2+y,1/2-z
-x,-y,-z
1/2+x,1/2+y,-z
1/2-x,y,1/2+z
x,1/2-y,1/2+z
loop_
_atom_site_type_symbol
_atom_site_label
_atom_site_fract_x
_atom_site_fract_y
_atom_site_fract_z
Si Si1 0.102750 0.074564 0.274191
Si Si2 0.699850 0.360673 0.667333
Si Si3 0.557837 0.395805 0.047431
Si Si4 0.471702 0.185084 0.006921
Si Si5 0.250000 0.250000 0.666597
O O1 0.050849 0.098630 0.406055
O O2 0.204926 0.157941 0.250719
O O3 0.001461 0.108230 0.180295
O O4 0.161246 0.960799 0.254042
O O5 0.750000 0.250000 0.719932
O O6 0.802600 0.394509 0.572772
O O7 0.579663 0.339966 0.595101
O O8 0.513145 0.300590 0.963459
O O9 0.500000 0.500000 0.000000
O O10 0.352797 0.204689 0.081937
#
# Coordination Sequence:
#
# PCOD9432738 Si02
#       5
#     8   8   8   8   4
#     4  11  24  40  74  96 136 183 225 286 355 403
#     4  10  24  44  67  97 138 181 231 282 351 424
#     4  10  25  42  66 103 136 180 230 291 342 420
#     4  10  23  45  65  98 137 179 234 281 351 421
#     4  10  24  40  70 104 130 176 234 292 334 420
#
# _framework density 22.432699
#
# number of rings (size 3 to 8) (size 9 to 14) (size 15 to 20)
#    0.000    1.778    0.000    1.333   12.444    5.333 
#    0.000   11.111    0.000    0.000    0.000    0.000 
#    0.000    0.000    0.000    0.000    0.000    0.000 
#
# Total GULP energy -200941.448883 kJ/mol
# GULP energy per Si atom -5581.706913 kJ/mol
# Density = 2.238164 g / cm^3
# Si number density = 22.432699 Si / 1000 Ang^3
#
#
#
# Elastic Constant Matrix: (Units=GPa)
#
#
# Indices 1 2 3 4 5 6 
#
# 1 141.7148 24.8294 13.0817 0.0000 0.0000 0.0000
# 2 24.8294 122.9120 18.5610 0.0000 0.0000 0.0000
# 3 13.0817 18.5610 34.7278 0.0000 0.0000 0.0000
# 4 0.0000 0.0000 0.0000 29.0444 0.0000 0.0000
# 5 0.0000 0.0000 0.0000 0.0000 1.7680 0.0000
# 6 0.0000 0.0000 0.0000 0.0000 0.0000 33.7620
#
#
#
# Elastic Compliance Matrix: (Units=1/GPa)
#
#
# Indices 1 2 3 4 5 6 
#
# 1 0.007464 -0.001178 -0.002182 0.000000 0.000000 0.000000
# 2 -0.001178 0.009036 -0.004386 0.000000 0.000000 0.000000
# 3 -0.002182 -0.004386 0.031961 0.000000 0.000000 0.000000
# 4 0.000000 0.000000 0.000000 0.034430 0.000000 0.000000
# 5 0.000000 0.000000 0.000000 0.000000 0.565611 0.000000
# 6 0.000000 0.000000 0.000000 0.000000 0.000000 0.029619
#
#
# Mechanical properties :
#
#
# Convention : Reuss Voigt Hill
#
# Bulk Modulus (GPa) = 30.33077 45.81099 38.07088
# Shear Modulus (GPa) = 7.09618 29.10705 18.10162
#
# Velocity S-wave (km/s) = 1.78050 3.60603 2.84373
# Velocity P-wave (km/s) = 4.21628 6.14848 5.27166
#
# Compressibility (1/GPa) = 0.03296982
#
# Stress axis : x y z
#
# Youngs Moduli (GPa) = 133.97103 110.66559 31.28779
#
# Poissons Ratio (x) = 0.13040 0.06827
# Poissons Ratio (y) = 0.15787 0.13722
# Poissons Ratio (z) = 0.29232 0.48535
#
# Static dielectric constant tensor:
#      x y z
#    x 1.814800 0.000000 0.000000 
#    y 0.000000 1.973430 0.000000 
#    z 0.000000 0.000000 1.864240 
# 
# From -- ./inp_files/6846.got.cif
#   From: 2010.05.17/outbox.cif.g08.bks.cpg/sg56_4_cif.got.tgz:6846.got - 2010.06.03 13:42:01.
