data_PCOD9432787
_publ_section_title
;
Structure prediction by ZEFSAII (Michael W. Deem and Ramdas Pophale) SiO2 
 PCOD9432787
Probable space group: P C C N
;
_chemical_formula_sum "Si O2"
_cell_formula_units_Z 56
_cell_length_a 12.951767
_cell_length_b 13.841108
_cell_length_c 12.668482
_cell_angle_alpha 90.000000
_cell_angle_beta 90.000000
_cell_angle_gamma 90.000000
_cell_volume 2271.038303
_symmetry_space_group_name_H-M "P C C N"
_symmetry_group_IT_number 56
_symmetry_cell_setting 'orthorhombic'
loop_
_space_group_symop_operation_xyz
x,y,z
1/2-x,1/2-y,z
1/2+x,-y,1/2-z
-x,1/2+y,1/2-z
-x,-y,-z
1/2+x,1/2+y,-z
1/2-x,y,1/2+z
x,1/2-y,1/2+z
loop_
_atom_site_type_symbol
_atom_site_label
_atom_site_fract_x
_atom_site_fract_y
_atom_site_fract_z
Si Si1 0.846943 0.102900 0.012579
Si Si2 0.839237 0.976784 0.466228
Si Si3 0.750000 0.750000 0.677883
Si Si4 0.250000 0.750000 0.336052
Si Si5 0.053391 0.289521 0.694361
Si Si6 0.519839 0.546328 0.669507
Si Si7 0.858316 0.882528 0.005860
Si Si8 0.086379 0.868746 0.216919
O O1 0.907199 0.138282 0.908819
O O2 0.726545 0.074301 0.987248
O O3 0.832352 0.189494 0.094454
O O4 0.886843 0.993337 0.040793
O O5 0.903570 0.944128 0.569423
O O6 0.750270 0.900089 0.444214
O O7 0.918901 0.995511 0.375055
O O8 0.665664 0.700918 0.752068
O O9 0.679726 0.819233 0.604138
O O10 0.190482 0.826284 0.264743
O O11 0.986718 0.358232 0.770482
O O12 0.065804 0.328310 0.575151
O O13 0.004286 0.185935 0.719156
O O14 0.576904 0.480538 0.754726
#
# Coordination Sequence:
#
# PCOD9432787 Si02
#       8
#     8   8   4   4   8   8   8   8
#     4  10  23  47  69  98 139 186 232 284 354 418
#     4   9  21  40  74  91 140 190 224 283 358 420
#     4  12  26  46  72 104 140 182 234 292 356 424
#     4  12  26  46  72 104 140 182 234 292 356 424
#     4  12  27  44  71 106 139 183 242 291 354 428
#     4  11  21  44  66 107 140 184 234 293 354 418
#     4  10  23  47  69  98 139 186 232 284 354 418
#     4  12  27  44  71 106 139 183 242 291 354 428
#
# _framework density 24.658325000000001
#
# number of rings (size 3 to 8) (size 9 to 14) (size 15 to 20)
#    0.857    0.286    4.286    0.857    8.000    1.143 
#    2.571    1.429    0.000    0.000    0.000    0.000 
#    0.000    0.000    0.000    0.000    0.000    0.000 
#
# Total GULP energy -313041.744136 kJ/mol
# GULP energy per Si atom -5590.031145 kJ/mol
# Density = 2.460220 g / cm^3
# Si number density = 24.658325 Si / 1000 Ang^3
#
#
#
# Elastic Constant Matrix: (Units=GPa)
#
#
# Indices 1 2 3 4 5 6 
#
# 1 67.5029 -0.7285 13.8825 0.0000 0.0000 0.0000
# 2 -0.7285 88.4471 32.5239 0.0000 0.0000 0.0000
# 3 13.8825 32.5239 91.2787 0.0000 0.0000 0.0000
# 4 0.0000 0.0000 0.0000 27.2458 0.0000 0.0000
# 5 0.0000 0.0000 0.0000 0.0000 40.5826 0.0000
# 6 0.0000 0.0000 0.0000 0.0000 0.0000 38.9089
#
#
#
# Elastic Compliance Matrix: (Units=1/GPa)
#
#
# Indices 1 2 3 4 5 6 
#
# 1 0.015391 0.001136 -0.002746 0.000000 0.000000 0.000000
# 2 0.001136 0.013095 -0.004839 0.000000 0.000000 0.000000
# 3 -0.002746 -0.004839 0.013097 0.000000 0.000000 0.000000
# 4 0.000000 0.000000 0.000000 0.036703 0.000000 0.000000
# 5 0.000000 0.000000 0.000000 0.000000 0.024641 0.000000
# 6 0.000000 0.000000 0.000000 0.000000 0.000000 0.025701
#
#
# Mechanical properties :
#
#
# Convention : Reuss Voigt Hill
#
# Bulk Modulus (GPa) = 34.85891 37.62050 36.23971
# Shear Modulus (GPa) = 33.09358 34.78418 33.93888
#
# Velocity S-wave (km/s) = 3.66742 3.75993 3.71397
# Velocity P-wave (km/s) = 5.66576 5.84288 5.75500
#
# Compressibility (1/GPa) = 0.02868707
#
# Stress axis : x y z
#
# Youngs Moduli (GPa) = 64.97253 76.36583 76.35237
#
# Poissons Ratio (x) = -0.08679 0.20964
# Poissons Ratio (y) = -0.07384 0.36945
# Poissons Ratio (z) = 0.17840 0.36951
#
# Static dielectric constant tensor:
#      x y z
#    x 2.003650 0.000000 0.000000 
#    y 0.000000 3.439160 0.000000 
#    z 0.000000 0.000000 1.883120 
# 
# From -- ./inp_files/7922.got.cif
#   From: 2010.05.17/outbox.cif.g08.bks.cpg/sg56_4_cif.got.tgz:7922.got - 2010.06.03 13:42:01.
