data_PCOD9432061
_publ_section_title
;
Structure prediction by ZEFSAII (Michael W. Deem and Ramdas Pophale) SiO2 
 PCOD9432061
Probable space group: P C C N
;
_chemical_formula_sum "Si O2"
_cell_formula_units_Z 60
_cell_length_a 11.443724
_cell_length_b 9.151839
_cell_length_c 28.509630
_cell_angle_alpha 90.000000
_cell_angle_beta 90.000000
_cell_angle_gamma 90.000000
_cell_volume 2985.845470
_symmetry_space_group_name_H-M "P C C N"
_symmetry_group_IT_number 56
_symmetry_cell_setting 'orthorhombic'
loop_
_space_group_symop_operation_xyz
x,y,z
1/2-x,1/2-y,z
1/2+x,-y,1/2-z
-x,1/2+y,1/2-z
-x,-y,-z
1/2+x,1/2+y,-z
1/2-x,y,1/2+z
x,1/2-y,1/2+z
loop_
_atom_site_type_symbol
_atom_site_label
_atom_site_fract_x
_atom_site_fract_y
_atom_site_fract_z
Si Si1 0.066106 0.632936 0.974952
Si Si2 0.967964 0.535768 0.107002
Si Si3 0.061025 0.469272 0.783746
Si Si4 0.750000 0.750000 0.690358
Si Si5 0.788474 0.098892 0.435078
Si Si6 0.953748 0.935832 0.951105
Si Si7 0.446248 0.360105 0.872800
Si Si8 0.886047 0.274043 0.287494
O O1 0.110539 0.562889 0.926710
O O2 0.983346 0.765584 0.958954
O O3 0.158636 0.659467 0.015681
O O4 0.000000 0.500000 0.000000
O O5 0.105184 0.523945 0.093204
O O6 0.947305 0.497911 0.160836
O O7 0.941106 0.707151 0.098704
O O8 0.163267 0.348567 0.779698
O O9 0.086740 0.607095 0.752237
O O10 0.943418 0.380276 0.772677
O O11 0.827195 0.643153 0.657255
O O12 0.750000 0.250000 0.410184
O O13 0.679861 0.989858 0.443274
O O14 0.024658 0.008266 0.907574
O O15 0.000000 0.000000 0.000000
O O16 0.547861 0.331410 0.834278
O O17 0.750000 0.250000 0.294654
#
# Coordination Sequence:
#
# PCOD9432061 Si02
#       8
#     8   8   8   4   8   8   8   8
#     4  10  22  40  56  89 128 164 210 266 323 383
#     4   9  20  39  60  84 124 167 208 266 325 381
#     4  10  23  42  67  96 130 173 222 269 339 396
#     4   8  20  42  62  90 132 174 210 276 326 392
#     4  11  20  38  64  85 130 165 212 277 313 387
#     4  12  23  36  63  96 120 168 224 262 325 393
#     4  10  22  40  65  91 125 172 224 260 332 394
#     4  10  24  41  71  98 132 177 218 274 341 404
#
# _framework density 20.094812000000001
#
# number of rings (size 3 to 8) (size 9 to 14) (size 15 to 20)
#    0.000    2.133    2.667    0.800    7.467    5.333 
#    0.000    0.000    5.867    0.000    0.000    0.000 
#    0.000    0.000    0.000    0.000    0.000    0.000 
#
# Total GULP energy -334437.264884 kJ/mol
# GULP energy per Si atom -5573.954415 kJ/mol
# Density = 2.004908 g / cm^3
# Si number density = 20.094812 Si / 1000 Ang^3
#
#
#
# Elastic Constant Matrix: (Units=GPa)
#
#
# Indices 1 2 3 4 5 6 
#
# 1 82.2283 1.7059 0.1603 0.0000 0.0000 0.0000
# 2 1.7059 71.7139 22.3665 0.0000 0.0000 0.0000
# 3 0.1603 22.3665 66.5225 0.0000 0.0000 0.0000
# 4 0.0000 0.0000 0.0000 34.0958 0.0000 0.0000
# 5 0.0000 0.0000 0.0000 0.0000 18.6102 0.0000
# 6 0.0000 0.0000 0.0000 0.0000 0.0000 15.1530
#
#
#
# Elastic Compliance Matrix: (Units=1/GPa)
#
#
# Indices 1 2 3 4 5 6 
#
# 1 0.012168 -0.000313 0.000076 0.000000 0.000000 0.000000
# 2 -0.000313 0.015586 -0.005240 0.000000 0.000000 0.000000
# 3 0.000076 -0.005240 0.016794 0.000000 0.000000 0.000000
# 4 0.000000 0.000000 0.000000 0.029329 0.000000 0.000000
# 5 0.000000 0.000000 0.000000 0.000000 0.053734 0.000000
# 6 0.000000 0.000000 0.000000 0.000000 0.000000 0.065994
#
#
# Mechanical properties :
#
#
# Convention : Reuss Voigt Hill
#
# Bulk Modulus (GPa) = 29.76726 29.88114 29.82420
# Shear Modulus (GPa) = 23.17436 26.65394 24.91415
#
# Velocity S-wave (km/s) = 3.39964 3.64594 3.52494
# Velocity P-wave (km/s) = 5.50051 5.71194 5.60722
#
# Compressibility (1/GPa) = 0.03359395
#
# Stress axis : x y z
#
# Youngs Moduli (GPa) = 82.18541 64.16054 59.54508
#
# Poissons Ratio (x) = 0.02009 -0.00452
# Poissons Ratio (y) = 0.02574 0.31199
# Poissons Ratio (z) = -0.00624 0.33618
#
# Static dielectric constant tensor:
#      x y z
#    x 1.769770 0.000000 0.000000 
#    y 0.000000 1.777730 0.000000 
#    z 0.000000 0.000000 1.753310 
# 
# From -- ./inp_files/23496.got.cif
#   From: 2010.05.17/outbox.cif.g08.bks.cpg/sg56_12_cif.got.tgz:23496.got - 2010.06.03 13:42:01.
