data_PCOD9432162
_publ_section_title
;
Structure prediction by ZEFSAII (Michael W. Deem and Ramdas Pophale) SiO2 
 PCOD9432162
Probable space group: P C C N
;
_chemical_formula_sum "Si O2"
_cell_formula_units_Z 56
_cell_length_a 6.722308
_cell_length_b 28.051845
_cell_length_c 13.942841
_cell_angle_alpha 90.000000
_cell_angle_beta 90.000000
_cell_angle_gamma 90.000000
_cell_volume 2629.245337
_symmetry_space_group_name_H-M "P C C N"
_symmetry_group_IT_number 56
_symmetry_cell_setting 'orthorhombic'
loop_
_space_group_symop_operation_xyz
x,y,z
1/2-x,1/2-y,z
1/2+x,-y,1/2-z
-x,1/2+y,1/2-z
-x,-y,-z
1/2+x,1/2+y,-z
1/2-x,y,1/2+z
x,1/2-y,1/2+z
loop_
_atom_site_type_symbol
_atom_site_label
_atom_site_fract_x
_atom_site_fract_y
_atom_site_fract_z
Si Si1 0.511383 0.637715 0.212320
Si Si2 0.278458 0.304069 0.145354
Si Si3 0.239520 0.496564 0.605489
Si Si4 0.367714 0.700543 0.726111
Si Si5 0.633507 0.967736 0.686847
Si Si6 0.659808 0.672874 0.565567
Si Si7 0.044664 0.431849 0.960259
O O1 0.626435 0.659968 0.303500
O O2 0.294572 0.660076 0.206780
O O3 0.514941 0.580742 0.212326
O O4 0.646762 0.655962 0.124304
O O5 0.250000 0.250000 0.181374
O O6 0.500598 0.314858 0.182044
O O7 0.233088 0.304951 0.033204
O O8 0.311595 0.494167 0.715721
O O9 0.335578 0.541344 0.549775
O O10 0.330609 0.451082 0.551091
O O11 0.003503 0.501248 0.616275
O O12 0.250000 0.750000 0.740934
O O13 0.520952 0.703693 0.636410
O O14 0.828191 0.950237 0.630959
O O15 0.538372 0.624659 0.541709
#
# Coordination Sequence:
#
# PCOD9432162 Si02
#       7
#     8   8   8   8   8   8   8
#     4  10  23  42  62  92 130 163 208 265 309 374
#     4  11  23  41  64  92 127 162 208 258 318 371
#     4  11  21  37  65  88 122 165 203 261 304 373
#     4  11  23  43  66  92 125 164 209 262 309 375
#     4  11  21  39  62  92 122 165 211 246 320 369
#     4  10  24  41  65  90 127 170 205 256 320 374
#     4  10  22  41  58  92 126 158 209 258 306 370
#
# _framework density 21.298887000000001
#
# number of rings (size 3 to 8) (size 9 to 14) (size 15 to 20)
#    0.000    1.429    2.857    2.143    2.000    1.143 
#    2.571    2.857    0.000    0.000    0.000    0.000 
#    0.000    0.000    0.000    0.000    0.000    0.000 
#
# Total GULP energy -312973.118105 kJ/mol
# GULP energy per Si atom -5588.805680 kJ/mol
# Density = 2.125041 g / cm^3
# Si number density = 21.298887 Si / 1000 Ang^3
#
#
#
# Elastic Constant Matrix: (Units=GPa)
#
#
# Indices 1 2 3 4 5 6 
#
# 1 77.0356 19.8020 19.6456 0.0000 0.0000 0.0000
# 2 19.8020 39.0081 21.3411 0.0000 0.0000 0.0000
# 3 19.6456 21.3411 95.8895 0.0000 0.0000 0.0000
# 4 0.0000 0.0000 0.0000 26.9893 0.0000 0.0000
# 5 0.0000 0.0000 0.0000 0.0000 16.4329 0.0000
# 6 0.0000 0.0000 0.0000 0.0000 0.0000 28.9725
#
#
#
# Elastic Compliance Matrix: (Units=1/GPa)
#
#
# Indices 1 2 3 4 5 6 
#
# 1 0.015137 -0.006818 -0.001584 0.000000 0.000000 0.000000
# 2 -0.006818 0.032261 -0.005783 0.000000 0.000000 0.000000
# 3 -0.001584 -0.005783 0.012040 0.000000 0.000000 0.000000
# 4 0.000000 0.000000 0.000000 0.037052 0.000000 0.000000
# 5 0.000000 0.000000 0.000000 0.000000 0.060854 0.000000
# 6 0.000000 0.000000 0.000000 0.000000 0.000000 0.034515
#
#
# Mechanical properties :
#
#
# Convention : Reuss Voigt Hill
#
# Bulk Modulus (GPa) = 32.18679 37.05674 34.62176
# Shear Modulus (GPa) = 21.68397 24.55523 23.11960
#
# Velocity S-wave (km/s) = 3.19420 3.39910 3.29824
# Velocity P-wave (km/s) = 5.36178 5.73074 5.54933
#
# Compressibility (1/GPa) = 0.03106865
#
# Stress axis : x y z
#
# Youngs Moduli (GPa) = 66.06132 30.99760 83.05456
#
# Poissons Ratio (x) = 0.21133 0.13156
# Poissons Ratio (y) = 0.45039 0.48031
# Poissons Ratio (z) = 0.10464 0.17926
#
# Static dielectric constant tensor:
#      x y z
#    x 1.784820 0.000000 0.000000 
#    y 0.000000 1.754170 0.000000 
#    z 0.000000 0.000000 1.766720 
# 
# From -- ./inp_files/9823.got.cif
#   From: 2010.05.17/outbox.cif.g08.bks.cpg/sg56_5_cif.got.tgz:9823.got - 2010.06.03 13:42:01.
