data_PCOD9432822
_publ_section_title
;
Structure prediction by ZEFSAII (Michael W. Deem and Ramdas Pophale) SiO2 
 PCOD9432822
Probable space group: P C C N
;
_chemical_formula_sum "Si O2"
_cell_formula_units_Z 64
_cell_length_a 24.158682
_cell_length_b 14.799779
_cell_length_c 8.788002
_cell_angle_alpha 90.000000
_cell_angle_beta 90.000000
_cell_angle_gamma 90.000000
_cell_volume 3142.089957
_symmetry_space_group_name_H-M "P C C N"
_symmetry_group_IT_number 56
_symmetry_cell_setting 'orthorhombic'
loop_
_space_group_symop_operation_xyz
x,y,z
1/2-x,1/2-y,z
1/2+x,-y,1/2-z
-x,1/2+y,1/2-z
-x,-y,-z
1/2+x,1/2+y,-z
1/2-x,y,1/2+z
x,1/2-y,1/2+z
loop_
_atom_site_type_symbol
_atom_site_label
_atom_site_fract_x
_atom_site_fract_y
_atom_site_fract_z
Si Si1 0.024642 0.146785 0.122107
Si Si2 0.818517 0.416996 0.343394
Si Si3 0.838493 0.235477 0.452838
Si Si4 0.041549 0.339260 0.265336
Si Si5 0.100653 0.652355 0.296121
Si Si6 0.936030 0.035597 0.711371
Si Si7 0.776964 0.046004 0.527448
Si Si8 0.881072 0.978268 0.389384
O O1 0.042247 0.235174 0.216160
O O2 0.042176 0.055648 0.209251
O O3 0.958188 0.151028 0.125064
O O4 0.045031 0.149292 0.947874
O O5 0.808437 0.309687 0.349614
O O6 0.882847 0.432003 0.309216
O O7 0.787106 0.457481 0.487056
O O8 0.785999 0.461074 0.204959
O O9 0.894022 0.205040 0.364258
O O10 0.856739 0.295026 0.596391
O O11 0.803578 0.145447 0.485766
O O12 0.090259 0.389617 0.174638
O O13 0.984337 0.389632 0.214621
O O14 0.114737 0.551421 0.245675
O O15 0.914858 0.013999 0.539683
O O16 0.817553 0.976314 0.443225
#
# Coordination Sequence:
#
# PCOD9432822 Si02
#       8
#     8   8   8   8   8   8   8   8
#     4  12  25  38  65  94 125 172 213 259 333 384
#     4  11  23  39  58  85 125 162 217 260 317 375
#     4  11  22  36  57  85 126 164 217 256 308 382
#     4  12  25  41  64  94 128 166 212 267 325 393
#     4  11  22  37  57  88 127 168 211 261 318 381
#     4  11  24  44  63  94 130 170 217 273 321 390
#     4  10  24  38  58  88 118 176 207 266 318 375
#     4  10  24  41  61  86 127 166 212 268 326 377
#
# _framework density 20.368607999999998
#
# number of rings (size 3 to 8) (size 9 to 14) (size 15 to 20)
#    0.000    1.000    2.500    4.125   10.500    1.000 
#    0.000    0.000    0.000    0.750    0.000    5.250 
#    0.000    0.000    0.000    0.000    0.000    0.000 
#
# Total GULP energy -357513.135867 kJ/mol
# GULP energy per Si atom -5586.142748 kJ/mol
# Density = 2.032225 g / cm^3
# Si number density = 20.368608 Si / 1000 Ang^3
#
#
#
# Elastic Constant Matrix: (Units=GPa)
#
#
# Indices 1 2 3 4 5 6 
#
# 1 60.1160 17.8854 26.2832 0.0000 0.0000 0.0000
# 2 17.8854 59.9770 17.3818 0.0000 0.0000 0.0000
# 3 26.2832 17.3818 63.7475 0.0000 0.0000 0.0000
# 4 0.0000 0.0000 0.0000 33.7311 0.0000 0.0000
# 5 0.0000 0.0000 0.0000 0.0000 27.1941 0.0000
# 6 0.0000 0.0000 0.0000 0.0000 0.0000 21.6480
#
#
#
# Elastic Compliance Matrix: (Units=1/GPa)
#
#
# Indices 1 2 3 4 5 6 
#
# 1 0.021187 -0.004111 -0.007614 0.000000 0.000000 0.000000
# 2 -0.004111 0.018901 -0.003459 0.000000 0.000000 0.000000
# 3 -0.007614 -0.003459 0.019769 0.000000 0.000000 0.000000
# 4 0.000000 0.000000 0.000000 0.029646 0.000000 0.000000
# 5 0.000000 0.000000 0.000000 0.000000 0.036773 0.000000
# 6 0.000000 0.000000 0.000000 0.000000 0.000000 0.046194
#
#
# Mechanical properties :
#
#
# Convention : Reuss Voigt Hill
#
# Bulk Modulus (GPa) = 33.91105 34.10459 34.00782
# Shear Modulus (GPa) = 23.51080 24.66731 24.08906
#
# Velocity S-wave (km/s) = 3.40114 3.48378 3.44271
# Velocity P-wave (km/s) = 5.66643 5.74129 5.70398
#
# Compressibility (1/GPa) = 0.02948891
#
# Stress axis : x y z
#
# Youngs Moduli (GPa) = 47.19940 52.90604 50.58339
#
# Poissons Ratio (x) = 0.21751 0.38516
# Poissons Ratio (y) = 0.19405 0.17495
# Poissons Ratio (z) = 0.35939 0.18299
#
# Static dielectric constant tensor:
#      x y z
#    x 1.745820 0.000000 0.000000 
#    y 0.000000 1.714280 0.000000 
#    z 0.000000 0.000000 1.815500 
# 
# From -- ./inp_files/4816.got.cif
#   From: 2010.05.17/outbox.cif.g08.bks.cpg/sg56_3_cif.got.tgz:4816.got - 2010.06.03 13:42:01.
