data_PCOD9432005
_publ_section_title
;
Structure prediction by ZEFSAII (Michael W. Deem and Ramdas Pophale) SiO2 
 PCOD9432005
Probable space group: P C C N
;
_chemical_formula_sum "Si O2"
_cell_formula_units_Z 60
_cell_length_a 11.878750
_cell_length_b 8.999595
_cell_length_c 26.654783
_cell_angle_alpha 90.000000
_cell_angle_beta 90.000000
_cell_angle_gamma 90.000000
_cell_volume 2849.501299
_symmetry_space_group_name_H-M "P C C N"
_symmetry_group_IT_number 56
_symmetry_cell_setting 'orthorhombic'
loop_
_space_group_symop_operation_xyz
x,y,z
1/2-x,1/2-y,z
1/2+x,-y,1/2-z
-x,1/2+y,1/2-z
-x,-y,-z
1/2+x,1/2+y,-z
1/2-x,y,1/2+z
x,1/2-y,1/2+z
loop_
_atom_site_type_symbol
_atom_site_label
_atom_site_fract_x
_atom_site_fract_y
_atom_site_fract_z
Si Si1 0.409263 0.462411 0.204929
Si Si2 0.618547 0.773503 0.873314
Si Si3 0.664705 0.066249 0.821785
Si Si4 0.124418 0.190425 0.404450
Si Si5 0.057915 0.855622 0.024312
Si Si6 0.461702 0.245551 0.791449
Si Si7 0.250000 0.750000 0.588391
Si Si8 0.046004 0.901594 0.454133
O O1 0.428906 0.374059 0.152856
O O2 0.290171 0.545596 0.198419
O O3 0.507433 0.581666 0.214392
O O4 0.394191 0.339730 0.248347
O O5 0.750000 0.750000 0.884423
O O6 0.553057 0.831065 0.921144
O O7 0.613433 0.905742 0.832801
O O8 0.582343 0.163233 0.789028
O O9 0.673531 0.150102 0.875293
O O10 0.250000 0.250000 0.412653
O O11 0.089924 0.215405 0.346415
O O12 0.036852 0.278803 0.440268
O O13 0.115175 0.016455 0.419875
O O14 0.170426 0.863471 0.058041
O O15 0.098068 0.741334 0.981026
O O16 0.000000 0.000000 0.000000
O O17 0.000000 0.000000 0.500000
#
# Coordination Sequence:
#
# PCOD9432005 Si02
#       8
#     8   8   8   8   8   8   4   8
#     4  11  25  39  70 101 130 177 228 293 351 423
#     4  10  22  38  68  98 130 175 237 289 347 421
#     4  11  20  43  69  96 135 179 234 286 349 418
#     4  11  25  45  66  94 143 184 222 283 361 425
#     4  11  26  41  71 103 138 181 238 291 353 427
#     4  12  23  44  67 100 139 173 233 290 353 423
#     4  12  22  44  72 102 142 186 238 298 354 418
#     4  10  22  42  61  96 133 179 227 284 351 410
#
# _framework density 21.056317
#
# number of rings (size 3 to 8) (size 9 to 14) (size 15 to 20)
#    0.000    1.067    4.000    1.600    7.467    4.800 
#    0.000    0.000    0.000    0.000    0.000    0.000 
#    0.000    0.000    0.000    0.000    0.000    0.000 
#
# Total GULP energy -335093.287739 kJ/mol
# GULP energy per Si atom -5584.888129 kJ/mol
# Density = 2.100839 g / cm^3
# Si number density = 21.056317 Si / 1000 Ang^3
#
#
#
# Elastic Constant Matrix: (Units=GPa)
#
#
# Indices 1 2 3 4 5 6 
#
# 1 52.4691 30.9506 29.5799 0.0000 0.0000 0.0000
# 2 30.9506 99.6618 38.3156 0.0000 0.0000 0.0000
# 3 29.5799 38.3156 100.5371 0.0000 0.0000 0.0000
# 4 0.0000 0.0000 0.0000 36.8855 0.0000 0.0000
# 5 0.0000 0.0000 0.0000 0.0000 23.2975 0.0000
# 6 0.0000 0.0000 0.0000 0.0000 0.0000 36.7983
#
#
#
# Elastic Compliance Matrix: (Units=1/GPa)
#
#
# Indices 1 2 3 4 5 6 
#
# 1 0.025501 -0.005899 -0.005255 0.000000 0.000000 0.000000
# 2 -0.005899 0.013121 -0.003265 0.000000 0.000000 0.000000
# 3 -0.005255 -0.003265 0.012737 0.000000 0.000000 0.000000
# 4 0.000000 0.000000 0.000000 0.027111 0.000000 0.000000
# 5 0.000000 0.000000 0.000000 0.000000 0.042923 0.000000
# 6 0.000000 0.000000 0.000000 0.000000 0.000000 0.027175
#
#
# Mechanical properties :
#
#
# Convention : Reuss Voigt Hill
#
# Bulk Modulus (GPa) = 44.40215 50.04003 47.22109
# Shear Modulus (GPa) = 27.03973 29.65107 28.34540
#
# Velocity S-wave (km/s) = 3.58741 3.75664 3.67300
# Velocity P-wave (km/s) = 6.18809 6.52939 6.36103
#
# Compressibility (1/GPa) = 0.02252143
#
# Stress axis : x y z
#
# Youngs Moduli (GPa) = 39.21405 76.21230 78.51232
#
# Poissons Ratio (x) = 0.44960 0.41255
# Poissons Ratio (y) = 0.23134 0.25634
# Poissons Ratio (z) = 0.20605 0.24883
#
# Static dielectric constant tensor:
#      x y z
#    x 1.658820 0.000000 0.000000 
#    y 0.000000 1.803690 0.000000 
#    z 0.000000 0.000000 1.809290 
# 
# From -- ./inp_files/22324.got.cif
#   From: 2010.05.17/outbox.cif.g08.bks.cpg/sg56_12_cif.got.tgz:22324.got - 2010.06.03 13:42:01.
