data_PCOD9432169
_publ_section_title
;
Structure prediction by ZEFSAII (Michael W. Deem and Ramdas Pophale) SiO2 
 PCOD9432169
Probable space group: P C C N
;
_chemical_formula_sum "Si O2"
_cell_formula_units_Z 60
_cell_length_a 11.072009
_cell_length_b 14.977441
_cell_length_c 18.862886
_cell_angle_alpha 90.000000
_cell_angle_beta 90.000000
_cell_angle_gamma 90.000000
_cell_volume 3128.039205
_symmetry_space_group_name_H-M "P C C N"
_symmetry_group_IT_number 56
_symmetry_cell_setting 'orthorhombic'
loop_
_space_group_symop_operation_xyz
x,y,z
1/2-x,1/2-y,z
1/2+x,-y,1/2-z
-x,1/2+y,1/2-z
-x,-y,-z
1/2+x,1/2+y,-z
1/2-x,y,1/2+z
x,1/2-y,1/2+z
loop_
_atom_site_type_symbol
_atom_site_label
_atom_site_fract_x
_atom_site_fract_y
_atom_site_fract_z
Si Si1 0.873809 0.059827 0.051404
Si Si2 0.594525 0.636810 0.008485
Si Si3 0.250000 0.250000 0.601679
Si Si4 0.809547 0.346486 0.139639
Si Si5 0.517730 0.935713 0.300501
Si Si6 0.230380 0.995390 0.755840
Si Si7 0.454128 0.219822 0.196862
Si Si8 0.341246 0.169614 0.332168
O O1 0.746097 0.099124 0.074544
O O2 0.955465 0.044451 0.122882
O O3 0.864262 0.966737 0.010846
O O4 0.952671 0.131062 0.008194
O O5 0.620127 0.673056 0.086654
O O6 0.664772 0.691532 0.948714
O O7 0.169273 0.195184 0.656854
O O8 0.750000 0.250000 0.140938
O O9 0.771540 0.404146 0.207392
O O10 0.948350 0.325860 0.147112
O O11 0.653281 0.976465 0.292746
O O12 0.528671 0.827293 0.297914
O O13 0.415385 0.973851 0.244409
O O14 0.224004 0.077333 0.811901
O O15 0.449257 0.181923 0.276122
O O16 0.250000 0.250000 0.317527
#
# Coordination Sequence:
#
# PCOD9432169 Si02
#       8
#     8   8   4   8   8   8   8   8
#     4  10  22  41  62  87 126 172 225 253 334 402
#     4  11  22  39  63  91 123 174 212 266 324 403
#     4  12  22  38  66  96 124 170 228 264 324 416
#     4  11  20  38  64  90 124 172 215 271 323 390
#     4  11  20  39  62  94 130 175 215 271 328 397
#     4  11  22  37  61  95 128 169 218 268 334 378
#     4  12  23  39  65  99 127 169 222 277 334 385
#     4  12  22  38  63  94 134 162 214 275 327 389
#
# _framework density 19.181346000000001
#
# number of rings (size 3 to 8) (size 9 to 14) (size 15 to 20)
#    0.000    0.800    9.333    0.800    0.000    0.000 
#    0.000    0.667    0.000   10.400    0.000    0.000 
#    0.000    0.000    0.000    0.000    0.000    0.000 
#
# Total GULP energy -334186.087900 kJ/mol
# GULP energy per Si atom -5569.768132 kJ/mol
# Density = 1.913769 g / cm^3
# Si number density = 19.181346 Si / 1000 Ang^3
#
#
#
# Elastic Constant Matrix: (Units=GPa)
#
#
# Indices 1 2 3 4 5 6 
#
# 1 99.4774 3.5389 22.7297 0.0000 0.0000 0.0000
# 2 3.5389 52.9711 -1.5193 0.0000 0.0000 0.0000
# 3 22.7297 -1.5193 61.4942 0.0000 0.0000 0.0000
# 4 0.0000 0.0000 0.0000 15.7473 0.0000 0.0000
# 5 0.0000 0.0000 0.0000 0.0000 31.8687 0.0000
# 6 0.0000 0.0000 0.0000 0.0000 0.0000 34.9451
#
#
#
# Elastic Compliance Matrix: (Units=1/GPa)
#
#
# Indices 1 2 3 4 5 6 
#
# 1 0.011018 -0.000854 -0.004094 0.000000 0.000000 0.000000
# 2 -0.000854 0.018958 0.000784 0.000000 0.000000 0.000000
# 3 -0.004094 0.000784 0.017794 0.000000 0.000000 0.000000
# 4 0.000000 0.000000 0.000000 0.063503 0.000000 0.000000
# 5 0.000000 0.000000 0.000000 0.000000 0.031379 0.000000
# 6 0.000000 0.000000 0.000000 0.000000 0.000000 0.028616
#
#
# Mechanical properties :
#
#
# Convention : Reuss Voigt Hill
#
# Bulk Modulus (GPa) = 25.35276 29.27127 27.31202
# Shear Modulus (GPa) = 25.94130 29.12511 27.53320
#
# Velocity S-wave (km/s) = 3.68152 3.90090 3.79280
# Velocity P-wave (km/s) = 5.59621 5.96513 5.78361
#
# Compressibility (1/GPa) = 0.03944343
#
# Stress axis : x y z
#
# Youngs Moduli (GPa) = 90.75835 52.74895 56.19811
#
# Poissons Ratio (x) = 0.04502 0.23006
# Poissons Ratio (y) = 0.07746 -0.04405
# Poissons Ratio (z) = 0.37154 -0.04135
#
# Static dielectric constant tensor:
#      x y z
#    x 1.707890 0.000000 0.000000 
#    y 0.000000 1.694960 0.000000 
#    z 0.000000 0.000000 1.675670 
# 
# From -- ./inp_files/15771.got.cif
#   From: 2010.05.17/outbox.cif.g08.bks.cpg/sg56_8_cif.got.tgz:15771.got - 2010.06.03 13:42:01.
