data_PCOD9432309
_publ_section_title
;
Structure prediction by ZEFSAII (Michael W. Deem and Ramdas Pophale) SiO2 
 PCOD9432309
Probable space group: P C C N
;
_chemical_formula_sum "Si O2"
_cell_formula_units_Z 32
_cell_length_a 13.100258
_cell_length_b 10.060281
_cell_length_c 8.974310
_cell_angle_alpha 90.000000
_cell_angle_beta 90.000000
_cell_angle_gamma 90.000000
_cell_volume 1182.744746
_symmetry_space_group_name_H-M "P C C N"
_symmetry_group_IT_number 56
_symmetry_cell_setting 'orthorhombic'
loop_
_space_group_symop_operation_xyz
x,y,z
1/2-x,1/2-y,z
1/2+x,-y,1/2-z
-x,1/2+y,1/2-z
-x,-y,-z
1/2+x,1/2+y,-z
1/2-x,y,1/2+z
x,1/2-y,1/2+z
loop_
_atom_site_type_symbol
_atom_site_label
_atom_site_fract_x
_atom_site_fract_y
_atom_site_fract_z
Si Si1 0.011233 0.224133 0.048043
Si Si2 0.217189 0.386437 0.487161
Si Si3 0.084322 0.426304 0.837451
Si Si4 0.169944 0.857257 0.152212
O O1 0.096858 0.132675 0.960416
O O2 0.044298 0.372367 0.996174
O O3 0.901209 0.199751 0.978407
O O4 0.027281 0.163967 0.213098
O O5 0.250000 0.250000 0.567518
O O6 0.295182 0.391635 0.351663
O O7 0.230988 0.522187 0.575446
O O8 0.095220 0.575512 0.774252
O O9 0.250000 0.750000 0.210567
#
# Coordination Sequence:
#
# PCOD9432309 Si02
#       4
#     8   8   8   8
#     4  10  23  44  71 104 143 190 246 304 366 440
#     4   9  20  40  68  98 135 184 239 297 364 436
#     4  10  22  42  71 106 144 193 246 310 374 442
#     4  11  25  44  69 108 153 195 245 309 377 448
#
# _framework density 27.055710000000001
#
# number of rings (size 3 to 8) (size 9 to 14) (size 15 to 20)
#    0.000    2.000    0.000    3.000    0.000   31.000 
#    0.000    6.250    0.000    0.000    0.000    1.750 
#    0.000    0.000    0.000    0.000    0.000    0.000 
#
# Total GULP energy -178712.546628 kJ/mol
# GULP energy per Si atom -5584.767082 kJ/mol
# Density = 2.699413 g / cm^3
# Si number density = 27.055710 Si / 1000 Ang^3
#
#
#
# Elastic Constant Matrix: (Units=GPa)
#
#
# Indices 1 2 3 4 5 6 
#
# 1 81.3993 36.3126 53.2505 0.0000 0.0000 0.0000
# 2 36.3126 172.4935 28.9852 0.0000 0.0000 0.0000
# 3 53.2505 28.9852 103.2399 0.0000 0.0000 0.0000
# 4 0.0000 0.0000 0.0000 20.8644 0.0000 0.0000
# 5 0.0000 0.0000 0.0000 0.0000 39.7786 0.0000
# 6 0.0000 0.0000 0.0000 0.0000 0.0000 47.7173
#
#
#
# Elastic Compliance Matrix: (Units=1/GPa)
#
#
# Indices 1 2 3 4 5 6 
#
# 1 0.019548 -0.002541 -0.009369 0.000000 0.000000 0.000000
# 2 -0.002541 0.006415 -0.000490 0.000000 0.000000 0.000000
# 3 -0.009369 -0.000490 0.014657 0.000000 0.000000 0.000000
# 4 0.000000 0.000000 0.000000 0.047929 0.000000 0.000000
# 5 0.000000 0.000000 0.000000 0.000000 0.025139 0.000000
# 6 0.000000 0.000000 0.000000 0.000000 0.000000 0.020957
#
#
# Mechanical properties :
#
#
# Convention : Reuss Voigt Hill
#
# Bulk Modulus (GPa) = 63.21936 66.02549 64.62242
# Shear Modulus (GPa) = 30.35504 37.57767 33.96635
#
# Velocity S-wave (km/s) = 3.35318 3.73084 3.54704
# Velocity P-wave (km/s) = 6.19749 6.55861 6.38060
#
# Compressibility (1/GPa) = 0.01581794
#
# Stress axis : x y z
#
# Youngs Moduli (GPa) = 51.15640 155.89435 68.22897
#
# Poissons Ratio (x) = 0.39609 0.63926
# Poissons Ratio (y) = 0.12998 0.03346
# Poissons Ratio (z) = 0.47930 0.07646
#
# Static dielectric constant tensor:
#      x y z
#    x 2.269900 0.000000 0.000000 
#    y 0.000000 2.217600 0.000000 
#    z 0.000000 0.000000 2.133160 
# 
# From -- ./inp_files/3109.got.cif
#   From: 2010.05.17/outbox.cif.g08.bks.cpg/sg56_2_cif.got.tgz:3109.got - 2010.06.03 13:42:01.
