data_PCOD9432177
_publ_section_title
;
Structure prediction by ZEFSAII (Michael W. Deem and Ramdas Pophale) SiO2 
 PCOD9432177
Probable space group: P C C N
;
_chemical_formula_sum "Si O2"
_cell_formula_units_Z 60
_cell_length_a 12.199507
_cell_length_b 9.085892
_cell_length_c 26.713921
_cell_angle_alpha 90.000000
_cell_angle_beta 90.000000
_cell_angle_gamma 90.000000
_cell_volume 2961.061913
_symmetry_space_group_name_H-M "P C C N"
_symmetry_group_IT_number 56
_symmetry_cell_setting 'orthorhombic'
loop_
_space_group_symop_operation_xyz
x,y,z
1/2-x,1/2-y,z
1/2+x,-y,1/2-z
-x,1/2+y,1/2-z
-x,-y,-z
1/2+x,1/2+y,-z
1/2-x,y,1/2+z
x,1/2-y,1/2+z
loop_
_atom_site_type_symbol
_atom_site_label
_atom_site_fract_x
_atom_site_fract_y
_atom_site_fract_z
Si Si1 0.596158 0.205191 0.580348
Si Si2 0.080788 0.016024 0.136128
Si Si3 0.997025 0.422803 0.145119
Si Si4 0.750000 0.750000 0.589842
Si Si5 0.064135 0.247033 0.838459
Si Si6 0.119038 0.252899 0.721747
Si Si7 0.790510 0.584164 0.923555
Si Si8 0.803410 0.463005 0.032309
O O1 0.597234 0.303713 0.631434
O O2 0.599208 0.344863 0.541791
O O3 0.697426 0.109451 0.559911
O O4 0.496095 0.095074 0.593588
O O5 0.038504 0.855155 0.149296
O O6 0.077537 0.112589 0.186961
O O7 0.202856 0.019066 0.115106
O O8 0.057064 0.384802 0.196772
O O9 0.092639 0.405995 0.103647
O O10 0.952912 0.585843 0.145091
O O11 0.661742 0.818860 0.627841
O O12 0.691597 0.625759 0.556296
O O13 0.092602 0.253780 0.780079
O O14 0.250000 0.250000 0.715077
O O15 0.750000 0.750000 0.935063
O O16 0.790498 0.488456 0.973568
#
# Coordination Sequence:
#
# PCOD9432177 Si02
#       8
#     8   8   8   4   8   8   8   8
#     4  10  22  41  64  91 132 168 211 273 316 371
#     4  11  23  44  68  95 130 175 214 270 320 388
#     4  11  23  44  68  95 130 175 214 270 320 388
#     4  12  22  40  60  98 128 170 214 278 308 386
#     4  12  25  40  69  98 132 168 220 266 329 383
#     4  11  21  44  70  94 130 171 215 265 333 386
#     4  12  23  44  70  89 131 176 215 269 325 380
#     4  11  24  41  63  97 131 167 224 265 317 388
#
# _framework density 20.263000999999999
#
# number of rings (size 3 to 8) (size 9 to 14) (size 15 to 20)
#    0.000    0.800    8.000    0.800    0.000    3.733 
#    4.800    0.000    0.000    0.000    0.000    0.000 
#    0.000    0.000    0.000    0.000    0.000    0.000 
#
# Total GULP energy -334462.892346 kJ/mol
# GULP energy per Si atom -5574.381539 kJ/mol
# Density = 2.021688 g / cm^3
# Si number density = 20.263001 Si / 1000 Ang^3
#
#
#
# Elastic Constant Matrix: (Units=GPa)
#
#
# Indices 1 2 3 4 5 6 
#
# 1 36.2824 -12.3832 17.9686 0.0000 0.0000 0.0000
# 2 -12.3832 40.7888 20.2049 0.0000 0.0000 0.0000
# 3 17.9686 20.2049 101.9893 0.0000 0.0000 0.0000
# 4 0.0000 0.0000 0.0000 14.2894 0.0000 0.0000
# 5 0.0000 0.0000 0.0000 0.0000 1.8797 0.0000
# 6 0.0000 0.0000 0.0000 0.0000 0.0000 24.4371
#
#
#
# Elastic Compliance Matrix: (Units=1/GPa)
#
#
# Indices 1 2 3 4 5 6 
#
# 1 0.038158 0.016537 -0.009999 0.000000 0.000000 0.000000
# 2 0.016537 0.034351 -0.009719 0.000000 0.000000 0.000000
# 3 -0.009999 -0.009719 0.013492 0.000000 0.000000 0.000000
# 4 0.000000 0.000000 0.000000 0.069982 0.000000 0.000000
# 5 0.000000 0.000000 0.000000 0.000000 0.532012 0.000000
# 6 0.000000 0.000000 0.000000 0.000000 0.000000 0.040921
#
#
# Mechanical properties :
#
#
# Convention : Reuss Voigt Hill
#
# Bulk Modulus (GPa) = 12.55646 25.62678 19.09162
# Shear Modulus (GPa) = 6.56320 18.33924 12.45122
#
# Velocity S-wave (km/s) = 1.80168 3.01169 2.48156
# Velocity P-wave (km/s) = 3.24627 4.97677 4.20157
#
# Compressibility (1/GPa) = 0.07964027
#
# Stress axis : x y z
#
# Youngs Moduli (GPa) = 26.20709 29.11087 74.11835
#
# Poissons Ratio (x) = -0.48142 0.74110
# Poissons Ratio (y) = -0.43339 0.72035
# Poissons Ratio (z) = 0.26204 0.28292
#
# Static dielectric constant tensor:
#      x y z
#    x 1.762480 0.000000 0.000000 
#    y 0.000000 1.757810 0.000000 
#    z 0.000000 0.000000 1.706760 
# 
# From -- ./inp_files/22314.got.cif
#   From: 2010.05.17/outbox.cif.g08.bks.cpg/sg56_12_cif.got.tgz:22314.got - 2010.06.03 13:42:01.
