data_PCOD9432853
_publ_section_title
;
Structure prediction by ZEFSAII (Michael W. Deem and Ramdas Pophale) SiO2 
 PCOD9432853
Probable space group: P C C N
;
_chemical_formula_sum "Si O2"
_cell_formula_units_Z 40
_cell_length_a 11.827105
_cell_length_b 10.930243
_cell_length_c 14.688078
_cell_angle_alpha 90.000000
_cell_angle_beta 90.000000
_cell_angle_gamma 90.000000
_cell_volume 1898.773841
_symmetry_space_group_name_H-M "P C C N"
_symmetry_group_IT_number 56
_symmetry_cell_setting 'orthorhombic'
loop_
_space_group_symop_operation_xyz
x,y,z
1/2-x,1/2-y,z
1/2+x,-y,1/2-z
-x,1/2+y,1/2-z
-x,-y,-z
1/2+x,1/2+y,-z
1/2-x,y,1/2+z
x,1/2-y,1/2+z
loop_
_atom_site_type_symbol
_atom_site_label
_atom_site_fract_x
_atom_site_fract_y
_atom_site_fract_z
Si Si1 0.350792 0.990787 0.726826
Si Si2 0.414024 0.684861 0.364522
Si Si3 0.192841 0.047120 0.417936
Si Si4 0.558044 0.034312 0.594674
Si Si5 0.673534 0.633109 0.381834
O O1 0.356751 0.076609 0.817957
O O2 0.463622 0.008203 0.669637
O O3 0.242047 0.023142 0.666113
O O4 0.350501 0.856247 0.772142
O O5 0.358936 0.588851 0.435420
O O6 0.408313 0.823410 0.395678
O O7 0.545505 0.650589 0.350895
O O8 0.169409 0.121867 0.508410
O O9 0.326331 0.040394 0.400312
O O10 0.500000 0.000000 0.500000
O O11 0.750000 0.750000 0.359128
#
# Coordination Sequence:
#
# PCOD9432853 Si02
#       5
#     8   8   8   8   8
#     4  10  24  41  68  96 137 173 223 291 330 424
#     4  10  24  42  67  96 136 173 228 284 336 417
#     4  10  24  41  66  96 138 170 232 281 344 414
#     4  12  21  47  68  97 134 181 230 278 353 414
#     4  12  21  45  68  99 136 183 231 281 345 408
#
# _framework density 21.066226
#
# number of rings (size 3 to 8) (size 9 to 14) (size 15 to 20)
#    1.200    0.000    4.000    2.400    0.000    0.800 
#    7.200    2.000    0.000    0.000    0.000    0.000 
#    0.000    0.000    0.000    0.000    0.000    0.000 
#
# Total GULP energy -223030.042848 kJ/mol
# GULP energy per Si atom -5575.751071 kJ/mol
# Density = 2.101828 g / cm^3
# Si number density = 21.066226 Si / 1000 Ang^3
#
#
#
# Elastic Constant Matrix: (Units=GPa)
#
#
# Indices 1 2 3 4 5 6 
#
# 1 94.2493 4.1034 28.6770 0.0000 0.0000 0.0000
# 2 4.1034 42.9175 20.6609 0.0000 0.0000 0.0000
# 3 28.6770 20.6609 118.1338 0.0000 0.0000 0.0000
# 4 0.0000 0.0000 0.0000 18.8369 0.0000 0.0000
# 5 0.0000 0.0000 0.0000 0.0000 33.8839 0.0000
# 6 0.0000 0.0000 0.0000 0.0000 0.0000 12.7821
#
#
#
# Elastic Compliance Matrix: (Units=1/GPa)
#
#
# Indices 1 2 3 4 5 6 
#
# 1 0.011459 0.000266 -0.002828 0.000000 0.000000 0.000000
# 2 0.000266 0.025449 -0.004515 0.000000 0.000000 0.000000
# 3 -0.002828 -0.004515 0.009941 0.000000 0.000000 0.000000
# 4 0.000000 0.000000 0.000000 0.053087 0.000000 0.000000
# 5 0.000000 0.000000 0.000000 0.000000 0.029513 0.000000
# 6 0.000000 0.000000 0.000000 0.000000 0.000000 0.078234
#
#
# Mechanical properties :
#
#
# Convention : Reuss Voigt Hill
#
# Bulk Modulus (GPa) = 30.58681 40.24257 35.41469
# Shear Modulus (GPa) = 21.48351 26.55788 24.02070
#
# Velocity S-wave (km/s) = 3.19691 3.55446 3.38042
# Velocity P-wave (km/s) = 5.30828 5.99916 5.66427
#
# Compressibility (1/GPa) = 0.03269383
#
# Stress axis : x y z
#
# Youngs Moduli (GPa) = 87.26680 39.29444 100.59102
#
# Poissons Ratio (x) = -0.01045 0.28449
# Poissons Ratio (y) = -0.02321 0.45421
# Poissons Ratio (z) = 0.24681 0.17743
#
# Static dielectric constant tensor:
#      x y z
#    x 1.619240 0.000000 0.000000 
#    y 0.000000 1.743720 0.000000 
#    z 0.000000 0.000000 1.773510 
# 
# From -- ./inp_files/11420.got.cif
#   From: 2010.05.17/outbox.cif.g08.bks.cpg/sg56_6_cif.got.tgz:11420.got - 2010.06.03 13:42:01.
