data_PCOD9432485
_publ_section_title
;
Structure prediction by ZEFSAII (Michael W. Deem and Ramdas Pophale) SiO2 
 PCOD9432485
Probable space group: P C C N
;
_chemical_formula_sum "Si O2"
_cell_formula_units_Z 40
_cell_length_a 8.247403
_cell_length_b 9.286918
_cell_length_c 21.073750
_cell_angle_alpha 90.000000
_cell_angle_beta 90.000000
_cell_angle_gamma 90.000000
_cell_volume 1614.100793
_symmetry_space_group_name_H-M "P C C N"
_symmetry_group_IT_number 56
_symmetry_cell_setting 'orthorhombic'
loop_
_space_group_symop_operation_xyz
x,y,z
1/2-x,1/2-y,z
1/2+x,-y,1/2-z
-x,1/2+y,1/2-z
-x,-y,-z
1/2+x,1/2+y,-z
1/2-x,y,1/2+z
x,1/2-y,1/2+z
loop_
_atom_site_type_symbol
_atom_site_label
_atom_site_fract_x
_atom_site_fract_y
_atom_site_fract_z
Si Si1 0.940236 0.779982 0.828328
Si Si2 0.932253 0.653605 0.471939
Si Si3 0.484236 0.613086 0.557581
Si Si4 0.500081 0.423814 0.770065
Si Si5 0.750000 0.250000 0.355246
Si Si6 0.250000 0.250000 0.850543
O O1 0.750000 0.750000 0.827954
O O2 0.979427 0.832212 0.898724
O O3 0.015192 0.632556 0.801697
O O4 0.986390 0.907143 0.780049
O O5 0.750000 0.750000 0.475556
O O6 0.000000 0.500000 0.500000
O O7 0.042872 0.747669 0.516129
O O8 0.500000 0.500000 0.500000
O O9 0.332252 0.619631 0.604418
O O10 0.636313 0.653132 0.603064
O O11 0.631884 0.339462 0.810926
O O12 0.340063 0.361698 0.804288
#
# Coordination Sequence:
#
# PCOD9432485 Si02
#       6
#     8   8   8   8   4   4
#     4  11  27  46  77 110 154 210 262 325 403 478
#     4  11  25  48  80 114 163 211 265 336 411 493
#     4  11  25  41  75 110 150 204 267 320 409 484
#     4  11  25  47  75 105 153 196 267 319 402 470
#     4  10  26  42  74 106 152 200 250 338 394 466
#     4  10  22  46  72 108 156 202 250 338 398 460
#
# _framework density 24.781599
#
# number of rings (size 3 to 8) (size 9 to 14) (size 15 to 20)
#    0.000    1.200    2.000    2.400   11.200    1.600 
#    0.000    2.000    0.000    0.000    0.000    0.000 
#    0.000    0.000    0.000    0.000    0.000    0.000 
#
# Total GULP energy -222761.549422 kJ/mol
# GULP energy per Si atom -5569.038736 kJ/mol
# Density = 2.472519 g / cm^3
# Si number density = 24.781599 Si / 1000 Ang^3
#
#
#
# Elastic Constant Matrix: (Units=GPa)
#
#
# Indices 1 2 3 4 5 6 
#
# 1 83.0515 14.2688 40.6062 0.0000 0.0000 0.0000
# 2 14.2688 133.8131 44.2787 0.0000 0.0000 0.0000
# 3 40.6062 44.2787 158.4284 0.0000 0.0000 0.0000
# 4 0.0000 0.0000 0.0000 61.4913 0.0000 0.0000
# 5 0.0000 0.0000 0.0000 0.0000 31.2319 0.0000
# 6 0.0000 0.0000 0.0000 0.0000 0.0000 24.3461
#
#
#
# Elastic Compliance Matrix: (Units=1/GPa)
#
#
# Indices 1 2 3 4 5 6 
#
# 1 0.013779 -0.000331 -0.003439 0.000000 0.000000 0.000000
# 2 -0.000331 0.008243 -0.002219 0.000000 0.000000 0.000000
# 3 -0.003439 -0.002219 0.007814 0.000000 0.000000 0.000000
# 4 0.000000 0.000000 0.000000 0.016262 0.000000 0.000000
# 5 0.000000 0.000000 0.000000 0.000000 0.032018 0.000000
# 6 0.000000 0.000000 0.000000 0.000000 0.000000 0.041074
#
#
# Mechanical properties :
#
#
# Convention : Reuss Voigt Hill
#
# Bulk Modulus (GPa) = 56.00056 63.73338 59.86697
# Shear Modulus (GPa) = 36.46408 41.82315 39.14361
#
# Velocity S-wave (km/s) = 3.84007 4.11258 3.97866
# Velocity P-wave (km/s) = 6.50447 6.95162 6.73176
#
# Compressibility (1/GPa) = 0.01785696
#
# Stress axis : x y z
#
# Youngs Moduli (GPa) = 72.57365 121.32034 127.98226
#
# Poissons Ratio (x) = 0.04020 0.44014
# Poissons Ratio (y) = 0.02404 0.28397
# Poissons Ratio (z) = 0.24959 0.26919
#
# Static dielectric constant tensor:
#      x y z
#    x 2.171310 0.000000 0.000000 
#    y 0.000000 1.986020 0.000000 
#    z 0.000000 0.000000 1.824250 
# 
# From -- ./inp_files/20365.got.cif
#   From: 2010.05.17/outbox.cif.g08.bks.cpg/sg56_11_cif.got.tgz:20365.got - 2010.06.03 13:42:01.
