data_PCOD9432477
_publ_section_title
;
Structure prediction by ZEFSAII (Michael W. Deem and Ramdas Pophale) SiO2 
 PCOD9432477
Probable space group: P C C N
;
_chemical_formula_sum "Si O2"
_cell_formula_units_Z 44
_cell_length_a 8.760906
_cell_length_b 21.372171
_cell_length_c 9.245341
_cell_angle_alpha 90.000000
_cell_angle_beta 90.000000
_cell_angle_gamma 90.000000
_cell_volume 1731.093776
_symmetry_space_group_name_H-M "P C C N"
_symmetry_group_IT_number 56
_symmetry_cell_setting 'orthorhombic'
loop_
_space_group_symop_operation_xyz
x,y,z
1/2-x,1/2-y,z
1/2+x,-y,1/2-z
-x,1/2+y,1/2-z
-x,-y,-z
1/2+x,1/2+y,-z
1/2-x,y,1/2+z
x,1/2-y,1/2+z
loop_
_atom_site_type_symbol
_atom_site_label
_atom_site_fract_x
_atom_site_fract_y
_atom_site_fract_z
Si Si1 0.105706 0.967371 0.881644
Si Si2 0.465342 0.342328 0.503864
Si Si3 0.736766 0.822821 0.720610
Si Si4 0.425294 0.868781 0.594846
Si Si5 0.250000 0.750000 0.036531
Si Si6 0.575963 0.036586 0.159029
O O1 0.273751 0.994981 0.900243
O O2 0.102211 0.895509 0.934336
O O3 0.042631 0.989192 0.728158
O O4 0.000000 0.000000 0.000000
O O5 0.325002 0.327234 0.614893
O O6 0.398724 0.345514 0.341486
O O7 0.604135 0.291643 0.526961
O O8 0.516473 0.411277 0.550670
O O9 0.750000 0.750000 0.684678
O O10 0.601637 0.857556 0.633130
O O11 0.338915 0.804305 0.619191
O O12 0.365122 0.920331 0.706712
#
# Coordination Sequence:
#
# PCOD9432477 Si02
#       6
#     8   8   8   8   4   8
#     4  10  22  46  70 100 139 183 253 309 367 447
#     4  11  25  45  72 105 151 192 250 301 385 448
#     4  11  23  43  66 104 145 192 235 305 367 453
#     4  10  23  43  67 102 149 185 251 302 377 455
#     4  12  22  46  72 106 146 202 246 306 374 464
#     4  10  23  44  70 103 139 194 240 311 382 437
#
# _framework density 25.417456000000001
#
# number of rings (size 3 to 8) (size 9 to 14) (size 15 to 20)
#    0.000    1.455    3.636    0.545    2.545    2.909 
#    3.273    3.636    0.000    0.000    0.000    0.000 
#    0.000    0.000    0.000    0.000    0.000    0.000 
#
# Total GULP energy -245688.421890 kJ/mol
# GULP energy per Si atom -5583.827770 kJ/mol
# Density = 2.535960 g / cm^3
# Si number density = 25.417456 Si / 1000 Ang^3
#
#
#
# Elastic Constant Matrix: (Units=GPa)
#
#
# Indices 1 2 3 4 5 6 
#
# 1 114.3491 30.7249 54.7270 0.0000 0.0000 0.0000
# 2 30.7249 75.0309 31.6307 0.0000 0.0000 0.0000
# 3 54.7270 31.6307 88.9511 0.0000 0.0000 0.0000
# 4 0.0000 0.0000 0.0000 26.1902 0.0000 0.0000
# 5 0.0000 0.0000 0.0000 0.0000 36.6072 0.0000
# 6 0.0000 0.0000 0.0000 0.0000 0.0000 47.6502
#
#
#
# Elastic Compliance Matrix: (Units=1/GPa)
#
#
# Indices 1 2 3 4 5 6 
#
# 1 0.012708 -0.002244 -0.007021 0.000000 0.000000 0.000000
# 2 -0.002244 0.016074 -0.004335 0.000000 0.000000 0.000000
# 3 -0.007021 -0.004335 0.017103 0.000000 0.000000 0.000000
# 4 0.000000 0.000000 0.000000 0.038182 0.000000 0.000000
# 5 0.000000 0.000000 0.000000 0.000000 0.027317 0.000000
# 6 0.000000 0.000000 0.000000 0.000000 0.000000 0.020986
#
#
# Mechanical properties :
#
#
# Convention : Reuss Voigt Hill
#
# Bulk Modulus (GPa) = 53.51737 56.94404 55.23071
# Shear Modulus (GPa) = 30.15676 32.83941 31.49809
#
# Velocity S-wave (km/s) = 3.44824 3.59834 3.52409
# Velocity P-wave (km/s) = 6.07905 6.30208 6.19157
#
# Compressibility (1/GPa) = 0.01868552
#
# Stress axis : x y z
#
# Youngs Moduli (GPa) = 78.68915 62.21040 58.46866
#
# Poissons Ratio (x) = 0.13962 0.41049
# Poissons Ratio (y) = 0.17660 0.25348
# Poissons Ratio (z) = 0.55245 0.26970
#
# Static dielectric constant tensor:
#      x y z
#    x -1.463980 0.000000 0.000000 
#    y 0.000000 2.012690 0.000000 
#    z 0.000000 0.000000 2.133490 
# 
# From -- ./inp_files/6358.got.cif
#   From: 2010.05.17/outbox.cif.g08.bks.cpg/sg56_4_cif.got.tgz:6358.got - 2010.06.03 13:42:01.
