data_PCOD9432542
_publ_section_title
;
Structure prediction by ZEFSAII (Michael W. Deem and Ramdas Pophale) SiO2 
 PCOD9432542
Probable space group: P C C N
;
_chemical_formula_sum "Si O2"
_cell_formula_units_Z 32
_cell_length_a 10.083867
_cell_length_b 9.367829
_cell_length_c 14.155771
_cell_angle_alpha 90.000000
_cell_angle_beta 90.000000
_cell_angle_gamma 90.000000
_cell_volume 1337.209927
_symmetry_space_group_name_H-M "P C C N"
_symmetry_group_IT_number 56
_symmetry_cell_setting 'orthorhombic'
loop_
_space_group_symop_operation_xyz
x,y,z
1/2-x,1/2-y,z
1/2+x,-y,1/2-z
-x,1/2+y,1/2-z
-x,-y,-z
1/2+x,1/2+y,-z
1/2-x,y,1/2+z
x,1/2-y,1/2+z
loop_
_atom_site_type_symbol
_atom_site_label
_atom_site_fract_x
_atom_site_fract_y
_atom_site_fract_z
Si Si1 0.537962 0.254969 0.169603
Si Si2 0.558438 0.044348 0.824515
Si Si3 0.498101 0.291213 0.958334
Si Si4 0.172799 0.443315 0.592544
O O1 0.615716 0.363118 0.237126
O O2 0.393563 0.334698 0.167456
O O3 0.526024 0.093778 0.203503
O O4 0.570268 0.252895 0.058200
O O5 0.483799 0.157168 0.890979
O O6 0.677875 0.979183 0.885928
O O7 0.588480 0.411637 0.911018
O O8 0.362973 0.366205 0.993477
#
# Coordination Sequence:
#
# PCOD9432542 Si02
#       4
#     8   8   8   8
#     4  10  23  39  66 102 136 175 234 282 340 420
#     4  12  21  41  73  96 140 183 222 293 344 403
#     4   9  21  42  66  95 139 177 233 286 333 425
#     4   9  21  42  68  95 139 179 229 286 347 404
#
# _framework density 23.930426000000001
#
# number of rings (size 3 to 8) (size 9 to 14) (size 15 to 20)
#    1.500    0.500    0.000    3.750    0.000    0.000 
#    0.000   12.500   16.500    0.000    0.000    0.000 
#    0.000    0.000    0.000    0.000    0.000    0.000 
#
# Total GULP energy -178579.651867 kJ/mol
# GULP energy per Si atom -5580.614121 kJ/mol
# Density = 2.387596 g / cm^3
# Si number density = 23.930426 Si / 1000 Ang^3
#
#
#
# Elastic Constant Matrix: (Units=GPa)
#
#
# Indices 1 2 3 4 5 6 
#
# 1 47.4383 15.3999 -3.7377 0.0000 0.0000 0.0000
# 2 15.3999 199.8858 51.6335 0.0000 0.0000 0.0000
# 3 -3.7377 51.6335 111.3277 0.0000 0.0000 0.0000
# 4 0.0000 0.0000 0.0000 36.0947 0.0000 0.0000
# 5 0.0000 0.0000 0.0000 0.0000 23.5718 0.0000
# 6 0.0000 0.0000 0.0000 0.0000 0.0000 27.1297
#
#
#
# Elastic Compliance Matrix: (Units=1/GPa)
#
#
# Indices 1 2 3 4 5 6 
#
# 1 0.021909 -0.002134 0.001725 0.000000 0.000000 0.000000
# 2 -0.002134 0.005892 -0.002804 0.000000 0.000000 0.000000
# 3 0.001725 -0.002804 0.010341 0.000000 0.000000 0.000000
# 4 0.000000 0.000000 0.000000 0.027705 0.000000 0.000000
# 5 0.000000 0.000000 0.000000 0.000000 0.042424 0.000000
# 6 0.000000 0.000000 0.000000 0.000000 0.000000 0.036860
#
#
# Mechanical properties :
#
#
# Convention : Reuss Voigt Hill
#
# Bulk Modulus (GPa) = 31.52991 53.91591 42.72291
# Shear Modulus (GPa) = 30.84009 37.04966 33.94487
#
# Velocity S-wave (km/s) = 3.59380 3.93902 3.77036
# Velocity P-wave (km/s) = 5.51586 6.57776 6.07008
#
# Compressibility (1/GPa) = 0.03171591
#
# Stress axis : x y z
#
# Youngs Moduli (GPa) = 45.64432 169.73386 96.70292
#
# Poissons Ratio (x) = 0.36213 -0.16682
# Poissons Ratio (y) = 0.09738 0.27117
# Poissons Ratio (z) = -0.07874 0.47596
#
# Static dielectric constant tensor:
#      x y z
#    x 1.950940 0.000000 0.000000 
#    y 0.000000 1.933730 0.000000 
#    z 0.000000 0.000000 1.948660 
# 
# From -- ./inp_files/11225.got.cif
#   From: 2010.05.17/outbox.cif.g08.bks.cpg/sg56_6_cif.got.tgz:11225.got - 2010.06.03 13:42:01.
