data_PCOD9432243
_publ_section_title
;
Structure prediction by ZEFSAII (Michael W. Deem and Ramdas Pophale) SiO2 
 PCOD9432243
Probable space group: P C C N
;
_chemical_formula_sum "Si O2"
_cell_formula_units_Z 48
_cell_length_a 5.115557
_cell_length_b 27.351733
_cell_length_c 14.613958
_cell_angle_alpha 90.000000
_cell_angle_beta 90.000000
_cell_angle_gamma 90.000000
_cell_volume 2044.775493
_symmetry_space_group_name_H-M "P C C N"
_symmetry_group_IT_number 56
_symmetry_cell_setting 'orthorhombic'
loop_
_space_group_symop_operation_xyz
x,y,z
1/2-x,1/2-y,z
1/2+x,-y,1/2-z
-x,1/2+y,1/2-z
-x,-y,-z
1/2+x,1/2+y,-z
1/2-x,y,1/2+z
x,1/2-y,1/2+z
loop_
_atom_site_type_symbol
_atom_site_label
_atom_site_fract_x
_atom_site_fract_y
_atom_site_fract_z
Si Si1 0.750000 0.250000 0.184560
Si Si2 0.040159 0.398882 0.609537
Si Si3 0.540162 0.398882 0.890463
Si Si4 0.455952 0.348831 0.391767
Si Si5 0.779066 1.000000 0.809393
Si Si6 0.250000 0.250000 0.315440
Si Si7 0.044045 0.651169 0.891766
O O1 0.500000 0.250000 0.250000
O O2 0.811053 0.297632 0.124253
O O3 0.999998 0.395410 0.500000
O O4 0.251529 0.358681 0.644301
O O5 0.153760 0.451366 0.634230
O O6 0.749764 0.388466 0.646301
O O7 0.249767 0.388466 0.853699
O O8 0.653763 0.451366 0.865771
O O9 0.751533 0.358681 0.855699
O O10 0.311050 0.297632 0.375747
O O11 0.499998 0.354668 0.500000
O O12 0.982083 0.000000 0.724643
#
# Coordination Sequence:
#
# PCOD9432243 Si02
#       7
#     4   8   8   8   8   4   8
#     4  12  26  40  62  96 130 164 202 260 328 380
#     4  10  22  42  64  88 120 163 212 257 303 366
#     4  10  22  42  64  88 120 163 212 257 303 366
#     4  10  23  42  65  89 120 166 213 256 305 371
#     4  12  25  38  61  94 126 162 200 254 321 376
#     4  12  26  40  62  96 130 164 202 260 328 380
#     4  10  23  42  65  89 120 166 213 256 305 371
#
# _framework density 23.474457999999998
#
# number of rings (size 3 to 8) (size 9 to 14) (size 15 to 20)
#    0.000    1.333    0.000    4.500    0.000   13.333 
#    0.000    6.667    0.000    0.000    0.000    0.000 
#    0.000    0.000    0.000    0.000    0.000    0.000 
#
# Total GULP energy -268262.297765 kJ/mol
# GULP energy per Si atom -5588.797870 kJ/mol
# Density = 2.342103 g / cm^3
# Si number density = 23.474458 Si / 1000 Ang^3
#
#
#
# Elastic Constant Matrix: (Units=GPa)
#
#
# Indices 1 2 3 4 5 6 
#
# 1 165.8865 48.2821 23.9628 0.0000 0.0000 0.0000
# 2 48.2821 114.7083 -9.0141 0.0000 0.0000 0.0000
# 3 23.9628 -9.0141 47.2969 0.0000 0.0000 0.0000
# 4 0.0000 0.0000 0.0000 29.0827 0.0000 0.0000
# 5 0.0000 0.0000 0.0000 0.0000 24.0559 0.0000
# 6 0.0000 0.0000 0.0000 0.0000 0.0000 37.1858
#
#
#
# Elastic Compliance Matrix: (Units=1/GPa)
#
#
# Indices 1 2 3 4 5 6 
#
# 1 0.007750 -0.003625 -0.004618 0.000000 0.000000 0.000000
# 2 -0.003625 0.010546 0.003847 0.000000 0.000000 0.000000
# 3 -0.004618 0.003847 0.024216 0.000000 0.000000 0.000000
# 4 0.000000 0.000000 0.000000 0.034385 0.000000 0.000000
# 5 0.000000 0.000000 0.000000 0.000000 0.041570 0.000000
# 6 0.000000 0.000000 0.000000 0.000000 0.000000 0.026892
#
#
# Mechanical properties :
#
#
# Convention : Reuss Voigt Hill
#
# Bulk Modulus (GPa) = 29.65637 50.48370 40.07004
# Shear Modulus (GPa) = 30.23152 35.70896 32.97024
#
# Velocity S-wave (km/s) = 3.59255 3.90447 3.75175
# Velocity P-wave (km/s) = 5.46530 6.47140 5.98951
#
# Compressibility (1/GPa) = 0.03371956
#
# Stress axis : x y z
#
# Youngs Moduli (GPa) = 129.02677 94.82393 41.29569
#
# Poissons Ratio (x) = 0.34374 0.19069
# Poissons Ratio (y) = 0.46773 -0.15884
# Poissons Ratio (z) = 0.59579 -0.36474
#
# Static dielectric constant tensor:
#      x y z
#    x 1.877740 0.000000 0.000000 
#    y 0.000000 1.928490 0.000000 
#    z 0.000000 0.000000 1.897840 
# 
# From -- ./inp_files/9736.got.cif
#   From: 2010.05.17/outbox.cif.g08.bks.cpg/sg56_5_cif.got.tgz:9736.got - 2010.06.03 13:42:01.
