data_PCOD9432882
_publ_section_title
;
Structure prediction by ZEFSAII (Michael W. Deem and Ramdas Pophale) SiO2 
 PCOD9432882
Probable space group: P C C N
;
_chemical_formula_sum "Si O2"
_cell_formula_units_Z 36
_cell_length_a 19.669842
_cell_length_b 8.257439
_cell_length_c 8.930761
_cell_angle_alpha 90.000000
_cell_angle_beta 90.000000
_cell_angle_gamma 90.000000
_cell_volume 1450.556711
_symmetry_space_group_name_H-M "P C C N"
_symmetry_group_IT_number 56
_symmetry_cell_setting 'orthorhombic'
loop_
_space_group_symop_operation_xyz
x,y,z
1/2-x,1/2-y,z
1/2+x,-y,1/2-z
-x,1/2+y,1/2-z
-x,-y,-z
1/2+x,1/2+y,-z
1/2-x,y,1/2+z
x,1/2-y,1/2+z
loop_
_atom_site_type_symbol
_atom_site_label
_atom_site_fract_x
_atom_site_fract_y
_atom_site_fract_z
Si Si1 0.830523 0.741292 0.454129
Si Si2 0.967769 0.144619 0.901100
Si Si3 0.250000 0.750000 0.182897
Si Si4 0.164633 0.901713 0.939515
Si Si5 0.084556 0.397334 0.825347
O O1 0.750000 0.750000 0.426569
O O2 0.844325 0.593655 0.571466
O O3 0.863404 0.897483 0.534820
O O4 0.873819 0.685166 0.311495
O O5 0.901421 0.186947 0.997122
O O6 0.020244 0.287939 0.872832
O O7 0.943341 0.062897 0.745828
O O8 0.000000 0.000000 0.000000
O O9 0.219024 0.882031 0.072873
O O10 0.306477 0.825411 0.290265
#
# Coordination Sequence:
#
# PCOD9432882 Si02
#       5
#     8   8   4   8   8
#     4  11  25  42  68  99 132 175 226 276 330 398
#     4  11  24  45  65 100 135 170 223 275 331 397
#     4  10  24  44  64  98 126 182 210 272 340 390
#     4  10  24  42  67  93 135 167 223 271 328 403
#     4  11  24  45  69  97 136 177 222 281 330 394
#
# _framework density 24.818057
#
# number of rings (size 3 to 8) (size 9 to 14) (size 15 to 20)
#    0.000    1.333    4.444    0.667   12.444    0.889 
#    4.000    0.000    0.000    0.000    0.000    0.000 
#    0.000    0.000    0.000    0.000    0.000    0.000 
#
# Total GULP energy -201648.624217 kJ/mol
# GULP energy per Si atom -5601.350673 kJ/mol
# Density = 2.476157 g / cm^3
# Si number density = 24.818057 Si / 1000 Ang^3
#
#
#
# Elastic Constant Matrix: (Units=GPa)
#
#
# Indices 1 2 3 4 5 6 
#
# 1 148.3766 19.9694 29.2160 0.0000 0.0000 0.0000
# 2 19.9694 61.2704 24.4647 0.0000 0.0000 0.0000
# 3 29.2160 24.4647 55.6160 0.0000 0.0000 0.0000
# 4 0.0000 0.0000 0.0000 20.1112 0.0000 0.0000
# 5 0.0000 0.0000 0.0000 0.0000 22.3949 0.0000
# 6 0.0000 0.0000 0.0000 0.0000 0.0000 30.2404
#
#
#
# Elastic Compliance Matrix: (Units=1/GPa)
#
#
# Indices 1 2 3 4 5 6 
#
# 1 0.007574 -0.001067 -0.003509 0.000000 0.000000 0.000000
# 2 -0.001067 0.019949 -0.008215 0.000000 0.000000 0.000000
# 3 -0.003509 -0.008215 0.023437 0.000000 0.000000 0.000000
# 4 0.000000 0.000000 0.000000 0.049724 0.000000 0.000000
# 5 0.000000 0.000000 0.000000 0.000000 0.044653 0.000000
# 6 0.000000 0.000000 0.000000 0.000000 0.000000 0.033068
#
#
# Mechanical properties :
#
#
# Convention : Reuss Voigt Hill
#
# Bulk Modulus (GPa) = 39.40410 45.84037 42.62223
# Shear Modulus (GPa) = 23.53521 27.32349 25.42935
#
# Velocity S-wave (km/s) = 3.08281 3.32166 3.20446
# Velocity P-wave (km/s) = 5.34633 5.76384 5.55901
#
# Compressibility (1/GPa) = 0.02537807
#
# Stress axis : x y z
#
# Youngs Moduli (GPa) = 132.02595 50.12788 42.66678
#
# Poissons Ratio (x) = 0.05351 0.14973
# Poissons Ratio (y) = 0.14092 0.35049
# Poissons Ratio (z) = 0.46333 0.41178
#
# Static dielectric constant tensor:
#      x y z
#    x 2.006720 0.000000 0.000000 
#    y 0.000000 2.124970 0.000000 
#    z 0.000000 0.000000 1.921760 
# 
# From -- ./inp_files/1960.got.cif
#   From: 2010.05.17/outbox.cif.g08.bks.cpg/sg56_1_cif.got.tgz:1960.got - 2010.06.03 13:42:01.
