data_PCOD9432845
_publ_section_title
;
Structure prediction by ZEFSAII (Michael W. Deem and Ramdas Pophale) SiO2 
 PCOD9432845
Probable space group: P C C N
;
_chemical_formula_sum "Si O2"
_cell_formula_units_Z 24
_cell_length_a 9.619873
_cell_length_b 7.516506
_cell_length_c 13.495142
_cell_angle_alpha 90.000000
_cell_angle_beta 90.000000
_cell_angle_gamma 90.000000
_cell_volume 975.804476
_symmetry_space_group_name_H-M "P C C N"
_symmetry_group_IT_number 56
_symmetry_cell_setting 'orthorhombic'
loop_
_space_group_symop_operation_xyz
x,y,z
1/2-x,1/2-y,z
1/2+x,-y,1/2-z
-x,1/2+y,1/2-z
-x,-y,-z
1/2+x,1/2+y,-z
1/2-x,y,1/2+z
x,1/2-y,1/2+z
loop_
_atom_site_type_symbol
_atom_site_label
_atom_site_fract_x
_atom_site_fract_y
_atom_site_fract_z
Si Si1 0.250000 0.750000 0.112788
Si Si2 0.647157 0.393554 0.193348
Si Si3 0.365555 0.375025 0.073125
Si Si4 0.250000 0.250000 0.385079
O O1 0.137839 0.668934 0.192111
O O2 0.308175 0.575655 0.058523
O O3 0.750000 0.250000 0.146175
O O4 0.501142 0.387608 0.139020
O O5 0.729765 0.576446 0.179858
O O6 0.250000 0.250000 0.122657
O O7 0.375587 0.275589 0.966177
#
# Coordination Sequence:
#
# PCOD9432845 Si02
#       4
#     4   8   8   4
#     4  10  26  38  68  90 132 160 214 256 318 372
#     4  10  25  42  66  94 127 169 212 260 319 369
#     4  10  25  42  65  95 128 167 214 259 317 374
#     4  10  24  40  68  92 132 164 214 258 314 378
#
# _framework density 24.595091
#
# number of rings (size 3 to 8) (size 9 to 14) (size 15 to 20)
#    2.000    0.000    0.000    1.000    9.333    4.000 
#    0.000    0.000    0.000    0.000    0.000    0.000 
#    0.000    0.000    0.000    0.000    0.000    0.000 
#
# Total GULP energy -133816.542139 kJ/mol
# GULP energy per Si atom -5575.689256 kJ/mol
# Density = 2.453911 g / cm^3
# Si number density = 24.595091 Si / 1000 Ang^3
#
#
#
# Elastic Constant Matrix: (Units=GPa)
#
#
# Indices 1 2 3 4 5 6 
#
# 1 104.7974 76.3975 22.4244 0.0000 0.0000 0.0000
# 2 76.3975 217.8968 44.4494 0.0000 0.0000 0.0000
# 3 22.4244 44.4494 86.1144 0.0000 0.0000 0.0000
# 4 0.0000 0.0000 0.0000 43.4527 0.0000 0.0000
# 5 0.0000 0.0000 0.0000 0.0000 -56.0361 0.0000
# 6 0.0000 0.0000 0.0000 0.0000 0.0000 28.5248
#
#
#
# Elastic Compliance Matrix: (Units=1/GPa)
#
#
# Indices 1 2 3 4 5 6 
#
# 1 0.012919 -0.004296 -0.001147 0.000000 0.000000 0.000000
# 2 -0.004296 0.006558 -0.002266 0.000000 0.000000 0.000000
# 3 -0.001147 -0.002266 0.013081 0.000000 0.000000 0.000000
# 4 0.000000 0.000000 0.000000 0.023014 0.000000 0.000000
# 5 0.000000 0.000000 0.000000 0.000000 -0.017846 0.000000
# 6 0.000000 0.000000 0.000000 0.000000 0.000000 0.035057
#
#
# Mechanical properties :
#
#
# Convention : Reuss Voigt Hill
#
# Bulk Modulus (GPa) = 58.34272 77.26125 67.80198
# Shear Modulus (GPa) = 53.24018 20.89077 37.06548
#
# Velocity S-wave (km/s) = 4.65765 2.91759 3.88626
# Velocity P-wave (km/s) = 7.25932 6.54456 6.91118
#
# Compressibility (1/GPa) = 0.01714010
#
# Stress axis : x y z
#
# Youngs Moduli (GPa) = 77.40418 152.49109 76.44739
#
# Poissons Ratio (x) = 0.65505 0.08768
# Poissons Ratio (y) = 0.33250 0.17325
# Poissons Ratio (z) = 0.08877 0.34559
#
# Static dielectric constant tensor:
#      x y z
#    x 1.820620 0.000000 0.000000 
#    y 0.000000 1.877610 0.000000 
#    z 0.000000 0.000000 2.075150 
# 
# From -- ./inp_files/9952.got.cif
#   From: 2010.05.17/outbox.cif.g08.bks.cpg/sg56_5_cif.got.tgz:9952.got - 2010.06.03 13:42:01.
