data_PCOD9432726
_publ_section_title
;
Structure prediction by ZEFSAII (Michael W. Deem and Ramdas Pophale) SiO2 
 PCOD9432726
Probable space group: P C C N
;
_chemical_formula_sum "Si O2"
_cell_formula_units_Z 36
_cell_length_a 20.625159
_cell_length_b 6.984626
_cell_length_c 10.266454
_cell_angle_alpha 90.000000
_cell_angle_beta 90.000000
_cell_angle_gamma 90.000000
_cell_volume 1478.975321
_symmetry_space_group_name_H-M "P C C N"
_symmetry_group_IT_number 56
_symmetry_cell_setting 'orthorhombic'
loop_
_space_group_symop_operation_xyz
x,y,z
1/2-x,1/2-y,z
1/2+x,-y,1/2-z
-x,1/2+y,1/2-z
-x,-y,-z
1/2+x,1/2+y,-z
1/2-x,y,1/2+z
x,1/2-y,1/2+z
loop_
_atom_site_type_symbol
_atom_site_label
_atom_site_fract_x
_atom_site_fract_y
_atom_site_fract_z
Si Si1 0.299116 0.098617 0.877499
Si Si2 0.004661 0.267183 0.010070
Si Si3 0.250000 0.750000 0.224181
Si Si4 0.374491 0.656909 0.581987
Si Si5 0.414786 0.318485 0.756335
O O1 0.250000 0.250000 0.940471
O O2 0.347047 0.206943 0.777028
O O3 0.253906 0.938221 0.812048
O O4 0.346203 0.994335 0.978679
O O5 0.929900 0.216100 0.983879
O O6 0.047454 0.190831 0.891852
O O7 0.961186 0.776164 0.853457
O O8 0.000000 0.500000 0.000000
O O9 0.186824 0.767534 0.135746
O O10 0.401618 0.531322 0.702358
#
# Coordination Sequence:
#
# PCOD9432726 Si02
#       5
#     8   8   4   8   8
#     4  12  26  48  75 107 153 199 253 308 383 455
#     4  10  23  44  73 105 145 187 253 309 369 445
#     4  12  28  44  74 114 148 198 254 314 376 456
#     4  11  26  48  72 110 153 191 256 315 376 454
#     4  11  22  47  77 100 145 205 240 310 378 446
#
# _framework density 24.341179
#
# number of rings (size 3 to 8) (size 9 to 14) (size 15 to 20)
#    0.000    0.889    6.667    0.667    6.222    0.000 
#    4.000    5.556    0.000    0.000    0.000    0.000 
#    0.000    0.000    0.000    0.000    0.000    0.000 
#
# Total GULP energy -201601.126300 kJ/mol
# GULP energy per Si atom -5600.031286 kJ/mol
# Density = 2.428578 g / cm^3
# Si number density = 24.341179 Si / 1000 Ang^3
#
#
#
# Elastic Constant Matrix: (Units=GPa)
#
#
# Indices 1 2 3 4 5 6 
#
# 1 122.8796 14.4802 28.3129 0.0000 0.0000 0.0000
# 2 14.4802 65.7090 16.0489 0.0000 0.0000 0.0000
# 3 28.3129 16.0489 105.8880 0.0000 0.0000 0.0000
# 4 0.0000 0.0000 0.0000 -4.3316 0.0000 0.0000
# 5 0.0000 0.0000 0.0000 0.0000 39.0106 0.0000
# 6 0.0000 0.0000 0.0000 0.0000 0.0000 35.0517
#
#
#
# Elastic Compliance Matrix: (Units=1/GPa)
#
#
# Indices 1 2 3 4 5 6 
#
# 1 0.008798 -0.001417 -0.002138 0.000000 0.000000 0.000000
# 2 -0.001417 0.016032 -0.002051 0.000000 0.000000 0.000000
# 3 -0.002138 -0.002051 0.010326 0.000000 0.000000 0.000000
# 4 0.000000 0.000000 0.000000 -0.230860 0.000000 0.000000
# 5 0.000000 0.000000 0.000000 0.000000 0.025634 0.000000
# 6 0.000000 0.000000 0.000000 0.000000 0.000000 0.028529
#
#
# Mechanical properties :
#
#
# Convention : Reuss Voigt Hill
#
# Bulk Modulus (GPa) = 41.76227 45.79562 43.77895
# Shear Modulus (GPa) = -40.86682 29.65511 -5.60585
#
# Velocity S-wave (km/s) = -4.10190 3.49422 -1.51922
# Velocity P-wave (km/s) = 2.28907 5.92742 3.86616
#
# Compressibility (1/GPa) = 0.02394506
#
# Stress axis : x y z
#
# Youngs Moduli (GPa) = 113.66852 62.37623 96.83937
#
# Poissons Ratio (x) = 0.08836 0.20701
# Poissons Ratio (y) = 0.16102 0.19862
# Poissons Ratio (z) = 0.24298 0.12794
#
# Static dielectric constant tensor:
#      x y z
#    x 1.983250 0.000000 0.000000 
#    y 0.000000 2.065800 0.000000 
#    z 0.000000 0.000000 1.917050 
# 
# From -- ./inp_files/8808.got.cif
#   From: 2010.05.17/outbox.cif.g08.bks.cpg/sg56_5_cif.got.tgz:8808.got - 2010.06.03 13:42:01.
