data_PCOD9432431
_publ_section_title
;
Structure prediction by ZEFSAII (Michael W. Deem and Ramdas Pophale) SiO2 
 PCOD9432431
Probable space group: P C C N
;
_chemical_formula_sum "Si O2"
_cell_formula_units_Z 60
_cell_length_a 11.449628
_cell_length_b 14.418484
_cell_length_c 16.473764
_cell_angle_alpha 90.000000
_cell_angle_beta 90.000000
_cell_angle_gamma 90.000000
_cell_volume 2719.592385
_symmetry_space_group_name_H-M "P C C N"
_symmetry_group_IT_number 56
_symmetry_cell_setting 'orthorhombic'
loop_
_space_group_symop_operation_xyz
x,y,z
1/2-x,1/2-y,z
1/2+x,-y,1/2-z
-x,1/2+y,1/2-z
-x,-y,-z
1/2+x,1/2+y,-z
1/2-x,y,1/2+z
x,1/2-y,1/2+z
loop_
_atom_site_type_symbol
_atom_site_label
_atom_site_fract_x
_atom_site_fract_y
_atom_site_fract_z
Si Si1 0.118357 0.220967 0.784589
Si Si2 0.526832 0.076360 0.933507
Si Si3 0.437401 0.867062 0.412008
Si Si4 0.382216 0.235426 0.473582
Si Si5 0.250000 0.750000 0.828687
Si Si6 0.466365 0.073140 0.751052
Si Si7 0.714881 0.143530 0.447937
Si Si8 0.609076 0.112460 0.277943
O O1 0.250000 0.250000 0.755817
O O2 0.130140 0.198682 0.880763
O O3 0.054940 0.318018 0.764723
O O4 0.024057 0.143752 0.754351
O O5 0.454143 0.168752 0.959087
O O6 0.501503 0.044592 0.841817
O O7 0.663302 0.096392 0.932166
O O8 0.500000 0.000000 0.000000
O O9 0.547887 0.828703 0.462648
O O10 0.362091 0.780576 0.379230
O O11 0.461235 0.928778 0.333142
O O12 0.351443 0.908200 0.479500
O O13 0.250000 0.250000 0.503576
O O14 0.295193 0.833482 0.773769
O O15 0.368777 0.996856 0.731006
O O16 0.750000 0.250000 0.465208
O O17 0.631527 0.143173 0.370150
#
# Coordination Sequence:
#
# PCOD9432431 Si02
#       8
#     8   8   8   8   4   8   8   8
#     4  10  22  47  68  96 143 189 231 292 373 438
#     4  11  25  46  69 102 142 186 244 295 363 436
#     4  12  23  42  72 107 137 184 249 296 361 435
#     4  10  22  44  71  96 136 191 230 285 363 442
#     4  12  24  40  76 100 140 190 242 298 358 424
#     4  11  27  43  67 113 140 178 252 300 358 432
#     4  12  22  44  76 101 139 194 243 292 365 447
#     4  12  25  45  74 101 146 191 236 312 364 426
#
# _framework density 22.062128999999999
#
# number of rings (size 3 to 8) (size 9 to 14) (size 15 to 20)
#    0.000    0.800    5.333    1.600    3.733    4.267 
#    4.800    0.000    0.000    0.000    0.000    0.000 
#    0.000    0.000    0.000    0.000    0.000    0.000 
#
# Total GULP energy -334456.112497 kJ/mol
# GULP energy per Si atom -5574.268542 kJ/mol
# Density = 2.201191 g / cm^3
# Si number density = 22.062129 Si / 1000 Ang^3
#
#
#
# Elastic Constant Matrix: (Units=GPa)
#
#
# Indices 1 2 3 4 5 6 
#
# 1 87.3734 -8.6556 24.4158 0.0000 0.0000 0.0000
# 2 -8.6556 38.5925 8.9678 0.0000 0.0000 0.0000
# 3 24.4158 8.9678 96.0146 0.0000 0.0000 0.0000
# 4 0.0000 0.0000 0.0000 22.3136 0.0000 0.0000
# 5 0.0000 0.0000 0.0000 0.0000 -1.1780 0.0000
# 6 0.0000 0.0000 0.0000 0.0000 0.0000 30.0815
#
#
#
# Elastic Compliance Matrix: (Units=1/GPa)
#
#
# Indices 1 2 3 4 5 6 
#
# 1 0.012821 0.003714 -0.003607 0.000000 0.000000 0.000000
# 2 0.003714 0.027562 -0.003519 0.000000 0.000000 0.000000
# 3 -0.003607 -0.003519 0.011661 0.000000 0.000000 0.000000
# 4 0.000000 0.000000 0.000000 0.044816 0.000000 0.000000
# 5 0.000000 0.000000 0.000000 0.000000 -0.848872 0.000000
# 6 0.000000 0.000000 0.000000 0.000000 0.000000 0.033243
#
#
# Mechanical properties :
#
#
# Convention : Reuss Voigt Hill
#
# Bulk Modulus (GPa) = 22.11407 30.15961 26.13684
# Shear Modulus (GPa) = -7.17493 23.39357 8.10932
#
# Velocity S-wave (km/s) = -1.80533 3.25983 1.91928
# Velocity P-wave (km/s) = 2.38740 5.27908 4.09685
#
# Compressibility (1/GPa) = 0.04522008
#
# Stress axis : x y z
#
# Youngs Moduli (GPa) = 77.99686 36.28142 85.75585
#
# Poissons Ratio (x) = -0.13474 0.30934
# Poissons Ratio (y) = -0.28966 0.30175
# Poissons Ratio (z) = 0.28135 0.12766
#
# Static dielectric constant tensor:
#      x y z
#    x 1.844950 0.000000 0.000000 
#    y 0.000000 1.593270 0.000000 
#    z 0.000000 0.000000 1.854970 
# 
# From -- ./inp_files/15786.got.cif
#   From: 2010.05.17/outbox.cif.g08.bks.cpg/sg56_8_cif.got.tgz:15786.got - 2010.06.03 13:42:01.
