data_PCOD9432706
_publ_section_title
;
Structure prediction by ZEFSAII (Michael W. Deem and Ramdas Pophale) SiO2 
 PCOD9432706
Probable space group: P C C N
;
_chemical_formula_sum "Si O2"
_cell_formula_units_Z 40
_cell_length_a 9.067425
_cell_length_b 7.750868
_cell_length_c 24.799295
_cell_angle_alpha 90.000000
_cell_angle_beta 90.000000
_cell_angle_gamma 90.000000
_cell_volume 1742.904726
_symmetry_space_group_name_H-M "P C C N"
_symmetry_group_IT_number 56
_symmetry_cell_setting 'orthorhombic'
loop_
_space_group_symop_operation_xyz
x,y,z
1/2-x,1/2-y,z
1/2+x,-y,1/2-z
-x,1/2+y,1/2-z
-x,-y,-z
1/2+x,1/2+y,-z
1/2-x,y,1/2+z
x,1/2-y,1/2+z
loop_
_atom_site_type_symbol
_atom_site_label
_atom_site_fract_x
_atom_site_fract_y
_atom_site_fract_z
Si Si1 0.408966 0.544957 0.446118
Si Si2 0.155439 0.573835 0.647491
Si Si3 0.541072 0.525967 0.336093
Si Si4 0.430925 0.956832 0.443021
Si Si5 0.585263 0.831491 0.261918
O O1 0.500000 0.500000 0.500000
O O2 0.459333 0.467627 0.389533
O O3 0.427992 0.750055 0.436297
O O4 0.239190 0.492621 0.449349
O O5 0.250000 0.750000 0.643324
O O6 0.293760 0.443933 0.641968
O O7 0.100500 0.512330 0.705954
O O8 0.028639 0.544826 0.603705
O O9 0.505993 0.702765 0.304233
O O10 0.506817 0.379957 0.291214
O O11 0.500000 0.000000 0.500000
O O12 0.750000 0.750000 0.249859
#
# Coordination Sequence:
#
# PCOD9432706 Si02
#       5
#     8   8   8   8   8
#     4  11  26  48  74 103 141 191 237 309 372 444
#     4  11  24  43  70 102 147 193 242 303 369 435
#     4  11  23  44  71 100 146 189 243 301 365 438
#     4  11  26  46  71 103 143 183 245 302 371 448
#     4  10  23  44  68 106 147 192 248 303 369 445
#
# _framework density 22.950195999999998
#
# number of rings (size 3 to 8) (size 9 to 14) (size 15 to 20)
#    0.000    1.200    2.000    2.400    5.600    7.200 
#    3.600    0.000    0.000    0.000    0.000    0.000 
#    0.000    0.000    0.000    0.000    0.000    0.000 
#
# Total GULP energy -223143.338563 kJ/mol
# GULP energy per Si atom -5578.583464 kJ/mol
# Density = 2.289796 g / cm^3
# Si number density = 22.950196 Si / 1000 Ang^3
#
#
#
# Elastic Constant Matrix: (Units=GPa)
#
#
# Indices 1 2 3 4 5 6 
#
# 1 164.6877 36.8037 114.0081 0.0000 0.0000 0.0000
# 2 36.8037 116.8306 41.1835 0.0000 0.0000 0.0000
# 3 114.0081 41.1835 185.2533 0.0000 0.0000 0.0000
# 4 0.0000 0.0000 0.0000 31.3709 0.0000 0.0000
# 5 0.0000 0.0000 0.0000 0.0000 44.3490 0.0000
# 6 0.0000 0.0000 0.0000 0.0000 0.0000 31.7398
#
#
#
# Elastic Compliance Matrix: (Units=1/GPa)
#
#
# Indices 1 2 3 4 5 6 
#
# 1 0.010717 -0.001141 -0.006342 0.000000 0.000000 0.000000
# 2 -0.001141 0.009409 -0.001390 0.000000 0.000000 0.000000
# 3 -0.006342 -0.001390 0.009610 0.000000 0.000000 0.000000
# 4 0.000000 0.000000 0.000000 0.031877 0.000000 0.000000
# 5 0.000000 0.000000 0.000000 0.000000 0.022548 0.000000
# 6 0.000000 0.000000 0.000000 0.000000 0.000000 0.031506
#
#
# Mechanical properties :
#
#
# Convention : Reuss Voigt Hill
#
# Bulk Modulus (GPa) = 83.39409 94.52915 88.96162
# Shear Modulus (GPa) = 36.38765 39.81035 38.09900
#
# Velocity S-wave (km/s) = 3.98616 4.16942 4.07882
# Velocity P-wave (km/s) = 7.58959 8.02851 7.81213
#
# Compressibility (1/GPa) = 0.01199126
#
# Stress axis : x y z
#
# Youngs Moduli (GPa) = 93.30571 106.28608 104.05790
#
# Poissons Ratio (x) = 0.12122 0.65995
# Poissons Ratio (y) = 0.10642 0.14461
# Poissons Ratio (z) = 0.59176 0.14771
#
# Static dielectric constant tensor:
#      x y z
#    x 2.126790 0.000000 0.000000 
#    y 0.000000 2.281240 0.000000 
#    z 0.000000 0.000000 1.884480 
# 
# From -- ./inp_files/20315.got.cif
#   From: 2010.05.17/outbox.cif.g08.bks.cpg/sg56_11_cif.got.tgz:20315.got - 2010.06.03 13:42:01.
