data_PCOD9432219
_publ_section_title
;
Structure prediction by ZEFSAII (Michael W. Deem and Ramdas Pophale) SiO2 
 PCOD9432219
Probable space group: P C C N
;
_chemical_formula_sum "Si O2"
_cell_formula_units_Z 56
_cell_length_a 12.166464
_cell_length_b 15.148205
_cell_length_c 13.937795
_cell_angle_alpha 90.000000
_cell_angle_beta 90.000000
_cell_angle_gamma 90.000000
_cell_volume 2568.736884
_symmetry_space_group_name_H-M "P C C N"
_symmetry_group_IT_number 56
_symmetry_cell_setting 'orthorhombic'
loop_
_space_group_symop_operation_xyz
x,y,z
1/2-x,1/2-y,z
1/2+x,-y,1/2-z
-x,1/2+y,1/2-z
-x,-y,-z
1/2+x,1/2+y,-z
1/2-x,y,1/2+z
x,1/2-y,1/2+z
loop_
_atom_site_type_symbol
_atom_site_label
_atom_site_fract_x
_atom_site_fract_y
_atom_site_fract_z
Si Si1 0.852072 0.369276 0.633886
Si Si2 0.936004 0.536337 0.409129
Si Si3 0.254839 0.529023 0.207301
Si Si4 0.335522 0.333174 0.747444
Si Si5 0.855775 0.811943 0.026103
Si Si6 0.290275 0.850346 0.040480
Si Si7 0.029006 0.795025 0.402264
O O1 0.761835 0.415091 0.698000
O O2 0.811337 0.381473 0.525322
O O3 0.969771 0.414189 0.650478
O O4 0.879609 0.267018 0.648303
O O5 0.876242 0.472153 0.336448
O O6 0.847236 0.601488 0.459226
O O7 0.000000 0.500000 0.500000
O O8 0.219738 0.428211 0.226993
O O9 0.188531 0.584470 0.127882
O O10 0.250000 0.250000 0.732546
O O11 0.368284 0.331273 0.860614
O O12 0.439724 0.325149 0.675856
O O13 0.750000 0.750000 0.015402
O O14 0.959995 0.763218 0.979450
O O15 0.250000 0.750000 0.067664
O O16 0.396288 0.854289 0.971178
#
# Coordination Sequence:
#
# PCOD9432219 Si02
#       7
#     8   8   8   8   8   8   8
#     4  10  23  43  64 100 132 177 228 279 347 424
#     4  11  21  41  68  94 133 179 224 277 349 413
#     4  12  25  42  72 100 138 176 243 287 344 422
#     4  11  24  43  67 104 135 185 233 293 353 417
#     4  10  22  41  70  95 137 182 236 286 348 418
#     4  10  24  44  64  98 136 178 228 290 350 417
#     4  10  22  43  67  95 141 182 226 288 358 419
#
# _framework density 21.800598999999998
#
# number of rings (size 3 to 8) (size 9 to 14) (size 15 to 20)
#    0.000    1.429    1.429    3.857    2.000    4.571 
#    0.000    0.000    0.000    0.000    0.000    0.000 
#    0.000    0.000    0.000    0.000    0.000    0.000 
#
# Total GULP energy -312453.152788 kJ/mol
# GULP energy per Si atom -5579.520585 kJ/mol
# Density = 2.175098 g / cm^3
# Si number density = 21.800599 Si / 1000 Ang^3
#
#
#
# Elastic Constant Matrix: (Units=GPa)
#
#
# Indices 1 2 3 4 5 6 
#
# 1 63.4113 26.5217 24.1418 0.0000 0.0000 0.0000
# 2 26.5217 81.3643 48.4491 0.0000 0.0000 0.0000
# 3 24.1418 48.4491 100.2873 0.0000 0.0000 0.0000
# 4 0.0000 0.0000 0.0000 32.1376 0.0000 0.0000
# 5 0.0000 0.0000 0.0000 0.0000 34.5210 0.0000
# 6 0.0000 0.0000 0.0000 0.0000 0.0000 35.8754
#
#
#
# Elastic Compliance Matrix: (Units=1/GPa)
#
#
# Indices 1 2 3 4 5 6 
#
# 1 0.018591 -0.004766 -0.002173 0.000000 0.000000 0.000000
# 2 -0.004766 0.018476 -0.007778 0.000000 0.000000 0.000000
# 3 -0.002173 -0.007778 0.014252 0.000000 0.000000 0.000000
# 4 0.000000 0.000000 0.000000 0.031116 0.000000 0.000000
# 5 0.000000 0.000000 0.000000 0.000000 0.028968 0.000000
# 6 0.000000 0.000000 0.000000 0.000000 0.000000 0.027874
#
#
# Mechanical properties :
#
#
# Convention : Reuss Voigt Hill
#
# Bulk Modulus (GPa) = 45.69519 49.25421 47.47470
# Shear Modulus (GPa) = 28.40817 30.23683 29.32250
#
# Velocity S-wave (km/s) = 3.61375 3.72825 3.67145
# Velocity P-wave (km/s) = 6.19825 6.41679 6.30847
#
# Compressibility (1/GPa) = 0.02188414
#
# Stress axis : x y z
#
# Youngs Moduli (GPa) = 53.79045 54.12534 70.16493
#
# Poissons Ratio (x) = 0.25796 0.15245
# Poissons Ratio (y) = 0.25637 0.54577
# Poissons Ratio (z) = 0.11687 0.42100
#
# Static dielectric constant tensor:
#      x y z
#    x 1.828810 0.000000 0.000000 
#    y 0.000000 1.864150 0.000000 
#    z 0.000000 0.000000 1.796790 
# 
# From -- ./inp_files/11689.got.cif
#   From: 2010.05.17/outbox.cif.g08.bks.cpg/sg56_6_cif.got.tgz:11689.got - 2010.06.03 13:42:01.
