data_PCOD9432727
_publ_section_title
;
Structure prediction by ZEFSAII (Michael W. Deem and Ramdas Pophale) SiO2 
 PCOD9432727
Probable space group: P C C N
;
_chemical_formula_sum "Si O2"
_cell_formula_units_Z 48
_cell_length_a 16.951295
_cell_length_b 8.037748
_cell_length_c 14.542734
_cell_angle_alpha 90.000000
_cell_angle_beta 90.000000
_cell_angle_gamma 90.000000
_cell_volume 1981.450961
_symmetry_space_group_name_H-M "P C C N"
_symmetry_group_IT_number 56
_symmetry_cell_setting 'orthorhombic'
loop_
_space_group_symop_operation_xyz
x,y,z
1/2-x,1/2-y,z
1/2+x,-y,1/2-z
-x,1/2+y,1/2-z
-x,-y,-z
1/2+x,1/2+y,-z
1/2-x,y,1/2+z
x,1/2-y,1/2+z
loop_
_atom_site_type_symbol
_atom_site_label
_atom_site_fract_x
_atom_site_fract_y
_atom_site_fract_z
Si Si1 0.877507 0.875613 0.038279
Si Si2 0.662281 0.927429 0.349248
Si Si3 0.598372 0.098534 0.820385
Si Si4 0.250000 0.250000 0.815645
Si Si5 0.250000 0.750000 0.680174
Si Si6 0.518338 0.759665 0.810668
Si Si7 0.947841 0.256373 0.501539
O O1 0.817110 0.834040 0.119682
O O2 0.902967 0.069476 0.023182
O O3 0.833543 0.823643 0.943297
O O4 0.963498 0.787698 0.038829
O O5 0.703499 0.867872 0.256156
O O6 0.568372 0.908076 0.331835
O O7 0.701917 0.104162 0.369968
O O8 0.679462 0.152353 0.772473
O O9 0.533572 0.216063 0.775471
O O10 0.578931 0.909315 0.798704
O O11 0.596711 0.136929 0.929591
O O12 0.464812 0.813679 0.896879
#
# Coordination Sequence:
#
# PCOD9432727 Si02
#       7
#     8   8   8   4   4   8   8
#     4  10  23  44  73 105 146 189 246 302 372 443
#     4  11  24  46  67 108 146 191 237 310 363 436
#     4  12  25  46  72 109 147 193 247 317 373 447
#     4  12  24  40  76 110 148 194 240 300 384 446
#     4  12  26  44  70 104 158 192 234 314 392 424
#     4  11  26  45  80 105 141 199 265 298 370 453
#     4  10  23  46  73 102 142 195 248 307 360 445
#
# _framework density 24.224672000000002
#
# number of rings (size 3 to 8) (size 9 to 14) (size 15 to 20)
#    0.000    1.000    1.667    4.000    9.333    1.333 
#    0.000    5.000    0.000    0.000    0.000    0.000 
#    0.000    0.000    0.000    0.000    0.000    0.000 
#
# Total GULP energy -267896.564658 kJ/mol
# GULP energy per Si atom -5581.178430 kJ/mol
# Density = 2.416954 g / cm^3
# Si number density = 24.224672 Si / 1000 Ang^3
#
#
#
# Elastic Constant Matrix: (Units=GPa)
#
#
# Indices 1 2 3 4 5 6 
#
# 1 98.6299 49.2527 48.4914 0.0000 0.0000 0.0000
# 2 49.2527 82.1143 24.8239 0.0000 0.0000 0.0000
# 3 48.4914 24.8239 145.5677 0.0000 0.0000 0.0000
# 4 0.0000 0.0000 0.0000 28.5430 0.0000 0.0000
# 5 0.0000 0.0000 0.0000 0.0000 27.6094 0.0000
# 6 0.0000 0.0000 0.0000 0.0000 0.0000 50.9171
#
#
#
# Elastic Compliance Matrix: (Units=1/GPa)
#
#
# Indices 1 2 3 4 5 6 
#
# 1 0.016418 -0.008639 -0.003996 0.000000 0.000000 0.000000
# 2 -0.008639 0.017386 -0.000087 0.000000 0.000000 0.000000
# 3 -0.003996 -0.000087 0.008216 0.000000 0.000000 0.000000
# 4 0.000000 0.000000 0.000000 0.035035 0.000000 0.000000
# 5 0.000000 0.000000 0.000000 0.000000 0.036220 0.000000
# 6 0.000000 0.000000 0.000000 0.000000 0.000000 0.019640
#
#
# Mechanical properties :
#
#
# Convention : Reuss Voigt Hill
#
# Bulk Modulus (GPa) = 60.33070 63.49421 61.91245
# Shear Modulus (GPa) = 30.50950 34.99683 32.75316
#
# Velocity S-wave (km/s) = 3.55271 3.80501 3.68102
# Velocity P-wave (km/s) = 6.46434 6.75068 6.60906
#
# Compressibility (1/GPa) = 0.01657531
#
# Stress axis : x y z
#
# Youngs Moduli (GPa) = 60.90985 57.51605 121.72044
#
# Poissons Ratio (x) = 0.49691 0.48636
# Poissons Ratio (y) = 0.52623 0.01058
# Poissons Ratio (z) = 0.24338 0.00500
#
# Static dielectric constant tensor:
#      x y z
#    x 2.011020 0.000000 0.000000 
#    y 0.000000 2.014280 0.000000 
#    z 0.000000 0.000000 1.924160 
# 
# From -- ./inp_files/12730.got.cif
#   From: 2010.05.17/outbox.cif.g08.bks.cpg/sg56_7_cif.got.tgz:12730.got - 2010.06.03 13:42:01.
