data_PCOD9432232
_publ_section_title
;
Structure prediction by ZEFSAII (Michael W. Deem and Ramdas Pophale) SiO2 
 PCOD9432232
Probable space group: P C C N
;
_chemical_formula_sum "Si O2"
_cell_formula_units_Z 36
_cell_length_a 6.626795
_cell_length_b 27.631758
_cell_length_c 9.861556
_cell_angle_alpha 90.000000
_cell_angle_beta 90.000000
_cell_angle_gamma 90.000000
_cell_volume 1805.749477
_symmetry_space_group_name_H-M "P C C N"
_symmetry_group_IT_number 56
_symmetry_cell_setting 'orthorhombic'
loop_
_space_group_symop_operation_xyz
x,y,z
1/2-x,1/2-y,z
1/2+x,-y,1/2-z
-x,1/2+y,1/2-z
-x,-y,-z
1/2+x,1/2+y,-z
1/2-x,y,1/2+z
x,1/2-y,1/2+z
loop_
_atom_site_type_symbol
_atom_site_label
_atom_site_fract_x
_atom_site_fract_y
_atom_site_fract_z
Si Si1 0.462616 0.561209 0.638913
Si Si2 0.370128 0.297307 0.694970
Si Si3 0.195634 0.511895 0.411278
Si Si4 0.054623 0.330912 0.916991
Si Si5 0.750000 0.250000 0.329029
O O1 0.340056 0.543659 0.507077
O O2 0.683257 0.536823 0.626859
O O3 0.362069 0.539672 0.774103
O O4 0.472177 0.618808 0.639060
O O5 0.250000 0.250000 0.641387
O O6 0.242041 0.315275 0.823174
O O7 0.380028 0.335147 0.573068
O O8 0.590749 0.280506 0.740933
O O9 0.000000 0.500000 0.500000
O O10 0.887621 0.288300 0.909844
#
# Coordination Sequence:
#
# PCOD9432232 Si02
#       5
#     8   8   8   8   4
#     4  11  26  43  70  97 129 179 215 281 332 398
#     4  10  22  42  62  90 130 167 212 267 320 383
#     4  11  24  46  66  95 138 168 223 275 334 391
#     4  11  25  40  66  97 129 169 219 265 332 389
#     4  10  22  42  66  92 130 168 216 272 318 390
#
# _framework density 19.936321
#
# number of rings (size 3 to 8) (size 9 to 14) (size 15 to 20)
#    0.000    1.333    2.222    2.667    6.222    3.556 
#    0.000    0.000    0.000    0.000    0.000    0.000 
#    0.000    0.000    0.000    0.000    0.000    0.000 
#
# Total GULP energy -201225.113802 kJ/mol
# GULP energy per Si atom -5589.586495 kJ/mol
# Density = 1.989095 g / cm^3
# Si number density = 19.936321 Si / 1000 Ang^3
#
#
#
# Elastic Constant Matrix: (Units=GPa)
#
#
# Indices 1 2 3 4 5 6 
#
# 1 106.4026 26.0905 38.9239 0.0000 0.0000 0.0000
# 2 26.0905 83.9859 22.5972 0.0000 0.0000 0.0000
# 3 38.9239 22.5972 97.8523 0.0000 0.0000 0.0000
# 4 0.0000 0.0000 0.0000 11.9891 0.0000 0.0000
# 5 0.0000 0.0000 0.0000 0.0000 25.1036 0.0000
# 6 0.0000 0.0000 0.0000 0.0000 0.0000 18.7608
#
#
#
# Elastic Compliance Matrix: (Units=1/GPa)
#
#
# Indices 1 2 3 4 5 6 
#
# 1 0.011467 -0.002490 -0.003986 0.000000 0.000000 0.000000
# 2 -0.002490 0.013236 -0.002066 0.000000 0.000000 0.000000
# 3 -0.003986 -0.002066 0.012282 0.000000 0.000000 0.000000
# 4 0.000000 0.000000 0.000000 0.083409 0.000000 0.000000
# 5 0.000000 0.000000 0.000000 0.000000 0.039835 0.000000
# 6 0.000000 0.000000 0.000000 0.000000 0.000000 0.053303
#
#
# Mechanical properties :
#
#
# Convention : Reuss Voigt Hill
#
# Bulk Modulus (GPa) = 50.24936 51.49598 50.87267
# Shear Modulus (GPa) = 21.07473 24.54598 22.81036
#
# Velocity S-wave (km/s) = 3.25484 3.51268 3.38621
# Velocity P-wave (km/s) = 6.27574 6.50678 6.39231
#
# Compressibility (1/GPa) = 0.01990075
#
# Stress axis : x y z
#
# Youngs Moduli (GPa) = 87.20631 75.55075 81.41742
#
# Poissons Ratio (x) = 0.18810 0.32457
# Poissons Ratio (y) = 0.21712 0.16823
# Poissons Ratio (z) = 0.34764 0.15611
#
# Static dielectric constant tensor:
#      x y z
#    x 1.698610 0.000000 0.000000 
#    y 0.000000 1.687360 0.000000 
#    z 0.000000 0.000000 1.688150 
# 
# From -- ./inp_files/5543.got.cif
#   From: 2010.05.17/outbox.cif.g08.bks.cpg/sg56_3_cif.got.tgz:5543.got - 2010.06.03 13:42:01.
