data_PCOD9432833
_publ_section_title
;
Structure prediction by ZEFSAII (Michael W. Deem and Ramdas Pophale) SiO2 
 PCOD9432833
Probable space group: P C C N
;
_chemical_formula_sum "Si O2"
_cell_formula_units_Z 56
_cell_length_a 20.795088
_cell_length_b 13.951027
_cell_length_c 9.207374
_cell_angle_alpha 90.000000
_cell_angle_beta 90.000000
_cell_angle_gamma 90.000000
_cell_volume 2671.177366
_symmetry_space_group_name_H-M "P C C N"
_symmetry_group_IT_number 56
_symmetry_cell_setting 'orthorhombic'
loop_
_space_group_symop_operation_xyz
x,y,z
1/2-x,1/2-y,z
1/2+x,-y,1/2-z
-x,1/2+y,1/2-z
-x,-y,-z
1/2+x,1/2+y,-z
1/2-x,y,1/2+z
x,1/2-y,1/2+z
loop_
_atom_site_type_symbol
_atom_site_label
_atom_site_fract_x
_atom_site_fract_y
_atom_site_fract_z
Si Si1 0.841033 0.466309 0.884922
Si Si2 0.745120 0.078049 0.127455
Si Si3 0.572967 0.287465 0.395237
Si Si4 0.420398 0.050668 0.617256
Si Si5 0.043039 0.445948 0.282639
Si Si6 0.984133 0.754825 0.844323
Si Si7 0.664604 0.118738 0.372394
O O1 0.792973 0.467441 0.747096
O O2 0.868614 0.360003 0.917273
O O3 0.905174 0.521652 0.837056
O O4 0.800216 0.490876 0.028821
O O5 0.700221 0.146050 0.224631
O O6 0.788905 0.129639 0.008430
O O7 0.516022 0.291098 0.512566
O O8 0.542883 0.307341 0.237933
O O9 0.601686 0.181081 0.395531
O O10 0.433283 0.032856 0.446025
O O11 0.429900 0.164592 0.635358
O O12 0.474094 0.999024 0.718823
O O13 0.355045 0.993034 0.645499
O O14 0.035559 0.332790 0.257860
#
# Coordination Sequence:
#
# PCOD9432833 Si02
#       7
#     8   8   8   8   8   8   8
#     4  11  23  40  62  91 127 165 215 260 308 378
#     4  10  24  40  62  90 123 176 217 258 306 374
#     4  12  23  36  61  96 133 166 205 256 313 398
#     4  11  21  41  65  91 129 171 198 265 334 372
#     4  11  22  40  66  92 128 169 206 261 329 378
#     4  12  23  38  62  99 130 163 206 256 328 387
#     4  11  22  42  64  90 130 173 214 259 318 373
#
# _framework density 20.964538000000001
#
# number of rings (size 3 to 8) (size 9 to 14) (size 15 to 20)
#    0.000    0.857    5.714    2.571    0.000    5.143 
#    0.000    0.000    0.000    5.143    0.000    0.000 
#    0.000    0.000    0.000    0.000    0.000    0.000 
#
# Total GULP energy -312527.250053 kJ/mol
# GULP energy per Si atom -5580.843751 kJ/mol
# Density = 2.091682 g / cm^3
# Si number density = 20.964538 Si / 1000 Ang^3
#
#
#
# Elastic Constant Matrix: (Units=GPa)
#
#
# Indices 1 2 3 4 5 6 
#
# 1 61.1331 29.3983 29.0986 0.0000 0.0000 0.0000
# 2 29.3983 72.6178 13.6334 0.0000 0.0000 0.0000
# 3 29.0986 13.6334 99.2886 0.0000 0.0000 0.0000
# 4 0.0000 0.0000 0.0000 23.3609 0.0000 0.0000
# 5 0.0000 0.0000 0.0000 0.0000 34.5219 0.0000
# 6 0.0000 0.0000 0.0000 0.0000 0.0000 15.9146
#
#
#
# Elastic Compliance Matrix: (Units=1/GPa)
#
#
# Indices 1 2 3 4 5 6 
#
# 1 0.022997 -0.008258 -0.005606 0.000000 0.000000 0.000000
# 2 -0.008258 0.017100 0.000072 0.000000 0.000000 0.000000
# 3 -0.005606 0.000072 0.011705 0.000000 0.000000 0.000000
# 4 0.000000 0.000000 0.000000 0.042807 0.000000 0.000000
# 5 0.000000 0.000000 0.000000 0.000000 0.028967 0.000000
# 6 0.000000 0.000000 0.000000 0.000000 0.000000 0.062835
#
#
# Mechanical properties :
#
#
# Convention : Reuss Voigt Hill
#
# Bulk Modulus (GPa) = 41.28992 41.92223 41.60608
# Shear Modulus (GPa) = 22.51572 25.48674 24.00123
#
# Velocity S-wave (km/s) = 3.28074 3.49048 3.38723
# Velocity P-wave (km/s) = 5.83857 6.02368 5.93185
#
# Compressibility (1/GPa) = 0.02421898
#
# Stress axis : x y z
#
# Youngs Moduli (GPa) = 43.48378 58.47902 85.43576
#
# Poissons Ratio (x) = 0.48289 0.47895
# Poissons Ratio (y) = 0.35907 -0.00615
# Poissons Ratio (z) = 0.24377 -0.00421
#
# Static dielectric constant tensor:
#      x y z
#    x 1.754990 0.000000 0.000000 
#    y 0.000000 1.756460 0.000000 
#    z 0.000000 0.000000 1.773530 
# 
# From -- ./inp_files/4476.got.cif
#   From: 2010.05.17/outbox.cif.g08.bks.cpg/sg56_3_cif.got.tgz:4476.got - 2010.06.03 13:42:01.
