data_PCOD9432858
_publ_section_title
;
Structure prediction by ZEFSAII (Michael W. Deem and Ramdas Pophale) SiO2 
 PCOD9432858
Probable space group: P C C N
;
_chemical_formula_sum "Si O2"
_cell_formula_units_Z 64
_cell_length_a 11.197279
_cell_length_b 14.695557
_cell_length_c 18.083726
_cell_angle_alpha 90.000000
_cell_angle_beta 90.000000
_cell_angle_gamma 90.000000
_cell_volume 2975.681667
_symmetry_space_group_name_H-M "P C C N"
_symmetry_group_IT_number 56
_symmetry_cell_setting 'orthorhombic'
loop_
_space_group_symop_operation_xyz
x,y,z
1/2-x,1/2-y,z
1/2+x,-y,1/2-z
-x,1/2+y,1/2-z
-x,-y,-z
1/2+x,1/2+y,-z
1/2-x,y,1/2+z
x,1/2-y,1/2+z
loop_
_atom_site_type_symbol
_atom_site_label
_atom_site_fract_x
_atom_site_fract_y
_atom_site_fract_z
Si Si1 0.461594 0.380016 0.905569
Si Si2 0.321713 0.156713 0.098542
Si Si3 0.249673 0.006620 0.927719
Si Si4 0.578627 0.827351 0.061031
Si Si5 0.746288 0.347081 0.688291
Si Si6 0.513557 0.903239 0.766160
Si Si7 0.783625 0.468316 0.420474
Si Si8 0.589223 0.401413 0.312758
O O1 0.383189 0.458460 0.942613
O O2 0.414443 0.281824 0.931913
O O3 0.442652 0.387154 0.817103
O O4 0.597940 0.407793 0.921515
O O5 0.250000 0.250000 0.099526
O O6 0.398980 0.139737 0.172157
O O7 0.221455 0.077845 0.088883
O O8 0.411898 0.153985 0.027543
O O9 0.322582 0.098759 0.911847
O O10 0.245744 0.934166 0.863591
O O11 0.290054 0.957259 0.002994
O O12 0.474401 0.849706 0.119944
O O13 0.750000 0.250000 0.647879
O O14 0.618104 0.361501 0.726765
O O15 0.859088 0.345813 0.743939
O O16 0.514061 0.011663 0.784172
O O17 0.708595 0.438946 0.350086
#
# Coordination Sequence:
#
# PCOD9432858 Si02
#       8
#     8   8   8   8   8   8   8   8
#     4  12  23  43  67 102 138 181 231 288 358 419
#     4  10  24  46  70 104 141 186 248 298 358 435
#     4  11  24  43  67  98 137 179 234 285 350 424
#     4  11  24  42  73  97 137 187 237 289 352 431
#     4  12  25  43  64  99 138 177 234 294 355 427
#     4  11  24  43  67  98 138 184 227 294 361 425
#     4  10  24  41  68  96 137 183 227 292 354 416
#     4  11  23  44  67  94 136 185 227 291 352 424
#
# _framework density 21.507677000000001
#
# number of rings (size 3 to 8) (size 9 to 14) (size 15 to 20)
#    0.000    1.000    3.750    3.000    1.750    4.500 
#    2.250    0.000    0.000    0.000    0.000    0.000 
#    0.000    0.000    0.000    0.000    0.000    0.000 
#
# Total GULP energy -356774.625797 kJ/mol
# GULP energy per Si atom -5574.603528 kJ/mol
# Density = 2.145872 g / cm^3
# Si number density = 21.507677 Si / 1000 Ang^3
#
#
#
# Elastic Constant Matrix: (Units=GPa)
#
#
# Indices 1 2 3 4 5 6 
#
# 1 44.9501 32.2691 16.9318 0.0000 0.0000 0.0000
# 2 32.2691 118.4236 39.4619 0.0000 0.0000 0.0000
# 3 16.9318 39.4619 100.7078 0.0000 0.0000 0.0000
# 4 0.0000 0.0000 0.0000 22.5866 0.0000 0.0000
# 5 0.0000 0.0000 0.0000 0.0000 21.9022 0.0000
# 6 0.0000 0.0000 0.0000 0.0000 0.0000 31.6888
#
#
#
# Elastic Compliance Matrix: (Units=1/GPa)
#
#
# Indices 1 2 3 4 5 6 
#
# 1 0.027995 -0.006970 -0.001976 0.000000 0.000000 0.000000
# 2 -0.006970 0.011448 -0.003314 0.000000 0.000000 0.000000
# 3 -0.001976 -0.003314 0.011560 0.000000 0.000000 0.000000
# 4 0.000000 0.000000 0.000000 0.044274 0.000000 0.000000
# 5 0.000000 0.000000 0.000000 0.000000 0.045658 0.000000
# 6 0.000000 0.000000 0.000000 0.000000 0.000000 0.031557
#
#
# Mechanical properties :
#
#
# Convention : Reuss Voigt Hill
#
# Bulk Modulus (GPa) = 37.75856 49.04525 43.40190
# Shear Modulus (GPa) = 24.29093 26.93010 25.61051
#
# Velocity S-wave (km/s) = 3.36431 3.54236 3.45448
# Velocity P-wave (km/s) = 5.71712 6.29160 6.01122
#
# Compressibility (1/GPa) = 0.02648406
#
# Stress axis : x y z
#
# Youngs Moduli (GPa) = 35.72106 87.35314 86.50219
#
# Poissons Ratio (x) = 0.60885 0.17089
# Poissons Ratio (y) = 0.24897 0.28666
# Poissons Ratio (z) = 0.07057 0.28948
#
# Static dielectric constant tensor:
#      x y z
#    x 1.795790 0.000000 0.000000 
#    y 0.000000 1.785940 0.000000 
#    z 0.000000 0.000000 1.789290 
# 
# From -- ./inp_files/15823.got.cif
#   From: 2010.05.17/outbox.cif.g08.bks.cpg/sg56_8_cif.got.tgz:15823.got - 2010.06.03 13:42:01.
