data_PCOD9432874
_publ_section_title
;
Structure prediction by ZEFSAII (Michael W. Deem and Ramdas Pophale) SiO2 
 PCOD9432874
Probable space group: P C C N
;
_chemical_formula_sum "Si O2"
_cell_formula_units_Z 28
_cell_length_a 5.078142
_cell_length_b 16.626168
_cell_length_c 13.425619
_cell_angle_alpha 90.000000
_cell_angle_beta 90.000000
_cell_angle_gamma 90.000000
_cell_volume 1133.525576
_symmetry_space_group_name_H-M "P C C N"
_symmetry_group_IT_number 56
_symmetry_cell_setting 'orthorhombic'
loop_
_space_group_symop_operation_xyz
x,y,z
1/2-x,1/2-y,z
1/2+x,-y,1/2-z
-x,1/2+y,1/2-z
-x,-y,-z
1/2+x,1/2+y,-z
1/2-x,y,1/2+z
x,1/2-y,1/2+z
loop_
_atom_site_type_symbol
_atom_site_label
_atom_site_fract_x
_atom_site_fract_y
_atom_site_fract_z
Si Si1 0.504033 0.518952 0.853807
Si Si2 0.250000 0.750000 0.809082
Si Si3 0.878989 0.387666 0.835809
Si Si4 0.994178 0.111444 0.561788
O O1 0.586276 0.425313 0.855329
O O2 0.498335 0.545790 0.738426
O O3 0.245161 0.550683 0.909945
O O4 0.739229 0.569563 0.904094
O O5 0.393296 0.689948 0.733407
O O6 0.430431 0.806662 0.878332
O O7 0.995527 0.374447 0.944000
#
# Coordination Sequence:
#
# PCOD9432874 Si02
#       4
#     8   4   8   8
#     4  11  25  43  70 101 128 172 230 268 329 394
#     4  10  24  42  66 102 134 176 222 262 334 402
#     4  11  23  45  70  97 137 173 217 281 325 387
#     4  11  25  45  67  99 134 175 220 273 331 392
#
# _framework density 24.701691
#
# number of rings (size 3 to 8) (size 9 to 14) (size 15 to 20)
#    0.000    1.143    0.000    6.000    0.000   11.429 
#    0.000    5.714    0.000    0.000    0.000    0.000 
#    0.000    0.000    0.000    0.000    0.000    0.000 
#
# Total GULP energy -156856.750386 kJ/mol
# GULP energy per Si atom -5602.026799 kJ/mol
# Density = 2.464547 g / cm^3
# Si number density = 24.701691 Si / 1000 Ang^3
#
#
#
# Elastic Constant Matrix: (Units=GPa)
#
#
# Indices 1 2 3 4 5 6 
#
# 1 112.9043 11.4887 33.3749 0.0000 0.0000 0.0000
# 2 11.4887 110.6250 42.2151 0.0000 0.0000 0.0000
# 3 33.3749 42.2151 248.5098 0.0000 0.0000 0.0000
# 4 0.0000 0.0000 0.0000 46.5744 0.0000 0.0000
# 5 0.0000 0.0000 0.0000 0.0000 31.2594 0.0000
# 6 0.0000 0.0000 0.0000 0.0000 0.0000 14.3069
#
#
#
# Elastic Compliance Matrix: (Units=1/GPa)
#
#
# Indices 1 2 3 4 5 6 
#
# 1 0.009251 -0.000520 -0.001154 0.000000 0.000000 0.000000
# 2 -0.000520 0.009695 -0.001577 0.000000 0.000000 0.000000
# 3 -0.001154 -0.001577 0.004447 0.000000 0.000000 0.000000
# 4 0.000000 0.000000 0.000000 0.021471 0.000000 0.000000
# 5 0.000000 0.000000 0.000000 0.000000 0.031990 0.000000
# 6 0.000000 0.000000 0.000000 0.000000 0.000000 0.069896
#
#
# Mechanical properties :
#
#
# Convention : Reuss Voigt Hill
#
# Bulk Modulus (GPa) = 59.20515 71.79964 65.50239
# Shear Modulus (GPa) = 31.46946 44.09217 37.78081
#
# Velocity S-wave (km/s) = 3.57316 4.22949 3.91510
# Velocity P-wave (km/s) = 6.40651 7.27882 6.85655
#
# Compressibility (1/GPa) = 0.01689042
#
# Stress axis : x y z
#
# Youngs Moduli (GPa) = 108.09476 103.14148 224.87675
#
# Poissons Ratio (x) = 0.05367 0.25952
# Poissons Ratio (y) = 0.05625 0.35465
# Poissons Ratio (z) = 0.12474 0.16266
#
# Static dielectric constant tensor:
#      x y z
#    x 2.077800 0.000000 0.000000 
#    y 0.000000 1.989990 0.000000 
#    z 0.000000 0.000000 1.927440 
# 
# From -- ./inp_files/9350.got.cif
#   From: 2010.05.17/outbox.cif.g08.bks.cpg/sg56_5_cif.got.tgz:9350.got - 2010.06.03 13:42:01.
