data_PCOD9432161
_publ_section_title
;
Structure prediction by ZEFSAII (Michael W. Deem and Ramdas Pophale) SiO2 
 PCOD9432161
Probable space group: P C C N
;
_chemical_formula_sum "Si O2"
_cell_formula_units_Z 48
_cell_length_a 11.784479
_cell_length_b 8.836330
_cell_length_c 17.380342
_cell_angle_alpha 90.000000
_cell_angle_beta 90.000000
_cell_angle_gamma 90.000000
_cell_volume 1809.841871
_symmetry_space_group_name_H-M "P C C N"
_symmetry_group_IT_number 56
_symmetry_cell_setting 'orthorhombic'
loop_
_space_group_symop_operation_xyz
x,y,z
1/2-x,1/2-y,z
1/2+x,-y,1/2-z
-x,1/2+y,1/2-z
-x,-y,-z
1/2+x,1/2+y,-z
1/2-x,y,1/2+z
x,1/2-y,1/2+z
loop_
_atom_site_type_symbol
_atom_site_label
_atom_site_fract_x
_atom_site_fract_y
_atom_site_fract_z
Si Si1 0.027880 0.747649 0.997443
Si Si2 0.378622 0.466662 0.400995
Si Si3 0.029233 0.946841 0.251007
Si Si4 0.149883 0.837088 0.767960
Si Si5 0.682248 0.534703 0.989191
Si Si6 0.687380 0.597336 0.339541
O O1 0.970476 0.651848 0.066020
O O2 0.124025 0.871256 0.015932
O O3 0.084465 0.626178 0.940263
O O4 0.918471 0.846842 0.970736
O O5 0.388304 0.463060 0.308813
O O6 0.250258 0.438472 0.431232
O O7 0.084546 0.794382 0.221268
O O8 0.941546 0.883296 0.315389
O O9 0.950183 0.054525 0.198514
O O10 0.250000 0.750000 0.813877
O O11 0.212839 0.947741 0.709231
O O12 0.779702 0.558689 0.925957
O O13 0.750000 0.750000 0.317687
#
# Coordination Sequence:
#
# PCOD9432161 Si02
#       6
#     8   8   8   8   8   8
#     4  10  23  38  64 106 144 172 221 274 337 440
#     4  11  21  39  68  93 142 179 214 278 352 408
#     4  10  25  44  66  98 133 179 238 293 343 407
#     4  10  26  44  71  96 130 184 239 297 345 402
#     4  11  22  40  66 108 140 179 221 274 356 430
#     4  10  22  40  76  96 136 178 236 287 346 422
#
# _framework density 26.521653000000001
#
# number of rings (size 3 to 8) (size 9 to 14) (size 15 to 20)
#    1.000    0.667    0.000    5.000    4.667    1.333 
#    0.000    3.333    0.000    0.000    0.000    0.000 
#    0.000    0.000    0.000    0.000    0.000    0.000 
#
# Total GULP energy -268028.545898 kJ/mol
# GULP energy per Si atom -5583.928040 kJ/mol
# Density = 2.646129 g / cm^3
# Si number density = 26.521653 Si / 1000 Ang^3
#
#
#
# Elastic Constant Matrix: (Units=GPa)
#
#
# Indices 1 2 3 4 5 6 
#
# 1 116.2322 58.4860 41.7799 0.0000 0.0000 0.0000
# 2 58.4860 162.0921 28.6383 0.0000 0.0000 0.0000
# 3 41.7799 28.6383 63.9215 0.0000 0.0000 0.0000
# 4 0.0000 0.0000 0.0000 14.4717 0.0000 0.0000
# 5 0.0000 0.0000 0.0000 0.0000 24.7163 0.0000
# 6 0.0000 0.0000 0.0000 0.0000 0.0000 59.2784
#
#
#
# Elastic Compliance Matrix: (Units=1/GPa)
#
#
# Indices 1 2 3 4 5 6 
#
# 1 0.012767 -0.003401 -0.006821 0.000000 0.000000 0.000000
# 2 -0.003401 0.007606 -0.001184 0.000000 0.000000 0.000000
# 3 -0.006821 -0.001184 0.020633 0.000000 0.000000 0.000000
# 4 0.000000 0.000000 0.000000 0.069100 0.000000 0.000000
# 5 0.000000 0.000000 0.000000 0.000000 0.040459 0.000000
# 6 0.000000 0.000000 0.000000 0.000000 0.000000 0.016870
#
#
# Mechanical properties :
#
#
# Convention : Reuss Voigt Hill
#
# Bulk Modulus (GPa) = 54.96725 66.67269 60.81997
# Shear Modulus (GPa) = 25.46976 33.91606 29.69291
#
# Velocity S-wave (km/s) = 3.10229 3.57992 3.34963
# Velocity P-wave (km/s) = 5.79679 6.50241 6.15971
#
# Compressibility (1/GPa) = 0.01819265
#
# Stress axis : x y z
#
# Youngs Moduli (GPa) = 78.32901 131.47716 48.46642
#
# Poissons Ratio (x) = 0.44721 0.33057
# Poissons Ratio (y) = 0.26643 0.05740
# Poissons Ratio (z) = 0.53425 0.15572
#
# Static dielectric constant tensor:
#      x y z
#    x 2.179580 0.000000 0.000000 
#    y 0.000000 2.102690 0.000000 
#    z 0.000000 0.000000 2.014560 
# 
# From -- ./inp_files/20911.got.cif
#   From: 2010.05.17/outbox.cif.g08.bks.cpg/sg56_11_cif.got.tgz:20911.got - 2010.06.03 13:42:01.
