data_PCOD9432717
_publ_section_title
;
Structure prediction by ZEFSAII (Michael W. Deem and Ramdas Pophale) SiO2 
 PCOD9432717
Probable space group: P C C N
;
_chemical_formula_sum "Si O2"
_cell_formula_units_Z 40
_cell_length_a 17.784145
_cell_length_b 9.143909
_cell_length_c 10.468880
_cell_angle_alpha 90.000000
_cell_angle_beta 90.000000
_cell_angle_gamma 90.000000
_cell_volume 1702.413708
_symmetry_space_group_name_H-M "P C C N"
_symmetry_group_IT_number 56
_symmetry_cell_setting 'orthorhombic'
loop_
_space_group_symop_operation_xyz
x,y,z
1/2-x,1/2-y,z
1/2+x,-y,1/2-z
-x,1/2+y,1/2-z
-x,-y,-z
1/2+x,1/2+y,-z
1/2-x,y,1/2+z
x,1/2-y,1/2+z
loop_
_atom_site_type_symbol
_atom_site_label
_atom_site_fract_x
_atom_site_fract_y
_atom_site_fract_z
Si Si1 0.594690 0.538795 0.727054
Si Si2 0.682719 0.159931 0.858229
Si Si3 0.874534 0.417336 0.508008
Si Si4 0.265826 0.417739 0.460309
Si Si5 0.965086 0.274451 0.698220
O O1 0.667926 0.563573 0.642148
O O2 0.546915 0.397927 0.677787
O O3 0.541592 0.680404 0.733653
O O4 0.615877 0.495264 0.871853
O O5 0.750000 0.250000 0.790594
O O6 0.606144 0.170296 0.780738
O O7 0.665127 0.261738 0.981396
O O8 0.708590 0.005694 0.912826
O O9 0.813264 0.511408 0.584450
O O10 0.952728 0.372110 0.571917
O O11 0.250000 0.250000 0.488311
#
# Coordination Sequence:
#
# PCOD9432717 Si02
#       5
#     8   8   8   8   8
#     4  11  26  45  67 105 135 183 228 277 356 405
#     4   9  21  42  70  98 128 182 231 275 340 406
#     4  10  23  44  70  90 139 179 226 280 338 413
#     4  11  25  43  69 101 135 173 236 288 332 406
#     4  11  24  43  70  97 142 179 226 284 342 417
#
# _framework density 23.49605
#
# number of rings (size 3 to 8) (size 9 to 14) (size 15 to 20)
#    0.000    1.600    2.000    0.600   11.200    3.200 
#    0.000    0.000    0.000    0.000    0.000    0.000 
#    0.000    0.000    0.000    0.000    0.000    0.000 
#
# Total GULP energy -223658.852981 kJ/mol
# GULP energy per Si atom -5591.471325 kJ/mol
# Density = 2.344257 g / cm^3
# Si number density = 23.496050 Si / 1000 Ang^3
#
#
#
# Elastic Constant Matrix: (Units=GPa)
#
#
# Indices 1 2 3 4 5 6 
#
# 1 57.5257 20.5497 10.9276 0.0000 0.0000 0.0000
# 2 20.5497 138.8962 10.8502 0.0000 0.0000 0.0000
# 3 10.9276 10.8502 51.3504 0.0000 0.0000 0.0000
# 4 0.0000 0.0000 0.0000 17.5878 0.0000 0.0000
# 5 0.0000 0.0000 0.0000 0.0000 11.0755 0.0000
# 6 0.0000 0.0000 0.0000 0.0000 0.0000 43.8257
#
#
#
# Elastic Compliance Matrix: (Units=1/GPa)
#
#
# Indices 1 2 3 4 5 6 
#
# 1 0.018952 -0.002531 -0.003498 0.000000 0.000000 0.000000
# 2 -0.002531 0.007658 -0.001080 0.000000 0.000000 0.000000
# 3 -0.003498 -0.001080 0.020447 0.000000 0.000000 0.000000
# 4 0.000000 0.000000 0.000000 0.056858 0.000000 0.000000
# 5 0.000000 0.000000 0.000000 0.000000 0.090290 0.000000
# 6 0.000000 0.000000 0.000000 0.000000 0.000000 0.022818
#
#
# Mechanical properties :
#
#
# Convention : Reuss Voigt Hill
#
# Bulk Modulus (GPa) = 30.45093 36.93636 33.69365
# Shear Modulus (GPa) = 20.64527 28.19410 24.41968
#
# Velocity S-wave (km/s) = 2.96745 3.46779 3.22733
# Velocity P-wave (km/s) = 4.97284 5.63812 5.31590
#
# Compressibility (1/GPa) = 0.03283972
#
# Stress axis : x y z
#
# Youngs Moduli (GPa) = 52.76458 130.57605 48.90778
#
# Poissons Ratio (x) = 0.33045 0.17110
# Poissons Ratio (y) = 0.13353 0.05280
# Poissons Ratio (z) = 0.18459 0.14098
#
# Static dielectric constant tensor:
#      x y z
#    x 1.923240 0.000000 0.000000 
#    y 0.000000 1.904060 0.000000 
#    z 0.000000 0.000000 1.967530 
# 
# From -- ./inp_files/8180.got.cif
#   From: 2010.05.17/outbox.cif.g08.bks.cpg/sg56_5_cif.got.tgz:8180.got - 2010.06.03 13:42:01.
