data_PCOD9432030
_publ_section_title
;
Structure prediction by ZEFSAII (Michael W. Deem and Ramdas Pophale) SiO2 
 PCOD9432030
Probable space group: P C C N
;
_chemical_formula_sum "Si O2"
_cell_formula_units_Z 48
_cell_length_a 7.658861
_cell_length_b 17.282989
_cell_length_c 16.134307
_cell_angle_alpha 90.000000
_cell_angle_beta 90.000000
_cell_angle_gamma 90.000000
_cell_volume 2135.666117
_symmetry_space_group_name_H-M "P C C N"
_symmetry_group_IT_number 56
_symmetry_cell_setting 'orthorhombic'
loop_
_space_group_symop_operation_xyz
x,y,z
1/2-x,1/2-y,z
1/2+x,-y,1/2-z
-x,1/2+y,1/2-z
-x,-y,-z
1/2+x,1/2+y,-z
1/2-x,y,1/2+z
x,1/2-y,1/2+z
loop_
_atom_site_type_symbol
_atom_site_label
_atom_site_fract_x
_atom_site_fract_y
_atom_site_fract_z
Si Si1 0.361188 0.900528 0.686197
Si Si2 0.120744 0.093817 0.448631
Si Si3 0.028692 0.457466 0.771350
Si Si4 0.221922 0.945823 0.008653
Si Si5 0.497463 0.646521 0.874771
Si Si6 0.750000 0.750000 0.987988
Si Si7 0.250000 0.750000 0.260463
O O1 0.383795 0.920924 0.590298
O O2 0.360069 0.809952 0.704897
O O3 0.166136 0.929645 0.708404
O O4 0.476217 0.952907 0.746439
O O5 0.131199 0.061664 0.355122
O O6 0.163298 0.183496 0.456617
O O7 0.922159 0.083406 0.481368
O O8 0.249703 0.037981 0.500469
O O9 0.093009 0.409425 0.691431
O O10 0.127859 0.906928 0.931003
O O11 0.377074 0.701838 0.819045
O O12 0.617529 0.701893 0.930005
#
# Coordination Sequence:
#
# PCOD9432030 Si02
#       7
#     8   8   8   8   8   4   4
#     4  10  22  39  63  91 118 157 203 246 299 361
#     4  10  22  41  64  90 120 158 204 252 301 360
#     4  10  22  40  61  87 119 159 201 241 302 367
#     4  10  22  43  65  85 121 169 206 239 300 378
#     4  11  24  40  60  89 123 161 201 247 305 362
#     4  12  26  38  60  96 122 152 204 260 304 344
#     4  10  22  40  62  88 120 158 198 246 302 356
#
# _framework density 22.475421999999998
#
# number of rings (size 3 to 8) (size 9 to 14) (size 15 to 20)
#    0.000    1.667    0.000    4.000    0.000   13.333 
#    0.000    0.000    0.000    0.000    0.000    0.000 
#    0.000    0.000    0.000    0.000    0.000    0.000 
#
# Total GULP energy -268542.997814 kJ/mol
# GULP energy per Si atom -5594.645788 kJ/mol
# Density = 2.242427 g / cm^3
# Si number density = 22.475422 Si / 1000 Ang^3
#
#
#
# Elastic Constant Matrix: (Units=GPa)
#
#
# Indices 1 2 3 4 5 6 
#
# 1 46.0942 30.4811 23.5924 0.0000 0.0000 0.0000
# 2 30.4811 150.3192 42.4660 0.0000 0.0000 0.0000
# 3 23.5924 42.4660 119.0188 0.0000 0.0000 0.0000
# 4 0.0000 0.0000 0.0000 38.1906 0.0000 0.0000
# 5 0.0000 0.0000 0.0000 0.0000 16.4992 0.0000
# 6 0.0000 0.0000 0.0000 0.0000 0.0000 36.9213
#
#
#
# Elastic Compliance Matrix: (Units=1/GPa)
#
#
# Indices 1 2 3 4 5 6 
#
# 1 0.026444 -0.004316 -0.003702 0.000000 0.000000 0.000000
# 2 -0.004316 0.008103 -0.002035 0.000000 0.000000 0.000000
# 3 -0.003702 -0.002035 0.009862 0.000000 0.000000 0.000000
# 4 0.000000 0.000000 0.000000 0.026184 0.000000 0.000000
# 5 0.000000 0.000000 0.000000 0.000000 0.060609 0.000000
# 6 0.000000 0.000000 0.000000 0.000000 0.000000 0.027085
#
#
# Mechanical properties :
#
#
# Convention : Reuss Voigt Hill
#
# Bulk Modulus (GPa) = 41.14984 56.50124 48.82554
# Shear Modulus (GPa) = 26.81052 32.91508 29.86280
#
# Velocity S-wave (km/s) = 3.45756 3.83102 3.64907
# Velocity P-wave (km/s) = 5.85561 6.69049 6.28692
#
# Compressibility (1/GPa) = 0.02430143
#
# Stress axis : x y z
#
# Youngs Moduli (GPa) = 37.81624 123.41402 101.39877
#
# Poissons Ratio (x) = 0.53270 0.37534
# Poissons Ratio (y) = 0.16323 0.20639
# Poissons Ratio (z) = 0.13998 0.25121
#
# Static dielectric constant tensor:
#      x y z
#    x 1.852150 0.000000 0.000000 
#    y 0.000000 1.828850 0.000000 
#    z 0.000000 0.000000 1.852930 
# 
# From -- ./inp_files/10725.got.cif
#   From: 2010.05.17/outbox.cif.g08.bks.cpg/sg56_6_cif.got.tgz:10725.got - 2010.06.03 13:42:01.
