data_PCOD9432022
_publ_section_title
;
Structure prediction by ZEFSAII (Michael W. Deem and Ramdas Pophale) SiO2 
 PCOD9432022
Probable space group: P C C N
;
_chemical_formula_sum "Si O2"
_cell_formula_units_Z 40
_cell_length_a 13.646980
_cell_length_b 12.776908
_cell_length_c 10.729383
_cell_angle_alpha 90.000000
_cell_angle_beta 90.000000
_cell_angle_gamma 90.000000
_cell_volume 1870.841827
_symmetry_space_group_name_H-M "P C C N"
_symmetry_group_IT_number 56
_symmetry_cell_setting 'orthorhombic'
loop_
_space_group_symop_operation_xyz
x,y,z
1/2-x,1/2-y,z
1/2+x,-y,1/2-z
-x,1/2+y,1/2-z
-x,-y,-z
1/2+x,1/2+y,-z
1/2-x,y,1/2+z
x,1/2-y,1/2+z
loop_
_atom_site_type_symbol
_atom_site_label
_atom_site_fract_x
_atom_site_fract_y
_atom_site_fract_z
Si Si1 0.957095 0.119093 0.925950
Si Si2 0.497513 0.420201 0.191957
Si Si3 0.652124 0.182338 0.848897
Si Si4 0.712577 0.630713 0.715948
Si Si5 0.253241 0.497696 0.034000
O O1 0.927942 0.234667 0.891897
O O2 0.856035 0.059068 0.958368
O O3 0.020669 0.117149 0.050210
O O4 0.001101 0.046592 0.817335
O O5 0.601295 0.375154 0.233930
O O6 0.405730 0.381074 0.272042
O O7 0.750000 0.250000 0.819736
O O8 0.676013 0.092720 0.949386
O O9 0.750000 0.750000 0.709800
O O10 0.742571 0.567507 0.591864
O O11 0.751917 0.574696 0.842248
#
# Coordination Sequence:
#
# PCOD9432022 Si02
#       5
#     8   8   8   8   8
#     4   9  21  40  60  90 127 167 209 270 330 376
#     4  10  22  39  62  90 126 166 214 263 320 386
#     4  10  22  39  65  95 126 168 215 266 320 380
#     4  11  24  41  63  92 129 173 213 262 325 386
#     4  10  22  41  64  91 126 168 217 266 321 389
#
# _framework density 21.380749999999999
#
# number of rings (size 3 to 8) (size 9 to 14) (size 15 to 20)
#    0.000    2.000    0.000    1.800    0.000   16.000 
#    0.000    0.000    0.000    0.000    0.000    0.000 
#    0.000    0.000    0.000    0.000    0.000    0.000 
#
# Total GULP energy -223307.184326 kJ/mol
# GULP energy per Si atom -5582.679608 kJ/mol
# Density = 2.133209 g / cm^3
# Si number density = 21.380750 Si / 1000 Ang^3
#
#
#
# Elastic Constant Matrix: (Units=GPa)
#
#
# Indices 1 2 3 4 5 6 
#
# 1 34.6890 38.7512 26.9315 0.0000 0.0000 0.0000
# 2 38.7512 163.1100 74.6541 0.0000 0.0000 0.0000
# 3 26.9315 74.6541 116.6808 0.0000 0.0000 0.0000
# 4 0.0000 0.0000 0.0000 15.4034 0.0000 0.0000
# 5 0.0000 0.0000 0.0000 0.0000 33.5078 0.0000
# 6 0.0000 0.0000 0.0000 0.0000 0.0000 10.8577
#
#
#
# Elastic Compliance Matrix: (Units=1/GPa)
#
#
# Indices 1 2 3 4 5 6 
#
# 1 0.040887 -0.007628 -0.004557 0.000000 0.000000 0.000000
# 2 -0.007628 0.010093 -0.004697 0.000000 0.000000 0.000000
# 3 -0.004557 -0.004697 0.012627 0.000000 0.000000 0.000000
# 4 0.000000 0.000000 0.000000 0.064921 0.000000 0.000000
# 5 0.000000 0.000000 0.000000 0.000000 0.029844 0.000000
# 6 0.000000 0.000000 0.000000 0.000000 0.000000 0.092100
#
#
# Mechanical properties :
#
#
# Convention : Reuss Voigt Hill
#
# Bulk Modulus (GPa) = 33.50817 66.12814 49.81816
# Shear Modulus (GPa) = 16.99624 23.56332 20.27978
#
# Velocity S-wave (km/s) = 2.82251 3.32336 3.08312
# Velocity P-wave (km/s) = 5.13111 6.76183 6.00210
#
# Compressibility (1/GPa) = 0.02984347
#
# Stress axis : x y z
#
# Youngs Moduli (GPa) = 24.45789 99.08024 79.19413
#
# Poissons Ratio (x) = 0.75581 0.36085
# Poissons Ratio (y) = 0.18657 0.37196
# Poissons Ratio (z) = 0.11144 0.46536
#
# Static dielectric constant tensor:
#      x y z
#    x 1.847880 0.000000 0.000000 
#    y 0.000000 1.816050 0.000000 
#    z 0.000000 0.000000 1.772590 
# 
# From -- ./inp_files/7661.got.cif
#   From: 2010.05.17/outbox.cif.g08.bks.cpg/sg56_4_cif.got.tgz:7661.got - 2010.06.03 13:42:01.
