data_PCOD9432863
_publ_section_title
;
Structure prediction by ZEFSAII (Michael W. Deem and Ramdas Pophale) SiO2 
 PCOD9432863
Probable space group: P C C N
;
_chemical_formula_sum "Si O2"
_cell_formula_units_Z 52
_cell_length_a 12.223069
_cell_length_b 21.691411
_cell_length_c 9.019324
_cell_angle_alpha 90.000000
_cell_angle_beta 90.000000
_cell_angle_gamma 90.000000
_cell_volume 2391.344001
_symmetry_space_group_name_H-M "P C C N"
_symmetry_group_IT_number 56
_symmetry_cell_setting 'orthorhombic'
loop_
_space_group_symop_operation_xyz
x,y,z
1/2-x,1/2-y,z
1/2+x,-y,1/2-z
-x,1/2+y,1/2-z
-x,-y,-z
1/2+x,1/2+y,-z
1/2-x,y,1/2+z
x,1/2-y,1/2+z
loop_
_atom_site_type_symbol
_atom_site_label
_atom_site_fract_x
_atom_site_fract_y
_atom_site_fract_z
Si Si1 0.276639 0.059360 0.890091
Si Si2 0.542677 0.491300 0.751906
Si Si3 0.628915 0.097829 0.791162
Si Si4 0.250000 0.250000 0.515379
Si Si5 0.143711 0.325519 0.271219
Si Si6 0.512953 0.614694 0.451006
Si Si7 0.666967 0.434840 0.985896
O O1 0.353124 0.036405 0.754627
O O2 0.193270 0.111618 0.837849
O O3 0.218567 0.998385 0.950824
O O4 0.368612 0.088205 0.999042
O O5 0.436778 0.532677 0.725733
O O6 0.550960 0.443799 0.615963
O O7 0.555674 0.452320 0.900701
O O8 0.646744 0.112837 0.619267
O O9 0.551021 0.136057 0.902409
O O10 0.745283 0.090049 0.868681
O O11 0.156968 0.275510 0.402837
O O12 0.284752 0.302257 0.631121
O O13 0.030704 0.339447 0.186514
#
# Coordination Sequence:
#
# PCOD9432863 Si02
#       7
#     8   8   8   4   8   8   8
#     4  11  19  34  59  79 117 172 199 236 303 355
#     4  11  21  34  53  82 123 160 218 236 285 371
#     4  11  21  33  49  75 115 158 205 240 286 345
#     4  10  24  42  60  88 106 156 210 262 300 364
#     4  11  22  40  63  82 118 156 204 248 311 348
#     4  11  20  37  52  83 116 158 201 252 286 369
#     4  12  20  35  51  77 122 170 199 245 287 347
#
# _framework density 21.745093000000001
#
# number of rings (size 3 to 8) (size 9 to 14) (size 15 to 20)
#    0.000    0.923    6.154    3.231    0.000    0.000 
#    2.769    0.000    0.000    0.000    0.000    0.000 
#    0.000   14.769    0.000    0.000    0.000    0.000 
#
# Total GULP energy -290065.931464 kJ/mol
# GULP energy per Si atom -5578.190990 kJ/mol
# Density = 2.169560 g / cm^3
# Si number density = 21.745093 Si / 1000 Ang^3
#
#
#
# Elastic Constant Matrix: (Units=GPa)
#
#
# Indices 1 2 3 4 5 6 
#
# 1 51.5552 -1.7871 19.5396 0.0000 0.0000 0.0000
# 2 -1.7871 18.5638 -2.4839 0.0000 0.0000 0.0000
# 3 19.5396 -2.4839 98.4601 0.0000 0.0000 0.0000
# 4 0.0000 0.0000 0.0000 16.0698 0.0000 0.0000
# 5 0.0000 0.0000 0.0000 0.0000 33.6195 0.0000
# 6 0.0000 0.0000 0.0000 0.0000 0.0000 12.4031
#
#
#
# Elastic Compliance Matrix: (Units=1/GPa)
#
#
# Indices 1 2 3 4 5 6 
#
# 1 0.021014 0.001470 -0.004133 0.000000 0.000000 0.000000
# 2 0.001470 0.054154 0.001074 0.000000 0.000000 0.000000
# 3 -0.004133 0.001074 0.011004 0.000000 0.000000 0.000000
# 4 0.000000 0.000000 0.000000 0.062229 0.000000 0.000000
# 5 0.000000 0.000000 0.000000 0.000000 0.029745 0.000000
# 6 0.000000 0.000000 0.000000 0.000000 0.000000 0.080625
#
#
# Mechanical properties :
#
#
# Convention : Reuss Voigt Hill
#
# Bulk Modulus (GPa) = 12.04909 22.12402 17.08656
# Shear Modulus (GPa) = 17.26447 22.63917 19.95182
#
# Velocity S-wave (km/s) = 2.82077 3.23013 3.03237
# Velocity P-wave (km/s) = 4.02020 4.90999 4.48721
#
# Compressibility (1/GPa) = 0.08299380
#
# Stress axis : x y z
#
# Youngs Moduli (GPa) = 47.58698 18.46602 90.87813
#
# Poissons Ratio (x) = -0.02714 0.37562
# Poissons Ratio (y) = -0.06995 -0.09764
# Poissons Ratio (z) = 0.19669 -0.01984
#
# Static dielectric constant tensor:
#      x y z
#    x 1.860810 0.000000 0.000000 
#    y 0.000000 1.818210 0.000000 
#    z 0.000000 0.000000 1.901430 
# 
# From -- ./inp_files/3655.got.cif
#   From: 2010.05.17/outbox.cif.g08.bks.cpg/sg56_2_cif.got.tgz:3655.got - 2010.06.03 13:42:01.
