data_PCOD9432040
_publ_section_title
;
Structure prediction by ZEFSAII (Michael W. Deem and Ramdas Pophale) SiO2 
 PCOD9432040
Probable space group: P C C N
;
_chemical_formula_sum "Si O2"
_cell_formula_units_Z 60
_cell_length_a 14.367912
_cell_length_b 14.533822
_cell_length_c 13.743369
_cell_angle_alpha 90.000000
_cell_angle_beta 90.000000
_cell_angle_gamma 90.000000
_cell_volume 2869.899598
_symmetry_space_group_name_H-M "P C C N"
_symmetry_group_IT_number 56
_symmetry_cell_setting 'orthorhombic'
loop_
_space_group_symop_operation_xyz
x,y,z
1/2-x,1/2-y,z
1/2+x,-y,1/2-z
-x,1/2+y,1/2-z
-x,-y,-z
1/2+x,1/2+y,-z
1/2-x,y,1/2+z
x,1/2-y,1/2+z
loop_
_atom_site_type_symbol
_atom_site_label
_atom_site_fract_x
_atom_site_fract_y
_atom_site_fract_z
Si Si1 0.117773 0.661940 0.419552
Si Si2 0.750000 0.250000 0.226765
Si Si3 0.926010 0.674091 0.331616
Si Si4 0.093010 0.118258 0.675612
Si Si5 0.420051 0.994250 0.778585
Si Si6 0.743807 0.909070 0.448363
Si Si7 0.289366 0.473202 0.848173
Si Si8 0.681829 0.106070 0.378851
O O1 0.163378 0.735128 0.345688
O O2 0.153804 0.563079 0.381307
O O3 0.152720 0.668242 0.529986
O O4 0.007582 0.666410 0.410814
O O5 0.736470 0.164040 0.298348
O O6 0.925876 0.777396 0.293336
O O7 0.946949 0.597986 0.249612
O O8 0.828552 0.645581 0.380587
O O9 0.152845 0.122544 0.576889
O O10 0.159249 0.070540 0.755981
O O11 0.999646 0.059157 0.664354
O O12 0.406304 0.938282 0.677104
O O13 0.317338 0.998916 0.825077
O O14 0.715497 0.904417 0.560440
O O15 0.736598 0.017297 0.418988
#
# Coordination Sequence:
#
# PCOD9432040 Si02
#       8
#     8   4   8   8   8   8   8   8
#     4  11  23  40  66  96 133 175 223 281 336 404
#     4  12  20  40  62  98 134 174 218 276 354 388
#     4  11  24  41  66 101 131 177 228 276 339 410
#     4  12  23  45  68 100 139 175 222 291 333 404
#     4  11  23  43  68  98 131 180 226 270 346 400
#     4  10  24  44  65  94 132 176 231 273 338 403
#     4  11  23  44  72  92 131 185 218 280 338 402
#     4  10  22  39  65  95 127 172 223 275 328 409
#
# _framework density 20.906654
#
# number of rings (size 3 to 8) (size 9 to 14) (size 15 to 20)
#    0.000    1.067    5.333    1.600    1.867    2.133 
#    4.800    0.000    0.000    0.000    0.000    0.000 
#    0.000    0.000    0.000    0.000    0.000    0.000 
#
# Total GULP energy -335252.152755 kJ/mol
# GULP energy per Si atom -5587.535879 kJ/mol
# Density = 2.085907 g / cm^3
# Si number density = 20.906654 Si / 1000 Ang^3
#
#
#
# Elastic Constant Matrix: (Units=GPa)
#
#
# Indices 1 2 3 4 5 6 
#
# 1 99.1080 29.6075 2.8030 0.0000 0.0000 0.0000
# 2 29.6075 66.4340 -1.4533 0.0000 0.0000 0.0000
# 3 2.8030 -1.4533 41.4811 0.0000 0.0000 0.0000
# 4 0.0000 0.0000 0.0000 14.2036 0.0000 0.0000
# 5 0.0000 0.0000 0.0000 0.0000 16.8598 0.0000
# 6 0.0000 0.0000 0.0000 0.0000 0.0000 19.4293
#
#
#
# Elastic Compliance Matrix: (Units=1/GPa)
#
#
# Indices 1 2 3 4 5 6 
#
# 1 0.011679 -0.005226 -0.000972 0.000000 0.000000 0.000000
# 2 -0.005226 0.017403 0.000963 0.000000 0.000000 0.000000
# 3 -0.000972 0.000963 0.024207 0.000000 0.000000 0.000000
# 4 0.000000 0.000000 0.000000 0.070405 0.000000 0.000000
# 5 0.000000 0.000000 0.000000 0.000000 0.059313 0.000000
# 6 0.000000 0.000000 0.000000 0.000000 0.000000 0.051469
#
#
# Mechanical properties :
#
#
# Convention : Reuss Voigt Hill
#
# Bulk Modulus (GPa) = 23.35509 29.88193 26.61851
# Shear Modulus (GPa) = 19.28879 21.83625 20.56252
#
# Velocity S-wave (km/s) = 3.04075 3.23532 3.13955
# Velocity P-wave (km/s) = 4.85011 5.31794 5.08940
#
# Compressibility (1/GPa) = 0.04281722
#
# Stress axis : x y z
#
# Youngs Moduli (GPa) = 85.62562 57.46235 41.31067
#
# Poissons Ratio (x) = 0.30030 0.04016
# Poissons Ratio (y) = 0.44749 -0.03978
# Poissons Ratio (z) = 0.08325 -0.05533
#
# Static dielectric constant tensor:
#      x y z
#    x 1.753320 0.000000 0.000000 
#    y 0.000000 1.775640 0.000000 
#    z 0.000000 0.000000 1.754330 
# 
# From -- ./inp_files/12407.got.cif
#   From: 2010.05.17/outbox.cif.g08.bks.cpg/sg56_7_cif.got.tgz:12407.got - 2010.06.03 13:42:01.
