data_PCOD9432636
_publ_section_title
;
Structure prediction by ZEFSAII (Michael W. Deem and Ramdas Pophale) SiO2 
 PCOD9432636
Probable space group: P C C N
;
_chemical_formula_sum "Si O2"
_cell_formula_units_Z 64
_cell_length_a 7.357285
_cell_length_b 30.511653
_cell_length_c 12.254012
_cell_angle_alpha 90.000000
_cell_angle_beta 90.000000
_cell_angle_gamma 90.000000
_cell_volume 2750.816481
_symmetry_space_group_name_H-M "P C C N"
_symmetry_group_IT_number 56
_symmetry_cell_setting 'orthorhombic'
loop_
_space_group_symop_operation_xyz
x,y,z
1/2-x,1/2-y,z
1/2+x,-y,1/2-z
-x,1/2+y,1/2-z
-x,-y,-z
1/2+x,1/2+y,-z
1/2-x,y,1/2+z
x,1/2-y,1/2+z
loop_
_atom_site_type_symbol
_atom_site_label
_atom_site_fract_x
_atom_site_fract_y
_atom_site_fract_z
Si Si1 0.908074 0.855010 0.077099
Si Si2 0.983218 0.928460 0.949611
Si Si3 0.436480 0.693266 0.690634
Si Si4 0.976287 0.215170 0.757394
Si Si5 0.511964 0.514303 0.146601
Si Si6 0.379849 0.100428 0.776970
Si Si7 0.925498 0.014791 0.380640
Si Si8 0.865434 0.704478 0.971030
O O1 0.806437 0.883795 0.168388
O O2 0.760366 0.837330 0.993287
O O3 0.959277 0.810833 0.137363
O O4 0.051444 0.884338 0.009691
O O5 0.858210 0.914040 0.848584
O O6 0.093087 0.966451 0.887081
O O7 0.903933 0.954642 0.053535
O O8 0.541727 0.734323 0.743025
O O9 0.236959 0.704582 0.732235
O O10 0.497049 0.644552 0.719895
O O11 0.477141 0.702088 0.563230
O O12 0.048359 0.197314 0.645452
O O13 0.536120 0.517615 0.276413
O O14 0.294947 0.518410 0.122704
O O15 0.478051 0.060720 0.843074
O O16 0.000000 0.000000 0.500000
O O17 0.750000 0.750000 0.977374
#
# Coordination Sequence:
#
# PCOD9432636 Si02
#       8
#     8   8   8   8   8   8   8   8
#     4  11  23  42  68 104 131 182 229 284 338 426
#     4  10  23  42  69  96 137 172 230 285 346 411
#     4  10  25  46  63 101 140 175 233 286 345 416
#     4  11  25  42  71  96 137 185 228 282 356 406
#     4  10  25  44  69  98 134 181 225 283 357 416
#     4  10  24  42  67 100 138 174 238 284 344 423
#     4  11  25  45  72  99 139 182 230 289 352 423
#     4  11  24  43  71  97 136 181 231 281 346 410
#
# _framework density 23.265819
#
# number of rings (size 3 to 8) (size 9 to 14) (size 15 to 20)
#    0.000    1.500    1.250    1.500   15.750    3.000 
#    6.750    0.000    0.000    0.000    0.000    0.000 
#    0.000    0.000    0.000    0.000    0.000    0.000 
#
# Total GULP energy -356454.810477 kJ/mol
# GULP energy per Si atom -5569.606414 kJ/mol
# Density = 2.321286 g / cm^3
# Si number density = 23.265819 Si / 1000 Ang^3
#
#
#
# Elastic Constant Matrix: (Units=GPa)
#
#
# Indices 1 2 3 4 5 6 
#
# 1 57.2984 -0.3916 33.8256 0.0000 0.0000 0.0000
# 2 -0.3916 97.3980 59.9715 0.0000 0.0000 0.0000
# 3 33.8256 59.9715 167.8917 0.0000 0.0000 0.0000
# 4 0.0000 0.0000 0.0000 42.6661 0.0000 0.0000
# 5 0.0000 0.0000 0.0000 0.0000 -3.5210 0.0000
# 6 0.0000 0.0000 0.0000 0.0000 0.0000 2.1927
#
#
#
# Elastic Compliance Matrix: (Units=1/GPa)
#
#
# Indices 1 2 3 4 5 6 
#
# 1 0.020646 0.003390 -0.005370 0.000000 0.000000 0.000000
# 2 0.003390 0.013719 -0.005583 0.000000 0.000000 0.000000
# 3 -0.005370 -0.005583 0.009033 0.000000 0.000000 0.000000
# 4 0.000000 0.000000 0.000000 0.023438 0.000000 0.000000
# 5 0.000000 0.000000 0.000000 0.000000 -0.284009 0.000000
# 6 0.000000 0.000000 0.000000 0.000000 0.000000 0.456053
#
#
# Mechanical properties :
#
#
# Convention : Reuss Voigt Hill
#
# Bulk Modulus (GPa) = 35.37402 56.59990 45.98696
# Shear Modulus (GPa) = 18.98039 23.54642 21.26341
#
# Velocity S-wave (km/s) = 2.85933 3.18474 3.02641
# Velocity P-wave (km/s) = 5.11256 6.15660 5.65871
#
# Compressibility (1/GPa) = 0.02826934
#
# Stress axis : x y z
#
# Youngs Moduli (GPa) = 48.43544 72.89372 110.71034
#
# Poissons Ratio (x) = -0.24709 0.59456
# Poissons Ratio (y) = -0.16419 0.61813
# Poissons Ratio (z) = 0.26012 0.40699
#
# Static dielectric constant tensor:
#      x y z
#    x 2.003360 0.000000 0.000000 
#    y 0.000000 2.023210 0.000000 
#    z 0.000000 0.000000 1.891870 
# 
# From -- ./inp_files/6626.got.cif
#   From: 2010.05.17/outbox.cif.g08.bks.cpg/sg56_4_cif.got.tgz:6626.got - 2010.06.03 13:42:01.
