data_PCOD9432234
_publ_section_title
;
Structure prediction by ZEFSAII (Michael W. Deem and Ramdas Pophale) SiO2 
 PCOD9432234
Probable space group: P C C N
;
_chemical_formula_sum "Si O2"
_cell_formula_units_Z 60
_cell_length_a 9.016883
_cell_length_b 30.845233
_cell_length_c 10.676335
_cell_angle_alpha 90.000000
_cell_angle_beta 90.000000
_cell_angle_gamma 90.000000
_cell_volume 2969.386175
_symmetry_space_group_name_H-M "P C C N"
_symmetry_group_IT_number 56
_symmetry_cell_setting 'orthorhombic'
loop_
_space_group_symop_operation_xyz
x,y,z
1/2-x,1/2-y,z
1/2+x,-y,1/2-z
-x,1/2+y,1/2-z
-x,-y,-z
1/2+x,1/2+y,-z
1/2-x,y,1/2+z
x,1/2-y,1/2+z
loop_
_atom_site_type_symbol
_atom_site_label
_atom_site_fract_x
_atom_site_fract_y
_atom_site_fract_z
Si Si1 0.047012 0.179664 0.127884
Si Si2 0.145820 0.914617 0.173515
Si Si3 0.311680 0.547743 0.908491
Si Si4 0.315616 0.055429 0.396108
Si Si5 0.633697 0.914729 0.338536
Si Si6 0.452809 0.727549 0.636118
Si Si7 0.677106 0.179624 0.406375
Si Si8 0.750000 0.750000 0.001751
O O1 0.120504 0.136549 0.180136
O O2 0.170427 0.212714 0.077715
O O3 0.954171 0.204857 0.230930
O O4 0.931841 0.166982 0.019378
O O5 0.198622 0.937552 0.300400
O O6 0.182302 0.863340 0.177498
O O7 0.972273 0.924263 0.149184
O O8 0.222822 0.933836 0.047318
O O9 0.326810 0.496050 0.914888
O O10 0.470616 0.566481 0.865748
O O11 0.201618 0.064517 0.284952
O O12 0.278638 0.075683 0.532052
O O13 0.397859 0.776964 0.649423
O O14 0.338189 0.698500 0.555359
O O15 0.618082 0.729191 0.582689
#
# Coordination Sequence:
#
# PCOD9432234 Si02
#       8
#     8   8   8   8   8   8   8   4
#     4  11  22  43  61  94 129 174 217 270 330 389
#     4  11  23  42  66  97 130 173 220 284 326 407
#     4  11  22  43  66  93 132 168 221 278 343 395
#     4  11  23  42  66  96 127 175 216 280 342 401
#     4  11  24  41  67  93 133 170 222 275 333 410
#     4  10  23  39  67  88 132 169 213 274 318 390
#     4  10  22  42  62  96 123 171 227 263 328 382
#     4  10  24  40  62  94 130 172 212 264 326 398
#
# _framework density 20.206195999999998
#
# number of rings (size 3 to 8) (size 9 to 14) (size 15 to 20)
#    0.000    1.333    2.667    4.400    1.867    6.400 
#    2.400    2.667    0.000    0.000    0.000    0.000 
#    0.000    0.000    0.000    0.000    0.000    0.000 
#
# Total GULP energy -335130.926852 kJ/mol
# GULP energy per Si atom -5585.515448 kJ/mol
# Density = 2.016021 g / cm^3
# Si number density = 20.206196 Si / 1000 Ang^3
#
#
#
# Elastic Constant Matrix: (Units=GPa)
#
#
# Indices 1 2 3 4 5 6 
#
# 1 49.0712 5.1226 -8.9272 0.0000 0.0000 0.0000
# 2 5.1226 86.7059 -4.6727 0.0000 0.0000 0.0000
# 3 -8.9272 -4.6727 40.9341 0.0000 0.0000 0.0000
# 4 0.0000 0.0000 0.0000 33.5753 0.0000 0.0000
# 5 0.0000 0.0000 0.0000 0.0000 158.1440 0.0000
# 6 0.0000 0.0000 0.0000 0.0000 0.0000 39.8601
#
#
#
# Elastic Compliance Matrix: (Units=1/GPa)
#
#
# Indices 1 2 3 4 5 6 
#
# 1 0.021309 -0.001015 0.004531 0.000000 0.000000 0.000000
# 2 -0.001015 0.011653 0.001109 0.000000 0.000000 0.000000
# 3 0.004531 0.001109 0.025544 0.000000 0.000000 0.000000
# 4 0.000000 0.000000 0.000000 0.029784 0.000000 0.000000
# 5 0.000000 0.000000 0.000000 0.000000 0.006323 0.000000
# 6 0.000000 0.000000 0.000000 0.000000 0.000000 0.025088
#
#
# Mechanical properties :
#
#
# Convention : Reuss Voigt Hill
#
# Bulk Modulus (GPa) = 14.75857 17.75072 16.25465
# Shear Modulus (GPa) = 37.58391 58.66178 48.12284
#
# Velocity S-wave (km/s) = 4.31747 5.39394 4.88545
# Velocity P-wave (km/s) = 5.67221 6.89903 6.31548
#
# Compressibility (1/GPa) = 0.06775723
#
# Stress axis : x y z
#
# Youngs Moduli (GPa) = 46.92883 85.81517 39.14765
#
# Poissons Ratio (x) = 0.08708 -0.17739
# Poissons Ratio (y) = 0.04762 -0.04341
# Poissons Ratio (z) = -0.21265 -0.09516
#
# Static dielectric constant tensor:
#      x y z
#    x 1.763860 0.000000 0.000000 
#    y 0.000000 1.674890 0.000000 
#    z 0.000000 0.000000 1.745920 
# 
# From -- ./inp_files/6603.got.cif
#   From: 2010.05.17/outbox.cif.g08.bks.cpg/sg56_4_cif.got.tgz:6603.got - 2010.06.03 13:42:01.
