data_PCOD9432285
_publ_section_title
;
Structure prediction by ZEFSAII (Michael W. Deem and Ramdas Pophale) SiO2 
 PCOD9432285
Probable space group: P C C N
;
_chemical_formula_sum "Si O2"
_cell_formula_units_Z 36
_cell_length_a 7.315395
_cell_length_b 10.199149
_cell_length_c 18.782207
_cell_angle_alpha 90.000000
_cell_angle_beta 90.000000
_cell_angle_gamma 90.000000
_cell_volume 1401.355558
_symmetry_space_group_name_H-M "P C C N"
_symmetry_group_IT_number 56
_symmetry_cell_setting 'orthorhombic'
loop_
_space_group_symop_operation_xyz
x,y,z
1/2-x,1/2-y,z
1/2+x,-y,1/2-z
-x,1/2+y,1/2-z
-x,-y,-z
1/2+x,1/2+y,-z
1/2-x,y,1/2+z
x,1/2-y,1/2+z
loop_
_atom_site_type_symbol
_atom_site_label
_atom_site_fract_x
_atom_site_fract_y
_atom_site_fract_z
Si Si1 0.545562 0.866349 0.455726
Si Si2 0.409702 0.007237 0.077113
Si Si3 0.601894 0.361553 0.202345
Si Si4 0.250000 0.750000 0.053441
Si Si5 0.191037 0.387751 0.817809
O O1 0.215186 0.880867 0.596883
O O2 0.432546 0.767191 0.506135
O O3 0.500000 0.000000 0.500000
O O4 0.759364 0.879989 0.434182
O O5 0.574306 0.987982 0.132361
O O6 0.500000 0.000000 0.000000
O O7 0.750000 0.250000 0.219028
O O8 0.552783 0.353138 0.119609
O O9 0.657530 0.514153 0.212830
O O10 0.431231 0.337903 0.253109
O O11 0.250000 0.250000 0.855721
#
# Coordination Sequence:
#
# PCOD9432285 Si02
#       5
#     8   8   8   4   8
#     4  10  22  43  72 104 148 196 246 314 378 456
#     4  11  26  42  71 108 148 198 247 318 381 457
#     4  12  26  49  75 107 151 200 255 315 386 458
#     4  10  22  42  68 102 146 190 250 304 378 456
#     4  12  28  47  76 109 150 203 259 315 387 464
#
# _framework density 25.689411
#
# number of rings (size 3 to 8) (size 9 to 14) (size 15 to 20)
#    0.000    0.889    1.111    5.333   10.889    0.000 
#    0.000    0.000    0.000    0.000    0.000    0.000 
#    0.000    0.000    0.000    0.000    0.000    0.000 
#
# Total GULP energy -201119.240857 kJ/mol
# GULP energy per Si atom -5586.645579 kJ/mol
# Density = 2.563094 g / cm^3
# Si number density = 25.689411 Si / 1000 Ang^3
#
#
#
# Elastic Constant Matrix: (Units=GPa)
#
#
# Indices 1 2 3 4 5 6 
#
# 1 98.7065 33.5771 -7.8048 0.0000 0.0000 0.0000
# 2 33.5771 146.9549 -22.7020 0.0000 0.0000 0.0000
# 3 -7.8048 -22.7020 56.1114 0.0000 0.0000 0.0000
# 4 0.0000 0.0000 0.0000 10.9642 0.0000 0.0000
# 5 0.0000 0.0000 0.0000 0.0000 47.5097 0.0000
# 6 0.0000 0.0000 0.0000 0.0000 0.0000 49.2923
#
#
#
# Elastic Compliance Matrix: (Units=1/GPa)
#
#
# Indices 1 2 3 4 5 6 
#
# 1 0.011001 -0.002429 0.000547 0.000000 0.000000 0.000000
# 2 -0.002429 0.007795 0.002816 0.000000 0.000000 0.000000
# 3 0.000547 0.002816 0.019037 0.000000 0.000000 0.000000
# 4 0.000000 0.000000 0.000000 0.091206 0.000000 0.000000
# 5 0.000000 0.000000 0.000000 0.000000 0.021048 0.000000
# 6 0.000000 0.000000 0.000000 0.000000 0.000000 0.020287
#
#
# Mechanical properties :
#
#
# Convention : Reuss Voigt Hill
#
# Bulk Modulus (GPa) = 25.18822 34.21259 29.70040
# Shear Modulus (GPa) = 27.51196 41.46672 34.48934
#
# Velocity S-wave (km/s) = 3.27608 4.02201 3.66806
# Velocity P-wave (km/s) = 4.91289 5.90893 5.43378
#
# Compressibility (1/GPa) = 0.03970111
#
# Stress axis : x y z
#
# Youngs Moduli (GPa) = 90.90431 128.29107 52.52906
#
# Poissons Ratio (x) = 0.31161 -0.02876
# Poissons Ratio (y) = 0.22080 -0.14791
# Poissons Ratio (z) = -0.04976 -0.36124
#
# Static dielectric constant tensor:
#      x y z
#    x 2.199480 0.000000 0.000000 
#    y 0.000000 2.172550 0.000000 
#    z 0.000000 0.000000 1.937570 
# 
# From -- ./inp_files/19872.got.cif
#   From: 2010.05.17/outbox.cif.g08.bks.cpg/sg56_10_cif.got.tgz:19872.got - 2010.06.03 13:42:01.
