data_PCOD9432962
_publ_section_title
;
Structure prediction by ZEFSAII (Michael W. Deem and Ramdas Pophale) SiO2 
 PCOD9432962
Probable space group: P C C N
;
_chemical_formula_sum "Si O2"
_cell_formula_units_Z 32
_cell_length_a 6.526004
_cell_length_b 21.200952
_cell_length_c 9.972464
_cell_angle_alpha 90.000000
_cell_angle_beta 90.000000
_cell_angle_gamma 90.000000
_cell_volume 1379.765164
_symmetry_space_group_name_H-M "P C C N"
_symmetry_group_IT_number 56
_symmetry_cell_setting 'orthorhombic'
loop_
_space_group_symop_operation_xyz
x,y,z
1/2-x,1/2-y,z
1/2+x,-y,1/2-z
-x,1/2+y,1/2-z
-x,-y,-z
1/2+x,1/2+y,-z
1/2-x,y,1/2+z
x,1/2-y,1/2+z
loop_
_atom_site_type_symbol
_atom_site_label
_atom_site_fract_x
_atom_site_fract_y
_atom_site_fract_z
Si Si1 0.250000 0.250000 0.750001
Si Si2 0.000000 0.000000 0.000000
Si Si3 0.940426 0.352266 0.847338
Si Si4 0.750001 0.958802 0.749999
Si Si5 0.059574 0.852266 0.347335
O O1 0.398270 0.205202 0.835832
O O2 0.101730 0.205202 0.664170
O O3 0.825046 0.995226 0.880666
O O4 0.174955 0.004773 0.880666
O O5 0.750000 0.340612 0.750001
O O6 0.066313 0.412593 0.796604
O O7 0.869687 0.359223 0.000001
O O8 0.566313 0.912593 0.796601
#
# Coordination Sequence:
#
# PCOD9432962 Si02
#       5
#     4   4   8   8   8
#     4  10  24  44  72 108 146 192 246 296 370 444
#     4  12  28  52  76 106 150 202 248 324 378 448
#     4  11  25  45  72 107 146 191 241 306 367 448
#     4  11  28  47  76 106 146 189 256 307 382 444
#     4  11  25  45  72 107 146 191 241 306 367 448
#
# _framework density 23.192353000000001
#
# number of rings (size 3 to 8) (size 9 to 14) (size 15 to 20)
#    0.000    1.000    2.500    1.500    7.000    7.000 
#    0.000    0.000    0.000    0.000    0.000    0.000 
#    0.000    0.000    0.000    0.000    0.000    0.000 
#
# Total GULP energy -178209.168950 kJ/mol
# GULP energy per Si atom -5569.036530 kJ/mol
# Density = 2.313957 g / cm^3
# Si number density = 23.192353 Si / 1000 Ang^3
#
#
#
# Elastic Constant Matrix: (Units=GPa)
#
#
# Indices 1 2 3 4 5 6 
#
# 1 173.1660 44.0730 97.5320 0.0000 0.0000 0.0000
# 2 44.0730 49.3898 61.2058 0.0000 0.0000 0.0000
# 3 97.5320 61.2058 291.0451 0.0000 0.0000 0.0000
# 4 0.0000 0.0000 0.0000 -2.1037 0.0000 0.0000
# 5 0.0000 0.0000 0.0000 0.0000 49.8639 0.0000
# 6 0.0000 0.0000 0.0000 0.0000 0.0000 30.2045
#
#
#
# Elastic Compliance Matrix: (Units=1/GPa)
#
#
# Indices 1 2 3 4 5 6 
#
# 1 0.007982 -0.005150 -0.001592 0.000000 0.000000 0.000000
# 2 -0.005150 0.030707 -0.004732 0.000000 0.000000 0.000000
# 3 -0.001592 -0.004732 0.004964 0.000000 0.000000 0.000000
# 4 0.000000 0.000000 0.000000 -0.475349 0.000000 0.000000
# 5 0.000000 0.000000 0.000000 0.000000 0.020055 0.000000
# 6 0.000000 0.000000 0.000000 0.000000 0.000000 0.033108
#
#
# Mechanical properties :
#
#
# Convention : Reuss Voigt Hill
#
# Bulk Modulus (GPa) = 48.29580 102.13584 75.21582
# Shear Modulus (GPa) = -14.33962 36.31227 10.98633
#
# Velocity S-wave (km/s) = -2.48924 3.96119 2.17884
# Velocity P-wave (km/s) = 3.55070 8.06570 6.23149
#
# Compressibility (1/GPa) = 0.02070574
#
# Stress axis : x y z
#
# Youngs Moduli (GPa) = 125.27922 32.56639 201.43569
#
# Poissons Ratio (x) = 0.16773 0.32065
# Poissons Ratio (y) = 0.64522 0.95311
# Poissons Ratio (z) = 0.19942 0.15409
#
# Static dielectric constant tensor:
#      x y z
#    x 1.919030 0.000000 0.000000 
#    y 0.000000 1.936260 0.000000 
#    z 0.000000 0.000000 1.770600 
# 
# From -- ./inp_files/1566.got.cif
#   From: 2010.05.17/outbox.cif.g08.bks.cpg/sg56_1_cif.got.tgz:1566.got - 2010.06.03 13:42:01.
