data_PCOD9432153
_publ_section_title
;
Structure prediction by ZEFSAII (Michael W. Deem and Ramdas Pophale) SiO2 
 PCOD9432153
Probable space group: P C C N
;
_chemical_formula_sum "Si O2"
_cell_formula_units_Z 28
_cell_length_a 9.657539
_cell_length_b 5.486556
_cell_length_c 15.333105
_cell_angle_alpha 90.000000
_cell_angle_beta 90.000000
_cell_angle_gamma 90.000000
_cell_volume 812.449539
_symmetry_space_group_name_H-M "P C C N"
_symmetry_group_IT_number 56
_symmetry_cell_setting 'orthorhombic'
loop_
_space_group_symop_operation_xyz
x,y,z
1/2-x,1/2-y,z
1/2+x,-y,1/2-z
-x,1/2+y,1/2-z
-x,-y,-z
1/2+x,1/2+y,-z
1/2-x,y,1/2+z
x,1/2-y,1/2+z
loop_
_atom_site_type_symbol
_atom_site_label
_atom_site_fract_x
_atom_site_fract_y
_atom_site_fract_z
Si Si1 0.250000 0.250000 0.114955
Si Si2 0.250000 0.750000 0.942762
Si Si3 0.584398 0.864488 0.248622
Si Si4 0.080343 0.716823 0.608020
Si Si5 0.250000 0.250000 0.897060
O O1 0.169760 0.540171 0.130468
O O2 0.250000 0.250000 0.006124
O O3 0.250000 0.250000 0.244465
O O4 0.384570 0.727594 0.005537
O O5 0.273050 0.533197 0.878993
O O6 0.537139 0.153201 0.244411
O O7 0.602422 0.924912 0.362066
O O8 0.575234 0.801800 0.134685
#
# Coordination Sequence:
#
# PCOD9432153 Si02
#       5
#     4   4   8   8   4
#     4   7  19  40  62 107 135 170 244 301 361 404
#     4  12  28  44  74 100 162 190 244 290 386 428
#     4   9  22  42  70 105 138 186 251 300 362 418
#     4  10  22  40  73 104 134 191 246 309 348 438
#     4  11  27  50  66 109 151 204 224 313 361 458
#
# _framework density 34.463675000000002
#
# number of rings (size 3 to 8) (size 9 to 14) (size 15 to 20)
#    1.714    0.571    0.000    0.857    4.000    5.714 
#    0.000    0.000    0.000    0.000    0.000    0.000 
#    0.000    0.000    0.000    0.000    0.000    0.000 
#
# Total GULP energy -156061.056715 kJ/mol
# GULP energy per Si atom -5573.609168 kJ/mol
# Density = 3.438523 g / cm^3
# Si number density = 34.463675 Si / 1000 Ang^3
#
#
#
# Elastic Constant Matrix: (Units=GPa)
#
#
# Indices 1 2 3 4 5 6 
#
# 1 214.0642 138.0854 113.5266 0.0000 0.0000 0.0000
# 2 138.0854 367.7185 126.3104 0.0000 0.0000 0.0000
# 3 113.5266 126.3104 204.8887 0.0000 0.0000 0.0000
# 4 0.0000 0.0000 0.0000 126.4087 0.0000 0.0000
# 5 0.0000 0.0000 0.0000 0.0000 87.3466 0.0000
# 6 0.0000 0.0000 0.0000 0.0000 0.0000 88.6900
#
#
#
# Elastic Compliance Matrix: (Units=1/GPa)
#
#
# Indices 1 2 3 4 5 6 
#
# 1 0.007399 -0.001738 -0.003028 0.000000 0.000000 0.000000
# 2 -0.001738 0.003858 -0.001416 0.000000 0.000000 0.000000
# 3 -0.003028 -0.001416 0.007431 0.000000 0.000000 0.000000
# 4 0.000000 0.000000 0.000000 0.007911 0.000000 0.000000
# 5 0.000000 0.000000 0.000000 0.000000 0.011449 0.000000
# 6 0.000000 0.000000 0.000000 0.000000 0.000000 0.011275
#
#
# Mechanical properties :
#
#
# Convention : Reuss Voigt Hill
#
# Bulk Modulus (GPa) = 158.10782 171.39068 164.74925
# Shear Modulus (GPa) = 78.37686 87.73899 83.05792
#
# Velocity S-wave (km/s) = 4.77402 5.05111 4.91451
# Velocity P-wave (km/s) = 8.73868 9.15735 8.95046
#
# Compressibility (1/GPa) = 0.00632480
#
# Stress axis : x y z
#
# Youngs Moduli (GPa) = 135.16121 259.17192 134.57035
#
# Poissons Ratio (x) = 0.45050 0.40746
# Poissons Ratio (y) = 0.23494 0.19049
# Poissons Ratio (z) = 0.40925 0.36686
#
# Static dielectric constant tensor:
#      x y z
#    x 2.950830 0.000000 0.000000 
#    y 0.000000 2.612170 0.000000 
#    z 0.000000 0.000000 3.427090 
# 
# From -- ./inp_files/5420.got.cif
#   From: 2010.05.17/outbox.cif.g08.bks.cpg/sg56_3_cif.got.tgz:5420.got - 2010.06.03 13:42:01.
