data_PCOD9432416
_publ_section_title
;
Structure prediction by ZEFSAII (Michael W. Deem and Ramdas Pophale) SiO2 
 PCOD9432416
Probable space group: P C C N
;
_chemical_formula_sum "Si O2"
_cell_formula_units_Z 64
_cell_length_a 9.362123
_cell_length_b 24.375399
_cell_length_c 11.347292
_cell_angle_alpha 90.000000
_cell_angle_beta 90.000000
_cell_angle_gamma 90.000000
_cell_volume 2589.514259
_symmetry_space_group_name_H-M "P C C N"
_symmetry_group_IT_number 56
_symmetry_cell_setting 'orthorhombic'
loop_
_space_group_symop_operation_xyz
x,y,z
1/2-x,1/2-y,z
1/2+x,-y,1/2-z
-x,1/2+y,1/2-z
-x,-y,-z
1/2+x,1/2+y,-z
1/2-x,y,1/2+z
x,1/2-y,1/2+z
loop_
_atom_site_type_symbol
_atom_site_label
_atom_site_fract_x
_atom_site_fract_y
_atom_site_fract_z
Si Si1 0.085927 0.238104 0.101943
Si Si2 0.099814 0.565538 0.494359
Si Si3 0.122770 0.784668 0.216829
Si Si4 0.770011 0.489465 0.302714
Si Si5 0.563933 0.846609 0.046918
Si Si6 0.848506 0.112137 0.629964
Si Si7 0.602949 0.852848 0.567006
Si Si8 0.991892 0.565376 0.228440
O O1 0.250000 0.250000 0.139670
O O2 0.050870 0.283267 0.998068
O O3 0.083619 0.176036 0.059195
O O4 0.968248 0.245217 0.199903
O O5 0.159928 0.514892 0.567554
O O6 0.237501 0.605110 0.478387
O O7 0.045233 0.564688 0.362180
O O8 0.970198 0.588857 0.569882
O O9 0.250000 0.750000 0.157309
O O10 0.186204 0.832695 0.299032
O O11 0.999166 0.815613 0.146034
O O12 0.826914 0.438466 0.220557
O O13 0.602424 0.479770 0.323434
O O14 0.830556 0.542512 0.236198
O O15 0.729436 0.851571 0.082543
O O16 0.491781 0.878181 0.156962
O O17 0.503388 0.879516 0.931907
#
# Coordination Sequence:
#
# PCOD9432416 Si02
#       8
#     8   8   8   8   8   8   8   8
#     4   9  22  42  63  95 132 174 228 271 332 409
#     4  11  23  44  65  96 136 169 227 282 345 402
#     4  11  23  39  65  98 135 179 220 276 339 403
#     4  11  24  44  67 100 132 178 232 284 351 413
#     4  10  23  44  66  99 133 183 227 276 349 400
#     4  10  22  44  69  93 136 179 224 286 335 413
#     4  11  24  40  68  99 135 177 225 282 333 420
#     4  11  26  43  71  98 137 182 226 295 346 415
#
# _framework density 24.715060000000001
#
# number of rings (size 3 to 8) (size 9 to 14) (size 15 to 20)
#    0.000    1.500    2.500    1.125    1.750   11.500 
#    0.000    0.000    0.000    0.000    0.000    0.000 
#    0.000    0.000    0.000    0.000    0.000    0.000 
#
# Total GULP energy -356998.675256 kJ/mol
# GULP energy per Si atom -5578.104301 kJ/mol
# Density = 2.465881 g / cm^3
# Si number density = 24.715060 Si / 1000 Ang^3
#
#
#
# Elastic Constant Matrix: (Units=GPa)
#
#
# Indices 1 2 3 4 5 6 
#
# 1 113.8723 14.9676 25.0371 0.0000 0.0000 0.0000
# 2 14.9676 32.1082 0.9880 0.0000 0.0000 0.0000
# 3 25.0371 0.9880 54.9424 0.0000 0.0000 0.0000
# 4 0.0000 0.0000 0.0000 13.4823 0.0000 0.0000
# 5 0.0000 0.0000 0.0000 0.0000 23.7621 0.0000
# 6 0.0000 0.0000 0.0000 0.0000 0.0000 20.7385
#
#
#
# Elastic Compliance Matrix: (Units=1/GPa)
#
#
# Indices 1 2 3 4 5 6 
#
# 1 0.010428 -0.004718 -0.004667 0.000000 0.000000 0.000000
# 2 -0.004718 0.033296 0.001551 0.000000 0.000000 0.000000
# 3 -0.004667 0.001551 0.020300 0.000000 0.000000 0.000000
# 4 0.000000 0.000000 0.000000 0.074171 0.000000 0.000000
# 5 0.000000 0.000000 0.000000 0.000000 0.042084 0.000000
# 6 0.000000 0.000000 0.000000 0.000000 0.000000 0.048219
#
#
# Mechanical properties :
#
#
# Convention : Reuss Voigt Hill
#
# Bulk Modulus (GPa) = 20.67973 31.43427 26.05700
# Shear Modulus (GPa) = 19.20975 22.25861 20.73418
#
# Velocity S-wave (km/s) = 2.79094 3.00427 2.89957
# Velocity P-wave (km/s) = 4.33258 4.97800 4.66646
#
# Compressibility (1/GPa) = 0.04835654
#
# Stress axis : x y z
#
# Youngs Moduli (GPa) = 95.89548 30.03354 49.26157
#
# Poissons Ratio (x) = 0.14168 0.22991
# Poissons Ratio (y) = 0.45239 -0.07641
# Poissons Ratio (z) = 0.44756 -0.04658
#
# Static dielectric constant tensor:
#      x y z
#    x 2.103000 0.000000 0.000000 
#    y 0.000000 1.960730 0.000000 
#    z 0.000000 0.000000 2.037650 
# 
# From -- ./inp_files/6608.got.cif
#   From: 2010.05.17/outbox.cif.g08.bks.cpg/sg56_4_cif.got.tgz:6608.got - 2010.06.03 13:42:01.
