data_PCOD9432523
_publ_section_title
;
Structure prediction by ZEFSAII (Michael W. Deem and Ramdas Pophale) SiO2 
 PCOD9432523
Probable space group: P C C N
;
_chemical_formula_sum "Si O2"
_cell_formula_units_Z 56
_cell_length_a 19.136295
_cell_length_b 11.321833
_cell_length_c 12.884849
_cell_angle_alpha 90.000000
_cell_angle_beta 90.000000
_cell_angle_gamma 90.000000
_cell_volume 2791.604793
_symmetry_space_group_name_H-M "P C C N"
_symmetry_group_IT_number 56
_symmetry_cell_setting 'orthorhombic'
loop_
_space_group_symop_operation_xyz
x,y,z
1/2-x,1/2-y,z
1/2+x,-y,1/2-z
-x,1/2+y,1/2-z
-x,-y,-z
1/2+x,1/2+y,-z
1/2-x,y,1/2+z
x,1/2-y,1/2+z
loop_
_atom_site_type_symbol
_atom_site_label
_atom_site_fract_x
_atom_site_fract_y
_atom_site_fract_z
Si Si1 0.300746 0.493480 0.860811
Si Si2 0.584039 0.082461 0.926734
Si Si3 0.669272 0.282314 0.260258
Si Si4 0.135737 0.546685 0.841252
Si Si5 0.827694 0.703590 0.495828
Si Si6 0.117012 0.344703 0.191303
Si Si7 0.939544 0.682651 0.151761
O O1 0.334828 0.619094 0.830984
O O2 0.217420 0.512194 0.856689
O O3 0.326909 0.403873 0.770288
O O4 0.324688 0.433169 0.968564
O O5 0.640652 0.157908 0.863419
O O6 0.510720 0.144161 0.902168
O O7 0.587310 0.950843 0.878388
O O8 0.603202 0.074370 0.046443
O O9 0.750000 0.250000 0.273263
O O10 0.631379 0.162467 0.228663
O O11 0.094403 0.434431 0.798949
O O12 0.750000 0.750000 0.519978
O O13 0.846675 0.746001 0.380616
O O14 0.884506 0.768415 0.567778
O O15 0.057619 0.282671 0.260378
#
# Coordination Sequence:
#
# PCOD9432523 Si02
#       7
#     8   8   8   8   8   8   8
#     4   9  20  40  59  93 123 153 203 262 305 352
#     4  11  23  42  63  88 124 169 206 245 313 373
#     4   9  22  41  63  90 123 159 205 261 300 366
#     4  11  21  41  64  87 123 161 205 249 308 368
#     4  11  20  36  60  91 122 160 202 253 311 361
#     4  10  23  38  63  90 128 156 206 261 307 358
#     4  11  24  37  61  92 122 163 205 252 300 374
#
# _framework density 20.060146
#
# number of rings (size 3 to 8) (size 9 to 14) (size 15 to 20)
#    0.000    1.714    2.857    0.429    4.000    1.714 
#    5.143    0.000    0.000    5.143    0.000    0.000 
#    0.000    0.000    0.000    0.000    0.000    0.000 
#
# Total GULP energy -312706.560819 kJ/mol
# GULP energy per Si atom -5584.045729 kJ/mol
# Density = 2.001449 g / cm^3
# Si number density = 20.060146 Si / 1000 Ang^3
#
#
#
# Elastic Constant Matrix: (Units=GPa)
#
#
# Indices 1 2 3 4 5 6 
#
# 1 50.4844 10.9680 6.7687 0.0000 0.0000 0.0000
# 2 10.9680 86.0821 21.9292 0.0000 0.0000 0.0000
# 3 6.7687 21.9292 47.5746 0.0000 0.0000 0.0000
# 4 0.0000 0.0000 0.0000 2.4182 0.0000 0.0000
# 5 0.0000 0.0000 0.0000 0.0000 13.9974 0.0000
# 6 0.0000 0.0000 0.0000 0.0000 0.0000 25.1322
#
#
#
# Elastic Compliance Matrix: (Units=1/GPa)
#
#
# Indices 1 2 3 4 5 6 
#
# 1 0.020529 -0.002121 -0.001943 0.000000 0.000000 0.000000
# 2 -0.002121 0.013381 -0.005866 0.000000 0.000000 0.000000
# 3 -0.001943 -0.005866 0.024000 0.000000 0.000000 0.000000
# 4 0.000000 0.000000 0.000000 0.413525 0.000000 0.000000
# 5 0.000000 0.000000 0.000000 0.000000 0.071442 0.000000
# 6 0.000000 0.000000 0.000000 0.000000 0.000000 0.039790
#
#
# Mechanical properties :
#
#
# Convention : Reuss Voigt Hill
#
# Bulk Modulus (GPa) = 26.28102 29.27478 27.77790
# Shear Modulus (GPa) = 8.12729 17.94125 13.03427
#
# Velocity S-wave (km/s) = 2.01501 2.99385 2.55180
# Velocity P-wave (km/s) = 4.30618 5.15520 4.74970
#
# Compressibility (1/GPa) = 0.03805027
#
# Stress axis : x y z
#
# Youngs Moduli (GPa) = 48.71067 74.73017 41.66633
#
# Poissons Ratio (x) = 0.15848 0.08097
# Poissons Ratio (y) = 0.10330 0.24443
# Poissons Ratio (z) = 0.09466 0.43840
#
# Static dielectric constant tensor:
#      x y z
#    x 1.692140 0.000000 0.000000 
#    y 0.000000 1.724640 0.000000 
#    z 0.000000 0.000000 1.695930 
# 
# From -- ./inp_files/8654.got.cif
#   From: 2010.05.17/outbox.cif.g08.bks.cpg/sg56_5_cif.got.tgz:8654.got - 2010.06.03 13:42:01.
