data_PCOD9432313
_publ_section_title
;
Structure prediction by ZEFSAII (Michael W. Deem and Ramdas Pophale) SiO2 
 PCOD9432313
Probable space group: P C C N
;
_chemical_formula_sum "Si O2"
_cell_formula_units_Z 36
_cell_length_a 15.697857
_cell_length_b 9.691489
_cell_length_c 10.240634
_cell_angle_alpha 90.000000
_cell_angle_beta 90.000000
_cell_angle_gamma 90.000000
_cell_volume 1557.965084
_symmetry_space_group_name_H-M "P C C N"
_symmetry_group_IT_number 56
_symmetry_cell_setting 'orthorhombic'
loop_
_space_group_symop_operation_xyz
x,y,z
1/2-x,1/2-y,z
1/2+x,-y,1/2-z
-x,1/2+y,1/2-z
-x,-y,-z
1/2+x,1/2+y,-z
1/2-x,y,1/2+z
x,1/2-y,1/2+z
loop_
_atom_site_type_symbol
_atom_site_label
_atom_site_fract_x
_atom_site_fract_y
_atom_site_fract_z
Si Si1 0.123141 0.388784 0.439509
Si Si2 0.750000 0.750000 0.220473
Si Si3 0.517701 0.143064 0.633843
Si Si4 0.108875 0.741891 0.121017
Si Si5 0.258622 0.527384 0.114806
O O1 0.164557 0.260593 0.367120
O O2 0.054677 0.486115 0.366885
O O3 0.204469 0.484494 0.473648
O O4 0.077325 0.354313 0.576702
O O5 0.747262 0.612516 0.306235
O O6 0.570349 0.219991 0.519175
O O7 0.537259 0.208600 0.772518
O O8 0.171926 0.612374 0.109257
O O9 0.168500 0.868769 0.167839
#
# Coordination Sequence:
#
# PCOD9432313 Si02
#       5
#     8   4   8   8   8
#     4  10  23  41  62  94 136 176 214 276 339 394
#     4  12  22  40  62  92 132 174 210 280 334 402
#     4  10  22  43  68  94 133 172 224 276 330 397
#     4  10  22  42  71  96 124 177 223 274 326 398
#     4  10  23  39  66  94 130 167 229 267 331 400
#
# _framework density 23.107063
#
# number of rings (size 3 to 8) (size 9 to 14) (size 15 to 20)
#    0.000    1.778    2.222    0.667    6.222    1.778 
#    0.000    1.111    0.000    0.000    0.000    0.000 
#    0.000    0.000    0.000    0.000    0.000    0.000 
#
# Total GULP energy -201275.067066 kJ/mol
# GULP energy per Si atom -5590.974085 kJ/mol
# Density = 2.305447 g / cm^3
# Si number density = 23.107063 Si / 1000 Ang^3
#
#
#
# Elastic Constant Matrix: (Units=GPa)
#
#
# Indices 1 2 3 4 5 6 
#
# 1 92.6778 36.1532 16.6248 0.0000 0.0000 0.0000
# 2 36.1532 119.9108 16.9733 0.0000 0.0000 0.0000
# 3 16.6248 16.9733 39.4732 0.0000 0.0000 0.0000
# 4 0.0000 0.0000 0.0000 35.7463 0.0000 0.0000
# 5 0.0000 0.0000 0.0000 0.0000 35.0756 0.0000
# 6 0.0000 0.0000 0.0000 0.0000 0.0000 32.5011
#
#
#
# Elastic Compliance Matrix: (Units=1/GPa)
#
#
# Indices 1 2 3 4 5 6 
#
# 1 0.012787 -0.003293 -0.003969 0.000000 0.000000 0.000000
# 2 -0.003293 0.009728 -0.002796 0.000000 0.000000 0.000000
# 3 -0.003969 -0.002796 0.028208 0.000000 0.000000 0.000000
# 4 0.000000 0.000000 0.000000 0.027975 0.000000 0.000000
# 5 0.000000 0.000000 0.000000 0.000000 0.028510 0.000000
# 6 0.000000 0.000000 0.000000 0.000000 0.000000 0.030768
#
#
# Mechanical properties :
#
#
# Convention : Reuss Voigt Hill
#
# Bulk Modulus (GPa) = 32.67399 43.50717 38.09058
# Shear Modulus (GPa) = 29.70975 32.81863 31.26419
#
# Velocity S-wave (km/s) = 3.58962 3.77276 3.68233
# Velocity P-wave (km/s) = 5.59923 6.15204 5.88214
#
# Compressibility (1/GPa) = 0.03060539
#
# Stress axis : x y z
#
# Youngs Moduli (GPa) = 78.20555 102.79321 35.45134
#
# Poissons Ratio (x) = 0.33854 0.14072
# Poissons Ratio (y) = 0.25756 0.09912
# Poissons Ratio (z) = 0.31042 0.28742
#
# Static dielectric constant tensor:
#      x y z
#    x 1.900360 0.000000 0.000000 
#    y 0.000000 1.876930 0.000000 
#    z 0.000000 0.000000 1.880190 
# 
# From -- ./inp_files/7613.got.cif
#   From: 2010.05.17/outbox.cif.g08.bks.cpg/sg56_4_cif.got.tgz:7613.got - 2010.06.03 13:42:01.
