data_PCOD9432672
_publ_section_title
;
Structure prediction by ZEFSAII (Michael W. Deem and Ramdas Pophale) SiO2 
 PCOD9432672
Probable space group: P C C N
;
_chemical_formula_sum "Si O2"
_cell_formula_units_Z 40
_cell_length_a 16.501589
_cell_length_b 12.359862
_cell_length_c 7.207879
_cell_angle_alpha 90.000000
_cell_angle_beta 90.000000
_cell_angle_gamma 90.000000
_cell_volume 1470.099992
_symmetry_space_group_name_H-M "P C C N"
_symmetry_group_IT_number 56
_symmetry_cell_setting 'orthorhombic'
loop_
_space_group_symop_operation_xyz
x,y,z
1/2-x,1/2-y,z
1/2+x,-y,1/2-z
-x,1/2+y,1/2-z
-x,-y,-z
1/2+x,1/2+y,-z
1/2-x,y,1/2+z
x,1/2-y,1/2+z
loop_
_atom_site_type_symbol
_atom_site_label
_atom_site_fract_x
_atom_site_fract_y
_atom_site_fract_z
Si Si1 0.642977 0.418185 0.120575
Si Si2 0.102424 0.344681 0.462416
Si Si3 0.323089 0.608183 0.311167
Si Si4 0.877076 0.617448 0.104080
Si Si5 0.460874 0.686509 0.568411
O O1 0.633547 0.548845 0.140532
O O2 0.645667 0.397156 0.899470
O O3 0.727904 0.370126 0.194023
O O4 0.573017 0.366032 0.244157
O O5 0.156277 0.235777 0.444737
O O6 0.102247 0.374520 0.677918
O O7 0.013848 0.296834 0.404648
O O8 0.327010 0.490786 0.413517
O O9 0.384604 0.680098 0.431003
O O10 0.963460 0.612881 0.999877
#
# Coordination Sequence:
#
# PCOD9432672 Si02
#       5
#     8   8   8   8   8
#     4  11  23  42  72 109 143 187 238 304 365 429
#     4   9  23  40  64 107 141 186 242 295 359 430
#     4  11  22  40  70 104 140 186 238 299 367 426
#     4   9  22  39  65 103 139 190 231 298 348 442
#     4  10  23  43  69 102 146 191 238 296 361 443
#
# _framework density 27.209033999999999
#
# number of rings (size 3 to 8) (size 9 to 14) (size 15 to 20)
#    1.200    0.800    2.000    0.600    2.800    5.600 
#    0.000    4.000    0.000    3.600    0.000    0.000 
#    0.000    0.000    0.000    0.000    0.000    0.000 
#
# Total GULP energy -223678.751669 kJ/mol
# GULP energy per Si atom -5591.968792 kJ/mol
# Density = 2.714711 g / cm^3
# Si number density = 27.209034 Si / 1000 Ang^3
#
#
#
# Elastic Constant Matrix: (Units=GPa)
#
#
# Indices 1 2 3 4 5 6 
#
# 1 145.8466 27.6585 13.5503 0.0000 0.0000 0.0000
# 2 27.6585 146.5974 18.3315 0.0000 0.0000 0.0000
# 3 13.5503 18.3315 90.8793 0.0000 0.0000 0.0000
# 4 0.0000 0.0000 0.0000 41.4726 0.0000 0.0000
# 5 0.0000 0.0000 0.0000 0.0000 27.1625 0.0000
# 6 0.0000 0.0000 0.0000 0.0000 0.0000 88.8630
#
#
#
# Elastic Compliance Matrix: (Units=1/GPa)
#
#
# Indices 1 2 3 4 5 6 
#
# 1 0.007170 -0.001251 -0.000817 0.000000 0.000000 0.000000
# 2 -0.001251 0.007216 -0.001269 0.000000 0.000000 0.000000
# 3 -0.000817 -0.001269 0.011381 0.000000 0.000000 0.000000
# 4 0.000000 0.000000 0.000000 0.024112 0.000000 0.000000
# 5 0.000000 0.000000 0.000000 0.000000 0.036815 0.000000
# 6 0.000000 0.000000 0.000000 0.000000 0.000000 0.011253
#
#
# Mechanical properties :
#
#
# Convention : Reuss Voigt Hill
#
# Bulk Modulus (GPa) = 52.37197 55.82264 54.09730
# Shear Modulus (GPa) = 45.05092 53.08517 49.06804
#
# Velocity S-wave (km/s) = 4.07349 4.42182 4.25122
# Velocity P-wave (km/s) = 6.43538 6.82867 6.63494
#
# Compressibility (1/GPa) = 0.01909419
#
# Stress axis : x y z
#
# Youngs Moduli (GPa) = 139.47867 138.58017 87.86280
#
# Poissons Ratio (x) = 0.17330 0.07176
# Poissons Ratio (y) = 0.17442 0.11151
# Poissons Ratio (z) = 0.11392 0.17587
#
# Static dielectric constant tensor:
#      x y z
#    x 2.077900 0.000000 0.000000 
#    y 0.000000 2.225370 0.000000 
#    z 0.000000 0.000000 2.130900 
# 
# From -- ./inp_files/3943.got.cif
#   From: 2010.05.17/outbox.cif.g08.bks.cpg/sg56_2_cif.got.tgz:3943.got - 2010.06.03 13:42:01.
