data_PCOD9432004
_publ_section_title
;
Structure prediction by ZEFSAII (Michael W. Deem and Ramdas Pophale) SiO2 
 PCOD9432004
Probable space group: P C C N
;
_chemical_formula_sum "Si O2"
_cell_formula_units_Z 60
_cell_length_a 22.910291
_cell_length_b 13.587057
_cell_length_c 9.180943
_cell_angle_alpha 90.000000
_cell_angle_beta 90.000000
_cell_angle_gamma 90.000000
_cell_volume 2857.875425
_symmetry_space_group_name_H-M "P C C N"
_symmetry_group_IT_number 56
_symmetry_cell_setting 'orthorhombic'
loop_
_space_group_symop_operation_xyz
x,y,z
1/2-x,1/2-y,z
1/2+x,-y,1/2-z
-x,1/2+y,1/2-z
-x,-y,-z
1/2+x,1/2+y,-z
1/2-x,y,1/2+z
x,1/2-y,1/2+z
loop_
_atom_site_type_symbol
_atom_site_label
_atom_site_fract_x
_atom_site_fract_y
_atom_site_fract_z
Si Si1 0.945312 0.771046 0.484675
Si Si2 0.528005 0.223987 0.775657
Si Si3 0.107344 0.709805 0.471344
Si Si4 0.177603 0.587893 0.942950
Si Si5 0.341104 0.097639 0.118216
Si Si6 0.147706 0.114829 0.939019
Si Si7 0.750000 0.750000 0.984426
Si Si8 0.799762 0.434313 0.396324
O O1 0.891791 0.826263 0.413953
O O2 0.915143 0.665896 0.529323
O O3 0.976249 0.820728 0.624944
O O4 0.993492 0.771354 0.358288
O O5 0.560889 0.290402 0.895422
O O6 0.578989 0.172836 0.680828
O O7 0.133624 0.820107 0.455140
O O8 0.159830 0.643517 0.522630
O O9 0.197559 0.578860 0.776417
O O10 0.150041 0.487025 0.000032
O O11 0.235065 0.588339 0.045040
O O12 0.348856 0.061977 0.283044
O O13 0.280891 0.159136 0.099688
O O14 0.196313 0.201679 0.928741
O O15 0.171641 0.039198 0.059147
#
# Coordination Sequence:
#
# PCOD9432004 Si02
#       8
#     8   8   8   8   8   8   4   8
#     4  10  22  43  71  97 141 172 228 274 338 392
#     4  10  22  46  71  95 126 186 228 284 324 390
#     4  11  25  47  73  91 135 175 233 278 338 380
#     4  12  27  44  68 103 136 174 222 276 339 405
#     4  11  23  40  67 102 138 176 218 269 337 401
#     4  11  23  40  67 102 138 176 218 269 337 401
#     4  10  22  38  68  96 140 176 212 264 328 406
#     4  12  27  44  68 103 136 174 222 276 339 405
#
# _framework density 20.994615
#
# number of rings (size 3 to 8) (size 9 to 14) (size 15 to 20)
#    0.000    1.067    4.000    1.600    5.600    2.133 
#    0.000    8.000    0.000    0.000    0.000    0.000 
#    0.000    0.000    0.000    0.000    0.000    0.000 
#
# Total GULP energy -334317.432976 kJ/mol
# GULP energy per Si atom -5571.957216 kJ/mol
# Density = 2.094683 g / cm^3
# Si number density = 20.994615 Si / 1000 Ang^3
#
#
#
# Elastic Constant Matrix: (Units=GPa)
#
#
# Indices 1 2 3 4 5 6 
#
# 1 41.3057 -3.1191 8.4936 0.0000 0.0000 0.0000
# 2 -3.1191 48.0516 4.4709 0.0000 0.0000 0.0000
# 3 8.4936 4.4709 125.6402 0.0000 0.0000 0.0000
# 4 0.0000 0.0000 0.0000 17.8683 0.0000 0.0000
# 5 0.0000 0.0000 0.0000 0.0000 33.4318 0.0000
# 6 0.0000 0.0000 0.0000 0.0000 0.0000 -0.1244
#
#
#
# Elastic Compliance Matrix: (Units=1/GPa)
#
#
# Indices 1 2 3 4 5 6 
#
# 1 0.024699 0.001764 -0.001733 0.000000 0.000000 0.000000
# 2 0.001764 0.021006 -0.000867 0.000000 0.000000 0.000000
# 3 -0.001733 -0.000867 0.008107 0.000000 0.000000 0.000000
# 4 0.000000 0.000000 0.000000 0.055965 0.000000 0.000000
# 5 0.000000 0.000000 0.000000 0.000000 0.029912 0.000000
# 6 0.000000 0.000000 0.000000 0.000000 0.000000 -8.035611
#
#
# Mechanical properties :
#
#
# Convention : Reuss Voigt Hill
#
# Bulk Modulus (GPa) = 19.17809 26.07649 22.62729
# Shear Modulus (GPa) = -0.63477 23.91194 11.63859
#
# Velocity S-wave (km/s) = -0.55046 3.37850 2.35704
# Velocity P-wave (km/s) = 2.95814 5.25990 4.26715
#
# Compressibility (1/GPa) = 0.05214284
#
# Stress axis : x y z
#
# Youngs Moduli (GPa) = 40.48711 47.60509 123.34708
#
# Poissons Ratio (x) = -0.08400 0.21370
# Poissons Ratio (y) = -0.07144 0.10692
# Poissons Ratio (z) = 0.07014 0.04126
#
# Static dielectric constant tensor:
#      x y z
#    x 1.827550 0.000000 0.000000 
#    y 0.000000 1.768120 0.000000 
#    z 0.000000 0.000000 1.752230 
# 
# From -- ./inp_files/4791.got.cif
#   From: 2010.05.17/outbox.cif.g08.bks.cpg/sg56_3_cif.got.tgz:4791.got - 2010.06.03 13:42:01.
