data_PCOD9432652
_publ_section_title
;
Structure prediction by ZEFSAII (Michael W. Deem and Ramdas Pophale) SiO2 
 PCOD9432652
Probable space group: P C C N
;
_chemical_formula_sum "Si O2"
_cell_formula_units_Z 60
_cell_length_a 18.151657
_cell_length_b 5.126280
_cell_length_c 27.285464
_cell_angle_alpha 90.000000
_cell_angle_beta 90.000000
_cell_angle_gamma 90.000000
_cell_volume 2538.925420
_symmetry_space_group_name_H-M "P C C N"
_symmetry_group_IT_number 56
_symmetry_cell_setting 'orthorhombic'
loop_
_space_group_symop_operation_xyz
x,y,z
1/2-x,1/2-y,z
1/2+x,-y,1/2-z
-x,1/2+y,1/2-z
-x,-y,-z
1/2+x,1/2+y,-z
1/2-x,y,1/2+z
x,1/2-y,1/2+z
loop_
_atom_site_type_symbol
_atom_site_label
_atom_site_fract_x
_atom_site_fract_y
_atom_site_fract_z
Si Si1 0.398710 0.191004 0.088542
Si Si2 0.516305 0.171950 0.782008
Si Si3 0.991635 0.324829 0.387716
Si Si4 0.698066 0.003900 0.073375
Si Si5 0.250000 0.250000 0.136594
Si Si6 0.067635 0.321532 0.982929
Si Si7 0.197458 0.002599 0.320034
Si Si8 0.672740 0.107411 0.284014
O O1 0.444384 0.410991 0.118205
O O2 0.314068 0.133789 0.102610
O O3 0.440915 0.919596 0.096513
O O4 0.405064 0.306404 0.033279
O O5 0.495535 0.386819 0.740777
O O6 0.478203 0.250030 0.833633
O O7 0.603691 0.208584 0.794473
O O8 0.046490 0.348595 0.434821
O O9 0.750000 0.250000 0.068590
O O10 0.750000 0.750000 0.069559
O O11 0.634469 0.001037 0.034079
O O12 0.659911 0.006859 0.127098
O O13 0.301872 0.419118 0.172660
O O14 0.000000 0.500000 0.000000
O O15 0.250000 0.250000 0.319982
O O16 0.250000 0.750000 0.320883
O O17 0.154304 0.017123 0.268983
O O18 0.750000 0.250000 0.275739
#
# Coordination Sequence:
#
# PCOD9432652 Si02
#       8
#     8   8   8   8   4   8   8   8
#     4  11  25  44  72 105 136 190 241 303 359 426
#     4  12  28  46  70 109 151 192 239 299 364 441
#     4  11  24  49  70  99 145 190 247 287 368 439
#     4  10  23  43  66 100 136 175 232 298 350 421
#     4  12  24  42  74 102 152 178 242 310 360 430
#     4  10  25  48  74 102 141 192 243 298 369 438
#     4   9  19  37  60  93 129 170 222 272 342 408
#     4  11  24  43  72 101 143 190 241 290 361 431
#
# _framework density 23.632048000000001
#
# number of rings (size 3 to 8) (size 9 to 14) (size 15 to 20)
#    0.000    1.333    2.000    2.000    4.667    4.267 
#    7.200    0.000    0.000    0.000    0.000    0.000 
#    0.000    0.000    0.000    0.000    0.000    0.000 
#
# Total GULP energy -334985.594963 kJ/mol
# GULP energy per Si atom -5583.093249 kJ/mol
# Density = 2.357826 g / cm^3
# Si number density = 23.632048 Si / 1000 Ang^3
#
#
#
# Elastic Constant Matrix: (Units=GPa)
#
#
# Indices 1 2 3 4 5 6 
#
# 1 94.3358 18.8922 24.2953 0.0000 0.0000 0.0000
# 2 18.8922 89.7202 -13.0687 0.0000 0.0000 0.0000
# 3 24.2953 -13.0687 121.7194 0.0000 0.0000 0.0000
# 4 0.0000 0.0000 0.0000 29.7981 0.0000 0.0000
# 5 0.0000 0.0000 0.0000 0.0000 -31.3407 0.0000
# 6 0.0000 0.0000 0.0000 0.0000 0.0000 27.9798
#
#
#
# Elastic Compliance Matrix: (Units=1/GPa)
#
#
# Indices 1 2 3 4 5 6 
#
# 1 0.011869 -0.002890 -0.002679 0.000000 0.000000 0.000000
# 2 -0.002890 0.012026 0.001868 0.000000 0.000000 0.000000
# 3 -0.002679 0.001868 0.008951 0.000000 0.000000 0.000000
# 4 0.000000 0.000000 0.000000 0.033559 0.000000 0.000000
# 5 0.000000 0.000000 0.000000 0.000000 -0.031907 0.000000
# 6 0.000000 0.000000 0.000000 0.000000 0.000000 0.035740
#
#
# Mechanical properties :
#
#
# Convention : Reuss Voigt Hill
#
# Bulk Modulus (GPa) = 39.30098 40.66811 39.98455
# Shear Modulus (GPa) = 58.05743 23.66454 40.86098
#
# Velocity S-wave (km/s) = 4.96191 3.16788 4.16270
# Velocity P-wave (km/s) = 7.03519 5.53416 6.32933
#
# Compressibility (1/GPa) = 0.02544466
#
# Stress axis : x y z
#
# Youngs Moduli (GPa) = 84.25208 83.15108 111.71966
#
# Poissons Ratio (x) = 0.24027 0.29933
# Poissons Ratio (y) = 0.24345 -0.20869
# Poissons Ratio (z) = 0.22574 -0.15533
#
# Static dielectric constant tensor:
#      x y z
#    x 2.089570 0.000000 0.000000 
#    y 0.000000 1.869140 0.000000 
#    z 0.000000 0.000000 2.052140 
# 
# From -- ./inp_files/22535.got.cif
#   From: 2010.05.17/outbox.cif.g08.bks.cpg/sg56_12_cif.got.tgz:22535.got - 2010.06.03 13:42:01.
