data_PCOD9432304
_publ_section_title
;
Structure prediction by ZEFSAII (Michael W. Deem and Ramdas Pophale) SiO2 
 PCOD9432304
Probable space group: P C C N
;
_chemical_formula_sum "Si O2"
_cell_formula_units_Z 28
_cell_length_a 10.937260
_cell_length_b 8.367505
_cell_length_c 13.400303
_cell_angle_alpha 90.000000
_cell_angle_beta 90.000000
_cell_angle_gamma 90.000000
_cell_volume 1226.363271
_symmetry_space_group_name_H-M "P C C N"
_symmetry_group_IT_number 56
_symmetry_cell_setting 'orthorhombic'
loop_
_space_group_symop_operation_xyz
x,y,z
1/2-x,1/2-y,z
1/2+x,-y,1/2-z
-x,1/2+y,1/2-z
-x,-y,-z
1/2+x,1/2+y,-z
1/2-x,y,1/2+z
x,1/2-y,1/2+z
loop_
_atom_site_type_symbol
_atom_site_label
_atom_site_fract_x
_atom_site_fract_y
_atom_site_fract_z
Si Si1 0.184995 0.537358 0.547260
Si Si2 0.452489 0.254119 0.473335
Si Si3 0.124208 0.937289 0.379267
Si Si4 0.750000 0.250000 0.290289
O O1 0.145224 0.356716 0.529831
O O2 0.252289 0.579040 0.444507
O O3 0.275163 0.600949 0.634061
O O4 0.060060 0.636300 0.563494
O O5 0.403025 0.371676 0.386508
O O6 0.514515 0.359212 0.559332
O O7 0.149698 0.834566 0.280613
#
# Coordination Sequence:
#
# PCOD9432304 Si02
#       4
#     8   8   8   4
#     4  11  22  44  65  97 139 181 225 299 344 419
#     4  10  22  42  70  88 134 190 222 270 378 408
#     4  11  22  44  65  97 139 181 225 299 344 419
#     4  12  22  40  70  98 140 176 236 296 342 402
#
# _framework density 22.831734999999998
#
# number of rings (size 3 to 8) (size 9 to 14) (size 15 to 20)
#    0.000    1.143    5.714    0.857    0.000    2.286 
#    0.000    5.714    0.000    0.000    0.000    0.000 
#    0.000    0.000    0.000    0.000    0.000    0.000 
#
# Total GULP energy -155922.910756 kJ/mol
# GULP energy per Si atom -5568.675384 kJ/mol
# Density = 2.277977 g / cm^3
# Si number density = 22.831735 Si / 1000 Ang^3
#
#
#
# Elastic Constant Matrix: (Units=GPa)
#
#
# Indices 1 2 3 4 5 6 
#
# 1 69.5554 68.0891 27.3071 0.0000 0.0000 0.0000
# 2 68.0891 172.1835 35.4224 0.0000 0.0000 0.0000
# 3 27.3071 35.4224 91.9783 0.0000 0.0000 0.0000
# 4 0.0000 0.0000 0.0000 34.8604 0.0000 0.0000
# 5 0.0000 0.0000 0.0000 0.0000 18.1595 0.0000
# 6 0.0000 0.0000 0.0000 0.0000 0.0000 66.7288
#
#
#
# Elastic Compliance Matrix: (Units=1/GPa)
#
#
# Indices 1 2 3 4 5 6 
#
# 1 0.024666 -0.008957 -0.003873 0.000000 0.000000 0.000000
# 2 -0.008957 0.009560 -0.001023 0.000000 0.000000 0.000000
# 3 -0.003873 -0.001023 0.012416 0.000000 0.000000 0.000000
# 4 0.000000 0.000000 0.000000 0.028686 0.000000 0.000000
# 5 0.000000 0.000000 0.000000 0.000000 0.055068 0.000000
# 6 0.000000 0.000000 0.000000 0.000000 0.000000 0.014986
#
#
# Mechanical properties :
#
#
# Convention : Reuss Voigt Hill
#
# Bulk Modulus (GPa) = 52.80994 66.15049 59.48021
# Shear Modulus (GPa) = 27.87067 37.47632 32.67349
#
# Velocity S-wave (km/s) = 3.49764 4.05583 3.78703
# Velocity P-wave (km/s) = 6.28423 7.13926 6.72535
#
# Compressibility (1/GPa) = 0.01893583
#
# Stress axis : x y z
#
# Youngs Moduli (GPa) = 40.54139 104.60021 80.54197
#
# Poissons Ratio (x) = 0.93693 0.31198
# Poissons Ratio (y) = 0.36314 0.08236
# Poissons Ratio (z) = 0.15703 0.10696
#
# Static dielectric constant tensor:
#      x y z
#    x 1.943230 0.000000 0.000000 
#    y 0.000000 2.049210 0.000000 
#    z 0.000000 0.000000 1.838180 
# 
# From -- ./inp_files/10006.got.cif
#   From: 2010.05.17/outbox.cif.g08.bks.cpg/sg56_6_cif.got.tgz:10006.got - 2010.06.03 13:42:01.
