data_PCOD9432453
_publ_section_title
;
Structure prediction by ZEFSAII (Michael W. Deem and Ramdas Pophale) SiO2 
 PCOD9432453
Probable space group: P C C N
;
_chemical_formula_sum "Si O2"
_cell_formula_units_Z 60
_cell_length_a 12.284912
_cell_length_b 16.605107
_cell_length_c 13.348026
_cell_angle_alpha 90.000000
_cell_angle_beta 90.000000
_cell_angle_gamma 90.000000
_cell_volume 2722.894234
_symmetry_space_group_name_H-M "P C C N"
_symmetry_group_IT_number 56
_symmetry_cell_setting 'orthorhombic'
loop_
_space_group_symop_operation_xyz
x,y,z
1/2-x,1/2-y,z
1/2+x,-y,1/2-z
-x,1/2+y,1/2-z
-x,-y,-z
1/2+x,1/2+y,-z
1/2-x,y,1/2+z
x,1/2-y,1/2+z
loop_
_atom_site_type_symbol
_atom_site_label
_atom_site_fract_x
_atom_site_fract_y
_atom_site_fract_z
Si Si1 0.003285 0.495352 0.381117
Si Si2 0.373731 0.403978 0.395391
Si Si3 0.629030 0.227677 0.148387
Si Si4 0.427317 0.238790 0.008715
Si Si5 0.321963 0.945086 0.768582
Si Si6 0.355040 0.159659 0.325913
Si Si7 0.250000 0.250000 0.648942
Si Si8 0.586197 0.119327 0.761067
O O1 0.082281 0.424591 0.339185
O O2 0.044939 0.580729 0.342288
O O3 0.000000 0.500000 0.500000
O O4 0.890236 0.479766 0.324131
O O5 0.395613 0.356566 0.499163
O O6 0.333305 0.493103 0.362785
O O7 0.270280 0.353116 0.357499
O O8 0.490614 0.396129 0.340013
O O9 0.750000 0.250000 0.112471
O O10 0.542952 0.241540 0.060996
O O11 0.628587 0.137862 0.190508
O O12 0.604779 0.287296 0.240726
O O13 0.338491 0.288104 0.074070
O O14 0.417626 0.279103 0.899530
O O15 0.201936 0.924791 0.726543
O O16 0.331454 0.196522 0.216750
#
# Coordination Sequence:
#
# PCOD9432453 Si02
#       8
#     8   8   8   8   8   8   4   8
#     4  11  24  43  69 101 133 182 232 287 347 423
#     4  11  22  43  66 102 140 170 234 284 350 423
#     4  10  23  45  71  96 134 182 238 283 347 427
#     4  12  24  43  68 107 136 184 227 289 365 416
#     4  10  23  46  69  98 138 188 229 290 352 418
#     4  12  23  43  68 103 142 171 235 286 347 428
#     4  12  22  40  72 102 138 182 218 294 356 414
#     4  10  22  45  69  95 137 183 229 289 352 421
#
# _framework density 22.035377
#
# number of rings (size 3 to 8) (size 9 to 14) (size 15 to 20)
#    0.000    1.067    4.000    2.400    1.867    1.600 
#    7.200    0.000    0.000    0.000    0.000    0.000 
#    0.000    0.000    0.000    0.000    0.000    0.000 
#
# Total GULP energy -334597.123767 kJ/mol
# GULP energy per Si atom -5576.618729 kJ/mol
# Density = 2.198522 g / cm^3
# Si number density = 22.035377 Si / 1000 Ang^3
#
#
#
# Elastic Constant Matrix: (Units=GPa)
#
#
# Indices 1 2 3 4 5 6 
#
# 1 130.8498 20.3525 29.6607 0.0000 0.0000 0.0000
# 2 20.3525 91.7721 17.3378 0.0000 0.0000 0.0000
# 3 29.6607 17.3378 83.2880 0.0000 0.0000 0.0000
# 4 0.0000 0.0000 0.0000 5.3989 0.0000 0.0000
# 5 0.0000 0.0000 0.0000 0.0000 29.5391 0.0000
# 6 0.0000 0.0000 0.0000 0.0000 0.0000 28.4364
#
#
#
# Elastic Compliance Matrix: (Units=1/GPa)
#
#
# Indices 1 2 3 4 5 6 
#
# 1 0.008474 -0.001363 -0.002734 0.000000 0.000000 0.000000
# 2 -0.001363 0.011562 -0.001921 0.000000 0.000000 0.000000
# 3 -0.002734 -0.001921 0.013380 0.000000 0.000000 0.000000
# 4 0.000000 0.000000 0.000000 0.185223 0.000000 0.000000
# 5 0.000000 0.000000 0.000000 0.000000 0.033853 0.000000
# 6 0.000000 0.000000 0.000000 0.000000 0.000000 0.035166
#
#
# Mechanical properties :
#
#
# Convention : Reuss Voigt Hill
#
# Bulk Modulus (GPa) = 46.77412 48.95687 47.86550
# Shear Modulus (GPa) = 16.29608 28.57880 22.43744
#
# Velocity S-wave (km/s) = 2.72240 3.60523 3.19446
# Velocity P-wave (km/s) = 5.58166 6.29252 5.94772
#
# Compressibility (1/GPa) = 0.02137934
#
# Stress axis : x y z
#
# Youngs Moduli (GPa) = 118.00691 86.49176 74.73729
#
# Poissons Ratio (x) = 0.11787 0.20434
# Poissons Ratio (y) = 0.16082 0.14361
# Poissons Ratio (z) = 0.32265 0.16619
#
# Static dielectric constant tensor:
#      x y z
#    x 1.842730 0.000000 0.000000 
#    y 0.000000 1.898050 0.000000 
#    z 0.000000 0.000000 1.828730 
# 
# From -- ./inp_files/11807.got.cif
#   From: 2010.05.17/outbox.cif.g08.bks.cpg/sg56_6_cif.got.tgz:11807.got - 2010.06.03 13:42:01.
