data_PCOD9432509
_publ_section_title
;
Structure prediction by ZEFSAII (Michael W. Deem and Ramdas Pophale) SiO2 
 PCOD9432509
Probable space group: P C C N
;
_chemical_formula_sum "Si O2"
_cell_formula_units_Z 32
_cell_length_a 24.898063
_cell_length_b 5.454391
_cell_length_c 9.111627
_cell_angle_alpha 90.000000
_cell_angle_beta 90.000000
_cell_angle_gamma 90.000000
_cell_volume 1237.393304
_symmetry_space_group_name_H-M "P C C N"
_symmetry_group_IT_number 56
_symmetry_cell_setting 'orthorhombic'
loop_
_space_group_symop_operation_xyz
x,y,z
1/2-x,1/2-y,z
1/2+x,-y,1/2-z
-x,1/2+y,1/2-z
-x,-y,-z
1/2+x,1/2+y,-z
1/2-x,y,1/2+z
x,1/2-y,1/2+z
loop_
_atom_site_type_symbol
_atom_site_label
_atom_site_fract_x
_atom_site_fract_y
_atom_site_fract_z
Si Si1 0.088785 0.858587 0.524411
Si Si2 0.250000 0.750000 0.604819
Si Si3 0.750000 0.750000 0.391108
Si Si4 0.155416 0.535474 0.736620
Si Si5 0.012100 0.188257 0.668028
O O1 0.114236 0.632073 0.611671
O O2 0.126483 0.948587 0.392063
O O3 0.031276 0.773656 0.460417
O O4 0.071109 0.091708 0.623238
O O5 0.253418 0.499032 0.517874
O O6 0.199648 0.747896 0.712875
O O7 0.805337 0.693955 0.301561
O O8 0.011227 0.444616 0.751712
#
# Coordination Sequence:
#
# PCOD9432509 Si02
#       5
#     8   4   4   8   8
#     4  11  24  47  82 113 157 211 262 323 405 466
#     4   8  20  44  68 106 142 194 242 318 368 460
#     4   8  20  46  70 100 150 186 256 308 372 462
#     4  10  22  48  72 118 146 213 245 332 384 470
#     4  11  26  53  72 119 156 208 268 332 385 487
#
# _framework density 25.860816
#
# number of rings (size 3 to 8) (size 9 to 14) (size 15 to 20)
#    1.500    0.500    2.500    0.000    0.000    7.000 
#    9.000    2.500    0.000    0.000    0.000    0.000 
#    0.000    0.000    0.000    0.000    0.000    0.000 
#
# Total GULP energy -178391.513623 kJ/mol
# GULP energy per Si atom -5574.734801 kJ/mol
# Density = 2.580196 g / cm^3
# Si number density = 25.860816 Si / 1000 Ang^3
#
#
#
# Elastic Constant Matrix: (Units=GPa)
#
#
# Indices 1 2 3 4 5 6 
#
# 1 150.3408 48.7730 47.0448 0.0000 0.0000 0.0000
# 2 48.7730 219.6956 58.7389 0.0000 0.0000 0.0000
# 3 47.0448 58.7389 90.3934 0.0000 0.0000 0.0000
# 4 0.0000 0.0000 0.0000 11.2180 0.0000 0.0000
# 5 0.0000 0.0000 0.0000 0.0000 48.1261 0.0000
# 6 0.0000 0.0000 0.0000 0.0000 0.0000 48.2800
#
#
#
# Elastic Compliance Matrix: (Units=1/GPa)
#
#
# Indices 1 2 3 4 5 6 
#
# 1 0.008062 -0.000808 -0.003671 0.000000 0.000000 0.000000
# 2 -0.000808 0.005590 -0.003212 0.000000 0.000000 0.000000
# 3 -0.003671 -0.003212 0.015060 0.000000 0.000000 0.000000
# 4 0.000000 0.000000 0.000000 0.089143 0.000000 0.000000
# 5 0.000000 0.000000 0.000000 0.000000 0.020779 0.000000
# 6 0.000000 0.000000 0.000000 0.000000 0.000000 0.020712
#
#
# Mechanical properties :
#
#
# Convention : Reuss Voigt Hill
#
# Bulk Modulus (GPa) = 75.01391 85.50481 80.25936
# Shear Modulus (GPa) = 27.90617 41.91636 34.91126
#
# Velocity S-wave (km/s) = 3.28852 4.03034 3.67818
# Velocity P-wave (km/s) = 6.59461 7.40226 7.01007
#
# Compressibility (1/GPa) = 0.01333086
#
# Stress axis : x y z
#
# Youngs Moduli (GPa) = 124.03132 178.89359 66.40051
#
# Poissons Ratio (x) = 0.14463 0.24374
# Poissons Ratio (y) = 0.10028 0.21325
# Poissons Ratio (z) = 0.45528 0.57454
#
# Static dielectric constant tensor:
#      x y z
#    x 2.185320 0.000000 0.000000 
#    y 0.000000 2.100270 0.000000 
#    z 0.000000 0.000000 2.092190 
# 
# From -- ./inp_files/8992.got.cif
#   From: 2010.05.17/outbox.cif.g08.bks.cpg/sg56_5_cif.got.tgz:8992.got - 2010.06.03 13:42:01.
