data_PCOD9432083
_publ_section_title
;
Structure prediction by ZEFSAII (Michael W. Deem and Ramdas Pophale) SiO2 
 PCOD9432083
Probable space group: P C C N
;
_chemical_formula_sum "Si O2"
_cell_formula_units_Z 40
_cell_length_a 29.192567
_cell_length_b 4.704093
_cell_length_c 11.539106
_cell_angle_alpha 90.000000
_cell_angle_beta 90.000000
_cell_angle_gamma 90.000000
_cell_volume 1584.602540
_symmetry_space_group_name_H-M "P C C N"
_symmetry_group_IT_number 56
_symmetry_cell_setting 'orthorhombic'
loop_
_space_group_symop_operation_xyz
x,y,z
1/2-x,1/2-y,z
1/2+x,-y,1/2-z
-x,1/2+y,1/2-z
-x,-y,-z
1/2+x,1/2+y,-z
1/2-x,y,1/2+z
x,1/2-y,1/2+z
loop_
_atom_site_type_symbol
_atom_site_label
_atom_site_fract_x
_atom_site_fract_y
_atom_site_fract_z
Si Si1 0.250000 0.250000 0.151725
Si Si2 0.457845 0.279148 0.637998
Si Si3 0.116043 0.448777 0.466899
Si Si4 0.823369 0.080829 0.506354
Si Si5 0.941425 0.277315 0.208757
Si Si6 0.250000 0.750000 0.820999
O O1 0.234631 0.005077 0.239029
O O2 0.211685 0.409949 0.076024
O O3 0.449891 0.603970 0.672681
O O4 0.512298 0.235955 0.633006
O O5 0.428039 0.180989 0.530849
O O6 0.439957 0.100667 0.749857
O O7 0.147299 0.176473 0.439951
O O8 0.100295 0.640984 0.359408
O O9 0.143158 0.679535 0.547188
O O10 0.793059 0.272687 0.593245
#
# Coordination Sequence:
#
# PCOD9432083 Si02
#       6
#     4   8   8   8   8   4
#     4  12  26  48  72  92 132 178 212 276 350 402
#     4  10  22  40  62  92 132 177 220 261 319 390
#     4  12  24  40  66  97 134 167 214 284 328 378
#     4  12  27  44  67 103 128 163 231 274 327 424
#     4  10  22  40  62  92 132 177 220 261 319 390
#     4  12  26  48  72  92 132 178 212 276 350 402
#
# _framework density 25.242923000000001
#
# number of rings (size 3 to 8) (size 9 to 14) (size 15 to 20)
#    0.000    0.800    0.000    7.800    0.000    9.600 
#    0.000    8.000    0.000    0.000    0.000    0.000 
#    0.000    0.000    0.000    0.000    0.000    0.000 
#
# Total GULP energy -223819.313541 kJ/mol
# GULP energy per Si atom -5595.482839 kJ/mol
# Density = 2.518547 g / cm^3
# Si number density = 25.242923 Si / 1000 Ang^3
#
#
#
# Elastic Constant Matrix: (Units=GPa)
#
#
# Indices 1 2 3 4 5 6 
#
# 1 71.8922 20.3560 8.6179 0.0000 0.0000 0.0000
# 2 20.3560 118.2942 -1.5387 0.0000 0.0000 0.0000
# 3 8.6179 -1.5387 39.0048 0.0000 0.0000 0.0000
# 4 0.0000 0.0000 0.0000 56.3683 0.0000 0.0000
# 5 0.0000 0.0000 0.0000 0.0000 22.5180 0.0000
# 6 0.0000 0.0000 0.0000 0.0000 0.0000 49.9191
#
#
#
# Elastic Compliance Matrix: (Units=1/GPa)
#
#
# Indices 1 2 3 4 5 6 
#
# 1 0.015068 -0.002638 -0.003433 0.000000 0.000000 0.000000
# 2 -0.002638 0.008920 0.000935 0.000000 0.000000 0.000000
# 3 -0.003433 0.000935 0.026433 0.000000 0.000000 0.000000
# 4 0.000000 0.000000 0.000000 0.017740 0.000000 0.000000
# 5 0.000000 0.000000 0.000000 0.000000 0.044409 0.000000
# 6 0.000000 0.000000 0.000000 0.000000 0.000000 0.020032
#
#
# Mechanical properties :
#
#
# Convention : Reuss Voigt Hill
#
# Bulk Modulus (GPa) = 24.90752 31.56239 28.23495
# Shear Modulus (GPa) = 31.99836 39.21146 35.60491
#
# Velocity S-wave (km/s) = 3.56422 3.94555 3.75972
# Velocity P-wave (km/s) = 5.17946 5.76950 5.48242
#
# Compressibility (1/GPa) = 0.04014852
#
# Stress axis : x y z
#
# Youngs Moduli (GPa) = 66.36542 112.11360 37.83107
#
# Poissons Ratio (x) = 0.29571 0.12988
# Poissons Ratio (y) = 0.17504 -0.03536
# Poissons Ratio (z) = 0.22785 -0.10478
#
# Static dielectric constant tensor:
#      x y z
#    x 2.023810 0.000000 0.000000 
#    y 0.000000 1.887010 0.000000 
#    z 0.000000 0.000000 2.003650 
# 
# From -- ./inp_files/9011.got.cif
#   From: 2010.05.17/outbox.cif.g08.bks.cpg/sg56_5_cif.got.tgz:9011.got - 2010.06.03 13:42:01.
