data_PCOD9432892
_publ_section_title
;
Structure prediction by ZEFSAII (Michael W. Deem and Ramdas Pophale) SiO2 
 PCOD9432892
Probable space group: P C C N
;
_chemical_formula_sum "Si O2"
_cell_formula_units_Z 60
_cell_length_a 11.728420
_cell_length_b 24.607167
_cell_length_c 9.334042
_cell_angle_alpha 90.000000
_cell_angle_beta 90.000000
_cell_angle_gamma 90.000000
_cell_volume 2693.834293
_symmetry_space_group_name_H-M "P C C N"
_symmetry_group_IT_number 56
_symmetry_cell_setting 'orthorhombic'
loop_
_space_group_symop_operation_xyz
x,y,z
1/2-x,1/2-y,z
1/2+x,-y,1/2-z
-x,1/2+y,1/2-z
-x,-y,-z
1/2+x,1/2+y,-z
1/2-x,y,1/2+z
x,1/2-y,1/2+z
loop_
_atom_site_type_symbol
_atom_site_label
_atom_site_fract_x
_atom_site_fract_y
_atom_site_fract_z
Si Si1 0.818782 0.368723 0.851357
Si Si2 0.094902 0.238161 0.012342
Si Si3 0.250000 0.250000 0.262130
Si Si4 0.739228 0.950330 0.023904
Si Si5 0.473591 0.089425 0.350008
Si Si6 0.544055 0.635843 0.459469
Si Si7 0.679261 0.022014 0.273364
Si Si8 0.384650 0.667389 0.960819
O O1 0.756816 0.425422 0.808893
O O2 0.852280 0.340079 0.703528
O O3 0.726933 0.334440 0.941494
O O4 0.930329 0.375054 0.949163
O O5 0.165786 0.219028 0.152374
O O6 0.089787 0.303419 0.014366
O O7 0.966488 0.218258 0.016107
O O8 0.164867 0.219866 0.871891
O O9 0.846538 0.925326 0.107042
O O10 0.695174 0.002504 0.111970
O O11 0.639991 0.906992 0.004631
O O12 0.782395 0.972497 0.872669
O O13 0.480317 0.127019 0.209013
O O14 0.549340 0.037256 0.308706
O O15 0.536519 0.117790 0.483102
#
# Coordination Sequence:
#
# PCOD9432892 Si02
#       8
#     8   8   4   8   8   8   8   8
#     4  11  25  47  75 107 146 189 248 301 367 443
#     4  11  25  45  72 104 146 198 237 304 373 428
#     4  10  24  42  70 100 142 190 242 294 364 434
#     4  12  26  41  69 104 143 194 246 297 370 437
#     4  11  25  45  69 104 147 186 252 298 367 437
#     4  12  27  43  71 107 147 192 246 302 360 450
#     4  11  24  45  69  99 142 194 236 311 363 428
#     4  11  25  48  76 107 145 190 243 305 369 445
#
# _framework density 22.273084999999998
#
# number of rings (size 3 to 8) (size 9 to 14) (size 15 to 20)
#    0.000    0.800    1.333    6.000    9.333    1.600 
#    0.000    2.667    0.000    0.000    0.000    0.000 
#    0.000    0.000    0.000    0.000    0.000    0.000 
#
# Total GULP energy -335947.588562 kJ/mol
# GULP energy per Si atom -5599.126476 kJ/mol
# Density = 2.222239 g / cm^3
# Si number density = 22.273085 Si / 1000 Ang^3
#
#
#
# Elastic Constant Matrix: (Units=GPa)
#
#
# Indices 1 2 3 4 5 6 
#
# 1 154.2345 51.1728 63.0597 0.0000 0.0000 0.0000
# 2 51.1728 63.7167 9.6879 0.0000 0.0000 0.0000
# 3 63.0597 9.6879 115.9326 0.0000 0.0000 0.0000
# 4 0.0000 0.0000 0.0000 18.0982 0.0000 0.0000
# 5 0.0000 0.0000 0.0000 0.0000 31.2180 0.0000
# 6 0.0000 0.0000 0.0000 0.0000 0.0000 36.9100
#
#
#
# Elastic Compliance Matrix: (Units=1/GPa)
#
#
# Indices 1 2 3 4 5 6 
#
# 1 0.011569 -0.008442 -0.005587 0.000000 0.000000 0.000000
# 2 -0.008442 0.022056 0.002749 0.000000 0.000000 0.000000
# 3 -0.005587 0.002749 0.011435 0.000000 0.000000 0.000000
# 4 0.000000 0.000000 0.000000 0.055254 0.000000 0.000000
# 5 0.000000 0.000000 0.000000 0.000000 0.032033 0.000000
# 6 0.000000 0.000000 0.000000 0.000000 0.000000 0.027093
#
#
# Mechanical properties :
#
#
# Convention : Reuss Voigt Hill
#
# Bulk Modulus (GPa) = 44.44534 64.63607 54.54070
# Shear Modulus (GPa) = 26.38509 31.24281 28.81395
#
# Velocity S-wave (km/s) = 3.44556 3.74935 3.60066
# Velocity P-wave (km/s) = 5.98559 6.91566 6.46736
#
# Compressibility (1/GPa) = 0.02249955
#
# Stress axis : x y z
#
# Youngs Moduli (GPa) = 86.43877 45.33833 87.44993
#
# Poissons Ratio (x) = 0.38274 0.48861
# Poissons Ratio (y) = 0.72970 -0.24037
# Poissons Ratio (z) = 0.48296 -0.12462
#
# Static dielectric constant tensor:
#      x y z
#    x 1.794250 0.000000 0.000000 
#    y 0.000000 1.826040 0.000000 
#    z 0.000000 0.000000 1.804090 
# 
# From -- ./inp_files/2912.got.cif
#   From: 2010.05.17/outbox.cif.g08.bks.cpg/sg56_2_cif.got.tgz:2912.got - 2010.06.03 13:42:01.
