data_PCOD9432943
_publ_section_title
;
Structure prediction by ZEFSAII (Michael W. Deem and Ramdas Pophale) SiO2 
 PCOD9432943
Probable space group: P C C N
;
_chemical_formula_sum "Si O2"
_cell_formula_units_Z 56
_cell_length_a 12.813560
_cell_length_b 15.148885
_cell_length_c 12.170238
_cell_angle_alpha 90.000000
_cell_angle_beta 90.000000
_cell_angle_gamma 90.000000
_cell_volume 2362.378856
_symmetry_space_group_name_H-M "P C C N"
_symmetry_group_IT_number 56
_symmetry_cell_setting 'orthorhombic'
loop_
_space_group_symop_operation_xyz
x,y,z
1/2-x,1/2-y,z
1/2+x,-y,1/2-z
-x,1/2+y,1/2-z
-x,-y,-z
1/2+x,1/2+y,-z
1/2-x,y,1/2+z
x,1/2-y,1/2+z
loop_
_atom_site_type_symbol
_atom_site_label
_atom_site_fract_x
_atom_site_fract_y
_atom_site_fract_z
Si Si1 0.926608 0.380772 0.884915
Si Si2 0.894212 0.152007 0.053690
Si Si3 0.506416 0.923194 0.655162
Si Si4 0.017084 0.174481 0.612318
Si Si5 0.250000 0.750000 0.097524
Si Si6 0.614957 0.586943 0.768456
Si Si7 0.750000 0.750000 0.365640
Si Si8 0.311392 0.512244 0.780024
O O1 0.851031 0.298122 0.853346
O O2 0.864107 0.466605 0.838770
O O3 0.034607 0.375232 0.819213
O O4 0.962633 0.378838 0.011551
O O5 0.955668 0.232976 0.106565
O O6 0.842596 0.094625 0.147640
O O7 0.969317 0.117839 0.957124
O O8 0.794690 0.175721 0.980495
O O9 0.490685 0.871150 0.770263
O O10 0.630595 0.932982 0.658428
O O11 0.457465 0.022745 0.656445
O O12 0.141742 0.197393 0.592410
O O13 0.687507 0.666404 0.811890
O O14 0.693015 0.512160 0.725252
#
# Coordination Sequence:
#
# PCOD9432943 Si02
#       8
#     8   8   8   8   4   8   4   8
#     4  10  25  46  74 110 149 201 253 314 384 467
#     4  11  26  43  75 105 149 198 252 318 387 471
#     4  11  25  49  69 105 149 200 253 317 391 467
#     4  11  26  46  77 108 153 201 261 328 392 483
#     4  10  24  44  68 110 146 190 248 306 374 452
#     4  11  26  45  78 106 160 199 255 327 387 478
#     4  12  26  50  72 116 154 208 264 324 406 456
#     4  11  24  46  72 108 148 195 250 315 396 463
#
# _framework density 23.704919
#
# number of rings (size 3 to 8) (size 9 to 14) (size 15 to 20)
#    0.000    1.143    1.429    3.000   12.000    5.714 
#    0.000    0.000    0.000    0.000    0.000    0.000 
#    0.000    0.000    0.000    0.000    0.000    0.000 
#
# Total GULP energy -311926.801101 kJ/mol
# GULP energy per Si atom -5570.121448 kJ/mol
# Density = 2.365097 g / cm^3
# Si number density = 23.704919 Si / 1000 Ang^3
#
#
#
# Elastic Constant Matrix: (Units=GPa)
#
#
# Indices 1 2 3 4 5 6 
#
# 1 159.3125 26.1692 39.8283 0.0000 0.0000 0.0000
# 2 26.1692 67.8078 43.7111 0.0000 0.0000 0.0000
# 3 39.8283 43.7111 124.4631 0.0000 0.0000 0.0000
# 4 0.0000 0.0000 0.0000 35.7605 0.0000 0.0000
# 5 0.0000 0.0000 0.0000 0.0000 26.1557 0.0000
# 6 0.0000 0.0000 0.0000 0.0000 0.0000 46.5395
#
#
#
# Elastic Compliance Matrix: (Units=1/GPa)
#
#
# Indices 1 2 3 4 5 6 
#
# 1 0.006957 -0.001616 -0.001659 0.000000 0.000000 0.000000
# 2 -0.001616 0.019439 -0.006310 0.000000 0.000000 0.000000
# 3 -0.001659 -0.006310 0.010781 0.000000 0.000000 0.000000
# 4 0.000000 0.000000 0.000000 0.027964 0.000000 0.000000
# 5 0.000000 0.000000 0.000000 0.000000 0.038233 0.000000
# 6 0.000000 0.000000 0.000000 0.000000 0.000000 0.021487
#
#
# Mechanical properties :
#
#
# Convention : Reuss Voigt Hill
#
# Bulk Modulus (GPa) = 55.52946 63.44452 59.48699
# Shear Modulus (GPa) = 33.32627 37.81613 35.57120
#
# Velocity S-wave (km/s) = 3.75357 3.99844 3.87794
# Velocity P-wave (km/s) = 6.50092 6.93823 6.72313
#
# Compressibility (1/GPa) = 0.01800846
#
# Stress axis : x y z
#
# Youngs Moduli (GPa) = 143.73851 51.44415 92.75289
#
# Poissons Ratio (x) = 0.08311 0.15387
# Poissons Ratio (y) = 0.23222 0.58525
# Poissons Ratio (z) = 0.23845 0.32460
#
# Static dielectric constant tensor:
#      x y z
#    x 2.034310 0.000000 0.000000 
#    y 0.000000 2.000420 0.000000 
#    z 0.000000 0.000000 1.904500 
# 
# From -- ./inp_files/11716.got.cif
#   From: 2010.05.17/outbox.cif.g08.bks.cpg/sg56_6_cif.got.tgz:11716.got - 2010.06.03 13:42:01.
