data_PCOD9432421
_publ_section_title
;
Structure prediction by ZEFSAII (Michael W. Deem and Ramdas Pophale) SiO2 
 PCOD9432421
Probable space group: P C C N
;
_chemical_formula_sum "Si O2"
_cell_formula_units_Z 32
_cell_length_a 8.724356
_cell_length_b 4.982128
_cell_length_c 26.790295
_cell_angle_alpha 90.000000
_cell_angle_beta 90.000000
_cell_angle_gamma 90.000000
_cell_volume 1164.463167
_symmetry_space_group_name_H-M "P C C N"
_symmetry_group_IT_number 56
_symmetry_cell_setting 'orthorhombic'
loop_
_space_group_symop_operation_xyz
x,y,z
1/2-x,1/2-y,z
1/2+x,-y,1/2-z
-x,1/2+y,1/2-z
-x,-y,-z
1/2+x,1/2+y,-z
1/2-x,y,1/2+z
x,1/2-y,1/2+z
loop_
_atom_site_type_symbol
_atom_site_label
_atom_site_fract_x
_atom_site_fract_y
_atom_site_fract_z
Si Si1 0.750000 0.250000 0.147827
Si Si2 0.507438 0.518253 0.918571
Si Si3 0.750000 0.750000 0.344204
Si Si4 0.502094 0.534225 0.717514
Si Si5 0.500000 0.500000 0.500000
Si Si6 0.750000 0.250000 0.478650
O O1 0.645002 0.445290 0.113773
O O2 0.858570 0.433177 0.182985
O O3 0.641047 0.577588 0.879214
O O4 0.582642 0.263012 0.948772
O O5 0.512390 0.746636 0.959563
O O6 0.649849 0.551170 0.311297
O O7 0.500625 0.843219 0.733383
O O8 0.693219 0.495394 0.509839
#
# Coordination Sequence:
#
# PCOD9432421 Si02
#       6
#     4   8   4   8   4   4
#     4  10  25  46  71 112 154 196 266 327 396 489
#     4  11  24  47  69 110 144 205 258 323 394 460
#     4  10  22  44  70 102 142 186 250 308 386 462
#     4  11  24  46  74 109 151 198 255 321 406 480
#     4  12  24  46  72 106 152 206 266 324 388 466
#     4  12  25  44  77 102 152 204 264 325 388 467
#
# _framework density 27.480477
#
# number of rings (size 3 to 8) (size 9 to 14) (size 15 to 20)
#    0.000    1.000    2.500    3.000    0.000    6.000 
#    4.500    0.000    0.000    0.000    0.000    0.000 
#    0.000    0.000    0.000    0.000    0.000    0.000 
#
# Total GULP energy -178482.956134 kJ/mol
# GULP energy per Si atom -5577.592379 kJ/mol
# Density = 2.741793 g / cm^3
# Si number density = 27.480477 Si / 1000 Ang^3
#
#
#
# Elastic Constant Matrix: (Units=GPa)
#
#
# Indices 1 2 3 4 5 6 
#
# 1 197.9880 31.2323 54.8588 0.0000 0.0000 0.0000
# 2 31.2323 115.3260 12.5268 0.0000 0.0000 0.0000
# 3 54.8588 12.5268 131.6429 0.0000 0.0000 0.0000
# 4 0.0000 0.0000 0.0000 20.7289 0.0000 0.0000
# 5 0.0000 0.0000 0.0000 0.0000 56.6721 0.0000
# 6 0.0000 0.0000 0.0000 0.0000 0.0000 42.8596
#
#
#
# Elastic Compliance Matrix: (Units=1/GPa)
#
#
# Indices 1 2 3 4 5 6 
#
# 1 0.005910 -0.001347 -0.002335 0.000000 0.000000 0.000000
# 2 -0.001347 0.009069 -0.000302 0.000000 0.000000 0.000000
# 3 -0.002335 -0.000302 0.008598 0.000000 0.000000 0.000000
# 4 0.000000 0.000000 0.000000 0.048242 0.000000 0.000000
# 5 0.000000 0.000000 0.000000 0.000000 0.017645 0.000000
# 6 0.000000 0.000000 0.000000 0.000000 0.000000 0.023332
#
#
# Mechanical properties :
#
#
# Convention : Reuss Voigt Hill
#
# Bulk Modulus (GPa) = 64.06123 71.35475 67.70799
# Shear Modulus (GPa) = 39.69320 47.14138 43.41729
#
# Velocity S-wave (km/s) = 3.80467 4.14629 3.97915
# Velocity P-wave (km/s) = 6.53168 6.99602 6.76783
#
# Compressibility (1/GPa) = 0.01561007
#
# Stress axis : x y z
#
# Youngs Moduli (GPa) = 169.19856 110.27028 116.30669
#
# Poissons Ratio (x) = 0.14853 0.27155
# Poissons Ratio (y) = 0.22791 0.03508
# Poissons Ratio (z) = 0.39504 0.03326
#
# Static dielectric constant tensor:
#      x y z
#    x 2.580720 0.000000 0.000000 
#    y 0.000000 0.791110 0.000000 
#    z 0.000000 0.000000 3.198230 
# 
# From -- ./inp_files/23066.got.cif
#   From: 2010.05.17/outbox.cif.g08.bks.cpg/sg56_12_cif.got.tgz:23066.got - 2010.06.03 13:42:01.
