data_PCOD9432924
_publ_section_title
;
Structure prediction by ZEFSAII (Michael W. Deem and Ramdas Pophale) SiO2 
 PCOD9432924
Probable space group: P C C N
;
_chemical_formula_sum "Si O2"
_cell_formula_units_Z 48
_cell_length_a 8.656075
_cell_length_b 20.941576
_cell_length_c 9.913607
_cell_angle_alpha 90.000000
_cell_angle_beta 90.000000
_cell_angle_gamma 90.000000
_cell_volume 1797.057906
_symmetry_space_group_name_H-M "P C C N"
_symmetry_group_IT_number 56
_symmetry_cell_setting 'orthorhombic'
loop_
_space_group_symop_operation_xyz
x,y,z
1/2-x,1/2-y,z
1/2+x,-y,1/2-z
-x,1/2+y,1/2-z
-x,-y,-z
1/2+x,1/2+y,-z
1/2-x,y,1/2+z
x,1/2-y,1/2+z
loop_
_atom_site_type_symbol
_atom_site_label
_atom_site_fract_x
_atom_site_fract_y
_atom_site_fract_z
Si Si1 0.249578 0.062667 0.659298
Si Si2 0.578332 0.243209 0.814857
Si Si3 0.817703 0.688485 0.993035
Si Si4 0.049194 0.125357 0.830199
Si Si5 0.087250 0.608953 0.260055
Si Si6 0.265265 0.931841 0.510752
O O1 0.174815 0.127326 0.599963
O O2 0.118870 0.058399 0.773881
O O3 0.420706 0.078106 0.711767
O O4 0.256304 0.005257 0.555683
O O5 0.750000 0.250000 0.871883
O O6 0.460765 0.217379 0.926929
O O7 0.534350 0.313214 0.760986
O O8 0.579951 0.184615 0.709774
O O9 0.750000 0.750000 0.915913
O O10 0.695268 0.661136 0.102223
O O11 0.923240 0.101231 0.938361
O O12 0.225168 0.579073 0.350964
O O13 0.132402 0.599293 0.103269
#
# Coordination Sequence:
#
# PCOD9432924 Si02
#       6
#     8   8   8   8   8   8
#     4  12  26  46  79 110 158 208 263 328 393 476
#     4  11  24  49  76 111 157 201 257 329 395 459
#     4  10  24  43  76 111 151 203 265 318 392 463
#     4  11  24  47  73 114 151 205 263 319 389 473
#     4  12  27  49  78 111 160 207 259 325 392 467
#     4  12  28  50  75 117 159 207 260 326 398 471
#
# _framework density 26.710325000000001
#
# number of rings (size 3 to 8) (size 9 to 14) (size 15 to 20)
#    0.000    0.667    5.000    1.500    4.667    1.333 
#    3.000    2.500    0.000    0.000    0.000    0.000 
#    0.000    0.000    0.000    0.000    0.000    0.000 
#
# Total GULP energy -268524.468017 kJ/mol
# GULP energy per Si atom -5594.259750 kJ/mol
# Density = 2.664953 g / cm^3
# Si number density = 26.710325 Si / 1000 Ang^3
#
#
#
# Elastic Constant Matrix: (Units=GPa)
#
#
# Indices 1 2 3 4 5 6 
#
# 1 111.0524 28.7169 6.1802 0.0000 0.0000 0.0000
# 2 28.7169 160.0105 16.5382 0.0000 0.0000 0.0000
# 3 6.1802 16.5382 31.4869 0.0000 0.0000 0.0000
# 4 0.0000 0.0000 0.0000 35.5770 0.0000 0.0000
# 5 0.0000 0.0000 0.0000 0.0000 20.0961 0.0000
# 6 0.0000 0.0000 0.0000 0.0000 0.0000 15.1302
#
#
#
# Elastic Compliance Matrix: (Units=1/GPa)
#
#
# Indices 1 2 3 4 5 6 
#
# 1 0.009474 -0.001595 -0.001022 0.000000 0.000000 0.000000
# 2 -0.001595 0.006877 -0.003299 0.000000 0.000000 0.000000
# 3 -0.001022 -0.003299 0.033693 0.000000 0.000000 0.000000
# 4 0.000000 0.000000 0.000000 0.028108 0.000000 0.000000
# 5 0.000000 0.000000 0.000000 0.000000 0.049761 0.000000
# 6 0.000000 0.000000 0.000000 0.000000 0.000000 0.066093
#
#
# Mechanical properties :
#
#
# Convention : Reuss Voigt Hill
#
# Bulk Modulus (GPa) = 26.16969 45.04670 35.60819
# Shear Modulus (GPa) = 22.87557 30.90163 26.88860
#
# Velocity S-wave (km/s) = 2.92966 3.40504 3.17626
# Velocity P-wave (km/s) = 4.61115 5.68863 5.17800
#
# Compressibility (1/GPa) = 0.03821215
#
# Stress axis : x y z
#
# Youngs Moduli (GPa) = 105.55212 145.41753 29.68015
#
# Poissons Ratio (x) = 0.23189 0.03033
# Poissons Ratio (y) = 0.16832 0.09791
# Poissons Ratio (z) = 0.10787 0.47972
#
# Static dielectric constant tensor:
#      x y z
#    x 2.183920 0.000000 0.000000 
#    y 0.000000 2.084560 0.000000 
#    z 0.000000 0.000000 2.350190 
# 
# From -- ./inp_files/6429.got.cif
#   From: 2010.05.17/outbox.cif.g08.bks.cpg/sg56_4_cif.got.tgz:6429.got - 2010.06.03 13:42:01.
