data_PCOD9432450
_publ_section_title
;
Structure prediction by ZEFSAII (Michael W. Deem and Ramdas Pophale) SiO2 
 PCOD9432450
Probable space group: P C C N
;
_chemical_formula_sum "Si O2"
_cell_formula_units_Z 48
_cell_length_a 8.053597
_cell_length_b 11.465334
_cell_length_c 21.990432
_cell_angle_alpha 90.000000
_cell_angle_beta 90.000000
_cell_angle_gamma 90.000000
_cell_volume 2030.534467
_symmetry_space_group_name_H-M "P C C N"
_symmetry_group_IT_number 56
_symmetry_cell_setting 'orthorhombic'
loop_
_space_group_symop_operation_xyz
x,y,z
1/2-x,1/2-y,z
1/2+x,-y,1/2-z
-x,1/2+y,1/2-z
-x,-y,-z
1/2+x,1/2+y,-z
1/2-x,y,1/2+z
x,1/2-y,1/2+z
loop_
_atom_site_type_symbol
_atom_site_label
_atom_site_fract_x
_atom_site_fract_y
_atom_site_fract_z
Si Si1 0.872118 0.148177 0.130495
Si Si2 0.919109 0.817235 0.299686
Si Si3 0.049834 0.738060 0.090685
Si Si4 0.991959 0.924535 0.177735
Si Si5 0.128421 0.356065 0.521638
Si Si6 0.323363 0.000388 0.102420
O O1 0.750000 0.250000 0.109506
O O2 0.954329 0.212672 0.188222
O O3 0.992706 0.134569 0.073607
O O4 0.853135 0.015224 0.153488
O O5 0.750000 0.750000 0.283863
O O6 0.979929 0.908490 0.249513
O O7 0.897139 0.887759 0.362929
O O8 0.250000 0.750000 0.084548
O O9 0.038789 0.598693 0.091912
O O10 0.979854 0.793677 0.152039
O O11 0.960271 0.817547 0.040171
O O12 0.170775 0.964165 0.148664
O O13 0.250000 0.250000 0.534436
O O14 0.242187 0.468421 0.536709
#
# Coordination Sequence:
#
# PCOD9432450 Si02
#       6
#     8   8   8   8   8   8
#     4  11  24  41  67  97 128 181 230 275 347 414
#     4  12  23  44  69  95 139 180 224 289 337 411
#     4  10  24  42  67 100 136 179 227 288 345 414
#     4  10  25  41  66 101 135 176 226 289 340 410
#     4  11  21  44  65  98 135 175 226 286 346 415
#     4  10  22  45  68  98 137 181 228 284 352 409
#
# _framework density 23.639095000000001
#
# number of rings (size 3 to 8) (size 9 to 14) (size 15 to 20)
#    0.000    1.333    5.000    0.500    4.667    9.333 
#    3.000    0.000    0.000    0.000    0.000    0.000 
#    0.000    0.000    0.000    0.000    0.000    0.000 
#
# Total GULP energy -267514.933298 kJ/mol
# GULP energy per Si atom -5573.227777 kJ/mol
# Density = 2.358529 g / cm^3
# Si number density = 23.639095 Si / 1000 Ang^3
#
#
#
# Elastic Constant Matrix: (Units=GPa)
#
#
# Indices 1 2 3 4 5 6 
#
# 1 19.2354 32.2338 13.2170 0.0000 0.0000 0.0000
# 2 32.2338 113.7967 4.1783 0.0000 0.0000 0.0000
# 3 13.2170 4.1783 64.1059 0.0000 0.0000 0.0000
# 4 0.0000 0.0000 0.0000 33.5382 0.0000 0.0000
# 5 0.0000 0.0000 0.0000 0.0000 16.4473 0.0000
# 6 0.0000 0.0000 0.0000 0.0000 0.0000 21.6353
#
#
#
# Elastic Compliance Matrix: (Units=1/GPa)
#
#
# Indices 1 2 3 4 5 6 
#
# 1 0.127541 -0.035246 -0.023998 0.000000 0.000000 0.000000
# 2 -0.035246 0.018549 0.006058 0.000000 0.000000 0.000000
# 3 -0.023998 0.006058 0.020152 0.000000 0.000000 0.000000
# 4 0.000000 0.000000 0.000000 0.029817 0.000000 0.000000
# 5 0.000000 0.000000 0.000000 0.000000 0.060800 0.000000
# 6 0.000000 0.000000 0.000000 0.000000 0.000000 0.046221
#
#
# Mechanical properties :
#
#
# Convention : Reuss Voigt Hill
#
# Bulk Modulus (GPa) = 16.70313 32.93294 24.81804
# Shear Modulus (GPa) = 11.64391 24.15809 17.90100
#
# Velocity S-wave (km/s) = 2.22180 3.20027 2.75483
# Velocity P-wave (km/s) = 3.69636 5.25523 4.54316
#
# Compressibility (1/GPa) = 0.05986900
#
# Stress axis : x y z
#
# Youngs Moduli (GPa) = 7.84062 53.91174 49.62232
#
# Poissons Ratio (x) = 1.90016 1.19086
# Poissons Ratio (y) = 0.27635 -0.30060
# Poissons Ratio (z) = 0.18816 -0.32659
#
# Static dielectric constant tensor:
#      x y z
#    x 2.004730 0.000000 0.000000 
#    y 0.000000 2.085150 0.000000 
#    z 0.000000 0.000000 1.906080 
# 
# From -- ./inp_files/20493.got.cif
#   From: 2010.05.17/outbox.cif.g08.bks.cpg/sg56_11_cif.got.tgz:20493.got - 2010.06.03 13:42:01.
