data_PCOD9432973
_publ_section_title
;
Structure prediction by ZEFSAII (Michael W. Deem and Ramdas Pophale) SiO2 
 PCOD9432973
Probable space group: P C C N
;
_chemical_formula_sum "Si O2"
_cell_formula_units_Z 60
_cell_length_a 21.668759
_cell_length_b 11.095357
_cell_length_c 13.189075
_cell_angle_alpha 90.000000
_cell_angle_beta 90.000000
_cell_angle_gamma 90.000000
_cell_volume 3170.951925
_symmetry_space_group_name_H-M "P C C N"
_symmetry_group_IT_number 56
_symmetry_cell_setting 'orthorhombic'
loop_
_space_group_symop_operation_xyz
x,y,z
1/2-x,1/2-y,z
1/2+x,-y,1/2-z
-x,1/2+y,1/2-z
-x,-y,-z
1/2+x,1/2+y,-z
1/2-x,y,1/2+z
x,1/2-y,1/2+z
loop_
_atom_site_type_symbol
_atom_site_label
_atom_site_fract_x
_atom_site_fract_y
_atom_site_fract_z
Si Si1 0.840486 0.486755 0.141633
Si Si2 0.784229 0.579582 0.737759
Si Si3 0.176708 0.751536 0.989063
Si Si4 0.857726 0.747533 0.579033
Si Si5 0.401773 0.832864 0.683723
Si Si6 0.527945 0.921908 0.590438
Si Si7 0.620111 0.101076 0.693433
Si Si8 0.250000 0.250000 0.584965
O O1 0.770618 0.525444 0.169848
O O2 0.841383 0.379562 0.058226
O O3 0.869582 0.612660 0.104956
O O4 0.871345 0.434383 0.244143
O O5 0.821912 0.680020 0.672299
O O6 0.831532 0.472572 0.761013
O O7 0.757811 0.637586 0.839393
O O8 0.250000 0.750000 0.005199
O O9 0.157558 0.849067 0.903591
O O10 0.141369 0.794468 0.089534
O O11 0.921389 0.677592 0.558180
O O12 0.810024 0.739639 0.485739
O O13 0.469055 0.868050 0.646055
O O14 0.407073 0.715104 0.751846
O O15 0.500000 0.000000 0.500000
O O16 0.566682 0.011935 0.660211
#
# Coordination Sequence:
#
# PCOD9432973 Si02
#       8
#     8   8   8   8   8   8   8   4
#     4  11  23  42  65  97 137 168 217 287 329 396
#     4  11  22  40  65  99 139 164 219 268 343 402
#     4  11  23  41  67  98 136 175 217 278 341 402
#     4  11  25  44  65 100 139 168 221 289 327 403
#     4  11  27  41  68  95 128 184 231 262 341 405
#     4  11  25  48  69  89 134 184 228 272 334 405
#     4  10  24  45  63  98 132 174 221 285 323 403
#     4  12  22  38  68 106 128 174 212 268 354 394
#
# _framework density 18.921764
#
# number of rings (size 3 to 8) (size 9 to 14) (size 15 to 20)
#    0.000    1.067    5.333    0.000    7.467    0.000 
#    2.400    0.667    0.000    0.000    0.000    0.000 
#    0.000    0.000    0.000    0.000    0.000    0.000 
#
# Total GULP energy -335155.783590 kJ/mol
# GULP energy per Si atom -5585.929727 kJ/mol
# Density = 1.887870 g / cm^3
# Si number density = 18.921764 Si / 1000 Ang^3
#
#
#
# Elastic Constant Matrix: (Units=GPa)
#
#
# Indices 1 2 3 4 5 6 
#
# 1 144.2197 74.2986 56.6492 0.0000 0.0000 0.0000
# 2 74.2986 117.9448 63.2779 0.0000 0.0000 0.0000
# 3 56.6492 63.2779 86.9907 0.0000 0.0000 0.0000
# 4 0.0000 0.0000 0.0000 24.9678 0.0000 0.0000
# 5 0.0000 0.0000 0.0000 0.0000 23.4433 0.0000
# 6 0.0000 0.0000 0.0000 0.0000 0.0000 30.8569
#
#
#
# Elastic Compliance Matrix: (Units=1/GPa)
#
#
# Indices 1 2 3 4 5 6 
#
# 1 0.010857 -0.004996 -0.003436 0.000000 0.000000 0.000000
# 2 -0.004996 0.016204 -0.008534 0.000000 0.000000 0.000000
# 3 -0.003436 -0.008534 0.019941 0.000000 0.000000 0.000000
# 4 0.000000 0.000000 0.000000 0.040052 0.000000 0.000000
# 5 0.000000 0.000000 0.000000 0.000000 0.042656 0.000000
# 6 0.000000 0.000000 0.000000 0.000000 0.000000 0.032408
#
#
# Mechanical properties :
#
#
# Convention : Reuss Voigt Hill
#
# Bulk Modulus (GPa) = 76.50885 81.95629 79.23257
# Shear Modulus (GPa) = 24.94935 26.18224 25.56580
#
# Velocity S-wave (km/s) = 3.63513 3.72386 3.67976
# Velocity P-wave (km/s) = 7.62502 7.86745 7.74719
#
# Compressibility (1/GPa) = 0.01307038
#
# Stress axis : x y z
#
# Youngs Moduli (GPa) = 92.10250 61.71314 50.14879
#
# Poissons Ratio (x) = 0.30832 0.17233
# Poissons Ratio (y) = 0.46014 0.42795
# Poissons Ratio (z) = 0.31650 0.52663
#
# Static dielectric constant tensor:
#      x y z
#    x 1.607040 0.000000 0.000000 
#    y 0.000000 1.679520 0.000000 
#    z 0.000000 0.000000 1.677990 
# 
# From -- ./inp_files/8676.got.cif
#   From: 2010.05.17/outbox.cif.g08.bks.cpg/sg56_5_cif.got.tgz:8676.got - 2010.06.03 13:42:01.
