data_PCOD9432694
_publ_section_title
;
Structure prediction by ZEFSAII (Michael W. Deem and Ramdas Pophale) SiO2 
 PCOD9432694
Probable space group: P C C N
;
_chemical_formula_sum "Si O2"
_cell_formula_units_Z 36
_cell_length_a 8.114506
_cell_length_b 14.636891
_cell_length_c 13.913691
_cell_angle_alpha 90.000000
_cell_angle_beta 90.000000
_cell_angle_gamma 90.000000
_cell_volume 1652.544939
_symmetry_space_group_name_H-M "P C C N"
_symmetry_group_IT_number 56
_symmetry_cell_setting 'orthorhombic'
loop_
_space_group_symop_operation_xyz
x,y,z
1/2-x,1/2-y,z
1/2+x,-y,1/2-z
-x,1/2+y,1/2-z
-x,-y,-z
1/2+x,1/2+y,-z
1/2-x,y,1/2+z
x,1/2-y,1/2+z
loop_
_atom_site_type_symbol
_atom_site_label
_atom_site_fract_x
_atom_site_fract_y
_atom_site_fract_z
Si Si1 0.525790 0.901786 0.887359
Si Si2 0.300598 0.852100 0.297356
Si Si3 0.160255 0.600717 0.087374
Si Si4 0.509429 0.107911 0.516887
Si Si5 0.250000 0.250000 0.068525
O O1 0.367211 0.910248 0.817852
O O2 0.637725 0.992121 0.891128
O O3 0.457559 0.884665 0.995866
O O4 0.631509 0.812278 0.866532
O O5 0.250000 0.750000 0.324290
O O6 0.367571 0.854331 0.189934
O O7 0.434940 0.883673 0.372957
O O8 0.338164 0.634480 0.051161
O O9 0.355279 0.176013 0.506964
O O10 0.500000 0.000000 0.500000
#
# Coordination Sequence:
#
# PCOD9432694 Si02
#       5
#     8   8   8   8   4
#     4  10  23  44  65  95 132 175 220 282 344 416
#     4  11  24  42  68  97 134 175 227 283 346 419
#     4  10  24  43  66  93 134 178 219 274 357 408
#     4  11  24  44  66  97 136 179 221 286 347 413
#     4  12  22  42  68  94 132 172 232 282 338 416
#
# _framework density 21.784580999999999
#
# number of rings (size 3 to 8) (size 9 to 14) (size 15 to 20)
#    0.000    1.333    4.444    0.000    6.222    0.000 
#    0.000    4.444    0.000    0.000    0.000    0.000 
#    0.000    0.000    0.000    0.000    0.000    0.000 
#
# Total GULP energy -200939.109893 kJ/mol
# GULP energy per Si atom -5581.641941 kJ/mol
# Density = 2.173500 g / cm^3
# Si number density = 21.784581 Si / 1000 Ang^3
#
#
#
# Elastic Constant Matrix: (Units=GPa)
#
#
# Indices 1 2 3 4 5 6 
#
# 1 86.2520 36.5652 1.4350 0.0000 0.0000 0.0000
# 2 36.5652 60.5400 -12.6843 0.0000 0.0000 0.0000
# 3 1.4350 -12.6843 74.3830 0.0000 0.0000 0.0000
# 4 0.0000 0.0000 0.0000 21.3745 0.0000 0.0000
# 5 0.0000 0.0000 0.0000 0.0000 4.6793 0.0000
# 6 0.0000 0.0000 0.0000 0.0000 0.0000 49.3601
#
#
#
# Elastic Compliance Matrix: (Units=1/GPa)
#
#
# Indices 1 2 3 4 5 6 
#
# 1 0.015870 -0.010007 -0.002013 0.000000 0.000000 0.000000
# 2 -0.010007 0.023440 0.004190 0.000000 0.000000 0.000000
# 3 -0.002013 0.004190 0.014197 0.000000 0.000000 0.000000
# 4 0.000000 0.000000 0.000000 0.046785 0.000000 0.000000
# 5 0.000000 0.000000 0.000000 0.000000 0.213707 0.000000
# 6 0.000000 0.000000 0.000000 0.000000 0.000000 0.020259
#
#
# Mechanical properties :
#
#
# Convention : Reuss Voigt Hill
#
# Bulk Modulus (GPa) = 26.42106 30.20073 28.31089
# Shear Modulus (GPa) = 13.79189 28.14008 20.96598
#
# Velocity S-wave (km/s) = 2.51888 3.59798 3.10566
# Velocity P-wave (km/s) = 4.54030 5.58158 5.08765
#
# Compressibility (1/GPa) = 0.03784860
#
# Stress axis : x y z
#
# Youngs Moduli (GPa) = 63.01364 42.66253 70.43592
#
# Poissons Ratio (x) = 0.42691 0.14176
# Poissons Ratio (y) = 0.63055 -0.29514
# Poissons Ratio (z) = 0.12682 -0.17876
#
# Static dielectric constant tensor:
#      x y z
#    x 1.920230 0.000000 0.000000 
#    y 0.000000 1.851040 0.000000 
#    z 0.000000 0.000000 1.752650 
# 
# From -- ./inp_files/10278.got.cif
#   From: 2010.05.17/outbox.cif.g08.bks.cpg/sg56_6_cif.got.tgz:10278.got - 2010.06.03 13:42:01.
