data_PCOD9432149
_publ_section_title
;
Structure prediction by ZEFSAII (Michael W. Deem and Ramdas Pophale) SiO2 
 PCOD9432149
Probable space group: P C C N
;
_chemical_formula_sum "Si O2"
_cell_formula_units_Z 40
_cell_length_a 13.716649
_cell_length_b 7.579492
_cell_length_c 15.527488
_cell_angle_alpha 90.000000
_cell_angle_beta 90.000000
_cell_angle_gamma 90.000000
_cell_volume 1614.318882
_symmetry_space_group_name_H-M "P C C N"
_symmetry_group_IT_number 56
_symmetry_cell_setting 'orthorhombic'
loop_
_space_group_symop_operation_xyz
x,y,z
1/2-x,1/2-y,z
1/2+x,-y,1/2-z
-x,1/2+y,1/2-z
-x,-y,-z
1/2+x,1/2+y,-z
1/2-x,y,1/2+z
x,1/2-y,1/2+z
loop_
_atom_site_type_symbol
_atom_site_label
_atom_site_fract_x
_atom_site_fract_y
_atom_site_fract_z
Si Si1 0.873970 0.166517 0.993364
Si Si2 0.896370 0.782773 0.044236
Si Si3 0.111482 0.161576 0.644210
Si Si4 0.884960 0.439499 0.138612
Si Si5 0.197641 0.968758 0.186025
O O1 0.987367 0.197682 0.968382
O O2 0.825289 0.135057 0.901270
O O3 0.850247 0.328490 0.055586
O O4 0.861067 0.983763 0.046283
O O5 0.871184 0.647426 0.119255
O O6 0.862084 0.689037 0.956311
O O7 0.191125 0.033571 0.685010
O O8 0.128685 0.356762 0.681124
O O9 0.000893 0.097124 0.649305
O O10 0.832742 0.380832 0.225306
#
# Coordination Sequence:
#
# PCOD9432149 Si02
#       5
#     8   8   8   8   8
#     4   9  19  40  68 103 135 179 232 287 352 414
#     4   9  19  40  70  94 129 184 231 285 349 422
#     4   9  20  43  68  98 141 186 231 290 353 408
#     4  11  22  41  77 100 136 189 232 284 356 423
#     4  10  22  40  72 106 143 183 235 293 346 422
#
# _framework density 24.778252999999999
#
# number of rings (size 3 to 8) (size 9 to 14) (size 15 to 20)
#    0.000    2.400    0.000    3.600    2.800    0.000 
#    0.000   14.000   13.200    9.600    0.000    0.000 
#    0.000    0.000    0.000    0.000    0.000    0.000 
#
# Total GULP energy -224037.230334 kJ/mol
# GULP energy per Si atom -5600.930758 kJ/mol
# Density = 2.472186 g / cm^3
# Si number density = 24.778253 Si / 1000 Ang^3
#
#
#
# Elastic Constant Matrix: (Units=GPa)
#
#
# Indices 1 2 3 4 5 6 
#
# 1 92.4974 40.4040 29.2717 0.0000 0.0000 0.0000
# 2 40.4040 147.6061 70.5879 0.0000 0.0000 0.0000
# 3 29.2717 70.5879 152.4575 0.0000 0.0000 0.0000
# 4 0.0000 0.0000 0.0000 9.3115 0.0000 0.0000
# 5 0.0000 0.0000 0.0000 0.0000 19.0856 0.0000
# 6 0.0000 0.0000 0.0000 0.0000 0.0000 25.8878
#
#
#
# Elastic Compliance Matrix: (Units=1/GPa)
#
#
# Indices 1 2 3 4 5 6 
#
# 1 0.012406 -0.002899 -0.001040 0.000000 0.000000 0.000000
# 2 -0.002899 0.009379 -0.003786 0.000000 0.000000 0.000000
# 3 -0.001040 -0.003786 0.008512 0.000000 0.000000 0.000000
# 4 0.000000 0.000000 0.000000 0.107394 0.000000 0.000000
# 5 0.000000 0.000000 0.000000 0.000000 0.052396 0.000000
# 6 0.000000 0.000000 0.000000 0.000000 0.000000 0.038628
#
#
# Mechanical properties :
#
#
# Convention : Reuss Voigt Hill
#
# Bulk Modulus (GPa) = 67.34925 74.78758 71.06842
# Shear Modulus (GPa) = 20.07123 27.67681 23.87402
#
# Velocity S-wave (km/s) = 2.84920 3.34575 3.10741
# Velocity P-wave (km/s) = 6.16958 6.72114 6.45125
#
# Compressibility (1/GPa) = 0.01484798
#
# Stress axis : x y z
#
# Youngs Moduli (GPa) = 80.60368 106.62494 117.48542
#
# Poissons Ratio (x) = 0.30907 0.12218
# Poissons Ratio (y) = 0.23364 0.44478
# Poissons Ratio (z) = 0.08382 0.40366
#
# Static dielectric constant tensor:
#      x y z
#    x 1.952490 0.000000 0.000000 
#    y 0.000000 1.996030 0.000000 
#    z 0.000000 0.000000 1.901760 
# 
# From -- ./inp_files/12068.got.cif
#   From: 2010.05.17/outbox.cif.g08.bks.cpg/sg56_7_cif.got.tgz:12068.got - 2010.06.03 13:42:01.
