data_PCOD9432876
_publ_section_title
;
Structure prediction by ZEFSAII (Michael W. Deem and Ramdas Pophale) SiO2 
 PCOD9432876
Probable space group: P C C N
;
_chemical_formula_sum "Si O2"
_cell_formula_units_Z 60
_cell_length_a 5.875430
_cell_length_b 20.991845
_cell_length_c 23.826946
_cell_angle_alpha 90.000000
_cell_angle_beta 90.000000
_cell_angle_gamma 90.000000
_cell_volume 2938.722973
_symmetry_space_group_name_H-M "P C C N"
_symmetry_group_IT_number 56
_symmetry_cell_setting 'orthorhombic'
loop_
_space_group_symop_operation_xyz
x,y,z
1/2-x,1/2-y,z
1/2+x,-y,1/2-z
-x,1/2+y,1/2-z
-x,-y,-z
1/2+x,1/2+y,-z
1/2-x,y,1/2+z
x,1/2-y,1/2+z
loop_
_atom_site_type_symbol
_atom_site_label
_atom_site_fract_x
_atom_site_fract_y
_atom_site_fract_z
Si Si1 0.478182 0.413409 0.369953
Si Si2 0.634040 0.422166 0.783276
Si Si3 0.750000 0.250000 0.929991
Si Si4 0.811481 0.468969 0.666948
Si Si5 0.209347 0.977638 0.535715
Si Si6 0.002895 0.587884 0.439376
Si Si7 0.111101 0.313631 0.348222
Si Si8 0.495624 0.765530 0.460892
O O1 0.625607 0.408180 0.313560
O O2 0.340285 0.479088 0.365373
O O3 0.651465 0.422758 0.420424
O O4 0.300267 0.357064 0.379028
O O5 0.680194 0.437287 0.718664
O O6 0.516237 0.486146 0.808943
O O7 0.478572 0.361110 0.799189
O O8 0.603552 0.294388 0.887507
O O9 0.554470 0.233866 0.977427
O O10 0.880341 0.416948 0.621118
O O11 0.371903 0.948050 0.489562
O O12 0.288159 0.041261 0.567673
O O13 0.000000 0.000000 0.500000
O O14 0.986162 0.658555 0.461709
O O15 0.250000 0.250000 0.330784
O O16 0.750000 0.750000 0.439461
O O17 0.250000 0.750000 0.431085
#
# Coordination Sequence:
#
# PCOD9432876 Si02
#       8
#     8   8   4   8   8   8   8   8
#     4  11  23  39  66  96 142 171 226 281 357 424
#     4  11  23  41  68  97 135 174 233 289 354 425
#     4  10  24  42  66  94 140 184 242 276 354 412
#     4  11  22  42  66 102 129 182 224 287 359 418
#     4  11  24  37  64 104 139 176 212 291 350 420
#     4  11  25  40  66 101 141 175 233 282 357 427
#     4  11  25  41  65 100 135 184 233 295 347 418
#     4  10  26  44  69  99 138 196 238 284 348 435
#
# _framework density 20.417031999999999
#
# number of rings (size 3 to 8) (size 9 to 14) (size 15 to 20)
#    0.400    0.800    4.000    1.200    7.467    0.000 
#    0.000    0.000    4.400    0.000    0.000    0.000 
#    0.000    0.000    0.000    0.000    0.000    0.000 
#
# Total GULP energy -334101.351749 kJ/mol
# GULP energy per Si atom -5568.355862 kJ/mol
# Density = 2.037056 g / cm^3
# Si number density = 20.417032 Si / 1000 Ang^3
#
#
#
# Elastic Constant Matrix: (Units=GPa)
#
#
# Indices 1 2 3 4 5 6 
#
# 1 84.0441 39.5022 8.5303 0.0000 0.0000 0.0000
# 2 39.5022 102.1758 16.7992 0.0000 0.0000 0.0000
# 3 8.5303 16.7992 80.6528 0.0000 0.0000 0.0000
# 4 0.0000 0.0000 0.0000 21.1968 0.0000 0.0000
# 5 0.0000 0.0000 0.0000 0.0000 23.4066 0.0000
# 6 0.0000 0.0000 0.0000 0.0000 0.0000 28.5016
#
#
#
# Elastic Compliance Matrix: (Units=1/GPa)
#
#
# Indices 1 2 3 4 5 6 
#
# 1 0.014552 -0.005563 -0.000380 0.000000 0.000000 0.000000
# 2 -0.005563 0.012261 -0.001965 0.000000 0.000000 0.000000
# 3 -0.000380 -0.001965 0.012848 0.000000 0.000000 0.000000
# 4 0.000000 0.000000 0.000000 0.047177 0.000000 0.000000
# 5 0.000000 0.000000 0.000000 0.000000 0.042723 0.000000
# 6 0.000000 0.000000 0.000000 0.000000 0.000000 0.035086
#
#
# Mechanical properties :
#
#
# Convention : Reuss Voigt Hill
#
# Bulk Modulus (GPa) = 41.94068 44.05955 43.00012
# Shear Modulus (GPa) = 26.53742 28.09041 27.31392
#
# Velocity S-wave (km/s) = 3.60914 3.71325 3.66156
# Velocity P-wave (km/s) = 6.16072 6.32542 6.24361
#
# Compressibility (1/GPa) = 0.02384320
#
# Stress axis : x y z
#
# Youngs Moduli (GPa) = 68.71894 81.55886 77.83051
#
# Poissons Ratio (x) = 0.45375 0.02960
# Poissons Ratio (y) = 0.38231 0.15297
# Poissons Ratio (z) = 0.02613 0.16030
#
# Static dielectric constant tensor:
#      x y z
#    x 1.846940 0.000000 0.000000 
#    y 0.000000 1.757720 0.000000 
#    z 0.000000 0.000000 1.640300 
# 
# From -- ./inp_files/20161.got.cif
#   From: 2010.05.17/outbox.cif.g08.bks.cpg/sg56_11_cif.got.tgz:20161.got - 2010.06.03 13:42:01.
