data_PCOD9432298
_publ_section_title
;
Structure prediction by ZEFSAII (Michael W. Deem and Ramdas Pophale) SiO2 
 PCOD9432298
Probable space group: P C C N
;
_chemical_formula_sum "Si O2"
_cell_formula_units_Z 56
_cell_length_a 13.975593
_cell_length_b 13.617975
_cell_length_c 12.921354
_cell_angle_alpha 90.000000
_cell_angle_beta 90.000000
_cell_angle_gamma 90.000000
_cell_volume 2459.182739
_symmetry_space_group_name_H-M "P C C N"
_symmetry_group_IT_number 56
_symmetry_cell_setting 'orthorhombic'
loop_
_space_group_symop_operation_xyz
x,y,z
1/2-x,1/2-y,z
1/2+x,-y,1/2-z
-x,1/2+y,1/2-z
-x,-y,-z
1/2+x,1/2+y,-z
1/2-x,y,1/2+z
x,1/2-y,1/2+z
loop_
_atom_site_type_symbol
_atom_site_label
_atom_site_fract_x
_atom_site_fract_y
_atom_site_fract_z
Si Si1 0.352135 0.703724 0.527947
Si Si2 0.394528 0.094960 0.411047
Si Si3 0.876070 0.510709 0.076768
Si Si4 0.263428 0.354299 0.560926
Si Si5 0.545074 0.389757 0.304701
Si Si6 0.784671 0.975438 0.252949
Si Si7 0.945194 0.125608 0.075514
O O1 0.250000 0.750000 0.562248
O O2 0.359777 0.592936 0.481662
O O3 0.429820 0.701167 0.621359
O O4 0.383074 0.777900 0.437479
O O5 0.312921 0.152665 0.469812
O O6 0.366949 0.100549 0.290420
O O7 0.488509 0.120829 0.474184
O O8 0.387204 0.976623 0.427896
O O9 0.795613 0.513419 0.166301
O O10 0.976409 0.535088 0.133182
O O11 0.856468 0.600253 0.995553
O O12 0.250000 0.250000 0.614745
O O13 0.236356 0.435336 0.644468
O O14 0.651717 0.431701 0.283320
O O15 0.505289 0.372003 0.188760
#
# Coordination Sequence:
#
# PCOD9432298 Si02
#       7
#     8   8   8   8   8   8   8
#     4  12  25  44  72 105 145 185 237 305 360 441
#     4   9  21  44  65  91 138 175 223 289 344 422
#     4  11  25  47  69 100 153 182 235 308 365 424
#     4  11  23  39  66  95 135 177 233 281 355 422
#     4  11  24  45  71 105 139 189 240 293 372 431
#     4  10  22  42  69  96 136 188 231 285 367 424
#     4  10  23  45  67  99 134 181 237 281 357 431
#
# _framework density 22.771792000000001
#
# number of rings (size 3 to 8) (size 9 to 14) (size 15 to 20)
#    0.000    1.429    1.429    3.857    2.000    4.000 
#   10.286    0.000    0.000    0.000    0.000    0.000 
#    0.000    0.000    0.000    0.000    0.000    0.000 
#
# Total GULP energy -311760.852033 kJ/mol
# GULP energy per Si atom -5567.158072 kJ/mol
# Density = 2.271996 g / cm^3
# Si number density = 22.771792 Si / 1000 Ang^3
#
#
#
# Elastic Constant Matrix: (Units=GPa)
#
#
# Indices 1 2 3 4 5 6 
#
# 1 69.9767 28.3976 4.1672 0.0000 0.0000 0.0000
# 2 28.3976 89.0010 22.2550 0.0000 0.0000 0.0000
# 3 4.1672 22.2550 72.9749 0.0000 0.0000 0.0000
# 4 0.0000 0.0000 0.0000 23.8443 0.0000 0.0000
# 5 0.0000 0.0000 0.0000 0.0000 31.0472 0.0000
# 6 0.0000 0.0000 0.0000 0.0000 0.0000 21.8612
#
#
#
# Elastic Compliance Matrix: (Units=1/GPa)
#
#
# Indices 1 2 3 4 5 6 
#
# 1 0.016451 -0.005428 0.000716 0.000000 0.000000 0.000000
# 2 -0.005428 0.013954 -0.003946 0.000000 0.000000 0.000000
# 3 0.000716 -0.003946 0.014866 0.000000 0.000000 0.000000
# 4 0.000000 0.000000 0.000000 0.041939 0.000000 0.000000
# 5 0.000000 0.000000 0.000000 0.000000 0.032209 0.000000
# 6 0.000000 0.000000 0.000000 0.000000 0.000000 0.045743
#
#
# Mechanical properties :
#
#
# Convention : Reuss Voigt Hill
#
# Bulk Modulus (GPa) = 35.77127 37.95466 36.86296
# Shear Modulus (GPa) = 26.06947 27.15940 26.61444
#
# Velocity S-wave (km/s) = 3.38718 3.45726 3.42240
# Velocity P-wave (km/s) = 5.57136 5.71318 5.64272
#
# Compressibility (1/GPa) = 0.02795540
#
# Stress axis : x y z
#
# Youngs Moduli (GPa) = 60.78825 71.66230 67.26865
#
# Poissons Ratio (x) = 0.38898 -0.04816
# Poissons Ratio (y) = 0.32995 0.26542
# Poissons Ratio (z) = -0.04352 0.28276
#
# Static dielectric constant tensor:
#      x y z
#    x 1.913340 0.000000 0.000000 
#    y 0.000000 1.940230 0.000000 
#    z 0.000000 0.000000 1.893450 
# 
# From -- ./inp_files/7910.got.cif
#   From: 2010.05.17/outbox.cif.g08.bks.cpg/sg56_4_cif.got.tgz:7910.got - 2010.06.03 13:42:01.
