data_PCOD9432015
_publ_section_title
;
Structure prediction by ZEFSAII (Michael W. Deem and Ramdas Pophale) SiO2 
 PCOD9432015
Probable space group: P C C N
;
_chemical_formula_sum "Si O2"
_cell_formula_units_Z 56
_cell_length_a 11.018740
_cell_length_b 12.604693
_cell_length_c 16.612589
_cell_angle_alpha 90.000000
_cell_angle_beta 90.000000
_cell_angle_gamma 90.000000
_cell_volume 2307.286519
_symmetry_space_group_name_H-M "P C C N"
_symmetry_group_IT_number 56
_symmetry_cell_setting 'orthorhombic'
loop_
_space_group_symop_operation_xyz
x,y,z
1/2-x,1/2-y,z
1/2+x,-y,1/2-z
-x,1/2+y,1/2-z
-x,-y,-z
1/2+x,1/2+y,-z
1/2-x,y,1/2+z
x,1/2-y,1/2+z
loop_
_atom_site_type_symbol
_atom_site_label
_atom_site_fract_x
_atom_site_fract_y
_atom_site_fract_z
Si Si1 0.999823 0.333783 0.060347
Si Si2 0.164691 0.974138 0.043347
Si Si3 0.750000 0.250000 0.627045
Si Si4 0.570963 0.431821 0.410938
Si Si5 0.750000 0.750000 0.689468
Si Si6 0.874179 0.670215 0.338521
Si Si7 0.069013 0.093421 0.886183
Si Si8 0.116869 0.905417 0.771921
O O1 0.872611 0.272629 0.076553
O O2 0.006107 0.453704 0.094574
O O3 0.111966 0.271332 0.101991
O O4 0.010953 0.354514 0.964772
O O5 0.153690 0.071005 0.105997
O O6 0.303180 0.941062 0.039965
O O7 0.124329 0.019255 0.957089
O O8 0.067739 0.890774 0.080424
O O9 0.731510 0.146985 0.684182
O O10 0.614613 0.400243 0.323137
O O11 0.703972 0.666619 0.757147
O O12 0.648380 0.805101 0.635645
O O13 0.007556 0.667855 0.301432
O O14 0.079610 0.019883 0.806865
#
# Coordination Sequence:
#
# PCOD9432015 Si02
#       8
#     8   8   4   8   4   8   8   8
#     4  10  23  41  61  91 129 172 218 273 341 411
#     4  10  22  42  64  89 130 177 215 268 341 414
#     4  10  22  42  64  86 130 176 216 274 340 408
#     4  11  23  39  65  93 123 167 221 274 332 406
#     4  12  24  40  70 102 128 170 228 286 342 418
#     4  10  22  39  60  91 131 170 216 276 340 401
#     4  10  23  41  63  93 131 172 219 276 344 412
#     4  10  22  39  60  92 127 167 217 274 333 400
#
# _framework density 24.270935000000001
#
# number of rings (size 3 to 8) (size 9 to 14) (size 15 to 20)
#    0.000    1.714    0.000    3.429    0.000   12.571 
#    0.000    0.000    0.000    0.000    0.000    0.000 
#    0.000    0.000    0.000    0.000    0.000    0.000 
#
# Total GULP energy -312775.149811 kJ/mol
# GULP energy per Si atom -5585.270532 kJ/mol
# Density = 2.421569 g / cm^3
# Si number density = 24.270935 Si / 1000 Ang^3
#
#
#
# Elastic Constant Matrix: (Units=GPa)
#
#
# Indices 1 2 3 4 5 6 
#
# 1 76.7478 20.5876 29.8770 0.0000 0.0000 0.0000
# 2 20.5876 65.7236 43.8339 0.0000 0.0000 0.0000
# 3 29.8770 43.8339 116.4747 0.0000 0.0000 0.0000
# 4 0.0000 0.0000 0.0000 19.7078 0.0000 0.0000
# 5 0.0000 0.0000 0.0000 0.0000 31.2291 0.0000
# 6 0.0000 0.0000 0.0000 0.0000 0.0000 40.7202
#
#
#
# Elastic Compliance Matrix: (Units=1/GPa)
#
#
# Indices 1 2 3 4 5 6 
#
# 1 0.014857 -0.002820 -0.002750 0.000000 0.000000 0.000000
# 2 -0.002820 0.020849 -0.007123 0.000000 0.000000 0.000000
# 3 -0.002750 -0.007123 0.011972 0.000000 0.000000 0.000000
# 4 0.000000 0.000000 0.000000 0.050741 0.000000 0.000000
# 5 0.000000 0.000000 0.000000 0.000000 0.032021 0.000000
# 6 0.000000 0.000000 0.000000 0.000000 0.000000 0.024558
#
#
# Mechanical properties :
#
#
# Convention : Reuss Voigt Hill
#
# Bulk Modulus (GPa) = 44.85879 49.72700 47.29290
# Shear Modulus (GPa) = 26.62216 29.30794 27.96505
#
# Velocity S-wave (km/s) = 3.31550 3.47873 3.39809
# Velocity P-wave (km/s) = 5.76015 6.05542 5.90963
#
# Compressibility (1/GPa) = 0.02229217
#
# Stress axis : x y z
#
# Youngs Moduli (GPa) = 67.31056 47.96352 83.53155
#
# Poissons Ratio (x) = 0.13525 0.22968
# Poissons Ratio (y) = 0.18981 0.59500
# Poissons Ratio (z) = 0.18508 0.34164
#
# Static dielectric constant tensor:
#      x y z
#    x 2.041260 0.000000 0.000000 
#    y 0.000000 1.981890 0.000000 
#    z 0.000000 0.000000 1.922910 
# 
# From -- ./inp_files/11733.got.cif
#   From: 2010.05.17/outbox.cif.g08.bks.cpg/sg56_6_cif.got.tgz:11733.got - 2010.06.03 13:42:01.
