data_PCOD9432543
_publ_section_title
;
Structure prediction by ZEFSAII (Michael W. Deem and Ramdas Pophale) SiO2 
 PCOD9432543
Probable space group: P C C N
;
_chemical_formula_sum "Si O2"
_cell_formula_units_Z 56
_cell_length_a 10.763505
_cell_length_b 11.888582
_cell_length_c 22.198006
_cell_angle_alpha 90.000000
_cell_angle_beta 90.000000
_cell_angle_gamma 90.000000
_cell_volume 2840.519264
_symmetry_space_group_name_H-M "P C C N"
_symmetry_group_IT_number 56
_symmetry_cell_setting 'orthorhombic'
loop_
_space_group_symop_operation_xyz
x,y,z
1/2-x,1/2-y,z
1/2+x,-y,1/2-z
-x,1/2+y,1/2-z
-x,-y,-z
1/2+x,1/2+y,-z
1/2-x,y,1/2+z
x,1/2-y,1/2+z
loop_
_atom_site_type_symbol
_atom_site_label
_atom_site_fract_x
_atom_site_fract_y
_atom_site_fract_z
Si Si1 0.477638 0.594065 0.710526
Si Si2 0.897657 0.636162 0.851186
Si Si3 0.890186 0.882271 0.830984
Si Si4 0.005111 0.369945 0.017088
Si Si5 0.750000 0.250000 0.801772
Si Si6 0.250000 0.750000 0.504295
Si Si7 0.892854 0.098560 0.899053
Si Si8 0.104619 0.260454 0.894793
O O1 0.453659 0.476316 0.676911
O O2 0.553998 0.566686 0.770447
O O3 0.355038 0.668975 0.727257
O O4 0.550829 0.669137 0.661420
O O5 0.949986 0.758592 0.834486
O O6 0.757101 0.633044 0.827915
O O7 0.911988 0.636069 0.923166
O O8 0.900969 0.966033 0.887760
O O9 0.868362 0.312137 0.026771
O O10 0.000000 0.500000 0.000000
O O11 0.066087 0.314314 0.958431
O O12 0.822794 0.160126 0.843681
O O13 0.316010 0.848073 0.545096
O O14 0.032738 0.142829 0.897011
O O15 0.250000 0.250000 0.888925
#
# Coordination Sequence:
#
# PCOD9432543 Si02
#       8
#     8   8   8   8   4   4   8   8
#     4  11  23  41  67  95 127 176 225 269 329 392
#     4  11  25  43  62  98 134 174 210 271 344 386
#     4  11  25  39  64  93 139 171 212 270 327 405
#     4  11  21  44  69  96 132 171 222 279 338 395
#     4   9  18  38  65  84 120 169 222 255 314 386
#     4   9  20  40  73  94 122 173 232 269 324 414
#     4   9  18  40  64  92 123 169 217 261 328 384
#     4  10  23  39  66  99 125 173 226 276 318 396
#
# _framework density 19.714704000000001
#
# number of rings (size 3 to 8) (size 9 to 14) (size 15 to 20)
#    0.000    1.714    2.857    1.714    8.000    0.000 
#    2.571    3.571    0.000    0.000    0.000    0.000 
#    0.000    0.000    0.000    0.000    0.000    0.000 
#
# Total GULP energy -311923.289072 kJ/mol
# GULP energy per Si atom -5570.058733 kJ/mol
# Density = 1.966983 g / cm^3
# Si number density = 19.714704 Si / 1000 Ang^3
#
#
#
# Elastic Constant Matrix: (Units=GPa)
#
#
# Indices 1 2 3 4 5 6 
#
# 1 111.5022 19.1612 16.3507 0.0000 0.0000 0.0000
# 2 19.1612 97.1802 -11.7045 0.0000 0.0000 0.0000
# 3 16.3507 -11.7045 42.0959 0.0000 0.0000 0.0000
# 4 0.0000 0.0000 0.0000 6.4675 0.0000 0.0000
# 5 0.0000 0.0000 0.0000 0.0000 41.9121 0.0000
# 6 0.0000 0.0000 0.0000 0.0000 0.0000 2.0602
#
#
#
# Elastic Compliance Matrix: (Units=1/GPa)
#
#
# Indices 1 2 3 4 5 6 
#
# 1 0.010084 -0.002545 -0.004624 0.000000 0.000000 0.000000
# 2 -0.002545 0.011289 0.004127 0.000000 0.000000 0.000000
# 3 -0.004624 0.004127 0.026699 0.000000 0.000000 0.000000
# 4 0.000000 0.000000 0.000000 0.154619 0.000000 0.000000
# 5 0.000000 0.000000 0.000000 0.000000 0.023859 0.000000
# 6 0.000000 0.000000 0.000000 0.000000 0.000000 0.485392
#
#
# Mechanical properties :
#
#
# Convention : Reuss Voigt Hill
#
# Bulk Modulus (GPa) = 23.81645 33.15479 28.48562
# Shear Modulus (GPa) = 6.83040 25.21936 16.02488
#
# Velocity S-wave (km/s) = 1.86337 3.58049 2.85413
# Velocity P-wave (km/s) = 4.09100 5.82641 5.03405
#
# Compressibility (1/GPa) = 0.04198778
#
# Stress axis : x y z
#
# Youngs Moduli (GPa) = 99.16746 88.58071 37.45442
#
# Poissons Ratio (x) = 0.22546 0.17321
# Poissons Ratio (y) = 0.25241 -0.15459
# Poissons Ratio (z) = 0.45860 -0.36562
#
# Static dielectric constant tensor:
#      x y z
#    x 1.729980 0.000000 0.000000 
#    y 0.000000 1.769740 0.000000 
#    z 0.000000 0.000000 1.819020 
# 
# From -- ./inp_files/18775.got.cif
#   From: 2010.05.17/outbox.cif.g08.bks.cpg/sg56_10_cif.got.tgz:18775.got - 2010.06.03 13:42:01.
