data_PCOD9432236
_publ_section_title
;
Structure prediction by ZEFSAII (Michael W. Deem and Ramdas Pophale) SiO2 
 PCOD9432236
Probable space group: P C C N
;
_chemical_formula_sum "Si O2"
_cell_formula_units_Z 64
_cell_length_a 17.244292
_cell_length_b 13.515646
_cell_length_c 13.490930
_cell_angle_alpha 90.000000
_cell_angle_beta 90.000000
_cell_angle_gamma 90.000000
_cell_volume 3144.300649
_symmetry_space_group_name_H-M "P C C N"
_symmetry_group_IT_number 56
_symmetry_cell_setting 'orthorhombic'
loop_
_space_group_symop_operation_xyz
x,y,z
1/2-x,1/2-y,z
1/2+x,-y,1/2-z
-x,1/2+y,1/2-z
-x,-y,-z
1/2+x,1/2+y,-z
1/2-x,y,1/2+z
x,1/2-y,1/2+z
loop_
_atom_site_type_symbol
_atom_site_label
_atom_site_fract_x
_atom_site_fract_y
_atom_site_fract_z
Si Si1 0.323224 0.196310 0.253725
Si Si2 0.569728 0.586770 0.085623
Si Si3 0.240358 0.998340 0.680540
Si Si4 0.908495 0.291548 0.137407
Si Si5 0.063154 0.334287 0.636910
Si Si6 0.582528 0.042167 0.305268
Si Si7 0.703775 0.158657 0.963848
Si Si8 0.674530 0.403303 0.130081
O O1 0.250000 0.250000 0.303730
O O2 0.381123 0.151008 0.335411
O O3 0.367163 0.274296 0.185487
O O4 0.288921 0.109955 0.183754
O O5 0.479776 0.588867 0.119062
O O6 0.605054 0.475716 0.096105
O O7 0.577967 0.625010 0.973866
O O8 0.330169 0.977598 0.656514
O O9 0.188659 0.929730 0.610703
O O10 0.225685 0.961367 0.791340
O O11 0.911318 0.385815 0.210211
O O12 0.855371 0.200148 0.175185
O O13 0.992287 0.241880 0.130782
O O14 0.870847 0.314821 0.030030
O O15 0.049963 0.430324 0.707445
O O16 0.750000 0.250000 0.912933
O O17 0.768751 0.122556 0.041153
#
# Coordination Sequence:
#
# PCOD9432236 Si02
#       8
#     8   8   8   8   8   8   8   8
#     4  11  25  49  68 102 137 182 230 289 349 406
#     4  11  25  43  72  98 133 182 232 282 337 417
#     4  11  24  41  69  95 136 174 231 280 347 411
#     4  11  24  42  66  96 143 173 221 286 346 400
#     4  12  25  46  69 103 135 182 237 278 341 423
#     4  12  23  42  68  99 135 183 227 283 341 406
#     4  10  23  39  63 100 131 174 218 276 347 411
#     4  10  22  42  62  97 133 168 223 282 330 405
#
# _framework density 20.354286999999999
#
# number of rings (size 3 to 8) (size 9 to 14) (size 15 to 20)
#    0.000    1.000    5.000    1.125    5.250    0.500 
#    4.500    0.625    0.000    0.000    0.000    0.000 
#    0.000    0.000    0.000    0.000    0.000    0.000 
#
# Total GULP energy -357287.398409 kJ/mol
# GULP energy per Si atom -5582.615600 kJ/mol
# Density = 2.030796 g / cm^3
# Si number density = 20.354287 Si / 1000 Ang^3
#
#
#
# Elastic Constant Matrix: (Units=GPa)
#
#
# Indices 1 2 3 4 5 6 
#
# 1 67.1566 27.7017 24.2074 0.0000 0.0000 0.0000
# 2 27.7017 131.8210 45.8989 0.0000 0.0000 0.0000
# 3 24.2074 45.8989 51.5381 0.0000 0.0000 0.0000
# 4 0.0000 0.0000 0.0000 19.7570 0.0000 0.0000
# 5 0.0000 0.0000 0.0000 0.0000 15.4927 0.0000
# 6 0.0000 0.0000 0.0000 0.0000 0.0000 33.6552
#
#
#
# Elastic Compliance Matrix: (Units=1/GPa)
#
#
# Indices 1 2 3 4 5 6 
#
# 1 0.018060 -0.001220 -0.007396 0.000000 0.000000 0.000000
# 2 -0.001220 0.011078 -0.009293 0.000000 0.000000 0.000000
# 3 -0.007396 -0.009293 0.031153 0.000000 0.000000 0.000000
# 4 0.000000 0.000000 0.000000 0.050615 0.000000 0.000000
# 5 0.000000 0.000000 0.000000 0.000000 0.064547 0.000000
# 6 0.000000 0.000000 0.000000 0.000000 0.000000 0.029713
#
#
# Mechanical properties :
#
#
# Convention : Reuss Voigt Hill
#
# Bulk Modulus (GPa) = 40.86144 49.57021 45.21583
# Shear Modulus (GPa) = 20.06887 23.96149 22.01518
#
# Velocity S-wave (km/s) = 3.14343 3.43479 3.29234
# Velocity P-wave (km/s) = 5.77006 6.33537 6.05931
#
# Compressibility (1/GPa) = 0.02447295
#
# Stress axis : x y z
#
# Youngs Moduli (GPa) = 55.37149 90.26779 32.09929
#
# Poissons Ratio (x) = 0.11012 0.23741
# Poissons Ratio (y) = 0.06755 0.29830
# Poissons Ratio (z) = 0.40954 0.83886
#
# Static dielectric constant tensor:
#      x y z
#    x 1.751360 0.000000 0.000000 
#    y 0.000000 1.766110 0.000000 
#    z 0.000000 0.000000 1.696820 
# 
# From -- ./inp_files/12877.got.cif
#   From: 2010.05.17/outbox.cif.g08.bks.cpg/sg56_7_cif.got.tgz:12877.got - 2010.06.03 13:42:01.
