data_PCOD9432070
_publ_section_title
;
Structure prediction by ZEFSAII (Michael W. Deem and Ramdas Pophale) SiO2 
 PCOD9432070
Probable space group: P C C N
;
_chemical_formula_sum "Si O2"
_cell_formula_units_Z 56
_cell_length_a 14.271528
_cell_length_b 13.223035
_cell_length_c 14.792921
_cell_angle_alpha 90.000000
_cell_angle_beta 90.000000
_cell_angle_gamma 90.000000
_cell_volume 2791.615232
_symmetry_space_group_name_H-M "P C C N"
_symmetry_group_IT_number 56
_symmetry_cell_setting 'orthorhombic'
loop_
_space_group_symop_operation_xyz
x,y,z
1/2-x,1/2-y,z
1/2+x,-y,1/2-z
-x,1/2+y,1/2-z
-x,-y,-z
1/2+x,1/2+y,-z
1/2-x,y,1/2+z
x,1/2-y,1/2+z
loop_
_atom_site_type_symbol
_atom_site_label
_atom_site_fract_x
_atom_site_fract_y
_atom_site_fract_z
Si Si1 0.454196 0.203598 0.225272
Si Si2 0.830366 0.603226 0.253087
Si Si3 0.096347 0.892724 0.972105
Si Si4 0.018676 0.533119 0.654716
Si Si5 0.650424 0.209241 0.141237
Si Si6 0.784511 0.995349 0.572069
Si Si7 0.309162 0.156384 0.081621
O O1 0.395930 0.298460 0.263365
O O2 0.450355 0.101611 0.284827
O O3 0.564834 0.220989 0.210606
O O4 0.406398 0.188109 0.127447
O O5 0.897695 0.512276 0.285555
O O6 0.779002 0.572796 0.161445
O O7 0.757316 0.623665 0.334038
O O8 0.128105 0.782710 0.942457
O O9 0.184522 0.967499 0.964386
O O10 0.054537 0.898788 0.071578
O O11 0.026038 0.937001 0.896637
O O12 0.750000 0.250000 0.179031
O O13 0.661661 0.096179 0.103940
O O14 0.826637 0.929892 0.491217
O O15 0.250000 0.250000 0.040031
#
# Coordination Sequence:
#
# PCOD9432070 Si02
#       7
#     8   8   8   8   8   8   8
#     4  11  23  42  63  96 134 163 218 275 326 390
#     4  11  22  42  64 100 129 168 219 272 331 391
#     4  10  22  40  66  89 127 172 223 262 323 396
#     4  11  21  40  67  91 122 179 217 263 329 398
#     4  10  22  40  60  91 127 167 208 271 318 385
#     4  11  22  41  68  93 132 170 217 268 334 385
#     4  10  24  41  65  95 133 167 212 274 329 391
#
# _framework density 20.060071000000001
#
# number of rings (size 3 to 8) (size 9 to 14) (size 15 to 20)
#    0.000    1.429    4.286    0.857    0.000    4.571 
#    2.571    2.143    0.000    0.000    0.000    0.000 
#    0.000    0.000    0.000    0.000    0.000    0.000 
#
# Total GULP energy -312631.184696 kJ/mol
# GULP energy per Si atom -5582.699727 kJ/mol
# Density = 2.001441 g / cm^3
# Si number density = 20.060071 Si / 1000 Ang^3
#
#
#
# Elastic Constant Matrix: (Units=GPa)
#
#
# Indices 1 2 3 4 5 6 
#
# 1 62.9517 15.4791 5.7059 0.0000 0.0000 0.0000
# 2 15.4791 77.8784 22.7640 0.0000 0.0000 0.0000
# 3 5.7059 22.7640 47.6154 0.0000 0.0000 0.0000
# 4 0.0000 0.0000 0.0000 11.5594 0.0000 0.0000
# 5 0.0000 0.0000 0.0000 0.0000 14.3142 0.0000
# 6 0.0000 0.0000 0.0000 0.0000 0.0000 20.2145
#
#
#
# Elastic Compliance Matrix: (Units=1/GPa)
#
#
# Indices 1 2 3 4 5 6 
#
# 1 0.016711 -0.003181 -0.000482 0.000000 0.000000 0.000000
# 2 -0.003181 0.015532 -0.007044 0.000000 0.000000 0.000000
# 3 -0.000482 -0.007044 0.024427 0.000000 0.000000 0.000000
# 4 0.000000 0.000000 0.000000 0.086510 0.000000 0.000000
# 5 0.000000 0.000000 0.000000 0.000000 0.069861 0.000000
# 6 0.000000 0.000000 0.000000 0.000000 0.000000 0.049469
#
#
# Mechanical properties :
#
#
# Convention : Reuss Voigt Hill
#
# Bulk Modulus (GPa) = 28.36385 30.70483 29.53434
# Shear Modulus (GPa) = 16.91044 18.85072 17.88058
#
# Velocity S-wave (km/s) = 2.90658 3.06880 2.98879
# Velocity P-wave (km/s) = 5.04325 5.28170 5.16386
#
# Compressibility (1/GPa) = 0.03525615
#
# Stress axis : x y z
#
# Youngs Moduli (GPa) = 59.84097 64.38419 40.93815
#
# Poissons Ratio (x) = 0.20478 0.01973
# Poissons Ratio (y) = 0.19033 0.28838
# Poissons Ratio (z) = 0.02884 0.45354
#
# Static dielectric constant tensor:
#      x y z
#    x 1.736450 0.000000 0.000000 
#    y 0.000000 1.725410 0.000000 
#    z 0.000000 0.000000 1.666550 
# 
# From -- ./inp_files/7865.got.cif
#   From: 2010.05.17/outbox.cif.g08.bks.cpg/sg56_4_cif.got.tgz:7865.got - 2010.06.03 13:42:01.
