data_PCOD9432609
_publ_section_title
;
Structure prediction by ZEFSAII (Michael W. Deem and Ramdas Pophale) SiO2 
 PCOD9432609
Probable space group: P C C N
;
_chemical_formula_sum "Si O2"
_cell_formula_units_Z 60
_cell_length_a 8.873948
_cell_length_b 11.329710
_cell_length_c 27.373119
_cell_angle_alpha 90.000000
_cell_angle_beta 90.000000
_cell_angle_gamma 90.000000
_cell_volume 2752.073057
_symmetry_space_group_name_H-M "P C C N"
_symmetry_group_IT_number 56
_symmetry_cell_setting 'orthorhombic'
loop_
_space_group_symop_operation_xyz
x,y,z
1/2-x,1/2-y,z
1/2+x,-y,1/2-z
-x,1/2+y,1/2-z
-x,-y,-z
1/2+x,1/2+y,-z
1/2-x,y,1/2+z
x,1/2-y,1/2+z
loop_
_atom_site_type_symbol
_atom_site_label
_atom_site_fract_x
_atom_site_fract_y
_atom_site_fract_z
Si Si1 0.329113 0.127339 0.317071
Si Si2 0.750000 0.250000 0.075597
Si Si3 0.879463 0.053640 0.867333
Si Si4 0.185771 0.378306 0.200289
Si Si5 0.598185 0.058041 0.142610
Si Si6 0.609528 0.423362 0.432361
Si Si7 0.089812 0.971789 0.951574
Si Si8 0.164773 0.132235 0.490009
O O1 0.250000 0.250000 0.331484
O O2 0.500149 0.129651 0.336878
O O3 0.313122 0.113708 0.258738
O O4 0.240564 0.014579 0.338247
O O5 0.648129 0.167689 0.109654
O O6 0.843055 0.158011 0.044232
O O7 0.760577 0.115387 0.904317
O O8 0.787048 0.973457 0.828969
O O9 0.983730 0.978828 0.904566
O O10 0.250000 0.250000 0.186368
O O11 0.013400 0.395391 0.184150
O O12 0.497593 0.970992 0.110254
O O13 0.499150 0.344669 0.466025
O O14 0.647332 0.536944 0.466663
O O15 0.226022 0.066501 0.950934
O O16 0.000000 0.000000 0.000000
O O17 0.250000 0.250000 0.505963
#
# Coordination Sequence:
#
# PCOD9432609 Si02
#       8
#     8   4   8   8   8   8   8   8
#     4  11  24  46  71 102 146 186 233 302 375 427
#     4  12  24  44  70  94 140 186 242 292 342 432
#     4  11  22  44  70 101 143 181 245 289 351 434
#     4  10  23  42  72 106 141 184 236 302 361 439
#     4  11  23  42  70  99 134 183 238 288 361 425
#     4  10  23  42  63 101 131 178 241 284 348 418
#     4  12  25  42  65 103 135 188 236 290 352 417
#     4  11  24  43  66  93 141 185 230 293 353 416
#
# _framework density 21.801746999999999
#
# number of rings (size 3 to 8) (size 9 to 14) (size 15 to 20)
#    0.000    1.067    4.000    1.600    1.867    4.267 
#    0.000    5.333    0.000    0.000    0.000    0.000 
#    0.000    0.000    0.000    0.000    0.000    0.000 
#
# Total GULP energy -335461.972362 kJ/mol
# GULP energy per Si atom -5591.032873 kJ/mol
# Density = 2.175213 g / cm^3
# Si number density = 21.801747 Si / 1000 Ang^3
#
#
#
# Elastic Constant Matrix: (Units=GPa)
#
#
# Indices 1 2 3 4 5 6 
#
# 1 148.8902 46.8843 47.4421 0.0000 0.0000 0.0000
# 2 46.8843 83.2423 26.4641 0.0000 0.0000 0.0000
# 3 47.4421 26.4641 79.3237 0.0000 0.0000 0.0000
# 4 0.0000 0.0000 0.0000 25.6357 0.0000 0.0000
# 5 0.0000 0.0000 0.0000 0.0000 69.6269 0.0000
# 6 0.0000 0.0000 0.0000 0.0000 0.0000 28.9615
#
#
#
# Elastic Compliance Matrix: (Units=1/GPa)
#
#
# Indices 1 2 3 4 5 6 
#
# 1 0.009298 -0.003880 -0.004266 0.000000 0.000000 0.000000
# 2 -0.003880 0.015058 -0.002703 0.000000 0.000000 0.000000
# 3 -0.004266 -0.002703 0.016060 0.000000 0.000000 0.000000
# 4 0.000000 0.000000 0.000000 0.039008 0.000000 0.000000
# 5 0.000000 0.000000 0.000000 0.000000 0.014362 0.000000
# 6 0.000000 0.000000 0.000000 0.000000 0.000000 0.034529
#
#
# Mechanical properties :
#
#
# Convention : Reuss Voigt Hill
#
# Bulk Modulus (GPa) = 53.42859 61.44855 57.43857
# Shear Modulus (GPa) = 31.99958 37.55586 34.77772
#
# Velocity S-wave (km/s) = 3.83528 4.15493 3.99830
# Velocity P-wave (km/s) = 6.64622 7.15991 6.90784
#
# Compressibility (1/GPa) = 0.01871657
#
# Stress axis : x y z
#
# Youngs Moduli (GPa) = 107.55439 66.41011 62.26714
#
# Poissons Ratio (x) = 0.25770 0.26564
# Poissons Ratio (y) = 0.41735 0.16830
# Poissons Ratio (z) = 0.45884 0.17950
#
# Static dielectric constant tensor:
#      x y z
#    x 1.848720 0.000000 0.000000 
#    y 0.000000 1.776610 0.000000 
#    z 0.000000 0.000000 1.786500 
# 
# From -- ./inp_files/22139.got.cif
#   From: 2010.05.17/outbox.cif.g08.bks.cpg/sg56_12_cif.got.tgz:22139.got - 2010.06.03 13:42:01.
