data_PCOD9432363
_publ_section_title
;
Structure prediction by ZEFSAII (Michael W. Deem and Ramdas Pophale) SiO2 
 PCOD9432363
Probable space group: P C C N
;
_chemical_formula_sum "Si O2"
_cell_formula_units_Z 40
_cell_length_a 24.353811
_cell_length_b 4.897076
_cell_length_c 13.738728
_cell_angle_alpha 90.000000
_cell_angle_beta 90.000000
_cell_angle_gamma 90.000000
_cell_volume 1638.514545
_symmetry_space_group_name_H-M "P C C N"
_symmetry_group_IT_number 56
_symmetry_cell_setting 'orthorhombic'
loop_
_space_group_symop_operation_xyz
x,y,z
1/2-x,1/2-y,z
1/2+x,-y,1/2-z
-x,1/2+y,1/2-z
-x,-y,-z
1/2+x,1/2+y,-z
1/2-x,y,1/2+z
x,1/2-y,1/2+z
loop_
_atom_site_type_symbol
_atom_site_label
_atom_site_fract_x
_atom_site_fract_y
_atom_site_fract_z
Si Si1 0.875620 0.988038 0.622733
Si Si2 0.362111 0.813937 0.078130
Si Si3 0.214165 0.505920 0.727848
Si Si4 0.978975 0.216463 0.191133
Si Si5 0.070074 0.303298 0.548001
O O1 0.844889 0.140065 0.533764
O O2 0.830350 0.886905 0.696953
O O3 0.916747 0.188035 0.679517
O O4 0.914052 0.775245 0.562569
O O5 0.316947 0.670568 0.142733
O O6 0.413253 0.608870 0.071643
O O7 0.387970 0.104534 0.107719
O O8 0.250000 0.750000 0.775375
O O9 0.250000 0.250000 0.692421
O O10 0.010567 0.423198 0.262979
O O11 0.009180 0.241421 0.086582
#
# Coordination Sequence:
#
# PCOD9432363 Si02
#       5
#     8   8   8   8   8
#     4  10  27  44  73  99 147 178 238 284 354 418
#     4  10  24  45  70  97 139 178 234 283 349 417
#     4  12  27  47  70 101 136 182 241 300 357 407
#     4  12  25  40  71 105 145 184 226 276 350 426
#     4  10  22  43  68 102 138 179 223 275 351 421
#
# _framework density 24.412355999999999
#
# number of rings (size 3 to 8) (size 9 to 14) (size 15 to 20)
#    1.200    0.000    0.000    5.400    5.600    1.600 
#    0.000    0.000    0.000    0.000    0.000    0.000 
#    0.000    0.000    0.000    0.000    0.000    0.000 
#
# Total GULP energy -223700.240854 kJ/mol
# GULP energy per Si atom -5592.506021 kJ/mol
# Density = 2.435679 g / cm^3
# Si number density = 24.412356 Si / 1000 Ang^3
#
#
#
# Elastic Constant Matrix: (Units=GPa)
#
#
# Indices 1 2 3 4 5 6 
#
# 1 76.4362 -3.6414 36.5764 0.0000 0.0000 0.0000
# 2 -3.6414 72.5034 5.9219 0.0000 0.0000 0.0000
# 3 36.5764 5.9219 93.5267 0.0000 0.0000 0.0000
# 4 0.0000 0.0000 0.0000 26.3079 0.0000 0.0000
# 5 0.0000 0.0000 0.0000 0.0000 24.1091 0.0000
# 6 0.0000 0.0000 0.0000 0.0000 0.0000 34.2160
#
#
#
# Elastic Compliance Matrix: (Units=1/GPa)
#
#
# Indices 1 2 3 4 5 6 
#
# 1 0.016223 0.001340 -0.006429 0.000000 0.000000 0.000000
# 2 0.001340 0.013975 -0.001409 0.000000 0.000000 0.000000
# 3 -0.006429 -0.001409 0.013296 0.000000 0.000000 0.000000
# 4 0.000000 0.000000 0.000000 0.038011 0.000000 0.000000
# 5 0.000000 0.000000 0.000000 0.000000 0.041478 0.000000
# 6 0.000000 0.000000 0.000000 0.000000 0.000000 0.029226
#
#
# Mechanical properties :
#
#
# Convention : Reuss Voigt Hill
#
# Bulk Modulus (GPa) = 32.78999 35.57555 34.18277
# Shear Modulus (GPa) = 28.51086 30.50058 29.50572
#
# Velocity S-wave (km/s) = 3.42114 3.53851 3.48032
# Velocity P-wave (km/s) = 5.39134 5.59456 5.49389
#
# Compressibility (1/GPa) = 0.03049711
#
# Stress axis : x y z
#
# Youngs Moduli (GPa) = 61.63997 71.55727 75.21205
#
# Poissons Ratio (x) = -0.09588 0.48357
# Poissons Ratio (y) = -0.08259 0.10596
# Poissons Ratio (z) = 0.39631 0.10081
#
# Static dielectric constant tensor:
#      x y z
#    x 1.938410 0.000000 0.000000 
#    y 0.000000 1.930440 0.000000 
#    z 0.000000 0.000000 1.986050 
# 
# From -- ./inp_files/13171.got.cif
#   From: 2010.05.17/outbox.cif.g08.bks.cpg/sg56_7_cif.got.tgz:13171.got - 2010.06.03 13:42:01.
