data_PCOD9432777
_publ_section_title
;
Structure prediction by ZEFSAII (Michael W. Deem and Ramdas Pophale) SiO2 
 PCOD9432777
Probable space group: P C C N
;
_chemical_formula_sum "Si O2"
_cell_formula_units_Z 32
_cell_length_a 5.295632
_cell_length_b 16.933298
_cell_length_c 12.439597
_cell_angle_alpha 90.000000
_cell_angle_beta 90.000000
_cell_angle_gamma 90.000000
_cell_volume 1115.489946
_symmetry_space_group_name_H-M "P C C N"
_symmetry_group_IT_number 56
_symmetry_cell_setting 'orthorhombic'
loop_
_space_group_symop_operation_xyz
x,y,z
1/2-x,1/2-y,z
1/2+x,-y,1/2-z
-x,1/2+y,1/2-z
-x,-y,-z
1/2+x,1/2+y,-z
1/2-x,y,1/2+z
x,1/2-y,1/2+z
loop_
_atom_site_type_symbol
_atom_site_label
_atom_site_fract_x
_atom_site_fract_y
_atom_site_fract_z
Si Si1 0.556297 0.598719 0.806192
Si Si2 0.502021 0.278810 0.900662
Si Si3 0.555068 0.347094 0.593416
Si Si4 0.240959 0.942335 0.591357
O O1 0.825559 0.640590 0.825149
O O2 0.458334 0.572009 0.689155
O O3 0.325414 0.650927 0.849868
O O4 0.049776 0.629135 0.584861
O O5 0.750000 0.250000 0.840458
O O6 0.250000 0.250000 0.846906
O O7 0.505630 0.223684 0.009141
O O8 0.101292 0.480501 0.622617
O O9 0.582711 0.424140 0.516314
#
# Coordination Sequence:
#
# PCOD9432777 Si02
#       4
#     8   8   8   8
#     4  12  26  45  79 119 153 202 267 323 398 473
#     4  10  23  46  74 103 151 208 252 311 387 455
#     4  11  25  48  75 109 157 209 258 318 388 473
#     4  11  26  49  78 119 162 203 258 338 396 461
#
# _framework density 28.686947
#
# number of rings (size 3 to 8) (size 9 to 14) (size 15 to 20)
#    0.000    1.000    0.000    6.000    0.000   16.000 
#    0.000   20.000    0.000    9.000    0.000    0.000 
#    0.000    0.000    0.000    0.000    0.000    0.000 
#
# Total GULP energy -179308.306801 kJ/mol
# GULP energy per Si atom -5603.384588 kJ/mol
# Density = 2.862165 g / cm^3
# Si number density = 28.686947 Si / 1000 Ang^3
#
#
#
# Elastic Constant Matrix: (Units=GPa)
#
#
# Indices 1 2 3 4 5 6 
#
# 1 277.0711 53.8190 54.7315 0.0000 0.0000 0.0000
# 2 53.8190 133.4029 19.6858 0.0000 0.0000 0.0000
# 3 54.7315 19.6858 146.2664 0.0000 0.0000 0.0000
# 4 0.0000 0.0000 0.0000 16.7247 0.0000 0.0000
# 5 0.0000 0.0000 0.0000 0.0000 15.2505 0.0000
# 6 0.0000 0.0000 0.0000 0.0000 0.0000 42.8945
#
#
#
# Elastic Compliance Matrix: (Units=1/GPa)
#
#
# Indices 1 2 3 4 5 6 
#
# 1 0.004165 -0.001480 -0.001359 0.000000 0.000000 0.000000
# 2 -0.001480 0.008174 -0.000546 0.000000 0.000000 0.000000
# 3 -0.001359 -0.000546 0.007419 0.000000 0.000000 0.000000
# 4 0.000000 0.000000 0.000000 0.059792 0.000000 0.000000
# 5 0.000000 0.000000 0.000000 0.000000 0.065571 0.000000
# 6 0.000000 0.000000 0.000000 0.000000 0.000000 0.023313
#
#
# Mechanical properties :
#
#
# Convention : Reuss Voigt Hill
#
# Bulk Modulus (GPa) = 77.00106 90.35699 83.67903
# Shear Modulus (GPa) = 27.84987 43.54089 35.69538
#
# Velocity S-wave (km/s) = 3.11918 3.90011 3.53130
# Velocity P-wave (km/s) = 6.31447 7.20050 6.77199
#
# Compressibility (1/GPa) = 0.01298683
#
# Stress axis : x y z
#
# Youngs Moduli (GPa) = 240.08782 122.34365 134.78811
#
# Poissons Ratio (x) = 0.18104 0.18323
# Poissons Ratio (y) = 0.35527 0.07365
# Poissons Ratio (z) = 0.32637 0.06685
#
# Static dielectric constant tensor:
#      x y z
#    x 2.287210 0.000000 0.000000 
#    y 0.000000 2.270230 0.000000 
#    z 0.000000 0.000000 2.251250 
# 
# From -- ./inp_files/9433.got.cif
#   From: 2010.05.17/outbox.cif.g08.bks.cpg/sg56_5_cif.got.tgz:9433.got - 2010.06.03 13:42:01.
