data_PCOD9432990
_publ_section_title
;
Structure prediction by ZEFSAII (Michael W. Deem and Ramdas Pophale) SiO2 
 PCOD9432990
Probable space group: P C C N
;
_chemical_formula_sum "Si O2"
_cell_formula_units_Z 44
_cell_length_a 5.077599
_cell_length_b 23.847917
_cell_length_c 13.797488
_cell_angle_alpha 90.000000
_cell_angle_beta 90.000000
_cell_angle_gamma 90.000000
_cell_volume 1670.740023
_symmetry_space_group_name_H-M "P C C N"
_symmetry_group_IT_number 56
_symmetry_cell_setting 'orthorhombic'
loop_
_space_group_symop_operation_xyz
x,y,z
1/2-x,1/2-y,z
1/2+x,-y,1/2-z
-x,1/2+y,1/2-z
-x,-y,-z
1/2+x,1/2+y,-z
1/2-x,y,1/2+z
x,1/2-y,1/2+z
loop_
_atom_site_type_symbol
_atom_site_label
_atom_site_fract_x
_atom_site_fract_y
_atom_site_fract_z
Si Si1 0.189139 0.085768 0.595404
Si Si2 0.555206 0.674732 0.258804
Si Si3 0.327243 0.982900 0.345251
Si Si4 0.970072 0.661343 0.542283
Si Si5 0.685890 0.419408 0.830594
Si Si6 0.250000 0.750000 0.401806
O O1 0.428637 0.042703 0.596395
O O2 0.231495 0.127908 0.506394
O O3 0.229134 0.129829 0.683965
O O4 0.928953 0.047507 0.609332
O O5 0.620990 0.686847 0.146641
O O6 0.304061 0.633938 0.241423
O O7 0.465956 0.723427 0.329314
O O8 0.346892 0.964045 0.231569
O O9 0.401079 0.048645 0.342018
O O10 0.190751 0.613978 0.569419
O O11 0.102607 0.705671 0.470893
#
# Coordination Sequence:
#
# PCOD9432990 Si02
#       6
#     8   8   8   8   8   4
#     4  11  24  48  73 115 157 199 260 322 388 478
#     4   9  23  45  70 110 153 203 251 338 378 469
#     4  11  22  44  77 109 165 205 245 326 399 472
#     4  10  24  45  74 119 146 211 265 322 388 479
#     4   9  21  42  71 114 149 202 255 304 398 468
#     4  12  22  50  82 106 164 204 276 328 400 448
#
# _framework density 26.335635
#
# number of rings (size 3 to 8) (size 9 to 14) (size 15 to 20)
#    1.091    0.727    0.000    4.909    0.000    2.182 
#    6.545    1.818    0.000    1.091    0.000    0.000 
#    0.000    0.000    0.000    0.000    0.000    0.000 
#
# Total GULP energy -244959.813501 kJ/mol
# GULP energy per Si atom -5567.268489 kJ/mol
# Density = 2.627569 g / cm^3
# Si number density = 26.335635 Si / 1000 Ang^3
#
#
#
# Elastic Constant Matrix: (Units=GPa)
#
#
# Indices 1 2 3 4 5 6 
#
# 1 142.0680 48.0273 40.3401 0.0000 0.0000 0.0000
# 2 48.0273 141.9325 86.5437 0.0000 0.0000 0.0000
# 3 40.3401 86.5437 174.4172 0.0000 0.0000 0.0000
# 4 0.0000 0.0000 0.0000 80.9487 0.0000 0.0000
# 5 0.0000 0.0000 0.0000 0.0000 17.5645 0.0000
# 6 0.0000 0.0000 0.0000 0.0000 0.0000 22.7974
#
#
#
# Elastic Compliance Matrix: (Units=1/GPa)
#
#
# Indices 1 2 3 4 5 6 
#
# 1 0.008012 -0.002267 -0.000728 0.000000 0.000000 0.000000
# 2 -0.002267 0.010744 -0.004806 0.000000 0.000000 0.000000
# 3 -0.000728 -0.004806 0.008287 0.000000 0.000000 0.000000
# 4 0.000000 0.000000 0.000000 0.012354 0.000000 0.000000
# 5 0.000000 0.000000 0.000000 0.000000 0.056933 0.000000
# 6 0.000000 0.000000 0.000000 0.000000 0.000000 0.043865
#
#
# Mechanical properties :
#
#
# Convention : Reuss Voigt Hill
#
# Bulk Modulus (GPa) = 87.42177 89.80444 88.61310
# Shear Modulus (GPa) = 31.32637 43.16255 37.24446
#
# Velocity S-wave (km/s) = 3.45266 4.05278 3.76470
# Velocity P-wave (km/s) = 7.01155 7.48826 7.25382
#
# Compressibility (1/GPa) = 0.01143880
#
# Stress axis : x y z
#
# Youngs Moduli (GPa) = 124.81173 93.07954 120.67550
#
# Poissons Ratio (x) = 0.21103 0.08787
# Poissons Ratio (y) = 0.28297 0.58002
# Poissons Ratio (z) = 0.09088 0.44738
#
# Static dielectric constant tensor:
#      x y z
#    x 2.154890 0.000000 0.000000 
#    y 0.000000 2.075290 0.000000 
#    z 0.000000 0.000000 2.186070 
# 
# From -- ./inp_files/9654.got.cif
#   From: 2010.05.17/outbox.cif.g08.bks.cpg/sg56_5_cif.got.tgz:9654.got - 2010.06.03 13:42:01.
