data_PCOD9432774
_publ_section_title
;
Structure prediction by ZEFSAII (Michael W. Deem and Ramdas Pophale) SiO2 
 PCOD9432774
Probable space group: P C C N
;
_chemical_formula_sum "Si O2"
_cell_formula_units_Z 40
_cell_length_a 5.169627
_cell_length_b 23.324405
_cell_length_c 13.835228
_cell_angle_alpha 90.000000
_cell_angle_beta 90.000000
_cell_angle_gamma 90.000000
_cell_volume 1668.230678
_symmetry_space_group_name_H-M "P C C N"
_symmetry_group_IT_number 56
_symmetry_cell_setting 'orthorhombic'
loop_
_space_group_symop_operation_xyz
x,y,z
1/2-x,1/2-y,z
1/2+x,-y,1/2-z
-x,1/2+y,1/2-z
-x,-y,-z
1/2+x,1/2+y,-z
1/2-x,y,1/2+z
x,1/2-y,1/2+z
loop_
_atom_site_type_symbol
_atom_site_label
_atom_site_fract_x
_atom_site_fract_y
_atom_site_fract_z
Si Si1 0.318051 0.688947 0.424650
Si Si2 0.685012 0.415379 0.437167
Si Si3 0.538023 0.575437 0.237147
Si Si4 0.187008 0.187450 0.209483
Si Si5 0.225793 0.987805 0.398832
O O1 0.250000 0.750000 0.468686
O O2 0.335214 0.643972 0.509732
O O3 0.594652 0.689637 0.373549
O O4 0.093979 0.681456 0.341679
O O5 0.436613 0.456573 0.431704
O O6 0.855126 0.452817 0.514007
O O7 0.805440 0.406679 0.332770
O O8 0.740730 0.628065 0.235717
O O9 0.457570 0.559055 0.345535
O O10 0.610135 0.514533 0.187878
O O11 0.250000 0.250000 0.259591
#
# Coordination Sequence:
#
# PCOD9432774 Si02
#       5
#     8   8   8   8   8
#     4  10  23  46  72  99 139 184 233 288 348 408
#     4  11  25  43  67 101 138 187 232 288 353 420
#     4  12  24  41  69 101 142 185 232 292 346 432
#     4  10  24  46  72 101 138 186 229 291 350 407
#     4  11  25  42  66 102 142 180 235 287 355 414
#
# _framework density 23.977499999999999
#
# number of rings (size 3 to 8) (size 9 to 14) (size 15 to 20)
#    0.000    1.200    4.000    0.600    8.400    0.000 
#    3.600    0.000    0.000    0.000    0.000    0.000 
#    0.000    0.000    0.000    0.000    0.000    0.000 
#
# Total GULP energy -223276.555005 kJ/mol
# GULP energy per Si atom -5581.913875 kJ/mol
# Density = 2.392293 g / cm^3
# Si number density = 23.977500 Si / 1000 Ang^3
#
#
#
# Elastic Constant Matrix: (Units=GPa)
#
#
# Indices 1 2 3 4 5 6 
#
# 1 65.5514 6.3769 14.7716 0.0000 0.0000 0.0000
# 2 6.3769 127.9631 39.4161 0.0000 0.0000 0.0000
# 3 14.7716 39.4161 76.3720 0.0000 0.0000 0.0000
# 4 0.0000 0.0000 0.0000 49.4998 0.0000 0.0000
# 5 0.0000 0.0000 0.0000 0.0000 12.0063 0.0000
# 6 0.0000 0.0000 0.0000 0.0000 0.0000 32.1476
#
#
#
# Elastic Compliance Matrix: (Units=1/GPa)
#
#
# Indices 1 2 3 4 5 6 
#
# 1 0.015954 0.000185 -0.003181 0.000000 0.000000 0.000000
# 2 0.000185 0.009294 -0.004832 0.000000 0.000000 0.000000
# 3 -0.003181 -0.004832 0.016203 0.000000 0.000000 0.000000
# 4 0.000000 0.000000 0.000000 0.020202 0.000000 0.000000
# 5 0.000000 0.000000 0.000000 0.000000 0.083290 0.000000
# 6 0.000000 0.000000 0.000000 0.000000 0.000000 0.031106
#
#
# Mechanical properties :
#
#
# Convention : Reuss Voigt Hill
#
# Bulk Modulus (GPa) = 38.76920 43.44621 41.10771
# Shear Modulus (GPa) = 24.96192 32.68554 28.82373
#
# Velocity S-wave (km/s) = 3.23004 3.69613 3.47092
# Velocity P-wave (km/s) = 5.48771 6.03109 5.76581
#
# Compressibility (1/GPa) = 0.02579367
#
# Stress axis : x y z
#
# Youngs Moduli (GPa) = 62.67989 107.59534 61.71630
#
# Poissons Ratio (x) = -0.01989 0.19633
# Poissons Ratio (y) = -0.01159 0.29824
# Poissons Ratio (z) = 0.19940 0.51995
#
# Static dielectric constant tensor:
#      x y z
#    x 2.029490 0.000000 0.000000 
#    y 0.000000 1.996420 0.000000 
#    z 0.000000 0.000000 1.977370 
# 
# From -- ./inp_files/9549.got.cif
#   From: 2010.05.17/outbox.cif.g08.bks.cpg/sg56_5_cif.got.tgz:9549.got - 2010.06.03 13:42:01.
