data_PCOD9432414
_publ_section_title
;
Structure prediction by ZEFSAII (Michael W. Deem and Ramdas Pophale) SiO2 
 PCOD9432414
Probable space group: P C C N
;
_chemical_formula_sum "Si O2"
_cell_formula_units_Z 40
_cell_length_a 7.179664
_cell_length_b 21.541441
_cell_length_c 9.819941
_cell_angle_alpha 90.000000
_cell_angle_beta 90.000000
_cell_angle_gamma 90.000000
_cell_volume 1518.755104
_symmetry_space_group_name_H-M "P C C N"
_symmetry_group_IT_number 56
_symmetry_cell_setting 'orthorhombic'
loop_
_space_group_symop_operation_xyz
x,y,z
1/2-x,1/2-y,z
1/2+x,-y,1/2-z
-x,1/2+y,1/2-z
-x,-y,-z
1/2+x,1/2+y,-z
1/2-x,y,1/2+z
x,1/2-y,1/2+z
loop_
_atom_site_type_symbol
_atom_site_label
_atom_site_fract_x
_atom_site_fract_y
_atom_site_fract_z
Si Si1 0.650307 0.126093 0.865720
Si Si2 0.184955 0.066262 0.213219
Si Si3 0.461801 0.177189 0.286507
Si Si4 0.781903 0.489218 0.032604
Si Si5 0.472992 0.740546 0.474109
O O1 0.510422 0.092350 0.764037
O O2 0.821491 0.156932 0.787414
O O3 0.522390 0.175620 0.944874
O O4 0.743959 0.079650 0.975717
O O5 0.335967 0.120020 0.239545
O O6 0.241006 0.008859 0.311879
O O7 0.177263 0.039137 0.062107
O O8 0.433082 0.205630 0.436635
O O9 0.449314 0.231700 0.175706
O O10 0.000000 0.500000 0.000000
O O11 0.250000 0.750000 0.466524
#
# Coordination Sequence:
#
# PCOD9432414 Si02
#       5
#     8   8   8   8   8
#     4  10  24  42  69 100 141 178 237 292 348 429
#     4  11  25  45  70 102 141 187 229 295 363 419
#     4  11  24  44  70  99 139 183 236 288 353 424
#     4  10  24  45  67 106 145 178 240 294 351 436
#     4  10  22  44  68  99 139 184 234 296 352 412
#
# _framework density 26.337358999999999
#
# number of rings (size 3 to 8) (size 9 to 14) (size 15 to 20)
#    0.000    1.600    0.000    4.200    8.400    6.400 
#    0.000    6.000    0.000    0.000    0.000    0.000 
#    0.000    0.000    0.000    0.000    0.000    0.000 
#
# Total GULP energy -224458.993017 kJ/mol
# GULP energy per Si atom -5611.474825 kJ/mol
# Density = 2.627741 g / cm^3
# Si number density = 26.337359 Si / 1000 Ang^3
#
#
#
# Elastic Constant Matrix: (Units=GPa)
#
#
# Indices 1 2 3 4 5 6 
#
# 1 94.1340 22.0184 33.2462 0.0000 0.0000 0.0000
# 2 22.0184 75.6233 11.1384 0.0000 0.0000 0.0000
# 3 33.2462 11.1384 81.5730 0.0000 0.0000 0.0000
# 4 0.0000 0.0000 0.0000 53.2348 0.0000 0.0000
# 5 0.0000 0.0000 0.0000 0.0000 27.5873 0.0000
# 6 0.0000 0.0000 0.0000 0.0000 0.0000 50.1293
#
#
#
# Elastic Compliance Matrix: (Units=1/GPa)
#
#
# Indices 1 2 3 4 5 6 
#
# 1 0.013079 -0.003085 -0.004909 0.000000 0.000000 0.000000
# 2 -0.003085 0.014222 -0.000685 0.000000 0.000000 0.000000
# 3 -0.004909 -0.000685 0.014353 0.000000 0.000000 0.000000
# 4 0.000000 0.000000 0.000000 0.018785 0.000000 0.000000
# 5 0.000000 0.000000 0.000000 0.000000 0.036249 0.000000
# 6 0.000000 0.000000 0.000000 0.000000 0.000000 0.019948
#
#
# Mechanical properties :
#
#
# Convention : Reuss Voigt Hill
#
# Bulk Modulus (GPa) = 41.15765 42.68180 41.91972
# Shear Modulus (GPa) = 35.18841 38.51876 36.85359
#
# Velocity S-wave (km/s) = 3.65919 3.82843 3.74477
# Velocity P-wave (km/s) = 5.78912 5.98193 5.88631
#
# Compressibility (1/GPa) = 0.02429682
#
# Stress axis : x y z
#
# Youngs Moduli (GPa) = 76.46130 70.31121 69.67071
#
# Poissons Ratio (x) = 0.21690 0.34202
# Poissons Ratio (y) = 0.23587 0.04771
# Poissons Ratio (z) = 0.37536 0.04814
#
# Static dielectric constant tensor:
#      x y z
#    x 2.044540 0.000000 0.000000 
#    y 0.000000 2.091830 0.000000 
#    z 0.000000 0.000000 2.050800 
# 
# From -- ./inp_files/2069.got.cif
#   From: 2010.05.17/outbox.cif.g08.bks.cpg/sg56_2_cif.got.tgz:2069.got - 2010.06.03 13:42:01.
