data_PCOD9432634
_publ_section_title
;
Structure prediction by ZEFSAII (Michael W. Deem and Ramdas Pophale) SiO2 
 PCOD9432634
Probable space group: P C C N
;
_chemical_formula_sum "Si O2"
_cell_formula_units_Z 56
_cell_length_a 15.780601
_cell_length_b 8.264834
_cell_length_c 17.883293
_cell_angle_alpha 90.000000
_cell_angle_beta 90.000000
_cell_angle_gamma 90.000000
_cell_volume 2332.411459
_symmetry_space_group_name_H-M "P C C N"
_symmetry_group_IT_number 56
_symmetry_cell_setting 'orthorhombic'
loop_
_space_group_symop_operation_xyz
x,y,z
1/2-x,1/2-y,z
1/2+x,-y,1/2-z
-x,1/2+y,1/2-z
-x,-y,-z
1/2+x,1/2+y,-z
1/2-x,y,1/2+z
x,1/2-y,1/2+z
loop_
_atom_site_type_symbol
_atom_site_label
_atom_site_fract_x
_atom_site_fract_y
_atom_site_fract_z
Si Si1 0.344564 0.197315 0.163693
Si Si2 0.057859 0.966694 0.930276
Si Si3 0.319253 0.628016 0.756598
Si Si4 0.029727 0.510374 0.105376
Si Si5 0.005227 0.388449 0.728111
Si Si6 0.622820 0.379657 0.521131
Si Si7 0.228999 0.433316 0.404135
O O1 0.250000 0.250000 0.142088
O O2 0.414482 0.155088 0.100723
O O3 0.402432 0.308321 0.217932
O O4 0.331060 0.025537 0.203583
O O5 0.135560 0.087679 0.936381
O O6 0.012317 0.985154 0.849410
O O7 0.102673 0.790736 0.939786
O O8 0.000000 0.000000 0.000000
O O9 0.250000 0.750000 0.726460
O O10 0.412994 0.705247 0.768473
O O11 0.281581 0.549334 0.832144
O O12 0.999235 0.532164 0.190333
O O13 0.944807 0.500024 0.058634
O O14 0.093526 0.635777 0.065338
O O15 0.711345 0.466510 0.538775
O O16 0.250000 0.250000 0.381682
#
# Coordination Sequence:
#
# PCOD9432634 Si02
#       7
#     8   8   8   8   8   8   8
#     4  11  24  42  71 102 143 188 244 299 362 436
#     4  11  25  47  75 107 148 195 244 306 378 444
#     4  10  23  42  69 107 143 189 240 303 371 440
#     4  10  25  42  71 102 142 188 235 303 368 431
#     4  10  23  45  68 105 147 190 244 305 360 442
#     4  11  24  46  72 100 147 192 238 306 368 436
#     4  11  25  42  74 105 139 192 253 304 372 451
#
# _framework density 24.009485999999999
#
# number of rings (size 3 to 8) (size 9 to 14) (size 15 to 20)
#    0.000    1.429    1.429    2.571    8.000    5.143 
#    0.000    7.143    0.000    0.000    0.000    0.000 
#    0.000    0.000    0.000    0.000    0.000    0.000 
#
# Total GULP energy -312202.526778 kJ/mol
# GULP energy per Si atom -5575.045121 kJ/mol
# Density = 2.395484 g / cm^3
# Si number density = 24.009486 Si / 1000 Ang^3
#
#
#
# Elastic Constant Matrix: (Units=GPa)
#
#
# Indices 1 2 3 4 5 6 
#
# 1 159.1946 33.6885 38.4815 0.0000 0.0000 0.0000
# 2 33.6885 61.4827 17.5338 0.0000 0.0000 0.0000
# 3 38.4815 17.5338 129.0451 0.0000 0.0000 0.0000
# 4 0.0000 0.0000 0.0000 24.5975 0.0000 0.0000
# 5 0.0000 0.0000 0.0000 0.0000 27.7665 0.0000
# 6 0.0000 0.0000 0.0000 0.0000 0.0000 36.9957
#
#
#
# Elastic Compliance Matrix: (Units=1/GPa)
#
#
# Indices 1 2 3 4 5 6 
#
# 1 0.007462 -0.003593 -0.001737 0.000000 0.000000 0.000000
# 2 -0.003593 0.018651 -0.001463 0.000000 0.000000 0.000000
# 3 -0.001737 -0.001463 0.008466 0.000000 0.000000 0.000000
# 4 0.000000 0.000000 0.000000 0.040655 0.000000 0.000000
# 5 0.000000 0.000000 0.000000 0.000000 0.036015 0.000000
# 6 0.000000 0.000000 0.000000 0.000000 0.000000 0.027030
#
#
# Mechanical properties :
#
#
# Convention : Reuss Voigt Hill
#
# Bulk Modulus (GPa) = 47.63513 58.79222 53.21367
# Shear Modulus (GPa) = 31.47404 35.20652 33.34028
#
# Velocity S-wave (km/s) = 3.62456 3.83346 3.73047
# Velocity P-wave (km/s) = 6.11554 6.64335 6.38490
#
# Compressibility (1/GPa) = 0.02099291
#
# Stress axis : x y z
#
# Youngs Moduli (GPa) = 134.01441 53.61714 118.12082
#
# Poissons Ratio (x) = 0.19266 0.20517
# Poissons Ratio (y) = 0.48155 0.17276
# Poissons Ratio (z) = 0.23277 0.07842
#
# Static dielectric constant tensor:
#      x y z
#    x 2.000870 0.000000 0.000000 
#    y 0.000000 2.003050 0.000000 
#    z 0.000000 0.000000 2.024500 
# 
# From -- ./inp_files/19144.got.cif
#   From: 2010.05.17/outbox.cif.g08.bks.cpg/sg56_10_cif.got.tgz:19144.got - 2010.06.03 13:42:01.
