data_PCOD9432455
_publ_section_title
;
Structure prediction by ZEFSAII (Michael W. Deem and Ramdas Pophale) SiO2 
 PCOD9432455
Probable space group: P C C N
;
_chemical_formula_sum "Si O2"
_cell_formula_units_Z 40
_cell_length_a 10.336595
_cell_length_b 14.977766
_cell_length_c 11.307352
_cell_angle_alpha 90.000000
_cell_angle_beta 90.000000
_cell_angle_gamma 90.000000
_cell_volume 1750.594073
_symmetry_space_group_name_H-M "P C C N"
_symmetry_group_IT_number 56
_symmetry_cell_setting 'orthorhombic'
loop_
_space_group_symop_operation_xyz
x,y,z
1/2-x,1/2-y,z
1/2+x,-y,1/2-z
-x,1/2+y,1/2-z
-x,-y,-z
1/2+x,1/2+y,-z
1/2-x,y,1/2+z
x,1/2-y,1/2+z
loop_
_atom_site_type_symbol
_atom_site_label
_atom_site_fract_x
_atom_site_fract_y
_atom_site_fract_z
Si Si1 0.852381 0.017417 0.964359
Si Si2 0.501070 0.432835 0.385983
Si Si3 0.829815 0.339827 0.052051
Si Si4 0.507021 0.097089 0.264336
Si Si5 0.767938 0.648440 0.574238
O O1 0.869351 0.074271 0.846238
O O2 0.770429 0.077160 0.055327
O O3 0.789840 0.919616 0.964825
O O4 0.000000 0.000000 0.000000
O O5 0.500000 0.500000 0.500000
O O6 0.596658 0.355037 0.427440
O O7 0.539129 0.499795 0.282299
O O8 0.361669 0.389471 0.365247
O O9 0.750000 0.250000 0.057996
O O10 0.937659 0.347163 0.154349
O O11 0.391504 0.140317 0.339080
O O12 0.750000 0.750000 0.537239
#
# Coordination Sequence:
#
# PCOD9432455 Si02
#       5
#     8   8   8   8   8
#     4  10  23  44  70 100 147 190 237 295 364 422
#     4  10  22  45  70  97 145 186 234 296 361 425
#     4  11  25  46  72 109 144 188 244 301 360 433
#     4  10  24  46  71 104 144 200 234 295 373 437
#     4  11  24  46  70 107 145 188 246 301 362 431
#
# _framework density 22.849388000000001
#
# number of rings (size 3 to 8) (size 9 to 14) (size 15 to 20)
#    0.000    1.600    4.000    0.000    8.400    0.800 
#    7.200    5.000    0.000    0.000    0.000    0.000 
#    0.000    0.000    0.000    0.000    0.000    0.000 
#
# Total GULP energy -223351.350360 kJ/mol
# GULP energy per Si atom -5583.783759 kJ/mol
# Density = 2.279738 g / cm^3
# Si number density = 22.849388 Si / 1000 Ang^3
#
#
#
# Elastic Constant Matrix: (Units=GPa)
#
#
# Indices 1 2 3 4 5 6 
#
# 1 129.3064 52.6965 26.4671 0.0000 0.0000 0.0000
# 2 52.6965 147.9759 10.1863 0.0000 0.0000 0.0000
# 3 26.4671 10.1863 39.1306 0.0000 0.0000 0.0000
# 4 0.0000 0.0000 0.0000 15.6933 0.0000 0.0000
# 5 0.0000 0.0000 0.0000 0.0000 33.9667 0.0000
# 6 0.0000 0.0000 0.0000 0.0000 0.0000 47.4352
#
#
#
# Elastic Compliance Matrix: (Units=1/GPa)
#
#
# Indices 1 2 3 4 5 6 
#
# 1 0.010313 -0.003251 -0.006129 0.000000 0.000000 0.000000
# 2 -0.003251 0.007906 0.000141 0.000000 0.000000 0.000000
# 3 -0.006129 0.000141 0.029664 0.000000 0.000000 0.000000
# 4 0.000000 0.000000 0.000000 0.063722 0.000000 0.000000
# 5 0.000000 0.000000 0.000000 0.000000 0.029441 0.000000
# 6 0.000000 0.000000 0.000000 0.000000 0.000000 0.021081
#
#
# Mechanical properties :
#
#
# Convention : Reuss Voigt Hill
#
# Bulk Modulus (GPa) = 34.00811 55.01254 44.51033
# Shear Modulus (GPa) = 26.25959 34.55657 30.40808
#
# Velocity S-wave (km/s) = 3.39373 3.89313 3.65198
# Velocity P-wave (km/s) = 5.50204 6.65861 6.10776
#
# Compressibility (1/GPa) = 0.02940475
#
# Stress axis : x y z
#
# Youngs Moduli (GPa) = 96.96619 126.48969 33.71034
#
# Poissons Ratio (x) = 0.41117 0.20662
# Poissons Ratio (y) = 0.31520 -0.00474
# Poissons Ratio (z) = 0.59433 -0.01779
#
# Static dielectric constant tensor:
#      x y z
#    x 1.895250 0.000000 0.000000 
#    y 0.000000 1.851340 0.000000 
#    z 0.000000 0.000000 1.908780 
# 
# From -- ./inp_files/7009.got.cif
#   From: 2010.05.17/outbox.cif.g08.bks.cpg/sg56_4_cif.got.tgz:7009.got - 2010.06.03 13:42:01.
