data_PCOD9432052
_publ_section_title
;
Structure prediction by ZEFSAII (Michael W. Deem and Ramdas Pophale) SiO2 
 PCOD9432052
Probable space group: P C C N
;
_chemical_formula_sum "Si O2"
_cell_formula_units_Z 64
_cell_length_a 19.468853
_cell_length_b 8.489934
_cell_length_c 18.340384
_cell_angle_alpha 90.000000
_cell_angle_beta 90.000000
_cell_angle_gamma 90.000000
_cell_volume 3031.468812
_symmetry_space_group_name_H-M "P C C N"
_symmetry_group_IT_number 56
_symmetry_cell_setting 'orthorhombic'
loop_
_space_group_symop_operation_xyz
x,y,z
1/2-x,1/2-y,z
1/2+x,-y,1/2-z
-x,1/2+y,1/2-z
-x,-y,-z
1/2+x,1/2+y,-z
1/2-x,y,1/2+z
x,1/2-y,1/2+z
loop_
_atom_site_type_symbol
_atom_site_label
_atom_site_fract_x
_atom_site_fract_y
_atom_site_fract_z
Si Si1 0.597713 0.880387 0.017782
Si Si2 0.688750 0.370249 0.940682
Si Si3 0.551569 0.139236 0.792882
Si Si4 0.177922 0.164440 0.332486
Si Si5 0.920104 0.773735 0.282224
Si Si6 0.546750 0.214761 0.962974
Si Si7 0.320727 0.203865 0.594895
Si Si8 0.182681 0.845076 0.236210
O O1 0.635368 0.870274 0.094674
O O2 0.532164 0.760894 0.011900
O O3 0.652572 0.842561 0.955880
O O4 0.569240 0.053577 0.002278
O O5 0.750000 0.250000 0.963036
O O6 0.613982 0.323245 0.971408
O O7 0.696186 0.554924 0.955665
O O8 0.689245 0.371366 0.851539
O O9 0.485640 0.177746 0.744493
O O10 0.540781 0.196937 0.875570
O O11 0.615582 0.234180 0.758543
O O12 0.562142 0.952816 0.800869
O O13 0.250000 0.250000 0.347048
O O14 0.133146 0.282441 0.283824
O O15 0.180882 0.004385 0.283665
O O16 0.881866 0.684925 0.347775
O O17 0.250000 0.250000 0.634493
O O18 0.250000 0.750000 0.259407
#
# Coordination Sequence:
#
# PCOD9432052 Si02
#       8
#     8   8   8   8   8   8   8   8
#     4  11  24  43  67  93 136 183 218 269 337 401
#     4  10  22  39  67  97 130 166 224 281 328 392
#     4  11  23  40  67  98 134 164 222 277 336 392
#     4  12  24  41  64  98 135 174 222 276 340 397
#     4  12  24  40  67 100 131 168 221 281 328 397
#     4  10  22  43  66  93 132 177 219 271 332 403
#     4  12  25  42  68  99 131 180 226 269 332 399
#     4  10  22  40  64  96 128 172 215 279 335 389
#
# _framework density 21.111877
#
# number of rings (size 3 to 8) (size 9 to 14) (size 15 to 20)
#    0.000    1.000    3.750    3.000    5.250    0.500 
#    0.000    4.375    0.000    0.000    0.000    0.000 
#    0.000    0.000    0.000    0.000    0.000    0.000 
#
# Total GULP energy -357256.337306 kJ/mol
# GULP energy per Si atom -5582.130270 kJ/mol
# Density = 2.106383 g / cm^3
# Si number density = 21.111877 Si / 1000 Ang^3
#
#
#
# Elastic Constant Matrix: (Units=GPa)
#
#
# Indices 1 2 3 4 5 6 
#
# 1 144.6149 20.0403 12.3873 0.0000 0.0000 0.0000
# 2 20.0403 42.9127 -25.3492 0.0000 0.0000 0.0000
# 3 12.3873 -25.3492 38.5696 0.0000 0.0000 0.0000
# 4 0.0000 0.0000 0.0000 20.1753 0.0000 0.0000
# 5 0.0000 0.0000 0.0000 0.0000 23.2234 0.0000
# 6 0.0000 0.0000 0.0000 0.0000 0.0000 35.9250
#
#
#
# Elastic Compliance Matrix: (Units=1/GPa)
#
#
# Indices 1 2 3 4 5 6 
#
# 1 0.009059 -0.009725 -0.009301 0.000000 0.000000 0.000000
# 2 -0.009725 0.048532 0.035020 0.000000 0.000000 0.000000
# 3 -0.009301 0.035020 0.051931 0.000000 0.000000 0.000000
# 4 0.000000 0.000000 0.000000 0.049566 0.000000 0.000000
# 5 0.000000 0.000000 0.000000 0.000000 0.043060 0.000000
# 6 0.000000 0.000000 0.000000 0.000000 0.000000 0.027836
#
#
# Mechanical properties :
#
#
# Convention : Reuss Voigt Hill
#
# Bulk Modulus (GPa) = 7.06670 26.69490 16.88080
# Shear Modulus (GPa) = 20.39440 30.46598 25.43019
#
# Velocity S-wave (km/s) = 3.11145 3.80290 3.47442
# Velocity P-wave (km/s) = 4.03270 5.65285 4.91006
#
# Compressibility (1/GPa) = 0.14150882
#
# Stress axis : x y z
#
# Youngs Moduli (GPa) = 110.38361 20.60513 19.25644
#
# Poissons Ratio (x) = 0.20039 0.17911
# Poissons Ratio (y) = 1.07349 -0.67436
# Poissons Ratio (z) = 1.02670 -0.72159
#
# Static dielectric constant tensor:
#      x y z
#    x 1.796920 0.000000 0.000000 
#    y 0.000000 1.817700 0.000000 
#    z 0.000000 0.000000 1.745800 
# 
# From -- ./inp_files/19355.got.cif
#   From: 2010.05.17/outbox.cif.g08.bks.cpg/sg56_10_cif.got.tgz:19355.got - 2010.06.03 13:42:01.
