data_PCOD9432318
_publ_section_title
;
Structure prediction by ZEFSAII (Michael W. Deem and Ramdas Pophale) SiO2 
 PCOD9432318
Probable space group: P C C N
;
_chemical_formula_sum "Si O2"
_cell_formula_units_Z 36
_cell_length_a 11.129975
_cell_length_b 11.453360
_cell_length_c 13.579806
_cell_angle_alpha 90.000000
_cell_angle_beta 90.000000
_cell_angle_gamma 90.000000
_cell_volume 1731.094060
_symmetry_space_group_name_H-M "P C C N"
_symmetry_group_IT_number 56
_symmetry_cell_setting 'orthorhombic'
loop_
_space_group_symop_operation_xyz
x,y,z
1/2-x,1/2-y,z
1/2+x,-y,1/2-z
-x,1/2+y,1/2-z
-x,-y,-z
1/2+x,1/2+y,-z
1/2-x,y,1/2+z
x,1/2-y,1/2+z
loop_
_atom_site_type_symbol
_atom_site_label
_atom_site_fract_x
_atom_site_fract_y
_atom_site_fract_z
Si Si1 0.025204 0.653783 0.094448
Si Si2 0.750000 0.250000 0.521578
Si Si3 0.644878 0.590504 0.424139
Si Si4 0.131230 0.313511 0.289615
Si Si5 0.632910 0.007984 0.548297
O O1 0.922665 0.658648 0.010920
O O2 0.978878 0.727050 0.186744
O O3 0.142892 0.708511 0.047824
O O4 0.000000 0.000000 0.000000
O O5 0.559286 0.481236 0.393494
O O6 0.809203 0.135838 0.073468
O O7 0.650486 0.662591 0.324764
O O8 0.770553 0.545969 0.470096
O O9 0.250000 0.250000 0.326960
O O10 0.122685 0.431018 0.353319
#
# Coordination Sequence:
#
# PCOD9432318 Si02
#       5
#     8   4   8   8   8
#     4  10  22  47  64 100 139 176 229 292 340 417
#     4  10  22  42  72  94 134 182 220 292 350 410
#     4  10  25  44  68  96 141 181 228 286 352 425
#     4  12  25  41  72 101 130 186 235 280 362 427
#     4  11  23  45  69  99 140 181 232 293 351 416
#
# _framework density 20.796095999999999
#
# number of rings (size 3 to 8) (size 9 to 14) (size 15 to 20)
#    0.000    1.333    4.444    0.000    3.111    3.556 
#    0.000    5.556    0.000    0.000    0.000    0.000 
#    0.000    0.000    0.000    0.000    0.000    0.000 
#
# Total GULP energy -200908.123772 kJ/mol
# GULP energy per Si atom -5580.781216 kJ/mol
# Density = 2.074876 g / cm^3
# Si number density = 20.796096 Si / 1000 Ang^3
#
#
#
# Elastic Constant Matrix: (Units=GPa)
#
#
# Indices 1 2 3 4 5 6 
#
# 1 131.9728 32.6606 40.1303 0.0000 0.0000 0.0000
# 2 32.6606 73.3336 39.5211 0.0000 0.0000 0.0000
# 3 40.1303 39.5211 95.5423 0.0000 0.0000 0.0000
# 4 0.0000 0.0000 0.0000 31.4598 0.0000 0.0000
# 5 0.0000 0.0000 0.0000 0.0000 11.8949 0.0000
# 6 0.0000 0.0000 0.0000 0.0000 0.0000 35.2729
#
#
#
# Elastic Compliance Matrix: (Units=1/GPa)
#
#
# Indices 1 2 3 4 5 6 
#
# 1 0.009042 -0.002548 -0.002744 0.000000 0.000000 0.000000
# 2 -0.002548 0.018267 -0.006486 0.000000 0.000000 0.000000
# 3 -0.002744 -0.006486 0.014302 0.000000 0.000000 0.000000
# 4 0.000000 0.000000 0.000000 0.031787 0.000000 0.000000
# 5 0.000000 0.000000 0.000000 0.000000 0.084070 0.000000
# 6 0.000000 0.000000 0.000000 0.000000 0.000000 0.028350
#
#
# Mechanical properties :
#
#
# Convention : Reuss Voigt Hill
#
# Bulk Modulus (GPa) = 55.38639 58.38585 56.88612
# Shear Modulus (GPa) = 23.21356 28.29462 25.75409
#
# Velocity S-wave (km/s) = 3.34465 3.69260 3.52292
# Velocity P-wave (km/s) = 6.45031 6.80564 6.63035
#
# Compressibility (1/GPa) = 0.01805498
#
# Stress axis : x y z
#
# Youngs Moduli (GPa) = 110.59048 54.74489 69.92124
#
# Poissons Ratio (x) = 0.13952 0.19185
# Poissons Ratio (y) = 0.28184 0.45348
# Poissons Ratio (z) = 0.30344 0.35505
#
# Static dielectric constant tensor:
#      x y z
#    x 1.773270 0.000000 0.000000 
#    y 0.000000 1.833560 0.000000 
#    z 0.000000 0.000000 1.697400 
# 
# From -- ./inp_files/7617.got.cif
#   From: 2010.05.17/outbox.cif.g08.bks.cpg/sg56_4_cif.got.tgz:7617.got - 2010.06.03 13:42:01.
