data_PCOD9432862
_publ_section_title
;
Structure prediction by ZEFSAII (Michael W. Deem and Ramdas Pophale) SiO2 
 PCOD9432862
Probable space group: P C C N
;
_chemical_formula_sum "Si O2"
_cell_formula_units_Z 56
_cell_length_a 11.219362
_cell_length_b 14.750449
_cell_length_c 15.433238
_cell_angle_alpha 90.000000
_cell_angle_beta 90.000000
_cell_angle_gamma 90.000000
_cell_volume 2554.056233
_symmetry_space_group_name_H-M "P C C N"
_symmetry_group_IT_number 56
_symmetry_cell_setting 'orthorhombic'
loop_
_space_group_symop_operation_xyz
x,y,z
1/2-x,1/2-y,z
1/2+x,-y,1/2-z
-x,1/2+y,1/2-z
-x,-y,-z
1/2+x,1/2+y,-z
1/2-x,y,1/2+z
x,1/2-y,1/2+z
loop_
_atom_site_type_symbol
_atom_site_label
_atom_site_fract_x
_atom_site_fract_y
_atom_site_fract_z
Si Si1 0.492994 0.594638 0.812955
Si Si2 0.825273 0.664437 0.052988
Si Si3 0.791643 0.533033 0.424354
Si Si4 0.665050 0.121299 0.538928
Si Si5 0.125813 0.248491 0.263169
Si Si6 0.564449 0.322361 0.547583
Si Si7 0.566638 0.569194 0.301332
O O1 0.603933 0.586979 0.877813
O O2 0.374675 0.579445 0.869363
O O3 0.512722 0.694065 0.773208
O O4 0.497093 0.516670 0.740840
O O5 0.750000 0.750000 0.016060
O O6 0.837337 0.688157 0.153893
O O7 0.757538 0.578738 0.012709
O O8 0.960648 0.659128 0.020785
O O9 0.855476 0.440629 0.455315
O O10 0.681099 0.533505 0.356613
O O11 0.591800 0.215130 0.542082
O O12 0.805706 0.136904 0.533255
O O13 0.250000 0.250000 0.207893
O O14 0.097548 0.354913 0.271578
O O15 0.512530 0.371144 0.632821
#
# Coordination Sequence:
#
# PCOD9432862 Si02
#       7
#     8   8   8   8   8   8   8
#     4  12  26  43  72 101 142 182 241 302 360 429
#     4  10  24  41  73  97 131 180 236 290 347 435
#     4  11  26  43  70 100 136 184 242 293 356 432
#     4  11  25  43  66 100 137 190 228 291 360 441
#     4  11  24  45  70 103 139 182 240 298 362 419
#     4  10  24  46  67  94 145 184 232 291 370 430
#     4  11  26  44  69 103 140 187 234 307 361 422
#
# _framework density 21.925908
#
# number of rings (size 3 to 8) (size 9 to 14) (size 15 to 20)
#    0.000    1.143    2.857    1.286   14.000    1.143 
#    0.000    0.000    0.000    0.000    0.000    0.000 
#    0.000    0.000    0.000    0.000    0.000    0.000 
#
# Total GULP energy -312129.410189 kJ/mol
# GULP energy per Si atom -5573.739468 kJ/mol
# Density = 2.187600 g / cm^3
# Si number density = 21.925908 Si / 1000 Ang^3
#
#
#
# Elastic Constant Matrix: (Units=GPa)
#
#
# Indices 1 2 3 4 5 6 
#
# 1 64.0168 9.0014 8.0924 0.0000 0.0000 0.0000
# 2 9.0014 103.3610 27.6659 0.0000 0.0000 0.0000
# 3 8.0924 27.6659 69.6662 0.0000 0.0000 0.0000
# 4 0.0000 0.0000 0.0000 3.5059 0.0000 0.0000
# 5 0.0000 0.0000 0.0000 0.0000 -11.6559 0.0000
# 6 0.0000 0.0000 0.0000 0.0000 0.0000 23.2598
#
#
#
# Elastic Compliance Matrix: (Units=1/GPa)
#
#
# Indices 1 2 3 4 5 6 
#
# 1 0.015945 -0.000999 -0.001455 0.000000 0.000000 0.000000
# 2 -0.000999 0.010888 -0.004208 0.000000 0.000000 0.000000
# 3 -0.001455 -0.004208 0.016194 0.000000 0.000000 0.000000
# 4 0.000000 0.000000 0.000000 0.285232 0.000000 0.000000
# 5 0.000000 0.000000 0.000000 0.000000 -0.085793 0.000000
# 6 0.000000 0.000000 0.000000 0.000000 0.000000 0.042993
#
#
# Mechanical properties :
#
#
# Convention : Reuss Voigt Hill
#
# Bulk Modulus (GPa) = 33.66663 36.28481 34.97572
# Shear Modulus (GPa) = 16.19778 15.84092 16.01935
#
# Velocity S-wave (km/s) = 2.72095 2.69081 2.70592
# Velocity P-wave (km/s) = 5.02588 5.12237 5.07435
#
# Compressibility (1/GPa) = 0.02970300
#
# Stress axis : x y z
#
# Youngs Moduli (GPa) = 62.71414 91.84321 61.75026
#
# Poissons Ratio (x) = 0.09176 0.08988
# Poissons Ratio (y) = 0.06265 0.25984
# Poissons Ratio (z) = 0.09128 0.38646
#
# Static dielectric constant tensor:
#      x y z
#    x 1.874030 0.000000 0.000000 
#    y 0.000000 1.873590 0.000000 
#    z 0.000000 0.000000 1.862560 
# 
# From -- ./inp_files/11661.got.cif
#   From: 2010.05.17/outbox.cif.g08.bks.cpg/sg56_6_cif.got.tgz:11661.got - 2010.06.03 13:42:01.
