data_PCOD9432028
_publ_section_title
;
Structure prediction by ZEFSAII (Michael W. Deem and Ramdas Pophale) SiO2 
 PCOD9432028
Probable space group: P C C N
;
_chemical_formula_sum "Si O2"
_cell_formula_units_Z 64
_cell_length_a 10.122499
_cell_length_b 28.358853
_cell_length_c 8.530370
_cell_angle_alpha 90.000000
_cell_angle_beta 90.000000
_cell_angle_gamma 90.000000
_cell_volume 2448.749007
_symmetry_space_group_name_H-M "P C C N"
_symmetry_group_IT_number 56
_symmetry_cell_setting 'orthorhombic'
loop_
_space_group_symop_operation_xyz
x,y,z
1/2-x,1/2-y,z
1/2+x,-y,1/2-z
-x,1/2+y,1/2-z
-x,-y,-z
1/2+x,1/2+y,-z
1/2-x,y,1/2+z
x,1/2-y,1/2+z
loop_
_atom_site_type_symbol
_atom_site_label
_atom_site_fract_x
_atom_site_fract_y
_atom_site_fract_z
Si Si1 0.945313 0.310876 0.059004
Si Si2 0.858252 0.105342 0.340764
Si Si3 0.853429 0.792540 0.817553
Si Si4 0.101262 0.739931 0.676879
Si Si5 0.773607 0.845679 0.537175
Si Si6 0.616936 0.555184 0.527000
Si Si7 0.405066 0.573414 0.996300
Si Si8 0.132391 0.025775 0.818806
O O1 0.870725 0.347189 0.945775
O O2 0.919650 0.311282 0.244852
O O3 0.099986 0.319317 0.037851
O O4 0.907983 0.258400 0.000356
O O5 0.717117 0.082504 0.385005
O O6 0.888166 0.109188 0.153490
O O7 0.979089 0.074275 0.409369
O O8 0.750000 0.750000 0.802641
O O9 0.801487 0.837605 0.719517
O O10 0.647970 0.685516 0.990123
O O11 0.986270 0.773591 0.744879
O O12 0.250000 0.750000 0.721026
O O13 0.794087 0.898769 0.487266
O O14 0.709799 0.531727 0.657081
O O15 0.601256 0.527088 0.365656
O O16 0.393961 0.523517 0.904764
O O17 0.539391 0.565804 0.097736
#
# Coordination Sequence:
#
# PCOD9432028 Si02
#       8
#     8   8   8   8   8   8   8   8
#     4  10  24  44  64  91 132 172 226 276 334 403
#     4  11  25  45  69  99 139 180 229 285 345 411
#     4  11  21  38  66  87 126 169 221 276 323 394
#     4  11  24  42  62  93 126 171 222 275 336 398
#     4  10  22  39  62  97 125 171 222 270 333 389
#     4  11  23  43  67 101 142 176 225 286 339 406
#     4  11  25  45  70 103 134 180 228 271 350 419
#     4  11  24  43  72 103 137 176 224 279 342 420
#
# _framework density 26.135795999999999
#
# number of rings (size 3 to 8) (size 9 to 14) (size 15 to 20)
#    0.000    1.250    1.250    3.750    3.500    6.000 
#    0.000    0.000    0.000    0.000    0.000    0.000 
#    0.000    0.000    0.000    0.000    0.000    0.000 
#
# Total GULP energy -357489.429738 kJ/mol
# GULP energy per Si atom -5585.772340 kJ/mol
# Density = 2.607631 g / cm^3
# Si number density = 26.135796 Si / 1000 Ang^3
#
#
#
# Elastic Constant Matrix: (Units=GPa)
#
#
# Indices 1 2 3 4 5 6 
#
# 1 112.1414 -3.9992 14.6853 0.0000 0.0000 0.0000
# 2 -3.9992 54.0895 -7.2147 0.0000 0.0000 0.0000
# 3 14.6853 -7.2147 69.5511 0.0000 0.0000 0.0000
# 4 0.0000 0.0000 0.0000 34.7643 0.0000 0.0000
# 5 0.0000 0.0000 0.0000 0.0000 34.3424 0.0000
# 6 0.0000 0.0000 0.0000 0.0000 0.0000 26.3418
#
#
#
# Elastic Compliance Matrix: (Units=1/GPa)
#
#
# Indices 1 2 3 4 5 6 
#
# 1 0.009181 0.000426 -0.001894 0.000000 0.000000 0.000000
# 2 0.000426 0.018767 0.001857 0.000000 0.000000 0.000000
# 3 -0.001894 0.001857 0.014970 0.000000 0.000000 0.000000
# 4 0.000000 0.000000 0.000000 0.028765 0.000000 0.000000
# 5 0.000000 0.000000 0.000000 0.000000 0.029118 0.000000
# 6 0.000000 0.000000 0.000000 0.000000 0.000000 0.037962
#
#
# Mechanical properties :
#
#
# Convention : Reuss Voigt Hill
#
# Bulk Modulus (GPa) = 22.88568 26.96942 24.92755
# Shear Modulus (GPa) = 32.77571 34.57708 33.67639
#
# Velocity S-wave (km/s) = 3.54510 3.64122 3.59348
# Velocity P-wave (km/s) = 5.05297 5.29333 5.17455
#
# Compressibility (1/GPa) = 0.04369545
#
# Stress axis : x y z
#
# Youngs Moduli (GPa) = 108.92577 53.28485 66.79815
#
# Poissons Ratio (x) = -0.02271 0.12653
# Poissons Ratio (y) = -0.04641 -0.12403
# Poissons Ratio (z) = 0.20633 -0.09894
#
# Static dielectric constant tensor:
#      x y z
#    x 2.043120 0.000000 0.000000 
#    y 0.000000 2.135330 0.000000 
#    z 0.000000 0.000000 2.131150 
# 
# From -- ./inp_files/2979.got.cif
#   From: 2010.05.17/outbox.cif.g08.bks.cpg/sg56_2_cif.got.tgz:2979.got - 2010.06.03 13:42:01.
