data_PCOD9432789
_publ_section_title
;
Structure prediction by ZEFSAII (Michael W. Deem and Ramdas Pophale) SiO2 
 PCOD9432789
Probable space group: P C C N
;
_chemical_formula_sum "Si O2"
_cell_formula_units_Z 60
_cell_length_a 16.764619
_cell_length_b 9.431203
_cell_length_c 15.700385
_cell_angle_alpha 90.000000
_cell_angle_beta 90.000000
_cell_angle_gamma 90.000000
_cell_volume 2482.396115
_symmetry_space_group_name_H-M "P C C N"
_symmetry_group_IT_number 56
_symmetry_cell_setting 'orthorhombic'
loop_
_space_group_symop_operation_xyz
x,y,z
1/2-x,1/2-y,z
1/2+x,-y,1/2-z
-x,1/2+y,1/2-z
-x,-y,-z
1/2+x,1/2+y,-z
1/2-x,y,1/2+z
x,1/2-y,1/2+z
loop_
_atom_site_type_symbol
_atom_site_label
_atom_site_fract_x
_atom_site_fract_y
_atom_site_fract_z
Si Si1 0.250000 0.750000 0.023316
Si Si2 0.839026 0.764756 0.967665
Si Si3 0.940875 0.638718 0.685866
Si Si4 0.880059 0.921628 0.626059
Si Si5 0.540237 0.940480 0.879339
Si Si6 0.340185 0.707742 0.316483
Si Si7 0.337118 0.955652 0.432507
Si Si8 0.096220 0.750018 0.632984
O O1 0.324940 0.711192 0.081817
O O2 0.251354 0.609000 0.963833
O O3 0.750000 0.750000 0.928472
O O4 0.910791 0.691126 0.916528
O O5 0.836499 0.669378 0.054122
O O6 0.856577 0.926952 0.994819
O O7 0.915361 0.802886 0.688795
O O8 0.964819 0.582535 0.777719
O O9 0.867181 0.548618 0.648199
O O10 0.017598 0.651501 0.621903
O O11 0.835185 0.038463 0.678975
O O12 0.952107 0.018095 0.588528
O O13 0.585050 0.087744 0.893911
O O14 0.250000 0.750000 0.298888
O O15 0.390483 0.747878 0.233939
O O16 0.370417 0.801447 0.398180
#
# Coordination Sequence:
#
# PCOD9432789 Si02
#       8
#     4   8   8   8   8   8   8   8
#     4  12  26  46  70 106 150 186 238 304 372 430
#     4  11  24  45  67 104 146 187 241 295 368 436
#     4  10  23  47  70 105 141 190 248 299 353 448
#     4  10  24  43  72  99 140 190 239 298 368 429
#     4  11  22  44  72  98 141 190 244 299 359 433
#     4  12  22  42  70 100 141 186 235 295 362 426
#     4  11  25  45  69 105 144 185 238 298 366 434
#     4  11  24  42  71 103 142 186 244 298 362 427
#
# _framework density 24.170196000000001
#
# number of rings (size 3 to 8) (size 9 to 14) (size 15 to 20)
#    0.000    1.067    4.000    2.000    1.867    1.600 
#    4.800    0.667    0.000    0.000    0.000    0.000 
#    0.000    0.000    0.000    0.000    0.000    0.000 
#
# Total GULP energy -334156.311442 kJ/mol
# GULP energy per Si atom -5569.271857 kJ/mol
# Density = 2.411518 g / cm^3
# Si number density = 24.170196 Si / 1000 Ang^3
#
#
#
# Elastic Constant Matrix: (Units=GPa)
#
#
# Indices 1 2 3 4 5 6 
#
# 1 83.6329 45.0416 12.7022 0.0000 0.0000 0.0000
# 2 45.0416 168.4432 29.7862 0.0000 0.0000 0.0000
# 3 12.7022 29.7862 55.5342 0.0000 0.0000 0.0000
# 4 0.0000 0.0000 0.0000 32.6384 0.0000 0.0000
# 5 0.0000 0.0000 0.0000 0.0000 17.6122 0.0000
# 6 0.0000 0.0000 0.0000 0.0000 0.0000 51.6917
#
#
#
# Elastic Compliance Matrix: (Units=1/GPa)
#
#
# Indices 1 2 3 4 5 6 
#
# 1 0.014056 -0.003524 -0.001325 0.000000 0.000000 0.000000
# 2 -0.003524 0.007442 -0.003186 0.000000 0.000000 0.000000
# 3 -0.001325 -0.003186 0.020019 0.000000 0.000000 0.000000
# 4 0.000000 0.000000 0.000000 0.030639 0.000000 0.000000
# 5 0.000000 0.000000 0.000000 0.000000 0.056779 0.000000
# 6 0.000000 0.000000 0.000000 0.000000 0.000000 0.019345
#
#
# Mechanical properties :
#
#
# Convention : Reuss Voigt Hill
#
# Bulk Modulus (GPa) = 39.29621 53.63003 46.46312
# Shear Modulus (GPa) = 28.92969 35.06048 31.99509
#
# Velocity S-wave (km/s) = 3.46340 3.81276 3.64227
# Velocity P-wave (km/s) = 5.68216 6.45132 6.07892
#
# Compressibility (1/GPa) = 0.02544775
#
# Stress axis : x y z
#
# Youngs Moduli (GPa) = 71.14240 134.36389 49.95353
#
# Poissons Ratio (x) = 0.47355 0.06617
# Poissons Ratio (y) = 0.25073 0.15914
# Poissons Ratio (z) = 0.09424 0.42804
#
# Static dielectric constant tensor:
#      x y z
#    x 2.075200 0.000000 0.000000 
#    y 0.000000 1.923980 0.000000 
#    z 0.000000 0.000000 1.997550 
# 
# From -- ./inp_files/16679.got.cif
#   From: 2010.05.17/outbox.cif.g08.bks.cpg/sg56_9_cif.got.tgz:16679.got - 2010.06.03 13:42:01.
