data_PCOD9432141
_publ_section_title
;
Structure prediction by ZEFSAII (Michael W. Deem and Ramdas Pophale) SiO2 
 PCOD9432141
Probable space group: P C C N
;
_chemical_formula_sum "Si O2"
_cell_formula_units_Z 28
_cell_length_a 8.577632
_cell_length_b 7.805621
_cell_length_c 16.607631
_cell_angle_alpha 90.000000
_cell_angle_beta 90.000000
_cell_angle_gamma 90.000000
_cell_volume 1111.943082
_symmetry_space_group_name_H-M "P C C N"
_symmetry_group_IT_number 56
_symmetry_cell_setting 'orthorhombic'
loop_
_space_group_symop_operation_xyz
x,y,z
1/2-x,1/2-y,z
1/2+x,-y,1/2-z
-x,1/2+y,1/2-z
-x,-y,-z
1/2+x,1/2+y,-z
1/2-x,y,1/2+z
x,1/2-y,1/2+z
loop_
_atom_site_type_symbol
_atom_site_label
_atom_site_fract_x
_atom_site_fract_y
_atom_site_fract_z
Si Si1 0.965978 0.565859 0.910512
Si Si2 0.580262 0.735641 0.172018
Si Si3 0.750000 0.250000 0.676893
Si Si4 0.171044 0.041034 0.188355
O O1 0.990900 0.395864 0.859481
O O2 0.101970 0.700832 0.881617
O O3 0.782791 0.583166 0.886623
O O4 0.000000 0.500000 0.000000
O O5 0.750000 0.750000 0.132563
O O6 0.607780 0.789561 0.265044
O O7 0.478003 0.569198 0.160680
O O8 0.744797 0.415362 0.739941
#
# Coordination Sequence:
#
# PCOD9432141 Si02
#       4
#     8   8   4   8
#     4  11  25  43  71 105 151 192 239 318 383 445
#     4  11  23  42  73 105 137 189 246 305 369 447
#     4  10  22  40  70 104 138 194 258 298 362 452
#     4  11  23  44  73 107 141 194 253 308 364 459
#
# _framework density 25.181142999999999
#
# number of rings (size 3 to 8) (size 9 to 14) (size 15 to 20)
#    0.000    1.143    2.857    3.429    8.000    0.000 
#    0.000    8.571    0.000    0.000    0.000    0.000 
#    0.000    0.000    0.000    0.000    0.000    0.000 
#
# Total GULP energy -155880.262821 kJ/mol
# GULP energy per Si atom -5567.152244 kJ/mol
# Density = 2.512383 g / cm^3
# Si number density = 25.181143 Si / 1000 Ang^3
#
#
#
# Elastic Constant Matrix: (Units=GPa)
#
#
# Indices 1 2 3 4 5 6 
#
# 1 196.8061 67.7492 74.1964 0.0000 0.0000 0.0000
# 2 67.7492 99.1729 8.7289 0.0000 0.0000 0.0000
# 3 74.1964 8.7289 114.3649 0.0000 0.0000 0.0000
# 4 0.0000 0.0000 0.0000 19.4683 0.0000 0.0000
# 5 0.0000 0.0000 0.0000 0.0000 35.1573 0.0000
# 6 0.0000 0.0000 0.0000 0.0000 0.0000 48.4263
#
#
#
# Elastic Compliance Matrix: (Units=1/GPa)
#
#
# Indices 1 2 3 4 5 6 
#
# 1 0.009129 -0.005754 -0.005484 0.000000 0.000000 0.000000
# 2 -0.005754 0.013778 0.002681 0.000000 0.000000 0.000000
# 3 -0.005484 0.002681 0.012097 0.000000 0.000000 0.000000
# 4 0.000000 0.000000 0.000000 0.051365 0.000000 0.000000
# 5 0.000000 0.000000 0.000000 0.000000 0.028444 0.000000
# 6 0.000000 0.000000 0.000000 0.000000 0.000000 0.020650
#
#
# Mechanical properties :
#
#
# Convention : Reuss Voigt Hill
#
# Bulk Modulus (GPa) = 55.89115 79.07697 67.48406
# Shear Modulus (GPa) = 31.53789 37.92169 34.72979
#
# Velocity S-wave (km/s) = 3.54282 3.88487 3.71778
# Velocity P-wave (km/s) = 6.24334 7.18293 6.72955
#
# Compressibility (1/GPa) = 0.01789192
#
# Stress axis : x y z
#
# Youngs Moduli (GPa) = 109.53857 72.57878 82.66606
#
# Poissons Ratio (x) = 0.41761 0.45331
# Poissons Ratio (y) = 0.63027 -0.22166
# Poissons Ratio (z) = 0.60066 -0.19461
#
# Static dielectric constant tensor:
#      x y z
#    x 2.948740 0.000000 0.000000 
#    y 0.000000 1.998990 0.000000 
#    z 0.000000 0.000000 2.242200 
# 
# From -- ./inp_files/9988.got.cif
#   From: 2010.05.17/outbox.cif.g08.bks.cpg/sg56_5_cif.got.tgz:9988.got - 2010.06.03 13:42:01.
