data_PCOD9432886
_publ_section_title
;
Structure prediction by ZEFSAII (Michael W. Deem and Ramdas Pophale) SiO2 
 PCOD9432886
Probable space group: P C C N
;
_chemical_formula_sum "Si O2"
_cell_formula_units_Z 48
_cell_length_a 14.872807
_cell_length_b 6.407961
_cell_length_c 23.276399
_cell_angle_alpha 90.000000
_cell_angle_beta 90.000000
_cell_angle_gamma 90.000000
_cell_volume 2218.342478
_symmetry_space_group_name_H-M "P C C N"
_symmetry_group_IT_number 56
_symmetry_cell_setting 'orthorhombic'
loop_
_space_group_symop_operation_xyz
x,y,z
1/2-x,1/2-y,z
1/2+x,-y,1/2-z
-x,1/2+y,1/2-z
-x,-y,-z
1/2+x,1/2+y,-z
1/2-x,y,1/2+z
x,1/2-y,1/2+z
loop_
_atom_site_type_symbol
_atom_site_label
_atom_site_fract_x
_atom_site_fract_y
_atom_site_fract_z
Si Si1 0.622329 0.560927 0.369630
Si Si2 0.037097 0.208017 0.325250
Si Si3 0.750000 0.250000 0.301310
Si Si4 0.850081 0.346557 0.985699
Si Si5 0.145622 0.293722 0.934096
Si Si6 0.601052 0.947769 0.295302
Si Si7 0.500000 0.500000 0.000000
O O1 0.524296 0.480806 0.349372
O O2 0.691189 0.403120 0.339918
O O3 0.636106 0.523980 0.436763
O O4 0.636289 0.789159 0.343619
O O5 0.120791 0.229544 0.367271
O O6 0.062681 0.172510 0.259291
O O7 0.974900 0.412721 0.325288
O O8 0.821883 0.398098 0.270906
O O9 0.750000 0.250000 0.983477
O O10 0.869524 0.468973 0.044638
O O11 0.924362 0.169875 0.976937
O O12 0.250000 0.250000 0.945336
O O13 0.080742 0.135727 0.967821
#
# Coordination Sequence:
#
# PCOD9432886 Si02
#       7
#     8   8   4   8   8   8   4
#     4  11  23  43  71 104 138 188 247 301 370 443
#     4  11  25  46  69 105 141 196 244 304 382 449
#     4  10  24  42  68 108 132 188 240 304 378 430
#     4  12  26  49  75 110 149 201 249 310 382 455
#     4  12  28  47  73 112 155 199 252 311 392 459
#     4  11  24  47  71 103 144 187 250 307 376 453
#     4  12  26  50  74 106 154 194 254 304 374 462
#
# _framework density 21.637777
#
# number of rings (size 3 to 8) (size 9 to 14) (size 15 to 20)
#    0.000    0.667    5.833    1.000    2.333    2.667 
#    1.500    0.000    0.000    0.000    0.000    0.000 
#    0.000    0.000    0.000    0.000    0.000    0.000 
#
# Total GULP energy -267360.812729 kJ/mol
# GULP energy per Si atom -5570.016932 kJ/mol
# Density = 2.158853 g / cm^3
# Si number density = 21.637777 Si / 1000 Ang^3
#
#
#
# Elastic Constant Matrix: (Units=GPa)
#
#
# Indices 1 2 3 4 5 6 
#
# 1 147.5666 35.6755 27.2568 0.0000 0.0000 0.0000
# 2 35.6755 89.0094 37.0767 0.0000 0.0000 0.0000
# 3 27.2568 37.0767 72.6068 0.0000 0.0000 0.0000
# 4 0.0000 0.0000 0.0000 -67.1974 0.0000 0.0000
# 5 0.0000 0.0000 0.0000 0.0000 31.1161 0.0000
# 6 0.0000 0.0000 0.0000 0.0000 0.0000 28.4928
#
#
#
# Elastic Compliance Matrix: (Units=1/GPa)
#
#
# Indices 1 2 3 4 5 6 
#
# 1 0.007658 -0.002378 -0.001661 0.000000 0.000000 0.000000
# 2 -0.002378 0.015008 -0.006771 0.000000 0.000000 0.000000
# 3 -0.001661 -0.006771 0.017854 0.000000 0.000000 0.000000
# 4 0.000000 0.000000 0.000000 -0.014882 0.000000 0.000000
# 5 0.000000 0.000000 0.000000 0.000000 0.032138 0.000000
# 6 0.000000 0.000000 0.000000 0.000000 0.000000 0.035097
#
#
# Mechanical properties :
#
#
# Convention : Reuss Voigt Hill
#
# Bulk Modulus (GPa) = 52.90742 56.57787 54.74265
# Shear Modulus (GPa) = 41.39297 12.42724 26.91010
#
# Velocity S-wave (km/s) = 4.37853 2.39912 3.53039
# Velocity P-wave (km/s) = 7.07577 5.82055 6.47863
#
# Compressibility (1/GPa) = 0.01890094
#
# Stress axis : x y z
#
# Youngs Moduli (GPa) = 130.57945 66.62945 56.00943
#
# Poissons Ratio (x) = 0.15842 0.09302
# Poissons Ratio (y) = 0.31047 0.37927
# Poissons Ratio (z) = 0.21686 0.45118
#
# Static dielectric constant tensor:
#      x y z
#    x 1.835710 0.000000 0.000000 
#    y 0.000000 1.808820 0.000000 
#    z 0.000000 0.000000 1.770660 
# 
# From -- ./inp_files/22454.got.cif
#   From: 2010.05.17/outbox.cif.g08.bks.cpg/sg56_12_cif.got.tgz:22454.got - 2010.06.03 13:42:01.
