data_PCOD9432306
_publ_section_title
;
Structure prediction by ZEFSAII (Michael W. Deem and Ramdas Pophale) SiO2 
 PCOD9432306
Probable space group: P C C N
;
_chemical_formula_sum "Si O2"
_cell_formula_units_Z 56
_cell_length_a 19.768190
_cell_length_b 8.840125
_cell_length_c 16.114268
_cell_angle_alpha 90.000000
_cell_angle_beta 90.000000
_cell_angle_gamma 90.000000
_cell_volume 2816.021037
_symmetry_space_group_name_H-M "P C C N"
_symmetry_group_IT_number 56
_symmetry_cell_setting 'orthorhombic'
loop_
_space_group_symop_operation_xyz
x,y,z
1/2-x,1/2-y,z
1/2+x,-y,1/2-z
-x,1/2+y,1/2-z
-x,-y,-z
1/2+x,1/2+y,-z
1/2-x,y,1/2+z
x,1/2-y,1/2+z
loop_
_atom_site_type_symbol
_atom_site_label
_atom_site_fract_x
_atom_site_fract_y
_atom_site_fract_z
Si Si1 0.782531 0.410557 0.587837
Si Si2 0.973903 0.956852 0.859070
Si Si3 0.421961 0.905806 0.501611
Si Si4 0.949357 0.414754 0.937507
Si Si5 0.796677 0.898613 0.255139
Si Si6 0.957177 0.626094 0.783268
Si Si7 0.713389 0.416848 0.424226
O O1 0.750000 0.250000 0.610184
O O2 0.854496 0.370402 0.547893
O O3 0.785036 0.511388 0.669503
O O4 0.744129 0.484215 0.509216
O O5 0.973804 0.788979 0.822128
O O6 0.031885 0.968910 0.928348
O O7 0.991775 0.079442 0.789778
O O8 0.909125 0.989211 0.917653
O O9 0.458446 0.760460 0.541219
O O10 0.965332 0.490297 0.849439
O O11 0.867382 0.422910 0.941427
O O12 0.000000 0.500000 0.000000
O O13 0.750000 0.750000 0.255276
O O14 0.877824 0.868082 0.258453
O O15 0.777781 0.995842 0.337356
O O16 0.750000 0.250000 0.417010
#
# Coordination Sequence:
#
# PCOD9432306 Si02
#       7
#     8   8   8   8   8   8   8
#     4  11  22  46  70  95 129 177 227 269 333 406
#     4  11  24  43  66  94 135 172 219 275 334 396
#     4  11  22  43  68  96 128 173 221 275 329 399
#     4  11  21  41  67  97 132 167 223 273 330 398
#     4  11  26  44  62 100 134 169 223 275 338 402
#     4  11  24  44  66  97 133 177 216 276 337 398
#     4  10  22  42  70  94 127 178 223 271 333 399
#
# _framework density 19.886213999999999
#
# number of rings (size 3 to 8) (size 9 to 14) (size 15 to 20)
#    0.000    1.143    5.714    1.286    2.000    0.571 
#   10.286    0.000    0.000    0.000    0.000    0.000 
#    0.000    0.000    0.000    0.000    0.000    0.000 
#
# Total GULP energy -311936.143776 kJ/mol
# GULP energy per Si atom -5570.288282 kJ/mol
# Density = 1.984095 g / cm^3
# Si number density = 19.886214 Si / 1000 Ang^3
#
#
#
# Elastic Constant Matrix: (Units=GPa)
#
#
# Indices 1 2 3 4 5 6 
#
# 1 75.6225 38.6611 53.5986 0.0000 0.0000 0.0000
# 2 38.6611 113.8393 78.4736 0.0000 0.0000 0.0000
# 3 53.5986 78.4736 172.5304 0.0000 0.0000 0.0000
# 4 0.0000 0.0000 0.0000 29.2726 0.0000 0.0000
# 5 0.0000 0.0000 0.0000 0.0000 18.8378 0.0000
# 6 0.0000 0.0000 0.0000 0.0000 0.0000 24.0583
#
#
#
# Elastic Compliance Matrix: (Units=1/GPa)
#
#
# Indices 1 2 3 4 5 6 
#
# 1 0.017743 -0.003243 -0.004037 0.000000 0.000000 0.000000
# 2 -0.003243 0.013389 -0.005083 0.000000 0.000000 0.000000
# 3 -0.004037 -0.005083 0.009362 0.000000 0.000000 0.000000
# 4 0.000000 0.000000 0.000000 0.034162 0.000000 0.000000
# 5 0.000000 0.000000 0.000000 0.000000 0.053085 0.000000
# 6 0.000000 0.000000 0.000000 0.000000 0.000000 0.041566
#
#
# Mechanical properties :
#
#
# Convention : Reuss Voigt Hill
#
# Bulk Modulus (GPa) = 63.41473 78.16209 70.78841
# Shear Modulus (GPa) = 25.08944 27.18432 26.13688
#
# Velocity S-wave (km/s) = 3.55582 3.70130 3.62929
# Velocity P-wave (km/s) = 6.98688 7.59316 7.29632
#
# Compressibility (1/GPa) = 0.01576921
#
# Stress axis : x y z
#
# Youngs Moduli (GPa) = 56.36118 74.68737 106.81513
#
# Poissons Ratio (x) = 0.24219 0.43122
# Poissons Ratio (y) = 0.18276 0.54289
# Poissons Ratio (z) = 0.22753 0.37960
#
# Static dielectric constant tensor:
#      x y z
#    x 1.813990 0.000000 0.000000 
#    y 0.000000 1.650540 0.000000 
#    z 0.000000 0.000000 1.715160 
# 
# From -- ./inp_files/13062.got.cif
#   From: 2010.05.17/outbox.cif.g08.bks.cpg/sg56_7_cif.got.tgz:13062.got - 2010.06.03 13:42:01.
