data_PCOD9432186
_publ_section_title
;
Structure prediction by ZEFSAII (Michael W. Deem and Ramdas Pophale) SiO2 
 PCOD9432186
Probable space group: P C C N
;
_chemical_formula_sum "Si O2"
_cell_formula_units_Z 56
_cell_length_a 22.030462
_cell_length_b 8.398012
_cell_length_c 12.601707
_cell_angle_alpha 90.000000
_cell_angle_beta 90.000000
_cell_angle_gamma 90.000000
_cell_volume 2331.468077
_symmetry_space_group_name_H-M "P C C N"
_symmetry_group_IT_number 56
_symmetry_cell_setting 'orthorhombic'
loop_
_space_group_symop_operation_xyz
x,y,z
1/2-x,1/2-y,z
1/2+x,-y,1/2-z
-x,1/2+y,1/2-z
-x,-y,-z
1/2+x,1/2+y,-z
1/2-x,y,1/2+z
x,1/2-y,1/2+z
loop_
_atom_site_type_symbol
_atom_site_label
_atom_site_fract_x
_atom_site_fract_y
_atom_site_fract_z
Si Si1 0.550791 0.447181 0.717801
Si Si2 0.940038 0.609130 0.020217
Si Si3 0.377430 0.448866 0.996093
Si Si4 0.633662 0.052602 0.849813
Si Si5 0.177621 0.888944 0.199427
Si Si6 0.717238 0.915149 0.696447
Si Si7 0.962327 0.386949 0.659258
O O1 0.556641 0.604566 0.647725
O O2 0.618994 0.388082 0.725847
O O3 0.517076 0.295748 0.666521
O O4 0.518478 0.493577 0.826528
O O5 0.917441 0.787349 0.993566
O O6 0.889870 0.498017 0.963678
O O7 0.000000 0.500000 0.000000
O O8 0.325066 0.441545 0.905487
O O9 0.423497 0.578883 0.945099
O O10 0.342471 0.495877 0.103230
O O11 0.675217 0.210910 0.849151
O O12 0.577685 0.078391 0.766686
O O13 0.672702 0.912963 0.797500
O O14 0.232967 0.952035 0.270284
O O15 0.750000 0.750000 0.682044
#
# Coordination Sequence:
#
# PCOD9432186 Si02
#       7
#     8   8   8   8   8   8   8
#     4  11  23  39  65  97 141 184 239 286 361 416
#     4  12  24  40  67 103 143 186 228 289 352 429
#     4  11  26  44  69 101 141 183 241 292 361 426
#     4  10  23  45  67 102 140 179 234 287 353 414
#     4  11  25  44  71 103 133 188 234 291 352 420
#     4  11  24  46  71  96 136 181 239 292 350 418
#     4  10  22  41  65  96 138 189 229 297 349 430
#
# _framework density 24.019200999999999
#
# number of rings (size 3 to 8) (size 9 to 14) (size 15 to 20)
#    0.000    1.143    1.429    3.857    4.000    5.714 
#    0.000    5.714    0.000    0.000    0.000    0.000 
#    0.000    0.000    0.000    0.000    0.000    0.000 
#
# Total GULP energy -312465.540150 kJ/mol
# GULP energy per Si atom -5579.741788 kJ/mol
# Density = 2.396453 g / cm^3
# Si number density = 24.019201 Si / 1000 Ang^3
#
#
#
# Elastic Constant Matrix: (Units=GPa)
#
#
# Indices 1 2 3 4 5 6 
#
# 1 63.0759 14.9742 11.2577 0.0000 0.0000 0.0000
# 2 14.9742 111.1846 25.5468 0.0000 0.0000 0.0000
# 3 11.2577 25.5468 70.0163 0.0000 0.0000 0.0000
# 4 0.0000 0.0000 0.0000 30.4248 0.0000 0.0000
# 5 0.0000 0.0000 0.0000 0.0000 34.9024 0.0000
# 6 0.0000 0.0000 0.0000 0.0000 0.0000 37.2318
#
#
#
# Elastic Compliance Matrix: (Units=1/GPa)
#
#
# Indices 1 2 3 4 5 6 
#
# 1 0.016637 -0.001775 -0.002027 0.000000 0.000000 0.000000
# 2 -0.001775 0.010006 -0.003366 0.000000 0.000000 0.000000
# 3 -0.002027 -0.003366 0.015836 0.000000 0.000000 0.000000
# 4 0.000000 0.000000 0.000000 0.032868 0.000000 0.000000
# 5 0.000000 0.000000 0.000000 0.000000 0.028651 0.000000
# 6 0.000000 0.000000 0.000000 0.000000 0.000000 0.026859
#
#
# Mechanical properties :
#
#
# Convention : Reuss Voigt Hill
#
# Bulk Modulus (GPa) = 35.53148 38.64824 37.08986
# Shear Modulus (GPa) = 32.34674 33.34502 32.84588
#
# Velocity S-wave (km/s) = 3.67373 3.72999 3.70196
# Velocity P-wave (km/s) = 5.72888 5.88862 5.80930
#
# Compressibility (1/GPa) = 0.02814406
#
# Stress axis : x y z
#
# Youngs Moduli (GPa) = 60.10659 99.93600 63.14566
#
# Poissons Ratio (x) = 0.17737 0.12802
# Poissons Ratio (y) = 0.10668 0.21253
# Poissons Ratio (z) = 0.12186 0.33635
#
# Static dielectric constant tensor:
#      x y z
#    x 2.022610 0.000000 0.000000 
#    y 0.000000 1.923190 0.000000 
#    z 0.000000 0.000000 1.957380 
# 
# From -- ./inp_files/13080.got.cif
#   From: 2010.05.17/outbox.cif.g08.bks.cpg/sg56_7_cif.got.tgz:13080.got - 2010.06.03 13:42:01.
