data_PCOD9432240
_publ_section_title
;
Structure prediction by ZEFSAII (Michael W. Deem and Ramdas Pophale) SiO2 
 PCOD9432240
Probable space group: P C C N
;
_chemical_formula_sum "Si O2"
_cell_formula_units_Z 64
_cell_length_a 18.737425
_cell_length_b 14.137011
_cell_length_c 11.179179
_cell_angle_alpha 90.000000
_cell_angle_beta 90.000000
_cell_angle_gamma 90.000000
_cell_volume 2961.265954
_symmetry_space_group_name_H-M "P C C N"
_symmetry_group_IT_number 56
_symmetry_cell_setting 'orthorhombic'
loop_
_space_group_symop_operation_xyz
x,y,z
1/2-x,1/2-y,z
1/2+x,-y,1/2-z
-x,1/2+y,1/2-z
-x,-y,-z
1/2+x,1/2+y,-z
1/2-x,y,1/2+z
x,1/2-y,1/2+z
loop_
_atom_site_type_symbol
_atom_site_label
_atom_site_fract_x
_atom_site_fract_y
_atom_site_fract_z
Si Si1 0.792825 0.019110 0.620643
Si Si2 0.313662 0.102748 0.098858
Si Si3 0.950145 0.200698 0.116353
Si Si4 0.153596 0.583065 0.248679
Si Si5 0.573516 0.792820 0.764884
Si Si6 0.054592 0.087560 0.970095
Si Si7 0.841862 0.609096 0.315276
Si Si8 0.674651 0.200484 0.976488
O O1 0.715411 0.059289 0.656574
O O2 0.829085 0.103614 0.550401
O O3 0.792503 0.927845 0.534417
O O4 0.834979 0.985876 0.737213
O O5 0.379337 0.171900 0.121795
O O6 0.240729 0.137394 0.161926
O O7 0.340589 0.006993 0.163248
O O8 0.920168 0.109249 0.187408
O O9 0.885461 0.237004 0.037057
O O10 0.990747 0.272481 0.204968
O O11 0.010691 0.174688 0.023303
O O12 0.167787 0.673398 0.163148
O O13 0.577186 0.873354 0.661161
O O14 0.611827 0.689789 0.746984
O O15 0.122127 0.081190 0.058721
O O16 0.000000 0.000000 0.000000
O O17 0.750000 0.250000 0.993701
#
# Coordination Sequence:
#
# PCOD9432240 Si02
#       8
#     8   8   8   8   8   8   8   8
#     4  10  23  42  69 101 138 172 230 292 349 410
#     4  10  23  44  70  97 133 184 232 289 346 408
#     4  11  24  42  66  99 140 183 230 281 350 422
#     4  10  22  42  64 100 138 176 230 287 352 410
#     4  11  25  46  66 102 141 187 234 285 345 427
#     4  11  26  43  70  99 141 187 229 284 358 423
#     4  10  25  42  71 101 132 182 232 294 346 407
#     4  11  23  39  68 103 137 182 229 295 347 425
#
# _framework density 21.612378
#
# number of rings (size 3 to 8) (size 9 to 14) (size 15 to 20)
#    0.000    1.500    1.250    1.875   12.250    1.000 
#    0.000    1.250    0.000    0.000    0.000    0.000 
#    0.000    0.000    0.000    0.000    0.000    0.000 
#
# Total GULP energy -356738.262188 kJ/mol
# GULP energy per Si atom -5574.035347 kJ/mol
# Density = 2.156319 g / cm^3
# Si number density = 21.612378 Si / 1000 Ang^3
#
#
#
# Elastic Constant Matrix: (Units=GPa)
#
#
# Indices 1 2 3 4 5 6 
#
# 1 119.2093 30.5553 48.2869 0.0000 0.0000 0.0000
# 2 30.5553 53.7886 22.4804 0.0000 0.0000 0.0000
# 3 48.2869 22.4804 97.3506 0.0000 0.0000 0.0000
# 4 0.0000 0.0000 0.0000 26.2960 0.0000 0.0000
# 5 0.0000 0.0000 0.0000 0.0000 34.3155 0.0000
# 6 0.0000 0.0000 0.0000 0.0000 0.0000 40.2308
#
#
#
# Elastic Compliance Matrix: (Units=1/GPa)
#
#
# Indices 1 2 3 4 5 6 
#
# 1 0.011427 -0.004563 -0.004614 0.000000 0.000000 0.000000
# 2 -0.004563 0.022399 -0.002909 0.000000 0.000000 0.000000
# 3 -0.004614 -0.002909 0.013233 0.000000 0.000000 0.000000
# 4 0.000000 0.000000 0.000000 0.038029 0.000000 0.000000
# 5 0.000000 0.000000 0.000000 0.000000 0.029141 0.000000
# 6 0.000000 0.000000 0.000000 0.000000 0.000000 0.024857
#
#
# Mechanical properties :
#
#
# Convention : Reuss Voigt Hill
#
# Bulk Modulus (GPa) = 43.69442 52.55483 48.12462
# Shear Modulus (GPa) = 29.25905 31.43686 30.34795
#
# Velocity S-wave (km/s) = 3.68341 3.81803 3.75132
# Velocity P-wave (km/s) = 6.19283 6.61863 6.40927
#
# Compressibility (1/GPa) = 0.02288622
#
# Stress axis : x y z
#
# Youngs Moduli (GPa) = 87.51025 44.64455 75.57020
#
# Poissons Ratio (x) = 0.20371 0.34871
# Poissons Ratio (y) = 0.39930 0.21985
# Poissons Ratio (z) = 0.40380 0.12988
#
# Static dielectric constant tensor:
#      x y z
#    x 1.790030 0.000000 0.000000 
#    y 0.000000 1.849280 0.000000 
#    z 0.000000 0.000000 1.908990 
# 
# From -- ./inp_files/8412.got.cif
#   From: 2010.05.17/outbox.cif.g08.bks.cpg/sg56_5_cif.got.tgz:8412.got - 2010.06.03 13:42:01.
