data_PCOD9432753
_publ_section_title
;
Structure prediction by ZEFSAII (Michael W. Deem and Ramdas Pophale) SiO2 
 PCOD9432753
Probable space group: P C C N
;
_chemical_formula_sum "Si O2"
_cell_formula_units_Z 36
_cell_length_a 7.274024
_cell_length_b 19.704901
_cell_length_c 9.626197
_cell_angle_alpha 90.000000
_cell_angle_beta 90.000000
_cell_angle_gamma 90.000000
_cell_volume 1379.760578
_symmetry_space_group_name_H-M "P C C N"
_symmetry_group_IT_number 56
_symmetry_cell_setting 'orthorhombic'
loop_
_space_group_symop_operation_xyz
x,y,z
1/2-x,1/2-y,z
1/2+x,-y,1/2-z
-x,1/2+y,1/2-z
-x,-y,-z
1/2+x,1/2+y,-z
1/2-x,y,1/2+z
x,1/2-y,1/2+z
loop_
_atom_site_type_symbol
_atom_site_label
_atom_site_fract_x
_atom_site_fract_y
_atom_site_fract_z
Si Si1 0.750000 0.250000 0.184035
Si Si2 0.248294 0.391954 0.847017
Si Si3 0.715923 0.021774 0.496481
Si Si4 0.384184 0.308243 0.108487
Si Si5 0.842682 0.396120 0.241785
O O1 0.577074 0.271696 0.092330
O O2 0.800757 0.317378 0.270044
O O3 0.184945 0.458023 0.932384
O O4 0.110468 0.364291 0.730786
O O5 0.438394 0.404741 0.762960
O O6 0.302113 0.338969 0.968024
O O7 0.748192 0.048016 0.342255
O O8 0.767884 0.085793 0.590656
O O9 0.500000 0.000000 0.500000
O O10 0.250000 0.250000 0.163420
#
# Coordination Sequence:
#
# PCOD9432753 Si02
#       5
#     4   8   8   8   8
#     4  12  26  46  78 110 156 196 264 312 402 468
#     4  11  25  49  76 112 155 202 262 329 386 473
#     4  10  23  45  73 109 156 195 265 319 396 462
#     4  12  26  50  77 114 157 202 258 323 394 468
#     4  11  24  45  74 111 150 210 249 327 387 469
#
# _framework density 26.091487000000001
#
# number of rings (size 3 to 8) (size 9 to 14) (size 15 to 20)
#    0.000    0.889    2.222    4.667    0.000    7.111 
#    0.000    6.667    0.000    0.000    0.000    0.000 
#    0.000    0.000    0.000    0.000    0.000    0.000 
#
# Total GULP energy -201780.235142 kJ/mol
# GULP energy per Si atom -5605.006532 kJ/mol
# Density = 2.603210 g / cm^3
# Si number density = 26.091487 Si / 1000 Ang^3
#
#
#
# Elastic Constant Matrix: (Units=GPa)
#
#
# Indices 1 2 3 4 5 6 
#
# 1 77.1011 32.1881 9.0394 0.0000 0.0000 0.0000
# 2 32.1881 120.4689 7.5243 0.0000 0.0000 0.0000
# 3 9.0394 7.5243 98.5409 0.0000 0.0000 0.0000
# 4 0.0000 0.0000 0.0000 39.5901 0.0000 0.0000
# 5 0.0000 0.0000 0.0000 0.0000 24.0051 0.0000
# 6 0.0000 0.0000 0.0000 0.0000 0.0000 41.0024
#
#
#
# Elastic Compliance Matrix: (Units=1/GPa)
#
#
# Indices 1 2 3 4 5 6 
#
# 1 0.014707 -0.003864 -0.001054 0.000000 0.000000 0.000000
# 2 -0.003864 0.009356 -0.000360 0.000000 0.000000 0.000000
# 3 -0.001054 -0.000360 0.010272 0.000000 0.000000 0.000000
# 4 0.000000 0.000000 0.000000 0.025259 0.000000 0.000000
# 5 0.000000 0.000000 0.000000 0.000000 0.041658 0.000000
# 6 0.000000 0.000000 0.000000 0.000000 0.000000 0.024389
#
#
# Mechanical properties :
#
#
# Convention : Reuss Voigt Hill
#
# Bulk Modulus (GPa) = 42.05348 43.73494 42.89421
# Shear Modulus (GPa) = 34.69293 37.41013 36.05153
#
# Velocity S-wave (km/s) = 3.65041 3.79067 3.72120
# Velocity P-wave (km/s) = 5.82409 5.99645 5.91090
#
# Compressibility (1/GPa) = 0.02377925
#
# Stress axis : x y z
#
# Youngs Moduli (GPa) = 67.99703 106.88680 97.34970
#
# Poissons Ratio (x) = 0.41297 0.10261
# Poissons Ratio (y) = 0.26271 0.03504
# Poissons Ratio (z) = 0.07167 0.03847
#
# Static dielectric constant tensor:
#      x y z
#    x 2.038840 0.000000 0.000000 
#    y 0.000000 2.127190 0.000000 
#    z 0.000000 0.000000 1.988840 
# 
# From -- ./inp_files/1982.got.cif
#   From: 2010.05.17/outbox.cif.g08.bks.cpg/sg56_1_cif.got.tgz:1982.got - 2010.06.03 13:42:01.
