data_PCOD9432567
_publ_section_title
;
Structure prediction by ZEFSAII (Michael W. Deem and Ramdas Pophale) SiO2 
 PCOD9432567
Probable space group: P C C N
;
_chemical_formula_sum "Si O2"
_cell_formula_units_Z 64
_cell_length_a 16.799991
_cell_length_b 11.235689
_cell_length_c 15.464665
_cell_angle_alpha 90.000000
_cell_angle_beta 90.000000
_cell_angle_gamma 90.000000
_cell_volume 2919.102032
_symmetry_space_group_name_H-M "P C C N"
_symmetry_group_IT_number 56
_symmetry_cell_setting 'orthorhombic'
loop_
_space_group_symop_operation_xyz
x,y,z
1/2-x,1/2-y,z
1/2+x,-y,1/2-z
-x,1/2+y,1/2-z
-x,-y,-z
1/2+x,1/2+y,-z
1/2-x,y,1/2+z
x,1/2-y,1/2+z
loop_
_atom_site_type_symbol
_atom_site_label
_atom_site_fract_x
_atom_site_fract_y
_atom_site_fract_z
Si Si1 0.585570 0.180272 0.485864
Si Si2 0.316599 0.669099 0.765869
Si Si3 0.943577 0.592392 0.090188
Si Si4 0.830089 0.517368 0.599904
Si Si5 0.942810 0.330191 0.141598
Si Si6 0.794683 0.862559 0.480694
Si Si7 0.469195 0.174450 0.320934
Si Si8 0.370472 0.908801 0.089983
O O1 0.626665 0.065238 0.527372
O O2 0.532271 0.244067 0.561458
O O3 0.536250 0.156565 0.397321
O O4 0.647089 0.286120 0.460635
O O5 0.250000 0.750000 0.723022
O O6 0.287742 0.569217 0.831606
O O7 0.369171 0.758061 0.821064
O O8 0.369088 0.613837 0.691356
O O9 0.914775 0.460518 0.112580
O O10 0.882497 0.653123 0.022537
O O11 0.945630 0.687082 0.168054
O O12 0.036644 0.569472 0.067222
O O13 0.766883 0.602962 0.555949
O O14 0.897257 0.589979 0.651251
O O15 0.002145 0.346099 0.222887
O O16 0.750000 0.750000 0.437110
O O17 0.811226 0.982775 0.426993
#
# Coordination Sequence:
#
# PCOD9432567 Si02
#       8
#     8   8   8   8   8   8   8   8
#     4  10  23  40  69 102 127 180 236 277 336 400
#     4  11  24  43  66  96 133 173 230 283 338 402
#     4  11  22  43  67  95 133 179 228 271 341 416
#     4  11  25  43  64  98 139 174 217 286 349 408
#     4  11  22  39  70 101 126 181 227 280 337 403
#     4  12  25  42  68  97 136 181 219 277 355 412
#     4  11  23  42  66 101 139 175 225 288 337 410
#     4  11  24  44  71  96 132 181 233 286 331 417
#
# _framework density 21.92455
#
# number of rings (size 3 to 8) (size 9 to 14) (size 15 to 20)
#    0.000    1.000    5.000    2.250    7.000    0.000 
#    0.000    0.625    2.750    0.000    0.000    0.000 
#    0.000    0.000    0.000    0.000    0.000    0.000 
#
# Total GULP energy -357049.868649 kJ/mol
# GULP energy per Si atom -5578.904198 kJ/mol
# Density = 2.187465 g / cm^3
# Si number density = 21.924550 Si / 1000 Ang^3
#
#
#
# Elastic Constant Matrix: (Units=GPa)
#
#
# Indices 1 2 3 4 5 6 
#
# 1 73.1839 24.4368 14.2850 0.0000 0.0000 0.0000
# 2 24.4368 80.1035 6.7234 0.0000 0.0000 0.0000
# 3 14.2850 6.7234 78.1187 0.0000 0.0000 0.0000
# 4 0.0000 0.0000 0.0000 27.2068 0.0000 0.0000
# 5 0.0000 0.0000 0.0000 0.0000 19.9885 0.0000
# 6 0.0000 0.0000 0.0000 0.0000 0.0000 29.9635
#
#
#
# Elastic Compliance Matrix: (Units=1/GPa)
#
#
# Indices 1 2 3 4 5 6 
#
# 1 0.015674 -0.004574 -0.002473 0.000000 0.000000 0.000000
# 2 -0.004574 0.013910 -0.000361 0.000000 0.000000 0.000000
# 3 -0.002473 -0.000361 0.013284 0.000000 0.000000 0.000000
# 4 0.000000 0.000000 0.000000 0.036755 0.000000 0.000000
# 5 0.000000 0.000000 0.000000 0.000000 0.050029 0.000000
# 6 0.000000 0.000000 0.000000 0.000000 0.000000 0.033374
#
#
# Mechanical properties :
#
#
# Convention : Reuss Voigt Hill
#
# Bulk Modulus (GPa) = 35.64659 35.81072 35.72866
# Shear Modulus (GPa) = 26.71056 27.82916 27.26986
#
# Velocity S-wave (km/s) = 3.49419 3.56661 3.53059
# Velocity P-wave (km/s) = 5.70730 5.77322 5.74035
#
# Compressibility (1/GPa) = 0.02805317
#
# Stress axis : x y z
#
# Youngs Moduli (GPa) = 63.79923 71.89313 75.27734
#
# Poissons Ratio (x) = 0.32885 0.18613
# Poissons Ratio (y) = 0.29182 0.02715
# Poissons Ratio (z) = 0.15775 0.02593
#
# Static dielectric constant tensor:
#      x y z
#    x 1.819090 0.000000 0.000000 
#    y 0.000000 1.847670 0.000000 
#    z 0.000000 0.000000 1.827690 
# 
# From -- ./inp_files/12867.got.cif
#   From: 2010.05.17/outbox.cif.g08.bks.cpg/sg56_7_cif.got.tgz:12867.got - 2010.06.03 13:42:01.
