data_PCOD9432073
_publ_section_title
;
Structure prediction by ZEFSAII (Michael W. Deem and Ramdas Pophale) SiO2 
 PCOD9432073
Probable space group: P C C N
;
_chemical_formula_sum "Si O2"
_cell_formula_units_Z 48
_cell_length_a 5.077191
_cell_length_b 26.290404
_cell_length_c 17.878331
_cell_angle_alpha 90.000000
_cell_angle_beta 90.000000
_cell_angle_gamma 90.000000
_cell_volume 2386.424698
_symmetry_space_group_name_H-M "P C C N"
_symmetry_group_IT_number 56
_symmetry_cell_setting 'orthorhombic'
loop_
_space_group_symop_operation_xyz
x,y,z
1/2-x,1/2-y,z
1/2+x,-y,1/2-z
-x,1/2+y,1/2-z
-x,-y,-z
1/2+x,1/2+y,-z
1/2-x,y,1/2+z
x,1/2-y,1/2+z
loop_
_atom_site_type_symbol
_atom_site_label
_atom_site_fract_x
_atom_site_fract_y
_atom_site_fract_z
Si Si1 0.240300 0.310811 0.922000
Si Si2 0.161789 0.364938 0.577854
Si Si3 0.141757 0.630048 0.825237
Si Si4 0.565177 0.983673 0.791486
Si Si5 0.252040 0.482878 0.546991
Si Si6 0.262105 0.811332 0.675100
O O1 0.250000 0.250000 0.928895
O O2 0.463957 0.325604 0.863246
O O3 0.964298 0.325270 0.884283
O O4 0.304025 0.333299 0.002633
O O5 0.373934 0.346978 0.639796
O O6 0.237526 0.422469 0.556784
O O7 0.870553 0.367192 0.612537
O O8 0.063087 0.572124 0.803836
O O9 0.248888 0.659671 0.753314
O O10 0.698246 0.002760 0.868749
O O11 0.815297 0.983059 0.735445
O O12 0.500000 0.500000 0.500000
O O13 0.000000 0.500000 0.500000
O O14 0.250000 0.750000 0.686661
#
# Coordination Sequence:
#
# PCOD9432073 Si02
#       6
#     8   8   8   8   8   8
#     4  10  22  40  61  88 120 153 195 243 291 349
#     4  11  23  40  60  88 120 154 196 242 291 348
#     4  11  23  40  61  88 121 154 196 244 292 349
#     4  11  23  40  60  87 120 156 198 243 290 346
#     4  11  23  40  59  85 119 155 196 242 290 346
#     4  10  22  40  61  88 119 152 194 242 291 348
#
# _framework density 20.113772999999998
#
# number of rings (size 3 to 8) (size 9 to 14) (size 15 to 20)
#    0.000    1.333    0.000    7.000    0.000    5.333 
#    0.000    0.000    0.000    0.000    0.000    0.000 
#    0.000    0.000    0.000    0.000    0.000    0.000 
#
# Total GULP energy -268140.602382 kJ/mol
# GULP energy per Si atom -5586.262550 kJ/mol
# Density = 2.006799 g / cm^3
# Si number density = 20.113773 Si / 1000 Ang^3
#
#
#
# Elastic Constant Matrix: (Units=GPa)
#
#
# Indices 1 2 3 4 5 6 
#
# 1 131.3592 27.0470 38.0962 0.0000 0.0000 0.0000
# 2 27.0470 20.3938 40.7185 0.0000 0.0000 0.0000
# 3 38.0962 40.7185 119.9497 0.0000 0.0000 0.0000
# 4 0.0000 0.0000 0.0000 30.0871 0.0000 0.0000
# 5 0.0000 0.0000 0.0000 0.0000 49.0577 0.0000
# 6 0.0000 0.0000 0.0000 0.0000 0.0000 9.3564
#
#
#
# Elastic Compliance Matrix: (Units=1/GPa)
#
#
# Indices 1 2 3 4 5 6 
#
# 1 0.011243 -0.024149 0.004627 0.000000 0.000000 0.000000
# 2 -0.024149 0.204044 -0.061596 0.000000 0.000000 0.000000
# 3 0.004627 -0.061596 0.027777 0.000000 0.000000 0.000000
# 4 0.000000 0.000000 0.000000 0.033237 0.000000 0.000000
# 5 0.000000 0.000000 0.000000 0.000000 0.020384 0.000000
# 6 0.000000 0.000000 0.000000 0.000000 0.000000 0.106879
#
#
# Mechanical properties :
#
#
# Convention : Reuss Voigt Hill
#
# Bulk Modulus (GPa) = 12.37190 53.71402 33.04296
# Shear Modulus (GPa) = 8.43536 28.75632 18.59584
#
# Velocity S-wave (km/s) = 2.05010 3.78522 3.04391
# Velocity P-wave (km/s) = 3.43048 6.77251 5.36820
#
# Compressibility (1/GPa) = 0.08082835
#
# Stress axis : x y z
#
# Youngs Moduli (GPa) = 88.94284 4.90089 36.00125
#
# Poissons Ratio (x) = 0.11835 -0.16657
# Poissons Ratio (y) = 2.14790 2.21752
# Poissons Ratio (z) = -0.41153 0.30187
#
# Static dielectric constant tensor:
#      x y z
#    x 1.699790 0.000000 0.000000 
#    y 0.000000 1.700780 0.000000 
#    z 0.000000 0.000000 1.725250 
# 
# From -- ./inp_files/9667.got.cif
#   From: 2010.05.17/outbox.cif.g08.bks.cpg/sg56_5_cif.got.tgz:9667.got - 2010.06.03 13:42:01.
