data_PCOD9432611
_publ_section_title
;
Structure prediction by ZEFSAII (Michael W. Deem and Ramdas Pophale) SiO2 
 PCOD9432611
Probable space group: P C C N
;
_chemical_formula_sum "Si O2"
_cell_formula_units_Z 36
_cell_length_a 7.421723
_cell_length_b 8.588340
_cell_length_c 23.491413
_cell_angle_alpha 90.000000
_cell_angle_beta 90.000000
_cell_angle_gamma 90.000000
_cell_volume 1497.349254
_symmetry_space_group_name_H-M "P C C N"
_symmetry_group_IT_number 56
_symmetry_cell_setting 'orthorhombic'
loop_
_space_group_symop_operation_xyz
x,y,z
1/2-x,1/2-y,z
1/2+x,-y,1/2-z
-x,1/2+y,1/2-z
-x,-y,-z
1/2+x,1/2+y,-z
1/2-x,y,1/2+z
x,1/2-y,1/2+z
loop_
_atom_site_type_symbol
_atom_site_label
_atom_site_fract_x
_atom_site_fract_y
_atom_site_fract_z
Si Si1 0.518703 0.808607 0.586161
Si Si2 0.750000 0.750000 0.482061
Si Si3 0.330724 0.492662 0.605575
Si Si4 0.400620 0.056078 0.713179
Si Si5 0.750000 0.250000 0.232268
Si Si6 0.750000 0.750000 0.684491
O O1 0.618008 0.831237 0.526855
O O2 0.480237 0.626480 0.601006
O O3 0.342759 0.910494 0.585364
O O4 0.633753 0.853815 0.640991
O O5 0.636819 0.640682 0.440228
O O6 0.258847 0.425169 0.665728
O O7 0.592350 0.146192 0.700865
O O8 0.351327 0.136015 0.772962
O O9 0.365859 0.873291 0.729639
#
# Coordination Sequence:
#
# PCOD9432611 Si02
#       6
#     8   4   8   8   4   4
#     4  10  23  42  63  90 130 175 213 271 346 401
#     4  11  23  40  64  92 119 165 226 278 326 399
#     4  11  22  41  65  92 128 168 220 277 333 401
#     4  12  24  42  68 102 137 179 224 279 344 411
#     4  12  26  44  68 102 144 182 226 276 342 418
#     4  11  23  42  68  98 139 179 222 272 342 419
#
# _framework density 24.042486
#
# number of rings (size 3 to 8) (size 9 to 14) (size 15 to 20)
#    0.000    0.889    0.000    8.667    0.000    1.778 
#    0.000    4.444    0.000    0.000    0.000    0.000 
#    0.000    0.000    0.000    0.000    0.000    0.000 
#
# Total GULP energy -200684.048216 kJ/mol
# GULP energy per Si atom -5574.556895 kJ/mol
# Density = 2.398776 g / cm^3
# Si number density = 24.042486 Si / 1000 Ang^3
#
#
#
# Elastic Constant Matrix: (Units=GPa)
#
#
# Indices 1 2 3 4 5 6 
#
# 1 64.7733 1.1062 7.2648 0.0000 0.0000 0.0000
# 2 1.1062 94.2315 20.3595 0.0000 0.0000 0.0000
# 3 7.2648 20.3595 137.7164 0.0000 0.0000 0.0000
# 4 0.0000 0.0000 0.0000 23.1034 0.0000 0.0000
# 5 0.0000 0.0000 0.0000 0.0000 60.0595 0.0000
# 6 0.0000 0.0000 0.0000 0.0000 0.0000 33.3620
#
#
#
# Elastic Compliance Matrix: (Units=1/GPa)
#
#
# Indices 1 2 3 4 5 6 
#
# 1 0.015530 -0.000005 -0.000818 0.000000 0.000000 0.000000
# 2 -0.000005 0.010962 -0.001620 0.000000 0.000000 0.000000
# 3 -0.000818 -0.001620 0.007544 0.000000 0.000000 0.000000
# 4 0.000000 0.000000 0.000000 0.043284 0.000000 0.000000
# 5 0.000000 0.000000 0.000000 0.000000 0.016650 0.000000
# 6 0.000000 0.000000 0.000000 0.000000 0.000000 0.029974
#
#
# Mechanical properties :
#
#
# Convention : Reuss Voigt Hill
#
# Bulk Modulus (GPa) = 34.30752 39.35360 36.83056
# Shear Modulus (GPa) = 36.08823 41.17102 38.62963
#
# Velocity S-wave (km/s) = 3.87850 4.14264 4.01274
# Velocity P-wave (km/s) = 5.86153 6.26784 6.06809
#
# Compressibility (1/GPa) = 0.02914813
#
# Stress axis : x y z
#
# Youngs Moduli (GPa) = 64.39010 91.22157 132.55535
#
# Poissons Ratio (x) = 0.00050 0.10849
# Poissons Ratio (y) = 0.00035 0.21479
# Poissons Ratio (z) = 0.05270 0.14781
#
# Static dielectric constant tensor:
#      x y z
#    x 2.125300 0.000000 0.000000 
#    y 0.000000 2.009390 0.000000 
#    z 0.000000 0.000000 1.867120 
# 
# From -- ./inp_files/17908.got.cif
#   From: 2010.05.17/outbox.cif.g08.bks.cpg/sg56_9_cif.got.tgz:17908.got - 2010.06.03 13:42:01.
