data_PCOD9432716
_publ_section_title
;
Structure prediction by ZEFSAII (Michael W. Deem and Ramdas Pophale) SiO2 
 PCOD9432716
Probable space group: P C C N
;
_chemical_formula_sum "Si O2"
_cell_formula_units_Z 44
_cell_length_a 5.016495
_cell_length_b 26.588928
_cell_length_c 11.868609
_cell_angle_alpha 90.000000
_cell_angle_beta 90.000000
_cell_angle_gamma 90.000000
_cell_volume 1583.073337
_symmetry_space_group_name_H-M "P C C N"
_symmetry_group_IT_number 56
_symmetry_cell_setting 'orthorhombic'
loop_
_space_group_symop_operation_xyz
x,y,z
1/2-x,1/2-y,z
1/2+x,-y,1/2-z
-x,1/2+y,1/2-z
-x,-y,-z
1/2+x,1/2+y,-z
1/2-x,y,1/2+z
x,1/2-y,1/2+z
loop_
_atom_site_type_symbol
_atom_site_label
_atom_site_fract_x
_atom_site_fract_y
_atom_site_fract_z
Si Si1 0.830327 0.299592 0.853572
Si Si2 0.565832 0.603522 0.647817
Si Si3 0.066713 0.148644 0.030817
Si Si4 0.713062 0.453771 0.016803
Si Si5 0.130799 0.471452 0.213031
Si Si6 0.750000 0.750000 0.972150
O O1 0.750000 0.250000 0.783496
O O2 0.604952 0.327253 0.927931
O O3 0.952554 0.347461 0.790925
O O4 0.028216 0.273778 0.944496
O O5 0.345041 0.564501 0.602201
O O6 0.569184 0.507005 0.782486
O O7 0.676568 0.625186 0.530245
O O8 0.921588 0.097105 0.067796
O O9 0.149500 0.200431 0.093309
O O10 0.305841 0.420321 0.781346
O O11 0.500000 0.500000 0.000000
O O12 0.963910 0.465275 0.098477
#
# Coordination Sequence:
#
# PCOD9432716 Si02
#       6
#     8   8   8   8   8   4
#     4   8  15  31  62 103 140 182 241 305 378 472
#     4  10  23  44  70 107 151 198 256 323 397 473
#     4   9  18  35  65 102 142 192 244 313 388 469
#     4  11  26  48  74 107 159 210 265 329 407 481
#     4  12  31  47  69 108 154 209 274 330 393 480
#     4   8  14  30  58 102 138 176 252 302 374 474
#
# _framework density 27.794036999999999
#
# number of rings (size 3 to 8) (size 9 to 14) (size 15 to 20)
#    0.000    2.182    0.000    1.091   10.182    2.182 
#    0.000    0.000    0.000    0.000    0.000  188.364 
#   21.818    0.000    0.000    0.182    0.000    0.000 
#
# Total GULP energy -245592.554152 kJ/mol
# GULP energy per Si atom -5581.648958 kJ/mol
# Density = 2.773078 g / cm^3
# Si number density = 27.794037 Si / 1000 Ang^3
#
#
#
# Elastic Constant Matrix: (Units=GPa)
#
#
# Indices 1 2 3 4 5 6 
#
# 1 140.7353 89.8176 31.9562 0.0000 0.0000 0.0000
# 2 89.8176 296.8683 63.7253 0.0000 0.0000 0.0000
# 3 31.9562 63.7253 97.7353 0.0000 0.0000 0.0000
# 4 0.0000 0.0000 0.0000 35.7440 0.0000 0.0000
# 5 0.0000 0.0000 0.0000 0.0000 37.5156 0.0000
# 6 0.0000 0.0000 0.0000 0.0000 0.0000 82.9585
#
#
#
# Elastic Compliance Matrix: (Units=1/GPa)
#
#
# Indices 1 2 3 4 5 6 
#
# 1 0.008957 -0.002420 -0.001351 0.000000 0.000000 0.000000
# 2 -0.002420 0.004570 -0.002189 0.000000 0.000000 0.000000
# 3 -0.001351 -0.002189 0.012101 0.000000 0.000000 0.000000
# 4 0.000000 0.000000 0.000000 0.027977 0.000000 0.000000
# 5 0.000000 0.000000 0.000000 0.000000 0.026656 0.000000
# 6 0.000000 0.000000 0.000000 0.000000 0.000000 0.012054
#
#
# Mechanical properties :
#
#
# Convention : Reuss Voigt Hill
#
# Bulk Modulus (GPa) = 72.94591 100.70410 86.82501
# Shear Modulus (GPa) = 45.95482 54.56627 50.26055
#
# Velocity S-wave (km/s) = 4.07062 4.43565 4.25705
# Velocity P-wave (km/s) = 6.95668 7.90849 7.44781
#
# Compressibility (1/GPa) = 0.01370879
#
# Stress axis : x y z
#
# Youngs Moduli (GPa) = 111.64938 218.79523 82.64115
#
# Poissons Ratio (x) = 0.52946 0.11162
# Poissons Ratio (y) = 0.27018 0.18089
# Poissons Ratio (z) = 0.15080 0.47890
#
# Static dielectric constant tensor:
#      x y z
#    x 2.284770 0.000000 0.000000 
#    y 0.000000 2.500480 0.000000 
#    z 0.000000 0.000000 2.321640 
# 
# From -- ./inp_files/9621.got.cif
#   From: 2010.05.17/outbox.cif.g08.bks.cpg/sg56_5_cif.got.tgz:9621.got - 2010.06.03 13:42:01.
