data_PCOD9432674
_publ_section_title
;
Structure prediction by ZEFSAII (Michael W. Deem and Ramdas Pophale) SiO2 
 PCOD9432674
Probable space group: P C C N
;
_chemical_formula_sum "Si O2"
_cell_formula_units_Z 40
_cell_length_a 11.672681
_cell_length_b 7.011503
_cell_length_c 23.489953
_cell_angle_alpha 90.000000
_cell_angle_beta 90.000000
_cell_angle_gamma 90.000000
_cell_volume 1922.489112
_symmetry_space_group_name_H-M "P C C N"
_symmetry_group_IT_number 56
_symmetry_cell_setting 'orthorhombic'
loop_
_space_group_symop_operation_xyz
x,y,z
1/2-x,1/2-y,z
1/2+x,-y,1/2-z
-x,1/2+y,1/2-z
-x,-y,-z
1/2+x,1/2+y,-z
1/2-x,y,1/2+z
x,1/2-y,1/2+z
loop_
_atom_site_type_symbol
_atom_site_label
_atom_site_fract_x
_atom_site_fract_y
_atom_site_fract_z
Si Si1 0.750000 0.750000 0.116263
Si Si2 0.750000 0.750000 0.829747
Si Si3 0.079417 0.060471 0.083418
Si Si4 0.531750 0.799952 0.671406
Si Si5 0.654581 0.092590 0.751184
Si Si6 0.161831 0.919303 0.965375
O O1 0.857540 0.677928 0.153348
O O2 0.702679 0.583694 0.076907
O O3 0.853766 0.811037 0.871269
O O4 0.787088 0.571782 0.790340
O O5 0.963486 0.145947 0.056363
O O6 0.040870 0.870975 0.117515
O O7 0.153832 0.002777 0.028972
O O8 0.446226 0.696543 0.713857
O O9 0.591567 0.985295 0.699650
O O10 0.750000 0.250000 0.735559
O O11 0.250000 0.750000 0.963797
#
# Coordination Sequence:
#
# PCOD9432674 Si02
#       6
#     4   4   8   8   8   8
#     4  10  24  44  66 102 134 178 230 284 346 422
#     4  12  24  44  70  98 140 184 230 290 354 420
#     4  10  23  44  65 104 132 177 234 282 349 416
#     4  11  25  44  70  98 141 179 235 286 351 415
#     4  12  27  46  70 104 140 187 237 294 348 430
#     4  10  23  43  69  97 139 177 229 287 345 422
#
# _framework density 20.806359
#
# number of rings (size 3 to 8) (size 9 to 14) (size 15 to 20)
#    0.000    1.200    2.000    2.400    8.400    3.200 
#    0.000    4.000    0.000    0.000    0.000    0.000 
#    0.000    0.000    0.000    0.000    0.000    0.000 
#
# Total GULP energy -223664.020795 kJ/mol
# GULP energy per Si atom -5591.600520 kJ/mol
# Density = 2.075900 g / cm^3
# Si number density = 20.806359 Si / 1000 Ang^3
#
#
#
# Elastic Constant Matrix: (Units=GPa)
#
#
# Indices 1 2 3 4 5 6 
#
# 1 76.3558 40.7271 17.2285 0.0000 0.0000 0.0000
# 2 40.7271 71.3776 15.0601 0.0000 0.0000 0.0000
# 3 17.2285 15.0601 74.4936 0.0000 0.0000 0.0000
# 4 0.0000 0.0000 0.0000 6.6054 0.0000 0.0000
# 5 0.0000 0.0000 0.0000 0.0000 36.2030 0.0000
# 6 0.0000 0.0000 0.0000 0.0000 0.0000 46.9948
#
#
#
# Elastic Compliance Matrix: (Units=1/GPa)
#
#
# Indices 1 2 3 4 5 6 
#
# 1 0.019204 -0.010467 -0.002325 0.000000 0.000000 0.000000
# 2 -0.010467 0.020339 -0.001691 0.000000 0.000000 0.000000
# 3 -0.002325 -0.001691 0.014304 0.000000 0.000000 0.000000
# 4 0.000000 0.000000 0.000000 0.151392 0.000000 0.000000
# 5 0.000000 0.000000 0.000000 0.000000 0.027622 0.000000
# 6 0.000000 0.000000 0.000000 0.000000 0.000000 0.021279
#
#
# Mechanical properties :
#
#
# Convention : Reuss Voigt Hill
#
# Bulk Modulus (GPa) = 40.19296 40.91759 40.55528
# Shear Modulus (GPa) = 17.15855 27.90806 22.53331
#
# Velocity S-wave (km/s) = 2.87484 3.66638 3.29447
# Velocity P-wave (km/s) = 5.51173 6.13447 5.83142
#
# Compressibility (1/GPa) = 0.02487998
#
# Stress axis : x y z
#
# Youngs Moduli (GPa) = 52.07184 49.16624 69.91221
#
# Poissons Ratio (x) = 0.51463 0.16257
# Poissons Ratio (y) = 0.54504 0.11823
# Poissons Ratio (z) = 0.12109 0.08315
#
# Static dielectric constant tensor:
#      x y z
#    x 1.768600 0.000000 0.000000 
#    y 0.000000 1.717030 0.000000 
#    z 0.000000 0.000000 1.745220 
# 
# From -- ./inp_files/22198.got.cif
#   From: 2010.05.17/outbox.cif.g08.bks.cpg/sg56_12_cif.got.tgz:22198.got - 2010.06.03 13:42:01.
