data_PCOD9432091
_publ_section_title
;
Structure prediction by ZEFSAII (Michael W. Deem and Ramdas Pophale) SiO2 
 PCOD9432091
Probable space group: P C C N
;
_chemical_formula_sum "Si O2"
_cell_formula_units_Z 64
_cell_length_a 11.236666
_cell_length_b 9.471973
_cell_length_c 25.814859
_cell_angle_alpha 90.000000
_cell_angle_beta 90.000000
_cell_angle_gamma 90.000000
_cell_volume 2747.563135
_symmetry_space_group_name_H-M "P C C N"
_symmetry_group_IT_number 56
_symmetry_cell_setting 'orthorhombic'
loop_
_space_group_symop_operation_xyz
x,y,z
1/2-x,1/2-y,z
1/2+x,-y,1/2-z
-x,1/2+y,1/2-z
-x,-y,-z
1/2+x,1/2+y,-z
1/2-x,y,1/2+z
x,1/2-y,1/2+z
loop_
_atom_site_type_symbol
_atom_site_label
_atom_site_fract_x
_atom_site_fract_y
_atom_site_fract_z
Si Si1 0.120145 0.737011 0.494947
Si Si2 0.987470 0.418499 0.211417
Si Si3 0.173444 0.880054 0.663963
Si Si4 0.409937 0.966693 0.412328
Si Si5 0.869133 0.817535 0.756112
Si Si6 0.154130 0.917146 0.391050
Si Si7 0.039894 0.212878 0.409527
Si Si8 0.169797 0.377234 0.623023
O O1 0.250000 0.750000 0.520406
O O2 0.111557 0.579042 0.471955
O O3 0.018338 0.782254 0.533631
O O4 0.120976 0.833977 0.443446
O O5 0.896384 0.530047 0.234569
O O6 0.930651 0.374573 0.156534
O O7 0.109708 0.506950 0.201874
O O8 0.020910 0.290424 0.248883
O O9 0.250000 0.750000 0.686050
O O10 0.066515 0.814906 0.630739
O O11 0.255390 0.978389 0.627172
O O12 0.541032 0.907845 0.400431
O O13 0.295766 0.902781 0.382061
O O14 0.408876 0.132158 0.401489
O O15 0.750000 0.750000 0.733339
O O16 0.854741 0.831567 0.817743
O O17 0.127616 0.082162 0.401939
O O18 0.250000 0.250000 0.599608
#
# Coordination Sequence:
#
# PCOD9432091 Si02
#       8
#     8   8   8   8   8   8   8   8
#     4  10  22  40  63  92 134 174 225 275 321 394
#     4  11  25  43  69  96 135 176 218 276 344 393
#     4  11  22  41  67  97 130 175 219 276 330 394
#     4  11  23  41  65  97 133 177 221 273 329 400
#     4  11  25  44  66  99 134 167 226 280 326 407
#     4  10  24  44  65  94 136 175 216 272 340 402
#     4  11  22  39  66  96 132 172 223 270 335 387
#     4  11  23  45  68  92 136 172 225 275 331 393
#
# _framework density 23.293368000000001
#
# number of rings (size 3 to 8) (size 9 to 14) (size 15 to 20)
#    0.000    1.250    3.750    2.250    3.500    3.000 
#    0.000    1.250    0.000    0.000    0.000    0.000 
#    0.000    0.000    0.000    0.000    0.000    0.000 
#
# Total GULP energy -357992.555959 kJ/mol
# GULP energy per Si atom -5593.633687 kJ/mol
# Density = 2.324035 g / cm^3
# Si number density = 23.293368 Si / 1000 Ang^3
#
#
#
# Elastic Constant Matrix: (Units=GPa)
#
#
# Indices 1 2 3 4 5 6 
#
# 1 106.3524 16.5906 9.3586 0.0000 0.0000 0.0000
# 2 16.5906 99.4350 3.7248 0.0000 0.0000 0.0000
# 3 9.3586 3.7248 23.6272 0.0000 0.0000 0.0000
# 4 0.0000 0.0000 0.0000 23.0213 0.0000 0.0000
# 5 0.0000 0.0000 0.0000 0.0000 12.4780 0.0000
# 6 0.0000 0.0000 0.0000 0.0000 0.0000 51.8594
#
#
#
# Elastic Compliance Matrix: (Units=1/GPa)
#
#
# Indices 1 2 3 4 5 6 
#
# 1 0.009967 -0.001524 -0.003707 0.000000 0.000000 0.000000
# 2 -0.001524 0.010350 -0.001028 0.000000 0.000000 0.000000
# 3 -0.003707 -0.001028 0.043955 0.000000 0.000000 0.000000
# 4 0.000000 0.000000 0.000000 0.043438 0.000000 0.000000
# 5 0.000000 0.000000 0.000000 0.000000 0.080141 0.000000
# 6 0.000000 0.000000 0.000000 0.000000 0.000000 0.019283
#
#
# Mechanical properties :
#
#
# Convention : Reuss Voigt Hill
#
# Bulk Modulus (GPa) = 19.32290 32.08472 25.70381
# Shear Modulus (GPa) = 21.10575 30.78779 25.94677
#
# Velocity S-wave (km/s) = 3.01339 3.63952 3.34115
# Velocity P-wave (km/s) = 4.51894 5.60942 5.09345
#
# Compressibility (1/GPa) = 0.05175206
#
# Stress axis : x y z
#
# Youngs Moduli (GPa) = 100.33416 96.62199 22.75071
#
# Poissons Ratio (x) = 0.14726 0.08435
# Poissons Ratio (y) = 0.15291 0.02339
# Poissons Ratio (z) = 0.37199 0.09932
#
# Static dielectric constant tensor:
#      x y z
#    x 1.894840 0.000000 0.000000 
#    y 0.000000 1.948230 0.000000 
#    z 0.000000 0.000000 1.852230 
# 
# From -- ./inp_files/23521.got.cif
#   From: 2010.05.17/outbox.cif.g08.bks.cpg/sg56_12_cif.got.tgz:23521.got - 2010.06.03 13:42:01.
