data_PCOD9432512
_publ_section_title
;
Structure prediction by ZEFSAII (Michael W. Deem and Ramdas Pophale) SiO2 
 PCOD9432512
Probable space group: P C C N
;
_chemical_formula_sum "Si O2"
_cell_formula_units_Z 28
_cell_length_a 5.314527
_cell_length_b 18.656340
_cell_length_c 9.413049
_cell_angle_alpha 90.000000
_cell_angle_beta 90.000000
_cell_angle_gamma 90.000000
_cell_volume 933.300256
_symmetry_space_group_name_H-M "P C C N"
_symmetry_group_IT_number 56
_symmetry_cell_setting 'orthorhombic'
loop_
_space_group_symop_operation_xyz
x,y,z
1/2-x,1/2-y,z
1/2+x,-y,1/2-z
-x,1/2+y,1/2-z
-x,-y,-z
1/2+x,1/2+y,-z
1/2-x,y,1/2+z
x,1/2-y,1/2+z
loop_
_atom_site_type_symbol
_atom_site_label
_atom_site_fract_x
_atom_site_fract_y
_atom_site_fract_z
Si Si1 0.762496 0.905786 0.705251
Si Si2 0.250000 0.750000 0.470191
Si Si3 0.250000 0.250000 0.842203
Si Si4 0.075781 0.905181 0.434799
Si Si5 0.500000 0.000000 0.500000
O O1 0.776727 0.821703 0.746123
O O2 0.685266 0.936405 0.859526
O O3 0.994360 0.909575 0.598346
O O4 0.526642 0.927388 0.605845
O O5 0.501347 0.760893 0.563374
O O6 0.178528 0.826061 0.396245
O O7 0.288372 0.961503 0.399770
#
# Coordination Sequence:
#
# PCOD9432512 Si02
#       5
#     8   4   4   8   4
#     4  11  27  48  84 121 172 223 290 360 446 521
#     4  10  22  50  80 126 158 222 286 354 436 526
#     4  10  22  50  78 122 166 218 290 352 430 522
#     4  11  27  52  86 123 171 229 290 367 444 531
#     4  12  26  52  78 130 168 228 290 360 438 534
#
# _framework density 30.001062999999998
#
# number of rings (size 3 to 8) (size 9 to 14) (size 15 to 20)
#    0.000    1.143    2.857    0.857    4.000    8.000 
#    0.000    0.000    0.000    0.000    0.000    0.000 
#    0.000    0.000    0.000    0.000    0.000    0.000 
#
# Total GULP energy -155943.456178 kJ/mol
# GULP energy per Si atom -5569.409149 kJ/mol
# Density = 2.993278 g / cm^3
# Si number density = 30.001063 Si / 1000 Ang^3
#
#
#
# Elastic Constant Matrix: (Units=GPa)
#
#
# Indices 1 2 3 4 5 6 
#
# 1 228.1013 11.7678 42.3519 0.0000 0.0000 0.0000
# 2 11.7678 191.2468 1.5135 0.0000 0.0000 0.0000
# 3 42.3519 1.5135 138.4807 0.0000 0.0000 0.0000
# 4 0.0000 0.0000 0.0000 16.7267 0.0000 0.0000
# 5 0.0000 0.0000 0.0000 0.0000 -91.0914 0.0000
# 6 0.0000 0.0000 0.0000 0.0000 0.0000 49.1611
#
#
#
# Elastic Compliance Matrix: (Units=1/GPa)
#
#
# Indices 1 2 3 4 5 6 
#
# 1 0.004662 -0.000276 -0.001423 0.000000 0.000000 0.000000
# 2 -0.000276 0.005246 0.000027 0.000000 0.000000 0.000000
# 3 -0.001423 0.000027 0.007656 0.000000 0.000000 0.000000
# 4 0.000000 0.000000 0.000000 0.059785 0.000000 0.000000
# 5 0.000000 0.000000 0.000000 0.000000 -0.010978 0.000000
# 6 0.000000 0.000000 0.000000 0.000000 0.000000 0.020341
#
#
# Mechanical properties :
#
#
# Convention : Reuss Voigt Hill
#
# Bulk Modulus (GPa) = 70.31867 74.34392 72.33130
# Shear Modulus (GPa) = 52.74512 28.43899 40.59205
#
# Velocity S-wave (km/s) = 4.19753 3.08219 3.68233
# Velocity P-wave (km/s) = 6.85434 6.12379 6.49934
#
# Compressibility (1/GPa) = 0.01422097
#
# Stress axis : x y z
#
# Youngs Moduli (GPa) = 214.48036 190.63628 130.61481
#
# Poissons Ratio (x) = 0.05254 0.18585
# Poissons Ratio (y) = 0.05912 -0.00352
# Poissons Ratio (z) = 0.30519 -0.00514
#
# Static dielectric constant tensor:
#      x y z
#    x 2.461110 0.000000 0.000000 
#    y 0.000000 2.631210 0.000000 
#    z 0.000000 0.000000 2.020660 
# 
# From -- ./inp_files/5411.got.cif
#   From: 2010.05.17/outbox.cif.g08.bks.cpg/sg56_3_cif.got.tgz:5411.got - 2010.06.03 13:42:01.
