data_PCOD9432985
_publ_section_title
;
Structure prediction by ZEFSAII (Michael W. Deem and Ramdas Pophale) SiO2 
 PCOD9432985
Probable space group: P C C N
;
_chemical_formula_sum "Si O2"
_cell_formula_units_Z 40
_cell_length_a 16.739344
_cell_length_b 8.986701
_cell_length_c 10.876455
_cell_angle_alpha 90.000000
_cell_angle_beta 90.000000
_cell_angle_gamma 90.000000
_cell_volume 1636.161217
_symmetry_space_group_name_H-M "P C C N"
_symmetry_group_IT_number 56
_symmetry_cell_setting 'orthorhombic'
loop_
_space_group_symop_operation_xyz
x,y,z
1/2-x,1/2-y,z
1/2+x,-y,1/2-z
-x,1/2+y,1/2-z
-x,-y,-z
1/2+x,1/2+y,-z
1/2-x,y,1/2+z
x,1/2-y,1/2+z
loop_
_atom_site_type_symbol
_atom_site_label
_atom_site_fract_x
_atom_site_fract_y
_atom_site_fract_z
Si Si1 0.598974 0.842504 0.515246
Si Si2 0.164888 0.675383 0.136929
Si Si3 0.234501 0.411348 0.299392
Si Si4 0.545261 0.431954 0.808767
Si Si5 0.398494 0.486728 0.428298
O O1 0.682869 0.882231 0.577895
O O2 0.533491 0.882915 0.619141
O O3 0.593614 0.666331 0.497843
O O4 0.582551 0.938874 0.394791
O O5 0.250000 0.750000 0.104463
O O6 0.189093 0.532511 0.218001
O O7 0.106570 0.793846 0.200572
O O8 0.118246 0.623342 0.016232
O O9 0.250000 0.250000 0.237677
O O10 0.319756 0.468693 0.344021
O O11 0.531984 0.490766 0.671209
#
# Coordination Sequence:
#
# PCOD9432985 Si02
#       5
#     8   8   8   8   8
#     4  10  26  47  70  99 144 185 232 281 350 420
#     4  12  26  41  70 102 141 176 238 294 346 403
#     4  10  24  45  71  96 136 187 236 287 346 417
#     4  11  26  45  70 107 142 180 233 290 345 417
#     4  11  26  44  72  97 138 187 232 283 351 413
#
# _framework density 24.447468000000001
#
# number of rings (size 3 to 8) (size 9 to 14) (size 15 to 20)
#    0.000    1.200    2.000    1.200   14.000    3.200 
#    0.000    0.000    0.000    0.000    0.000    0.000 
#    0.000    0.000    0.000    0.000    0.000    0.000 
#
# Total GULP energy -224283.062479 kJ/mol
# GULP energy per Si atom -5607.076562 kJ/mol
# Density = 2.439182 g / cm^3
# Si number density = 24.447468 Si / 1000 Ang^3
#
#
#
# Elastic Constant Matrix: (Units=GPa)
#
#
# Indices 1 2 3 4 5 6 
#
# 1 85.2038 14.8844 18.3704 0.0000 0.0000 0.0000
# 2 14.8844 124.6262 42.4758 0.0000 0.0000 0.0000
# 3 18.3704 42.4758 54.7473 0.0000 0.0000 0.0000
# 4 0.0000 0.0000 0.0000 33.8685 0.0000 0.0000
# 5 0.0000 0.0000 0.0000 0.0000 31.5157 0.0000
# 6 0.0000 0.0000 0.0000 0.0000 0.0000 30.4855
#
#
#
# Elastic Compliance Matrix: (Units=1/GPa)
#
#
# Indices 1 2 3 4 5 6 
#
# 1 0.012653 -0.000087 -0.004178 0.000000 0.000000 0.000000
# 2 -0.000087 0.010909 -0.008435 0.000000 0.000000 0.000000
# 3 -0.004178 -0.008435 0.026212 0.000000 0.000000 0.000000
# 4 0.000000 0.000000 0.000000 0.029526 0.000000 0.000000
# 5 0.000000 0.000000 0.000000 0.000000 0.031730 0.000000
# 6 0.000000 0.000000 0.000000 0.000000 0.000000 0.032803
#
#
# Mechanical properties :
#
#
# Convention : Reuss Voigt Hill
#
# Bulk Modulus (GPa) = 41.02744 46.22649 43.62697
# Shear Modulus (GPa) = 28.19186 31.76372 29.97779
#
# Velocity S-wave (km/s) = 3.39951 3.60844 3.50553
# Velocity P-wave (km/s) = 5.67690 6.02583 5.85397
#
# Compressibility (1/GPa) = 0.02437393
#
# Stress axis : x y z
#
# Youngs Moduli (GPa) = 79.03527 91.66620 38.15097
#
# Poissons Ratio (x) = 0.00799 0.15939
# Poissons Ratio (y) = 0.00689 0.32179
# Poissons Ratio (z) = 0.33020 0.77317
#
# Static dielectric constant tensor:
#      x y z
#    x 1.929750 0.000000 0.000000 
#    y 0.000000 1.922600 0.000000 
#    z 0.000000 0.000000 1.902890 
# 
# From -- ./inp_files/6150.got.cif
#   From: 2010.05.17/outbox.cif.g08.bks.cpg/sg56_4_cif.got.tgz:6150.got - 2010.06.03 13:42:01.
