data_PCOD9432658
_publ_section_title
;
Structure prediction by ZEFSAII (Michael W. Deem and Ramdas Pophale) SiO2 
 PCOD9432658
Probable space group: P C C N
;
_chemical_formula_sum "Si O2"
_cell_formula_units_Z 40
_cell_length_a 12.974340
_cell_length_b 7.520097
_cell_length_c 18.902186
_cell_angle_alpha 90.000000
_cell_angle_beta 90.000000
_cell_angle_gamma 90.000000
_cell_volume 1844.254066
_symmetry_space_group_name_H-M "P C C N"
_symmetry_group_IT_number 56
_symmetry_cell_setting 'orthorhombic'
loop_
_space_group_symop_operation_xyz
x,y,z
1/2-x,1/2-y,z
1/2+x,-y,1/2-z
-x,1/2+y,1/2-z
-x,-y,-z
1/2+x,1/2+y,-z
1/2-x,y,1/2+z
x,1/2-y,1/2+z
loop_
_atom_site_type_symbol
_atom_site_label
_atom_site_fract_x
_atom_site_fract_y
_atom_site_fract_z
Si Si1 0.873664 0.730663 0.388205
Si Si2 0.633926 0.186442 0.358722
Si Si3 0.534434 0.809337 0.532848
Si Si4 0.517401 0.082823 0.228204
Si Si5 0.366545 0.272674 0.824274
O O1 0.750000 0.750000 0.380925
O O2 0.881874 0.521053 0.374064
O O3 0.915820 0.785153 0.465312
O O4 0.951511 0.825211 0.333813
O O5 0.750000 0.250000 0.366322
O O6 0.560758 0.269269 0.420365
O O7 0.597228 0.197574 0.276806
O O8 0.621793 0.814639 0.593114
O O9 0.500000 0.000000 0.500000
O O10 0.425624 0.066539 0.285937
O O11 0.576588 0.911052 0.198801
O O12 0.250000 0.250000 0.801752
#
# Coordination Sequence:
#
# PCOD9432658 Si02
#       5
#     8   8   8   8   8
#     4  11  23  41  68  96 131 179 231 285 352 416
#     4  10  23  43  67  94 137 183 225 282 353 415
#     4   9  22  45  64  91 139 175 229 291 343 421
#     4  11  24  41  68 101 140 177 235 292 345 428
#     4  11  24  44  70 101 141 185 235 295 359 420
#
# _framework density 21.688984999999999
#
# number of rings (size 3 to 8) (size 9 to 14) (size 15 to 20)
#    0.000    1.600    2.000    1.200    5.600    0.800 
#    7.200    0.000    0.000    0.000    0.000    0.000 
#    0.000    0.000    0.000    0.000    0.000    0.000 
#
# Total GULP energy -222686.399278 kJ/mol
# GULP energy per Si atom -5567.159982 kJ/mol
# Density = 2.163962 g / cm^3
# Si number density = 21.688985 Si / 1000 Ang^3
#
#
#
# Elastic Constant Matrix: (Units=GPa)
#
#
# Indices 1 2 3 4 5 6 
#
# 1 177.5782 58.5575 57.9375 0.0000 0.0000 0.0000
# 2 58.5575 81.3494 41.8627 0.0000 0.0000 0.0000
# 3 57.9375 41.8627 187.0104 0.0000 0.0000 0.0000
# 4 0.0000 0.0000 0.0000 16.4373 0.0000 0.0000
# 5 0.0000 0.0000 0.0000 0.0000 20.5044 0.0000
# 6 0.0000 0.0000 0.0000 0.0000 0.0000 40.8187
#
#
#
# Elastic Compliance Matrix: (Units=1/GPa)
#
#
# Indices 1 2 3 4 5 6 
#
# 1 0.007648 -0.004844 -0.001285 0.000000 0.000000 0.000000
# 2 -0.004844 0.016961 -0.002296 0.000000 0.000000 0.000000
# 3 -0.001285 -0.002296 0.006259 0.000000 0.000000 0.000000
# 4 0.000000 0.000000 0.000000 0.060837 0.000000 0.000000
# 5 0.000000 0.000000 0.000000 0.000000 0.048770 0.000000
# 6 0.000000 0.000000 0.000000 0.000000 0.000000 0.024499
#
#
# Mechanical properties :
#
#
# Convention : Reuss Voigt Hill
#
# Bulk Modulus (GPa) = 71.33563 84.73925 78.03744
# Shear Modulus (GPa) = 26.81012 34.72411 30.76711
#
# Velocity S-wave (km/s) = 3.51966 4.00559 3.77046
# Velocity P-wave (km/s) = 7.03413 7.78126 7.41711
#
# Compressibility (1/GPa) = 0.01401824
#
# Stress axis : x y z
#
# Youngs Moduli (GPa) = 130.75515 58.95896 159.75959
#
# Poissons Ratio (x) = 0.28559 0.20530
# Poissons Ratio (y) = 0.63336 0.36682
# Poissons Ratio (z) = 0.16803 0.13537
#
# Static dielectric constant tensor:
#      x y z
#    x 0.121170 0.000000 0.000000 
#    y 0.000000 1.901820 0.000000 
#    z 0.000000 0.000000 1.872780 
# 
# From -- ./inp_files/14452.got.cif
#   From: 2010.05.17/outbox.cif.g08.bks.cpg/sg56_8_cif.got.tgz:14452.got - 2010.06.03 13:42:01.
