data_PCOD9432229
_publ_section_title
;
Structure prediction by ZEFSAII (Michael W. Deem and Ramdas Pophale) SiO2 
 PCOD9432229
Probable space group: P C C N
;
_chemical_formula_sum "Si O2"
_cell_formula_units_Z 52
_cell_length_a 14.428912
_cell_length_b 6.001615
_cell_length_c 28.923558
_cell_angle_alpha 90.000000
_cell_angle_beta 90.000000
_cell_angle_gamma 90.000000
_cell_volume 2504.686835
_symmetry_space_group_name_H-M "P C C N"
_symmetry_group_IT_number 56
_symmetry_cell_setting 'orthorhombic'
loop_
_space_group_symop_operation_xyz
x,y,z
1/2-x,1/2-y,z
1/2+x,-y,1/2-z
-x,1/2+y,1/2-z
-x,-y,-z
1/2+x,1/2+y,-z
1/2-x,y,1/2+z
x,1/2-y,1/2+z
loop_
_atom_site_type_symbol
_atom_site_label
_atom_site_fract_x
_atom_site_fract_y
_atom_site_fract_z
Si Si1 0.491727 0.099274 0.861289
Si Si2 0.340723 0.101044 0.314414
Si Si3 0.152254 0.865640 0.566833
Si Si4 0.899025 0.067976 0.015987
Si Si5 0.250000 0.250000 0.028058
Si Si6 0.352938 0.738523 0.891668
Si Si7 0.540554 0.907694 0.765261
O O1 0.433787 0.289764 0.835516
O O2 0.571486 0.172886 0.896389
O O3 0.411869 0.960703 0.887378
O O4 0.534137 0.946996 0.820084
O O5 0.250000 0.250000 0.324141
O O6 0.359987 0.085609 0.260013
O O7 0.337852 0.870138 0.341618
O O8 0.250000 0.750000 0.579471
O O9 0.124072 0.783780 0.515423
O O10 0.178145 0.121728 0.560774
O O11 0.904823 0.091088 0.070822
O O12 0.815027 0.904741 0.002934
O O13 0.000000 0.000000 0.000000
O O14 0.250000 0.750000 0.912167
O O15 0.503609 0.649398 0.754744
#
# Coordination Sequence:
#
# PCOD9432229 Si02
#       7
#     8   8   8   8   4   8   8
#     4  11  23  42  67  92 135 173 224 284 342 416
#     4  11  23  41  65  97 137 173 218 284 346 419
#     4  10  23  44  62  92 128 178 229 278 333 402
#     4  11  24  39  63  92 128 177 223 275 345 411
#     4  10  22  42  60  84 134 168 220 282 326 408
#     4  12  23  37  62 101 130 169 223 276 350 417
#     4  10  22  44  67  97 134 183 226 281 347 412
#
# _framework density 20.761078000000001
#
# number of rings (size 3 to 8) (size 9 to 14) (size 15 to 20)
#    0.000    1.231    3.077    3.231    1.077    6.154 
#    1.385    3.846    0.000    0.000    0.000    0.000 
#    0.000    0.000    0.000    0.000    0.000    0.000 
#
# Total GULP energy -289609.504868 kJ/mol
# GULP energy per Si atom -5569.413555 kJ/mol
# Density = 2.071383 g / cm^3
# Si number density = 20.761078 Si / 1000 Ang^3
#
#
#
# Elastic Constant Matrix: (Units=GPa)
#
#
# Indices 1 2 3 4 5 6 
#
# 1 90.6045 14.2871 23.7954 0.0000 0.0000 0.0000
# 2 14.2871 49.1504 -1.3456 0.0000 0.0000 0.0000
# 3 23.7954 -1.3456 58.8706 0.0000 0.0000 0.0000
# 4 0.0000 0.0000 0.0000 19.4428 0.0000 0.0000
# 5 0.0000 0.0000 0.0000 0.0000 30.9316 0.0000
# 6 0.0000 0.0000 0.0000 0.0000 0.0000 27.9857
#
#
#
# Elastic Compliance Matrix: (Units=1/GPa)
#
#
# Indices 1 2 3 4 5 6 
#
# 1 0.013070 -0.003946 -0.005373 0.000000 0.000000 0.000000
# 2 -0.003946 0.021550 0.002088 0.000000 0.000000 0.000000
# 3 -0.005373 0.002088 0.019206 0.000000 0.000000 0.000000
# 4 0.000000 0.000000 0.000000 0.051433 0.000000 0.000000
# 5 0.000000 0.000000 0.000000 0.000000 0.032329 0.000000
# 6 0.000000 0.000000 0.000000 0.000000 0.000000 0.035732
#
#
# Mechanical properties :
#
#
# Convention : Reuss Voigt Hill
#
# Bulk Modulus (GPa) = 25.40489 30.23325 27.81907
# Shear Modulus (GPa) = 24.88724 26.46460 25.67592
#
# Velocity S-wave (km/s) = 3.46605 3.57420 3.52054
# Velocity P-wave (km/s) = 5.31802 5.62381 5.47305
#
# Compressibility (1/GPa) = 0.03936251
#
# Stress axis : x y z
#
# Youngs Moduli (GPa) = 76.50849 46.40369 52.06708
#
# Poissons Ratio (x) = 0.18313 0.27977
# Poissons Ratio (y) = 0.30194 -0.10870
# Poissons Ratio (z) = 0.41110 -0.09688
#
# Static dielectric constant tensor:
#      x y z
#    x 1.737460 0.000000 0.000000 
#    y 0.000000 1.818930 0.000000 
#    z 0.000000 0.000000 1.791700 
# 
# From -- ./inp_files/23617.got.cif
#   From: 2010.05.17/outbox.cif.g08.bks.cpg/sg56_12_cif.got.tgz:23617.got - 2010.06.03 13:42:01.
