data_PCOD9432877
_publ_section_title
;
Structure prediction by ZEFSAII (Michael W. Deem and Ramdas Pophale) SiO2 
 PCOD9432877
Probable space group: P C C N
;
_chemical_formula_sum "Si O2"
_cell_formula_units_Z 48
_cell_length_a 14.174594
_cell_length_b 17.512147
_cell_length_c 8.787155
_cell_angle_alpha 90.000000
_cell_angle_beta 90.000000
_cell_angle_gamma 90.000000
_cell_volume 2181.214166
_symmetry_space_group_name_H-M "P C C N"
_symmetry_group_IT_number 56
_symmetry_cell_setting 'orthorhombic'
loop_
_space_group_symop_operation_xyz
x,y,z
1/2-x,1/2-y,z
1/2+x,-y,1/2-z
-x,1/2+y,1/2-z
-x,-y,-z
1/2+x,1/2+y,-z
1/2-x,y,1/2+z
x,1/2-y,1/2+z
loop_
_atom_site_type_symbol
_atom_site_label
_atom_site_fract_x
_atom_site_fract_y
_atom_site_fract_z
Si Si1 0.078378 0.668579 0.165509
Si Si2 0.620614 0.031133 0.361166
Si Si3 0.529134 0.623353 0.968212
Si Si4 0.707278 0.410955 0.554291
Si Si5 0.384892 0.282105 0.462099
Si Si6 0.750000 0.250000 0.717302
Si Si7 0.750000 0.750000 0.790359
O O1 0.155730 0.735804 0.183348
O O2 0.038161 0.654704 0.333674
O O3 0.988440 0.684536 0.059098
O O4 0.135781 0.600801 0.086366
O O5 0.534433 0.088904 0.396777
O O6 0.700577 0.051121 0.484389
O O7 0.660892 0.043860 0.193231
O O8 0.584877 0.946523 0.393763
O O9 0.595691 0.691156 0.025063
O O10 0.733194 0.326921 0.621199
O O11 0.319621 0.300331 0.605765
O O12 0.320153 0.297348 0.316418
#
# Coordination Sequence:
#
# PCOD9432877 Si02
#       7
#     8   8   8   8   8   4   4
#     4  12  24  42  72 108 140 175 231 293 354 412
#     4  11  25  44  65  95 145 183 226 275 334 438
#     4  11  24  45  66  95 140 188 226 278 346 406
#     4  12  24  42  67 105 137 180 230 277 357 411
#     4  11  23  44  67 102 132 175 231 294 342 405
#     4  12  22  40  72 108 146 172 216 302 350 420
#     4  10  24  42  66  96 132 168 234 286 338 400
#
# _framework density 22.006093
#
# number of rings (size 3 to 8) (size 9 to 14) (size 15 to 20)
#    0.000    0.667    5.000    2.500    2.333    2.000 
#    0.000    0.000    0.000    0.000    0.000    0.000 
#    0.000    0.000    0.000    0.000    0.000    0.000 
#
# Total GULP energy -268477.051042 kJ/mol
# GULP energy per Si atom -5593.271897 kJ/mol
# Density = 2.195601 g / cm^3
# Si number density = 22.006093 Si / 1000 Ang^3
#
#
#
# Elastic Constant Matrix: (Units=GPa)
#
#
# Indices 1 2 3 4 5 6 
#
# 1 138.5735 35.3153 29.9541 0.0000 0.0000 0.0000
# 2 35.3153 46.4492 -2.3334 0.0000 0.0000 0.0000
# 3 29.9541 -2.3334 79.9069 0.0000 0.0000 0.0000
# 4 0.0000 0.0000 0.0000 8.9307 0.0000 0.0000
# 5 0.0000 0.0000 0.0000 0.0000 37.3483 0.0000
# 6 0.0000 0.0000 0.0000 0.0000 0.0000 26.4753
#
#
#
# Elastic Compliance Matrix: (Units=1/GPa)
#
#
# Indices 1 2 3 4 5 6 
#
# 1 0.010090 -0.007873 -0.004012 0.000000 0.000000 0.000000
# 2 -0.007873 0.027704 0.003760 0.000000 0.000000 0.000000
# 3 -0.004012 0.003760 0.014128 0.000000 0.000000 0.000000
# 4 0.000000 0.000000 0.000000 0.111974 0.000000 0.000000
# 5 0.000000 0.000000 0.000000 0.000000 0.026775 0.000000
# 6 0.000000 0.000000 0.000000 0.000000 0.000000 0.037771
#
#
# Mechanical properties :
#
#
# Convention : Reuss Voigt Hill
#
# Bulk Modulus (GPa) = 28.03312 43.42240 35.72776
# Shear Modulus (GPa) = 19.48687 28.01708 23.75197
#
# Velocity S-wave (km/s) = 2.97900 3.57200 3.28889
# Velocity P-wave (km/s) = 4.95974 6.06523 5.54013
#
# Compressibility (1/GPa) = 0.03567209
#
# Stress axis : x y z
#
# Youngs Moduli (GPa) = 99.10672 36.09627 70.77925
#
# Poissons Ratio (x) = 0.28419 0.28399
# Poissons Ratio (y) = 0.78028 -0.26615
# Poissons Ratio (z) = 0.39765 -0.13573
#
# Static dielectric constant tensor:
#      x y z
#    x 1.819980 0.000000 0.000000 
#    y 0.000000 1.774320 0.000000 
#    z 0.000000 0.000000 1.836470 
# 
# From -- ./inp_files/3410.got.cif
#   From: 2010.05.17/outbox.cif.g08.bks.cpg/sg56_2_cif.got.tgz:3410.got - 2010.06.03 13:42:01.
