data_PCOD9432948
_publ_section_title
;
Structure prediction by ZEFSAII (Michael W. Deem and Ramdas Pophale) SiO2 
 PCOD9432948
Probable space group: P C C N
;
_chemical_formula_sum "Si O2"
_cell_formula_units_Z 60
_cell_length_a 13.665981
_cell_length_b 12.259679
_cell_length_c 18.276478
_cell_angle_alpha 90.000000
_cell_angle_beta 90.000000
_cell_angle_gamma 90.000000
_cell_volume 3062.050999
_symmetry_space_group_name_H-M "P C C N"
_symmetry_group_IT_number 56
_symmetry_cell_setting 'orthorhombic'
loop_
_space_group_symop_operation_xyz
x,y,z
1/2-x,1/2-y,z
1/2+x,-y,1/2-z
-x,1/2+y,1/2-z
-x,-y,-z
1/2+x,1/2+y,-z
1/2-x,y,1/2+z
x,1/2-y,1/2+z
loop_
_atom_site_type_symbol
_atom_site_label
_atom_site_fract_x
_atom_site_fract_y
_atom_site_fract_z
Si Si1 0.660935 0.332050 0.449820
Si Si2 0.291923 0.085974 0.038683
Si Si3 0.318656 0.849316 0.217285
Si Si4 0.360646 0.119375 0.414314
Si Si5 0.750000 0.750000 0.704667
Si Si6 0.684785 0.938890 0.313128
Si Si7 0.025722 0.252909 0.033787
Si Si8 0.033175 0.915943 0.842610
O O1 0.750000 0.250000 0.467198
O O2 0.688187 0.457638 0.460329
O O3 0.640451 0.318036 0.363069
O O4 0.569866 0.308652 0.500974
O O5 0.220502 0.104772 0.107661
O O6 0.388308 0.159354 0.047168
O O7 0.237427 0.110565 0.963017
O O8 0.250000 0.750000 0.242760
O O9 0.403775 0.875489 0.274070
O O10 0.250677 0.956257 0.206443
O O11 0.332827 0.195324 0.346138
O O12 0.437327 0.172119 0.470042
O O13 0.402445 0.004623 0.386267
O O14 0.795755 0.844444 0.754638
O O15 0.570381 0.967289 0.317893
O O16 0.996401 0.184014 0.104843
#
# Coordination Sequence:
#
# PCOD9432948 Si02
#       8
#     8   8   8   8   4   8   8   8
#     4  10  24  44  69  95 138 184 222 279 342 411
#     4  11  23  46  67  99 140 176 227 285 346 403
#     4  10  25  47  66  97 140 178 226 279 342 410
#     4  12  25  42  69 102 131 175 229 279 340 412
#     4  12  24  44  68  96 142 172 226 290 342 404
#     4  11  25  45  69  98 138 182 225 284 344 410
#     4  12  24  42  69 102 133 179 227 280 343 407
#     4  12  26  42  71 103 131 185 228 281 350 407
#
# _framework density 19.594709999999999
#
# number of rings (size 3 to 8) (size 9 to 14) (size 15 to 20)
#    0.000    0.800    4.000    2.400    7.467    1.600 
#    4.800    0.000    0.000    0.000    0.000    0.000 
#    0.000    0.000    0.000    0.000    0.000    0.000 
#
# Total GULP energy -335560.050107 kJ/mol
# GULP energy per Si atom -5592.667502 kJ/mol
# Density = 1.955011 g / cm^3
# Si number density = 19.594710 Si / 1000 Ang^3
#
#
#
# Elastic Constant Matrix: (Units=GPa)
#
#
# Indices 1 2 3 4 5 6 
#
# 1 115.6789 41.9358 53.5720 0.0000 0.0000 0.0000
# 2 41.9358 96.8504 30.8043 0.0000 0.0000 0.0000
# 3 53.5720 30.8043 71.6479 0.0000 0.0000 0.0000
# 4 0.0000 0.0000 0.0000 28.7578 0.0000 0.0000
# 5 0.0000 0.0000 0.0000 0.0000 40.8120 0.0000
# 6 0.0000 0.0000 0.0000 0.0000 0.0000 28.4373
#
#
#
# Elastic Compliance Matrix: (Units=1/GPa)
#
#
# Indices 1 2 3 4 5 6 
#
# 1 0.014016 -0.003169 -0.009117 0.000000 0.000000 0.000000
# 2 -0.003169 0.012677 -0.003081 0.000000 0.000000 0.000000
# 3 -0.009117 -0.003081 0.022099 0.000000 0.000000 0.000000
# 4 0.000000 0.000000 0.000000 0.034773 0.000000 0.000000
# 5 0.000000 0.000000 0.000000 0.000000 0.024503 0.000000
# 6 0.000000 0.000000 0.000000 0.000000 0.000000 0.035165
#
#
# Mechanical properties :
#
#
# Convention : Reuss Voigt Hill
#
# Bulk Modulus (GPa) = 55.37881 59.64461 57.51171
# Shear Modulus (GPa) = 27.77988 30.12575 28.95282
#
# Velocity S-wave (km/s) = 3.76935 3.92528 3.84810
# Velocity P-wave (km/s) = 6.87514 7.14486 7.01129
#
# Compressibility (1/GPa) = 0.01805745
#
# Stress axis : x y z
#
# Youngs Moduli (GPa) = 71.34857 78.88133 45.25111
#
# Poissons Ratio (x) = 0.24997 0.41257
# Poissons Ratio (y) = 0.22610 0.13942
# Poissons Ratio (z) = 0.65050 0.24304
#
# Static dielectric constant tensor:
#      x y z
#    x 1.678170 0.000000 0.000000 
#    y 0.000000 1.690580 0.000000 
#    z 0.000000 0.000000 1.674380 
# 
# From -- ./inp_files/16327.got.cif
#   From: 2010.05.17/outbox.cif.g08.bks.cpg/sg56_9_cif.got.tgz:16327.got - 2010.06.03 13:42:01.
