data_PCOD9432663
_publ_section_title
;
Structure prediction by ZEFSAII (Michael W. Deem and Ramdas Pophale) SiO2 
 PCOD9432663
Probable space group: P C C N
;
_chemical_formula_sum "Si O2"
_cell_formula_units_Z 40
_cell_length_a 9.155563
_cell_length_b 8.234530
_cell_length_c 22.649843
_cell_angle_alpha 90.000000
_cell_angle_beta 90.000000
_cell_angle_gamma 90.000000
_cell_volume 1707.611487
_symmetry_space_group_name_H-M "P C C N"
_symmetry_group_IT_number 56
_symmetry_cell_setting 'orthorhombic'
loop_
_space_group_symop_operation_xyz
x,y,z
1/2-x,1/2-y,z
1/2+x,-y,1/2-z
-x,1/2+y,1/2-z
-x,-y,-z
1/2+x,1/2+y,-z
1/2-x,y,1/2+z
x,1/2-y,1/2+z
loop_
_atom_site_type_symbol
_atom_site_label
_atom_site_fract_x
_atom_site_fract_y
_atom_site_fract_z
Si Si1 0.016206 0.151603 0.228894
Si Si2 0.132589 0.919898 0.464131
Si Si3 0.803703 0.075526 0.916526
Si Si4 0.814457 0.975111 0.302650
Si Si5 0.607241 0.423219 0.102895
O O1 0.154608 0.028574 0.226668
O O2 0.093937 0.323624 0.221523
O O3 0.917094 0.119531 0.171203
O O4 0.914903 0.125871 0.285148
O O5 0.251114 0.928631 0.516842
O O6 0.090145 0.745070 0.435420
O O7 0.231306 0.992946 0.411035
O O8 0.000000 0.000000 0.500000
O O9 0.750000 0.250000 0.894351
O O10 0.719467 0.955440 0.872079
O O11 0.975053 0.042448 0.913388
#
# Coordination Sequence:
#
# PCOD9432663 Si02
#       5
#     8   8   8   8   8
#     4  10  23  43  67  99 133 176 220 277 334 401
#     4  11  23  40  68  97 127 173 220 272 337 400
#     4  11  23  43  66  94 134 178 224 276 336 404
#     4  10  24  41  68  99 133 173 223 275 337 399
#     4  10  23  44  65  96 135 173 216 275 341 397
#
# _framework density 23.424534000000001
#
# number of rings (size 3 to 8) (size 9 to 14) (size 15 to 20)
#    0.000    1.600    2.000    1.800    5.600    7.200 
#    0.000    0.000    0.000    0.000    0.000    0.000 
#    0.000    0.000    0.000    0.000    0.000    0.000 
#
# Total GULP energy -223064.199102 kJ/mol
# GULP energy per Si atom -5576.604978 kJ/mol
# Density = 2.337122 g / cm^3
# Si number density = 23.424534 Si / 1000 Ang^3
#
#
#
# Elastic Constant Matrix: (Units=GPa)
#
#
# Indices 1 2 3 4 5 6 
#
# 1 138.2389 35.6594 43.6924 0.0000 0.0000 0.0000
# 2 35.6594 47.2128 -13.2453 0.0000 0.0000 0.0000
# 3 43.6924 -13.2453 70.3119 0.0000 0.0000 0.0000
# 4 0.0000 0.0000 0.0000 14.0559 0.0000 0.0000
# 5 0.0000 0.0000 0.0000 0.0000 52.2423 0.0000
# 6 0.0000 0.0000 0.0000 0.0000 0.0000 45.8246
#
#
#
# Elastic Compliance Matrix: (Units=1/GPa)
#
#
# Indices 1 2 3 4 5 6 
#
# 1 0.014704 -0.014432 -0.011856 0.000000 0.000000 0.000000
# 2 -0.014432 0.036527 0.015849 0.000000 0.000000 0.000000
# 3 -0.011856 0.015849 0.024575 0.000000 0.000000 0.000000
# 4 0.000000 0.000000 0.000000 0.071145 0.000000 0.000000
# 5 0.000000 0.000000 0.000000 0.000000 0.019142 0.000000
# 6 0.000000 0.000000 0.000000 0.000000 0.000000 0.021822
#
#
# Mechanical properties :
#
#
# Convention : Reuss Voigt Hill
#
# Bulk Modulus (GPa) = 18.20528 43.10853 30.65690
# Shear Modulus (GPa) = 22.01664 35.06835 28.54249
#
# Velocity S-wave (km/s) = 3.06910 3.87341 3.49447
# Velocity P-wave (km/s) = 4.51087 6.20060 5.42196
#
# Compressibility (1/GPa) = 0.05492912
#
# Stress axis : x y z
#
# Youngs Moduli (GPa) = 68.01010 27.37697 40.69157
#
# Poissons Ratio (x) = 0.39509 0.48242
# Poissons Ratio (y) = 0.98149 -0.64491
# Poissons Ratio (z) = 0.80630 -0.43389
#
# Static dielectric constant tensor:
#      x y z
#    x 1.953310 0.000000 0.000000 
#    y 0.000000 1.988300 0.000000 
#    z 0.000000 0.000000 1.856190 
# 
# From -- ./inp_files/20285.got.cif
#   From: 2010.05.17/outbox.cif.g08.bks.cpg/sg56_11_cif.got.tgz:20285.got - 2010.06.03 13:42:01.
