data_PCOD9432384
_publ_section_title
;
Structure prediction by ZEFSAII (Michael W. Deem and Ramdas Pophale) SiO2 
 PCOD9432384
Probable space group: P C C N
;
_chemical_formula_sum "Si O2"
_cell_formula_units_Z 32
_cell_length_a 12.959273
_cell_length_b 10.869533
_cell_length_c 10.098404
_cell_angle_alpha 90.000000
_cell_angle_beta 90.000000
_cell_angle_gamma 90.000000
_cell_volume 1422.473765
_symmetry_space_group_name_H-M "P C C N"
_symmetry_group_IT_number 56
_symmetry_cell_setting 'orthorhombic'
loop_
_space_group_symop_operation_xyz
x,y,z
1/2-x,1/2-y,z
1/2+x,-y,1/2-z
-x,1/2+y,1/2-z
-x,-y,-z
1/2+x,1/2+y,-z
1/2-x,y,1/2+z
x,1/2-y,1/2+z
loop_
_atom_site_type_symbol
_atom_site_label
_atom_site_fract_x
_atom_site_fract_y
_atom_site_fract_z
Si Si1 0.190020 0.120305 0.223593
Si Si2 0.351903 0.466812 0.933199
Si Si3 0.626962 0.246293 0.591714
Si Si4 0.496899 0.749325 0.656807
O O1 0.250000 0.250000 0.198625
O O2 0.182203 0.051246 0.084590
O O3 0.255587 0.049794 0.334166
O O4 0.078131 0.153862 0.281257
O O5 0.397724 0.600847 0.912520
O O6 0.432127 0.360141 0.895942
O O7 0.750000 0.250000 0.584221
O O8 0.579426 0.295129 0.727810
O O9 0.570670 0.302711 0.464049
#
# Coordination Sequence:
#
# PCOD9432384 Si02
#       4
#     8   8   8   8
#     4  10  22  43  72 103 131 177 232 284 332 414
#     4  11  25  44  73 101 137 179 226 283 349 396
#     4  12  28  45  66 100 144 179 231 284 335 405
#     4  11  24  46  69  96 137 182 226 280 335 411
#
# _framework density 22.496022
#
# number of rings (size 3 to 8) (size 9 to 14) (size 15 to 20)
#    0.000    1.000    2.500    3.750   10.500    0.000 
#    0.000    2.500    0.000    0.000    0.000    0.000 
#    0.000    0.000    0.000    0.000    0.000    0.000 
#
# Total GULP energy -179232.953589 kJ/mol
# GULP energy per Si atom -5601.029800 kJ/mol
# Density = 2.244482 g / cm^3
# Si number density = 22.496022 Si / 1000 Ang^3
#
#
#
# Elastic Constant Matrix: (Units=GPa)
#
#
# Indices 1 2 3 4 5 6 
#
# 1 148.4996 -7.4007 87.5191 0.0000 0.0000 0.0000
# 2 -7.4007 31.8743 10.0177 0.0000 0.0000 0.0000
# 3 87.5191 10.0177 187.2976 0.0000 0.0000 0.0000
# 4 0.0000 0.0000 0.0000 13.6351 0.0000 0.0000
# 5 0.0000 0.0000 0.0000 0.0000 46.5079 0.0000
# 6 0.0000 0.0000 0.0000 0.0000 0.0000 16.1218
#
#
#
# Elastic Compliance Matrix: (Units=1/GPa)
#
#
# Indices 1 2 3 4 5 6 
#
# 1 0.009714 0.003745 -0.004739 0.000000 0.000000 0.000000
# 2 0.003745 0.033353 -0.003534 0.000000 0.000000 0.000000
# 3 -0.004739 -0.003534 0.007743 0.000000 0.000000 0.000000
# 4 0.000000 0.000000 0.000000 0.073340 0.000000 0.000000
# 5 0.000000 0.000000 0.000000 0.000000 0.021502 0.000000
# 6 0.000000 0.000000 0.000000 0.000000 0.000000 0.062028
#
#
# Mechanical properties :
#
#
# Convention : Reuss Voigt Hill
#
# Bulk Modulus (GPa) = 23.95013 60.88261 42.41637
# Shear Modulus (GPa) = 21.67752 33.75532 27.71642
#
# Velocity S-wave (km/s) = 3.10758 3.87783 3.51388
# Velocity P-wave (km/s) = 4.85238 6.86823 5.94635
#
# Compressibility (1/GPa) = 0.04175342
#
# Stress axis : x y z
#
# Youngs Moduli (GPa) = 102.94650 29.98196 129.15490
#
# Poissons Ratio (x) = -0.11228 0.61210
# Poissons Ratio (y) = -0.38552 0.45641
# Poissons Ratio (z) = 0.48789 0.10595
#
# Static dielectric constant tensor:
#      x y z
#    x 1.846430 0.000000 0.000000 
#    y 0.000000 1.814990 0.000000 
#    z 0.000000 0.000000 1.819720 
# 
# From -- ./inp_files/2430.got.cif
#   From: 2010.05.17/outbox.cif.g08.bks.cpg/sg56_2_cif.got.tgz:2430.got - 2010.06.03 13:42:01.
