data_PCOD9432525
_publ_section_title
;
Structure prediction by ZEFSAII (Michael W. Deem and Ramdas Pophale) SiO2 
 PCOD9432525
Probable space group: P C C N
;
_chemical_formula_sum "Si O2"
_cell_formula_units_Z 56
_cell_length_a 20.423296
_cell_length_b 9.467707
_cell_length_c 13.692491
_cell_angle_alpha 90.000000
_cell_angle_beta 90.000000
_cell_angle_gamma 90.000000
_cell_volume 2647.604467
_symmetry_space_group_name_H-M "P C C N"
_symmetry_group_IT_number 56
_symmetry_cell_setting 'orthorhombic'
loop_
_space_group_symop_operation_xyz
x,y,z
1/2-x,1/2-y,z
1/2+x,-y,1/2-z
-x,1/2+y,1/2-z
-x,-y,-z
1/2+x,1/2+y,-z
1/2-x,y,1/2+z
x,1/2-y,1/2+z
loop_
_atom_site_type_symbol
_atom_site_label
_atom_site_fract_x
_atom_site_fract_y
_atom_site_fract_z
Si Si1 0.692667 0.443315 0.627012
Si Si2 0.165433 0.876428 0.938451
Si Si3 0.403773 0.127807 0.990950
Si Si4 0.318690 0.663362 0.166583
Si Si5 0.540477 0.251909 0.273613
Si Si6 0.549313 0.920923 0.571708
Si Si7 0.990945 0.973444 0.355656
O O1 0.666688 0.290281 0.588241
O O2 0.769760 0.439783 0.609721
O O3 0.659124 0.563463 0.561991
O O4 0.680501 0.448030 0.743548
O O5 0.103156 0.962042 0.900773
O O6 0.173048 0.889497 0.055917
O O7 0.410950 0.295102 0.982841
O O8 0.463551 0.059482 0.929773
O O9 0.421469 0.071433 0.098598
O O10 0.250000 0.750000 0.173332
O O11 0.385127 0.750462 0.188583
O O12 0.494148 0.162419 0.348166
O O13 0.516894 0.411921 0.270796
O O14 0.529158 0.166278 0.174965
O O15 0.500000 0.000000 0.500000
#
# Coordination Sequence:
#
# PCOD9432525 Si02
#       7
#     8   8   8   8   8   8   8
#     4  11  23  42  69  95 131 179 224 280 339 413
#     4  11  24  41  69  97 131 174 230 278 335 417
#     4  10  23  43  62  91 135 171 219 273 350 395
#     4  12  22  40  65  99 131 175 226 276 333 408
#     4  11  24  39  66  97 133 169 226 279 342 409
#     4  11  25  42  65  96 131 178 220 285 345 409
#     4  10  23  38  64  95 127 171 211 281 334 406
#
# _framework density 21.151195999999999
#
# number of rings (size 3 to 8) (size 9 to 14) (size 15 to 20)
#    0.000    1.143    5.714    0.857    8.000    0.571 
#    0.000    0.000    0.000    1.714    0.000    0.000 
#    0.000    0.000    0.000    0.000    0.000    0.000 
#
# Total GULP energy -312554.281864 kJ/mol
# GULP energy per Si atom -5581.326462 kJ/mol
# Density = 2.110305 g / cm^3
# Si number density = 21.151196 Si / 1000 Ang^3
#
#
#
# Elastic Constant Matrix: (Units=GPa)
#
#
# Indices 1 2 3 4 5 6 
#
# 1 116.7518 36.4021 11.1505 0.0000 0.0000 0.0000
# 2 36.4021 94.5011 15.9245 0.0000 0.0000 0.0000
# 3 11.1505 15.9245 73.4714 0.0000 0.0000 0.0000
# 4 0.0000 0.0000 0.0000 21.9289 0.0000 0.0000
# 5 0.0000 0.0000 0.0000 0.0000 37.5475 0.0000
# 6 0.0000 0.0000 0.0000 0.0000 0.0000 29.2287
#
#
#
# Elastic Compliance Matrix: (Units=1/GPa)
#
#
# Indices 1 2 3 4 5 6 
#
# 1 0.009768 -0.003646 -0.000692 0.000000 0.000000 0.000000
# 2 -0.003646 0.012344 -0.002122 0.000000 0.000000 0.000000
# 3 -0.000692 -0.002122 0.014176 0.000000 0.000000 0.000000
# 4 0.000000 0.000000 0.000000 0.045602 0.000000 0.000000
# 5 0.000000 0.000000 0.000000 0.000000 0.026633 0.000000
# 6 0.000000 0.000000 0.000000 0.000000 0.000000 0.034213
#
#
# Mechanical properties :
#
#
# Convention : Reuss Voigt Hill
#
# Bulk Modulus (GPa) = 42.79535 45.74203 44.26869
# Shear Modulus (GPa) = 30.59126 32.49084 31.54105
#
# Velocity S-wave (km/s) = 3.80717 3.92359 3.86582
# Velocity P-wave (km/s) = 6.29309 6.49610 6.39540
#
# Compressibility (1/GPa) = 0.02336703
#
# Stress axis : x y z
#
# Youngs Moduli (GPa) = 102.37412 81.01134 70.54303
#
# Poissons Ratio (x) = 0.29537 0.04883
# Poissons Ratio (y) = 0.37326 0.14970
# Poissons Ratio (z) = 0.07086 0.17192
#
# Static dielectric constant tensor:
#      x y z
#    x 1.755370 0.000000 0.000000 
#    y 0.000000 1.743940 0.000000 
#    z 0.000000 0.000000 1.867140 
# 
# From -- ./inp_files/13075.got.cif
#   From: 2010.05.17/outbox.cif.g08.bks.cpg/sg56_7_cif.got.tgz:13075.got - 2010.06.03 13:42:01.
