data_PCOD9432733
_publ_section_title
;
Structure prediction by ZEFSAII (Michael W. Deem and Ramdas Pophale) SiO2 
 PCOD9432733
Probable space group: P C C N
;
_chemical_formula_sum "Si O2"
_cell_formula_units_Z 40
_cell_length_a 7.910961
_cell_length_b 16.658235
_cell_length_c 12.328092
_cell_angle_alpha 90.000000
_cell_angle_beta 90.000000
_cell_angle_gamma 90.000000
_cell_volume 1624.628601
_symmetry_space_group_name_H-M "P C C N"
_symmetry_group_IT_number 56
_symmetry_cell_setting 'orthorhombic'
loop_
_space_group_symop_operation_xyz
x,y,z
1/2-x,1/2-y,z
1/2+x,-y,1/2-z
-x,1/2+y,1/2-z
-x,-y,-z
1/2+x,1/2+y,-z
1/2-x,y,1/2+z
x,1/2-y,1/2+z
loop_
_atom_site_type_symbol
_atom_site_label
_atom_site_fract_x
_atom_site_fract_y
_atom_site_fract_z
Si Si1 0.452150 0.086359 0.950040
Si Si2 0.617602 0.658437 0.334656
Si Si3 0.004271 0.380797 0.583653
Si Si4 0.410497 0.703869 0.727067
Si Si5 0.431041 0.436827 0.867669
O O1 0.540986 0.129758 0.849311
O O2 0.260797 0.072712 0.909156
O O3 0.469749 0.149783 0.049043
O O4 0.500000 0.000000 0.000000
O O5 0.813403 0.651442 0.373501
O O6 0.555901 0.730594 0.256429
O O7 0.568699 0.583991 0.258095
O O8 0.977223 0.378659 0.454844
O O9 0.868817 0.334784 0.655605
O O10 0.999307 0.474395 0.614095
O O11 0.250000 0.750000 0.683941
#
# Coordination Sequence:
#
# PCOD9432733 Si02
#       5
#     8   8   8   8   8
#     4  11  26  48  75 110 157 205 260 317 392 468
#     4  11  25  45  75 106 152 195 249 326 383 451
#     4  10  23  45  72 109 144 197 253 314 378 465
#     4  12  28  46  75 113 159 201 259 319 395 462
#     4  10  23  44  77 105 146 200 262 305 389 470
#
# _framework density 24.621012
#
# number of rings (size 3 to 8) (size 9 to 14) (size 15 to 20)
#    0.000    1.200    2.000    1.800    5.600    5.600 
#    0.000    0.000    0.000    0.000    0.000    0.000 
#    0.000    0.000    0.000    0.000    0.000    0.000 
#
# Total GULP energy -223335.465988 kJ/mol
# GULP energy per Si atom -5583.386650 kJ/mol
# Density = 2.456497 g / cm^3
# Si number density = 24.621012 Si / 1000 Ang^3
#
#
#
# Elastic Constant Matrix: (Units=GPa)
#
#
# Indices 1 2 3 4 5 6 
#
# 1 65.4324 40.7112 17.9087 0.0000 0.0000 0.0000
# 2 40.7112 96.5061 21.8741 0.0000 0.0000 0.0000
# 3 17.9087 21.8741 109.8737 0.0000 0.0000 0.0000
# 4 0.0000 0.0000 0.0000 55.6590 0.0000 0.0000
# 5 0.0000 0.0000 0.0000 0.0000 12.0829 0.0000
# 6 0.0000 0.0000 0.0000 0.0000 0.0000 34.2012
#
#
#
# Elastic Compliance Matrix: (Units=1/GPa)
#
#
# Indices 1 2 3 4 5 6 
#
# 1 0.021035 -0.008479 -0.001740 0.000000 0.000000 0.000000
# 2 -0.008479 0.014270 -0.001459 0.000000 0.000000 0.000000
# 3 -0.001740 -0.001459 0.009675 0.000000 0.000000 0.000000
# 4 0.000000 0.000000 0.000000 0.017967 0.000000 0.000000
# 5 0.000000 0.000000 0.000000 0.000000 0.082762 0.000000
# 6 0.000000 0.000000 0.000000 0.000000 0.000000 0.029239
#
#
# Mechanical properties :
#
#
# Convention : Reuss Voigt Hill
#
# Bulk Modulus (GPa) = 46.24667 48.08890 47.16779
# Shear Modulus (GPa) = 24.32953 33.14317 28.73635
#
# Velocity S-wave (km/s) = 3.14691 3.67295 3.42006
# Velocity P-wave (km/s) = 5.65935 6.12874 5.89872
#
# Compressibility (1/GPa) = 0.02162318
#
# Stress axis : x y z
#
# Youngs Moduli (GPa) = 47.54004 70.07906 103.35415
#
# Poissons Ratio (x) = 0.59421 0.17989
# Poissons Ratio (y) = 0.40310 0.15077
# Poissons Ratio (z) = 0.08274 0.10223
#
# Static dielectric constant tensor:
#      x y z
#    x 1.986380 0.000000 0.000000 
#    y 0.000000 1.997320 0.000000 
#    z 0.000000 0.000000 2.002280 
# 
# From -- ./inp_files/6171.got.cif
#   From: 2010.05.17/outbox.cif.g08.bks.cpg/sg56_4_cif.got.tgz:6171.got - 2010.06.03 13:42:01.
