data_PCOD9432193
_publ_section_title
;
Structure prediction by ZEFSAII (Michael W. Deem and Ramdas Pophale) SiO2 
 PCOD9432193
Probable space group: P C C N
;
_chemical_formula_sum "Si O2"
_cell_formula_units_Z 32
_cell_length_a 7.925212
_cell_length_b 21.056396
_cell_length_c 8.651602
_cell_angle_alpha 90.000000
_cell_angle_beta 90.000000
_cell_angle_gamma 90.000000
_cell_volume 1443.748216
_symmetry_space_group_name_H-M "P C C N"
_symmetry_group_IT_number 56
_symmetry_cell_setting 'orthorhombic'
loop_
_space_group_symop_operation_xyz
x,y,z
1/2-x,1/2-y,z
1/2+x,-y,1/2-z
-x,1/2+y,1/2-z
-x,-y,-z
1/2+x,1/2+y,-z
1/2-x,y,1/2+z
x,1/2-y,1/2+z
loop_
_atom_site_type_symbol
_atom_site_label
_atom_site_fract_x
_atom_site_fract_y
_atom_site_fract_z
Si Si1 0.527750 0.796708 0.916061
Si Si2 0.460488 0.073670 0.502347
Si Si3 0.823653 0.313042 0.499364
Si Si4 0.694159 0.638482 0.705692
O O1 0.485551 0.721821 0.922564
O O2 0.339860 0.825496 0.894346
O O3 0.592378 0.819299 0.083127
O O4 0.664350 0.819502 0.794086
O O5 0.609561 0.120226 0.441576
O O6 0.417394 0.098812 0.674142
O O7 0.299144 0.088858 0.397813
O O8 0.500000 0.000000 0.500000
O O9 0.750000 0.250000 0.407203
#
# Coordination Sequence:
#
# PCOD9432193 Si02
#       4
#     8   8   8   8
#     4   8  20  40  65  92 121 164 212 266 318 370
#     4  11  25  42  63  95 131 173 210 259 328 389
#     4   8  21  43  60  96 125 169 212 270 313 385
#     4  10  22  41  66  94 127 164 210 270 311 380
#
# _framework density 22.164529999999999
#
# number of rings (size 3 to 8) (size 9 to 14) (size 15 to 20)
#    1.500    1.000    0.000    0.000    0.000   14.000 
#    9.000    5.000    0.000    0.000    0.000    0.000 
#    0.000    0.000    0.000    0.000    0.000    0.000 
#
# Total GULP energy -178365.041222 kJ/mol
# GULP energy per Si atom -5573.907538 kJ/mol
# Density = 2.211408 g / cm^3
# Si number density = 22.164530 Si / 1000 Ang^3
#
#
#
# Elastic Constant Matrix: (Units=GPa)
#
#
# Indices 1 2 3 4 5 6 
#
# 1 110.0634 74.3338 39.9002 0.0000 0.0000 0.0000
# 2 74.3338 183.8455 49.3936 0.0000 0.0000 0.0000
# 3 39.9002 49.3936 122.0174 0.0000 0.0000 0.0000
# 4 0.0000 0.0000 0.0000 11.3536 0.0000 0.0000
# 5 0.0000 0.0000 0.0000 0.0000 14.1979 0.0000
# 6 0.0000 0.0000 0.0000 0.0000 0.0000 36.8276
#
#
#
# Elastic Compliance Matrix: (Units=1/GPa)
#
#
# Indices 1 2 3 4 5 6 
#
# 1 0.013097 -0.004650 -0.002400 0.000000 0.000000 0.000000
# 2 -0.004650 0.007754 -0.001618 0.000000 0.000000 0.000000
# 3 -0.002400 -0.001618 0.009636 0.000000 0.000000 0.000000
# 4 0.000000 0.000000 0.000000 0.088077 0.000000 0.000000
# 5 0.000000 0.000000 0.000000 0.000000 0.070433 0.000000
# 6 0.000000 0.000000 0.000000 0.000000 0.000000 0.027154
#
#
# Mechanical properties :
#
#
# Convention : Reuss Voigt Hill
#
# Bulk Modulus (GPa) = 76.05297 82.57572 79.31434
# Shear Modulus (GPa) = 21.01977 29.29574 25.15775
#
# Velocity S-wave (km/s) = 3.08287 3.63952 3.37270
# Velocity P-wave (km/s) = 6.86000 7.41607 7.14345
#
# Compressibility (1/GPa) = 0.01314873
#
# Stress axis : x y z
#
# Youngs Moduli (GPa) = 76.35599 128.95799 103.78283
#
# Poissons Ratio (x) = 0.59972 0.24909
# Poissons Ratio (y) = 0.35509 0.16796
# Poissons Ratio (z) = 0.18326 0.20870
#
# Static dielectric constant tensor:
#      x y z
#    x 1.876870 0.000000 0.000000 
#    y 0.000000 1.770120 0.000000 
#    z 0.000000 0.000000 1.902580 
# 
# From -- ./inp_files/2016.got.cif
#   From: 2010.05.17/outbox.cif.g08.bks.cpg/sg56_2_cif.got.tgz:2016.got - 2010.06.03 13:42:01.
