data_PCOD9432762
_publ_section_title
;
Structure prediction by ZEFSAII (Michael W. Deem and Ramdas Pophale) SiO2 
 PCOD9432762
Probable space group: P C C N
;
_chemical_formula_sum "Si O2"
_cell_formula_units_Z 60
_cell_length_a 27.190321
_cell_length_b 8.905822
_cell_length_c 10.363783
_cell_angle_alpha 90.000000
_cell_angle_beta 90.000000
_cell_angle_gamma 90.000000
_cell_volume 2509.612428
_symmetry_space_group_name_H-M "P C C N"
_symmetry_group_IT_number 56
_symmetry_cell_setting 'orthorhombic'
loop_
_space_group_symop_operation_xyz
x,y,z
1/2-x,1/2-y,z
1/2+x,-y,1/2-z
-x,1/2+y,1/2-z
-x,-y,-z
1/2+x,1/2+y,-z
1/2-x,y,1/2+z
x,1/2-y,1/2+z
loop_
_atom_site_type_symbol
_atom_site_label
_atom_site_fract_x
_atom_site_fract_y
_atom_site_fract_z
Si Si1 0.506881 0.665500 0.064430
Si Si2 0.152981 0.770511 0.371074
Si Si3 0.694417 0.929159 0.082458
Si Si4 0.272850 0.608377 0.042671
Si Si5 0.562599 0.676598 0.336520
Si Si6 0.840478 0.825589 0.919382
Si Si7 0.908001 0.168216 0.372952
Si Si8 0.750000 0.750000 0.757066
O O1 0.544303 0.667576 0.187523
O O2 0.457585 0.734031 0.126988
O O3 0.500000 0.500000 0.000000
O O4 0.522952 0.771185 0.944133
O O5 0.202556 0.689192 0.417910
O O6 0.125499 0.698432 0.251532
O O7 0.119498 0.778435 0.498609
O O8 0.163315 0.946090 0.345937
O O9 0.741976 0.890014 0.166159
O O10 0.664857 0.778663 0.047613
O O11 0.723043 0.011410 0.967824
O O12 0.250000 0.750000 0.122011
O O13 0.317059 0.490852 0.071947
O O14 0.606457 0.797265 0.359347
O O15 0.580786 0.509693 0.374709
O O16 0.799851 0.744455 0.832844
#
# Coordination Sequence:
#
# PCOD9432762 Si02
#       8
#     8   8   8   8   8   8   8   4
#     4  12  29  55  83 118 156 208 266 344 423 500
#     4  11  27  45  76 113 153 204 265 326 401 482
#     4  11  23  45  65 106 151 205 259 325 392 467
#     4  10  23  46  67 105 157 209 259 327 395 473
#     4  12  29  49  83 117 161 205 270 332 413 497
#     4  12  25  44  72 109 154 205 271 328 389 484
#     4  12  27  51  76 110 157 202 263 334 416 487
#     4  12  24  38  76 102 152 202 260 316 394 462
#
# _framework density 23.908076000000001
#
# number of rings (size 3 to 8) (size 9 to 14) (size 15 to 20)
#    0.000    0.533    4.000    2.800    9.333    1.067 
#    0.000    0.000    0.000    0.000    0.000    0.000 
#    0.000    0.000    0.000    0.000    0.000    0.000 
#
# Total GULP energy -334858.611078 kJ/mol
# GULP energy per Si atom -5580.976851 kJ/mol
# Density = 2.385366 g / cm^3
# Si number density = 23.908076 Si / 1000 Ang^3
#
#
#
# Elastic Constant Matrix: (Units=GPa)
#
#
# Indices 1 2 3 4 5 6 
#
# 1 95.7674 32.9824 15.1080 0.0000 0.0000 0.0000
# 2 32.9824 130.7535 19.0455 0.0000 0.0000 0.0000
# 3 15.1080 19.0455 94.2636 0.0000 0.0000 0.0000
# 4 0.0000 0.0000 0.0000 8.1298 0.0000 0.0000
# 5 0.0000 0.0000 0.0000 0.0000 47.2071 0.0000
# 6 0.0000 0.0000 0.0000 0.0000 0.0000 52.4418
#
#
#
# Elastic Compliance Matrix: (Units=1/GPa)
#
#
# Indices 1 2 3 4 5 6 
#
# 1 0.011589 -0.002733 -0.001305 0.000000 0.000000 0.000000
# 2 -0.002733 0.008524 -0.001284 0.000000 0.000000 0.000000
# 3 -0.001305 -0.001284 0.011077 0.000000 0.000000 0.000000
# 4 0.000000 0.000000 0.000000 0.123005 0.000000 0.000000
# 5 0.000000 0.000000 0.000000 0.000000 0.021183 0.000000
# 6 0.000000 0.000000 0.000000 0.000000 0.000000 0.019069
#
#
# Mechanical properties :
#
#
# Convention : Reuss Voigt Hill
#
# Bulk Modulus (GPa) = 48.67246 50.56178 49.61712
# Shear Modulus (GPa) = 23.59140 38.46565 31.02853
#
# Velocity S-wave (km/s) = 3.14467 4.01546 3.60644
# Velocity P-wave (km/s) = 5.79549 6.53398 6.17578
#
# Compressibility (1/GPa) = 0.02054550
#
# Stress axis : x y z
#
# Youngs Moduli (GPa) = 86.28716 117.30897 90.27533
#
# Poissons Ratio (x) = 0.32063 0.11783
# Poissons Ratio (y) = 0.23584 0.11594
# Poissons Ratio (z) = 0.11262 0.15066
#
# Static dielectric constant tensor:
#      x y z
#    x 1.942780 0.000000 0.000000 
#    y 0.000000 2.016770 0.000000 
#    z 0.000000 0.000000 2.094360 
# 
# From -- ./inp_files/9084.got.cif
#   From: 2010.05.17/outbox.cif.g08.bks.cpg/sg56_5_cif.got.tgz:9084.got - 2010.06.03 13:42:01.
