data_PCOD9432702
_publ_section_title
;
Structure prediction by ZEFSAII (Michael W. Deem and Ramdas Pophale) SiO2 
 PCOD9432702
Probable space group: P C C N
;
_chemical_formula_sum "Si O2"
_cell_formula_units_Z 48
_cell_length_a 5.592810
_cell_length_b 14.629597
_cell_length_c 25.262050
_cell_angle_alpha 90.000000
_cell_angle_beta 90.000000
_cell_angle_gamma 90.000000
_cell_volume 2066.954987
_symmetry_space_group_name_H-M "P C C N"
_symmetry_group_IT_number 56
_symmetry_cell_setting 'orthorhombic'
loop_
_space_group_symop_operation_xyz
x,y,z
1/2-x,1/2-y,z
1/2+x,-y,1/2-z
-x,1/2+y,1/2-z
-x,-y,-z
1/2+x,1/2+y,-z
1/2-x,y,1/2+z
x,1/2-y,1/2+z
loop_
_atom_site_type_symbol
_atom_site_label
_atom_site_fract_x
_atom_site_fract_y
_atom_site_fract_z
Si Si1 0.079798 0.543980 0.756744
Si Si2 0.018780 0.408977 0.123203
Si Si3 0.997289 0.726880 0.721220
Si Si4 0.733536 0.563197 0.559396
Si Si5 0.103149 0.100970 0.047486
Si Si6 0.750000 0.750000 0.620913
Si Si7 0.250000 0.750000 0.437863
O O1 0.363999 0.528608 0.750418
O O2 0.031096 0.581035 0.815428
O O3 0.003324 0.618881 0.713826
O O4 0.955314 0.505059 0.093708
O O5 0.866154 0.327650 0.098315
O O6 0.284805 0.383395 0.105085
O O7 0.250000 0.750000 0.746461
O O8 0.750000 0.750000 0.750851
O O9 0.962407 0.770562 0.663388
O O10 0.692400 0.587618 0.497396
O O11 0.788874 0.658800 0.587656
O O12 0.952407 0.491726 0.554282
O O13 0.944365 0.188730 0.030945
#
# Coordination Sequence:
#
# PCOD9432702 Si02
#       7
#     8   8   8   8   8   4   4
#     4  12  28  46  76 103 144 192 244 302 373 436
#     4  11  25  42  74  97 147 181 245 298 364 431
#     4  10  24  44  66 100 139 180 237 299 353 429
#     4  10  23  44  67 107 137 189 234 300 360 434
#     4  10  23  45  69 100 149 181 242 291 368 435
#     4  10  24  40  70  98 142 182 244 290 366 428
#     4  10  24  42  66 106 136 190 234 296 360 438
#
# _framework density 23.222563999999998
#
# number of rings (size 3 to 8) (size 9 to 14) (size 15 to 20)
#    0.500    1.000    0.000    3.000   12.833    1.333 
#    1.500    0.000    0.000    0.000    0.000    0.000 
#    0.000    0.000    0.000    0.000    0.000    0.000 
#
# Total GULP energy -267468.588473 kJ/mol
# GULP energy per Si atom -5572.262260 kJ/mol
# Density = 2.316971 g / cm^3
# Si number density = 23.222564 Si / 1000 Ang^3
#
#
#
# Elastic Constant Matrix: (Units=GPa)
#
#
# Indices 1 2 3 4 5 6 
#
# 1 81.3766 15.5780 7.3079 0.0000 0.0000 0.0000
# 2 15.5780 116.2868 17.6777 0.0000 0.0000 0.0000
# 3 7.3079 17.6777 89.6479 0.0000 0.0000 0.0000
# 4 0.0000 0.0000 0.0000 9.0949 0.0000 0.0000
# 5 0.0000 0.0000 0.0000 0.0000 3.2888 0.0000
# 6 0.0000 0.0000 0.0000 0.0000 0.0000 20.3770
#
#
#
# Elastic Compliance Matrix: (Units=1/GPa)
#
#
# Indices 1 2 3 4 5 6 
#
# 1 0.012657 -0.001586 -0.000719 0.000000 0.000000 0.000000
# 2 -0.001586 0.009064 -0.001658 0.000000 0.000000 0.000000
# 3 -0.000719 -0.001658 0.011540 0.000000 0.000000 0.000000
# 4 0.000000 0.000000 0.000000 0.109951 0.000000 0.000000
# 5 0.000000 0.000000 0.000000 0.000000 0.304063 0.000000
# 6 0.000000 0.000000 0.000000 0.000000 0.000000 0.049075
#
#
# Mechanical properties :
#
#
# Convention : Reuss Voigt Hill
#
# Bulk Modulus (GPa) = 39.47168 40.93760 40.20464
# Shear Modulus (GPa) = 9.75187 23.00199 16.37693
#
# Velocity S-wave (km/s) = 2.05144 3.15064 2.65847
# Velocity P-wave (km/s) = 4.75870 5.55896 5.17432
#
# Compressibility (1/GPa) = 0.02533462
#
# Stress axis : x y z
#
# Youngs Moduli (GPa) = 79.00910 110.32688 86.65286
#
# Poissons Ratio (x) = 0.17500 0.06230
# Poissons Ratio (y) = 0.12533 0.14367
# Poissons Ratio (z) = 0.05680 0.18292
#
# Static dielectric constant tensor:
#      x y z
#    x 1.990990 0.000000 0.000000 
#    y 0.000000 1.902750 0.000000 
#    z 0.000000 0.000000 1.822000 
# 
# From -- ./inp_files/21729.got.cif
#   From: 2010.05.17/outbox.cif.g08.bks.cpg/sg56_11_cif.got.tgz:21729.got - 2010.06.03 13:42:01.
