data_PCOD9432115
_publ_section_title
;
Structure prediction by ZEFSAII (Michael W. Deem and Ramdas Pophale) SiO2 
 PCOD9432115
Probable space group: P C C N
;
_chemical_formula_sum "Si O2"
_cell_formula_units_Z 48
_cell_length_a 23.486550
_cell_length_b 4.991363
_cell_length_c 16.603759
_cell_angle_alpha 90.000000
_cell_angle_beta 90.000000
_cell_angle_gamma 90.000000
_cell_volume 1946.456952
_symmetry_space_group_name_H-M "P C C N"
_symmetry_group_IT_number 56
_symmetry_cell_setting 'orthorhombic'
loop_
_space_group_symop_operation_xyz
x,y,z
1/2-x,1/2-y,z
1/2+x,-y,1/2-z
-x,1/2+y,1/2-z
-x,-y,-z
1/2+x,1/2+y,-z
1/2-x,y,1/2+z
x,1/2-y,1/2+z
loop_
_atom_site_type_symbol
_atom_site_label
_atom_site_fract_x
_atom_site_fract_y
_atom_site_fract_z
Si Si1 0.369143 0.581126 0.090104
Si Si2 0.186336 0.229759 0.844381
Si Si3 0.505403 0.887321 0.410473
Si Si4 0.877853 0.243228 0.593689
Si Si5 0.529347 0.004714 0.793144
Si Si6 0.341176 0.076470 0.174926
O O1 0.435659 0.534499 0.118952
O O2 0.344956 0.282798 0.100413
O O3 0.329459 0.781538 0.141376
O O4 0.373238 0.706657 0.001791
O O5 0.250000 0.250000 0.877994
O O6 0.140257 0.444218 0.878892
O O7 0.188453 0.231664 0.747408
O O8 0.167658 0.931958 0.865286
O O9 0.500000 0.000000 0.500000
O O10 0.439372 0.869709 0.382071
O O11 0.518745 0.576982 0.387227
O O12 0.503273 0.759570 0.740716
O O13 0.596420 0.984120 0.787497
#
# Coordination Sequence:
#
# PCOD9432115 Si02
#       6
#     8   8   8   8   8   8
#     4  10  22  40  65  98 133 166 209 261 334 413
#     4  12  26  45  66  92 126 175 232 282 328 380
#     4   9  20  37  61  94 129 164 197 245 319 399
#     4  11  23  43  68  96 132 171 216 275 333 394
#     4  11  20  33  54  86 121 159 201 242 300 375
#     4  11  22  40  62  90 129 169 212 269 322 383
#
# _framework density 24.660188999999999
#
# number of rings (size 3 to 8) (size 9 to 14) (size 15 to 20)
#    0.000    1.333    0.000    6.500    0.000    2.667 
#    0.000   19.167    0.000    0.000    0.000    0.000 
#    0.000    0.000    0.000    0.000    0.000    0.000 
#
# Total GULP energy -267415.351901 kJ/mol
# GULP energy per Si atom -5571.153165 kJ/mol
# Density = 2.460406 g / cm^3
# Si number density = 24.660189 Si / 1000 Ang^3
#
#
#
# Elastic Constant Matrix: (Units=GPa)
#
#
# Indices 1 2 3 4 5 6 
#
# 1 50.4691 -19.2041 -13.3835 0.0000 0.0000 0.0000
# 2 -19.2041 121.5661 3.5324 0.0000 0.0000 0.0000
# 3 -13.3835 3.5324 64.5596 0.0000 0.0000 0.0000
# 4 0.0000 0.0000 0.0000 26.2560 0.0000 0.0000
# 5 0.0000 0.0000 0.0000 0.0000 -2.4695 0.0000
# 6 0.0000 0.0000 0.0000 0.0000 0.0000 -16.6314
#
#
#
# Elastic Compliance Matrix: (Units=1/GPa)
#
#
# Indices 1 2 3 4 5 6 
#
# 1 0.022280 0.003391 0.004433 0.000000 0.000000 0.000000
# 2 0.003391 0.008755 0.000224 0.000000 0.000000 0.000000
# 3 0.004433 0.000224 0.016396 0.000000 0.000000 0.000000
# 4 0.000000 0.000000 0.000000 0.038087 0.000000 0.000000
# 5 0.000000 0.000000 0.000000 0.000000 -0.404936 0.000000
# 6 0.000000 0.000000 0.000000 0.000000 0.000000 -0.060127
#
#
# Mechanical properties :
#
#
# Convention : Reuss Voigt Hill
#
# Bulk Modulus (GPa) = 15.74127 19.83158 17.78643
# Shear Modulus (GPa) = -13.35236 19.14101 2.89433
#
# Velocity S-wave (km/s) = -2.32944 2.78904 1.08454
# Velocity P-wave (km/s) = 0.91538 4.29314 2.96590
#
# Compressibility (1/GPa) = 0.06352727
#
# Stress axis : x y z
#
# Youngs Moduli (GPa) = 44.88341 114.21879 60.98918
#
# Poissons Ratio (x) = -0.38729 -0.27038
# Poissons Ratio (y) = -0.15219 -0.01366
# Poissons Ratio (z) = -0.19898 -0.02557
#
# Static dielectric constant tensor:
#      x y z
#    x 2.422280 0.000000 0.000000 
#    y 0.000000 1.962270 0.000000 
#    z 0.000000 0.000000 2.199990 
# 
# From -- ./inp_files/16935.got.cif
#   From: 2010.05.17/outbox.cif.g08.bks.cpg/sg56_9_cif.got.tgz:16935.got - 2010.06.03 13:42:01.
