data_PCOD9432554
_publ_section_title
;
Structure prediction by ZEFSAII (Michael W. Deem and Ramdas Pophale) SiO2 
 PCOD9432554
Probable space group: P C C N
;
_chemical_formula_sum "Si O2"
_cell_formula_units_Z 36
_cell_length_a 19.389255
_cell_length_b 7.359184
_cell_length_c 12.434976
_cell_angle_alpha 90.000000
_cell_angle_beta 90.000000
_cell_angle_gamma 90.000000
_cell_volume 1774.335474
_symmetry_space_group_name_H-M "P C C N"
_symmetry_group_IT_number 56
_symmetry_cell_setting 'orthorhombic'
loop_
_space_group_symop_operation_xyz
x,y,z
1/2-x,1/2-y,z
1/2+x,-y,1/2-z
-x,1/2+y,1/2-z
-x,-y,-z
1/2+x,1/2+y,-z
1/2-x,y,1/2+z
x,1/2-y,1/2+z
loop_
_atom_site_type_symbol
_atom_site_label
_atom_site_fract_x
_atom_site_fract_y
_atom_site_fract_z
Si Si1 0.169300 0.474501 0.980979
Si Si2 0.867724 0.082178 0.746425
Si Si3 0.406160 0.370015 0.047444
Si Si4 0.750000 0.250000 0.887158
Si Si5 0.439321 0.760375 0.439153
O O1 0.172311 0.482546 0.851453
O O2 0.102422 0.604823 0.003003
O O3 0.152658 0.274904 0.021608
O O4 0.231561 0.578271 0.038072
O O5 0.814049 0.202952 0.811810
O O6 0.923953 0.204474 0.683940
O O7 0.900350 0.944752 0.831461
O O8 0.480648 0.275408 0.033913
O O9 0.406253 0.545991 0.970312
#
# Coordination Sequence:
#
# PCOD9432554 Si02
#       5
#     8   8   8   4   8
#     4  10  24  42  66  94 131 171 220 266 325 395
#     4  10  23  40  63  96 125 177 208 271 319 384
#     4  11  21  43  71  97 129 175 212 274 347 390
#     4  12  22  46  64  86 144 170 214 278 318 372
#     4   9  23  42  65  99 136 158 219 278 328 391
#
# _framework density 20.289287000000002
#
# number of rings (size 3 to 8) (size 9 to 14) (size 15 to 20)
#    1.333    0.444    2.222    1.333    0.000    8.000 
#    0.000    2.222    0.000    0.000    0.000    0.000 
#    0.000    0.000    0.000    0.000    0.000    0.000 
#
# Total GULP energy -200746.830899 kJ/mol
# GULP energy per Si atom -5576.300858 kJ/mol
# Density = 2.024311 g / cm^3
# Si number density = 20.289287 Si / 1000 Ang^3
#
#
#
# Elastic Constant Matrix: (Units=GPa)
#
#
# Indices 1 2 3 4 5 6 
#
# 1 15.7944 13.6247 -2.0704 0.0000 0.0000 0.0000
# 2 13.6247 96.9521 33.3851 0.0000 0.0000 0.0000
# 3 -2.0704 33.3851 95.6188 0.0000 0.0000 0.0000
# 4 0.0000 0.0000 0.0000 11.7640 0.0000 0.0000
# 5 0.0000 0.0000 0.0000 0.0000 -25.0759 0.0000
# 6 0.0000 0.0000 0.0000 0.0000 0.0000 37.6236
#
#
#
# Elastic Compliance Matrix: (Units=1/GPa)
#
#
# Indices 1 2 3 4 5 6 
#
# 1 0.074984 -0.012613 0.006027 0.000000 0.000000 0.000000
# 2 -0.012613 0.013846 -0.005107 0.000000 0.000000 0.000000
# 3 0.006027 -0.005107 0.012372 0.000000 0.000000 0.000000
# 4 0.000000 0.000000 0.000000 0.085005 0.000000 0.000000
# 5 0.000000 0.000000 0.000000 0.000000 -0.039879 0.000000
# 6 0.000000 0.000000 0.000000 0.000000 0.000000 0.026579
#
#
# Mechanical properties :
#
#
# Convention : Reuss Voigt Hill
#
# Bulk Modulus (GPa) = 12.85091 33.13824 22.99457
# Shear Modulus (GPa) = 22.49915 15.75739 19.12827
#
# Velocity S-wave (km/s) = 3.33365 2.78984 3.07380
# Velocity P-wave (km/s) = 4.60057 5.17165 4.89445
#
# Compressibility (1/GPa) = 0.07781551
#
# Stress axis : x y z
#
# Youngs Moduli (GPa) = 13.33622 72.22545 80.82839
#
# Poissons Ratio (x) = 0.91098 -0.48718
# Poissons Ratio (y) = 0.16821 0.41281
# Poissons Ratio (z) = -0.08038 0.36887
#
# Static dielectric constant tensor:
#      x y z
#    x 1.753770 0.000000 0.000000 
#    y 0.000000 1.712910 0.000000 
#    z 0.000000 0.000000 1.692950 
# 
# From -- ./inp_files/13151.got.cif
#   From: 2010.05.17/outbox.cif.g08.bks.cpg/sg56_7_cif.got.tgz:13151.got - 2010.06.03 13:42:01.
