data_PCOD9432954
_publ_section_title
;
Structure prediction by ZEFSAII (Michael W. Deem and Ramdas Pophale) SiO2 
 PCOD9432954
Probable space group: P C C N
;
_chemical_formula_sum "Si O2"
_cell_formula_units_Z 60
_cell_length_a 17.062599
_cell_length_b 18.642619
_cell_length_c 9.260370
_cell_angle_alpha 90.000000
_cell_angle_beta 90.000000
_cell_angle_gamma 90.000000
_cell_volume 2945.645283
_symmetry_space_group_name_H-M "P C C N"
_symmetry_group_IT_number 56
_symmetry_cell_setting 'orthorhombic'
loop_
_space_group_symop_operation_xyz
x,y,z
1/2-x,1/2-y,z
1/2+x,-y,1/2-z
-x,1/2+y,1/2-z
-x,-y,-z
1/2+x,1/2+y,-z
1/2-x,y,1/2+z
x,1/2-y,1/2+z
loop_
_atom_site_type_symbol
_atom_site_label
_atom_site_fract_x
_atom_site_fract_y
_atom_site_fract_z
Si Si1 0.408543 0.215004 0.816350
Si Si2 0.807880 0.907015 0.528021
Si Si3 0.008599 0.564222 0.611616
Si Si4 0.851245 0.311951 0.058660
Si Si5 0.158438 0.370895 0.297940
Si Si6 0.015129 0.793253 0.955102
Si Si7 0.576636 0.033544 0.081403
Si Si8 0.250000 0.750000 0.201176
O O1 0.360427 0.151417 0.887718
O O2 0.354413 0.285236 0.797840
O O3 0.449652 0.193124 0.666840
O O4 0.475403 0.242371 0.925328
O O5 0.811696 0.891848 0.359043
O O6 0.720563 0.897515 0.585604
O O7 0.849450 0.982464 0.555764
O O8 0.924907 0.592447 0.670364
O O9 0.042606 0.633556 0.529403
O O10 0.000000 0.500000 0.500000
O O11 0.056645 0.538874 0.749668
O O12 0.897632 0.386185 0.037898
O O13 0.788538 0.308551 0.189822
O O14 0.811040 0.287148 0.909353
O O15 0.913263 0.251402 0.106311
O O16 0.500000 0.000000 0.000000
#
# Coordination Sequence:
#
# PCOD9432954 Si02
#       8
#     8   8   8   8   8   8   8   4
#     4  11  22  41  69  99 136 177 227 278 335 404
#     4  12  26  43  66  99 140 182 224 278 352 410
#     4  11  25  46  67 101 135 177 235 284 346 413
#     4  11  23  45  67 102 132 175 239 276 357 404
#     4  11  26  44  65  99 138 179 228 276 344 421
#     4  11  22  41  72  99 131 177 230 290 329 408
#     4  12  25  46  71  96 139 182 231 293 346 418
#     4  10  24  44  70  96 136 180 222 302 338 416
#
# _framework density 20.369052
#
# number of rings (size 3 to 8) (size 9 to 14) (size 15 to 20)
#    0.000    0.800    2.667    5.200    5.600    3.200 
#    4.800    0.000    0.000    0.000    0.000    0.000 
#    0.000    0.000    0.000    0.000    0.000    0.000 
#
# Total GULP energy -335603.821413 kJ/mol
# GULP energy per Si atom -5593.397024 kJ/mol
# Density = 2.032269 g / cm^3
# Si number density = 20.369052 Si / 1000 Ang^3
#
#
#
# Elastic Constant Matrix: (Units=GPa)
#
#
# Indices 1 2 3 4 5 6 
#
# 1 39.6841 12.5344 7.0428 0.0000 0.0000 0.0000
# 2 12.5344 57.9222 21.1148 0.0000 0.0000 0.0000
# 3 7.0428 21.1148 95.2903 0.0000 0.0000 0.0000
# 4 0.0000 0.0000 0.0000 29.2934 0.0000 0.0000
# 5 0.0000 0.0000 0.0000 0.0000 32.2298 0.0000
# 6 0.0000 0.0000 0.0000 0.0000 0.0000 -63.8013
#
#
#
# Elastic Compliance Matrix: (Units=1/GPa)
#
#
# Indices 1 2 3 4 5 6 
#
# 1 0.027099 -0.005585 -0.000765 0.000000 0.000000 0.000000
# 2 -0.005585 0.019933 -0.004004 0.000000 0.000000 0.000000
# 3 -0.000765 -0.004004 0.011438 0.000000 0.000000 0.000000
# 4 0.000000 0.000000 0.000000 0.034137 0.000000 0.000000
# 5 0.000000 0.000000 0.000000 0.000000 0.031027 0.000000
# 6 0.000000 0.000000 0.000000 0.000000 0.000000 -0.015674
#
#
# Mechanical properties :
#
#
# Convention : Reuss Voigt Hill
#
# Bulk Modulus (GPa) = 26.48251 30.47562 28.47907
# Shear Modulus (GPa) = 35.39656 9.69135 22.54396
#
# Velocity S-wave (km/s) = 4.17317 2.18362 3.33043
# Velocity P-wave (km/s) = 6.02080 4.62080 5.36665
#
# Compressibility (1/GPa) = 0.03776078
#
# Stress axis : x y z
#
# Youngs Moduli (GPa) = 36.90176 50.16860 87.42773
#
# Poissons Ratio (x) = 0.28021 0.06690
# Poissons Ratio (y) = 0.20611 0.35006
# Poissons Ratio (z) = 0.02824 0.20087
#
# Static dielectric constant tensor:
#      x y z
#    x 1.766880 0.000000 0.000000 
#    y 0.000000 1.715360 0.000000 
#    z 0.000000 0.000000 1.700260 
# 
# From -- ./inp_files/4133.got.cif
#   From: 2010.05.17/outbox.cif.g08.bks.cpg/sg56_3_cif.got.tgz:4133.got - 2010.06.03 13:42:01.
