data_PCOD9432206
_publ_section_title
;
Structure prediction by ZEFSAII (Michael W. Deem and Ramdas Pophale) SiO2 
 PCOD9432206
Probable space group: P C C N
;
_chemical_formula_sum "Si O2"
_cell_formula_units_Z 48
_cell_length_a 14.336023
_cell_length_b 17.481144
_cell_length_c 9.047096
_cell_angle_alpha 90.000000
_cell_angle_beta 90.000000
_cell_angle_gamma 90.000000
_cell_volume 2267.293474
_symmetry_space_group_name_H-M "P C C N"
_symmetry_group_IT_number 56
_symmetry_cell_setting 'orthorhombic'
loop_
_space_group_symop_operation_xyz
x,y,z
1/2-x,1/2-y,z
1/2+x,-y,1/2-z
-x,1/2+y,1/2-z
-x,-y,-z
1/2+x,1/2+y,-z
1/2-x,y,1/2+z
x,1/2-y,1/2+z
loop_
_atom_site_type_symbol
_atom_site_label
_atom_site_fract_x
_atom_site_fract_y
_atom_site_fract_z
Si Si1 0.065517 0.740852 0.227018
Si Si2 0.943905 0.800960 0.462049
Si Si3 0.319810 0.410334 0.405019
Si Si4 0.750000 0.250000 0.463229
Si Si5 0.250000 0.250000 0.985771
Si Si6 0.711102 0.013896 0.361795
Si Si7 0.673201 0.387505 0.123583
O O1 0.159503 0.756540 0.138218
O O2 0.087485 0.661700 0.312927
O O3 0.026676 0.799497 0.346126
O O4 0.983714 0.736307 0.109391
O O5 0.913136 0.884460 0.512411
O O6 0.847554 0.755839 0.423027
O O7 0.260593 0.330078 0.395126
O O8 0.334442 0.453735 0.251579
O O9 0.269028 0.465426 0.519596
O O10 0.751883 0.324637 0.565731
O O11 0.778428 0.064890 0.255838
O O12 0.649957 0.065152 0.474448
#
# Coordination Sequence:
#
# PCOD9432206 Si02
#       7
#     8   8   8   4   4   8   8
#     4  12  24  41  68 106 129 171 239 293 330 401
#     4  10  25  39  71 104 131 170 237 288 339 397
#     4   9  22  41  69 100 134 180 223 282 345 410
#     4  12  24  42  74  94 138 178 238 294 330 394
#     4   8  22  42  76  94 136 172 236 284 336 398
#     4  10  22  41  68 100 141 185 217 273 370 411
#     4  11  23  41  68  99 133 186 224 278 346 408
#
# _framework density 21.170617
#
# number of rings (size 3 to 8) (size 9 to 14) (size 15 to 20)
#    1.000    0.667    3.333    0.500    4.667    1.333 
#    0.000    1.667    0.000    0.000    0.000    0.000 
#    0.000    0.000    0.000    0.000    0.000    0.000 
#
# Total GULP energy -267340.157818 kJ/mol
# GULP energy per Si atom -5569.586621 kJ/mol
# Density = 2.112243 g / cm^3
# Si number density = 21.170617 Si / 1000 Ang^3
#
#
#
# Elastic Constant Matrix: (Units=GPa)
#
#
# Indices 1 2 3 4 5 6 
#
# 1 80.7504 10.5761 25.8045 0.0000 0.0000 0.0000
# 2 10.5761 52.6987 44.3577 0.0000 0.0000 0.0000
# 3 25.8045 44.3577 112.9443 0.0000 0.0000 0.0000
# 4 0.0000 0.0000 0.0000 22.5870 0.0000 0.0000
# 5 0.0000 0.0000 0.0000 0.0000 38.5046 0.0000
# 6 0.0000 0.0000 0.0000 0.0000 0.0000 312.1770
#
#
#
# Elastic Compliance Matrix: (Units=1/GPa)
#
#
# Indices 1 2 3 4 5 6 
#
# 1 0.013360 -0.000167 -0.002987 0.000000 0.000000 0.000000
# 2 -0.000167 0.028349 -0.011095 0.000000 0.000000 0.000000
# 3 -0.002987 -0.011095 0.013894 0.000000 0.000000 0.000000
# 4 0.000000 0.000000 0.000000 0.044273 0.000000 0.000000
# 5 0.000000 0.000000 0.000000 0.000000 0.025971 0.000000
# 6 0.000000 0.000000 0.000000 0.000000 0.000000 0.003203
#
#
# Mechanical properties :
#
#
# Convention : Reuss Voigt Hill
#
# Bulk Modulus (GPa) = 36.89502 45.31889 41.10695
# Shear Modulus (GPa) = 30.01492 85.69737 57.85615
#
# Velocity S-wave (km/s) = 3.76940 6.36924 5.23334
# Velocity P-wave (km/s) = 6.03406 8.69153 7.48173
#
# Compressibility (1/GPa) = 0.02710393
#
# Stress axis : x y z
#
# Youngs Moduli (GPa) = 74.84934 35.27502 71.97399
#
# Poissons Ratio (x) = 0.00590 0.21497
# Poissons Ratio (y) = 0.01252 0.79858
# Poissons Ratio (z) = 0.22355 0.39139
#
# Static dielectric constant tensor:
#      x y z
#    x 1.787160 0.000000 0.000000 
#    y 0.000000 1.833620 0.000000 
#    z 0.000000 0.000000 1.795960 
# 
# From -- ./inp_files/3435.got.cif
#   From: 2010.05.17/outbox.cif.g08.bks.cpg/sg56_2_cif.got.tgz:3435.got - 2010.06.03 13:42:01.
