data_PCOD9432804
_publ_section_title
;
Structure prediction by ZEFSAII (Michael W. Deem and Ramdas Pophale) SiO2 
 PCOD9432804
Probable space group: P C C N
;
_chemical_formula_sum "Si O2"
_cell_formula_units_Z 40
_cell_length_a 8.920104
_cell_length_b 16.476154
_cell_length_c 10.486022
_cell_angle_alpha 90.000000
_cell_angle_beta 90.000000
_cell_angle_gamma 90.000000
_cell_volume 1541.120243
_symmetry_space_group_name_H-M "P C C N"
_symmetry_group_IT_number 56
_symmetry_cell_setting 'orthorhombic'
loop_
_space_group_symop_operation_xyz
x,y,z
1/2-x,1/2-y,z
1/2+x,-y,1/2-z
-x,1/2+y,1/2-z
-x,-y,-z
1/2+x,1/2+y,-z
1/2-x,y,1/2+z
x,1/2-y,1/2+z
loop_
_atom_site_type_symbol
_atom_site_label
_atom_site_fract_x
_atom_site_fract_y
_atom_site_fract_z
Si Si1 0.061212 0.544072 0.193118
Si Si2 0.653429 0.167347 0.619478
Si Si3 0.312676 0.408865 0.503395
Si Si4 0.601793 0.724064 0.295028
Si Si5 0.518935 0.408419 0.884314
O O1 0.176432 0.604230 0.265013
O O2 0.144163 0.482320 0.098515
O O3 0.976867 0.489593 0.299758
O O4 0.934351 0.588595 0.110325
O O5 0.750000 0.250000 0.608328
O O6 0.489152 0.200966 0.651900
O O7 0.640708 0.115483 0.490609
O O8 0.341883 0.329596 0.587337
O O9 0.503487 0.331401 0.791010
O O10 0.750000 0.750000 0.219778
O O11 0.854767 0.915593 0.048821
#
# Coordination Sequence:
#
# PCOD9432804 Si02
#       5
#     8   8   8   8   8
#     4  10  25  47  74 113 150 202 260 316 380 463
#     4  12  28  48  73 115 160 196 242 326 394 451
#     4  10  23  48  78 107 143 200 263 314 367 466
#     4  11  24  45  77 108 140 194 255 309 370 449
#     4  11  25  48  77 107 151 200 254 311 383 466
#
# _framework density 25.955145999999999
#
# number of rings (size 3 to 8) (size 9 to 14) (size 15 to 20)
#    0.000    1.200    2.000    1.800    8.400    5.600 
#    7.200    0.000    0.000    4.800    0.000    0.000 
#    0.000    0.000    0.000    0.000    0.000    0.000 
#
# Total GULP energy -224406.179018 kJ/mol
# GULP energy per Si atom -5610.154475 kJ/mol
# Density = 2.589607 g / cm^3
# Si number density = 25.955146 Si / 1000 Ang^3
#
#
#
# Elastic Constant Matrix: (Units=GPa)
#
#
# Indices 1 2 3 4 5 6 
#
# 1 67.7089 20.4189 31.3316 0.0000 0.0000 0.0000
# 2 20.4189 110.5325 51.2932 0.0000 0.0000 0.0000
# 3 31.3316 51.2932 149.3353 0.0000 0.0000 0.0000
# 4 0.0000 0.0000 0.0000 48.8070 0.0000 0.0000
# 5 0.0000 0.0000 0.0000 0.0000 32.4259 0.0000
# 6 0.0000 0.0000 0.0000 0.0000 0.0000 54.9306
#
#
#
# Elastic Compliance Matrix: (Units=1/GPa)
#
#
# Indices 1 2 3 4 5 6 
#
# 1 0.016630 -0.001728 -0.002895 0.000000 0.000000 0.000000
# 2 -0.001728 0.010942 -0.003396 0.000000 0.000000 0.000000
# 3 -0.002895 -0.003396 0.008470 0.000000 0.000000 0.000000
# 4 0.000000 0.000000 0.000000 0.020489 0.000000 0.000000
# 5 0.000000 0.000000 0.000000 0.000000 0.030840 0.000000
# 6 0.000000 0.000000 0.000000 0.000000 0.000000 0.018205
#
#
# Mechanical properties :
#
#
# Convention : Reuss Voigt Hill
#
# Bulk Modulus (GPa) = 49.99185 59.29601 54.64393
# Shear Modulus (GPa) = 38.97633 42.20155 40.58894
#
# Velocity S-wave (km/s) = 3.87936 4.03667 3.95880
# Velocity P-wave (km/s) = 6.27444 6.67993 6.48035
#
# Compressibility (1/GPa) = 0.02000326
#
# Stress axis : x y z
#
# Youngs Moduli (GPa) = 60.13161 91.38896 118.06121
#
# Poissons Ratio (x) = 0.15796 0.34184
# Poissons Ratio (y) = 0.10394 0.40091
# Poissons Ratio (z) = 0.17411 0.31033
#
# Static dielectric constant tensor:
#      x y z
#    x 2.023240 0.000000 0.000000 
#    y 0.000000 1.965010 0.000000 
#    z 0.000000 0.000000 2.021520 
# 
# From -- ./inp_files/2569.got.cif
#   From: 2010.05.17/outbox.cif.g08.bks.cpg/sg56_2_cif.got.tgz:2569.got - 2010.06.03 13:42:01.
