data_PCOD9432945
_publ_section_title
;
Structure prediction by ZEFSAII (Michael W. Deem and Ramdas Pophale) SiO2 
 PCOD9432945
Probable space group: P C C N
;
_chemical_formula_sum "Si O2"
_cell_formula_units_Z 60
_cell_length_a 14.989137
_cell_length_b 20.723362
_cell_length_c 8.946969
_cell_angle_alpha 90.000000
_cell_angle_beta 90.000000
_cell_angle_gamma 90.000000
_cell_volume 2779.155038
_symmetry_space_group_name_H-M "P C C N"
_symmetry_group_IT_number 56
_symmetry_cell_setting 'orthorhombic'
loop_
_space_group_symop_operation_xyz
x,y,z
1/2-x,1/2-y,z
1/2+x,-y,1/2-z
-x,1/2+y,1/2-z
-x,-y,-z
1/2+x,1/2+y,-z
1/2-x,y,1/2+z
x,1/2-y,1/2+z
loop_
_atom_site_type_symbol
_atom_site_label
_atom_site_fract_x
_atom_site_fract_y
_atom_site_fract_z
Si Si1 0.650643 0.527294 0.197637
Si Si2 0.778510 0.465679 0.411811
Si Si3 0.497792 0.608790 0.550700
Si Si4 0.250000 0.750000 0.423367
Si Si5 0.172979 0.837180 0.666519
Si Si6 0.446821 0.513105 0.295865
Si Si7 0.863407 0.710127 0.944700
Si Si8 0.316487 0.327082 0.889817
O O1 0.706119 0.517480 0.350409
O O2 0.546537 0.515327 0.227254
O O3 0.661239 0.597989 0.127038
O O4 0.696940 0.477685 0.083411
O O5 0.738085 0.395850 0.377272
O O6 0.869936 0.475335 0.321874
O O7 0.426462 0.635407 0.667840
O O8 0.445654 0.567539 0.424583
O O9 0.562092 0.556868 0.628394
O O10 0.551379 0.666283 0.474909
O O11 0.180826 0.785470 0.532523
O O12 0.296512 0.802121 0.316479
O O13 0.783625 0.683003 0.049679
O O14 0.874491 0.784345 0.994580
O O15 0.833039 0.702406 0.774324
#
# Coordination Sequence:
#
# PCOD9432945 Si02
#       8
#     8   8   8   4   8   8   8   8
#     4  12  24  43  68 104 131 173 222 282 338 404
#     4  12  25  43  74  97 136 177 220 287 348 404
#     4  11  23  42  68  99 135 176 225 281 340 404
#     4  10  24  44  68  98 128 178 228 278 332 420
#     4  11  23  45  69  97 134 178 227 278 351 399
#     4  11  24  42  66 103 137 173 226 283 341 411
#     4  11  23  41  63  91 131 178 219 272 327 408
#     4  11  23  41  63  93 131 174 221 267 335 399
#
# _framework density 21.589296000000001
#
# number of rings (size 3 to 8) (size 9 to 14) (size 15 to 20)
#    0.000    0.800    2.667    6.000    1.867    2.133 
#    4.800    0.000    0.000    0.000    0.000    0.000 
#    0.000    0.000    0.000    0.000    0.000    0.000 
#
# Total GULP energy -335831.440790 kJ/mol
# GULP energy per Si atom -5597.190680 kJ/mol
# Density = 2.154016 g / cm^3
# Si number density = 21.589296 Si / 1000 Ang^3
#
#
#
# Elastic Constant Matrix: (Units=GPa)
#
#
# Indices 1 2 3 4 5 6 
#
# 1 72.2134 -1.0428 8.6357 0.0000 0.0000 0.0000
# 2 -1.0428 92.6018 2.6887 0.0000 0.0000 0.0000
# 3 8.6357 2.6887 75.2162 0.0000 0.0000 0.0000
# 4 0.0000 0.0000 0.0000 25.3664 0.0000 0.0000
# 5 0.0000 0.0000 0.0000 0.0000 23.6515 0.0000
# 6 0.0000 0.0000 0.0000 0.0000 0.0000 25.5597
#
#
#
# Elastic Compliance Matrix: (Units=1/GPa)
#
#
# Indices 1 2 3 4 5 6 
#
# 1 0.014045 0.000205 -0.001620 0.000000 0.000000 0.000000
# 2 0.000205 0.010813 -0.000410 0.000000 0.000000 0.000000
# 3 -0.001620 -0.000410 0.013496 0.000000 0.000000 0.000000
# 4 0.000000 0.000000 0.000000 0.039422 0.000000 0.000000
# 5 0.000000 0.000000 0.000000 0.000000 0.042281 0.000000
# 6 0.000000 0.000000 0.000000 0.000000 0.000000 0.039124
#
#
# Mechanical properties :
#
#
# Convention : Reuss Voigt Hill
#
# Bulk Modulus (GPa) = 28.81521 28.95495 28.88508
# Shear Modulus (GPa) = 28.67013 30.23218 29.45116
#
# Velocity S-wave (km/s) = 3.64810 3.74616 3.69745
# Velocity P-wave (km/s) = 5.57860 5.67031 5.62464
#
# Compressibility (1/GPa) = 0.03470389
#
# Stress axis : x y z
#
# Youngs Moduli (GPa) = 71.20220 92.48008 74.09797
#
# Poissons Ratio (x) = -0.01898 0.12002
# Poissons Ratio (y) = -0.01461 0.03039
# Poissons Ratio (z) = 0.11533 0.03793
#
# Static dielectric constant tensor:
#      x y z
#    x 1.755300 0.000000 0.000000 
#    y 0.000000 1.802530 0.000000 
#    z 0.000000 0.000000 1.770570 
# 
# From -- ./inp_files/3688.got.cif
#   From: 2010.05.17/outbox.cif.g08.bks.cpg/sg56_2_cif.got.tgz:3688.got - 2010.06.03 13:42:01.
