data_PCOD9432577
_publ_section_title
;
Structure prediction by ZEFSAII (Michael W. Deem and Ramdas Pophale) SiO2 
 PCOD9432577
Probable space group: P C C N
;
_chemical_formula_sum "Si O2"
_cell_formula_units_Z 64
_cell_length_a 14.061869
_cell_length_b 23.797791
_cell_length_c 8.689419
_cell_angle_alpha 90.000000
_cell_angle_beta 90.000000
_cell_angle_gamma 90.000000
_cell_volume 2907.839509
_symmetry_space_group_name_H-M "P C C N"
_symmetry_group_IT_number 56
_symmetry_cell_setting 'orthorhombic'
loop_
_space_group_symop_operation_xyz
x,y,z
1/2-x,1/2-y,z
1/2+x,-y,1/2-z
-x,1/2+y,1/2-z
-x,-y,-z
1/2+x,1/2+y,-z
1/2-x,y,1/2+z
x,1/2-y,1/2+z
loop_
_atom_site_type_symbol
_atom_site_label
_atom_site_fract_x
_atom_site_fract_y
_atom_site_fract_z
Si Si1 0.327515 0.095214 0.095166
Si Si2 0.666289 0.978953 0.380291
Si Si3 0.792835 0.410278 0.896879
Si Si4 0.442519 0.411215 0.893680
Si Si5 0.096174 0.507562 0.914408
Si Si6 0.621380 0.128791 0.571653
Si Si7 0.058677 0.303793 0.584772
Si Si8 0.841617 0.709241 0.089788
O O1 0.229306 0.074795 0.172379
O O2 0.415602 0.094366 0.215100
O O3 0.340159 0.043496 0.977867
O O4 0.320268 0.153937 0.009273
O O5 0.619139 0.962539 0.540622
O O6 0.582428 0.993005 0.262257
O O7 0.731538 0.033673 0.363500
O O8 0.847065 0.393714 0.740286
O O9 0.860792 0.432784 0.034272
O O10 0.716856 0.366776 0.969059
O O11 0.548354 0.409955 0.969261
O O12 0.404920 0.353273 0.971854
O O13 0.000000 0.500000 0.000000
O O14 0.553725 0.182597 0.599490
O O15 0.081547 0.245269 0.505289
O O16 0.112820 0.305828 0.746384
O O17 0.750000 0.750000 0.108588
#
# Coordination Sequence:
#
# PCOD9432577 Si02
#       8
#     8   8   8   8   8   8   8   8
#     4  11  24  39  64  99 141 182 223 273 342 415
#     4  11  22  39  58  94 143 181 233 273 332 409
#     4  11  22  43  66  90 136 183 230 281 346 411
#     4  10  23  41  62  96 138 179 225 285 333 406
#     4  11  24  37  61 100 130 183 227 280 340 404
#     4  10  25  45  66  99 131 183 232 285 349 409
#     4  10  25  44  67 103 136 174 228 281 347 417
#     4  12  24  44  74 104 142 179 219 280 355 424
#
# _framework density 22.009467999999998
#
# number of rings (size 3 to 8) (size 9 to 14) (size 15 to 20)
#    0.750    0.500    1.250    4.875    5.250    3.500 
#    0.000    0.625    0.000    2.250    0.000    0.000 
#    0.000    0.000    0.000    0.000    0.000    0.000 
#
# Total GULP energy -356981.117885 kJ/mol
# GULP energy per Si atom -5577.829967 kJ/mol
# Density = 2.195937 g / cm^3
# Si number density = 22.009468 Si / 1000 Ang^3
#
#
#
# Elastic Constant Matrix: (Units=GPa)
#
#
# Indices 1 2 3 4 5 6 
#
# 1 97.2380 26.6027 20.1126 0.0000 0.0000 0.0000
# 2 26.6027 68.5147 25.9423 0.0000 0.0000 0.0000
# 3 20.1126 25.9423 110.5757 0.0000 0.0000 0.0000
# 4 0.0000 0.0000 0.0000 33.0175 0.0000 0.0000
# 5 0.0000 0.0000 0.0000 0.0000 42.8019 0.0000
# 6 0.0000 0.0000 0.0000 0.0000 0.0000 30.0980
#
#
#
# Elastic Compliance Matrix: (Units=1/GPa)
#
#
# Indices 1 2 3 4 5 6 
#
# 1 0.011640 -0.004080 -0.001160 0.000000 0.000000 0.000000
# 2 -0.004080 0.017449 -0.003351 0.000000 0.000000 0.000000
# 3 -0.001160 -0.003351 0.010041 0.000000 0.000000 0.000000
# 4 0.000000 0.000000 0.000000 0.030287 0.000000 0.000000
# 5 0.000000 0.000000 0.000000 0.000000 0.023363 0.000000
# 6 0.000000 0.000000 0.000000 0.000000 0.000000 0.033225
#
#
# Mechanical properties :
#
#
# Convention : Reuss Voigt Hill
#
# Bulk Modulus (GPa) = 45.56605 46.84928 46.20766
# Shear Modulus (GPa) = 33.22164 34.76153 33.99159
#
# Velocity S-wave (km/s) = 3.88935 3.97847 3.93416
# Velocity P-wave (km/s) = 6.39666 6.51432 6.45576
#
# Compressibility (1/GPa) = 0.02194617
#
# Stress axis : x y z
#
# Youngs Moduli (GPa) = 85.90830 57.31061 99.59309
#
# Poissons Ratio (x) = 0.23385 0.11552
# Poissons Ratio (y) = 0.35055 0.33379
# Poissons Ratio (z) = 0.09965 0.19208
#
# Static dielectric constant tensor:
#      x y z
#    x 1.931220 0.000000 0.000000 
#    y 0.000000 1.807750 0.000000 
#    z 0.000000 0.000000 1.905650 
# 
# From -- ./inp_files/3703.got.cif
#   From: 2010.05.17/outbox.cif.g08.bks.cpg/sg56_2_cif.got.tgz:3703.got - 2010.06.03 13:42:01.
