data_PCOD9432560
_publ_section_title
;
Structure prediction by ZEFSAII (Michael W. Deem and Ramdas Pophale) SiO2 
 PCOD9432560
Probable space group: P C C N
;
_chemical_formula_sum "Si O2"
_cell_formula_units_Z 64
_cell_length_a 23.085269
_cell_length_b 15.051705
_cell_length_c 8.974497
_cell_angle_alpha 90.000000
_cell_angle_beta 90.000000
_cell_angle_gamma 90.000000
_cell_volume 3118.392334
_symmetry_space_group_name_H-M "P C C N"
_symmetry_group_IT_number 56
_symmetry_cell_setting 'orthorhombic'
loop_
_space_group_symop_operation_xyz
x,y,z
1/2-x,1/2-y,z
1/2+x,-y,1/2-z
-x,1/2+y,1/2-z
-x,-y,-z
1/2+x,1/2+y,-z
1/2-x,y,1/2+z
x,1/2-y,1/2+z
loop_
_atom_site_type_symbol
_atom_site_label
_atom_site_fract_x
_atom_site_fract_y
_atom_site_fract_z
Si Si1 0.120828 0.135222 0.127285
Si Si2 0.781613 0.843932 0.675420
Si Si3 0.006833 0.030198 0.173291
Si Si4 0.611850 0.129463 0.640545
Si Si5 0.876326 0.662836 0.919275
Si Si6 0.332590 0.053617 0.347093
Si Si7 0.508066 0.145380 0.132223
Si Si8 0.426565 0.747279 0.621958
O O1 0.182345 0.107256 0.195570
O O2 0.063419 0.090980 0.189284
O O3 0.122220 0.239913 0.154165
O O4 0.123662 0.106781 0.955623
O O5 0.750000 0.750000 0.715724
O O6 0.831206 0.827269 0.553418
O O7 0.730923 0.908584 0.623397
O O8 0.947730 0.083421 0.196862
O O9 0.014197 0.949331 0.287576
O O10 0.000000 0.000000 0.000000
O O11 0.620285 0.204647 0.765895
O O12 0.598843 0.173638 0.480615
O O13 0.657964 0.050628 0.631901
O O14 0.850875 0.585875 0.816122
O O15 0.944225 0.646283 0.939794
O O16 0.522827 0.213809 0.269091
O O17 0.550031 0.176663 0.999344
#
# Coordination Sequence:
#
# PCOD9432560 Si02
#       8
#     8   8   8   8   8   8   8   8
#     4  12  23  39  66  89 136 182 215 263 331 395
#     4  12  26  42  61  96 135 178 228 264 312 400
#     4  12  22  40  62  98 138 173 217 275 339 411
#     4  11  23  43  67  95 135 172 224 281 344 398
#     4  12  24  38  63  94 134 181 219 260 321 395
#     4  12  24  42  64  93 132 179 223 274 321 395
#     4  11  23  38  61  96 136 174 222 271 334 405
#     4  10  23  40  64  94 132 176 220 280 339 398
#
# _framework density 20.523394
#
# number of rings (size 3 to 8) (size 9 to 14) (size 15 to 20)
#    0.000    0.500    6.250    2.250    5.250    1.500 
#    0.000    0.000    0.000    0.000    0.000   29.750 
#    0.000    0.000    0.000    0.000    0.000    0.000 
#
# Total GULP energy -357333.127810 kJ/mol
# GULP energy per Si atom -5583.330122 kJ/mol
# Density = 2.047668 g / cm^3
# Si number density = 20.523394 Si / 1000 Ang^3
#
#
#
# Elastic Constant Matrix: (Units=GPa)
#
#
# Indices 1 2 3 4 5 6 
#
# 1 81.9562 35.3251 19.4810 0.0000 0.0000 0.0000
# 2 35.3251 83.9656 25.2212 0.0000 0.0000 0.0000
# 3 19.4810 25.2212 73.7323 0.0000 0.0000 0.0000
# 4 0.0000 0.0000 0.0000 25.8779 0.0000 0.0000
# 5 0.0000 0.0000 0.0000 0.0000 15.6002 0.0000
# 6 0.0000 0.0000 0.0000 0.0000 0.0000 33.1479
#
#
#
# Elastic Compliance Matrix: (Units=1/GPa)
#
#
# Indices 1 2 3 4 5 6 
#
# 1 0.015173 -0.005772 -0.002034 0.000000 0.000000 0.000000
# 2 -0.005772 0.015469 -0.003766 0.000000 0.000000 0.000000
# 3 -0.002034 -0.003766 0.015388 0.000000 0.000000 0.000000
# 4 0.000000 0.000000 0.000000 0.038643 0.000000 0.000000
# 5 0.000000 0.000000 0.000000 0.000000 0.064102 0.000000
# 6 0.000000 0.000000 0.000000 0.000000 0.000000 0.030168
#
#
# Mechanical properties :
#
#
# Convention : Reuss Voigt Hill
#
# Bulk Modulus (GPa) = 43.69736 44.41206 44.05471
# Shear Modulus (GPa) = 23.84146 25.56698 24.70422
#
# Velocity S-wave (km/s) = 3.41203 3.53334 3.47322
# Velocity P-wave (km/s) = 6.07127 6.19134 6.13160
#
# Compressibility (1/GPa) = 0.02288468
#
# Stress axis : x y z
#
# Youngs Moduli (GPa) = 65.90529 64.64336 64.98381
#
# Poissons Ratio (x) = 0.37315 0.13220
# Poissons Ratio (y) = 0.38043 0.24476
# Poissons Ratio (z) = 0.13408 0.24347
#
# Static dielectric constant tensor:
#      x y z
#    x 1.737900 0.000000 0.000000 
#    y 0.000000 1.770610 0.000000 
#    z 0.000000 0.000000 1.821510 
# 
# From -- ./inp_files/3699.got.cif
#   From: 2010.05.17/outbox.cif.g08.bks.cpg/sg56_2_cif.got.tgz:3699.got - 2010.06.03 13:42:01.
