data_PCOD9432642
_publ_section_title
;
Structure prediction by ZEFSAII (Michael W. Deem and Ramdas Pophale) SiO2 
 PCOD9432642
Probable space group: P C C N
;
_chemical_formula_sum "Si O2"
_cell_formula_units_Z 40
_cell_length_a 12.166827
_cell_length_b 7.418163
_cell_length_c 16.723639
_cell_angle_alpha 90.000000
_cell_angle_beta 90.000000
_cell_angle_gamma 90.000000
_cell_volume 1509.400498
_symmetry_space_group_name_H-M "P C C N"
_symmetry_group_IT_number 56
_symmetry_cell_setting 'orthorhombic'
loop_
_space_group_symop_operation_xyz
x,y,z
1/2-x,1/2-y,z
1/2+x,-y,1/2-z
-x,1/2+y,1/2-z
-x,-y,-z
1/2+x,1/2+y,-z
1/2-x,y,1/2+z
x,1/2-y,1/2+z
loop_
_atom_site_type_symbol
_atom_site_label
_atom_site_fract_x
_atom_site_fract_y
_atom_site_fract_z
Si Si1 0.128480 0.725013 0.232388
Si Si2 0.874477 0.064238 0.505346
Si Si3 0.428330 0.043876 0.367635
Si Si4 0.146020 0.513291 0.537091
Si Si5 0.579113 0.570800 0.672934
O O1 0.250000 0.750000 0.200748
O O2 0.121044 0.616718 0.315668
O O3 0.052621 0.615346 0.170066
O O4 0.089348 0.924269 0.258023
O O5 0.867610 0.277791 0.490788
O O6 0.775888 0.980473 0.452517
O O7 0.856256 0.010940 0.598248
O O8 0.000000 0.000000 0.500000
O O9 0.554502 0.988898 0.394553
O O10 0.385445 0.091505 0.456420
O O11 0.609221 0.720318 0.183094
#
# Coordination Sequence:
#
# PCOD9432642 Si02
#       5
#     8   8   8   8   8
#     4  12  27  47  73 106 149 195 248 311 368 443
#     4  11  22  42  71 104 145 191 237 297 376 436
#     4  11  23  46  71 105 144 186 247 300 371 442
#     4  10  23  42  72 104 146 186 237 308 362 439
#     4  12  25  46  72 104 144 192 249 297 366 449
#
# _framework density 26.500586999999999
#
# number of rings (size 3 to 8) (size 9 to 14) (size 15 to 20)
#    0.000    0.800    6.000    1.200    0.000    4.800 
#    0.000    0.000    4.400    0.000    0.000    0.000 
#    0.000    0.000    0.000    0.000    0.000    0.000 
#
# Total GULP energy -223188.774668 kJ/mol
# GULP energy per Si atom -5579.719367 kJ/mol
# Density = 2.644027 g / cm^3
# Si number density = 26.500587 Si / 1000 Ang^3
#
#
#
# Elastic Constant Matrix: (Units=GPa)
#
#
# Indices 1 2 3 4 5 6 
#
# 1 169.2369 12.6788 3.8027 0.0000 0.0000 0.0000
# 2 12.6788 110.5673 20.3692 0.0000 0.0000 0.0000
# 3 3.8027 20.3692 94.7008 0.0000 0.0000 0.0000
# 4 0.0000 0.0000 0.0000 32.7261 0.0000 0.0000
# 5 0.0000 0.0000 0.0000 0.0000 41.0319 0.0000
# 6 0.0000 0.0000 0.0000 0.0000 0.0000 33.2580
#
#
#
# Elastic Compliance Matrix: (Units=1/GPa)
#
#
# Indices 1 2 3 4 5 6 
#
# 1 0.005961 -0.000666 -0.000096 0.000000 0.000000 0.000000
# 2 -0.000666 0.009492 -0.002015 0.000000 0.000000 0.000000
# 3 -0.000096 -0.002015 0.010997 0.000000 0.000000 0.000000
# 4 0.000000 0.000000 0.000000 0.030557 0.000000 0.000000
# 5 0.000000 0.000000 0.000000 0.000000 0.024371 0.000000
# 6 0.000000 0.000000 0.000000 0.000000 0.000000 0.030068
#
#
# Mechanical properties :
#
#
# Convention : Reuss Voigt Hill
#
# Bulk Modulus (GPa) = 47.85635 49.80071 48.82853
# Shear Modulus (GPa) = 40.33414 43.91346 42.12380
#
# Velocity S-wave (km/s) = 3.90553 4.07513 3.99123
# Velocity P-wave (km/s) = 6.19962 6.40120 6.30122
#
# Compressibility (1/GPa) = 0.02089587
#
# Stress axis : x y z
#
# Youngs Moduli (GPa) = 167.75935 105.35408 90.93543
#
# Poissons Ratio (x) = 0.07015 0.00874
# Poissons Ratio (y) = 0.11170 0.18322
# Poissons Ratio (z) = 0.01613 0.21227
#
# Static dielectric constant tensor:
#      x y z
#    x 2.324740 0.000000 0.000000 
#    y 0.000000 2.093170 0.000000 
#    z 0.000000 0.000000 2.223500 
# 
# From -- ./inp_files/16046.got.cif
#   From: 2010.05.17/outbox.cif.g08.bks.cpg/sg56_9_cif.got.tgz:16046.got - 2010.06.03 13:42:01.
