data_PCOD9432399
_publ_section_title
;
Structure prediction by ZEFSAII (Michael W. Deem and Ramdas Pophale) SiO2 
 PCOD9432399
Probable space group: P C C N
;
_chemical_formula_sum "Si O2"
_cell_formula_units_Z 60
_cell_length_a 13.621198
_cell_length_b 17.975190
_cell_length_c 10.992521
_cell_angle_alpha 90.000000
_cell_angle_beta 90.000000
_cell_angle_gamma 90.000000
_cell_volume 2691.448657
_symmetry_space_group_name_H-M "P C C N"
_symmetry_group_IT_number 56
_symmetry_cell_setting 'orthorhombic'
loop_
_space_group_symop_operation_xyz
x,y,z
1/2-x,1/2-y,z
1/2+x,-y,1/2-z
-x,1/2+y,1/2-z
-x,-y,-z
1/2+x,1/2+y,-z
1/2-x,y,1/2+z
x,1/2-y,1/2+z
loop_
_atom_site_type_symbol
_atom_site_label
_atom_site_fract_x
_atom_site_fract_y
_atom_site_fract_z
Si Si1 0.898680 0.033545 0.693396
Si Si2 0.484474 0.568331 0.824880
Si Si3 0.934927 0.871588 0.226739
Si Si4 0.205122 0.006841 0.661595
Si Si5 0.144083 0.457171 0.468301
Si Si6 0.643056 0.135616 0.964799
Si Si7 0.750000 0.250000 0.112460
Si Si8 0.945970 0.272583 0.761524
O O1 0.794119 0.004179 0.741259
O O2 0.898327 0.083778 0.573042
O O3 0.958962 0.086908 0.788086
O O4 0.970607 0.962526 0.697700
O O5 0.391426 0.522491 0.876402
O O6 0.471889 0.654873 0.815361
O O7 0.567340 0.549493 0.922994
O O8 0.869740 0.881545 0.106493
O O9 0.968604 0.788326 0.250974
O O10 0.870640 0.924798 0.316117
O O11 0.168064 0.922534 0.641577
O O12 0.254468 0.026278 0.531742
O O13 0.576610 0.198913 0.899544
O O14 0.735729 0.178725 0.024334
O O15 0.655608 0.246009 0.199982
#
# Coordination Sequence:
#
# PCOD9432399 Si02
#       8
#     8   8   8   8   8   8   4   8
#     4  10  22  44  65 101 134 180 238 293 332 430
#     4   9  20  40  70  94 134 177 238 285 347 419
#     4  11  24  42  67 102 145 182 236 290 350 431
#     4  11  23  42  72 102 137 186 241 293 341 422
#     4   9  19  40  70  97 128 186 230 285 349 413
#     4  12  24  39  71  96 142 186 226 292 368 415
#     4  12  26  42  62 102 146 180 222 296 366 428
#     4  12  26  42  62 105 143 182 227 291 361 423
#
# _framework density 22.292826999999999
#
# number of rings (size 3 to 8) (size 9 to 14) (size 15 to 20)
#    0.000    1.333    1.333    5.200    3.733    2.133 
#    0.000    2.667    0.000    3.200    0.000    0.000 
#    0.000    0.000    0.000    0.000    0.000    0.000 
#
# Total GULP energy -334443.747114 kJ/mol
# GULP energy per Si atom -5574.062452 kJ/mol
# Density = 2.224209 g / cm^3
# Si number density = 22.292827 Si / 1000 Ang^3
#
#
#
# Elastic Constant Matrix: (Units=GPa)
#
#
# Indices 1 2 3 4 5 6 
#
# 1 96.6443 68.2350 31.2007 0.0000 0.0000 0.0000
# 2 68.2350 141.7279 46.5433 0.0000 0.0000 0.0000
# 3 31.2007 46.5433 90.1489 0.0000 0.0000 0.0000
# 4 0.0000 0.0000 0.0000 33.8452 0.0000 0.0000
# 5 0.0000 0.0000 0.0000 0.0000 34.5880 0.0000
# 6 0.0000 0.0000 0.0000 0.0000 0.0000 38.3210
#
#
#
# Elastic Compliance Matrix: (Units=1/GPa)
#
#
# Indices 1 2 3 4 5 6 
#
# 1 0.015934 -0.007057 -0.001871 0.000000 0.000000 0.000000
# 2 -0.007057 0.011622 -0.003558 0.000000 0.000000 0.000000
# 3 -0.001871 -0.003558 0.013577 0.000000 0.000000 0.000000
# 4 0.000000 0.000000 0.000000 0.029546 0.000000 0.000000
# 5 0.000000 0.000000 0.000000 0.000000 0.028912 0.000000
# 6 0.000000 0.000000 0.000000 0.000000 0.000000 0.026095
#
#
# Mechanical properties :
#
#
# Convention : Reuss Voigt Hill
#
# Bulk Modulus (GPa) = 61.87793 68.94213 65.41003
# Shear Modulus (GPa) = 32.04206 33.52032 32.78119
#
# Velocity S-wave (km/s) = 3.79532 3.88188 3.83885
# Velocity P-wave (km/s) = 6.85734 7.14737 7.00385
#
# Compressibility (1/GPa) = 0.01616085
#
# Stress axis : x y z
#
# Youngs Moduli (GPa) = 62.75985 86.04635 73.65230
#
# Poissons Ratio (x) = 0.60721 0.13783
# Poissons Ratio (y) = 0.44288 0.26204
# Poissons Ratio (z) = 0.11745 0.30614
#
# Static dielectric constant tensor:
#      x y z
#    x 1.874710 0.000000 0.000000 
#    y 0.000000 1.828950 0.000000 
#    z 0.000000 0.000000 1.956800 
# 
# From -- ./inp_files/8028.got.cif
#   From: 2010.05.17/outbox.cif.g08.bks.cpg/sg56_5_cif.got.tgz:8028.got - 2010.06.03 13:42:01.
