data_PCOD9432233
_publ_section_title
;
Structure prediction by ZEFSAII (Michael W. Deem and Ramdas Pophale) SiO2 
 PCOD9432233
Probable space group: P C C N
;
_chemical_formula_sum "Si O2"
_cell_formula_units_Z 48
_cell_length_a 12.048165
_cell_length_b 9.229326
_cell_length_c 22.602840
_cell_angle_alpha 90.000000
_cell_angle_beta 90.000000
_cell_angle_gamma 90.000000
_cell_volume 2513.355398
_symmetry_space_group_name_H-M "P C C N"
_symmetry_group_IT_number 56
_symmetry_cell_setting 'orthorhombic'
loop_
_space_group_symop_operation_xyz
x,y,z
1/2-x,1/2-y,z
1/2+x,-y,1/2-z
-x,1/2+y,1/2-z
-x,-y,-z
1/2+x,1/2+y,-z
1/2-x,y,1/2+z
x,1/2-y,1/2+z
loop_
_atom_site_type_symbol
_atom_site_label
_atom_site_fract_x
_atom_site_fract_y
_atom_site_fract_z
Si Si1 0.259794 0.422151 0.571938
Si Si2 0.630289 0.893827 0.205830
Si Si3 0.146240 0.082163 0.843558
Si Si4 0.063969 0.392806 0.662633
Si Si5 0.230271 0.577565 0.948774
Si Si6 0.004647 0.914230 0.381121
O O1 0.250000 0.250000 0.556411
O O2 0.165534 0.443465 0.621552
O O3 0.245888 0.519698 0.514174
O O4 0.382068 0.454780 0.597372
O O5 0.754576 0.958076 0.201762
O O6 0.632138 0.754519 0.162637
O O7 0.606356 0.848885 0.272548
O O8 0.542781 0.004918 0.178502
O O9 0.192020 0.015923 0.904728
O O10 0.028535 0.013956 0.829728
O O11 0.004780 0.256250 0.632033
O O12 0.250000 0.750000 0.943427
O O13 0.102543 0.553653 0.928056
#
# Coordination Sequence:
#
# PCOD9432233 Si02
#       6
#     8   8   8   8   8   8
#     4  10  25  39  64  91 126 166 211 260 318 369
#     4  10  23  37  68  88 131 161 206 263 306 391
#     4  10  23  40  62  96 119 166 209 249 327 364
#     4  11  22  41  63  94 127 165 206 263 312 374
#     4  11  22  43  63  89 126 164 214 267 308 377
#     4  10  22  42  62  93 123 169 212 255 320 371
#
# _framework density 19.097975000000002
#
# number of rings (size 3 to 8) (size 9 to 14) (size 15 to 20)
#    0.000    1.667    1.667    1.500   14.000    2.000 
#    0.000    0.000    0.000    0.000    0.000    0.000 
#    0.000    0.000    0.000    0.000    0.000    0.000 
#
# Total GULP energy -267822.126038 kJ/mol
# GULP energy per Si atom -5579.627626 kJ/mol
# Density = 1.905451 g / cm^3
# Si number density = 19.097975 Si / 1000 Ang^3
#
#
#
# Elastic Constant Matrix: (Units=GPa)
#
#
# Indices 1 2 3 4 5 6 
#
# 1 104.7777 53.2646 45.0212 0.0000 0.0000 0.0000
# 2 53.2646 47.6792 42.8918 0.0000 0.0000 0.0000
# 3 45.0212 42.8918 89.7718 0.0000 0.0000 0.0000
# 4 0.0000 0.0000 0.0000 20.1780 0.0000 0.0000
# 5 0.0000 0.0000 0.0000 0.0000 16.4512 0.0000
# 6 0.0000 0.0000 0.0000 0.0000 0.0000 24.2062
#
#
#
# Elastic Compliance Matrix: (Units=1/GPa)
#
#
# Indices 1 2 3 4 5 6 
#
# 1 0.022168 -0.025893 0.001254 0.000000 0.000000 0.000000
# 2 -0.025893 0.067027 -0.019039 0.000000 0.000000 0.000000
# 3 0.001254 -0.019039 0.019607 0.000000 0.000000 0.000000
# 4 0.000000 0.000000 0.000000 0.049559 0.000000 0.000000
# 5 0.000000 0.000000 0.000000 0.000000 0.060786 0.000000
# 6 0.000000 0.000000 0.000000 0.000000 0.000000 0.041312
#
#
# Mechanical properties :
#
#
# Convention : Reuss Voigt Hill
#
# Bulk Modulus (GPa) = 46.62898 58.28710 52.45804
# Shear Modulus (GPa) = 14.08591 18.90381 16.49486
#
# Velocity S-wave (km/s) = 2.71875 3.14957 2.94206
# Velocity P-wave (km/s) = 5.85868 6.61912 6.25048
#
# Compressibility (1/GPa) = 0.02144589
#
# Stress axis : x y z
#
# Youngs Moduli (GPa) = 45.10966 14.91932 51.00160
#
# Poissons Ratio (x) = 0.38631 -0.06395
# Poissons Ratio (y) = 1.16803 0.97103
# Poissons Ratio (z) = -0.05656 0.28405
#
# Static dielectric constant tensor:
#      x y z
#    x 1.677800 0.000000 0.000000 
#    y 0.000000 1.661670 0.000000 
#    z 0.000000 0.000000 1.654780 
# 
# From -- ./inp_files/20884.got.cif
#   From: 2010.05.17/outbox.cif.g08.bks.cpg/sg56_11_cif.got.tgz:20884.got - 2010.06.03 13:42:01.
