data_PCOD9432549
_publ_section_title
;
Structure prediction by ZEFSAII (Michael W. Deem and Ramdas Pophale) SiO2 
 PCOD9432549
Probable space group: P C C N
;
_chemical_formula_sum "Si O2"
_cell_formula_units_Z 48
_cell_length_a 4.749495
_cell_length_b 15.709576
_cell_length_c 27.999402
_cell_angle_alpha 90.000000
_cell_angle_beta 90.000000
_cell_angle_gamma 90.000000
_cell_volume 2089.106856
_symmetry_space_group_name_H-M "P C C N"
_symmetry_group_IT_number 56
_symmetry_cell_setting 'orthorhombic'
loop_
_space_group_symop_operation_xyz
x,y,z
1/2-x,1/2-y,z
1/2+x,-y,1/2-z
-x,1/2+y,1/2-z
-x,-y,-z
1/2+x,1/2+y,-z
1/2-x,y,1/2+z
x,1/2-y,1/2+z
loop_
_atom_site_type_symbol
_atom_site_label
_atom_site_fract_x
_atom_site_fract_y
_atom_site_fract_z
Si Si1 0.114080 0.557844 0.258125
Si Si2 0.334749 0.157387 0.926842
Si Si3 0.317252 0.589564 0.024072
Si Si4 0.426569 0.467741 0.138193
Si Si5 0.866679 0.152326 0.336385
Si Si6 0.959628 0.439013 0.072327
O O1 0.431586 0.523141 0.260233
O O2 0.007648 0.572808 0.311355
O O3 0.080491 0.631903 0.219286
O O4 0.250000 0.250000 0.940484
O O5 0.659202 0.153356 0.941419
O O6 0.354617 0.148556 0.869820
O O7 0.802011 0.064252 0.852548
O O8 0.170261 0.503293 0.043404
O O9 0.641105 0.597713 0.039329
O O10 0.213801 0.606514 0.970341
O O11 0.193552 0.410135 0.110782
O O12 0.709102 0.472121 0.106448
O O13 0.750000 0.250000 0.341463
#
# Coordination Sequence:
#
# PCOD9432549 Si02
#       6
#     8   8   8   8   8   8
#     4  10  23  40  62  90 126 171 215 266 321 389
#     4  12  25  40  60  94 132 171 202 260 334 407
#     4  11  24  40  59  93 131 163 217 257 320 386
#     4  11  22  41  63  94 127 167 221 266 326 389
#     4  11  25  42  65  97 136 173 211 274 343 404
#     4  11  23  39  65  90 124 168 210 275 312 378
#
# _framework density 22.976324000000002
#
# number of rings (size 3 to 8) (size 9 to 14) (size 15 to 20)
#    0.000    1.000    1.667    5.500    4.667    4.000 
#    0.000    0.000    0.000    4.000    0.000    5.833 
#    0.000    0.000    0.000    0.000    0.000    0.000 
#
# Total GULP energy -267216.894154 kJ/mol
# GULP energy per Si atom -5567.018628 kJ/mol
# Density = 2.292403 g / cm^3
# Si number density = 22.976324 Si / 1000 Ang^3
#
#
#
# Elastic Constant Matrix: (Units=GPa)
#
#
# Indices 1 2 3 4 5 6 
#
# 1 103.4262 13.7443 39.9501 0.0000 0.0000 0.0000
# 2 13.7443 38.8560 33.0001 0.0000 0.0000 0.0000
# 3 39.9501 33.0001 173.7528 0.0000 0.0000 0.0000
# 4 0.0000 0.0000 0.0000 10.6003 0.0000 0.0000
# 5 0.0000 0.0000 0.0000 0.0000 42.5650 0.0000
# 6 0.0000 0.0000 0.0000 0.0000 0.0000 26.2316
#
#
#
# Elastic Compliance Matrix: (Units=1/GPa)
#
#
# Indices 1 2 3 4 5 6 
#
# 1 0.010744 -0.002030 -0.002085 0.000000 0.000000 0.000000
# 2 -0.002030 0.031069 -0.005434 0.000000 0.000000 0.000000
# 3 -0.002085 -0.005434 0.007267 0.000000 0.000000 0.000000
# 4 0.000000 0.000000 0.000000 0.094337 0.000000 0.000000
# 5 0.000000 0.000000 0.000000 0.000000 0.023493 0.000000
# 6 0.000000 0.000000 0.000000 0.000000 0.000000 0.038122
#
#
# Mechanical properties :
#
#
# Convention : Reuss Voigt Hill
#
# Bulk Modulus (GPa) = 33.35296 54.38044 43.86670
# Shear Modulus (GPa) = 21.35626 31.16875 26.26251
#
# Velocity S-wave (km/s) = 3.05206 3.68715 3.38453
# Velocity P-wave (km/s) = 5.19306 6.46886 5.86575
#
# Compressibility (1/GPa) = 0.02998234
#
# Stress axis : x y z
#
# Youngs Moduli (GPa) = 93.07750 32.18624 137.61365
#
# Poissons Ratio (x) = 0.06533 0.28689
# Poissons Ratio (y) = 0.18892 0.74781
# Poissons Ratio (z) = 0.19404 0.17490
#
# Static dielectric constant tensor:
#      x y z
#    x 1.883380 0.000000 0.000000 
#    y 0.000000 1.940930 0.000000 
#    z 0.000000 0.000000 1.917130 
# 
# From -- ./inp_files/20067.got.cif
#   From: 2010.05.17/outbox.cif.g08.bks.cpg/sg56_11_cif.got.tgz:20067.got - 2010.06.03 13:42:01.
