data_PCOD9432535
_publ_section_title
;
Structure prediction by ZEFSAII (Michael W. Deem and Ramdas Pophale) SiO2 
 PCOD9432535
Probable space group: P C C N
;
_chemical_formula_sum "Si O2"
_cell_formula_units_Z 52
_cell_length_a 22.283283
_cell_length_b 7.101396
_cell_length_c 13.728415
_cell_angle_alpha 90.000000
_cell_angle_beta 90.000000
_cell_angle_gamma 90.000000
_cell_volume 2172.417568
_symmetry_space_group_name_H-M "P C C N"
_symmetry_group_IT_number 56
_symmetry_cell_setting 'orthorhombic'
loop_
_space_group_symop_operation_xyz
x,y,z
1/2-x,1/2-y,z
1/2+x,-y,1/2-z
-x,1/2+y,1/2-z
-x,-y,-z
1/2+x,1/2+y,-z
1/2-x,y,1/2+z
x,1/2-y,1/2+z
loop_
_atom_site_type_symbol
_atom_site_label
_atom_site_fract_x
_atom_site_fract_y
_atom_site_fract_z
Si Si1 0.464451 0.245052 0.345214
Si Si2 0.750000 0.750000 0.917187
Si Si3 0.846270 0.027235 0.943253
Si Si4 0.341181 0.534508 0.612218
Si Si5 0.439051 0.649494 0.295510
Si Si6 0.949441 0.733577 0.931403
Si Si7 0.144445 0.960009 0.830785
O O1 0.435680 0.427101 0.295874
O O2 0.530332 0.213766 0.303981
O O3 0.467559 0.287667 0.457690
O O4 0.418336 0.076012 0.326681
O O5 0.800363 0.899206 0.880447
O O6 0.796617 0.589596 0.955573
O O7 0.905234 0.564948 0.901292
O O8 0.910543 0.926020 0.929146
O O9 0.830753 0.004970 0.060111
O O10 0.342164 0.754143 0.585088
O O11 0.323114 0.503531 0.727014
O O12 0.490410 0.718895 0.370052
O O13 0.376996 0.744423 0.322488
#
# Coordination Sequence:
#
# PCOD9432535 Si02
#       7
#     8   4   8   8   8   8   8
#     4  11  22  37  55  86 130 175 222 261 304 367
#     4  10  24  46  72  92 128 162 216 280 348 402
#     4  10  24  44  67  95 126 165 216 276 337 393
#     4  11  22  45  67  97 128 171 218 276 336 396
#     4  12  22  36  58  91 132 181 221 260 311 379
#     4  10  23  39  60  91 133 177 218 268 320 379
#     4  11  25  40  64  96 131 174 219 264 320 391
#
# _framework density 23.936464999999998
#
# number of rings (size 3 to 8) (size 9 to 14) (size 15 to 20)
#    0.000    1.231    3.077    1.846    2.154    5.538 
#    0.000    3.077    0.000    0.000    0.000    0.000 
#    0.000    0.000    0.000    0.000    0.000    0.000 
#
# Total GULP energy -290283.337994 kJ/mol
# GULP energy per Si atom -5582.371885 kJ/mol
# Density = 2.388198 g / cm^3
# Si number density = 23.936465 Si / 1000 Ang^3
#
#
#
# Elastic Constant Matrix: (Units=GPa)
#
#
# Indices 1 2 3 4 5 6 
#
# 1 33.6215 4.9911 21.1583 0.0000 0.0000 0.0000
# 2 4.9911 168.9583 17.0534 0.0000 0.0000 0.0000
# 3 21.1583 17.0534 143.2792 0.0000 0.0000 0.0000
# 4 0.0000 0.0000 0.0000 20.3516 0.0000 0.0000
# 5 0.0000 0.0000 0.0000 0.0000 13.4187 0.0000
# 6 0.0000 0.0000 0.0000 0.0000 0.0000 17.7326
#
#
#
# Elastic Compliance Matrix: (Units=1/GPa)
#
#
# Indices 1 2 3 4 5 6 
#
# 1 0.032830 -0.000486 -0.004790 0.000000 0.000000 0.000000
# 2 -0.000486 0.005998 -0.000642 0.000000 0.000000 0.000000
# 3 -0.004790 -0.000642 0.007763 0.000000 0.000000 0.000000
# 4 0.000000 0.000000 0.000000 0.049136 0.000000 0.000000
# 5 0.000000 0.000000 0.000000 0.000000 0.074523 0.000000
# 6 0.000000 0.000000 0.000000 0.000000 0.000000 0.056393
#
#
# Mechanical properties :
#
#
# Convention : Reuss Voigt Hill
#
# Bulk Modulus (GPa) = 28.77407 48.02938 38.40172
# Shear Modulus (GPa) = 19.99487 30.47767 25.23627
#
# Velocity S-wave (km/s) = 2.89334 3.57217 3.25052
# Velocity P-wave (km/s) = 4.81758 6.09284 5.49235
#
# Compressibility (1/GPa) = 0.03475352
#
# Stress axis : x y z
#
# Youngs Moduli (GPa) = 30.46038 166.72808 128.81342
#
# Poissons Ratio (x) = 0.08108 0.61703
# Poissons Ratio (y) = 0.01481 0.08271
# Poissons Ratio (z) = 0.14591 0.10705
#
# Static dielectric constant tensor:
#      x y z
#    x 1.881190 0.000000 0.000000 
#    y 0.000000 1.912370 0.000000 
#    z 0.000000 0.000000 2.058180 
# 
# From -- ./inp_files/13044.got.cif
#   From: 2010.05.17/outbox.cif.g08.bks.cpg/sg56_7_cif.got.tgz:13044.got - 2010.06.03 13:42:01.
