data_PCOD9432942
_publ_section_title
;
Structure prediction by ZEFSAII (Michael W. Deem and Ramdas Pophale) SiO2 
 PCOD9432942
Probable space group: P C C N
;
_chemical_formula_sum "Si O2"
_cell_formula_units_Z 36
_cell_length_a 23.709132
_cell_length_b 5.676920
_cell_length_c 11.016212
_cell_angle_alpha 90.000000
_cell_angle_beta 90.000000
_cell_angle_gamma 90.000000
_cell_volume 1482.725354
_symmetry_space_group_name_H-M "P C C N"
_symmetry_group_IT_number 56
_symmetry_cell_setting 'orthorhombic'
loop_
_space_group_symop_operation_xyz
x,y,z
1/2-x,1/2-y,z
1/2+x,-y,1/2-z
-x,1/2+y,1/2-z
-x,-y,-z
1/2+x,1/2+y,-z
1/2-x,y,1/2+z
x,1/2-y,1/2+z
loop_
_atom_site_type_symbol
_atom_site_label
_atom_site_fract_x
_atom_site_fract_y
_atom_site_fract_z
Si Si1 0.451746 0.113909 0.369020
Si Si2 0.363997 0.701084 0.758509
Si Si3 0.073128 0.416239 0.630601
Si Si4 0.750000 0.250000 0.093896
Si Si5 0.275097 0.490414 0.628634
O O1 0.424315 0.198337 0.496496
O O2 0.441777 0.267030 0.249371
O O3 0.419484 0.872275 0.332212
O O4 0.518442 0.086699 0.385873
O O5 0.312830 0.720463 0.852434
O O6 0.340190 0.502232 0.666097
O O7 0.374715 0.924759 0.673065
O O8 0.759592 0.482105 0.010873
O O9 0.250000 0.250000 0.680188
O O10 0.250000 0.750000 0.670975
#
# Coordination Sequence:
#
# PCOD9432942 Si02
#       5
#     8   8   8   4   8
#     4  11  26  45  75 102 155 201 269 328 403 485
#     4  12  24  45  73 108 149 201 258 329 398 487
#     4  11  26  48  69 113 146 210 263 332 405 482
#     4  10  24  44  68 108 148 204 250 326 394 484
#     4  10  25  46  69 106 152 201 261 320 392 480
#
# _framework density 24.279616000000001
#
# number of rings (size 3 to 8) (size 9 to 14) (size 15 to 20)
#    0.667    0.444    3.333    1.333    3.111    7.111 
#    0.000    0.000    0.000    0.000    0.000    0.000 
#    0.000    0.000    0.000    0.000    0.000    0.000 
#
# Total GULP energy -200414.082504 kJ/mol
# GULP energy per Si atom -5567.057847 kJ/mol
# Density = 2.422435 g / cm^3
# Si number density = 24.279616 Si / 1000 Ang^3
#
#
#
# Elastic Constant Matrix: (Units=GPa)
#
#
# Indices 1 2 3 4 5 6 
#
# 1 79.5346 -1.6549 3.8108 0.0000 0.0000 0.0000
# 2 -1.6549 52.9677 8.4571 0.0000 0.0000 0.0000
# 3 3.8108 8.4571 93.7724 0.0000 0.0000 0.0000
# 4 0.0000 0.0000 0.0000 29.4155 0.0000 0.0000
# 5 0.0000 0.0000 0.0000 0.0000 57.2715 0.0000
# 6 0.0000 0.0000 0.0000 0.0000 0.0000 93.8796
#
#
#
# Elastic Compliance Matrix: (Units=1/GPa)
#
#
# Indices 1 2 3 4 5 6 
#
# 1 0.012610 0.000483 -0.000556 0.000000 0.000000 0.000000
# 2 0.000483 0.019174 -0.001749 0.000000 0.000000 0.000000
# 3 -0.000556 -0.001749 0.010844 0.000000 0.000000 0.000000
# 4 0.000000 0.000000 0.000000 0.033996 0.000000 0.000000
# 5 0.000000 0.000000 0.000000 0.000000 0.017461 0.000000
# 6 0.000000 0.000000 0.000000 0.000000 0.000000 0.010652
#
#
# Mechanical properties :
#
#
# Convention : Reuss Voigt Hill
#
# Bulk Modulus (GPa) = 25.65165 27.50008 26.57586
# Shear Modulus (GPa) = 41.19460 50.49077 45.84269
#
# Velocity S-wave (km/s) = 4.12354 4.56516 4.34996
# Velocity P-wave (km/s) = 5.76710 6.25608 6.01656
#
# Compressibility (1/GPa) = 0.03898384
#
# Stress axis : x y z
#
# Youngs Moduli (GPa) = 79.30321 52.15461 92.21316
#
# Poissons Ratio (x) = -0.02518 0.05127
# Poissons Ratio (y) = -0.03828 0.16127
# Poissons Ratio (z) = 0.04409 0.09121
#
# Static dielectric constant tensor:
#      x y z
#    x 1.966620 0.000000 0.000000 
#    y 0.000000 2.185800 0.000000 
#    z 0.000000 0.000000 2.388780 
# 
# From -- ./inp_files/8816.got.cif
#   From: 2010.05.17/outbox.cif.g08.bks.cpg/sg56_5_cif.got.tgz:8816.got - 2010.06.03 13:42:01.
