data_PCOD9432195
_publ_section_title
;
Structure prediction by ZEFSAII (Michael W. Deem and Ramdas Pophale) SiO2 
 PCOD9432195
Probable space group: P C C N
;
_chemical_formula_sum "Si O2"
_cell_formula_units_Z 32
_cell_length_a 4.892081
_cell_length_b 18.489822
_cell_length_c 13.964217
_cell_angle_alpha 90.000000
_cell_angle_beta 90.000000
_cell_angle_gamma 90.000000
_cell_volume 1263.115192
_symmetry_space_group_name_H-M "P C C N"
_symmetry_group_IT_number 56
_symmetry_cell_setting 'orthorhombic'
loop_
_space_group_symop_operation_xyz
x,y,z
1/2-x,1/2-y,z
1/2+x,-y,1/2-z
-x,1/2+y,1/2-z
-x,-y,-z
1/2+x,1/2+y,-z
1/2-x,y,1/2+z
x,1/2-y,1/2+z
loop_
_atom_site_type_symbol
_atom_site_label
_atom_site_fract_x
_atom_site_fract_y
_atom_site_fract_z
Si Si1 0.130909 0.103337 0.586066
Si Si2 0.526822 0.472293 0.299731
Si Si3 0.155263 0.668794 0.727698
Si Si4 0.855330 0.330972 0.486628
O O1 0.415189 0.138515 0.556634
O O2 0.019751 0.141371 0.682997
O O3 0.911925 0.120815 0.504249
O O4 0.136232 0.018454 0.610582
O O5 0.209958 0.490550 0.285214
O O6 0.600064 0.389006 0.287295
O O7 0.250000 0.750000 0.746736
O O8 0.027357 0.668793 0.621165
O O9 0.750000 0.250000 0.507155
#
# Coordination Sequence:
#
# PCOD9432195 Si02
#       4
#     8   8   8   8
#     4  11  23  43  69  96 135 175 214 274 329 380
#     4  10  22  41  66  97 130 173 224 264 321 398
#     4  10  24  46  71  97 134 175 216 273 332 384
#     4  11  25  42  67 102 131 171 228 266 320 401
#
# _framework density 25.33419
#
# number of rings (size 3 to 8) (size 9 to 14) (size 15 to 20)
#    0.000    1.500    0.000    4.500    0.000   10.000 
#    0.000   13.750    0.000    1.500    0.000    0.000 
#    0.000    0.000    0.000    0.000    0.000    0.000 
#
# Total GULP energy -179184.033575 kJ/mol
# GULP energy per Si atom -5599.501049 kJ/mol
# Density = 2.527653 g / cm^3
# Si number density = 25.334190 Si / 1000 Ang^3
#
#
#
# Elastic Constant Matrix: (Units=GPa)
#
#
# Indices 1 2 3 4 5 6 
#
# 1 95.4129 25.5340 9.1844 0.0000 0.0000 0.0000
# 2 25.5340 200.7754 30.3869 0.0000 0.0000 0.0000
# 3 9.1844 30.3869 83.4668 0.0000 0.0000 0.0000
# 4 0.0000 0.0000 0.0000 47.9815 0.0000 0.0000
# 5 0.0000 0.0000 0.0000 0.0000 17.3812 0.0000
# 6 0.0000 0.0000 0.0000 0.0000 0.0000 23.6429
#
#
#
# Elastic Compliance Matrix: (Units=1/GPa)
#
#
# Indices 1 2 3 4 5 6 
#
# 1 0.010892 -0.001274 -0.000735 0.000000 0.000000 0.000000
# 2 -0.001274 0.005420 -0.001833 0.000000 0.000000 0.000000
# 3 -0.000735 -0.001833 0.012729 0.000000 0.000000 0.000000
# 4 0.000000 0.000000 0.000000 0.020841 0.000000 0.000000
# 5 0.000000 0.000000 0.000000 0.000000 0.057533 0.000000
# 6 0.000000 0.000000 0.000000 0.000000 0.000000 0.042296
#
#
# Mechanical properties :
#
#
# Convention : Reuss Voigt Hill
#
# Bulk Modulus (GPa) = 46.82114 56.65175 51.73644
# Shear Modulus (GPa) = 30.39229 38.77111 34.58170
#
# Velocity S-wave (km/s) = 3.46736 3.91626 3.69863
# Velocity P-wave (km/s) = 5.87807 6.54674 6.22139
#
# Compressibility (1/GPa) = 0.02135787
#
# Stress axis : x y z
#
# Youngs Moduli (GPa) = 91.80674 184.49671 78.56078
#
# Poissons Ratio (x) = 0.23506 0.05772
# Poissons Ratio (y) = 0.11697 0.14401
# Poissons Ratio (z) = 0.06745 0.33819
#
# Static dielectric constant tensor:
#      x y z
#    x 1.954190 0.000000 0.000000 
#    y 0.000000 2.001270 0.000000 
#    z 0.000000 0.000000 2.047410 
# 
# From -- ./inp_files/9375.got.cif
#   From: 2010.05.17/outbox.cif.g08.bks.cpg/sg56_5_cif.got.tgz:9375.got - 2010.06.03 13:42:01.
