data_PCOD9432235
_publ_section_title
;
Structure prediction by ZEFSAII (Michael W. Deem and Ramdas Pophale) SiO2 
 PCOD9432235
Probable space group: P C C N
;
_chemical_formula_sum "Si O2"
_cell_formula_units_Z 52
_cell_length_a 20.726247
_cell_length_b 5.242293
_cell_length_c 21.688383
_cell_angle_alpha 90.000000
_cell_angle_beta 90.000000
_cell_angle_gamma 90.000000
_cell_volume 2356.509170
_symmetry_space_group_name_H-M "P C C N"
_symmetry_group_IT_number 56
_symmetry_cell_setting 'orthorhombic'
loop_
_space_group_symop_operation_xyz
x,y,z
1/2-x,1/2-y,z
1/2+x,-y,1/2-z
-x,1/2+y,1/2-z
-x,-y,-z
1/2+x,1/2+y,-z
1/2-x,y,1/2+z
x,1/2-y,1/2+z
loop_
_atom_site_type_symbol
_atom_site_label
_atom_site_fract_x
_atom_site_fract_y
_atom_site_fract_z
Si Si1 0.179850 0.363746 0.819078
Si Si2 0.077116 0.966626 0.008185
Si Si3 0.250000 0.750000 0.234421
Si Si4 0.139740 0.459700 0.201529
Si Si5 0.423069 0.856218 0.894083
Si Si6 0.072167 0.457342 0.078315
Si Si7 0.961191 0.263416 0.239166
O O1 0.250000 0.250000 0.838096
O O2 0.201048 0.614076 0.781039
O O3 0.145434 0.195439 0.765589
O O4 0.130128 0.436756 0.872946
O O5 0.089801 0.745505 0.059023
O O6 0.096162 0.251083 0.027975
O O7 0.101846 0.841849 0.944902
O O8 0.000000 0.000000 0.000000
O O9 0.212852 0.548460 0.192486
O O10 0.104138 0.355415 0.141651
O O11 0.096140 0.708038 0.214401
O O12 0.493611 0.956454 0.916214
O O13 0.439575 0.715367 0.830378
O O14 0.987038 0.547811 0.244175
#
# Coordination Sequence:
#
# PCOD9432235 Si02
#       7
#     8   8   4   8   8   8   8
#     4  10  23  43  63 101 131 185 222 282 345 414
#     4  10  24  42  61  99 133 182 219 269 340 400
#     4  10  22  42  62  96 130 178 226 264 358 400
#     4  11  24  38  66  94 142 170 225 277 345 408
#     4  11  22  40  68  92 144 173 225 281 339 409
#     4  11  25  39  67  99 135 175 228 276 340 408
#     4  12  25  36  62 104 135 164 212 275 353 403
#
# _framework density 22.066538000000001
#
# number of rings (size 3 to 8) (size 9 to 14) (size 15 to 20)
#    0.000    1.231    3.077    2.769    6.462    2.462 
#    0.000    0.000    0.000    3.692    0.000    0.000 
#    0.000    0.000    0.000    0.000    0.000    0.000 
#
# Total GULP energy -290067.127160 kJ/mol
# GULP energy per Si atom -5578.213984 kJ/mol
# Density = 2.201631 g / cm^3
# Si number density = 22.066538 Si / 1000 Ang^3
#
#
#
# Elastic Constant Matrix: (Units=GPa)
#
#
# Indices 1 2 3 4 5 6 
#
# 1 71.4645 39.8710 46.9355 0.0000 0.0000 0.0000
# 2 39.8710 91.1465 21.6322 0.0000 0.0000 0.0000
# 3 46.9355 21.6322 96.5909 0.0000 0.0000 0.0000
# 4 0.0000 0.0000 0.0000 32.2004 0.0000 0.0000
# 5 0.0000 0.0000 0.0000 0.0000 17.3602 0.0000
# 6 0.0000 0.0000 0.0000 0.0000 0.0000 30.9218
#
#
#
# Elastic Compliance Matrix: (Units=1/GPa)
#
#
# Indices 1 2 3 4 5 6 
#
# 1 0.025860 -0.008797 -0.010596 0.000000 0.000000 0.000000
# 2 -0.008797 0.014580 0.001010 0.000000 0.000000 0.000000
# 3 -0.010596 0.001010 0.015276 0.000000 0.000000 0.000000
# 4 0.000000 0.000000 0.000000 0.031055 0.000000 0.000000
# 5 0.000000 0.000000 0.000000 0.000000 0.057603 0.000000
# 6 0.000000 0.000000 0.000000 0.000000 0.000000 0.032340
#
#
# Mechanical properties :
#
#
# Convention : Reuss Voigt Hill
#
# Bulk Modulus (GPa) = 52.77469 52.89770 52.83619
# Shear Modulus (GPa) = 22.74824 26.14738 24.44781
#
# Velocity S-wave (km/s) = 3.21424 3.44602 3.33214
# Velocity P-wave (km/s) = 6.14355 6.31327 6.22899
#
# Compressibility (1/GPa) = 0.01894848
#
# Stress axis : x y z
#
# Youngs Moduli (GPa) = 38.66964 68.58664 65.46426
#
# Poissons Ratio (x) = 0.60339 0.69364
# Poissons Ratio (y) = 0.34020 -0.06609
# Poissons Ratio (z) = 0.40973 -0.06924
#
# Static dielectric constant tensor:
#      x y z
#    x 1.883240 0.000000 0.000000 
#    y 0.000000 1.904660 0.000000 
#    z 0.000000 0.000000 1.850300 
# 
# From -- ./inp_files/19459.got.cif
#   From: 2010.05.17/outbox.cif.g08.bks.cpg/sg56_10_cif.got.tgz:19459.got - 2010.06.03 13:42:01.
