data_PCOD9432984
_publ_section_title
;
Structure prediction by ZEFSAII (Michael W. Deem and Ramdas Pophale) SiO2 
 PCOD9432984
Probable space group: P C C N
;
_chemical_formula_sum "Si O2"
_cell_formula_units_Z 40
_cell_length_a 14.344397
_cell_length_b 5.025062
_cell_length_c 24.401396
_cell_angle_alpha 90.000000
_cell_angle_beta 90.000000
_cell_angle_gamma 90.000000
_cell_volume 1758.888842
_symmetry_space_group_name_H-M "P C C N"
_symmetry_group_IT_number 56
_symmetry_cell_setting 'orthorhombic'
loop_
_space_group_symop_operation_xyz
x,y,z
1/2-x,1/2-y,z
1/2+x,-y,1/2-z
-x,1/2+y,1/2-z
-x,-y,-z
1/2+x,1/2+y,-z
1/2-x,y,1/2+z
x,1/2-y,1/2+z
loop_
_atom_site_type_symbol
_atom_site_label
_atom_site_fract_x
_atom_site_fract_y
_atom_site_fract_z
Si Si1 0.649404 0.898712 0.552763
Si Si2 0.687710 0.495699 0.814307
Si Si3 0.954735 0.398707 0.098260
Si Si4 0.040494 0.928065 0.271523
Si Si5 0.646383 0.878796 0.429052
O O1 0.750000 0.750000 0.560933
O O2 0.577493 0.663740 0.567312
O O3 0.639349 0.996573 0.489842
O O4 0.618704 0.157337 0.587267
O O5 0.750000 0.250000 0.800064
O O6 0.623208 0.556283 0.763278
O O7 0.640641 0.442976 0.873861
O O8 0.750000 0.750000 0.823317
O O9 0.956258 0.444168 0.163583
O O10 0.058036 0.314881 0.078722
O O11 0.039968 0.624303 0.250644
O O12 0.750000 0.750000 0.430676
#
# Coordination Sequence:
#
# PCOD9432984 Si02
#       5
#     8   8   8   8   8
#     4  11  26  46  71 103 142 183 235 285 351 416
#     4  11  25  43  70 102 135 182 236 288 349 414
#     4  12  25  45  74 102 141 185 233 286 353 414
#     4  12  25  45  70  98 142 179 231 287 350 411
#     4  10  24  45  71 104 141 183 232 293 342 418
#
# _framework density 22.741631000000002
#
# number of rings (size 3 to 8) (size 9 to 14) (size 15 to 20)
#    0.000    0.800    2.000    4.200    2.800    7.200 
#    0.000    0.000    0.000    0.000    0.000    0.000 
#    0.000    0.000    0.000    0.000    0.000    0.000 
#
# Total GULP energy -223363.942802 kJ/mol
# GULP energy per Si atom -5584.098570 kJ/mol
# Density = 2.268987 g / cm^3
# Si number density = 22.741631 Si / 1000 Ang^3
#
#
#
# Elastic Constant Matrix: (Units=GPa)
#
#
# Indices 1 2 3 4 5 6 
#
# 1 68.5961 3.5056 34.6521 0.0000 0.0000 0.0000
# 2 3.5056 71.4837 -6.4179 0.0000 0.0000 0.0000
# 3 34.6521 -6.4179 126.7833 0.0000 0.0000 0.0000
# 4 0.0000 0.0000 0.0000 39.3319 0.0000 0.0000
# 5 0.0000 0.0000 0.0000 0.0000 28.1387 0.0000
# 6 0.0000 0.0000 0.0000 0.0000 0.0000 21.7181
#
#
#
# Elastic Compliance Matrix: (Units=1/GPa)
#
#
# Indices 1 2 3 4 5 6 
#
# 1 0.017025 -0.001258 -0.004717 0.000000 0.000000 0.000000
# 2 -0.001258 0.014146 0.001060 0.000000 0.000000 0.000000
# 3 -0.004717 0.001060 0.009230 0.000000 0.000000 0.000000
# 4 0.000000 0.000000 0.000000 0.025425 0.000000 0.000000
# 5 0.000000 0.000000 0.000000 0.000000 0.035538 0.000000
# 6 0.000000 0.000000 0.000000 0.000000 0.000000 0.046045
#
#
# Mechanical properties :
#
#
# Convention : Reuss Voigt Hill
#
# Bulk Modulus (GPa) = 32.71080 36.70474 34.70777
# Shear Modulus (GPa) = 29.86318 33.51262 31.68790
#
# Velocity S-wave (km/s) = 3.62767 3.84295 3.73686
# Velocity P-wave (km/s) = 5.65346 5.98881 5.82355
#
# Compressibility (1/GPa) = 0.03057094
#
# Stress axis : x y z
#
# Youngs Moduli (GPa) = 58.73631 70.69091 108.33796
#
# Poissons Ratio (x) = 0.08896 0.51103
# Poissons Ratio (y) = 0.07392 -0.11484
# Poissons Ratio (z) = 0.27706 -0.07494
#
# Static dielectric constant tensor:
#      x y z
#    x 1.498610 0.000000 0.000000 
#    y 0.000000 1.857380 0.000000 
#    z 0.000000 0.000000 1.934090 
# 
# From -- ./inp_files/21070.got.cif
#   From: 2010.05.17/outbox.cif.g08.bks.cpg/sg56_11_cif.got.tgz:21070.got - 2010.06.03 13:42:01.
