data_PCOD9432637
_publ_section_title
;
Structure prediction by ZEFSAII (Michael W. Deem and Ramdas Pophale) SiO2 
 PCOD9432637
Probable space group: P C C N
;
_chemical_formula_sum "Si O2"
_cell_formula_units_Z 32
_cell_length_a 13.290153
_cell_length_b 7.053723
_cell_length_c 14.655663
_cell_angle_alpha 90.000000
_cell_angle_beta 90.000000
_cell_angle_gamma 90.000000
_cell_volume 1373.895976
_symmetry_space_group_name_H-M "P C C N"
_symmetry_group_IT_number 56
_symmetry_cell_setting 'orthorhombic'
loop_
_space_group_symop_operation_xyz
x,y,z
1/2-x,1/2-y,z
1/2+x,-y,1/2-z
-x,1/2+y,1/2-z
-x,-y,-z
1/2+x,1/2+y,-z
1/2-x,y,1/2+z
x,1/2-y,1/2+z
loop_
_atom_site_type_symbol
_atom_site_label
_atom_site_fract_x
_atom_site_fract_y
_atom_site_fract_z
Si Si1 0.595828 0.288271 0.193343
Si Si2 0.290416 0.955226 0.473228
Si Si3 0.557539 0.413027 0.866743
Si Si4 0.919702 0.580108 0.070151
O O1 0.671592 0.411535 0.130617
O O2 0.492220 0.406677 0.183775
O O3 0.617137 0.226492 0.297041
O O4 0.586354 0.085934 0.144385
O O5 0.250000 0.750000 0.504153
O O6 0.378519 0.986750 0.547083
O O7 0.192163 0.086886 0.470902
O O8 0.465336 0.277468 0.897294
O O9 0.000000 0.500000 0.000000
#
# Coordination Sequence:
#
# PCOD9432637 Si02
#       4
#     8   8   8   8
#     4  11  24  42  68 102 132 180 229 286 346 416
#     4  10  23  42  69  97 134 183 225 283 344 416
#     4  12  23  44  71  98 141 180 231 291 349 417
#     4  11  23  46  68  94 138 182 229 284 350 407
#
# _framework density 23.291429999999998
#
# number of rings (size 3 to 8) (size 9 to 14) (size 15 to 20)
#    0.000    1.000    7.500    0.750    0.000    4.000 
#    0.000    0.000    5.500    0.000    0.000    0.000 
#    0.000    0.000    0.000    0.000    0.000    0.000 
#
# Total GULP energy -178588.432929 kJ/mol
# GULP energy per Si atom -5580.888529 kJ/mol
# Density = 2.323842 g / cm^3
# Si number density = 23.291430 Si / 1000 Ang^3
#
#
#
# Elastic Constant Matrix: (Units=GPa)
#
#
# Indices 1 2 3 4 5 6 
#
# 1 149.3423 53.4934 75.4302 0.0000 0.0000 0.0000
# 2 53.4934 85.4747 34.1445 0.0000 0.0000 0.0000
# 3 75.4302 34.1445 128.6825 0.0000 0.0000 0.0000
# 4 0.0000 0.0000 0.0000 31.3579 0.0000 0.0000
# 5 0.0000 0.0000 0.0000 0.0000 24.1077 0.0000
# 6 0.0000 0.0000 0.0000 0.0000 0.0000 43.6601
#
#
#
# Elastic Compliance Matrix: (Units=1/GPa)
#
#
# Indices 1 2 3 4 5 6 
#
# 1 0.011055 -0.004843 -0.005195 0.000000 0.000000 0.000000
# 2 -0.004843 0.015208 -0.001196 0.000000 0.000000 0.000000
# 3 -0.005195 -0.001196 0.011134 0.000000 0.000000 0.000000
# 4 0.000000 0.000000 0.000000 0.031890 0.000000 0.000000
# 5 0.000000 0.000000 0.000000 0.000000 0.041480 0.000000
# 6 0.000000 0.000000 0.000000 0.000000 0.000000 0.022904
#
#
# Mechanical properties :
#
#
# Convention : Reuss Voigt Hill
#
# Bulk Modulus (GPa) = 66.98973 76.62619 71.80796
# Shear Modulus (GPa) = 31.03351 33.18723 32.11037
#
# Velocity S-wave (km/s) = 3.65417 3.77884 3.71702
# Velocity P-wave (km/s) = 6.82846 7.21178 7.02274
#
# Compressibility (1/GPa) = 0.01492766
#
# Stress axis : x y z
#
# Youngs Moduli (GPa) = 90.45948 65.75313 89.81823
#
# Poissons Ratio (x) = 0.31846 0.46659
# Poissons Ratio (y) = 0.43812 0.10746
# Poissons Ratio (z) = 0.46992 0.07867
#
# Static dielectric constant tensor:
#      x y z
#    x 1.894240 0.000000 0.000000 
#    y 0.000000 1.893630 0.000000 
#    z 0.000000 0.000000 1.908690 
# 
# From -- ./inp_files/11266.got.cif
#   From: 2010.05.17/outbox.cif.g08.bks.cpg/sg56_6_cif.got.tgz:11266.got - 2010.06.03 13:42:01.
