data_PCOD9432133
_publ_section_title
;
Structure prediction by ZEFSAII (Michael W. Deem and Ramdas Pophale) SiO2 
 PCOD9432133
Probable space group: P C C N
;
_chemical_formula_sum "Si O2"
_cell_formula_units_Z 32
_cell_length_a 5.300532
_cell_length_b 11.461598
_cell_length_c 23.370321
_cell_angle_alpha 90.000000
_cell_angle_beta 90.000000
_cell_angle_gamma 90.000000
_cell_volume 1419.806992
_symmetry_space_group_name_H-M "P C C N"
_symmetry_group_IT_number 56
_symmetry_cell_setting 'orthorhombic'
loop_
_space_group_symop_operation_xyz
x,y,z
1/2-x,1/2-y,z
1/2+x,-y,1/2-z
-x,1/2+y,1/2-z
-x,-y,-z
1/2+x,1/2+y,-z
1/2-x,y,1/2+z
x,1/2-y,1/2+z
loop_
_atom_site_type_symbol
_atom_site_label
_atom_site_fract_x
_atom_site_fract_y
_atom_site_fract_z
Si Si1 0.089705 0.996555 0.934324
Si Si2 0.658528 0.562267 0.825031
Si Si3 0.250000 0.750000 0.467784
Si Si4 0.659219 0.136606 0.229665
Si Si5 0.750000 0.750000 0.046274
O O1 0.238694 0.872822 0.933660
O O2 0.858709 0.982290 0.889764
O O3 0.221486 0.122942 0.922139
O O4 0.000000 0.000000 0.000000
O O5 0.389893 0.621142 0.813702
O O6 0.651174 0.460702 0.777905
O O7 0.901740 0.634754 0.806048
O O8 0.500012 0.741889 0.507113
O O9 0.750000 0.250000 0.263054
#
# Coordination Sequence:
#
# PCOD9432133 Si02
#       5
#     8   8   4   8   4
#     4  10  23  45  67 102 143 183 232 284 353 422
#     4  10  23  42  69 100 131 177 225 288 354 406
#     4  10  22  40  68  92 140 188 236 278 338 414
#     4  10  22  45  67  97 132 174 232 284 347 411
#     4  10  22  42  64  96 140 190 228 280 342 418
#
# _framework density 22.538274999999999
#
# number of rings (size 3 to 8) (size 9 to 14) (size 15 to 20)
#    0.000    2.000    0.000    1.500    1.750    8.000 
#   31.500    0.000    0.000    0.000    0.000    0.000 
#    0.000    0.000    0.000    0.000    0.000    0.000 
#
# Total GULP energy -178246.902918 kJ/mol
# GULP energy per Si atom -5570.215716 kJ/mol
# Density = 2.248698 g / cm^3
# Si number density = 22.538275 Si / 1000 Ang^3
#
#
#
# Elastic Constant Matrix: (Units=GPa)
#
#
# Indices 1 2 3 4 5 6 
#
# 1 168.8902 57.1212 43.0821 0.0000 0.0000 0.0000
# 2 57.1212 184.9445 17.9578 0.0000 0.0000 0.0000
# 3 43.0821 17.9578 94.5399 0.0000 0.0000 0.0000
# 4 0.0000 0.0000 0.0000 -21.8158 0.0000 0.0000
# 5 0.0000 0.0000 0.0000 0.0000 13.7527 0.0000
# 6 0.0000 0.0000 0.0000 0.0000 0.0000 36.4064
#
#
#
# Elastic Compliance Matrix: (Units=1/GPa)
#
#
# Indices 1 2 3 4 5 6 
#
# 1 0.007349 -0.001981 -0.002973 0.000000 0.000000 0.000000
# 2 -0.001981 0.006043 -0.000245 0.000000 0.000000 0.000000
# 3 -0.002973 -0.000245 0.011979 0.000000 0.000000 0.000000
# 4 0.000000 0.000000 0.000000 -0.045838 0.000000 0.000000
# 5 0.000000 0.000000 0.000000 0.000000 0.072713 0.000000
# 6 0.000000 0.000000 0.000000 0.000000 0.000000 0.027468
#
#
# Mechanical properties :
#
#
# Convention : Reuss Voigt Hill
#
# Bulk Modulus (GPa) = 66.78729 76.07743 71.43236
# Shear Modulus (GPa) = 52.57508 27.68290 40.12899
#
# Velocity S-wave (km/s) = 4.83505 3.50846 4.22415
# Velocity P-wave (km/s) = 7.80176 7.08805 7.45345
#
# Compressibility (1/GPa) = 0.01497291
#
# Stress axis : x y z
#
# Youngs Moduli (GPa) = 136.06484 165.48797 83.48082
#
# Poissons Ratio (x) = 0.32787 0.24817
# Poissons Ratio (y) = 0.26958 0.02045
# Poissons Ratio (z) = 0.40450 0.04054
#
# Static dielectric constant tensor:
#      x y z
#    x 1.828960 0.000000 0.000000 
#    y 0.000000 2.158320 0.000000 
#    z 0.000000 0.000000 1.828100 
# 
# From -- ./inp_files/17301.got.cif
#   From: 2010.05.17/outbox.cif.g08.bks.cpg/sg56_9_cif.got.tgz:17301.got - 2010.06.03 13:42:01.
