data_PCOD9432469
_publ_section_title
;
Structure prediction by ZEFSAII (Michael W. Deem and Ramdas Pophale) SiO2 
 PCOD9432469
Probable space group: P C C N
;
_chemical_formula_sum "Si O2"
_cell_formula_units_Z 60
_cell_length_a 23.694230
_cell_length_b 10.014570
_cell_length_c 10.954380
_cell_angle_alpha 90.000000
_cell_angle_beta 90.000000
_cell_angle_gamma 90.000000
_cell_volume 2599.337717
_symmetry_space_group_name_H-M "P C C N"
_symmetry_group_IT_number 56
_symmetry_cell_setting 'orthorhombic'
loop_
_space_group_symop_operation_xyz
x,y,z
1/2-x,1/2-y,z
1/2+x,-y,1/2-z
-x,1/2+y,1/2-z
-x,-y,-z
1/2+x,1/2+y,-z
1/2-x,y,1/2+z
x,1/2-y,1/2+z
loop_
_atom_site_type_symbol
_atom_site_label
_atom_site_fract_x
_atom_site_fract_y
_atom_site_fract_z
Si Si1 0.358415 0.640202 0.972743
Si Si2 0.481947 0.270469 0.010427
Si Si3 0.250000 0.750000 0.620850
Si Si4 0.962436 0.456620 0.355348
Si Si5 0.770266 0.957787 0.306744
Si Si6 0.085243 0.887585 0.398793
Si Si7 0.863205 0.631801 0.971066
Si Si8 0.705343 0.618501 0.057013
O O1 0.381353 0.749247 0.877725
O O2 0.338039 0.501409 0.919194
O O3 0.304909 0.707857 0.041237
O O4 0.409129 0.596219 0.063923
O O5 0.484136 0.398833 0.101441
O O6 0.531961 0.163455 0.022840
O O7 0.489404 0.345825 0.880882
O O8 0.424168 0.197682 0.037674
O O9 0.265601 0.617816 0.696322
O O10 0.940433 0.455707 0.219393
O O11 0.831356 0.902109 0.345981
O O12 0.755296 0.897879 0.175755
O O13 0.732796 0.913094 0.424281
O O14 0.126980 0.991211 0.462314
O O15 0.826166 0.742417 0.040848
#
# Coordination Sequence:
#
# PCOD9432469 Si02
#       8
#     8   8   4   8   8   8   8   8
#     4  10  22  46  67 105 138 186 237 294 356 431
#     4  10  24  46  64 103 142 182 238 291 364 423
#     4  10  22  46  70 106 146 186 242 302 362 428
#     4  10  23  44  69  97 144 188 234 295 361 427
#     4  11  27  47  76 107 148 192 245 302 365 440
#     4  11  25  41  72 101 137 185 238 297 359 427
#     4  12  25  45  70 110 138 184 243 303 357 431
#     4  11  27  47  76 104 149 191 240 297 368 435
#
# _framework density 23.082802000000001
#
# number of rings (size 3 to 8) (size 9 to 14) (size 15 to 20)
#    0.000    1.333    2.667    0.800    5.600    6.400 
#    0.000    0.000    0.000    0.000    0.000    0.000 
#    0.000    0.000    0.000    0.000    0.000    0.000 
#
# Total GULP energy -335218.197694 kJ/mol
# GULP energy per Si atom -5586.969962 kJ/mol
# Density = 2.303026 g / cm^3
# Si number density = 23.082802 Si / 1000 Ang^3
#
#
#
# Elastic Constant Matrix: (Units=GPa)
#
#
# Indices 1 2 3 4 5 6 
#
# 1 74.0822 44.8280 10.3259 0.0000 0.0000 0.0000
# 2 44.8280 166.6141 31.3374 0.0000 0.0000 0.0000
# 3 10.3259 31.3374 73.9139 0.0000 0.0000 0.0000
# 4 0.0000 0.0000 0.0000 31.9845 0.0000 0.0000
# 5 0.0000 0.0000 0.0000 0.0000 25.7831 0.0000
# 6 0.0000 0.0000 0.0000 0.0000 0.0000 58.9857
#
#
#
# Elastic Compliance Matrix: (Units=1/GPa)
#
#
# Indices 1 2 3 4 5 6 
#
# 1 0.016137 -0.004257 -0.000449 0.000000 0.000000 0.000000
# 2 -0.004257 0.007645 -0.002647 0.000000 0.000000 0.000000
# 3 -0.000449 -0.002647 0.014714 0.000000 0.000000 0.000000
# 4 0.000000 0.000000 0.000000 0.031265 0.000000 0.000000
# 5 0.000000 0.000000 0.000000 0.000000 0.038785 0.000000
# 6 0.000000 0.000000 0.000000 0.000000 0.000000 0.016953
#
#
# Mechanical properties :
#
#
# Convention : Reuss Voigt Hill
#
# Bulk Modulus (GPa) = 42.03454 54.17700 48.10577
# Shear Modulus (GPa) = 33.75267 38.55859 36.15563
#
# Velocity S-wave (km/s) = 3.82808 4.09154 3.96200
# Velocity P-wave (km/s) = 6.14726 6.77072 6.46651
#
# Compressibility (1/GPa) = 0.02378996
#
# Stress axis : x y z
#
# Youngs Moduli (GPa) = 61.96836 130.80283 67.96195
#
# Poissons Ratio (x) = 0.55686 0.03055
# Poissons Ratio (y) = 0.26381 0.17987
# Poissons Ratio (z) = 0.02785 0.34618
#
# Static dielectric constant tensor:
#      x y z
#    x 1.919440 0.000000 0.000000 
#    y 0.000000 1.858350 0.000000 
#    z 0.000000 0.000000 1.857280 
# 
# From -- ./inp_files/9089.got.cif
#   From: 2010.05.17/outbox.cif.g08.bks.cpg/sg56_5_cif.got.tgz:9089.got - 2010.06.03 13:42:01.
