data_PCOD9432510
_publ_section_title
;
Structure prediction by ZEFSAII (Michael W. Deem and Ramdas Pophale) SiO2 
 PCOD9432510
Probable space group: P C C N
;
_chemical_formula_sum "Si O2"
_cell_formula_units_Z 40
_cell_length_a 17.839606
_cell_length_b 8.668954
_cell_length_c 9.807549
_cell_angle_alpha 90.000000
_cell_angle_beta 90.000000
_cell_angle_gamma 90.000000
_cell_volume 1516.744551
_symmetry_space_group_name_H-M "P C C N"
_symmetry_group_IT_number 56
_symmetry_cell_setting 'orthorhombic'
loop_
_space_group_symop_operation_xyz
x,y,z
1/2-x,1/2-y,z
1/2+x,-y,1/2-z
-x,1/2+y,1/2-z
-x,-y,-z
1/2+x,1/2+y,-z
1/2-x,y,1/2+z
x,1/2-y,1/2+z
loop_
_atom_site_type_symbol
_atom_site_label
_atom_site_fract_x
_atom_site_fract_y
_atom_site_fract_z
Si Si1 0.411849 0.990242 0.348597
Si Si2 0.497646 0.296443 0.352232
Si Si3 0.709686 0.545840 0.370291
Si Si4 0.663873 0.943538 0.166010
Si Si5 0.141279 0.778898 0.486797
O O1 0.455609 0.846871 0.280371
O O2 0.356430 0.071706 0.240211
O O3 0.362783 0.904027 0.464205
O O4 0.472326 0.121182 0.380088
O O5 0.421037 0.388800 0.335644
O O6 0.557918 0.334632 0.468744
O O7 0.785503 0.592053 0.295228
O O8 0.696078 0.615349 0.520214
O O9 0.695024 0.364389 0.405104
O O10 0.664722 0.129311 0.148913
#
# Coordination Sequence:
#
# PCOD9432510 Si02
#       5
#     8   8   8   8   8
#     4  11  23  44  69 116 144 193 246 310 380 439
#     4  11  23  42  78 106 146 192 249 317 370 447
#     4   9  24  46  72 102 146 198 240 299 373 454
#     4  10  22  49  74 100 152 194 246 302 377 445
#     4   9  22  45  73 103 144 185 254 302 370 443
#
# _framework density 26.372271999999999
#
# number of rings (size 3 to 8) (size 9 to 14) (size 15 to 20)
#    1.200    0.800    0.000    2.400    2.800    1.600 
#   18.000    2.000    0.000    0.000    0.000    0.000 
#    0.000    0.000    0.000    0.000    0.000    0.000 
#
# Total GULP energy -223306.288845 kJ/mol
# GULP energy per Si atom -5582.657221 kJ/mol
# Density = 2.631225 g / cm^3
# Si number density = 26.372272 Si / 1000 Ang^3
#
#
#
# Elastic Constant Matrix: (Units=GPa)
#
#
# Indices 1 2 3 4 5 6 
#
# 1 123.5879 16.2093 52.9858 0.0000 0.0000 0.0000
# 2 16.2093 67.8489 -12.8197 0.0000 0.0000 0.0000
# 3 52.9858 -12.8197 90.4225 0.0000 0.0000 0.0000
# 4 0.0000 0.0000 0.0000 22.0939 0.0000 0.0000
# 5 0.0000 0.0000 0.0000 0.0000 39.9789 0.0000
# 6 0.0000 0.0000 0.0000 0.0000 0.0000 60.8318
#
#
#
# Elastic Compliance Matrix: (Units=1/GPa)
#
#
# Indices 1 2 3 4 5 6 
#
# 1 0.011902 -0.004276 -0.007581 0.000000 0.000000 0.000000
# 2 -0.004276 0.016680 0.004870 0.000000 0.000000 0.000000
# 3 -0.007581 0.004870 0.016192 0.000000 0.000000 0.000000
# 4 0.000000 0.000000 0.000000 0.045261 0.000000 0.000000
# 5 0.000000 0.000000 0.000000 0.000000 0.025013 0.000000
# 6 0.000000 0.000000 0.000000 0.000000 0.000000 0.016439
#
#
# Mechanical properties :
#
#
# Convention : Reuss Voigt Hill
#
# Bulk Modulus (GPa) = 32.46514 43.84556 38.15535
# Shear Modulus (GPa) = 32.10737 39.61317 35.86027
#
# Velocity S-wave (km/s) = 3.49301 3.87987 3.69151
# Velocity P-wave (km/s) = 5.34838 6.06077 5.71568
#
# Compressibility (1/GPa) = 0.03080227
#
# Stress axis : x y z
#
# Youngs Moduli (GPa) = 84.01756 59.95066 61.75954
#
# Poissons Ratio (x) = 0.25634 0.46818
# Poissons Ratio (y) = 0.35924 -0.30079
# Poissons Ratio (z) = 0.63691 -0.29198
#
# Static dielectric constant tensor:
#      x y z
#    x 2.109610 0.000000 0.000000 
#    y 0.000000 2.124100 0.000000 
#    z 0.000000 0.000000 2.043920 
# 
# From -- ./inp_files/8183.got.cif
#   From: 2010.05.17/outbox.cif.g08.bks.cpg/sg56_5_cif.got.tgz:8183.got - 2010.06.03 13:42:01.
