data_PCOD9432743
_publ_section_title
;
Structure prediction by ZEFSAII (Michael W. Deem and Ramdas Pophale) SiO2 
 PCOD9432743
Probable space group: P C C N
;
_chemical_formula_sum "Si O2"
_cell_formula_units_Z 60
_cell_length_a 26.350102
_cell_length_b 5.035852
_cell_length_c 20.331851
_cell_angle_alpha 90.000000
_cell_angle_beta 90.000000
_cell_angle_gamma 90.000000
_cell_volume 2697.939317
_symmetry_space_group_name_H-M "P C C N"
_symmetry_group_IT_number 56
_symmetry_cell_setting 'orthorhombic'
loop_
_space_group_symop_operation_xyz
x,y,z
1/2-x,1/2-y,z
1/2+x,-y,1/2-z
-x,1/2+y,1/2-z
-x,-y,-z
1/2+x,1/2+y,-z
1/2-x,y,1/2+z
x,1/2-y,1/2+z
loop_
_atom_site_type_symbol
_atom_site_label
_atom_site_fract_x
_atom_site_fract_y
_atom_site_fract_z
Si Si1 0.888780 0.234645 0.468514
Si Si2 0.388022 0.288993 0.946235
Si Si3 0.198831 0.320036 0.340940
Si Si4 0.878064 0.841022 0.754602
Si Si5 0.852370 0.188088 0.330965
Si Si6 0.750000 0.250000 0.257119
Si Si7 0.483395 0.514272 0.289973
Si Si8 0.999636 0.166504 0.432487
O O1 0.870868 0.513299 0.496504
O O2 0.857795 0.123898 0.406977
O O3 0.945087 0.299470 0.440444
O O4 0.887066 0.014232 0.526890
O O5 0.349157 0.361630 0.887858
O O6 0.448051 0.334675 0.930191
O O7 0.250000 0.250000 0.380757
O O8 0.172741 0.116446 0.288953
O O9 0.223257 0.541100 0.293201
O O10 0.873358 0.549857 0.785421
O O11 0.926095 0.904238 0.709841
O O12 0.883307 0.047657 0.813464
O O13 0.796232 0.269506 0.309251
O O14 0.488005 0.802810 0.257232
O O15 0.502203 0.501866 0.364954
O O16 0.000000 0.000000 0.500000
#
# Coordination Sequence:
#
# PCOD9432743 Si02
#       8
#     8   8   8   8   8   4   8   8
#     4  11  24  43  66  98 136 179 220 271 336 411
#     4  11  25  43  67  98 132 181 226 276 329 408
#     4  11  23  44  69  96 131 168 229 279 340 391
#     4  11  22  41  68  98 128 173 216 280 335 401
#     4  11  23  43  68  95 137 171 226 275 349 401
#     4  10  24  42  72  98 130 178 222 290 344 406
#     4  12  25  41  67 105 139 177 229 286 341 401
#     4  10  23  45  68  99 141 188 226 274 341 425
#
# _framework density 22.239196
#
# number of rings (size 3 to 8) (size 9 to 14) (size 15 to 20)
#    0.000    1.067    2.667    3.600    1.867    5.333 
#    2.400    0.000    0.000    0.000    0.000    0.000 
#    0.000    0.000    0.000    0.000    0.000    0.000 
#
# Total GULP energy -334333.811068 kJ/mol
# GULP energy per Si atom -5572.230184 kJ/mol
# Density = 2.218858 g / cm^3
# Si number density = 22.239196 Si / 1000 Ang^3
#
#
#
# Elastic Constant Matrix: (Units=GPa)
#
#
# Indices 1 2 3 4 5 6 
#
# 1 110.0632 5.0586 22.3791 0.0000 0.0000 0.0000
# 2 5.0586 52.2869 -5.6636 0.0000 0.0000 0.0000
# 3 22.3791 -5.6636 98.2367 0.0000 0.0000 0.0000
# 4 0.0000 0.0000 0.0000 23.4201 0.0000 0.0000
# 5 0.0000 0.0000 0.0000 0.0000 19.8612 0.0000
# 6 0.0000 0.0000 0.0000 0.0000 0.0000 8.1589
#
#
#
# Elastic Compliance Matrix: (Units=1/GPa)
#
#
# Indices 1 2 3 4 5 6 
#
# 1 0.009598 -0.001173 -0.002254 0.000000 0.000000 0.000000
# 2 -0.001173 0.019389 0.001385 0.000000 0.000000 0.000000
# 3 -0.002254 0.001385 0.010773 0.000000 0.000000 0.000000
# 4 0.000000 0.000000 0.000000 0.042698 0.000000 0.000000
# 5 0.000000 0.000000 0.000000 0.000000 0.050349 0.000000
# 6 0.000000 0.000000 0.000000 0.000000 0.000000 0.122565
#
#
# Mechanical properties :
#
#
# Convention : Reuss Voigt Hill
#
# Bulk Modulus (GPa) = 28.03024 33.79279 30.91152
# Shear Modulus (GPa) = 18.42653 26.20890 22.31772
#
# Velocity S-wave (km/s) = 2.88160 3.43665 3.17129
# Velocity P-wave (km/s) = 4.86855 5.56557 5.22869
#
# Compressibility (1/GPa) = 0.03567575
#
# Stress axis : x y z
#
# Youngs Moduli (GPa) = 104.18936 51.57639 92.82599
#
# Poissons Ratio (x) = 0.06049 0.20924
# Poissons Ratio (y) = 0.12219 -0.12856
# Poissons Ratio (z) = 0.23485 -0.07143
#
# Static dielectric constant tensor:
#      x y z
#    x 1.939890 0.000000 0.000000 
#    y 0.000000 1.857650 0.000000 
#    z 0.000000 0.000000 1.842450 
# 
# From -- ./inp_files/17059.got.cif
#   From: 2010.05.17/outbox.cif.g08.bks.cpg/sg56_9_cif.got.tgz:17059.got - 2010.06.03 13:42:01.
