data_PCOD9432883
_publ_section_title
;
Structure prediction by ZEFSAII (Michael W. Deem and Ramdas Pophale) SiO2 
 PCOD9432883
Probable space group: P C C N
;
_chemical_formula_sum "Si O2"
_cell_formula_units_Z 56
_cell_length_a 8.926355
_cell_length_b 13.116076
_cell_length_c 21.175033
_cell_angle_alpha 90.000000
_cell_angle_beta 90.000000
_cell_angle_gamma 90.000000
_cell_volume 2479.146407
_symmetry_space_group_name_H-M "P C C N"
_symmetry_group_IT_number 56
_symmetry_cell_setting 'orthorhombic'
loop_
_space_group_symop_operation_xyz
x,y,z
1/2-x,1/2-y,z
1/2+x,-y,1/2-z
-x,1/2+y,1/2-z
-x,-y,-z
1/2+x,1/2+y,-z
1/2-x,y,1/2+z
x,1/2-y,1/2+z
loop_
_atom_site_type_symbol
_atom_site_label
_atom_site_fract_x
_atom_site_fract_y
_atom_site_fract_z
Si Si1 0.440663 0.903435 0.716909
Si Si2 0.310072 0.355718 0.030675
Si Si3 0.903376 0.288226 0.584388
Si Si4 0.421358 0.059852 0.940944
Si Si5 0.709629 0.031033 0.875512
Si Si6 0.721600 0.463681 0.169086
Si Si7 0.105431 0.178491 0.681182
O O1 0.582653 0.966888 0.691054
O O2 0.513346 0.809072 0.753878
O O3 0.327760 0.897286 0.658704
O O4 0.337129 0.950542 0.773124
O O5 0.250000 0.250000 0.060653
O O6 0.487988 0.339489 0.032981
O O7 0.282982 0.459030 0.070386
O O8 0.199494 0.364704 0.971518
O O9 0.750000 0.250000 0.554570
O O10 0.856883 0.362855 0.641351
O O11 0.995563 0.202416 0.622411
O O12 0.318342 0.000783 0.890869
O O13 0.567515 0.092083 0.901781
O O14 0.500000 0.000000 0.000000
O O15 0.654754 0.939261 0.828791
O O16 0.250000 0.250000 0.685732
#
# Coordination Sequence:
#
# PCOD9432883 Si02
#       7
#     8   8   8   8   8   8   8
#     4  12  23  38  69 100 136 177 225 286 349 423
#     4  11  22  41  69  95 134 182 232 287 349 404
#     4  12  22  36  64 101 130 166 238 288 334 407
#     4  10  24  42  67  96 132 179 232 295 349 412
#     4  11  19  42  67 101 130 175 233 282 344 423
#     4  12  23  40  64  99 132 174 230 281 343 422
#     4  12  21  38  65 100 136 176 219 284 349 396
#
# _framework density 22.588419999999999
#
# number of rings (size 3 to 8) (size 9 to 14) (size 15 to 20)
#    0.000    0.571    8.571    0.000    2.000    0.571 
#    0.000    0.714    3.143    0.000    3.714    0.000 
#    0.000    0.000    0.000    0.000    0.000    0.000 
#
# Total GULP energy -312044.108439 kJ/mol
# GULP energy per Si atom -5572.216222 kJ/mol
# Density = 2.253701 g / cm^3
# Si number density = 22.588420 Si / 1000 Ang^3
#
#
#
# Elastic Constant Matrix: (Units=GPa)
#
#
# Indices 1 2 3 4 5 6 
#
# 1 209.4514 43.3380 71.2658 0.0000 0.0000 0.0000
# 2 43.3380 22.2134 25.9545 0.0000 0.0000 0.0000
# 3 71.2658 25.9545 80.9569 0.0000 0.0000 0.0000
# 4 0.0000 0.0000 0.0000 -2.7212 0.0000 0.0000
# 5 0.0000 0.0000 0.0000 0.0000 50.7611 0.0000
# 6 0.0000 0.0000 0.0000 0.0000 0.0000 38.3435
#
#
#
# Elastic Compliance Matrix: (Units=1/GPa)
#
#
# Indices 1 2 3 4 5 6 
#
# 1 0.008584 -0.012661 -0.003497 0.000000 0.000000 0.000000
# 2 -0.012661 0.090655 -0.017918 0.000000 0.000000 0.000000
# 3 -0.003497 -0.017918 0.021176 0.000000 0.000000 0.000000
# 4 0.000000 0.000000 0.000000 -0.367487 0.000000 0.000000
# 5 0.000000 0.000000 0.000000 0.000000 0.019700 0.000000
# 6 0.000000 0.000000 0.000000 0.000000 0.000000 0.026080
#
#
# Mechanical properties :
#
#
# Convention : Reuss Voigt Hill
#
# Bulk Modulus (GPa) = 19.13458 65.97090 42.55274
# Shear Modulus (GPa) = -43.20867 28.74758 -7.23054
#
# Velocity S-wave (km/s) = -4.37838 3.57132 -1.79107
# Velocity P-wave (km/s) = 4.13170 6.80256 3.82125
#
# Compressibility (1/GPa) = 0.05226140
#
# Stress axis : x y z
#
# Youngs Moduli (GPa) = 116.49457 11.03080 47.22411
#
# Poissons Ratio (x) = 0.13966 0.16516
# Poissons Ratio (y) = 1.47493 0.84618
# Poissons Ratio (z) = 0.40744 0.19765
#
# Static dielectric constant tensor:
#      x y z
#    x 1.914000 0.000000 0.000000 
#    y 0.000000 1.887660 0.000000 
#    z 0.000000 0.000000 1.917320 
# 
# From -- ./inp_files/18248.got.cif
#   From: 2010.05.17/outbox.cif.g08.bks.cpg/sg56_10_cif.got.tgz:18248.got - 2010.06.03 13:42:01.
