data_PCOD9432621
_publ_section_title
;
Structure prediction by ZEFSAII (Michael W. Deem and Ramdas Pophale) SiO2 
 PCOD9432621
Probable space group: P C C N
;
_chemical_formula_sum "Si O2"
_cell_formula_units_Z 60
_cell_length_a 25.656046
_cell_length_b 8.562894
_cell_length_c 12.128972
_cell_angle_alpha 90.000000
_cell_angle_beta 90.000000
_cell_angle_gamma 90.000000
_cell_volume 2664.613887
_symmetry_space_group_name_H-M "P C C N"
_symmetry_group_IT_number 56
_symmetry_cell_setting 'orthorhombic'
loop_
_space_group_symop_operation_xyz
x,y,z
1/2-x,1/2-y,z
1/2+x,-y,1/2-z
-x,1/2+y,1/2-z
-x,-y,-z
1/2+x,1/2+y,-z
1/2-x,y,1/2+z
x,1/2-y,1/2+z
loop_
_atom_site_type_symbol
_atom_site_label
_atom_site_fract_x
_atom_site_fract_y
_atom_site_fract_z
Si Si1 0.397898 0.581413 0.998822
Si Si2 0.831759 0.828408 0.751699
Si Si3 0.303314 0.494627 0.457421
Si Si4 0.052588 0.754023 0.300050
Si Si5 0.145624 0.813603 0.653168
Si Si6 0.750000 0.750000 0.401222
Si Si7 0.194593 0.989589 0.842888
Si Si8 0.943442 0.588415 0.315728
O O1 0.424494 0.713434 0.921618
O O2 0.355586 0.504150 0.921074
O O3 0.364371 0.644003 0.102913
O O4 0.440026 0.472706 0.057877
O O5 0.785578 0.873641 0.835422
O O6 0.808594 0.659938 0.713954
O O7 0.889741 0.816865 0.797429
O O8 0.834113 0.949547 0.651865
O O9 0.334427 0.597583 0.544325
O O10 0.291081 0.337030 0.522966
O O11 0.246425 0.545476 0.412485
O O12 0.089618 0.659194 0.212898
O O13 0.994130 0.691063 0.295374
O O14 0.054189 0.934662 0.262850
O O15 0.185478 0.857148 0.750134
#
# Coordination Sequence:
#
# PCOD9432621 Si02
#       8
#     8   8   8   8   8   4   8   8
#     4  10  23  45  66  96 134 183 223 291 347 420
#     4  12  23  39  64 103 132 175 225 289 337 416
#     4  12  21  39  65  97 135 180 221 282 341 419
#     4  10  24  47  68 102 136 182 235 291 347 418
#     4  10  23  42  66  89 139 174 224 284 339 412
#     4  12  20  38  62 100 138 174 230 274 348 400
#     4  11  22  40  67  96 133 175 229 275 348 415
#     4  11  25  43  72  98 139 178 234 291 354 408
#
# _framework density 22.517333000000001
#
# number of rings (size 3 to 8) (size 9 to 14) (size 15 to 20)
#    0.000    1.067    4.000    2.000    3.733    0.533 
#    0.000    7.333    0.000    0.000    0.000    0.000 
#    0.000    0.000    0.000    0.000    0.000    0.000 
#
# Total GULP energy -334842.262304 kJ/mol
# GULP energy per Si atom -5580.704372 kJ/mol
# Density = 2.246608 g / cm^3
# Si number density = 22.517333 Si / 1000 Ang^3
#
#
#
# Elastic Constant Matrix: (Units=GPa)
#
#
# Indices 1 2 3 4 5 6 
#
# 1 138.8877 34.4065 46.6562 0.0000 0.0000 0.0000
# 2 34.4065 38.5900 6.1887 0.0000 0.0000 0.0000
# 3 46.6562 6.1887 97.7972 0.0000 0.0000 0.0000
# 4 0.0000 0.0000 0.0000 31.2827 0.0000 0.0000
# 5 0.0000 0.0000 0.0000 0.0000 32.0148 0.0000
# 6 0.0000 0.0000 0.0000 0.0000 0.0000 37.0162
#
#
#
# Elastic Compliance Matrix: (Units=1/GPa)
#
#
# Indices 1 2 3 4 5 6 
#
# 1 0.011022 -0.009076 -0.004684 0.000000 0.000000 0.000000
# 2 -0.009076 0.033653 0.002200 0.000000 0.000000 0.000000
# 3 -0.004684 0.002200 0.012321 0.000000 0.000000 0.000000
# 4 0.000000 0.000000 0.000000 0.031967 0.000000 0.000000
# 5 0.000000 0.000000 0.000000 0.000000 0.031236 0.000000
# 6 0.000000 0.000000 0.000000 0.000000 0.000000 0.027015
#
#
# Mechanical properties :
#
#
# Convention : Reuss Voigt Hill
#
# Bulk Modulus (GPa) = 29.51943 49.97530 39.74737
# Shear Modulus (GPa) = 27.52952 32.59762 30.06357
#
# Velocity S-wave (km/s) = 3.50035 3.80895 3.65791
# Velocity P-wave (km/s) = 5.42906 6.44876 5.96075
#
# Compressibility (1/GPa) = 0.03387599
#
# Stress axis : x y z
#
# Youngs Moduli (GPa) = 90.72891 29.71546 81.16525
#
# Poissons Ratio (x) = 0.26969 0.38017
# Poissons Ratio (y) = 0.82344 -0.17858
# Poissons Ratio (z) = 0.42496 -0.06538
#
# Static dielectric constant tensor:
#      x y z
#    x 1.864720 0.000000 0.000000 
#    y 0.000000 1.942500 0.000000 
#    z 0.000000 0.000000 1.892690 
# 
# From -- ./inp_files/9064.got.cif
#   From: 2010.05.17/outbox.cif.g08.bks.cpg/sg56_5_cif.got.tgz:9064.got - 2010.06.03 13:42:01.
