data_PCOD9432722
_publ_section_title
;
Structure prediction by ZEFSAII (Michael W. Deem and Ramdas Pophale) SiO2 
 PCOD9432722
Probable space group: P C C N
;
_chemical_formula_sum "Si O2"
_cell_formula_units_Z 60
_cell_length_a 17.794253
_cell_length_b 15.642568
_cell_length_c 9.151522
_cell_angle_alpha 90.000000
_cell_angle_beta 90.000000
_cell_angle_gamma 90.000000
_cell_volume 2547.306130
_symmetry_space_group_name_H-M "P C C N"
_symmetry_group_IT_number 56
_symmetry_cell_setting 'orthorhombic'
loop_
_space_group_symop_operation_xyz
x,y,z
1/2-x,1/2-y,z
1/2+x,-y,1/2-z
-x,1/2+y,1/2-z
-x,-y,-z
1/2+x,1/2+y,-z
1/2-x,y,1/2+z
x,1/2-y,1/2+z
loop_
_atom_site_type_symbol
_atom_site_label
_atom_site_fract_x
_atom_site_fract_y
_atom_site_fract_z
Si Si1 0.920439 0.415925 0.363457
Si Si2 0.009989 0.849460 0.726523
Si Si3 0.685940 0.095171 0.107077
Si Si4 0.250000 0.250000 0.980628
Si Si5 0.332029 0.149512 0.726809
Si Si6 0.575567 0.524899 0.149188
Si Si7 0.782109 0.500329 0.810054
Si Si8 0.093815 0.753129 0.479573
O O1 0.885098 0.432403 0.206779
O O2 0.910550 0.489052 0.486201
O O3 0.884610 0.329271 0.424393
O O4 0.010426 0.405132 0.354883
O O5 0.920720 0.853141 0.746279
O O6 0.042444 0.943337 0.763038
O O7 0.039173 0.815350 0.571644
O O8 0.048572 0.785693 0.843409
O O9 0.758783 0.079599 0.207472
O O10 0.665768 0.190953 0.062439
O O11 0.695645 0.035366 0.966712
O O12 0.291859 0.184442 0.873189
O O13 0.188632 0.209074 0.088983
O O14 0.288821 0.062224 0.688531
O O15 0.650657 0.550191 0.230996
#
# Coordination Sequence:
#
# PCOD9432722 Si02
#       8
#     8   8   8   4   8   8   8   8
#     4  10  23  45  73 103 140 186 245 303 362 429
#     4  11  22  44  73 103 139 187 244 302 365 430
#     4  12  25  47  71 104 144 190 243 300 365 440
#     4  10  24  44  68 106 148 188 238 288 374 432
#     4  11  24  44  71 106 146 192 234 297 365 446
#     4  10  23  44  72 102 142 190 238 298 367 436
#     4  12  26  45  71 103 152 190 242 296 372 450
#     4  11  23  44  73 104 138 180 248 308 360 426
#
# _framework density 23.554293999999999
#
# number of rings (size 3 to 8) (size 9 to 14) (size 15 to 20)
#    0.000    1.067    2.667    3.200    0.000    8.000 
#    4.800   10.000    0.000    0.000    0.000    0.000 
#    0.000    0.000    0.000    0.000    0.000    0.000 
#
# Total GULP energy -336066.611604 kJ/mol
# GULP energy per Si atom -5601.110193 kJ/mol
# Density = 2.350068 g / cm^3
# Si number density = 23.554294 Si / 1000 Ang^3
#
#
#
# Elastic Constant Matrix: (Units=GPa)
#
#
# Indices 1 2 3 4 5 6 
#
# 1 80.3834 4.6778 32.0808 0.0000 0.0000 0.0000
# 2 4.6778 64.3105 19.9433 0.0000 0.0000 0.0000
# 3 32.0808 19.9433 113.1353 0.0000 0.0000 0.0000
# 4 0.0000 0.0000 0.0000 14.3849 0.0000 0.0000
# 5 0.0000 0.0000 0.0000 0.0000 34.6819 0.0000
# 6 0.0000 0.0000 0.0000 0.0000 0.0000 37.2588
#
#
#
# Elastic Compliance Matrix: (Units=1/GPa)
#
#
# Indices 1 2 3 4 5 6 
#
# 1 0.014031 0.000226 -0.004018 0.000000 0.000000 0.000000
# 2 0.000226 0.016452 -0.002964 0.000000 0.000000 0.000000
# 3 -0.004018 -0.002964 0.010501 0.000000 0.000000 0.000000
# 4 0.000000 0.000000 0.000000 0.069517 0.000000 0.000000
# 5 0.000000 0.000000 0.000000 0.000000 0.028834 0.000000
# 6 0.000000 0.000000 0.000000 0.000000 0.000000 0.026839
#
#
# Mechanical properties :
#
#
# Convention : Reuss Voigt Hill
#
# Bulk Modulus (GPa) = 36.40292 41.24809 38.82550
# Shear Modulus (GPa) = 26.47674 30.67361 28.57517
#
# Velocity S-wave (km/s) = 3.35636 3.61259 3.48683
# Velocity P-wave (km/s) = 5.52346 5.91194 5.72100
#
# Compressibility (1/GPa) = 0.02747033
#
# Stress axis : x y z
#
# Youngs Moduli (GPa) = 71.27082 60.78152 95.22940
#
# Poissons Ratio (x) = -0.01371 0.38267
# Poissons Ratio (y) = -0.01608 0.28228
# Poissons Ratio (z) = 0.28640 0.18017
#
# Static dielectric constant tensor:
#      x y z
#    x 1.873750 0.000000 0.000000 
#    y 0.000000 1.948250 0.000000 
#    z 0.000000 0.000000 1.886940 
# 
# From -- ./inp_files/4142.got.cif
#   From: 2010.05.17/outbox.cif.g08.bks.cpg/sg56_3_cif.got.tgz:4142.got - 2010.06.03 13:42:01.
