data_PCOD9432086
_publ_section_title
;
Structure prediction by ZEFSAII (Michael W. Deem and Ramdas Pophale) SiO2 
 PCOD9432086
Probable space group: P C C N
;
_chemical_formula_sum "Si O2"
_cell_formula_units_Z 40
_cell_length_a 6.714489
_cell_length_b 23.433945
_cell_length_c 10.991464
_cell_angle_alpha 90.000000
_cell_angle_beta 90.000000
_cell_angle_gamma 90.000000
_cell_volume 1729.473512
_symmetry_space_group_name_H-M "P C C N"
_symmetry_group_IT_number 56
_symmetry_cell_setting 'orthorhombic'
loop_
_space_group_symop_operation_xyz
x,y,z
1/2-x,1/2-y,z
1/2+x,-y,1/2-z
-x,1/2+y,1/2-z
-x,-y,-z
1/2+x,1/2+y,-z
1/2-x,y,1/2+z
x,1/2-y,1/2+z
loop_
_atom_site_type_symbol
_atom_site_label
_atom_site_fract_x
_atom_site_fract_y
_atom_site_fract_z
Si Si1 0.381141 0.017168 0.618738
Si Si2 0.051120 0.725934 0.408865
Si Si3 0.508530 0.574239 0.307874
Si Si4 0.100533 0.128830 0.252826
Si Si5 0.613803 0.160987 0.994504
O O1 0.151088 0.035276 0.605580
O O2 0.473492 0.075171 0.673618
O O3 0.500000 0.000000 0.500000
O O4 0.394506 0.967420 0.718261
O O5 0.250000 0.750000 0.337565
O O6 0.163041 0.686431 0.509231
O O7 0.920494 0.686980 0.323380
O O8 0.977033 0.783654 0.471371
O O9 0.668903 0.611241 0.229378
O O10 0.394349 0.617032 0.394740
O O11 0.972760 0.134420 0.373615
#
# Coordination Sequence:
#
# PCOD9432086 Si02
#       5
#     8   8   8   8   8
#     4  10  24  41  60  93 126 167 210 256 311 368
#     4   8  22  37  63  88 121 153 208 253 318 367
#     4  10  23  39  62  90 124 163 206 253 308 372
#     4  10  22  40  63  91 123 167 204 258 319 362
#     4   9  21  42  62  91 122 159 210 258 311 376
#
# _framework density 23.128423999999999
#
# number of rings (size 3 to 8) (size 9 to 14) (size 15 to 20)
#    2.400    0.000    0.000    1.200    5.600    3.200 
#    3.600    2.000    0.000    0.000    0.000    0.000 
#    0.000    0.000    0.000    0.000    0.000    0.000 
#
# Total GULP energy -222992.752932 kJ/mol
# GULP energy per Si atom -5574.818823 kJ/mol
# Density = 2.307578 g / cm^3
# Si number density = 23.128424 Si / 1000 Ang^3
#
#
#
# Elastic Constant Matrix: (Units=GPa)
#
#
# Indices 1 2 3 4 5 6 
#
# 1 38.8966 22.3626 1.8171 0.0000 0.0000 0.0000
# 2 22.3626 142.0617 58.7105 0.0000 0.0000 0.0000
# 3 1.8171 58.7105 84.1646 0.0000 0.0000 0.0000
# 4 0.0000 0.0000 0.0000 37.5633 0.0000 0.0000
# 5 0.0000 0.0000 0.0000 0.0000 181.0499 0.0000
# 6 0.0000 0.0000 0.0000 0.0000 0.0000 34.6843
#
#
#
# Elastic Compliance Matrix: (Units=1/GPa)
#
#
# Indices 1 2 3 4 5 6 
#
# 1 0.029022 -0.006055 0.003597 0.000000 0.000000 0.000000
# 2 -0.006055 0.011154 -0.007650 0.000000 0.000000 0.000000
# 3 0.003597 -0.007650 0.017140 0.000000 0.000000 0.000000
# 4 0.000000 0.000000 0.000000 0.026622 0.000000 0.000000
# 5 0.000000 0.000000 0.000000 0.000000 0.005523 0.000000
# 6 0.000000 0.000000 0.000000 0.000000 0.000000 0.028832
#
#
# Mechanical properties :
#
#
# Convention : Reuss Voigt Hill
#
# Bulk Modulus (GPa) = 26.95354 47.87816 37.41585
# Shear Modulus (GPa) = 33.13993 62.80835 47.97414
#
# Velocity S-wave (km/s) = 3.78943 5.21683 4.55933
# Velocity P-wave (km/s) = 5.55207 7.55202 6.62792
#
# Compressibility (1/GPa) = 0.03710088
#
# Stress axis : x y z
#
# Youngs Moduli (GPa) = 34.45614 89.65500 58.34276
#
# Poissons Ratio (x) = 0.54288 -0.20988
# Poissons Ratio (y) = 0.20864 0.44631
# Poissons Ratio (z) = -0.12395 0.68585
#
# Static dielectric constant tensor:
#      x y z
#    x 1.964540 0.000000 0.000000 
#    y 0.000000 1.883260 0.000000 
#    z 0.000000 0.000000 1.814780 
# 
# From -- ./inp_files/2032.got.cif
#   From: 2010.05.17/outbox.cif.g08.bks.cpg/sg56_2_cif.got.tgz:2032.got - 2010.06.03 13:42:01.
