data_PCOD9432579
_publ_section_title
;
Structure prediction by ZEFSAII (Michael W. Deem and Ramdas Pophale) SiO2 
 PCOD9432579
Probable space group: P C C N
;
_chemical_formula_sum "Si O2"
_cell_formula_units_Z 56
_cell_length_a 8.406808
_cell_length_b 13.615277
_cell_length_c 22.363381
_cell_angle_alpha 90.000000
_cell_angle_beta 90.000000
_cell_angle_gamma 90.000000
_cell_volume 2559.735391
_symmetry_space_group_name_H-M "P C C N"
_symmetry_group_IT_number 56
_symmetry_cell_setting 'orthorhombic'
loop_
_space_group_symop_operation_xyz
x,y,z
1/2-x,1/2-y,z
1/2+x,-y,1/2-z
-x,1/2+y,1/2-z
-x,-y,-z
1/2+x,1/2+y,-z
1/2-x,y,1/2+z
x,1/2-y,1/2+z
loop_
_atom_site_type_symbol
_atom_site_label
_atom_site_fract_x
_atom_site_fract_y
_atom_site_fract_z
Si Si1 0.808920 0.137166 0.379979
Si Si2 0.176183 0.936842 0.235940
Si Si3 0.750000 0.250000 0.686928
Si Si4 0.151849 0.109718 0.437519
Si Si5 0.667425 0.059251 0.499612
Si Si6 0.645764 0.953972 0.668605
Si Si7 0.468132 0.844965 0.397212
Si Si8 0.750000 0.750000 0.459777
O O1 0.750000 0.250000 0.368141
O O2 0.784721 0.066793 0.323018
O O3 0.703847 0.094057 0.433706
O O4 0.988186 0.126790 0.403263
O O5 0.229205 0.842875 0.272545
O O6 0.212331 0.022184 0.284073
O O7 0.999903 0.921837 0.210235
O O8 0.596215 0.239183 0.645471
O O9 0.153066 0.184392 0.492992
O O10 0.194501 0.006397 0.470134
O O11 0.288981 0.113695 0.385474
O O12 0.635287 0.150300 0.542726
O O13 0.500000 0.000000 0.500000
O O14 0.574435 0.052753 0.636361
O O15 0.644820 0.821584 0.418775
#
# Coordination Sequence:
#
# PCOD9432579 Si02
#       8
#     8   8   4   8   8   8   8   4
#     4  12  25  40  70 100 139 176 222 281 338 400
#     4  11  23  45  68  94 127 181 217 279 328 398
#     4  10  24  44  64  92 130 164 230 264 334 382
#     4  11  25  41  65 104 134 173 228 271 337 412
#     4  11  22  44  65  96 135 178 217 275 339 401
#     4  10  24  45  70  91 134 176 229 273 332 408
#     4  10  23  41  64  93 130 175 210 275 334 398
#     4  12  24  38  64 102 140 166 218 276 346 396
#
# _framework density 21.877262000000002
#
# number of rings (size 3 to 8) (size 9 to 14) (size 15 to 20)
#    0.000    1.143    2.143    3.857    5.000    1.143 
#    2.571    0.000    0.000    0.000    0.000    0.000 
#    0.000    0.000    0.000    0.000    0.000    0.000 
#
# Total GULP energy -312514.148526 kJ/mol
# GULP energy per Si atom -5580.609795 kJ/mol
# Density = 2.182747 g / cm^3
# Si number density = 21.877262 Si / 1000 Ang^3
#
#
#
# Elastic Constant Matrix: (Units=GPa)
#
#
# Indices 1 2 3 4 5 6 
#
# 1 89.1371 4.2131 24.4074 0.0000 0.0000 0.0000
# 2 4.2131 14.9854 7.5649 0.0000 0.0000 0.0000
# 3 24.4074 7.5649 131.5283 0.0000 0.0000 0.0000
# 4 0.0000 0.0000 0.0000 30.0636 0.0000 0.0000
# 5 0.0000 0.0000 0.0000 0.0000 27.7851 0.0000
# 6 0.0000 0.0000 0.0000 0.0000 0.0000 22.5136
#
#
#
# Elastic Compliance Matrix: (Units=1/GPa)
#
#
# Indices 1 2 3 4 5 6 
#
# 1 0.011895 -0.002297 -0.002075 0.000000 0.000000 0.000000
# 2 -0.002297 0.069170 -0.003552 0.000000 0.000000 0.000000
# 3 -0.002075 -0.003552 0.008192 0.000000 0.000000 0.000000
# 4 0.000000 0.000000 0.000000 0.033263 0.000000 0.000000
# 5 0.000000 0.000000 0.000000 0.000000 0.035991 0.000000
# 6 0.000000 0.000000 0.000000 0.000000 0.000000 0.044418
#
#
# Mechanical properties :
#
#
# Convention : Reuss Voigt Hill
#
# Bulk Modulus (GPa) = 13.62216 34.22463 23.92339
# Shear Modulus (GPa) = 20.55520 29.37015 24.96268
#
# Velocity S-wave (km/s) = 3.06856 3.66798 3.38158
# Velocity P-wave (km/s) = 4.33531 5.79799 5.11916
#
# Compressibility (1/GPa) = 0.07340978
#
# Stress axis : x y z
#
# Youngs Moduli (GPa) = 84.06543 14.45706 122.06515
#
# Poissons Ratio (x) = 0.03320 0.25333
# Poissons Ratio (y) = 0.19307 0.43360
# Poissons Ratio (z) = 0.17446 0.05135
#
# Static dielectric constant tensor:
#      x y z
#    x 1.832780 0.000000 0.000000 
#    y 0.000000 1.880720 0.000000 
#    z 0.000000 0.000000 1.806510 
# 
# From -- ./inp_files/18265.got.cif
#   From: 2010.05.17/outbox.cif.g08.bks.cpg/sg56_10_cif.got.tgz:18265.got - 2010.06.03 13:42:01.
