data_PCOD9432889
_publ_section_title
;
Structure prediction by ZEFSAII (Michael W. Deem and Ramdas Pophale) SiO2 
 PCOD9432889
Probable space group: P C C N
;
_chemical_formula_sum "Si O2"
_cell_formula_units_Z 40
_cell_length_a 13.583781
_cell_length_b 11.434374
_cell_length_c 9.559221
_cell_angle_alpha 90.000000
_cell_angle_beta 90.000000
_cell_angle_gamma 90.000000
_cell_volume 1484.757633
_symmetry_space_group_name_H-M "P C C N"
_symmetry_group_IT_number 56
_symmetry_cell_setting 'orthorhombic'
loop_
_space_group_symop_operation_xyz
x,y,z
1/2-x,1/2-y,z
1/2+x,-y,1/2-z
-x,1/2+y,1/2-z
-x,-y,-z
1/2+x,1/2+y,-z
1/2-x,y,1/2+z
x,1/2-y,1/2+z
loop_
_atom_site_type_symbol
_atom_site_label
_atom_site_fract_x
_atom_site_fract_y
_atom_site_fract_z
Si Si1 0.654056 0.970685 0.782953
Si Si2 0.000000 0.500000 0.500000
Si Si3 0.582842 0.597693 0.560019
Si Si4 0.045210 0.665547 0.313615
Si Si5 0.750000 0.750000 0.144352
Si Si6 0.650160 0.398531 0.764945
O O1 0.595698 0.034782 0.655633
O O2 0.738947 0.066742 0.817635
O O3 0.700063 0.850838 0.735744
O O4 0.572011 0.944276 0.900936
O O5 0.034398 0.361630 0.569448
O O6 0.924864 0.430544 0.387154
O O7 0.502014 0.655154 0.660364
O O8 0.671047 0.687464 0.551235
O O9 0.631436 0.488896 0.640507
O O10 0.120853 0.772003 0.302217
#
# Coordination Sequence:
#
# PCOD9432889 Si02
#       6
#     8   4   8   8   4   8
#     4  11  24  45  69 104 141 188 244 312 372 453
#     4  10  26  46  70 102 150 192 242 306 374 452
#     4  10  24  42  70 102 139 189 241 304 375 445
#     4  11  25  45  71 104 142 190 250 301 383 450
#     4  10  24  42  68  98 140 188 244 288 380 448
#     4  10  25  44  71 108 138 196 245 307 379 442
#
# _framework density 26.940422000000002
#
# number of rings (size 3 to 8) (size 9 to 14) (size 15 to 20)
#    0.000    1.600    0.000    1.800   14.000    4.800 
#    0.000    0.000    0.000    0.000    0.000    0.000 
#    0.000    0.000    0.000    0.000    0.000    0.000 
#
# Total GULP energy -222768.168227 kJ/mol
# GULP energy per Si atom -5569.204206 kJ/mol
# Density = 2.687910 g / cm^3
# Si number density = 26.940422 Si / 1000 Ang^3
#
#
#
# Elastic Constant Matrix: (Units=GPa)
#
#
# Indices 1 2 3 4 5 6 
#
# 1 76.9158 40.2153 13.7620 0.0000 0.0000 0.0000
# 2 40.2153 137.8795 56.8369 0.0000 0.0000 0.0000
# 3 13.7620 56.8369 124.7145 0.0000 0.0000 0.0000
# 4 0.0000 0.0000 0.0000 33.8390 0.0000 0.0000
# 5 0.0000 0.0000 0.0000 0.0000 44.3578 0.0000
# 6 0.0000 0.0000 0.0000 0.0000 0.0000 47.3866
#
#
#
# Elastic Compliance Matrix: (Units=1/GPa)
#
#
# Indices 1 2 3 4 5 6 
#
# 1 0.015359 -0.004656 0.000427 0.000000 0.000000 0.000000
# 2 -0.004656 0.010342 -0.004199 0.000000 0.000000 0.000000
# 3 0.000427 -0.004199 0.009885 0.000000 0.000000 0.000000
# 4 0.000000 0.000000 0.000000 0.029552 0.000000 0.000000
# 5 0.000000 0.000000 0.000000 0.000000 0.022544 0.000000
# 6 0.000000 0.000000 0.000000 0.000000 0.000000 0.021103
#
#
# Mechanical properties :
#
#
# Convention : Reuss Voigt Hill
#
# Bulk Modulus (GPa) = 53.39173 62.34870 57.87022
# Shear Modulus (GPa) = 37.91211 40.36305 39.13758
#
# Velocity S-wave (km/s) = 3.75541 3.87490 3.81563
# Velocity P-wave (km/s) = 6.21817 6.57368 6.39839
#
# Compressibility (1/GPa) = 0.01872949
#
# Stress axis : x y z
#
# Youngs Moduli (GPa) = 65.10790 96.69571 101.16346
#
# Poissons Ratio (x) = 0.45020 -0.04319
# Poissons Ratio (y) = 0.30313 0.42482
# Poissons Ratio (z) = -0.02780 0.40606
#
# Static dielectric constant tensor:
#      x y z
#    x 2.802510 0.000000 0.000000 
#    y 0.000000 2.268830 0.000000 
#    z 0.000000 0.000000 4.676880 
# 
# From -- ./inp_files/3904.got.cif
#   From: 2010.05.17/outbox.cif.g08.bks.cpg/sg56_2_cif.got.tgz:3904.got - 2010.06.03 13:42:01.
