data_PCOD9432760
_publ_section_title
;
Structure prediction by ZEFSAII (Michael W. Deem and Ramdas Pophale) SiO2 
 PCOD9432760
Probable space group: P C C N
;
_chemical_formula_sum "Si O2"
_cell_formula_units_Z 40
_cell_length_a 14.276654
_cell_length_b 11.062604
_cell_length_c 12.151867
_cell_angle_alpha 90.000000
_cell_angle_beta 90.000000
_cell_angle_gamma 90.000000
_cell_volume 1919.229050
_symmetry_space_group_name_H-M "P C C N"
_symmetry_group_IT_number 56
_symmetry_cell_setting 'orthorhombic'
loop_
_space_group_symop_operation_xyz
x,y,z
1/2-x,1/2-y,z
1/2+x,-y,1/2-z
-x,1/2+y,1/2-z
-x,-y,-z
1/2+x,1/2+y,-z
1/2-x,y,1/2+z
x,1/2-y,1/2+z
loop_
_atom_site_type_symbol
_atom_site_label
_atom_site_fract_x
_atom_site_fract_y
_atom_site_fract_z
Si Si1 0.979617 0.311219 0.050533
Si Si2 0.632763 0.585251 0.298457
Si Si3 0.825070 0.149874 0.155341
Si Si4 0.183912 0.983638 0.489232
Si Si5 0.148066 0.280856 0.891286
O O1 0.918543 0.214644 0.115572
O O2 0.903135 0.394219 0.989290
O O3 0.034945 0.391255 0.139738
O O4 0.057956 0.257317 0.968379
O O5 0.646426 0.462667 0.230546
O O6 0.700862 0.563654 0.402772
O O7 0.644959 0.700522 0.218696
O O8 0.750000 0.250000 0.201330
O O9 0.770947 0.093305 0.050846
O O10 0.153440 0.073148 0.389423
O O11 0.250000 0.250000 0.940053
#
# Coordination Sequence:
#
# PCOD9432760 Si02
#       5
#     8   8   8   8   8
#     4  10  25  43  72  95 140 170 222 283 327 400
#     4  11  23  40  69  96 132 179 217 273 336 390
#     4  10  23  46  67 102 130 177 228 269 337 406
#     4  10  23  48  64  95 140 171 219 281 333 392
#     4  11  22  42  62  98 133 173 222 271 333 395
#
# _framework density 20.841702999999999
#
# number of rings (size 3 to 8) (size 9 to 14) (size 15 to 20)
#    0.000    1.600    2.000    2.400    5.600    6.400 
#    3.600    0.000    0.000    0.000    0.000    0.000 
#    0.000    0.000    0.000    0.000    0.000    0.000 
#
# Total GULP energy -222853.769992 kJ/mol
# GULP energy per Si atom -5571.344250 kJ/mol
# Density = 2.079427 g / cm^3
# Si number density = 20.841703 Si / 1000 Ang^3
#
#
#
# Elastic Constant Matrix: (Units=GPa)
#
#
# Indices 1 2 3 4 5 6 
#
# 1 93.4522 7.9530 40.1747 0.0000 0.0000 0.0000
# 2 7.9530 73.4314 48.9371 0.0000 0.0000 0.0000
# 3 40.1747 48.9371 89.2202 0.0000 0.0000 0.0000
# 4 0.0000 0.0000 0.0000 35.6667 0.0000 0.0000
# 5 0.0000 0.0000 0.0000 0.0000 6.0580 0.0000
# 6 0.0000 0.0000 0.0000 0.0000 0.0000 29.1177
#
#
#
# Elastic Compliance Matrix: (Units=1/GPa)
#
#
# Indices 1 2 3 4 5 6 
#
# 1 0.014064 0.004251 -0.008664 0.000000 0.000000 0.000000
# 2 0.004251 0.022749 -0.014392 0.000000 0.000000 0.000000
# 3 -0.008664 -0.014392 0.023004 0.000000 0.000000 0.000000
# 4 0.000000 0.000000 0.000000 0.028037 0.000000 0.000000
# 5 0.000000 0.000000 0.000000 0.000000 0.165072 0.000000
# 6 0.000000 0.000000 0.000000 0.000000 0.000000 0.034343
#
#
# Mechanical properties :
#
#
# Convention : Reuss Voigt Hill
#
# Bulk Modulus (GPa) = 45.03343 50.02593 47.52968
# Shear Modulus (GPa) = 15.04746 24.77108 19.90927
#
# Velocity S-wave (km/s) = 2.68990 3.45125 3.09408
# Velocity P-wave (km/s) = 5.59479 6.31953 5.96817
#
# Compressibility (1/GPa) = 0.02220573
#
# Stress axis : x y z
#
# Youngs Moduli (GPa) = 71.10524 43.95790 43.47137
#
# Poissons Ratio (x) = -0.18687 0.37665
# Poissons Ratio (y) = -0.30227 0.62564
# Poissons Ratio (z) = 0.61608 0.63264
#
# Static dielectric constant tensor:
#      x y z
#    x 1.764270 0.000000 0.000000 
#    y 0.000000 1.827610 0.000000 
#    z 0.000000 0.000000 1.783310 
# 
# From -- ./inp_files/7681.got.cif
#   From: 2010.05.17/outbox.cif.g08.bks.cpg/sg56_4_cif.got.tgz:7681.got - 2010.06.03 13:42:01.
