data_PCOD9432813
_publ_section_title
;
Structure prediction by ZEFSAII (Michael W. Deem and Ramdas Pophale) SiO2 
 PCOD9432813
Probable space group: P C C N
;
_chemical_formula_sum "Si O2"
_cell_formula_units_Z 44
_cell_length_a 11.436504
_cell_length_b 24.151491
_cell_length_c 8.316186
_cell_angle_alpha 90.000000
_cell_angle_beta 90.000000
_cell_angle_gamma 90.000000
_cell_volume 2297.002287
_symmetry_space_group_name_H-M "P C C N"
_symmetry_group_IT_number 56
_symmetry_cell_setting 'orthorhombic'
loop_
_space_group_symop_operation_xyz
x,y,z
1/2-x,1/2-y,z
1/2+x,-y,1/2-z
-x,1/2+y,1/2-z
-x,-y,-z
1/2+x,1/2+y,-z
1/2-x,y,1/2+z
x,1/2-y,1/2+z
loop_
_atom_site_type_symbol
_atom_site_label
_atom_site_fract_x
_atom_site_fract_y
_atom_site_fract_z
Si Si1 0.502274 0.082003 0.227886
Si Si2 0.931902 0.042923 0.208070
Si Si3 0.149582 0.168563 0.866407
Si Si4 0.714493 0.454803 0.537346
Si Si5 0.355698 0.079941 0.896310
Si Si6 0.250000 0.250000 0.115437
O O1 0.464544 0.131345 0.343925
O O2 0.632635 0.080022 0.157872
O O3 0.470680 0.021348 0.297552
O O4 0.421661 0.088223 0.066214
O O5 0.845677 0.048396 0.363351
O O6 0.850482 0.059022 0.058611
O O7 0.047785 0.077021 0.254346
O O8 0.257552 0.125303 0.869525
O O9 0.169004 0.209804 0.718600
O O10 0.166668 0.209349 0.015115
O O11 0.700797 0.518953 0.591597
#
# Coordination Sequence:
#
# PCOD9432813 Si02
#       6
#     8   8   8   8   8   4
#     4   9  17  30  50  67 103 135 155 193 248 287
#     4   9  17  30  46  74 100 134 162 184 231 310
#     4  11  18  36  48  74  96 128 160 209 252 278
#     4   9  17  30  46  74 100 134 162 184 231 310
#     4   9  17  30  50  67 103 135 155 193 248 287
#     4  10  24  30  52  70  94 122 180 206 240 294
#
# _framework density 19.155401999999999
#
# number of rings (size 3 to 8) (size 9 to 14) (size 15 to 20)
#    0.000    2.545    3.636    2.182    0.000    0.000 
#    3.273    1.818    0.000    0.000    0.000    7.636 
#    0.000    0.000    0.000    0.000    0.000    0.000 
#
# Total GULP energy -245630.502143 kJ/mol
# GULP energy per Si atom -5582.511412 kJ/mol
# Density = 1.911180 g / cm^3
# Si number density = 19.155402 Si / 1000 Ang^3
#
#
#
# Elastic Constant Matrix: (Units=GPa)
#
#
# Indices 1 2 3 4 5 6 
#
# 1 72.7120 28.8551 17.4601 0.0000 0.0000 0.0000
# 2 28.8551 84.5283 19.0056 0.0000 0.0000 0.0000
# 3 17.4601 19.0056 38.0042 0.0000 0.0000 0.0000
# 4 0.0000 0.0000 0.0000 32.6374 0.0000 0.0000
# 5 0.0000 0.0000 0.0000 0.0000 17.1529 0.0000
# 6 0.0000 0.0000 0.0000 0.0000 0.0000 22.2959
#
#
#
# Elastic Compliance Matrix: (Units=1/GPa)
#
#
# Indices 1 2 3 4 5 6 
#
# 1 0.016865 -0.004524 -0.005486 0.000000 0.000000 0.000000
# 2 -0.004524 0.014543 -0.005194 0.000000 0.000000 0.000000
# 3 -0.005486 -0.005194 0.031431 0.000000 0.000000 0.000000
# 4 0.000000 0.000000 0.000000 0.030640 0.000000 0.000000
# 5 0.000000 0.000000 0.000000 0.000000 0.058299 0.000000
# 6 0.000000 0.000000 0.000000 0.000000 0.000000 0.044851
#
#
# Mechanical properties :
#
#
# Convention : Reuss Voigt Hill
#
# Bulk Modulus (GPa) = 30.83506 36.20956 33.52231
# Shear Modulus (GPa) = 21.02186 23.07882 22.05034
#
# Velocity S-wave (km/s) = 3.31635 3.47482 3.39651
# Velocity P-wave (km/s) = 5.54946 5.91973 5.73759
#
# Compressibility (1/GPa) = 0.03243062
#
# Stress axis : x y z
#
# Youngs Moduli (GPa) = 59.29274 68.76389 31.81575
#
# Poissons Ratio (x) = 0.31107 0.17455
# Poissons Ratio (y) = 0.26823 0.16526
# Poissons Ratio (z) = 0.32529 0.35718
#
# Static dielectric constant tensor:
#      x y z
#    x 1.675900 0.000000 0.000000 
#    y 0.000000 1.602710 0.000000 
#    z 0.000000 0.000000 1.772320 
# 
# From -- ./inp_files/2735.got.cif
#   From: 2010.05.17/outbox.cif.g08.bks.cpg/sg56_2_cif.got.tgz:2735.got - 2010.06.03 13:42:01.
