data_PCOD9432996
_publ_section_title
;
Structure prediction by ZEFSAII (Michael W. Deem and Ramdas Pophale) SiO2 
 PCOD9432996
Probable space group: P C C N
;
_chemical_formula_sum "Si O2"
_cell_formula_units_Z 60
_cell_length_a 11.967921
_cell_length_b 10.584367
_cell_length_c 21.897003
_cell_angle_alpha 90.000000
_cell_angle_beta 90.000000
_cell_angle_gamma 90.000000
_cell_volume 2773.756173
_symmetry_space_group_name_H-M "P C C N"
_symmetry_group_IT_number 56
_symmetry_cell_setting 'orthorhombic'
loop_
_space_group_symop_operation_xyz
x,y,z
1/2-x,1/2-y,z
1/2+x,-y,1/2-z
-x,1/2+y,1/2-z
-x,-y,-z
1/2+x,1/2+y,-z
1/2-x,y,1/2+z
x,1/2-y,1/2+z
loop_
_atom_site_type_symbol
_atom_site_label
_atom_site_fract_x
_atom_site_fract_y
_atom_site_fract_z
Si Si1 0.439417 0.768088 0.017741
Si Si2 0.250000 0.250000 0.683842
Si Si3 0.512167 0.999884 0.666492
Si Si4 0.759619 0.455992 0.499238
Si Si5 0.845212 0.547229 0.228856
Si Si6 0.380676 0.253635 0.374494
Si Si7 0.612778 0.652657 0.923778
Si Si8 0.781968 0.387025 0.633994
O O1 0.349598 0.652569 0.020266
O O2 0.363038 0.894516 0.011880
O O3 0.526675 0.777033 0.073699
O O4 0.521192 0.728638 0.962076
O O5 0.239655 0.371981 0.727719
O O6 0.150617 0.265207 0.634694
O O7 0.587940 0.878995 0.656426
O O8 0.438580 0.995465 0.726011
O O9 0.438416 0.027119 0.607245
O O10 0.596413 0.116761 0.663869
O O11 0.789962 0.588780 0.465922
O O12 0.775752 0.469840 0.572316
O O13 0.891293 0.644524 0.179125
O O14 0.793497 0.437786 0.188215
O O15 0.250000 0.250000 0.393721
O O16 0.750000 0.250000 0.611537
#
# Coordination Sequence:
#
# PCOD9432996 Si02
#       8
#     8   4   8   8   8   8   8   8
#     4  11  23  42  70 107 140 179 234 297 355 444
#     4  10  24  46  68 100 140 182 240 294 342 432
#     4  11  23  44  69  95 132 189 235 284 363 423
#     4  11  22  44  70 108 142 176 246 288 360 446
#     4  11  26  46  66  99 138 181 243 291 343 431
#     4  12  24  46  71  99 143 187 232 294 369 429
#     4  11  22  42  75  98 140 192 223 297 375 414
#     4  12  23  44  72  99 136 186 231 294 359 422
#
# _framework density 21.631316000000002
#
# number of rings (size 3 to 8) (size 9 to 14) (size 15 to 20)
#    0.000    0.800    6.000    1.200    2.800    0.000 
#    9.600    1.333    0.000    0.000    0.000    0.000 
#    0.000    0.000    0.000    0.000    0.000    0.000 
#
# Total GULP energy -334870.058702 kJ/mol
# GULP energy per Si atom -5581.167645 kJ/mol
# Density = 2.158208 g / cm^3
# Si number density = 21.631316 Si / 1000 Ang^3
#
#
#
# Elastic Constant Matrix: (Units=GPa)
#
#
# Indices 1 2 3 4 5 6 
#
# 1 128.3659 32.2906 77.2828 0.0000 0.0000 0.0000
# 2 32.2906 44.5497 45.4209 0.0000 0.0000 0.0000
# 3 77.2828 45.4209 143.9500 0.0000 0.0000 0.0000
# 4 0.0000 0.0000 0.0000 15.9055 0.0000 0.0000
# 5 0.0000 0.0000 0.0000 0.0000 29.2196 0.0000
# 6 0.0000 0.0000 0.0000 0.0000 0.0000 27.9815
#
#
#
# Elastic Compliance Matrix: (Units=1/GPa)
#
#
# Indices 1 2 3 4 5 6 
#
# 1 0.011792 -0.003085 -0.005357 0.000000 0.000000 0.000000
# 2 -0.003085 0.033900 -0.009040 0.000000 0.000000 0.000000
# 3 -0.005357 -0.009040 0.012676 0.000000 0.000000 0.000000
# 4 0.000000 0.000000 0.000000 0.062871 0.000000 0.000000
# 5 0.000000 0.000000 0.000000 0.000000 0.034224 0.000000
# 6 0.000000 0.000000 0.000000 0.000000 0.000000 0.035738
#
#
# Mechanical properties :
#
#
# Convention : Reuss Voigt Hill
#
# Bulk Modulus (GPa) = 42.73094 69.65044 56.19069
# Shear Modulus (GPa) = 21.37067 25.41273 23.39170
#
# Velocity S-wave (km/s) = 3.14658 3.43127 3.29200
# Velocity P-wave (km/s) = 5.74442 6.92582 6.36260
#
# Compressibility (1/GPa) = 0.02340225
#
# Stress axis : x y z
#
# Youngs Moduli (GPa) = 84.80676 29.49854 78.89214
#
# Poissons Ratio (x) = 0.09100 0.42264
# Poissons Ratio (y) = 0.26161 0.71322
# Poissons Ratio (z) = 0.45433 0.26668
#
# Static dielectric constant tensor:
#      x y z
#    x 1.862730 0.000000 0.000000 
#    y 0.000000 1.999360 0.000000 
#    z 0.000000 0.000000 1.772520 
# 
# From -- ./inp_files/18794.got.cif
#   From: 2010.05.17/outbox.cif.g08.bks.cpg/sg56_10_cif.got.tgz:18794.got - 2010.06.03 13:42:01.
