data_PCOD9432427
_publ_section_title
;
Structure prediction by ZEFSAII (Michael W. Deem and Ramdas Pophale) SiO2 
 PCOD9432427
Probable space group: P C C N
;
_chemical_formula_sum "Si O2"
_cell_formula_units_Z 44
_cell_length_a 13.642245
_cell_length_b 9.346810
_cell_length_c 16.306861
_cell_angle_alpha 90.000000
_cell_angle_beta 90.000000
_cell_angle_gamma 90.000000
_cell_volume 2079.311850
_symmetry_space_group_name_H-M "P C C N"
_symmetry_group_IT_number 56
_symmetry_cell_setting 'orthorhombic'
loop_
_space_group_symop_operation_xyz
x,y,z
1/2-x,1/2-y,z
1/2+x,-y,1/2-z
-x,1/2+y,1/2-z
-x,-y,-z
1/2+x,1/2+y,-z
1/2-x,y,1/2+z
x,1/2-y,1/2+z
loop_
_atom_site_type_symbol
_atom_site_label
_atom_site_fract_x
_atom_site_fract_y
_atom_site_fract_z
Si Si1 0.415389 0.589184 0.953408
Si Si2 0.635985 0.144371 0.942659
Si Si3 0.250000 0.750000 0.706789
Si Si4 0.547124 0.891332 0.157629
Si Si5 0.549710 0.286952 0.701471
Si Si6 0.730759 0.594919 0.556457
O O1 0.453225 0.685843 0.878325
O O2 0.333820 0.477923 0.922477
O O3 0.500000 0.500000 0.000000
O O4 0.358697 0.701190 0.012914
O O5 0.696855 0.142984 0.857556
O O6 0.521330 0.138111 0.920579
O O7 0.672095 0.016299 0.999312
O O8 0.161134 0.701428 0.764233
O O9 0.515879 0.783032 0.228235
O O10 0.660079 0.881016 0.133591
O O11 0.520018 0.052208 0.182622
O O12 0.750000 0.750000 0.517208
#
# Coordination Sequence:
#
# PCOD9432427 Si02
#       6
#     8   8   4   8   8   8
#     4  12  26  45  76 100 139 194 242 290 358 436
#     4  11  23  47  71 101 138 188 236 295 360 430
#     4  10  22  44  70  98 136 188 234 282 358 440
#     4  11  26  45  70 102 145 184 231 299 361 436
#     4  11  26  44  71 100 143 187 231 287 365 425
#     4  12  25  42  72 106 137 178 242 299 355 425
#
# _framework density 21.160847
#
# number of rings (size 3 to 8) (size 9 to 14) (size 15 to 20)
#    0.000    0.727    3.636    2.727   10.182    0.000 
#    0.000    0.000    0.000    0.000    0.000    0.000 
#    0.000    0.000    0.000    0.000    0.000    0.000 
#
# Total GULP energy -245954.172773 kJ/mol
# GULP energy per Si atom -5589.867563 kJ/mol
# Density = 2.111268 g / cm^3
# Si number density = 21.160847 Si / 1000 Ang^3
#
#
#
# Elastic Constant Matrix: (Units=GPa)
#
#
# Indices 1 2 3 4 5 6 
#
# 1 109.2025 32.4886 26.4715 0.0000 0.0000 0.0000
# 2 32.4886 116.5017 12.3037 0.0000 0.0000 0.0000
# 3 26.4715 12.3037 49.1165 0.0000 0.0000 0.0000
# 4 0.0000 0.0000 0.0000 34.1032 0.0000 0.0000
# 5 0.0000 0.0000 0.0000 0.0000 23.1177 0.0000
# 6 0.0000 0.0000 0.0000 0.0000 0.0000 32.6968
#
#
#
# Elastic Compliance Matrix: (Units=1/GPa)
#
#
# Indices 1 2 3 4 5 6 
#
# 1 0.011231 -0.002560 -0.005412 0.000000 0.000000 0.000000
# 2 -0.002560 0.009401 -0.000975 0.000000 0.000000 0.000000
# 3 -0.005412 -0.000975 0.023521 0.000000 0.000000 0.000000
# 4 0.000000 0.000000 0.000000 0.029323 0.000000 0.000000
# 5 0.000000 0.000000 0.000000 0.000000 0.043257 0.000000
# 6 0.000000 0.000000 0.000000 0.000000 0.000000 0.030584
#
#
# Mechanical properties :
#
#
# Convention : Reuss Voigt Hill
#
# Bulk Modulus (GPa) = 38.08326 46.37204 42.22765
# Shear Modulus (GPa) = 28.74192 31.55400 30.14796
#
# Velocity S-wave (km/s) = 3.68946 3.86573 3.77862
# Velocity P-wave (km/s) = 6.01544 6.47200 6.24789
#
# Compressibility (1/GPa) = 0.02625826
#
# Stress axis : x y z
#
# Youngs Moduli (GPa) = 89.04055 106.37680 42.51608
#
# Poissons Ratio (x) = 0.27237 0.23008
# Poissons Ratio (y) = 0.22798 0.04145
# Poissons Ratio (z) = 0.48184 0.10371
#
# Static dielectric constant tensor:
#      x y z
#    x 1.821350 0.000000 0.000000 
#    y 0.000000 1.745100 0.000000 
#    z 0.000000 0.000000 1.753590 
# 
# From -- ./inp_files/16102.got.cif
#   From: 2010.05.17/outbox.cif.g08.bks.cpg/sg56_9_cif.got.tgz:16102.got - 2010.06.03 13:42:01.
