data_PCOD9432075
_publ_section_title
;
Structure prediction by ZEFSAII (Michael W. Deem and Ramdas Pophale) SiO2 
 PCOD9432075
Probable space group: P C C N
;
_chemical_formula_sum "Si O2"
_cell_formula_units_Z 44
_cell_length_a 7.480992
_cell_length_b 23.826627
_cell_length_c 9.505493
_cell_angle_alpha 90.000000
_cell_angle_beta 90.000000
_cell_angle_gamma 90.000000
_cell_volume 1694.323766
_symmetry_space_group_name_H-M "P C C N"
_symmetry_group_IT_number 56
_symmetry_cell_setting 'orthorhombic'
loop_
_space_group_symop_operation_xyz
x,y,z
1/2-x,1/2-y,z
1/2+x,-y,1/2-z
-x,1/2+y,1/2-z
-x,-y,-z
1/2+x,1/2+y,-z
1/2-x,y,1/2+z
x,1/2-y,1/2+z
loop_
_atom_site_type_symbol
_atom_site_label
_atom_site_fract_x
_atom_site_fract_y
_atom_site_fract_z
Si Si1 0.595303 0.641386 0.485870
Si Si2 0.714509 0.381495 0.114562
Si Si3 0.750000 0.750000 0.365646
Si Si4 0.485257 0.457892 0.341250
Si Si5 0.586070 0.282847 0.282727
Si Si6 0.356880 0.531769 0.095336
O O1 0.433356 0.619981 0.383440
O O2 0.743871 0.686824 0.435436
O O3 0.644056 0.585972 0.577763
O O4 0.489503 0.678539 0.597142
O O5 0.605968 0.419734 0.229090
O O6 0.656579 0.319279 0.152818
O O7 0.645393 0.404370 0.963425
O O8 0.574131 0.745624 0.272477
O O9 0.395176 0.505786 0.248358
O O10 0.648762 0.482320 0.433301
O O11 0.750000 0.250000 0.343439
O O12 0.500000 0.500000 0.000000
#
# Coordination Sequence:
#
# PCOD9432075 Si02
#       6
#     8   8   4   8   8   8
#     4  10  22  40  61  88 126 164 214 264 322 380
#     4   9  19  40  61  86 121 171 204 255 329 380
#     4  12  24  40  60  96 120 162 222 266 318 388
#     4   9  19  37  63  93 123 166 211 255 322 389
#     4  11  23  39  62  88 123 167 213 263 322 384
#     4   9  18  36  62  88 124 159 206 256 313 376
#
# _framework density 25.969062999999998
#
# number of rings (size 3 to 8) (size 9 to 14) (size 15 to 20)
#    0.000    2.182    1.818    0.545    2.545    1.455 
#    0.000   13.636    0.000    0.000    0.000    0.000 
#    0.000    0.000    0.000    0.000    0.000    0.000 
#
# Total GULP energy -245353.384785 kJ/mol
# GULP energy per Si atom -5576.213291 kJ/mol
# Density = 2.590996 g / cm^3
# Si number density = 25.969063 Si / 1000 Ang^3
#
#
#
# Elastic Constant Matrix: (Units=GPa)
#
#
# Indices 1 2 3 4 5 6 
#
# 1 66.9362 -3.6599 7.6826 0.0000 0.0000 0.0000
# 2 -3.6599 84.1878 29.7016 0.0000 0.0000 0.0000
# 3 7.6826 29.7016 41.7189 0.0000 0.0000 0.0000
# 4 0.0000 0.0000 0.0000 19.8003 0.0000 0.0000
# 5 0.0000 0.0000 0.0000 0.0000 37.1945 0.0000
# 6 0.0000 0.0000 0.0000 0.0000 0.0000 53.3123
#
#
#
# Elastic Compliance Matrix: (Units=1/GPa)
#
#
# Indices 1 2 3 4 5 6 
#
# 1 0.015576 0.002256 -0.004474 0.000000 0.000000 0.000000
# 2 0.002256 0.016189 -0.011941 0.000000 0.000000 0.000000
# 3 -0.004474 -0.011941 0.033295 0.000000 0.000000 0.000000
# 4 0.000000 0.000000 0.000000 0.050504 0.000000 0.000000
# 5 0.000000 0.000000 0.000000 0.000000 0.026886 0.000000
# 6 0.000000 0.000000 0.000000 0.000000 0.000000 0.018757
#
#
# Mechanical properties :
#
#
# Convention : Reuss Voigt Hill
#
# Bulk Modulus (GPa) = 27.21732 28.92129 28.06931
# Shear Modulus (GPa) = 24.78004 32.66933 28.72468
#
# Velocity S-wave (km/s) = 3.09239 3.55069 3.32943
# Velocity P-wave (km/s) = 4.82223 5.28875 5.06087
#
# Compressibility (1/GPa) = 0.03674130
#
# Stress axis : x y z
#
# Youngs Moduli (GPa) = 64.19937 61.76980 30.03419
#
# Poissons Ratio (x) = -0.13934 0.13438
# Poissons Ratio (y) = -0.14482 0.35864
# Poissons Ratio (z) = 0.28725 0.73760
#
# Static dielectric constant tensor:
#      x y z
#    x 1.984700 0.000000 0.000000 
#    y 0.000000 2.555540 0.000000 
#    z 0.000000 0.000000 2.202310 
# 
# From -- ./inp_files/6364.got.cif
#   From: 2010.05.17/outbox.cif.g08.bks.cpg/sg56_4_cif.got.tgz:6364.got - 2010.06.03 13:42:01.
