data_PCOD9432353
_publ_section_title
;
Structure prediction by ZEFSAII (Michael W. Deem and Ramdas Pophale) SiO2 
 PCOD9432353
Probable space group: P C C N
;
_chemical_formula_sum "Si O2"
_cell_formula_units_Z 32
_cell_length_a 10.302753
_cell_length_b 8.286576
_cell_length_c 14.083191
_cell_angle_alpha 90.000000
_cell_angle_beta 90.000000
_cell_angle_gamma 90.000000
_cell_volume 1202.346034
_symmetry_space_group_name_H-M "P C C N"
_symmetry_group_IT_number 56
_symmetry_cell_setting 'orthorhombic'
loop_
_space_group_symop_operation_xyz
x,y,z
1/2-x,1/2-y,z
1/2+x,-y,1/2-z
-x,1/2+y,1/2-z
-x,-y,-z
1/2+x,1/2+y,-z
1/2-x,y,1/2+z
x,1/2-y,1/2+z
loop_
_atom_site_type_symbol
_atom_site_label
_atom_site_fract_x
_atom_site_fract_y
_atom_site_fract_z
Si Si1 0.527172 0.059250 0.176725
Si Si2 0.799844 0.572727 0.031837
Si Si3 0.303444 0.570769 0.143305
Si Si4 0.432993 0.569492 0.860366
O O1 0.652665 0.043851 0.248164
O O2 0.519939 0.246080 0.148150
O O3 0.566216 0.953696 0.086569
O O4 0.420731 0.992674 0.250667
O O5 0.750000 0.750000 0.053168
O O6 0.695884 0.450110 0.078832
O O7 0.790059 0.542932 0.919273
O O8 0.250000 0.750000 0.131874
O O9 0.448719 0.539122 0.099704
#
# Coordination Sequence:
#
# PCOD9432353 Si02
#       4
#     8   8   8   8
#     4  10  23  43  72  94 139 176 229 284 342 408
#     4  12  24  42  65  99 140 179 228 286 340 410
#     4  10  23  43  67  97 135 178 223 280 347 408
#     4  10  22  43  66  99 128 179 225 279 343 411
#
# _framework density 26.614636999999998
#
# number of rings (size 3 to 8) (size 9 to 14) (size 15 to 20)
#    1.500    0.000    0.000    6.000    0.000    1.000 
#    4.500    2.500    0.000    0.000    0.000    0.000 
#    0.000    0.000    0.000    0.000    0.000    0.000 
#
# Total GULP energy -178950.266180 kJ/mol
# GULP energy per Si atom -5592.195818 kJ/mol
# Density = 2.655406 g / cm^3
# Si number density = 26.614637 Si / 1000 Ang^3
#
#
#
# Elastic Constant Matrix: (Units=GPa)
#
#
# Indices 1 2 3 4 5 6 
#
# 1 81.9257 -17.4520 9.6104 0.0000 0.0000 0.0000
# 2 -17.4520 94.7632 9.5509 0.0000 0.0000 0.0000
# 3 9.6104 9.5509 117.9573 0.0000 0.0000 0.0000
# 4 0.0000 0.0000 0.0000 22.2894 0.0000 0.0000
# 5 0.0000 0.0000 0.0000 0.0000 48.8811 0.0000
# 6 0.0000 0.0000 0.0000 0.0000 0.0000 45.3955
#
#
#
# Elastic Compliance Matrix: (Units=1/GPa)
#
#
# Indices 1 2 3 4 5 6 
#
# 1 0.012885 0.002499 -0.001252 0.000000 0.000000 0.000000
# 2 0.002499 0.011124 -0.001104 0.000000 0.000000 0.000000
# 3 -0.001252 -0.001104 0.008669 0.000000 0.000000 0.000000
# 4 0.000000 0.000000 0.000000 0.044864 0.000000 0.000000
# 5 0.000000 0.000000 0.000000 0.000000 0.020458 0.000000
# 6 0.000000 0.000000 0.000000 0.000000 0.000000 0.022029
#
#
# Mechanical properties :
#
#
# Convention : Reuss Voigt Hill
#
# Bulk Modulus (GPa) = 30.33595 33.11830 31.72713
# Shear Modulus (GPa) = 38.24617 42.84233 40.54425
#
# Velocity S-wave (km/s) = 3.79494 4.01649 3.90729
# Velocity P-wave (km/s) = 5.53399 5.82926 5.68354
#
# Compressibility (1/GPa) = 0.03296419
#
# Stress axis : x y z
#
# Youngs Moduli (GPa) = 77.60685 89.89415 115.35250
#
# Poissons Ratio (x) = -0.22467 0.14444
# Poissons Ratio (y) = -0.19396 0.12739
# Poissons Ratio (z) = 0.09718 0.09927
#
# Static dielectric constant tensor:
#      x y z
#    x 2.218150 0.000000 0.000000 
#    y 0.000000 1.955810 0.000000 
#    z 0.000000 0.000000 2.188810 
# 
# From -- ./inp_files/10057.got.cif
#   From: 2010.05.17/outbox.cif.g08.bks.cpg/sg56_6_cif.got.tgz:10057.got - 2010.06.03 13:42:01.
