data_PCOD9432747
_publ_section_title
;
Structure prediction by ZEFSAII (Michael W. Deem and Ramdas Pophale) SiO2 
 PCOD9432747
Probable space group: P C C N
;
_chemical_formula_sum "Si O2"
_cell_formula_units_Z 56
_cell_length_a 14.616282
_cell_length_b 12.405551
_cell_length_c 13.909056
_cell_angle_alpha 90.000000
_cell_angle_beta 90.000000
_cell_angle_gamma 90.000000
_cell_volume 2522.032203
_symmetry_space_group_name_H-M "P C C N"
_symmetry_group_IT_number 56
_symmetry_cell_setting 'orthorhombic'
loop_
_space_group_symop_operation_xyz
x,y,z
1/2-x,1/2-y,z
1/2+x,-y,1/2-z
-x,1/2+y,1/2-z
-x,-y,-z
1/2+x,1/2+y,-z
1/2-x,y,1/2+z
x,1/2-y,1/2+z
loop_
_atom_site_type_symbol
_atom_site_label
_atom_site_fract_x
_atom_site_fract_y
_atom_site_fract_z
Si Si1 0.930693 0.435027 0.780634
Si Si2 0.009324 0.938539 0.101655
Si Si3 0.357259 0.736158 0.335960
Si Si4 0.155329 0.438406 0.046985
Si Si5 0.867923 0.512644 0.166236
Si Si6 0.023504 0.239975 0.033104
Si Si7 0.337467 0.089005 0.642838
O O1 0.891369 0.322861 0.742235
O O2 0.868870 0.482089 0.865746
O O3 0.946165 0.512617 0.686604
O O4 0.032247 0.433652 0.825038
O O5 0.113958 0.972747 0.124442
O O6 0.980060 0.818974 0.070109
O O7 0.000000 0.000000 0.000000
O O8 0.250000 0.750000 0.353311
O O9 0.375929 0.613110 0.307588
O O10 0.420446 0.756106 0.428745
O O11 0.072099 0.354887 0.035569
O O12 0.250680 0.386310 0.078513
O O13 0.168337 0.487138 0.941679
O O14 0.811445 0.580361 0.245087
O O15 0.083182 0.171866 0.111440
#
# Coordination Sequence:
#
# PCOD9432747 Si02
#       7
#     8   8   8   8   8   8   8
#     4  11  23  46  68 103 145 190 235 292 357 431
#     4   9  19  40  72  92 130 192 229 278 343 422
#     4  12  25  43  72 105 141 184 247 290 351 429
#     4  12  26  43  71 107 146 179 241 303 358 414
#     4  11  25  47  69 100 144 190 231 300 361 416
#     4  11  23  43  69 106 141 184 240 294 353 423
#     4  10  23  45  70  99 139 191 237 282 356 439
#
# _framework density 22.204315999999999
#
# number of rings (size 3 to 8) (size 9 to 14) (size 15 to 20)
#    0.000    1.143    5.714    1.714    2.000    5.714 
#    0.000    2.143    0.000    0.000    0.000    0.000 
#    0.000    0.000    0.000    0.000    0.000    0.000 
#
# Total GULP energy -312531.486742 kJ/mol
# GULP energy per Si atom -5580.919406 kJ/mol
# Density = 2.215378 g / cm^3
# Si number density = 22.204316 Si / 1000 Ang^3
#
#
#
# Elastic Constant Matrix: (Units=GPa)
#
#
# Indices 1 2 3 4 5 6 
#
# 1 115.1493 23.0628 27.0442 0.0000 0.0000 0.0000
# 2 23.0628 93.8703 37.9096 0.0000 0.0000 0.0000
# 3 27.0442 37.9096 144.2071 0.0000 0.0000 0.0000
# 4 0.0000 0.0000 0.0000 19.0446 0.0000 0.0000
# 5 0.0000 0.0000 0.0000 0.0000 25.5407 0.0000
# 6 0.0000 0.0000 0.0000 0.0000 0.0000 8.7946
#
#
#
# Elastic Compliance Matrix: (Units=1/GPa)
#
#
# Indices 1 2 3 4 5 6 
#
# 1 0.009342 -0.001776 -0.001285 0.000000 0.000000 0.000000
# 2 -0.001776 0.012256 -0.002889 0.000000 0.000000 0.000000
# 3 -0.001285 -0.002889 0.007935 0.000000 0.000000 0.000000
# 4 0.000000 0.000000 0.000000 0.052508 0.000000 0.000000
# 5 0.000000 0.000000 0.000000 0.000000 0.039153 0.000000
# 6 0.000000 0.000000 0.000000 0.000000 0.000000 0.113706
#
#
# Mechanical properties :
#
#
# Convention : Reuss Voigt Hill
#
# Bulk Modulus (GPa) = 56.71269 58.80666 57.75968
# Shear Modulus (GPa) = 19.78803 28.35665 24.07234
#
# Velocity S-wave (km/s) = 2.98850 3.57750 3.29618
# Velocity P-wave (km/s) = 6.12413 6.60352 6.36834
#
# Compressibility (1/GPa) = 0.01763274
#
# Stress axis : x y z
#
# Youngs Moduli (GPa) = 107.04418 81.59242 126.02593
#
# Poissons Ratio (x) = 0.14493 0.16195
# Poissons Ratio (y) = 0.19014 0.36406
# Poissons Ratio (z) = 0.13755 0.23570
#
# Static dielectric constant tensor:
#      x y z
#    x 1.809270 0.000000 0.000000 
#    y 0.000000 1.901310 0.000000 
#    z 0.000000 0.000000 1.881390 
# 
# From -- ./inp_files/12285.got.cif
#   From: 2010.05.17/outbox.cif.g08.bks.cpg/sg56_7_cif.got.tgz:12285.got - 2010.06.03 13:42:01.
