data_PCOD9432802
_publ_section_title
;
Structure prediction by ZEFSAII (Michael W. Deem and Ramdas Pophale) SiO2 
 PCOD9432802
Probable space group: P C C N
;
_chemical_formula_sum "Si O2"
_cell_formula_units_Z 40
_cell_length_a 12.838845
_cell_length_b 12.094159
_cell_length_c 10.294977
_cell_angle_alpha 90.000000
_cell_angle_beta 90.000000
_cell_angle_gamma 90.000000
_cell_volume 1598.552891
_symmetry_space_group_name_H-M "P C C N"
_symmetry_group_IT_number 56
_symmetry_cell_setting 'orthorhombic'
loop_
_space_group_symop_operation_xyz
x,y,z
1/2-x,1/2-y,z
1/2+x,-y,1/2-z
-x,1/2+y,1/2-z
-x,-y,-z
1/2+x,1/2+y,-z
1/2-x,y,1/2+z
x,1/2-y,1/2+z
loop_
_atom_site_type_symbol
_atom_site_label
_atom_site_fract_x
_atom_site_fract_y
_atom_site_fract_z
Si Si1 0.850040 0.440630 0.751154
Si Si2 0.922608 0.304690 0.226473
Si Si3 0.831505 0.012353 0.549749
Si Si4 0.139426 0.190270 0.281313
Si Si5 0.062091 0.497617 0.630352
O O1 0.860809 0.309355 0.728795
O O2 0.774179 0.482672 0.636767
O O3 0.966999 0.485030 0.731843
O O4 0.821128 0.474385 0.896922
O O5 0.898251 0.381599 0.101716
O O6 0.042048 0.271333 0.257901
O O7 0.885654 0.385734 0.341750
O O8 0.875309 0.892454 0.595354
O O9 0.250000 0.250000 0.289903
O O10 0.133521 0.107308 0.157439
O O11 0.000000 0.500000 0.500000
#
# Coordination Sequence:
#
# PCOD9432802 Si02
#       5
#     8   8   8   8   8
#     4  11  26  46  75 106 152 197 257 314 380 454
#     4  10  24  43  72 103 149 196 246 311 383 445
#     4  11  26  47  72 112 148 199 258 316 377 463
#     4  10  23  48  74 109 146 201 248 316 382 459
#     4  10  24  46  73 110 152 193 250 314 376 461
#
# _framework density 25.022631000000001
#
# number of rings (size 3 to 8) (size 9 to 14) (size 15 to 20)
#    0.000    1.600    0.000    1.800   11.200    8.800 
#    3.600    0.000    0.000    0.000    0.000    0.000 
#    0.000    0.000    0.000    0.000    0.000    0.000 
#
# Total GULP energy -223744.347638 kJ/mol
# GULP energy per Si atom -5593.608691 kJ/mol
# Density = 2.496568 g / cm^3
# Si number density = 25.022631 Si / 1000 Ang^3
#
#
#
# Elastic Constant Matrix: (Units=GPa)
#
#
# Indices 1 2 3 4 5 6 
#
# 1 136.8852 33.5330 44.8130 0.0000 0.0000 0.0000
# 2 33.5330 147.2959 19.8342 0.0000 0.0000 0.0000
# 3 44.8130 19.8342 141.1158 0.0000 0.0000 0.0000
# 4 0.0000 0.0000 0.0000 15.0175 0.0000 0.0000
# 5 0.0000 0.0000 0.0000 0.0000 36.2123 0.0000
# 6 0.0000 0.0000 0.0000 0.0000 0.0000 61.5961
#
#
#
# Elastic Compliance Matrix: (Units=1/GPa)
#
#
# Indices 1 2 3 4 5 6 
#
# 1 0.008509 -0.001604 -0.002477 0.000000 0.000000 0.000000
# 2 -0.001604 0.007222 -0.000506 0.000000 0.000000 0.000000
# 3 -0.002477 -0.000506 0.007944 0.000000 0.000000 0.000000
# 4 0.000000 0.000000 0.000000 0.066589 0.000000 0.000000
# 5 0.000000 0.000000 0.000000 0.000000 0.027615 0.000000
# 6 0.000000 0.000000 0.000000 0.000000 0.000000 0.016235
#
#
# Mechanical properties :
#
#
# Convention : Reuss Voigt Hill
#
# Bulk Modulus (GPa) = 68.95213 69.07304 69.01259
# Shear Modulus (GPa) = 33.75623 44.37296 39.06460
#
# Velocity S-wave (km/s) = 3.67690 4.21564 3.95545
# Velocity P-wave (km/s) = 6.75587 7.16657 6.96425
#
# Compressibility (1/GPa) = 0.01450281
#
# Stress axis : x y z
#
# Youngs Moduli (GPa) = 117.52163 138.46099 125.88114
#
# Poissons Ratio (x) = 0.22204 0.31178
# Poissons Ratio (y) = 0.18846 0.06368
# Poissons Ratio (z) = 0.29107 0.07004
#
# Static dielectric constant tensor:
#      x y z
#    x 2.096790 0.000000 0.000000 
#    y 0.000000 2.008060 0.000000 
#    z 0.000000 0.000000 1.992140 
# 
# From -- ./inp_files/7637.got.cif
#   From: 2010.05.17/outbox.cif.g08.bks.cpg/sg56_4_cif.got.tgz:7637.got - 2010.06.03 13:42:01.
