data_PCOD9432107
_publ_section_title
;
Structure prediction by ZEFSAII (Michael W. Deem and Ramdas Pophale) SiO2 
 PCOD9432107
Probable space group: P C C N
;
_chemical_formula_sum "Si O2"
_cell_formula_units_Z 24
_cell_length_a 5.805130
_cell_length_b 14.545347
_cell_length_c 9.885254
_cell_angle_alpha 90.000000
_cell_angle_beta 90.000000
_cell_angle_gamma 90.000000
_cell_volume 834.687422
_symmetry_space_group_name_H-M "P C C N"
_symmetry_group_IT_number 56
_symmetry_cell_setting 'orthorhombic'
loop_
_space_group_symop_operation_xyz
x,y,z
1/2-x,1/2-y,z
1/2+x,-y,1/2-z
-x,1/2+y,1/2-z
-x,-y,-z
1/2+x,1/2+y,-z
1/2-x,y,1/2+z
x,1/2-y,1/2+z
loop_
_atom_site_type_symbol
_atom_site_label
_atom_site_fract_x
_atom_site_fract_y
_atom_site_fract_z
Si Si1 0.240048 0.552607 0.913368
Si Si2 0.486526 0.885772 0.166192
Si Si3 0.495855 0.278515 0.664338
O O1 0.188619 0.445257 0.898901
O O2 0.451446 0.578617 0.819130
O O3 0.031323 0.612316 0.842835
O O4 0.222910 0.586110 0.067312
O O5 0.507188 0.777490 0.193424
O O6 0.750000 0.250000 0.606432
O O7 0.250000 0.250000 0.602103
#
# Coordination Sequence:
#
# PCOD9432107 Si02
#       3
#     8   8   8
#     4  10  22  40  64  96 133 176 224 275 333 397
#     4  10  22  40  64  96 133 176 224 275 333 397
#     4  10  22  40  66  98 134 172 218 272 330 390
#
# _framework density 28.753281000000001
#
# number of rings (size 3 to 8) (size 9 to 14) (size 15 to 20)
#    0.000    2.000    0.000    2.000    0.000   14.667 
#    0.000    6.667    0.000    0.000    0.000    0.000 
#    0.000    0.000    0.000    0.000    0.000    0.000 
#
# Total GULP energy -133765.370914 kJ/mol
# GULP energy per Si atom -5573.557121 kJ/mol
# Density = 2.868784 g / cm^3
# Si number density = 28.753281 Si / 1000 Ang^3
#
#
#
# Elastic Constant Matrix: (Units=GPa)
#
#
# Indices 1 2 3 4 5 6 
#
# 1 154.2551 26.8207 40.4706 0.0000 0.0000 0.0000
# 2 26.8207 120.4780 34.5708 0.0000 0.0000 0.0000
# 3 40.4706 34.5708 131.9617 0.0000 0.0000 0.0000
# 4 0.0000 0.0000 0.0000 51.1212 0.0000 0.0000
# 5 0.0000 0.0000 0.0000 0.0000 24.5762 0.0000
# 6 0.0000 0.0000 0.0000 0.0000 0.0000 44.7329
#
#
#
# Elastic Compliance Matrix: (Units=1/GPa)
#
#
# Indices 1 2 3 4 5 6 
#
# 1 0.007169 -0.001044 -0.001925 0.000000 0.000000 0.000000
# 2 -0.001044 0.009127 -0.002071 0.000000 0.000000 0.000000
# 3 -0.001925 -0.002071 0.008711 0.000000 0.000000 0.000000
# 4 0.000000 0.000000 0.000000 0.019561 0.000000 0.000000
# 5 0.000000 0.000000 0.000000 0.000000 0.040690 0.000000
# 6 0.000000 0.000000 0.000000 0.000000 0.000000 0.022355
#
#
# Mechanical properties :
#
#
# Convention : Reuss Voigt Hill
#
# Bulk Modulus (GPa) = 66.99080 67.82434 67.40757
# Shear Modulus (GPa) = 40.76018 44.40824 42.58421
#
# Velocity S-wave (km/s) = 3.76917 3.93422 3.85258
# Velocity P-wave (km/s) = 6.50317 6.65410 6.57907
#
# Compressibility (1/GPa) = 0.01492742
#
# Stress axis : x y z
#
# Youngs Moduli (GPa) = 139.48267 109.56682 114.79773
#
# Poissons Ratio (x) = 0.11434 0.22102
# Poissons Ratio (y) = 0.14556 0.23774
# Poissons Ratio (z) = 0.26855 0.22691
#
# Static dielectric constant tensor:
#      x y z
#    x 2.279730 0.000000 0.000000 
#    y 0.000000 2.390200 0.000000 
#    z 0.000000 0.000000 2.163240 
# 
# From -- ./inp_files/5344.got.cif
#   From: 2010.05.17/outbox.cif.g08.bks.cpg/sg56_3_cif.got.tgz:5344.got - 2010.06.03 13:42:01.
