data_PCOD9432334
_publ_section_title
;
Structure prediction by ZEFSAII (Michael W. Deem and Ramdas Pophale) SiO2 
 PCOD9432334
Probable space group: P C C N
;
_chemical_formula_sum "Si O2"
_cell_formula_units_Z 56
_cell_length_a 17.743091
_cell_length_b 14.381238
_cell_length_c 8.870037
_cell_angle_alpha 90.000000
_cell_angle_beta 90.000000
_cell_angle_gamma 90.000000
_cell_volume 2263.346182
_symmetry_space_group_name_H-M "P C C N"
_symmetry_group_IT_number 56
_symmetry_cell_setting 'orthorhombic'
loop_
_space_group_symop_operation_xyz
x,y,z
1/2-x,1/2-y,z
1/2+x,-y,1/2-z
-x,1/2+y,1/2-z
-x,-y,-z
1/2+x,1/2+y,-z
1/2-x,y,1/2+z
x,1/2-y,1/2+z
loop_
_atom_site_type_symbol
_atom_site_label
_atom_site_fract_x
_atom_site_fract_y
_atom_site_fract_z
Si Si1 0.250000 0.750000 0.000269
Si Si2 0.208358 0.884208 0.242812
Si Si3 0.649114 0.995064 0.821246
Si Si4 0.395816 0.156275 0.399824
Si Si5 0.519703 0.121613 0.892228
Si Si6 0.750000 0.750000 0.631186
Si Si7 0.507350 0.756469 0.353463
Si Si8 0.843599 0.577471 0.143302
O O1 0.195927 0.813563 0.104841
O O2 0.292683 0.822322 0.892561
O O3 0.292933 0.923201 0.214613
O O4 0.163240 0.980029 0.267865
O O5 0.568843 0.030951 0.880858
O O6 0.632211 0.940521 0.666933
O O7 0.679466 0.938930 0.967450
O O8 0.322521 0.211735 0.454266
O O9 0.430534 0.206583 0.252116
O O10 0.456450 0.169241 0.530535
O O11 0.546632 0.189845 0.759006
O O12 0.430857 0.107353 0.860417
O O13 0.527626 0.175052 0.047964
O O14 0.712501 0.657555 0.706638
#
# Coordination Sequence:
#
# PCOD9432334 Si02
#       8
#     4   8   8   8   8   4   8   8
#     4  10  24  48  70  94 134 180 236 316 338 408
#     4  11  24  46  73 100 134 181 249 291 364 415
#     4  12  25  43  70 103 141 188 239 300 355 433
#     4  11  22  40  67 103 145 182 235 285 366 428
#     4  11  25  45  68  99 149 183 241 292 363 432
#     4  12  22  40  74 108 152 180 230 300 362 450
#     4  10  22  43  63  98 136 192 232 282 356 435
#     4  12  24  43  71 110 142 192 227 300 366 443
#
# _framework density 24.74213
#
# number of rings (size 3 to 8) (size 9 to 14) (size 15 to 20)
#    0.000    0.857    7.143    0.429    0.000    6.286 
#    0.000    0.000    0.000    0.000    0.000    0.000 
#    0.000    0.000    0.000    0.000    0.000    0.000 
#
# Total GULP energy -313133.676543 kJ/mol
# GULP energy per Si atom -5591.672795 kJ/mol
# Density = 2.468582 g / cm^3
# Si number density = 24.742130 Si / 1000 Ang^3
#
#
#
# Elastic Constant Matrix: (Units=GPa)
#
#
# Indices 1 2 3 4 5 6 
#
# 1 74.1332 27.0197 17.4478 0.0000 0.0000 0.0000
# 2 27.0197 131.6834 46.4622 0.0000 0.0000 0.0000
# 3 17.4478 46.4622 117.0097 0.0000 0.0000 0.0000
# 4 0.0000 0.0000 0.0000 45.4514 0.0000 0.0000
# 5 0.0000 0.0000 0.0000 0.0000 4.0583 0.0000
# 6 0.0000 0.0000 0.0000 0.0000 0.0000 35.7698
#
#
#
# Elastic Compliance Matrix: (Units=1/GPa)
#
#
# Indices 1 2 3 4 5 6 
#
# 1 0.014713 -0.002611 -0.001157 0.000000 0.000000 0.000000
# 2 -0.002611 0.009294 -0.003301 0.000000 0.000000 0.000000
# 3 -0.001157 -0.003301 0.010030 0.000000 0.000000 0.000000
# 4 0.000000 0.000000 0.000000 0.022002 0.000000 0.000000
# 5 0.000000 0.000000 0.000000 0.000000 0.246409 0.000000
# 6 0.000000 0.000000 0.000000 0.000000 0.000000 0.027957
#
#
# Mechanical properties :
#
#
# Convention : Reuss Voigt Hill
#
# Bulk Modulus (GPa) = 50.25433 56.07622 53.16527
# Shear Modulus (GPa) = 14.23788 32.51567 23.37677
#
# Velocity S-wave (km/s) = 2.40146 3.62910 3.07712
# Velocity P-wave (km/s) = 5.29572 6.34617 5.84460
#
# Compressibility (1/GPa) = 0.01989878
#
# Stress axis : x y z
#
# Youngs Moduli (GPa) = 67.96661 107.59094 99.70311
#
# Poissons Ratio (x) = 0.28088 0.11539
# Poissons Ratio (y) = 0.17743 0.32916
# Poissons Ratio (z) = 0.07866 0.35520
#
# Static dielectric constant tensor:
#      x y z
#    x 1.948720 0.000000 0.000000 
#    y 0.000000 2.067200 0.000000 
#    z 0.000000 0.000000 1.959970 
# 
# From -- ./inp_files/4516.got.cif
#   From: 2010.05.17/outbox.cif.g08.bks.cpg/sg56_3_cif.got.tgz:4516.got - 2010.06.03 13:42:01.
