data_PCOD9432493
_publ_section_title
;
Structure prediction by ZEFSAII (Michael W. Deem and Ramdas Pophale) SiO2 
 PCOD9432493
Probable space group: P C C N
;
_chemical_formula_sum "Si O2"
_cell_formula_units_Z 48
_cell_length_a 23.428648
_cell_length_b 8.344465
_cell_length_c 9.498294
_cell_angle_alpha 90.000000
_cell_angle_beta 90.000000
_cell_angle_gamma 90.000000
_cell_volume 1856.912044
_symmetry_space_group_name_H-M "P C C N"
_symmetry_group_IT_number 56
_symmetry_cell_setting 'orthorhombic'
loop_
_space_group_symop_operation_xyz
x,y,z
1/2-x,1/2-y,z
1/2+x,-y,1/2-z
-x,1/2+y,1/2-z
-x,-y,-z
1/2+x,1/2+y,-z
1/2-x,y,1/2+z
x,1/2-y,1/2+z
loop_
_atom_site_type_symbol
_atom_site_label
_atom_site_fract_x
_atom_site_fract_y
_atom_site_fract_z
Si Si1 0.983313 0.672049 0.935095
Si Si2 0.307678 0.312205 0.476399
Si Si3 0.851293 0.497122 0.436869
Si Si4 0.166395 0.658250 0.036247
Si Si5 0.905274 0.209651 0.736951
Si Si6 0.089387 0.172715 0.836162
O O1 0.963818 0.783599 0.063240
O O2 0.856691 0.322618 0.121443
O O3 0.000000 0.500000 0.000000
O O4 0.036876 0.735014 0.845996
O O5 0.250000 0.250000 0.403825
O O6 0.303333 0.487776 0.542184
O O7 0.362873 0.305783 0.376028
O O8 0.320346 0.165664 0.584344
O O9 0.879302 0.520138 0.591884
O O10 0.903108 0.451404 0.333520
O O11 0.810939 0.339222 0.431912
O O12 0.068050 0.336352 0.178127
O O13 0.886271 0.338426 0.853587
#
# Coordination Sequence:
#
# PCOD9432493 Si02
#       6
#     8   8   8   8   8   8
#     4  12  26  44  78 113 160 217 255 325 412 473
#     4  10  23  49  82 110 154 211 262 337 404 454
#     4   8  24  44  71 110 158 192 269 319 378 482
#     4  10  22  46  76 109 162 190 264 320 393 465
#     4  10  23  47  69 114 154 213 250 326 396 473
#     4  10  26  46  69 115 157 196 280 318 376 503
#
# _framework density 25.849364999999999
#
# number of rings (size 3 to 8) (size 9 to 14) (size 15 to 20)
#    2.000    0.000    0.000    2.000    4.667    5.333 
#    3.000    3.333    3.667    0.000    0.000    0.000 
#    0.000    0.000    0.000    0.000    0.000    0.000 
#
# Total GULP energy -267779.999309 kJ/mol
# GULP energy per Si atom -5578.749986 kJ/mol
# Density = 2.579053 g / cm^3
# Si number density = 25.849365 Si / 1000 Ang^3
#
#
#
# Elastic Constant Matrix: (Units=GPa)
#
#
# Indices 1 2 3 4 5 6 
#
# 1 79.4043 53.2808 11.3495 0.0000 0.0000 0.0000
# 2 53.2808 206.5982 23.9228 0.0000 0.0000 0.0000
# 3 11.3495 23.9228 132.9360 0.0000 0.0000 0.0000
# 4 0.0000 0.0000 0.0000 24.2098 0.0000 0.0000
# 5 0.0000 0.0000 0.0000 0.0000 11.1588 0.0000
# 6 0.0000 0.0000 0.0000 0.0000 0.0000 42.3718
#
#
#
# Elastic Compliance Matrix: (Units=1/GPa)
#
#
# Indices 1 2 3 4 5 6 
#
# 1 0.015277 -0.003870 -0.000608 0.000000 0.000000 0.000000
# 2 -0.003870 0.005923 -0.000736 0.000000 0.000000 0.000000
# 3 -0.000608 -0.000736 0.007707 0.000000 0.000000 0.000000
# 4 0.000000 0.000000 0.000000 0.041306 0.000000 0.000000
# 5 0.000000 0.000000 0.000000 0.000000 0.089615 0.000000
# 6 0.000000 0.000000 0.000000 0.000000 0.000000 0.023601
#
#
# Mechanical properties :
#
#
# Convention : Reuss Voigt Hill
#
# Bulk Modulus (GPa) = 54.10922 66.22718 60.16820
# Shear Modulus (GPa) = 24.99808 37.57377 31.28593
#
# Velocity S-wave (km/s) = 3.11314 3.81670 3.48274
# Velocity P-wave (km/s) = 5.82239 6.71558 6.28487
#
# Compressibility (1/GPa) = 0.01848114
#
# Stress axis : x y z
#
# Youngs Moduli (GPa) = 65.45727 168.82134 129.75724
#
# Poissons Ratio (x) = 0.65326 0.07889
# Poissons Ratio (y) = 0.25329 0.09545
# Poissons Ratio (z) = 0.03979 0.12418
#
# Static dielectric constant tensor:
#      x y z
#    x 2.114110 0.000000 0.000000 
#    y 0.000000 2.138090 0.000000 
#    z 0.000000 0.000000 1.994620 
# 
# From -- ./inp_files/8876.got.cif
#   From: 2010.05.17/outbox.cif.g08.bks.cpg/sg56_5_cif.got.tgz:8876.got - 2010.06.03 13:42:01.
