data_PCOD9432585
_publ_section_title
;
Structure prediction by ZEFSAII (Michael W. Deem and Ramdas Pophale) SiO2 
 PCOD9432585
Probable space group: P C C N
;
_chemical_formula_sum "Si O2"
_cell_formula_units_Z 52
_cell_length_a 19.375904
_cell_length_b 5.380165
_cell_length_c 20.895601
_cell_angle_alpha 90.000000
_cell_angle_beta 90.000000
_cell_angle_gamma 90.000000
_cell_volume 2178.273639
_symmetry_space_group_name_H-M "P C C N"
_symmetry_group_IT_number 56
_symmetry_cell_setting 'orthorhombic'
loop_
_space_group_symop_operation_xyz
x,y,z
1/2-x,1/2-y,z
1/2+x,-y,1/2-z
-x,1/2+y,1/2-z
-x,-y,-z
1/2+x,1/2+y,-z
1/2-x,y,1/2+z
x,1/2-y,1/2+z
loop_
_atom_site_type_symbol
_atom_site_label
_atom_site_fract_x
_atom_site_fract_y
_atom_site_fract_z
Si Si1 0.929081 0.799055 0.183576
Si Si2 0.750000 0.250000 0.660080
Si Si3 0.874851 0.309525 0.243724
Si Si4 0.930440 0.162160 0.495546
Si Si5 0.424641 0.549783 0.131892
Si Si6 0.146388 0.024845 0.928369
Si Si7 0.671568 0.720171 0.438625
O O1 0.924074 0.537328 0.219994
O O2 0.004981 0.900343 0.169294
O O3 0.894368 0.032172 0.220532
O O4 0.891536 0.770477 0.114615
O O5 0.695408 0.375696 0.707163
O O6 0.710187 0.065611 0.613132
O O7 0.871316 0.312831 0.320469
O O8 0.943294 0.352871 0.438282
O O9 0.909554 0.305416 0.559970
O O10 0.861178 0.024350 0.470506
O O11 0.000000 0.000000 0.500000
O O12 0.384914 0.295948 0.114924
O O13 0.169404 0.101970 0.998711
O O14 0.750000 0.750000 0.414698
#
# Coordination Sequence:
#
# PCOD9432585 Si02
#       7
#     8   4   8   8   8   8   8
#     4  11  25  44  75 105 137 189 241 304 359 428
#     4  10  24  44  70 100 140 186 242 300 358 444
#     4  11  27  45  72 105 140 193 239 298 368 430
#     4  11  24  42  73 103 141 186 238 303 368 434
#     4  11  26  45  68 102 144 183 247 299 363 445
#     4  10  23  41  66 103 135 180 241 297 361 427
#     4  11  25  41  69  99 142 191 231 300 372 436
#
# _framework density 23.872116999999999
#
# number of rings (size 3 to 8) (size 9 to 14) (size 15 to 20)
#    0.000    1.231    0.000    3.692   15.077    7.385 
#    2.769    0.000    0.000    0.000    0.000    0.000 
#    0.000    0.000    0.000    0.000    0.000    0.000 
#
# Total GULP energy -290220.569084 kJ/mol
# GULP energy per Si atom -5581.164790 kJ/mol
# Density = 2.381778 g / cm^3
# Si number density = 23.872117 Si / 1000 Ang^3
#
#
#
# Elastic Constant Matrix: (Units=GPa)
#
#
# Indices 1 2 3 4 5 6 
#
# 1 89.5701 -2.7382 6.8640 0.0000 0.0000 0.0000
# 2 -2.7382 46.8692 -5.6243 0.0000 0.0000 0.0000
# 3 6.8640 -5.6243 60.9853 0.0000 0.0000 0.0000
# 4 0.0000 0.0000 0.0000 24.6882 0.0000 0.0000
# 5 0.0000 0.0000 0.0000 0.0000 31.5074 0.0000
# 6 0.0000 0.0000 0.0000 0.0000 0.0000 9.8155
#
#
#
# Elastic Compliance Matrix: (Units=1/GPa)
#
#
# Indices 1 2 3 4 5 6 
#
# 1 0.011274 0.000512 -0.001222 0.000000 0.000000 0.000000
# 2 0.000512 0.021598 0.001934 0.000000 0.000000 0.000000
# 3 -0.001222 0.001934 0.016713 0.000000 0.000000 0.000000
# 4 0.000000 0.000000 0.000000 0.040505 0.000000 0.000000
# 5 0.000000 0.000000 0.000000 0.000000 0.031739 0.000000
# 6 0.000000 0.000000 0.000000 0.000000 0.000000 0.101879
#
#
# Mechanical properties :
#
#
# Convention : Reuss Voigt Hill
#
# Bulk Modulus (GPa) = 19.21813 21.60307 20.41060
# Shear Modulus (GPa) = 20.95525 26.46377 23.70951
#
# Velocity S-wave (km/s) = 2.96600 3.33312 3.15491
# Velocity P-wave (km/s) = 4.44944 4.88693 4.67331
#
# Compressibility (1/GPa) = 0.05203419
#
# Stress axis : x y z
#
# Youngs Moduli (GPa) = 88.70196 46.30063 59.83263
#
# Poissons Ratio (x) = -0.02371 0.07310
# Poissons Ratio (y) = -0.04542 -0.11573
# Poissons Ratio (z) = 0.10836 -0.08956
#
# Static dielectric constant tensor:
#      x y z
#    x 2.125650 0.000000 0.000000 
#    y 0.000000 1.988560 0.000000 
#    z 0.000000 0.000000 1.954410 
# 
# From -- ./inp_files/19461.got.cif
#   From: 2010.05.17/outbox.cif.g08.bks.cpg/sg56_10_cif.got.tgz:19461.got - 2010.06.03 13:42:01.
