data_PCOD9432104
_publ_section_title
;
Structure prediction by ZEFSAII (Michael W. Deem and Ramdas Pophale) SiO2 
 PCOD9432104
Probable space group: P C C N
;
_chemical_formula_sum "Si O2"
_cell_formula_units_Z 36
_cell_length_a 10.841954
_cell_length_b 10.043183
_cell_length_c 14.775310
_cell_angle_alpha 90.000000
_cell_angle_beta 90.000000
_cell_angle_gamma 90.000000
_cell_volume 1608.849938
_symmetry_space_group_name_H-M "P C C N"
_symmetry_group_IT_number 56
_symmetry_cell_setting 'orthorhombic'
loop_
_space_group_symop_operation_xyz
x,y,z
1/2-x,1/2-y,z
1/2+x,-y,1/2-z
-x,1/2+y,1/2-z
-x,-y,-z
1/2+x,1/2+y,-z
1/2-x,y,1/2+z
x,1/2-y,1/2+z
loop_
_atom_site_type_symbol
_atom_site_label
_atom_site_fract_x
_atom_site_fract_y
_atom_site_fract_z
Si Si1 0.150494 0.145778 0.995693
Si Si2 0.750000 0.250000 0.598058
Si Si3 0.378387 0.633042 0.055324
Si Si4 0.614355 0.404934 0.743634
Si Si5 0.388090 0.207823 0.706415
O O1 0.250000 0.250000 0.959331
O O2 0.116479 0.192197 0.097439
O O3 0.191575 0.994875 0.013490
O O4 0.026541 0.124660 0.938355
O O5 0.858341 0.261389 0.523931
O O6 0.713717 0.368336 0.666571
O O7 0.335372 0.638815 0.157882
O O8 0.492833 0.315758 0.726923
O O9 0.585408 0.562090 0.751345
O O10 0.250000 0.250000 0.734482
#
# Coordination Sequence:
#
# PCOD9432104 Si02
#       5
#     8   4   8   8   8
#     4   9  19  41  67  91 128 169 215 272 334 394
#     4  12  24  44  60  94 134 178 220 292 314 402
#     4  10  22  40  64  94 127 172 217 270 336 391
#     4  11  25  42  70  97 133 178 228 272 342 397
#     4  10  23  43  69 101 136 176 221 276 335 402
#
# _framework density 22.376234
#
# number of rings (size 3 to 8) (size 9 to 14) (size 15 to 20)
#    0.000    1.778    2.222    0.667    3.111    2.667 
#    4.000    2.222    0.000    0.000    0.000    0.000 
#    0.000    0.000    0.000    0.000    0.000    0.000 
#
# Total GULP energy -200618.106471 kJ/mol
# GULP energy per Si atom -5572.725180 kJ/mol
# Density = 2.232530 g / cm^3
# Si number density = 22.376234 Si / 1000 Ang^3
#
#
#
# Elastic Constant Matrix: (Units=GPa)
#
#
# Indices 1 2 3 4 5 6 
#
# 1 53.2566 45.7467 -1.0263 0.0000 0.0000 0.0000
# 2 45.7467 118.2064 13.8762 0.0000 0.0000 0.0000
# 3 -1.0263 13.8762 135.0887 0.0000 0.0000 0.0000
# 4 0.0000 0.0000 0.0000 26.4389 0.0000 0.0000
# 5 0.0000 0.0000 0.0000 0.0000 -20.7868 0.0000
# 6 0.0000 0.0000 0.0000 0.0000 0.0000 40.9787
#
#
#
# Elastic Compliance Matrix: (Units=1/GPa)
#
#
# Indices 1 2 3 4 5 6 
#
# 1 0.028372 -0.011140 0.001360 0.000000 0.000000 0.000000
# 2 -0.011140 0.012937 -0.001414 0.000000 0.000000 0.000000
# 3 0.001360 -0.001414 0.007558 0.000000 0.000000 0.000000
# 4 0.000000 0.000000 0.000000 0.037823 0.000000 0.000000
# 5 0.000000 0.000000 0.000000 0.000000 -0.048107 0.000000
# 6 0.000000 0.000000 0.000000 0.000000 0.000000 0.024403
#
#
# Mechanical properties :
#
#
# Convention : Reuss Voigt Hill
#
# Bulk Modulus (GPa) = 37.76418 47.08276 42.42347
# Shear Modulus (GPa) = 53.07882 25.85650 39.46766
#
# Velocity S-wave (km/s) = 4.87571 3.40300 4.20434
# Velocity P-wave (km/s) = 6.97211 6.04381 6.52449
#
# Compressibility (1/GPa) = 0.02648012
#
# Stress axis : x y z
#
# Youngs Moduli (GPa) = 35.24574 77.29818 132.30891
#
# Poissons Ratio (x) = 0.86109 -0.17992
# Poissons Ratio (y) = 0.39263 0.18702
# Poissons Ratio (z) = -0.04793 0.10926
#
# Static dielectric constant tensor:
#      x y z
#    x 1.948720 0.000000 0.000000 
#    y 0.000000 1.915010 0.000000 
#    z 0.000000 0.000000 1.830900 
# 
# From -- ./inp_files/11341.got.cif
#   From: 2010.05.17/outbox.cif.g08.bks.cpg/sg56_6_cif.got.tgz:11341.got - 2010.06.03 13:42:01.
