data_PCOD9432145
_publ_section_title
;
Structure prediction by ZEFSAII (Michael W. Deem and Ramdas Pophale) SiO2 
 PCOD9432145
Probable space group: P C C N
;
_chemical_formula_sum "Si O2"
_cell_formula_units_Z 52
_cell_length_a 19.926398
_cell_length_b 8.037274
_cell_length_c 14.441495
_cell_angle_alpha 90.000000
_cell_angle_beta 90.000000
_cell_angle_gamma 90.000000
_cell_volume 2312.862043
_symmetry_space_group_name_H-M "P C C N"
_symmetry_group_IT_number 56
_symmetry_cell_setting 'orthorhombic'
loop_
_space_group_symop_operation_xyz
x,y,z
1/2-x,1/2-y,z
1/2+x,-y,1/2-z
-x,1/2+y,1/2-z
-x,-y,-z
1/2+x,1/2+y,-z
1/2-x,y,1/2+z
x,1/2-y,1/2+z
loop_
_atom_site_type_symbol
_atom_site_label
_atom_site_fract_x
_atom_site_fract_y
_atom_site_fract_z
Si Si1 0.171205 0.240045 0.749583
Si Si2 0.432751 0.001750 0.817668
Si Si3 0.040365 0.750162 0.165169
Si Si4 0.604384 0.300015 0.527250
Si Si5 0.193596 0.381638 0.549064
Si Si6 0.250000 0.750000 0.020218
Si Si7 0.908068 0.544653 0.616335
O O1 0.250000 0.250000 0.769022
O O2 0.129002 0.376840 0.803645
O O3 0.164413 0.295613 0.642281
O O4 0.136562 0.073086 0.790224
O O5 0.424865 0.852666 0.745804
O O6 0.503046 0.089084 0.795360
O O7 0.431780 0.952103 0.924247
O O8 0.088793 0.712502 0.080537
O O9 0.977575 0.856989 0.125353
O O10 0.684689 0.303990 0.537563
O O11 0.578104 0.142113 0.584376
O O12 0.250000 0.250000 0.518205
O O13 0.224480 0.570745 0.565863
O O14 0.138197 0.394095 0.469425
#
# Coordination Sequence:
#
# PCOD9432145 Si02
#       7
#     8   8   8   8   8   4   8
#     4  10  23  43  64 101 131 181 228 284 353 408
#     4  11  24  43  67 100 138 179 233 288 349 432
#     4  11  24  44  67  98 137 178 232 280 358 415
#     4  11  24  43  66 101 134 180 228 296 342 423
#     4  10  22  43  68  97 141 178 232 289 345 422
#     4  10  24  42  68 102 132 184 232 280 358 414
#     4  10  22  40  71  94 132 180 223 284 351 413
#
# _framework density 22.482968
#
# number of rings (size 3 to 8) (size 9 to 14) (size 15 to 20)
#    0.000    1.538    0.000    4.154    8.615    2.462 
#   22.154    0.769    0.000    0.000    0.000    0.000 
#    0.000    0.000    0.000    0.000    0.000    0.000 
#
# Total GULP energy -290257.502639 kJ/mol
# GULP energy per Si atom -5581.875051 kJ/mol
# Density = 2.243180 g / cm^3
# Si number density = 22.482968 Si / 1000 Ang^3
#
#
#
# Elastic Constant Matrix: (Units=GPa)
#
#
# Indices 1 2 3 4 5 6 
#
# 1 61.4678 0.8562 5.7060 0.0000 0.0000 0.0000
# 2 0.8562 45.9188 25.6188 0.0000 0.0000 0.0000
# 3 5.7060 25.6188 80.1452 0.0000 0.0000 0.0000
# 4 0.0000 0.0000 0.0000 25.8508 0.0000 0.0000
# 5 0.0000 0.0000 0.0000 0.0000 31.7708 0.0000
# 6 0.0000 0.0000 0.0000 0.0000 0.0000 23.0815
#
#
#
# Elastic Compliance Matrix: (Units=1/GPa)
#
#
# Indices 1 2 3 4 5 6 
#
# 1 0.016384 0.000420 -0.001301 0.000000 0.000000 0.000000
# 2 0.000420 0.026515 -0.008506 0.000000 0.000000 0.000000
# 3 -0.001301 -0.008506 0.015289 0.000000 0.000000 0.000000
# 4 0.000000 0.000000 0.000000 0.038683 0.000000 0.000000
# 5 0.000000 0.000000 0.000000 0.000000 0.031475 0.000000
# 6 0.000000 0.000000 0.000000 0.000000 0.000000 0.043325
#
#
# Mechanical properties :
#
#
# Convention : Reuss Voigt Hill
#
# Bulk Modulus (GPa) = 25.37090 27.98821 26.67955
# Shear Modulus (GPa) = 24.56013 26.49734 25.52873
#
# Velocity S-wave (km/s) = 3.30872 3.43673 3.37333
# Velocity P-wave (km/s) = 5.08977 5.31261 5.20238
#
# Compressibility (1/GPa) = 0.03941523
#
# Stress axis : x y z
#
# Youngs Moduli (GPa) = 61.03674 37.71431 65.40733
#
# Poissons Ratio (x) = -0.01585 0.08508
# Poissons Ratio (y) = -0.02565 0.55633
# Poissons Ratio (z) = 0.07939 0.32078
#
# Static dielectric constant tensor:
#      x y z
#    x 1.780280 0.000000 0.000000 
#    y 0.000000 1.928440 0.000000 
#    z 0.000000 0.000000 1.811010 
# 
# From -- ./inp_files/13032.got.cif
#   From: 2010.05.17/outbox.cif.g08.bks.cpg/sg56_7_cif.got.tgz:13032.got - 2010.06.03 13:42:01.
