data_PCOD9432941
_publ_section_title
;
Structure prediction by ZEFSAII (Michael W. Deem and Ramdas Pophale) SiO2 
 PCOD9432941
Probable space group: P C C N
;
_chemical_formula_sum "Si O2"
_cell_formula_units_Z 32
_cell_length_a 9.645014
_cell_length_b 12.221973
_cell_length_c 10.911495
_cell_angle_alpha 90.000000
_cell_angle_beta 90.000000
_cell_angle_gamma 90.000000
_cell_volume 1286.259041
_symmetry_space_group_name_H-M "P C C N"
_symmetry_group_IT_number 56
_symmetry_cell_setting 'orthorhombic'
loop_
_space_group_symop_operation_xyz
x,y,z
1/2-x,1/2-y,z
1/2+x,-y,1/2-z
-x,1/2+y,1/2-z
-x,-y,-z
1/2+x,1/2+y,-z
1/2-x,y,1/2+z
x,1/2-y,1/2+z
loop_
_atom_site_type_symbol
_atom_site_label
_atom_site_fract_x
_atom_site_fract_y
_atom_site_fract_z
Si Si1 0.378913 0.318669 0.771994
Si Si2 0.362494 0.895149 0.562729
Si Si3 0.963458 0.624199 0.355899
Si Si4 0.920790 0.465239 0.876054
O O1 0.250000 0.250000 0.830852
O O2 0.514634 0.338057 0.858126
O O3 0.407293 0.244976 0.651797
O O4 0.358729 0.437498 0.710430
O O5 0.388648 0.868291 0.421595
O O6 0.385826 0.027387 0.573684
O O7 0.204263 0.881313 0.599049
O O8 0.970687 0.589165 0.215360
O O9 0.000000 0.500000 0.000000
#
# Coordination Sequence:
#
# PCOD9432941 Si02
#       4
#     8   8   8   8
#     4  11  24  46  76 103 145 201 248 302 385 457
#     4  10  24  45  71 106 148 189 246 319 364 450
#     4  10  24  44  68 108 141 190 250 305 371 455
#     4  11  26  46  74 105 152 196 246 319 379 447
#
# _framework density 24.878347999999999
#
# number of rings (size 3 to 8) (size 9 to 14) (size 15 to 20)
#    0.000    1.500    2.500    0.000   10.500    4.000 
#    0.000    0.000    0.000    0.000    0.000    0.000 
#    0.000    0.000    0.000    0.000    0.000    0.000 
#
# Total GULP energy -178408.270413 kJ/mol
# GULP energy per Si atom -5575.258450 kJ/mol
# Density = 2.482172 g / cm^3
# Si number density = 24.878348 Si / 1000 Ang^3
#
#
#
# Elastic Constant Matrix: (Units=GPa)
#
#
# Indices 1 2 3 4 5 6 
#
# 1 118.1813 28.0386 41.6350 0.0000 0.0000 0.0000
# 2 28.0386 78.7221 -5.3629 0.0000 0.0000 0.0000
# 3 41.6350 -5.3629 113.2862 0.0000 0.0000 0.0000
# 4 0.0000 0.0000 0.0000 16.8417 0.0000 0.0000
# 5 0.0000 0.0000 0.0000 0.0000 40.3110 0.0000
# 6 0.0000 0.0000 0.0000 0.0000 0.0000 44.3368
#
#
#
# Elastic Compliance Matrix: (Units=1/GPa)
#
#
# Indices 1 2 3 4 5 6 
#
# 1 0.010941 -0.004184 -0.004219 0.000000 0.000000 0.000000
# 2 -0.004184 0.014344 0.002217 0.000000 0.000000 0.000000
# 3 -0.004219 0.002217 0.010483 0.000000 0.000000 0.000000
# 4 0.000000 0.000000 0.000000 0.059376 0.000000 0.000000
# 5 0.000000 0.000000 0.000000 0.000000 0.024807 0.000000
# 6 0.000000 0.000000 0.000000 0.000000 0.000000 0.022555
#
#
# Mechanical properties :
#
#
# Convention : Reuss Voigt Hill
#
# Bulk Modulus (GPa) = 42.74440 48.75678 45.75059
# Shear Modulus (GPa) = 30.73583 36.68983 33.71283
#
# Velocity S-wave (km/s) = 3.51870 3.84444 3.68517
# Velocity P-wave (km/s) = 5.80750 6.27271 6.04458
#
# Compressibility (1/GPa) = 0.02339488
#
# Stress axis : x y z
#
# Youngs Moduli (GPa) = 91.40272 69.71457 95.39531
#
# Poissons Ratio (x) = 0.29170 0.40247
# Poissons Ratio (y) = 0.38244 -0.21147
# Poissons Ratio (z) = 0.38562 -0.15454
#
# Static dielectric constant tensor:
#      x y z
#    x 2.142440 0.000000 0.000000 
#    y 0.000000 2.019320 0.000000 
#    z 0.000000 0.000000 1.951800 
# 
# From -- ./inp_files/6060.got.cif
#   From: 2010.05.17/outbox.cif.g08.bks.cpg/sg56_4_cif.got.tgz:6060.got - 2010.06.03 13:42:01.
