data_PCOD9432659
_publ_section_title
;
Structure prediction by ZEFSAII (Michael W. Deem and Ramdas Pophale) SiO2 
 PCOD9432659
Probable space group: P C C N
;
_chemical_formula_sum "Si O2"
_cell_formula_units_Z 24
_cell_length_a 5.273495
_cell_length_b 8.712651
_cell_length_c 24.090940
_cell_angle_alpha 90.000000
_cell_angle_beta 90.000000
_cell_angle_gamma 90.000000
_cell_volume 1106.885256
_symmetry_space_group_name_H-M "P C C N"
_symmetry_group_IT_number 56
_symmetry_cell_setting 'orthorhombic'
loop_
_space_group_symop_operation_xyz
x,y,z
1/2-x,1/2-y,z
1/2+x,-y,1/2-z
-x,1/2+y,1/2-z
-x,-y,-z
1/2+x,1/2+y,-z
1/2-x,y,1/2+z
x,1/2-y,1/2+z
loop_
_atom_site_type_symbol
_atom_site_label
_atom_site_fract_x
_atom_site_fract_y
_atom_site_fract_z
Si Si1 0.733509 0.432913 0.343000
Si Si2 0.252919 0.564016 0.529919
Si Si3 0.500441 0.145159 0.734703
O O1 0.750000 0.250000 0.349053
O O2 0.717226 0.489141 0.405823
O O3 0.964277 0.521659 0.313923
O O4 0.524165 0.441227 0.294020
O O5 0.250000 0.750000 0.527718
O O6 0.500000 0.500000 0.500000
O O7 0.000000 0.500000 0.500000
O O8 0.250000 0.250000 0.734137
O O9 0.750000 0.250000 0.728432
#
# Coordination Sequence:
#
# PCOD9432659 Si02
#       3
#     8   8   8
#     4  10  23  43  67  95 133 172 214 266 328 390
#     4  11  26  46  68  95 131 176 223 271 323 383
#     4  11  24  41  66 100 133 168 212 267 330 393
#
# _framework density 21.682466999999999
#
# number of rings (size 3 to 8) (size 9 to 14) (size 15 to 20)
#    0.000    1.333    0.000    5.000    0.000   17.333 
#    0.000    1.667    0.000    0.000    0.000    0.000 
#    0.000    0.000    0.000    0.000    0.000    0.000 
#
# Total GULP energy -133904.018016 kJ/mol
# GULP energy per Si atom -5579.334084 kJ/mol
# Density = 2.163312 g / cm^3
# Si number density = 21.682467 Si / 1000 Ang^3
#
#
#
# Elastic Constant Matrix: (Units=GPa)
#
#
# Indices 1 2 3 4 5 6 
#
# 1 193.5347 78.0137 86.4468 0.0000 0.0000 0.0000
# 2 78.0137 98.8104 62.7033 0.0000 0.0000 0.0000
# 3 86.4468 62.7033 248.7904 0.0000 0.0000 0.0000
# 4 0.0000 0.0000 0.0000 13.1021 0.0000 0.0000
# 5 0.0000 0.0000 0.0000 0.0000 30.1310 0.0000
# 6 0.0000 0.0000 0.0000 0.0000 0.0000 50.0991
#
#
#
# Elastic Compliance Matrix: (Units=1/GPa)
#
#
# Indices 1 2 3 4 5 6 
#
# 1 0.007974 -0.005401 -0.001409 0.000000 0.000000 0.000000
# 2 -0.005401 0.015706 -0.002082 0.000000 0.000000 0.000000
# 3 -0.001409 -0.002082 0.005034 0.000000 0.000000 0.000000
# 4 0.000000 0.000000 0.000000 0.076324 0.000000 0.000000
# 5 0.000000 0.000000 0.000000 0.000000 0.033188 0.000000
# 6 0.000000 0.000000 0.000000 0.000000 0.000000 0.019960
#
#
# Mechanical properties :
#
#
# Convention : Reuss Voigt Hill
#
# Bulk Modulus (GPa) = 91.49974 110.60701 101.05338
# Shear Modulus (GPa) = 27.83758 39.59787 33.71772
#
# Velocity S-wave (km/s) = 3.58701 4.27812 3.94771
# Velocity P-wave (km/s) = 7.71019 8.69057 8.21502
#
# Compressibility (1/GPa) = 0.01092899
#
# Stress axis : x y z
#
# Youngs Moduli (GPa) = 125.41134 63.67103 198.65742
#
# Poissons Ratio (x) = 0.34390 0.27998
# Poissons Ratio (y) = 0.67737 0.41353
# Poissons Ratio (z) = 0.17675 0.13254
#
# Static dielectric constant tensor:
#      x y z
#    x 1.800000 0.000000 0.000000 
#    y 0.000000 1.833430 0.000000 
#    z 0.000000 0.000000 0.115030 
# 
# From -- ./inp_files/19721.got.cif
#   From: 2010.05.17/outbox.cif.g08.bks.cpg/sg56_10_cif.got.tgz:19721.got - 2010.06.03 13:42:01.
