data_PCOD9432012
_publ_section_title
;
Structure prediction by ZEFSAII (Michael W. Deem and Ramdas Pophale) SiO2 
 PCOD9432012
Probable space group: P C C N
;
_chemical_formula_sum "Si O2"
_cell_formula_units_Z 40
_cell_length_a 20.599911
_cell_length_b 8.949705
_cell_length_c 10.532680
_cell_angle_alpha 90.000000
_cell_angle_beta 90.000000
_cell_angle_gamma 90.000000
_cell_volume 1941.837815
_symmetry_space_group_name_H-M "P C C N"
_symmetry_group_IT_number 56
_symmetry_cell_setting 'orthorhombic'
loop_
_space_group_symop_operation_xyz
x,y,z
1/2-x,1/2-y,z
1/2+x,-y,1/2-z
-x,1/2+y,1/2-z
-x,-y,-z
1/2+x,1/2+y,-z
1/2-x,y,1/2+z
x,1/2-y,1/2+z
loop_
_atom_site_type_symbol
_atom_site_label
_atom_site_fract_x
_atom_site_fract_y
_atom_site_fract_z
Si Si1 0.430355 0.439289 0.949840
Si Si2 0.182539 0.835356 0.373532
Si Si3 0.403856 0.089979 0.930179
Si Si4 0.463219 0.559268 0.680000
Si Si5 0.383393 0.820935 0.609093
O O1 0.410367 0.267838 0.935291
O O2 0.429841 0.511625 0.810077
O O3 0.500000 0.500000 0.000000
O O4 0.385717 0.511496 0.058715
O O5 0.250000 0.750000 0.396641
O O6 0.136460 0.764398 0.480615
O O7 0.163597 0.803227 0.228263
O O8 0.164590 0.011355 0.395942
O O9 0.459486 0.035180 0.830166
O O10 0.430077 0.032851 0.066371
O O11 0.448604 0.734515 0.653625
#
# Coordination Sequence:
#
# PCOD9432012 Si02
#       5
#     8   8   8   8   8
#     4  12  23  35  65  99 145 181 220 286 364 421
#     4  11  24  45  68  94 130 184 242 282 341 427
#     4  10  24  38  63  97 140 182 231 288 347 425
#     4  10  22  39  59  98 139 178 229 278 354 431
#     4  11  22  42  68  96 131 183 231 287 352 419
#
# _framework density 20.599043000000002
#
# number of rings (size 3 to 8) (size 9 to 14) (size 15 to 20)
#    0.000    1.200    4.000    1.800    5.600    0.000 
#    0.000    1.000    0.000    2.400    0.000    0.000 
#    0.000    0.000    0.000    0.000    0.000    0.000 
#
# Total GULP energy -222746.003845 kJ/mol
# GULP energy per Si atom -5568.650096 kJ/mol
# Density = 2.055216 g / cm^3
# Si number density = 20.599043 Si / 1000 Ang^3
#
#
#
# Elastic Constant Matrix: (Units=GPa)
#
#
# Indices 1 2 3 4 5 6 
#
# 1 63.5784 36.2723 9.9468 0.0000 0.0000 0.0000
# 2 36.2723 152.0384 47.0650 0.0000 0.0000 0.0000
# 3 9.9468 47.0650 122.6762 0.0000 0.0000 0.0000
# 4 0.0000 0.0000 0.0000 26.5324 0.0000 0.0000
# 5 0.0000 0.0000 0.0000 0.0000 20.4532 0.0000
# 6 0.0000 0.0000 0.0000 0.0000 0.0000 26.7292
#
#
#
# Elastic Compliance Matrix: (Units=1/GPa)
#
#
# Indices 1 2 3 4 5 6 
#
# 1 0.018212 -0.004412 0.000216 0.000000 0.000000 0.000000
# 2 -0.004412 0.008532 -0.002916 0.000000 0.000000 0.000000
# 3 0.000216 -0.002916 0.009253 0.000000 0.000000 0.000000
# 4 0.000000 0.000000 0.000000 0.037690 0.000000 0.000000
# 5 0.000000 0.000000 0.000000 0.000000 0.048892 0.000000
# 6 0.000000 0.000000 0.000000 0.000000 0.000000 0.037412
#
#
# Mechanical properties :
#
#
# Convention : Reuss Voigt Hill
#
# Bulk Modulus (GPa) = 45.92685 58.31791 52.12238
# Shear Modulus (GPa) = 27.55249 31.07690 29.31470
#
# Velocity S-wave (km/s) = 3.66124 3.88836 3.77651
# Velocity P-wave (km/s) = 6.34168 6.96646 6.66140
#
# Compressibility (1/GPa) = 0.02177376
#
# Stress axis : x y z
#
# Youngs Moduli (GPa) = 54.90962 117.20034 108.07686
#
# Poissons Ratio (x) = 0.51705 -0.02333
# Poissons Ratio (y) = 0.24224 0.31513
# Poissons Ratio (z) = -0.01186 0.34173
#
# Static dielectric constant tensor:
#      x y z
#    x 1.807320 0.000000 0.000000 
#    y 0.000000 1.819780 0.000000 
#    z 0.000000 0.000000 1.731840 
# 
# From -- ./inp_files/4678.got.cif
#   From: 2010.05.17/outbox.cif.g08.bks.cpg/sg56_3_cif.got.tgz:4678.got - 2010.06.03 13:42:01.
