data_PCOD9432546
_publ_section_title
;
Structure prediction by ZEFSAII (Michael W. Deem and Ramdas Pophale) SiO2 
 PCOD9432546
Probable space group: P C C N
;
_chemical_formula_sum "Si O2"
_cell_formula_units_Z 56
_cell_length_a 12.009495
_cell_length_b 15.690980
_cell_length_c 15.443469
_cell_angle_alpha 90.000000
_cell_angle_beta 90.000000
_cell_angle_gamma 90.000000
_cell_volume 2910.178817
_symmetry_space_group_name_H-M "P C C N"
_symmetry_group_IT_number 56
_symmetry_cell_setting 'orthorhombic'
loop_
_space_group_symop_operation_xyz
x,y,z
1/2-x,1/2-y,z
1/2+x,-y,1/2-z
-x,1/2+y,1/2-z
-x,-y,-z
1/2+x,1/2+y,-z
1/2-x,y,1/2+z
x,1/2-y,1/2+z
loop_
_atom_site_type_symbol
_atom_site_label
_atom_site_fract_x
_atom_site_fract_y
_atom_site_fract_z
Si Si1 0.566477 0.899005 0.330411
Si Si2 0.226873 0.153708 0.319732
Si Si3 0.652270 0.686282 0.488272
Si Si4 0.733931 0.388984 0.562520
Si Si5 0.153669 0.993259 0.786045
Si Si6 0.281695 0.478911 0.593424
Si Si7 0.935824 0.236064 0.062468
O O1 0.632977 0.881739 0.243029
O O2 0.468664 0.963903 0.309832
O O3 0.656328 0.940033 0.396565
O O4 0.506817 0.812606 0.363379
O O5 0.250000 0.250000 0.294522
O O6 0.192217 0.152572 0.419223
O O7 0.330970 0.092590 0.305833
O O8 0.750000 0.750000 0.456496
O O9 0.644060 0.604940 0.425865
O O10 0.535651 0.734640 0.499970
O O11 0.765183 0.441249 0.649082
O O12 0.708369 0.454229 0.484703
O O13 0.636201 0.320840 0.581509
O O14 0.843544 0.333745 0.535475
O O15 0.184514 0.980624 0.685441
#
# Coordination Sequence:
#
# PCOD9432546 Si02
#       7
#     8   8   8   8   8   8   8
#     4  10  23  42  65  91 128 173 210 259 325 379
#     4  10  23  40  60  94 128 157 216 266 311 380
#     4  11  22  39  63  95 122 162 207 265 314 370
#     4  10  23  46  60  95 127 171 210 266 312 389
#     4  10  23  42  62  91 130 168 216 262 321 383
#     4  11  23  39  69  92 129 164 220 260 323 381
#     4  10  23  41  67  87 131 163 208 260 322 374
#
# _framework density 19.242802999999999
#
# number of rings (size 3 to 8) (size 9 to 14) (size 15 to 20)
#    0.000    1.714    2.857    0.000    6.000    7.429 
#    2.571    1.429    0.000    0.000    0.000    0.000 
#    0.000    0.000    0.000    0.000    0.000    0.000 
#
# Total GULP energy -312346.761407 kJ/mol
# GULP energy per Si atom -5577.620739 kJ/mol
# Density = 1.919901 g / cm^3
# Si number density = 19.242803 Si / 1000 Ang^3
#
#
#
# Elastic Constant Matrix: (Units=GPa)
#
#
# Indices 1 2 3 4 5 6 
#
# 1 66.4697 23.4954 2.1940 0.0000 0.0000 0.0000
# 2 23.4954 108.0230 30.0569 0.0000 0.0000 0.0000
# 3 2.1940 30.0569 69.0541 0.0000 0.0000 0.0000
# 4 0.0000 0.0000 0.0000 36.4716 0.0000 0.0000
# 5 0.0000 0.0000 0.0000 0.0000 6.7613 0.0000
# 6 0.0000 0.0000 0.0000 0.0000 0.0000 25.7201
#
#
#
# Elastic Compliance Matrix: (Units=1/GPa)
#
#
# Indices 1 2 3 4 5 6 
#
# 1 0.016380 -0.003889 0.001172 0.000000 0.000000 0.000000
# 2 -0.003889 0.011456 -0.004863 0.000000 0.000000 0.000000
# 3 0.001172 -0.004863 0.016561 0.000000 0.000000 0.000000
# 4 0.000000 0.000000 0.000000 0.027419 0.000000 0.000000
# 5 0.000000 0.000000 0.000000 0.000000 0.147901 0.000000
# 6 0.000000 0.000000 0.000000 0.000000 0.000000 0.038880
#
#
# Mechanical properties :
#
#
# Convention : Reuss Voigt Hill
#
# Bulk Modulus (GPa) = 34.20181 39.44882 36.82532
# Shear Modulus (GPa) = 17.63652 26.31064 21.97358
#
# Velocity S-wave (km/s) = 3.03070 3.70171 3.38288
# Velocity P-wave (km/s) = 5.48263 6.23019 5.86833
#
# Compressibility (1/GPa) = 0.02923822
#
# Stress axis : x y z
#
# Youngs Moduli (GPa) = 61.04850 87.28862 60.38349
#
# Poissons Ratio (x) = 0.33946 -0.07079
# Poissons Ratio (y) = 0.23742 0.29364
# Poissons Ratio (z) = -0.07157 0.42448
#
# Static dielectric constant tensor:
#      x y z
#    x 1.666810 0.000000 0.000000 
#    y 0.000000 1.694070 0.000000 
#    z 0.000000 0.000000 1.652640 
# 
# From -- ./inp_files/11703.got.cif
#   From: 2010.05.17/outbox.cif.g08.bks.cpg/sg56_6_cif.got.tgz:11703.got - 2010.06.03 13:42:01.
