data_PCOD9432037
_publ_section_title
;
Structure prediction by ZEFSAII (Michael W. Deem and Ramdas Pophale) SiO2 
 PCOD9432037
Probable space group: P C C N
;
_chemical_formula_sum "Si O2"
_cell_formula_units_Z 60
_cell_length_a 13.827123
_cell_length_b 22.521174
_cell_length_c 8.921110
_cell_angle_alpha 90.000000
_cell_angle_beta 90.000000
_cell_angle_gamma 90.000000
_cell_volume 2778.060801
_symmetry_space_group_name_H-M "P C C N"
_symmetry_group_IT_number 56
_symmetry_cell_setting 'orthorhombic'
loop_
_space_group_symop_operation_xyz
x,y,z
1/2-x,1/2-y,z
1/2+x,-y,1/2-z
-x,1/2+y,1/2-z
-x,-y,-z
1/2+x,1/2+y,-z
1/2-x,y,1/2+z
x,1/2-y,1/2+z
loop_
_atom_site_type_symbol
_atom_site_label
_atom_site_fract_x
_atom_site_fract_y
_atom_site_fract_z
Si Si1 0.926704 0.220665 0.459075
Si Si2 0.746063 0.991977 0.462034
Si Si3 0.331875 0.701618 0.252035
Si Si4 0.565186 0.021860 0.639191
Si Si5 0.817382 0.110769 0.301217
Si Si6 0.872730 0.691836 0.173489
Si Si7 0.112799 0.053272 0.309246
Si Si8 0.750000 0.750000 0.431596
O O1 0.869037 0.279660 0.410839
O O2 0.919520 0.210432 0.634658
O O3 0.869458 0.164638 0.387326
O O4 0.032465 0.222874 0.392032
O O5 0.687586 0.965015 0.322458
O O6 0.839235 0.960067 0.530851
O O7 0.666715 0.990708 0.597317
O O8 0.785412 0.056229 0.407389
O O9 0.250000 0.750000 0.294006
O O10 0.281697 0.638415 0.261343
O O11 0.610529 0.087150 0.672095
O O12 0.487849 0.018619 0.775635
O O13 0.500000 0.000000 0.500000
O O14 0.899511 0.623755 0.201710
O O15 0.830463 0.722149 0.322230
O O16 0.792866 0.700131 0.042709
#
# Coordination Sequence:
#
# PCOD9432037 Si02
#       8
#     8   8   8   8   8   8   8   4
#     4  11  22  39  65  97 129 168 223 271 335 401
#     4  11  23  42  65  96 133 179 222 273 337 401
#     4  10  22  39  64  96 132 173 210 268 339 403
#     4  10  22  41  62  94 132 174 220 276 332 395
#     4  11  21  41  65  93 136 174 217 275 332 410
#     4  11  22  44  64  95 125 167 222 279 330 396
#     4  11  23  42  67  93 132 172 223 276 334 399
#     4  10  24  42  68  86 128 168 216 278 344 382
#
# _framework density 21.597798000000001
#
# number of rings (size 3 to 8) (size 9 to 14) (size 15 to 20)
#    0.000    1.333    2.667    3.600    0.000    1.600 
#    2.400    0.000    5.867    0.000    0.000    0.000 
#    0.000    0.000    0.000    0.000    0.000    0.000 
#
# Total GULP energy -334321.411551 kJ/mol
# GULP energy per Si atom -5572.023526 kJ/mol
# Density = 2.154864 g / cm^3
# Si number density = 21.597798 Si / 1000 Ang^3
#
#
#
# Elastic Constant Matrix: (Units=GPa)
#
#
# Indices 1 2 3 4 5 6 
#
# 1 98.5172 15.5737 28.9013 0.0000 0.0000 0.0000
# 2 15.5737 49.0379 11.9105 0.0000 0.0000 0.0000
# 3 28.9013 11.9105 65.9206 0.0000 0.0000 0.0000
# 4 0.0000 0.0000 0.0000 25.5325 0.0000 0.0000
# 5 0.0000 0.0000 0.0000 0.0000 30.7076 0.0000
# 6 0.0000 0.0000 0.0000 0.0000 0.0000 29.8929
#
#
#
# Elastic Compliance Matrix: (Units=1/GPa)
#
#
# Indices 1 2 3 4 5 6 
#
# 1 0.011967 -0.002642 -0.004769 0.000000 0.000000 0.000000
# 2 -0.002642 0.021912 -0.002801 0.000000 0.000000 0.000000
# 3 -0.004769 -0.002801 0.017767 0.000000 0.000000 0.000000
# 4 0.000000 0.000000 0.000000 0.039166 0.000000 0.000000
# 5 0.000000 0.000000 0.000000 0.000000 0.032565 0.000000
# 6 0.000000 0.000000 0.000000 0.000000 0.000000 0.033453
#
#
# Mechanical properties :
#
#
# Convention : Reuss Voigt Hill
#
# Bulk Modulus (GPa) = 32.02925 36.24963 34.13944
# Shear Modulus (GPa) = 26.64375 27.69928 27.17151
#
# Velocity S-wave (km/s) = 3.51612 3.58509 3.55077
# Velocity P-wave (km/s) = 5.59877 5.82731 5.71418
#
# Compressibility (1/GPa) = 0.03122146
#
# Stress axis : x y z
#
# Youngs Moduli (GPa) = 83.56054 45.63764 56.28470
#
# Poissons Ratio (x) = 0.12059 0.26845
# Poissons Ratio (y) = 0.22079 0.15763
# Poissons Ratio (z) = 0.39853 0.12781
#
# Static dielectric constant tensor:
#      x y z
#    x 1.812140 0.000000 0.000000 
#    y 0.000000 1.778230 0.000000 
#    z 0.000000 0.000000 1.812350 
# 
# From -- ./inp_files/3691.got.cif
#   From: 2010.05.17/outbox.cif.g08.bks.cpg/sg56_2_cif.got.tgz:3691.got - 2010.06.03 13:42:01.
