data_PCOD9432184
_publ_section_title
;
Structure prediction by ZEFSAII (Michael W. Deem and Ramdas Pophale) SiO2 
 PCOD9432184
Probable space group: P C C N
;
_chemical_formula_sum "Si O2"
_cell_formula_units_Z 48
_cell_length_a 8.134704
_cell_length_b 14.817664
_cell_length_c 17.821422
_cell_angle_alpha 90.000000
_cell_angle_beta 90.000000
_cell_angle_gamma 90.000000
_cell_volume 2148.146279
_symmetry_space_group_name_H-M "P C C N"
_symmetry_group_IT_number 56
_symmetry_cell_setting 'orthorhombic'
loop_
_space_group_symop_operation_xyz
x,y,z
1/2-x,1/2-y,z
1/2+x,-y,1/2-z
-x,1/2+y,1/2-z
-x,-y,-z
1/2+x,1/2+y,-z
1/2-x,y,1/2+z
x,1/2-y,1/2+z
loop_
_atom_site_type_symbol
_atom_site_label
_atom_site_fract_x
_atom_site_fract_y
_atom_site_fract_z
Si Si1 0.447762 0.408019 0.037525
Si Si2 0.055475 0.606276 0.745215
Si Si3 0.557779 0.270623 0.472611
Si Si4 0.860878 0.841265 0.392619
Si Si5 0.422346 0.581423 0.804086
Si Si6 0.063344 0.214814 0.317486
O O1 0.264669 0.411594 0.070567
O O2 0.559800 0.386634 0.110336
O O3 0.500000 0.500000 0.000000
O O4 0.463549 0.325382 0.979980
O O5 0.935686 0.625553 0.815358
O O6 0.988368 0.520398 0.700677
O O7 0.050309 0.697933 0.697912
O O8 0.236949 0.587374 0.775437
O O9 0.750000 0.250000 0.468609
O O10 0.504454 0.321515 0.548069
O O11 0.490230 0.320614 0.398955
O O12 0.750000 0.750000 0.382928
O O13 0.530416 0.643281 0.748234
O O14 0.250000 0.250000 0.317755
#
# Coordination Sequence:
#
# PCOD9432184 Si02
#       6
#     8   8   8   8   8   8
#     4  11  23  42  64  92 126 165 211 263 315 372
#     4  12  24  43  65  94 130 168 214 265 320 379
#     4  11  23  41  64  93 126 168 211 256 315 380
#     4  10  22  41  65  91 126 171 212 259 318 378
#     4  12  26  42  66  97 127 169 214 263 318 380
#     4  12  24  43  67  95 130 169 212 264 318 377
#
# _framework density 22.344846
#
# number of rings (size 3 to 8) (size 9 to 14) (size 15 to 20)
#    0.000    0.667    0.000   10.500    0.000    2.667 
#    0.000    2.500    0.000    0.000    0.000    0.000 
#    0.000    0.000    0.000    0.000    0.000    0.000 
#
# Total GULP energy -268925.741954 kJ/mol
# GULP energy per Si atom -5602.619624 kJ/mol
# Density = 2.229399 g / cm^3
# Si number density = 22.344846 Si / 1000 Ang^3
#
#
#
# Elastic Constant Matrix: (Units=GPa)
#
#
# Indices 1 2 3 4 5 6 
#
# 1 109.1202 -20.8605 4.6012 0.0000 0.0000 0.0000
# 2 -20.8605 55.4743 5.9509 0.0000 0.0000 0.0000
# 3 4.6012 5.9509 91.8496 0.0000 0.0000 0.0000
# 4 0.0000 0.0000 0.0000 39.1150 0.0000 0.0000
# 5 0.0000 0.0000 0.0000 0.0000 27.7523 0.0000
# 6 0.0000 0.0000 0.0000 0.0000 0.0000 31.9110
#
#
#
# Elastic Compliance Matrix: (Units=1/GPa)
#
#
# Indices 1 2 3 4 5 6 
#
# 1 0.009924 0.003812 -0.000744 0.000000 0.000000 0.000000
# 2 0.003812 0.019617 -0.001462 0.000000 0.000000 0.000000
# 3 -0.000744 -0.001462 0.011019 0.000000 0.000000 0.000000
# 4 0.000000 0.000000 0.000000 0.025566 0.000000 0.000000
# 5 0.000000 0.000000 0.000000 0.000000 0.036033 0.000000
# 6 0.000000 0.000000 0.000000 0.000000 0.000000 0.031337
#
#
# Mechanical properties :
#
#
# Convention : Reuss Voigt Hill
#
# Bulk Modulus (GPa) = 22.84587 26.20305 24.52446
# Shear Modulus (GPa) = 34.51248 37.53915 36.02582
#
# Velocity S-wave (km/s) = 3.93433 4.10322 4.01966
# Velocity P-wave (km/s) = 5.55743 5.84813 5.70463
#
# Compressibility (1/GPa) = 0.04377159
#
# Stress axis : x y z
#
# Youngs Moduli (GPa) = 100.76307 50.97737 90.74940
#
# Poissons Ratio (x) = -0.19431 0.06753
# Poissons Ratio (y) = -0.38408 0.13267
# Poissons Ratio (z) = 0.07498 0.07452
#
# Static dielectric constant tensor:
#      x y z
#    x 1.807220 0.000000 0.000000 
#    y 0.000000 1.822060 0.000000 
#    z 0.000000 0.000000 1.798410 
# 
# From -- ./inp_files/14845.got.cif
#   From: 2010.05.17/outbox.cif.g08.bks.cpg/sg56_8_cif.got.tgz:14845.got - 2010.06.03 13:42:01.
