data_PCOD9432580
_publ_section_title
;
Structure prediction by ZEFSAII (Michael W. Deem and Ramdas Pophale) SiO2 
 PCOD9432580
Probable space group: P C C N
;
_chemical_formula_sum "Si O2"
_cell_formula_units_Z 56
_cell_length_a 13.839205
_cell_length_b 12.355341
_cell_length_c 14.463086
_cell_angle_alpha 90.000000
_cell_angle_beta 90.000000
_cell_angle_gamma 90.000000
_cell_volume 2473.015551
_symmetry_space_group_name_H-M "P C C N"
_symmetry_group_IT_number 56
_symmetry_cell_setting 'orthorhombic'
loop_
_space_group_symop_operation_xyz
x,y,z
1/2-x,1/2-y,z
1/2+x,-y,1/2-z
-x,1/2+y,1/2-z
-x,-y,-z
1/2+x,1/2+y,-z
1/2-x,y,1/2+z
x,1/2-y,1/2+z
loop_
_atom_site_type_symbol
_atom_site_label
_atom_site_fract_x
_atom_site_fract_y
_atom_site_fract_z
Si Si1 0.745265 0.491257 0.976605
Si Si2 0.521689 0.424310 0.147459
Si Si3 0.371924 0.885304 0.666149
Si Si4 0.248134 0.880867 0.844401
Si Si5 0.592925 0.680696 0.010014
Si Si6 0.031748 0.251693 0.791776
Si Si7 0.331999 0.166938 0.149393
O O1 0.690489 0.394015 0.925316
O O2 0.669405 0.582345 0.012544
O O3 0.798579 0.553368 0.892662
O O4 0.794507 0.439834 0.065910
O O5 0.464732 0.537351 0.148013
O O6 0.636278 0.419474 0.161009
O O7 0.497035 0.367164 0.048969
O O8 0.467580 0.358804 0.229730
O O9 0.308043 0.915411 0.754429
O O10 0.419212 0.771586 0.690230
O O11 0.250000 0.750000 0.852832
O O12 0.633673 0.770264 0.941333
O O13 0.578231 0.738104 0.107916
O O14 0.083603 0.164789 0.724300
O O15 0.250000 0.250000 0.188900
#
# Coordination Sequence:
#
# PCOD9432580 Si02
#       7
#     8   8   8   8   8   8   8
#     4  10  23  41  64  95 131 169 223 262 327 402
#     4  10  23  45  64  95 132 170 227 266 318 412
#     4  11  25  43  65  97 125 177 222 260 328 393
#     4  12  25  45  67  94 134 176 218 273 335 387
#     4   9  20  40  68  95 128 172 211 269 336 382
#     4  11  21  40  67  92 132 168 213 274 322 378
#     4   9  21  39  61 103 130 157 220 274 320 390
#
# _framework density 22.64442
#
# number of rings (size 3 to 8) (size 9 to 14) (size 15 to 20)
#    0.000    1.714    1.429    2.571    6.000    4.571 
#    2.571    0.714    0.000    0.000    0.000    0.000 
#    0.000    0.000    0.000    0.000    0.000    0.000 
#
# Total GULP energy -312583.807099 kJ/mol
# GULP energy per Si atom -5581.853698 kJ/mol
# Density = 2.259288 g / cm^3
# Si number density = 22.644420 Si / 1000 Ang^3
#
#
#
# Elastic Constant Matrix: (Units=GPa)
#
#
# Indices 1 2 3 4 5 6 
#
# 1 32.7445 -9.9369 -3.5864 0.0000 0.0000 0.0000
# 2 -9.9369 44.2764 12.6246 0.0000 0.0000 0.0000
# 3 -3.5864 12.6246 121.7084 0.0000 0.0000 0.0000
# 4 0.0000 0.0000 0.0000 29.1464 0.0000 0.0000
# 5 0.0000 0.0000 0.0000 0.0000 31.5246 0.0000
# 6 0.0000 0.0000 0.0000 0.0000 0.0000 23.4000
#
#
#
# Elastic Compliance Matrix: (Units=1/GPa)
#
#
# Indices 1 2 3 4 5 6 
#
# 1 0.032777 0.007296 0.000209 0.000000 0.000000 0.000000
# 2 0.007296 0.024898 -0.002368 0.000000 0.000000 0.000000
# 3 0.000209 -0.002368 0.008468 0.000000 0.000000 0.000000
# 4 0.000000 0.000000 0.000000 0.034309 0.000000 0.000000
# 5 0.000000 0.000000 0.000000 0.000000 0.031721 0.000000
# 6 0.000000 0.000000 0.000000 0.000000 0.000000 0.042735
#
#
# Mechanical properties :
#
#
# Convention : Reuss Voigt Hill
#
# Bulk Modulus (GPa) = 13.08588 21.88135 17.48361
# Shear Modulus (GPa) = 26.30115 30.12274 28.21194
#
# Velocity S-wave (km/s) = 3.41175 3.65122 3.53351
# Velocity P-wave (km/s) = 4.61644 5.24015 4.93815
#
# Compressibility (1/GPa) = 0.07641824
#
# Stress axis : x y z
#
# Youngs Moduli (GPa) = 30.50957 40.16389 118.09015
#
# Poissons Ratio (x) = -0.29305 -0.02468
# Poissons Ratio (y) = -0.22261 0.27959
# Poissons Ratio (z) = -0.00638 0.09509
#
# Static dielectric constant tensor:
#      x y z
#    x 1.920040 0.000000 0.000000 
#    y 0.000000 1.916890 0.000000 
#    z 0.000000 0.000000 1.798310 
# 
# From -- ./inp_files/12255.got.cif
#   From: 2010.05.17/outbox.cif.g08.bks.cpg/sg56_7_cif.got.tgz:12255.got - 2010.06.03 13:42:01.
