data_PCOD9432329
_publ_section_title
;
Structure prediction by ZEFSAII (Michael W. Deem and Ramdas Pophale) SiO2 
 PCOD9432329
Probable space group: P C C N
;
_chemical_formula_sum "Si O2"
_cell_formula_units_Z 64
_cell_length_a 14.291459
_cell_length_b 16.330521
_cell_length_c 13.242200
_cell_angle_alpha 90.000000
_cell_angle_beta 90.000000
_cell_angle_gamma 90.000000
_cell_volume 3090.556952
_symmetry_space_group_name_H-M "P C C N"
_symmetry_group_IT_number 56
_symmetry_cell_setting 'orthorhombic'
loop_
_space_group_symop_operation_xyz
x,y,z
1/2-x,1/2-y,z
1/2+x,-y,1/2-z
-x,1/2+y,1/2-z
-x,-y,-z
1/2+x,1/2+y,-z
1/2-x,y,1/2+z
x,1/2-y,1/2+z
loop_
_atom_site_type_symbol
_atom_site_label
_atom_site_fract_x
_atom_site_fract_y
_atom_site_fract_z
Si Si1 0.490132 0.911562 0.354595
Si Si2 0.271399 0.072162 0.828970
Si Si3 0.367071 0.944923 0.677194
Si Si4 0.657963 0.805461 0.802372
Si Si5 0.333634 0.688754 0.334415
Si Si6 0.951267 0.682669 0.164868
Si Si7 0.708559 0.435437 0.041733
Si Si8 0.515327 0.746072 0.449532
O O1 0.543999 0.998453 0.352802
O O2 0.489619 0.874766 0.240725
O O3 0.387587 0.920986 0.398408
O O4 0.540552 0.841327 0.424184
O O5 0.310058 0.003643 0.752636
O O6 0.194063 0.118816 0.762842
O O7 0.356827 0.131391 0.856769
O O8 0.236694 0.027552 0.928963
O O9 0.377878 0.862246 0.741659
O O10 0.310968 0.925600 0.575769
O O11 0.750000 0.750000 0.822304
O O12 0.586851 0.756995 0.730986
O O13 0.597121 0.811710 0.903560
O O14 0.250000 0.750000 0.302434
O O15 0.285516 0.626130 0.413666
O O16 0.418052 0.732992 0.391445
O O17 0.996334 0.719307 0.064866
#
# Coordination Sequence:
#
# PCOD9432329 Si02
#       8
#     8   8   8   8   8   8   8   8
#     4  10  22  43  61 100 134 166 235 277 329 405
#     4   9  21  39  59  96 134 161 215 269 334 403
#     4  10  24  42  67  94 134 177 220 285 338 400
#     4   9  20  38  61  98 132 169 215 273 334 399
#     4  11  25  48  62 100 137 179 238 278 333 409
#     4   9  21  40  62  95 132 169 215 282 325 396
#     4  11  23  40  66  90 128 182 219 276 336 398
#     4  11  23  39  71  96 133 178 226 274 340 404
#
# _framework density 20.708241999999998
#
# number of rings (size 3 to 8) (size 9 to 14) (size 15 to 20)
#    0.000    2.000    1.250    1.125    5.250    6.000 
#    0.000    5.625    0.000    0.000    0.000    0.000 
#    0.000    0.000    0.000    0.000    0.000    0.000 
#
# Total GULP energy -357204.917404 kJ/mol
# GULP energy per Si atom -5581.326834 kJ/mol
# Density = 2.066111 g / cm^3
# Si number density = 20.708242 Si / 1000 Ang^3
#
#
#
# Elastic Constant Matrix: (Units=GPa)
#
#
# Indices 1 2 3 4 5 6 
#
# 1 62.6639 14.1501 20.9820 0.0000 0.0000 0.0000
# 2 14.1501 57.6257 17.0719 0.0000 0.0000 0.0000
# 3 20.9820 17.0719 97.4847 0.0000 0.0000 0.0000
# 4 0.0000 0.0000 0.0000 7.1710 0.0000 0.0000
# 5 0.0000 0.0000 0.0000 0.0000 18.7834 0.0000
# 6 0.0000 0.0000 0.0000 0.0000 0.0000 25.4892
#
#
#
# Elastic Compliance Matrix: (Units=1/GPa)
#
#
# Indices 1 2 3 4 5 6 
#
# 1 0.017813 -0.003415 -0.003236 0.000000 0.000000 0.000000
# 2 -0.003415 0.018958 -0.002585 0.000000 0.000000 0.000000
# 3 -0.003236 -0.002585 0.011407 0.000000 0.000000 0.000000
# 4 0.000000 0.000000 0.000000 0.139450 0.000000 0.000000
# 5 0.000000 0.000000 0.000000 0.000000 0.053238 0.000000
# 6 0.000000 0.000000 0.000000 0.000000 0.000000 0.039232
#
#
# Mechanical properties :
#
#
# Convention : Reuss Voigt Hill
#
# Bulk Modulus (GPa) = 33.66355 35.79804 34.73080
# Shear Modulus (GPa) = 16.20890 21.32674 18.76782
#
# Velocity S-wave (km/s) = 2.80076 3.21264 3.01374
# Velocity P-wave (km/s) = 5.17208 5.57546 5.37755
#
# Compressibility (1/GPa) = 0.02970572
#
# Stress axis : x y z
#
# Youngs Moduli (GPa) = 56.13928 52.74871 87.66425
#
# Poissons Ratio (x) = 0.18016 0.28367
# Poissons Ratio (y) = 0.19174 0.22660
# Poissons Ratio (z) = 0.18166 0.13635
#
# Static dielectric constant tensor:
#      x y z
#    x 1.639180 0.000000 0.000000 
#    y 0.000000 1.823560 0.000000 
#    z 0.000000 0.000000 1.750590 
# 
# From -- ./inp_files/8067.got.cif
#   From: 2010.05.17/outbox.cif.g08.bks.cpg/sg56_5_cif.got.tgz:8067.got - 2010.06.03 13:42:01.
