data_PCOD9432202
_publ_section_title
;
Structure prediction by ZEFSAII (Michael W. Deem and Ramdas Pophale) SiO2 
 PCOD9432202
Probable space group: P C C N
;
_chemical_formula_sum "Si O2"
_cell_formula_units_Z 48
_cell_length_a 5.458634
_cell_length_b 21.302731
_cell_length_c 12.842849
_cell_angle_alpha 90.000000
_cell_angle_beta 90.000000
_cell_angle_gamma 90.000000
_cell_volume 1493.415435
_symmetry_space_group_name_H-M "P C C N"
_symmetry_group_IT_number 56
_symmetry_cell_setting 'orthorhombic'
loop_
_space_group_symop_operation_xyz
x,y,z
1/2-x,1/2-y,z
1/2+x,-y,1/2-z
-x,1/2+y,1/2-z
-x,-y,-z
1/2+x,1/2+y,-z
1/2-x,y,1/2+z
x,1/2-y,1/2+z
loop_
_atom_site_type_symbol
_atom_site_label
_atom_site_fract_x
_atom_site_fract_y
_atom_site_fract_z
Si Si1 0.343170 0.317535 0.088744
Si Si2 0.547596 0.650137 0.135068
Si Si3 0.143137 0.930129 0.752984
Si Si4 0.121031 0.437073 0.130635
Si Si5 0.281947 0.481921 0.922118
Si Si6 0.095520 0.798366 0.695702
O O1 0.250000 0.250000 0.052297
O O2 0.105142 0.357314 0.129963
O O3 0.531924 0.301200 0.181176
O O4 0.484474 0.348504 0.991307
O O5 0.616485 0.572488 0.154711
O O6 0.412870 0.720992 0.168860
O O7 0.835762 0.675335 0.148911
O O8 0.899857 0.925259 0.819378
O O9 0.245008 0.870199 0.691057
O O10 0.133090 0.986281 0.673336
O O11 0.306701 0.954230 0.852707
O O12 0.112961 0.446850 0.004350
O O13 0.500000 0.500000 0.000000
#
# Coordination Sequence:
#
# PCOD9432202 Si02
#       6
#     8   8   8   8   8   8
#     4  11  22  41  72 105 143 192 257 317 385 455
#     4   9  21  40  67 103 143 191 247 304 376 460
#     4   8  17  37  63  94 142 182 240 291 378 437
#     4   8  16  35  69  99 130 184 238 304 371 442
#     4   8  15  36  69  96 136 178 242 297 368 451
#     4  10  22  41  67  96 145 199 246 308 377 458
#
# _framework density 32.141091000000003
#
# number of rings (size 3 to 8) (size 9 to 14) (size 15 to 20)
#    2.000    1.000    0.000    1.000    0.000    0.667 
#    3.000    8.333    7.333    0.000    0.000    0.000 
#    0.000    0.000    0.000    0.000    0.000    0.000 
#
# Total GULP energy -267770.419599 kJ/mol
# GULP energy per Si atom -5578.550408 kJ/mol
# Density = 3.206794 g / cm^3
# Si number density = 32.141091 Si / 1000 Ang^3
#
#
#
# Elastic Constant Matrix: (Units=GPa)
#
#
# Indices 1 2 3 4 5 6 
#
# 1 235.5796 126.4217 101.0618 0.0000 0.0000 0.0000
# 2 126.4217 351.8862 75.0952 0.0000 0.0000 0.0000
# 3 101.0618 75.0952 206.5182 0.0000 0.0000 0.0000
# 4 0.0000 0.0000 0.0000 82.4957 0.0000 0.0000
# 5 0.0000 0.0000 0.0000 0.0000 55.2537 0.0000
# 6 0.0000 0.0000 0.0000 0.0000 0.0000 82.1918
#
#
#
# Elastic Compliance Matrix: (Units=1/GPa)
#
#
# Indices 1 2 3 4 5 6 
#
# 1 0.006198 -0.001712 -0.002410 0.000000 0.000000 0.000000
# 2 -0.001712 0.003554 -0.000454 0.000000 0.000000 0.000000
# 3 -0.002410 -0.000454 0.006187 0.000000 0.000000 0.000000
# 4 0.000000 0.000000 0.000000 0.012122 0.000000 0.000000
# 5 0.000000 0.000000 0.000000 0.000000 0.018098 0.000000
# 6 0.000000 0.000000 0.000000 0.000000 0.000000 0.012167
#
#
# Mechanical properties :
#
#
# Convention : Reuss Voigt Hill
#
# Bulk Modulus (GPa) = 147.39069 155.46014 151.42541
# Shear Modulus (GPa) = 71.69390 76.74859 74.22124
#
# Velocity S-wave (km/s) = 4.72805 4.89188 4.81066
# Velocity P-wave (km/s) = 8.70419 8.96551 8.83581
#
# Compressibility (1/GPa) = 0.00678469
#
# Stress axis : x y z
#
# Youngs Moduli (GPa) = 161.34953 281.37583 161.63134
#
# Poissons Ratio (x) = 0.48179 0.38958
# Poissons Ratio (y) = 0.27627 0.07344
# Poissons Ratio (z) = 0.38890 0.12785
#
# Static dielectric constant tensor:
#      x y z
#    x 3.074730 0.000000 0.000000 
#    y 0.000000 -38.172840 0.000000 
#    z 0.000000 0.000000 2.368280 
# 
# From -- ./inp_files/11761.got.cif
#   From: 2010.05.17/outbox.cif.g08.bks.cpg/sg56_6_cif.got.tgz:11761.got - 2010.06.03 13:42:01.
