data_PCOD9432418
_publ_section_title
;
Structure prediction by ZEFSAII (Michael W. Deem and Ramdas Pophale) SiO2 
 PCOD9432418
Probable space group: P C C N
;
_chemical_formula_sum "Si O2"
_cell_formula_units_Z 48
_cell_length_a 14.839516
_cell_length_b 5.013323
_cell_length_c 27.837761
_cell_angle_alpha 90.000000
_cell_angle_beta 90.000000
_cell_angle_gamma 90.000000
_cell_volume 2070.998215
_symmetry_space_group_name_H-M "P C C N"
_symmetry_group_IT_number 56
_symmetry_cell_setting 'orthorhombic'
loop_
_space_group_symop_operation_xyz
x,y,z
1/2-x,1/2-y,z
1/2+x,-y,1/2-z
-x,1/2+y,1/2-z
-x,-y,-z
1/2+x,1/2+y,-z
1/2-x,y,1/2+z
x,1/2-y,1/2+z
loop_
_atom_site_type_symbol
_atom_site_label
_atom_site_fract_x
_atom_site_fract_y
_atom_site_fract_z
Si Si1 0.859909 0.764475 0.377379
Si Si2 0.020179 0.106182 0.893141
Si Si3 0.946690 0.111712 0.545950
Si Si4 0.813883 0.006558 0.286259
Si Si5 0.184735 0.992403 0.822673
Si Si6 0.308168 0.507962 0.528094
O O1 0.750000 0.750000 0.376435
O O2 0.873148 0.911851 0.428458
O O3 0.920136 0.496271 0.377131
O O4 0.881693 0.929726 0.329020
O O5 0.034924 0.913586 0.939065
O O6 0.096377 0.027868 0.854785
O O7 0.041105 0.406075 0.910055
O O8 0.848532 0.103924 0.521882
O O9 0.000000 0.000000 0.500000
O O10 0.750000 0.250000 0.301562
O O11 0.847454 0.062182 0.232480
O O12 0.750000 0.750000 0.279969
O O13 0.250000 0.750000 0.837372
O O14 0.250000 0.250000 0.824681
O O15 0.250000 0.250000 0.517422
O O16 0.250000 0.750000 0.548789
#
# Coordination Sequence:
#
# PCOD9432418 Si02
#       6
#     8   8   8   8   8   8
#     4  10  23  41  66  94 133 168 219 266 331 398
#     4  12  26  42  69  98 129 178 220 275 336 396
#     4  12  26  43  63  90 133 168 218 272 337 387
#     4   9  19  39  66  93 129 174 211 269 335 391
#     4  10  22  44  69  97 134 174 224 280 336 404
#     4  11  24  40  65  92 122 168 218 267 323 394
#
# _framework density 23.177230999999999
#
# number of rings (size 3 to 8) (size 9 to 14) (size 15 to 20)
#    0.000    1.333    1.667    3.000    4.667    6.667 
#    0.000   10.000    0.000    0.000    0.000    0.000 
#    0.000    0.000    0.000    0.000    0.000    0.000 
#
# Total GULP energy -267949.329955 kJ/mol
# GULP energy per Si atom -5582.277707 kJ/mol
# Density = 2.312448 g / cm^3
# Si number density = 23.177231 Si / 1000 Ang^3
#
#
#
# Elastic Constant Matrix: (Units=GPa)
#
#
# Indices 1 2 3 4 5 6 
#
# 1 85.8357 7.5309 35.0451 0.0000 0.0000 0.0000
# 2 7.5309 82.8371 -23.6142 0.0000 0.0000 0.0000
# 3 35.0451 -23.6142 74.7037 0.0000 0.0000 0.0000
# 4 0.0000 0.0000 0.0000 35.2467 0.0000 0.0000
# 5 0.0000 0.0000 0.0000 0.0000 42.6382 0.0000
# 6 0.0000 0.0000 0.0000 0.0000 0.0000 36.2662
#
#
#
# Elastic Compliance Matrix: (Units=1/GPa)
#
#
# Indices 1 2 3 4 5 6 
#
# 1 0.015432 -0.003810 -0.008444 0.000000 0.000000 0.000000
# 2 -0.003810 0.014208 0.006279 0.000000 0.000000 0.000000
# 3 -0.008444 0.006279 0.019332 0.000000 0.000000 0.000000
# 4 0.000000 0.000000 0.000000 0.028371 0.000000 0.000000
# 5 0.000000 0.000000 0.000000 0.000000 0.023453 0.000000
# 6 0.000000 0.000000 0.000000 0.000000 0.000000 0.027574
#
#
# Mechanical properties :
#
#
# Convention : Reuss Voigt Hill
#
# Bulk Modulus (GPa) = 27.01121 31.25556 29.13338
# Shear Modulus (GPa) = 32.75223 37.79121 35.27172
#
# Velocity S-wave (km/s) = 3.76323 4.04237 3.90529
# Velocity P-wave (km/s) = 5.52829 5.94158 5.73866
#
# Compressibility (1/GPa) = 0.03702167
#
# Stress axis : x y z
#
# Youngs Moduli (GPa) = 64.80096 70.38246 51.72755
#
# Poissons Ratio (x) = 0.26816 0.43678
# Poissons Ratio (y) = 0.24689 -0.32478
# Poissons Ratio (z) = 0.54716 -0.44190
#
# Static dielectric constant tensor:
#      x y z
#    x 1.991320 0.000000 0.000000 
#    y 0.000000 1.850070 0.000000 
#    z 0.000000 0.000000 1.941200 
# 
# From -- ./inp_files/23572.got.cif
#   From: 2010.05.17/outbox.cif.g08.bks.cpg/sg56_12_cif.got.tgz:23572.got - 2010.06.03 13:42:01.
