data_PCOD9432661
_publ_section_title
;
Structure prediction by ZEFSAII (Michael W. Deem and Ramdas Pophale) SiO2 
 PCOD9432661
Probable space group: P C C N
;
_chemical_formula_sum "Si O2"
_cell_formula_units_Z 36
_cell_length_a 20.506229
_cell_length_b 5.135448
_cell_length_c 13.287404
_cell_angle_alpha 90.000000
_cell_angle_beta 90.000000
_cell_angle_gamma 90.000000
_cell_volume 1399.278879
_symmetry_space_group_name_H-M "P C C N"
_symmetry_group_IT_number 56
_symmetry_cell_setting 'orthorhombic'
loop_
_space_group_symop_operation_xyz
x,y,z
1/2-x,1/2-y,z
1/2+x,-y,1/2-z
-x,1/2+y,1/2-z
-x,-y,-z
1/2+x,1/2+y,-z
1/2-x,y,1/2+z
x,1/2-y,1/2+z
loop_
_atom_site_type_symbol
_atom_site_label
_atom_site_fract_x
_atom_site_fract_y
_atom_site_fract_z
Si Si1 0.944416 0.512183 0.147171
Si Si2 0.366535 0.622067 0.956120
Si Si3 0.292362 0.505149 0.776859
Si Si4 0.037037 0.488851 0.631090
Si Si5 0.750000 0.250000 0.915681
O O1 0.922602 0.501922 0.264218
O O2 0.987279 0.768377 0.131667
O O3 0.887604 0.419687 0.071563
O O4 0.996118 0.275474 0.133814
O O5 0.418627 0.510999 0.033678
O O6 0.298966 0.593390 0.014873
O O7 0.356084 0.493535 0.846070
O O8 0.250000 0.750000 0.815879
O O9 0.295631 0.576853 0.658721
O O10 0.250000 0.250000 0.787414
#
# Coordination Sequence:
#
# PCOD9432661 Si02
#       5
#     8   8   8   8   4
#     4  10  23  44  65 103 135 175 222 284 338 406
#     4  12  22  44  73  99 132 182 234 272 342 413
#     4  10  25  47  62  96 139 176 225 279 336 400
#     4  10  23  43  67  98 140 173 223 280 345 397
#     4  10  24  48  64 102 138 178 230 282 348 392
#
# _framework density 25.727536000000001
#
# number of rings (size 3 to 8) (size 9 to 14) (size 15 to 20)
#    0.667    0.889    1.111    2.667    0.000    4.444 
#   16.000    0.000    0.000    0.000    0.000    0.000 
#    0.000    0.000    0.000    0.000    0.000    0.000 
#
# Total GULP energy -201528.133564 kJ/mol
# GULP energy per Si atom -5598.003710 kJ/mol
# Density = 2.566898 g / cm^3
# Si number density = 25.727536 Si / 1000 Ang^3
#
#
#
# Elastic Constant Matrix: (Units=GPa)
#
#
# Indices 1 2 3 4 5 6 
#
# 1 54.2861 4.2398 46.1982 0.0000 0.0000 0.0000
# 2 4.2398 120.5420 11.6454 0.0000 0.0000 0.0000
# 3 46.1982 11.6454 171.8524 0.0000 0.0000 0.0000
# 4 0.0000 0.0000 0.0000 -14.5143 0.0000 0.0000
# 5 0.0000 0.0000 0.0000 0.0000 18.3637 0.0000
# 6 0.0000 0.0000 0.0000 0.0000 0.0000 18.3877
#
#
#
# Elastic Compliance Matrix: (Units=1/GPa)
#
#
# Indices 1 2 3 4 5 6 
#
# 1 0.023891 -0.000221 -0.006408 0.000000 0.000000 0.000000
# 2 -0.000221 0.008353 -0.000507 0.000000 0.000000 0.000000
# 3 -0.006408 -0.000507 0.007576 0.000000 0.000000 0.000000
# 4 0.000000 0.000000 0.000000 -0.068898 0.000000 0.000000
# 5 0.000000 0.000000 0.000000 0.000000 0.054455 0.000000
# 6 0.000000 0.000000 0.000000 0.000000 0.000000 0.054384
#
#
# Mechanical properties :
#
#
# Convention : Reuss Voigt Hill
#
# Bulk Modulus (GPa) = 39.14079 52.31636 45.72857
# Shear Modulus (GPa) = 48.75772 23.42058 36.08915
#
# Velocity S-wave (km/s) = 4.35806 3.02044 3.74939
# Velocity P-wave (km/s) = 6.36948 5.70465 6.04621
#
# Compressibility (1/GPa) = 0.02554879
#
# Stress axis : x y z
#
# Youngs Moduli (GPa) = 41.85660 119.72345 131.99971
#
# Poissons Ratio (x) = 0.02649 0.84579
# Poissons Ratio (y) = 0.00926 0.06686
# Poissons Ratio (z) = 0.26820 0.06064
#
# Static dielectric constant tensor:
#      x y z
#    x 2.124190 0.000000 0.000000 
#    y 0.000000 2.022060 0.000000 
#    z 0.000000 0.000000 2.036400 
# 
# From -- ./inp_files/12940.got.cif
#   From: 2010.05.17/outbox.cif.g08.bks.cpg/sg56_7_cif.got.tgz:12940.got - 2010.06.03 13:42:01.
