data_PCOD9432843
_publ_section_title
;
Structure prediction by ZEFSAII (Michael W. Deem and Ramdas Pophale) SiO2 
 PCOD9432843
Probable space group: P C C N
;
_chemical_formula_sum "Si O2"
_cell_formula_units_Z 40
_cell_length_a 8.595771
_cell_length_b 15.607583
_cell_length_c 11.601874
_cell_angle_alpha 90.000000
_cell_angle_beta 90.000000
_cell_angle_gamma 90.000000
_cell_volume 1556.498243
_symmetry_space_group_name_H-M "P C C N"
_symmetry_group_IT_number 56
_symmetry_cell_setting 'orthorhombic'
loop_
_space_group_symop_operation_xyz
x,y,z
1/2-x,1/2-y,z
1/2+x,-y,1/2-z
-x,1/2+y,1/2-z
-x,-y,-z
1/2+x,1/2+y,-z
1/2-x,y,1/2+z
x,1/2-y,1/2+z
loop_
_atom_site_type_symbol
_atom_site_label
_atom_site_fract_x
_atom_site_fract_y
_atom_site_fract_z
Si Si1 0.989839 0.406106 0.149077
Si Si2 0.476475 0.058741 0.387134
Si Si3 0.825211 0.658520 0.053679
Si Si4 0.432555 0.725461 0.740502
Si Si5 0.314877 0.845887 0.457771
O O1 0.995909 0.470862 0.256031
O O2 0.117237 0.401413 0.050423
O O3 0.005948 0.312686 0.209792
O O4 0.824581 0.405987 0.084479
O O5 0.309590 0.103992 0.386987
O O6 0.607255 0.127711 0.423968
O O7 0.500000 0.000000 0.500000
O O8 0.750000 0.750000 0.016300
O O9 0.969709 0.685172 0.136119
O O10 0.250000 0.750000 0.723571
O O11 0.432825 0.660821 0.850281
O O12 0.250000 0.750000 0.468774
#
# Coordination Sequence:
#
# PCOD9432843 Si02
#       5
#     8   8   8   8   8
#     4  10  24  40  67  98 132 183 233 285 358 411
#     4  12  28  45  66 104 151 182 232 297 361 429
#     4  12  24  39  73 103 142 176 245 296 351 411
#     4   9  21  39  71 107 134 176 238 299 350 415
#     4   9  22  43  72  94 135 182 244 286 344 425
#
# _framework density 25.698713000000001
#
# number of rings (size 3 to 8) (size 9 to 14) (size 15 to 20)
#    0.000    2.000    2.000    2.400   11.200    3.200 
#    0.000    1.000    0.000    0.000    0.000    0.000 
#    0.000    0.000    0.000    0.000    0.000    0.000 
#
# Total GULP energy -223710.750895 kJ/mol
# GULP energy per Si atom -5592.768772 kJ/mol
# Density = 2.564022 g / cm^3
# Si number density = 25.698713 Si / 1000 Ang^3
#
#
#
# Elastic Constant Matrix: (Units=GPa)
#
#
# Indices 1 2 3 4 5 6 
#
# 1 91.8091 -2.5847 46.8590 0.0000 0.0000 0.0000
# 2 -2.5847 44.6825 -13.1242 0.0000 0.0000 0.0000
# 3 46.8590 -13.1242 131.9864 0.0000 0.0000 0.0000
# 4 0.0000 0.0000 0.0000 21.6575 0.0000 0.0000
# 5 0.0000 0.0000 0.0000 0.0000 -1.0904 0.0000
# 6 0.0000 0.0000 0.0000 0.0000 0.0000 2.8642
#
#
#
# Elastic Compliance Matrix: (Units=1/GPa)
#
#
# Indices 1 2 3 4 5 6 
#
# 1 0.013320 -0.000637 -0.004792 0.000000 0.000000 0.000000
# 2 -0.000637 0.023084 0.002522 0.000000 0.000000 0.000000
# 3 -0.004792 0.002522 0.009529 0.000000 0.000000 0.000000
# 4 0.000000 0.000000 0.000000 0.046173 0.000000 0.000000
# 5 0.000000 0.000000 0.000000 0.000000 -0.917057 0.000000
# 6 0.000000 0.000000 0.000000 0.000000 0.000000 0.349140
#
#
# Mechanical properties :
#
#
# Convention : Reuss Voigt Hill
#
# Bulk Modulus (GPa) = 24.92711 36.75313 30.84012
# Shear Modulus (GPa) = -10.94995 20.50810 4.77907
#
# Velocity S-wave (km/s) = -2.06643 2.82799 1.36517
# Velocity P-wave (km/s) = 2.00681 4.99960 3.80941
#
# Compressibility (1/GPa) = 0.04011696
#
# Stress axis : x y z
#
# Youngs Moduli (GPa) = 75.07353 43.32018 104.94579
#
# Poissons Ratio (x) = 0.02760 0.50295
# Poissons Ratio (y) = 0.04783 -0.26463
# Poissons Ratio (z) = 0.35979 -0.10923
#
# Static dielectric constant tensor:
#      x y z
#    x 2.023200 0.000000 0.000000 
#    y 0.000000 2.234760 0.000000 
#    z 0.000000 0.000000 2.062260 
# 
# From -- ./inp_files/6301.got.cif
#   From: 2010.05.17/outbox.cif.g08.bks.cpg/sg56_4_cif.got.tgz:6301.got - 2010.06.03 13:42:01.
