data_PCOD9432406
_publ_section_title
;
Structure prediction by ZEFSAII (Michael W. Deem and Ramdas Pophale) SiO2 
 PCOD9432406
Probable space group: P C C N
;
_chemical_formula_sum "Si O2"
_cell_formula_units_Z 48
_cell_length_a 8.321864
_cell_length_b 10.281084
_cell_length_c 28.302457
_cell_angle_alpha 90.000000
_cell_angle_beta 90.000000
_cell_angle_gamma 90.000000
_cell_volume 2421.495469
_symmetry_space_group_name_H-M "P C C N"
_symmetry_group_IT_number 56
_symmetry_cell_setting 'orthorhombic'
loop_
_space_group_symop_operation_xyz
x,y,z
1/2-x,1/2-y,z
1/2+x,-y,1/2-z
-x,1/2+y,1/2-z
-x,-y,-z
1/2+x,1/2+y,-z
1/2-x,y,1/2+z
x,1/2-y,1/2+z
loop_
_atom_site_type_symbol
_atom_site_label
_atom_site_fract_x
_atom_site_fract_y
_atom_site_fract_z
Si Si1 0.111921 0.358446 0.449192
Si Si2 0.940068 0.485354 0.708308
Si Si3 0.898665 0.154912 0.042869
Si Si4 0.563478 0.284040 0.854020
Si Si5 0.445477 0.750511 0.857775
Si Si6 0.437423 0.020622 0.813562
O O1 0.250000 0.250000 0.447842
O O2 0.166750 0.509052 0.447573
O O3 0.012336 0.344871 0.497520
O O4 0.999823 0.337610 0.403721
O O5 0.995681 0.354988 0.681204
O O6 0.751355 0.504006 0.697544
O O7 0.030764 0.608365 0.686002
O O8 0.971336 0.474402 0.763696
O O9 0.750000 0.250000 0.034331
O O10 0.990580 0.203898 0.089881
O O11 0.750000 0.250000 0.856187
O O12 0.467418 0.153312 0.841231
O O13 0.250000 0.750000 0.858284
O O14 0.494621 0.895103 0.843133
#
# Coordination Sequence:
#
# PCOD9432406 Si02
#       6
#     8   8   8   8   8   8
#     4  11  24  43  68  97 127 166 211 264 323 387
#     4  11  21  41  64  94 130 166 214 264 323 383
#     4  10  22  44  67  95 129 164 207 263 319 390
#     4  12  25  42  62  93 129 173 219 267 314 376
#     4   9  20  39  63  90 122 165 205 257 317 378
#     4  11  23  39  66  95 127 170 213 265 324 387
#
# _framework density 19.82246
#
# number of rings (size 3 to 8) (size 9 to 14) (size 15 to 20)
#    0.000    1.333    1.667    4.000    4.667    2.000 
#    6.000    2.500    0.000    0.000    0.000    0.000 
#    0.000    0.000    0.000    0.000    0.000    0.000 
#
# Total GULP energy -268421.716406 kJ/mol
# GULP energy per Si atom -5592.119092 kJ/mol
# Density = 1.977734 g / cm^3
# Si number density = 19.822460 Si / 1000 Ang^3
#
#
#
# Elastic Constant Matrix: (Units=GPa)
#
#
# Indices 1 2 3 4 5 6 
#
# 1 51.7310 19.5671 -1.0931 0.0000 0.0000 0.0000
# 2 19.5671 145.0765 43.8226 0.0000 0.0000 0.0000
# 3 -1.0931 43.8226 108.2882 0.0000 0.0000 0.0000
# 4 0.0000 0.0000 0.0000 30.8791 0.0000 0.0000
# 5 0.0000 0.0000 0.0000 0.0000 19.3573 0.0000
# 6 0.0000 0.0000 0.0000 0.0000 0.0000 17.9244
#
#
#
# Elastic Compliance Matrix: (Units=1/GPa)
#
#
# Indices 1 2 3 4 5 6 
#
# 1 0.020586 -0.003235 0.001517 0.000000 0.000000 0.000000
# 2 -0.003235 0.008361 -0.003416 0.000000 0.000000 0.000000
# 3 0.001517 -0.003416 0.010632 0.000000 0.000000 0.000000
# 4 0.000000 0.000000 0.000000 0.032384 0.000000 0.000000
# 5 0.000000 0.000000 0.000000 0.000000 0.051660 0.000000
# 6 0.000000 0.000000 0.000000 0.000000 0.000000 0.055790
#
#
# Mechanical properties :
#
#
# Convention : Reuss Voigt Hill
#
# Bulk Modulus (GPa) = 34.11620 47.74322 40.92971
# Shear Modulus (GPa) = 25.06854 29.81876 27.44365
#
# Velocity S-wave (km/s) = 3.56005 3.88273 3.72489
# Velocity P-wave (km/s) = 5.84353 6.65120 6.26041
#
# Compressibility (1/GPa) = 0.02931159
#
# Stress axis : x y z
#
# Youngs Moduli (GPa) = 48.57586 119.60081 94.05171
#
# Poissons Ratio (x) = 0.38688 -0.14267
# Poissons Ratio (y) = 0.15713 0.32131
# Poissons Ratio (z) = -0.07368 0.40859
#
# Static dielectric constant tensor:
#      x y z
#    x 1.758760 0.000000 0.000000 
#    y 0.000000 1.691060 0.000000 
#    z 0.000000 0.000000 1.678420 
# 
# From -- ./inp_files/23212.got.cif
#   From: 2010.05.17/outbox.cif.g08.bks.cpg/sg56_12_cif.got.tgz:23212.got - 2010.06.03 13:42:01.
