data_PCOD9432857
_publ_section_title
;
Structure prediction by ZEFSAII (Michael W. Deem and Ramdas Pophale) SiO2 
 PCOD9432857
Probable space group: P C C N
;
_chemical_formula_sum "Si O2"
_cell_formula_units_Z 32
_cell_length_a 5.650042
_cell_length_b 7.879104
_cell_length_c 28.311182
_cell_angle_alpha 90.000000
_cell_angle_beta 90.000000
_cell_angle_gamma 90.000000
_cell_volume 1260.336491
_symmetry_space_group_name_H-M "P C C N"
_symmetry_group_IT_number 56
_symmetry_cell_setting 'orthorhombic'
loop_
_space_group_symop_operation_xyz
x,y,z
1/2-x,1/2-y,z
1/2+x,-y,1/2-z
-x,1/2+y,1/2-z
-x,-y,-z
1/2+x,1/2+y,-z
1/2-x,y,1/2+z
x,1/2-y,1/2+z
loop_
_atom_site_type_symbol
_atom_site_label
_atom_site_fract_x
_atom_site_fract_y
_atom_site_fract_z
Si Si1 0.750000 0.250000 0.352852
Si Si2 0.261294 0.045067 0.224242
Si Si3 0.028087 0.344863 0.935738
Si Si4 0.988067 0.214359 0.605730
Si Si5 0.750000 0.250000 0.017751
O O1 0.725872 0.416805 0.320712
O O2 0.543480 0.223194 0.391576
O O3 0.250000 0.250000 0.218816
O O4 0.510535 0.006528 0.251155
O O5 0.250000 0.250000 0.957418
O O6 0.044250 0.521777 0.909776
O O7 0.849074 0.377522 0.978930
O O8 0.750000 0.250000 0.636177
O O9 0.945548 0.311141 0.555446
O O10 0.250000 0.250000 0.622406
#
# Coordination Sequence:
#
# PCOD9432857 Si02
#       5
#     4   8   8   8   4
#     4  11  28  44  74 109 152 188 238 299 372 438
#     4  12  25  50  83 113 145 187 240 295 361 451
#     4  11  25  43  66 100 149 187 237 307 368 419
#     4  10  24  41  68  96 136 187 255 297 359 425
#     4   9  22  38  72  93 138 188 260 293 364 414
#
# _framework density 25.390044
#
# number of rings (size 3 to 8) (size 9 to 14) (size 15 to 20)
#    0.750    0.500    2.500    1.500   10.500    3.000 
#    0.000    0.000    0.000    0.000    0.000    0.000 
#    0.000    0.000    0.000    0.000    0.000    0.000 
#
# Total GULP energy -178174.290900 kJ/mol
# GULP energy per Si atom -5567.946591 kJ/mol
# Density = 2.533226 g / cm^3
# Si number density = 25.390044 Si / 1000 Ang^3
#
#
#
# Elastic Constant Matrix: (Units=GPa)
#
#
# Indices 1 2 3 4 5 6 
#
# 1 177.3813 50.8475 54.1991 0.0000 0.0000 0.0000
# 2 50.8475 142.3709 42.7181 0.0000 0.0000 0.0000
# 3 54.1991 42.7181 137.2539 0.0000 0.0000 0.0000
# 4 0.0000 0.0000 0.0000 -18.8042 0.0000 0.0000
# 5 0.0000 0.0000 0.0000 0.0000 -19.9026 0.0000
# 6 0.0000 0.0000 0.0000 0.0000 0.0000 42.9507
#
#
#
# Elastic Compliance Matrix: (Units=1/GPa)
#
#
# Indices 1 2 3 4 5 6 
#
# 1 0.006801 -0.001790 -0.002128 0.000000 0.000000 0.000000
# 2 -0.001790 0.008219 -0.001851 0.000000 0.000000 0.000000
# 3 -0.002128 -0.001851 0.008702 0.000000 0.000000 0.000000
# 4 0.000000 0.000000 0.000000 -0.053180 0.000000 0.000000
# 5 0.000000 0.000000 0.000000 0.000000 -0.050245 0.000000
# 6 0.000000 0.000000 0.000000 0.000000 0.000000 0.023283
#
#
# Mechanical properties :
#
#
# Convention : Reuss Voigt Hill
#
# Bulk Modulus (GPa) = 82.08388 83.61505 82.84946
# Shear Modulus (GPa) = -122.49137 21.46488 -50.51325
#
# Velocity S-wave (km/s) = -6.95332 2.91074 -4.46521
# Velocity P-wave (km/s) = 5.66264 6.65584 2.47334
#
# Compressibility (1/GPa) = 0.01218266
#
# Stress axis : x y z
#
# Youngs Moduli (GPa) = 147.03422 121.67347 114.91190
#
# Poissons Ratio (x) = 0.21784 0.24458
# Poissons Ratio (y) = 0.26325 0.21270
# Poissons Ratio (z) = 0.31295 0.22521
#
# Static dielectric constant tensor:
#      x y z
#    x 4.894590 0.000000 0.000000 
#    y 0.000000 2.268580 0.000000 
#    z 0.000000 0.000000 1.955220 
# 
# From -- ./inp_files/22690.got.cif
#   From: 2010.05.17/outbox.cif.g08.bks.cpg/sg56_12_cif.got.tgz:22690.got - 2010.06.03 13:42:01.
