data_PCOD9432325
_publ_section_title
;
Structure prediction by ZEFSAII (Michael W. Deem and Ramdas Pophale) SiO2 
 PCOD9432325
Probable space group: P C C N
;
_chemical_formula_sum "Si O2"
_cell_formula_units_Z 40
_cell_length_a 11.441143
_cell_length_b 15.642821
_cell_length_c 9.630067
_cell_angle_alpha 90.000000
_cell_angle_beta 90.000000
_cell_angle_gamma 90.000000
_cell_volume 1723.509963
_symmetry_space_group_name_H-M "P C C N"
_symmetry_group_IT_number 56
_symmetry_cell_setting 'orthorhombic'
loop_
_space_group_symop_operation_xyz
x,y,z
1/2-x,1/2-y,z
1/2+x,-y,1/2-z
-x,1/2+y,1/2-z
-x,-y,-z
1/2+x,1/2+y,-z
1/2-x,y,1/2+z
x,1/2-y,1/2+z
loop_
_atom_site_type_symbol
_atom_site_label
_atom_site_fract_x
_atom_site_fract_y
_atom_site_fract_z
Si Si1 0.839420 0.579897 0.844043
Si Si2 0.738468 0.023342 0.090751
Si Si3 0.250000 0.250000 0.515093
Si Si4 0.420429 0.835501 0.795749
Si Si5 0.500000 0.500000 0.000000
Si Si6 0.995334 0.696363 0.513500
O O1 0.764318 0.534971 0.724858
O O2 0.782119 0.668467 0.891408
O O3 0.970565 0.596772 0.787508
O O4 0.847090 0.520918 0.980482
O O5 0.688309 0.113055 0.143637
O O6 0.861740 0.025881 0.013421
O O7 0.369035 0.231066 0.432429
O O8 0.412830 0.803181 0.639196
O O9 0.460234 0.758946 0.894310
O O10 0.531765 0.600748 0.964505
#
# Coordination Sequence:
#
# PCOD9432325 Si02
#       6
#     8   8   4   8   4   8
#     4  11  23  43  74 112 154 196 258 321 384 465
#     4  12  26  46  75 111 155 201 260 312 401 469
#     4  10  22  42  74 120 152 204 258 326 378 476
#     4  11  26  47  74 114 151 207 259 327 389 471
#     4  12  24  50  74 106 154 206 250 324 388 476
#     4  11  25  48  76 114 156 208 262 322 401 462
#
# _framework density 23.208452999999999
#
# number of rings (size 3 to 8) (size 9 to 14) (size 15 to 20)
#    0.000    0.800    4.000    1.800    0.000   12.800 
#    0.000    2.000    0.000    0.000    0.000    0.000 
#    0.000    0.000    0.000    0.000    0.000    0.000 
#
# Total GULP energy -222850.535564 kJ/mol
# GULP energy per Si atom -5571.263389 kJ/mol
# Density = 2.315563 g / cm^3
# Si number density = 23.208453 Si / 1000 Ang^3
#
#
#
# Elastic Constant Matrix: (Units=GPa)
#
#
# Indices 1 2 3 4 5 6 
#
# 1 64.1613 13.2127 -27.4461 0.0000 0.0000 0.0000
# 2 13.2127 83.1402 -4.0766 0.0000 0.0000 0.0000
# 3 -27.4461 -4.0766 50.0352 0.0000 0.0000 0.0000
# 4 0.0000 0.0000 0.0000 20.3816 0.0000 0.0000
# 5 0.0000 0.0000 0.0000 0.0000 1.3931 0.0000
# 6 0.0000 0.0000 0.0000 0.0000 0.0000 45.1415
#
#
#
# Elastic Compliance Matrix: (Units=1/GPa)
#
#
# Indices 1 2 3 4 5 6 
#
# 1 0.020986 -0.002782 0.011285 0.000000 0.000000 0.000000
# 2 -0.002782 0.012445 -0.000512 0.000000 0.000000 0.000000
# 3 0.011285 -0.000512 0.026134 0.000000 0.000000 0.000000
# 4 0.000000 0.000000 0.000000 0.049064 0.000000 0.000000
# 5 0.000000 0.000000 0.000000 0.000000 0.717817 0.000000
# 6 0.000000 0.000000 0.000000 0.000000 0.000000 0.022153
#
#
# Mechanical properties :
#
#
# Convention : Reuss Voigt Hill
#
# Bulk Modulus (GPa) = 13.23673 17.85741 15.54707
# Shear Modulus (GPa) = 5.82887 27.75971 16.79429
#
# Velocity S-wave (km/s) = 1.58650 3.46222 2.69295
# Velocity P-wave (km/s) = 3.01194 4.86762 4.04756
#
# Compressibility (1/GPa) = 0.07554734
#
# Stress axis : x y z
#
# Youngs Moduli (GPa) = 47.65115 80.35452 38.26381
#
# Poissons Ratio (x) = 0.22353 -0.43180
# Poissons Ratio (y) = 0.13255 0.01959
# Poissons Ratio (z) = -0.53774 0.04114
#
# Static dielectric constant tensor:
#      x y z
#    x 1.904300 0.000000 0.000000 
#    y 0.000000 1.867240 0.000000 
#    z 0.000000 0.000000 1.887620 
# 
# From -- ./inp_files/2624.got.cif
#   From: 2010.05.17/outbox.cif.g08.bks.cpg/sg56_2_cif.got.tgz:2624.got - 2010.06.03 13:42:01.
