data_PCOD9432284
_publ_section_title
;
Structure prediction by ZEFSAII (Michael W. Deem and Ramdas Pophale) SiO2 
 PCOD9432284
Probable space group: P C C N
;
_chemical_formula_sum "Si O2"
_cell_formula_units_Z 60
_cell_length_a 8.820636
_cell_length_b 25.478654
_cell_length_c 12.006001
_cell_angle_alpha 90.000000
_cell_angle_beta 90.000000
_cell_angle_gamma 90.000000
_cell_volume 2698.203845
_symmetry_space_group_name_H-M "P C C N"
_symmetry_group_IT_number 56
_symmetry_cell_setting 'orthorhombic'
loop_
_space_group_symop_operation_xyz
x,y,z
1/2-x,1/2-y,z
1/2+x,-y,1/2-z
-x,1/2+y,1/2-z
-x,-y,-z
1/2+x,1/2+y,-z
1/2-x,y,1/2+z
x,1/2-y,1/2+z
loop_
_atom_site_type_symbol
_atom_site_label
_atom_site_fract_x
_atom_site_fract_y
_atom_site_fract_z
Si Si1 0.027211 0.078862 0.237503
Si Si2 0.722203 0.392900 0.806871
Si Si3 0.514127 0.836777 0.849147
Si Si4 0.268984 0.809280 0.031072
Si Si5 0.065351 0.343305 0.538409
Si Si6 0.250000 0.250000 0.628382
Si Si7 0.647336 0.004020 0.424181
Si Si8 0.179472 0.412594 0.975001
O O1 0.844766 0.077892 0.229519
O O2 0.073166 0.126392 0.156437
O O3 0.103423 0.026782 0.188341
O O4 0.084553 0.085640 0.362649
O O5 0.578958 0.367697 0.745134
O O6 0.682382 0.436271 0.898176
O O7 0.812935 0.345480 0.865216
O O8 0.387086 0.811529 0.930169
O O9 0.632518 0.790887 0.812168
O O10 0.598202 0.879186 0.927825
O O11 0.250000 0.750000 0.068637
O O12 0.106701 0.832194 0.993499
O O13 0.148792 0.288094 0.552601
O O14 0.161783 0.381175 0.457559
O O15 0.780437 0.970616 0.481515
O O16 0.500000 0.000000 0.500000
#
# Coordination Sequence:
#
# PCOD9432284 Si02
#       8
#     8   8   8   8   8   4   8   8
#     4  11  24  44  71 104 142 191 244 294 373 443
#     4  12  27  43  73 106 142 192 246 293 369 444
#     4  11  24  46  71 107 149 186 249 298 367 428
#     4  12  24  44  71 102 143 194 239 306 363 430
#     4  10  22  42  68 101 143 184 238 305 354 427
#     4  10  22  42  70 100 138 196 226 302 354 420
#     4  11  28  45  71 104 149 186 236 311 368 431
#     4  10  24  45  73 102 141 187 239 301 366 442
#
# _framework density 22.237017000000002
#
# number of rings (size 3 to 8) (size 9 to 14) (size 15 to 20)
#    0.000    1.067    4.000    1.600    3.733    7.467 
#    0.000    3.333    0.000    0.000    0.000    0.000 
#    0.000    0.000    0.000    0.000    0.000    0.000 
#
# Total GULP energy -335420.035048 kJ/mol
# GULP energy per Si atom -5590.333917 kJ/mol
# Density = 2.218640 g / cm^3
# Si number density = 22.237017 Si / 1000 Ang^3
#
#
#
# Elastic Constant Matrix: (Units=GPa)
#
#
# Indices 1 2 3 4 5 6 
#
# 1 109.1761 30.5726 26.1452 0.0000 0.0000 0.0000
# 2 30.5726 136.5420 34.7243 0.0000 0.0000 0.0000
# 3 26.1452 34.7243 64.4061 0.0000 0.0000 0.0000
# 4 0.0000 0.0000 0.0000 22.0009 0.0000 0.0000
# 5 0.0000 0.0000 0.0000 0.0000 41.1748 0.0000
# 6 0.0000 0.0000 0.0000 0.0000 0.0000 21.3653
#
#
#
# Elastic Compliance Matrix: (Units=1/GPa)
#
#
# Indices 1 2 3 4 5 6 
#
# 1 0.010389 -0.001453 -0.003434 0.000000 0.000000 0.000000
# 2 -0.001453 0.008691 -0.004096 0.000000 0.000000 0.000000
# 3 -0.003434 -0.004096 0.019129 0.000000 0.000000 0.000000
# 4 0.000000 0.000000 0.000000 0.045453 0.000000 0.000000
# 5 0.000000 0.000000 0.000000 0.000000 0.024287 0.000000
# 6 0.000000 0.000000 0.000000 0.000000 0.000000 0.046805
#
#
# Mechanical properties :
#
#
# Convention : Reuss Voigt Hill
#
# Bulk Modulus (GPa) = 49.39982 54.77872 52.08927
# Shear Modulus (GPa) = 27.86061 31.48701 29.67381
#
# Velocity S-wave (km/s) = 3.54346 3.76702 3.65695
# Velocity P-wave (km/s) = 6.24539 6.60364 6.42701
#
# Compressibility (1/GPa) = 0.02024299
#
# Stress axis : x y z
#
# Youngs Moduli (GPa) = 96.25847 115.06621 52.27749
#
# Poissons Ratio (x) = 0.16717 0.17952
# Poissons Ratio (y) = 0.13984 0.21412
# Poissons Ratio (z) = 0.33055 0.47129
#
# Static dielectric constant tensor:
#      x y z
#    x 1.875810 0.000000 0.000000 
#    y 0.000000 1.862220 0.000000 
#    z 0.000000 0.000000 1.810480 
# 
# From -- ./inp_files/6545.got.cif
#   From: 2010.05.17/outbox.cif.g08.bks.cpg/sg56_4_cif.got.tgz:6545.got - 2010.06.03 13:42:01.
