data_PCOD9432279
_publ_section_title
;
Structure prediction by ZEFSAII (Michael W. Deem and Ramdas Pophale) SiO2 
 PCOD9432279
Probable space group: P C C N
;
_chemical_formula_sum "Si O2"
_cell_formula_units_Z 52
_cell_length_a 17.109128
_cell_length_b 7.280645
_cell_length_c 20.674993
_cell_angle_alpha 90.000000
_cell_angle_beta 90.000000
_cell_angle_gamma 90.000000
_cell_volume 2575.390576
_symmetry_space_group_name_H-M "P C C N"
_symmetry_group_IT_number 56
_symmetry_cell_setting 'orthorhombic'
loop_
_space_group_symop_operation_xyz
x,y,z
1/2-x,1/2-y,z
1/2+x,-y,1/2-z
-x,1/2+y,1/2-z
-x,-y,-z
1/2+x,1/2+y,-z
1/2-x,y,1/2+z
x,1/2-y,1/2+z
loop_
_atom_site_type_symbol
_atom_site_label
_atom_site_fract_x
_atom_site_fract_y
_atom_site_fract_z
Si Si1 0.546205 0.466342 0.107878
Si Si2 0.087508 0.246126 0.776886
Si Si3 0.250000 0.250000 0.205066
Si Si4 0.399403 0.992396 0.533230
Si Si5 0.029270 0.607731 0.832208
Si Si6 0.737736 0.029971 0.910417
Si Si7 0.934972 0.061762 0.447695
O O1 0.564392 0.609890 0.164281
O O2 0.455502 0.423635 0.088410
O O3 0.575623 0.265658 0.129219
O O4 0.578936 0.540951 0.040007
O O5 0.173418 0.220813 0.748290
O O6 0.082365 0.456446 0.798865
O O7 0.023705 0.208337 0.721187
O O8 0.250502 0.424557 0.156772
O O9 0.309638 0.030049 0.545162
O O10 0.419432 0.776658 0.541158
O O11 0.973838 0.490918 0.879736
O O12 0.750000 0.250000 0.901422
O O13 0.653738 0.985420 0.942543
O O14 0.000000 0.000000 0.500000
#
# Coordination Sequence:
#
# PCOD9432279 Si02
#       7
#     8   8   4   8   8   8   8
#     4  11  23  41  66  97 134 172 219 274 331 394
#     4  12  26  42  66  98 131 179 226 265 335 404
#     4  12  26  46  64  94 138 176 224 280 334 400
#     4  10  22  42  67  99 134 171 221 280 337 397
#     4  12  23  41  68  95 129 173 222 272 325 403
#     4  10  24  41  67  96 127 170 222 275 337 396
#     4  11  21  41  69  99 129 170 225 278 333 402
#
# _framework density 20.191112
#
# number of rings (size 3 to 8) (size 9 to 14) (size 15 to 20)
#    0.000    0.923    6.154    0.923    0.000    1.231 
#    2.769    0.000    0.000    0.000    0.000    0.000 
#    0.000    0.000    0.000    0.000    0.000    0.000 
#
# Total GULP energy -290312.298803 kJ/mol
# GULP energy per Si atom -5582.928823 kJ/mol
# Density = 2.014516 g / cm^3
# Si number density = 20.191112 Si / 1000 Ang^3
#
#
#
# Elastic Constant Matrix: (Units=GPa)
#
#
# Indices 1 2 3 4 5 6 
#
# 1 110.7090 11.9282 48.1302 0.0000 0.0000 0.0000
# 2 11.9282 60.6254 25.7299 0.0000 0.0000 0.0000
# 3 48.1302 25.7299 112.3048 0.0000 0.0000 0.0000
# 4 0.0000 0.0000 0.0000 35.0037 0.0000 0.0000
# 5 0.0000 0.0000 0.0000 0.0000 25.5219 0.0000
# 6 0.0000 0.0000 0.0000 0.0000 0.0000 19.5896
#
#
#
# Elastic Compliance Matrix: (Units=1/GPa)
#
#
# Indices 1 2 3 4 5 6 
#
# 1 0.011103 -0.000183 -0.004716 0.000000 0.000000 0.000000
# 2 -0.000183 0.018274 -0.004108 0.000000 0.000000 0.000000
# 3 -0.004716 -0.004108 0.011867 0.000000 0.000000 0.000000
# 4 0.000000 0.000000 0.000000 0.028568 0.000000 0.000000
# 5 0.000000 0.000000 0.000000 0.000000 0.039182 0.000000
# 6 0.000000 0.000000 0.000000 0.000000 0.000000 0.051047
#
#
# Mechanical properties :
#
#
# Convention : Reuss Voigt Hill
#
# Bulk Modulus (GPa) = 43.05012 50.57951 46.81482
# Shear Modulus (GPa) = 26.91060 29.21309 28.06185
#
# Velocity S-wave (km/s) = 3.65471 3.80785 3.73206
# Velocity P-wave (km/s) = 6.25914 6.66616 6.46585
#
# Compressibility (1/GPa) = 0.02322874
#
# Stress axis : x y z
#
# Youngs Moduli (GPa) = 90.06715 54.72143 84.26781
#
# Poissons Ratio (x) = 0.01000 0.39744
# Poissons Ratio (y) = 0.01647 0.34621
# Poissons Ratio (z) = 0.42480 0.22482
#
# Static dielectric constant tensor:
#      x y z
#    x 1.770140 0.000000 0.000000 
#    y 0.000000 1.767860 0.000000 
#    z 0.000000 0.000000 1.712830 
# 
# From -- ./inp_files/19051.got.cif
#   From: 2010.05.17/outbox.cif.g08.bks.cpg/sg56_10_cif.got.tgz:19051.got - 2010.06.03 13:42:01.
