data_PCOD9432125
_publ_section_title
;
Structure prediction by ZEFSAII (Michael W. Deem and Ramdas Pophale) SiO2 
 PCOD9432125
Probable space group: P C C N
;
_chemical_formula_sum "Si O2"
_cell_formula_units_Z 48
_cell_length_a 21.272342
_cell_length_b 5.104414
_cell_length_c 18.646917
_cell_angle_alpha 90.000000
_cell_angle_beta 90.000000
_cell_angle_gamma 90.000000
_cell_volume 2024.735211
_symmetry_space_group_name_H-M "P C C N"
_symmetry_group_IT_number 56
_symmetry_cell_setting 'orthorhombic'
loop_
_space_group_symop_operation_xyz
x,y,z
1/2-x,1/2-y,z
1/2+x,-y,1/2-z
-x,1/2+y,1/2-z
-x,-y,-z
1/2+x,1/2+y,-z
1/2-x,y,1/2+z
x,1/2-y,1/2+z
loop_
_atom_site_type_symbol
_atom_site_label
_atom_site_fract_x
_atom_site_fract_y
_atom_site_fract_z
Si Si1 0.337414 0.160779 0.299164
Si Si2 0.480411 0.359639 0.789838
Si Si3 0.559189 0.598797 0.915991
Si Si4 0.100836 0.599387 0.021960
Si Si5 0.685062 0.147260 0.110252
Si Si6 0.681916 0.650662 0.364280
O O1 0.410184 0.244111 0.295066
O O2 0.303384 0.410940 0.334428
O O3 0.314614 0.087066 0.219641
O O4 0.337689 0.902128 0.347480
O O5 0.480396 0.603337 0.733857
O O6 0.508330 0.488843 0.861403
O O7 0.572008 0.385114 0.976395
O O8 0.625351 0.638228 0.873113
O O9 0.551329 0.881282 0.951907
O O10 0.155314 0.572953 0.083119
O O11 0.134987 0.547874 0.947429
O O12 0.750000 0.250000 0.075211
O O13 0.750000 0.750000 0.388299
#
# Coordination Sequence:
#
# PCOD9432125 Si02
#       6
#     8   8   8   8   8   8
#     4  12  26  44  67 106 134 185 227 287 347 416
#     4  12  22  43  70  98 141 180 227 290 355 411
#     4  10  22  40  66  99 125 170 231 282 328 399
#     4  10  24  42  66  98 129 181 224 273 343 411
#     4  12  27  46  67  97 148 183 222 273 362 425
#     4  10  23  40  69  99 134 163 235 285 335 400
#
# _framework density 23.706803000000001
#
# number of rings (size 3 to 8) (size 9 to 14) (size 15 to 20)
#    1.000    0.000    1.667    5.500    4.667    0.000 
#    0.000    5.000    0.000    0.000    0.000    0.000 
#    0.000    0.000    0.000    0.000    0.000    0.000 
#
# Total GULP energy -268341.191153 kJ/mol
# GULP energy per Si atom -5590.441482 kJ/mol
# Density = 2.365285 g / cm^3
# Si number density = 23.706803 Si / 1000 Ang^3
#
#
#
# Elastic Constant Matrix: (Units=GPa)
#
#
# Indices 1 2 3 4 5 6 
#
# 1 63.2650 -6.1226 -7.5968 0.0000 0.0000 0.0000
# 2 -6.1226 90.9298 19.0146 0.0000 0.0000 0.0000
# 3 -7.5968 19.0146 84.5777 0.0000 0.0000 0.0000
# 4 0.0000 0.0000 0.0000 21.8889 0.0000 0.0000
# 5 0.0000 0.0000 0.0000 0.0000 31.5915 0.0000
# 6 0.0000 0.0000 0.0000 0.0000 0.0000 38.3462
#
#
#
# Elastic Compliance Matrix: (Units=1/GPa)
#
#
# Indices 1 2 3 4 5 6 
#
# 1 0.016037 0.000817 0.001257 0.000000 0.000000 0.000000
# 2 0.000817 0.011582 -0.002530 0.000000 0.000000 0.000000
# 3 0.001257 -0.002530 0.012505 0.000000 0.000000 0.000000
# 4 0.000000 0.000000 0.000000 0.045685 0.000000 0.000000
# 5 0.000000 0.000000 0.000000 0.000000 0.031654 0.000000
# 6 0.000000 0.000000 0.000000 0.000000 0.000000 0.026078
#
#
# Mechanical properties :
#
#
# Convention : Reuss Voigt Hill
#
# Bulk Modulus (GPa) = 25.50366 27.70697 26.60532
# Shear Modulus (GPa) = 31.74114 33.93047 32.83581
#
# Velocity S-wave (km/s) = 3.66307 3.78730 3.72570
# Velocity P-wave (km/s) = 5.35464 5.55316 5.45480
#
# Compressibility (1/GPa) = 0.03921005
#
# Stress axis : x y z
#
# Youngs Moduli (GPa) = 62.35774 86.34359 79.96668
#
# Poissons Ratio (x) = -0.07054 -0.10050
# Poissons Ratio (y) = -0.05095 0.20235
# Poissons Ratio (z) = -0.07837 0.21848
#
# Static dielectric constant tensor:
#      x y z
#    x 2.215840 0.000000 0.000000 
#    y 0.000000 1.828030 0.000000 
#    z 0.000000 0.000000 1.895630 
# 
# From -- ./inp_files/16931.got.cif
#   From: 2010.05.17/outbox.cif.g08.bks.cpg/sg56_9_cif.got.tgz:16931.got - 2010.06.03 13:42:01.
