data_PCOD9432595
_publ_section_title
;
Structure prediction by ZEFSAII (Michael W. Deem and Ramdas Pophale) SiO2 
 PCOD9432595
Probable space group: P C C N
;
_chemical_formula_sum "Si O2"
_cell_formula_units_Z 64
_cell_length_a 8.334267
_cell_length_b 29.279123
_cell_length_c 11.133426
_cell_angle_alpha 90.000000
_cell_angle_beta 90.000000
_cell_angle_gamma 90.000000
_cell_volume 2716.778931
_symmetry_space_group_name_H-M "P C C N"
_symmetry_group_IT_number 56
_symmetry_cell_setting 'orthorhombic'
loop_
_space_group_symop_operation_xyz
x,y,z
1/2-x,1/2-y,z
1/2+x,-y,1/2-z
-x,1/2+y,1/2-z
-x,-y,-z
1/2+x,1/2+y,-z
1/2-x,y,1/2+z
x,1/2-y,1/2+z
loop_
_atom_site_type_symbol
_atom_site_label
_atom_site_fract_x
_atom_site_fract_y
_atom_site_fract_z
Si Si1 0.036153 0.153986 0.471083
Si Si2 0.837047 0.011408 0.357549
Si Si3 0.733808 0.577556 0.949971
Si Si4 0.656448 0.375541 0.676827
Si Si5 0.996523 0.094696 0.260877
Si Si6 0.911399 0.279307 0.307950
Si Si7 0.485757 0.049955 0.332618
Si Si8 0.945980 0.251754 0.557262
O O1 0.177226 0.125292 0.531997
O O2 0.878611 0.134365 0.538172
O O3 0.039276 0.140148 0.333441
O O4 0.025784 0.206674 0.499820
O O5 0.844965 0.967757 0.444053
O O6 0.878884 0.989399 0.227909
O O7 0.951805 0.055270 0.356382
O O8 0.655794 0.028873 0.370916
O O9 0.636353 0.579303 0.826005
O O10 0.609928 0.571049 0.057982
O O11 0.833476 0.394942 0.690968
O O12 0.630823 0.328206 0.749101
O O13 0.534470 0.411919 0.734734
O O14 0.750000 0.250000 0.328594
O O15 0.978531 0.286140 0.444586
O O16 0.999138 0.251050 0.198493
O O17 0.750000 0.250000 0.570272
#
# Coordination Sequence:
#
# PCOD9432595 Si02
#       8
#     8   8   8   8   8   8   8   8
#     4  11  24  42  68 100 138 180 228 286 357 419
#     4  11  23  40  64  90 128 181 239 289 351 403
#     4  12  25  43  63  93 143 183 232 291 364 420
#     4  10  23  41  67  99 133 175 236 289 354 422
#     4  11  25  40  64  99 132 187 237 292 347 417
#     4   9  17  35  62 100 131 163 213 291 342 406
#     4  11  24  43  62  96 131 184 238 292 352 420
#     4   9  18  36  65 101 132 168 220 283 343 418
#
# _framework density 23.557309
#
# number of rings (size 3 to 8) (size 9 to 14) (size 15 to 20)
#    0.000    1.500    2.500    2.625    3.500    1.500 
#    2.250    0.000    0.000    0.750    3.250    0.000 
#    0.000    0.000    0.000    0.000    0.000    0.000 
#
# Total GULP energy -357253.279454 kJ/mol
# GULP energy per Si atom -5582.082491 kJ/mol
# Density = 2.350369 g / cm^3
# Si number density = 23.557309 Si / 1000 Ang^3
#
#
#
# Elastic Constant Matrix: (Units=GPa)
#
#
# Indices 1 2 3 4 5 6 
#
# 1 47.9476 11.6782 -3.7097 0.0000 0.0000 0.0000
# 2 11.6782 77.2414 -28.5871 0.0000 0.0000 0.0000
# 3 -3.7097 -28.5871 45.2213 0.0000 0.0000 0.0000
# 4 0.0000 0.0000 0.0000 30.3216 0.0000 0.0000
# 5 0.0000 0.0000 0.0000 0.0000 17.4450 0.0000
# 6 0.0000 0.0000 0.0000 0.0000 0.0000 27.3059
#
#
#
# Elastic Compliance Matrix: (Units=1/GPa)
#
#
# Indices 1 2 3 4 5 6 
#
# 1 0.021659 -0.003416 -0.000383 0.000000 0.000000 0.000000
# 2 -0.003416 0.017439 0.010744 0.000000 0.000000 0.000000
# 3 -0.000383 0.010744 0.028874 0.000000 0.000000 0.000000
# 4 0.000000 0.000000 0.000000 0.032980 0.000000 0.000000
# 5 0.000000 0.000000 0.000000 0.000000 0.057323 0.000000
# 6 0.000000 0.000000 0.000000 0.000000 0.000000 0.036622
#
#
# Mechanical properties :
#
#
# Convention : Reuss Voigt Hill
#
# Bulk Modulus (GPa) = 12.21565 14.35256 13.28410
# Shear Modulus (GPa) = 24.00448 27.74974 25.87711
#
# Velocity S-wave (km/s) = 3.19561 3.43588 3.31792
# Velocity P-wave (km/s) = 4.33736 4.67399 4.50882
#
# Compressibility (1/GPa) = 0.08186223
#
# Stress axis : x y z
#
# Youngs Moduli (GPa) = 46.17116 57.34151 34.63306
#
# Poissons Ratio (x) = 0.19589 0.01326
# Poissons Ratio (y) = 0.15773 -0.37211
# Poissons Ratio (z) = 0.01768 -0.61609
#
# Static dielectric constant tensor:
#      x y z
#    x 1.881050 0.000000 0.000000 
#    y 0.000000 1.901950 0.000000 
#    z 0.000000 0.000000 1.919550 
# 
# From -- ./inp_files/6628.got.cif
#   From: 2010.05.17/outbox.cif.g08.bks.cpg/sg56_4_cif.got.tgz:6628.got - 2010.06.03 13:42:01.
