data_PCOD9432734
_publ_section_title
;
Structure prediction by ZEFSAII (Michael W. Deem and Ramdas Pophale) SiO2 
 PCOD9432734
Probable space group: P C C N
;
_chemical_formula_sum "Si O2"
_cell_formula_units_Z 44
_cell_length_a 9.906304
_cell_length_b 9.907367
_cell_length_c 17.828237
_cell_angle_alpha 90.000000
_cell_angle_beta 90.000000
_cell_angle_gamma 90.000000
_cell_volume 1749.759262
_symmetry_space_group_name_H-M "P C C N"
_symmetry_group_IT_number 56
_symmetry_cell_setting 'orthorhombic'
loop_
_space_group_symop_operation_xyz
x,y,z
1/2-x,1/2-y,z
1/2+x,-y,1/2-z
-x,1/2+y,1/2-z
-x,-y,-z
1/2+x,1/2+y,-z
1/2-x,y,1/2+z
x,1/2-y,1/2+z
loop_
_atom_site_type_symbol
_atom_site_label
_atom_site_fract_x
_atom_site_fract_y
_atom_site_fract_z
Si Si1 0.577488 0.119773 0.133813
Si Si2 0.520294 0.358483 0.803857
Si Si3 0.471048 0.652734 0.584509
Si Si4 0.750000 0.250000 0.533742
Si Si5 0.750000 0.750000 0.016040
Si Si6 0.750000 0.750000 0.757046
Si Si7 0.597965 0.612877 0.886338
O O1 0.581411 0.102125 0.223242
O O2 0.721759 0.127194 0.092661
O O3 0.509329 0.265284 0.118144
O O4 0.482484 0.007091 0.096201
O O5 0.574272 0.217678 0.836671
O O6 0.364281 0.325985 0.788332
O O7 0.538229 0.467012 0.869801
O O8 0.371831 0.715399 0.523042
O O9 0.623544 0.695605 0.562816
O O10 0.686337 0.635961 0.960478
O O11 0.688516 0.641110 0.813641
#
# Coordination Sequence:
#
# PCOD9432734 Si02
#       7
#     8   8   8   4   4   4   8
#     4  11  25  50  75 109 157 200 255 323 390 453
#     4  11  25  46  77 118 144 209 255 327 381 473
#     4  12  28  48  79 111 157 197 266 318 392 462
#     4  12  28  46  78 114 150 212 252 322 382 466
#     4  11  25  48  74 112 152 202 246 326 384 464
#     4   9  21  44  72 108 158 196 254 328 386 450
#     4  10  23  44  77 107 152 199 253 311 396 456
#
# _framework density 25.146317
#
# number of rings (size 3 to 8) (size 9 to 14) (size 15 to 20)
#    0.000    1.091    1.818    3.273    2.545    8.727 
#    0.000    0.000    0.000    0.000    0.000    0.000 
#    0.000    0.000    0.000    0.000    0.000    0.000 
#
# Total GULP energy -245974.920189 kJ/mol
# GULP energy per Si atom -5590.339095 kJ/mol
# Density = 2.508908 g / cm^3
# Si number density = 25.146317 Si / 1000 Ang^3
#
#
#
# Elastic Constant Matrix: (Units=GPa)
#
#
# Indices 1 2 3 4 5 6 
#
# 1 91.0991 27.2139 48.3109 0.0000 0.0000 0.0000
# 2 27.2139 94.8506 32.0660 0.0000 0.0000 0.0000
# 3 48.3109 32.0660 134.3737 0.0000 0.0000 0.0000
# 4 0.0000 0.0000 0.0000 18.9143 0.0000 0.0000
# 5 0.0000 0.0000 0.0000 0.0000 -522.0611 0.0000
# 6 0.0000 0.0000 0.0000 0.0000 0.0000 35.0276
#
#
#
# Elastic Compliance Matrix: (Units=1/GPa)
#
#
# Indices 1 2 3 4 5 6 
#
# 1 0.014103 -0.002537 -0.004465 0.000000 0.000000 0.000000
# 2 -0.002537 0.011924 -0.001934 0.000000 0.000000 0.000000
# 3 -0.004465 -0.001934 0.009509 0.000000 0.000000 0.000000
# 4 0.000000 0.000000 0.000000 0.052870 0.000000 0.000000
# 5 0.000000 0.000000 0.000000 0.000000 -0.001915 0.000000
# 6 0.000000 0.000000 0.000000 0.000000 0.000000 0.028549
#
#
# Mechanical properties :
#
#
# Convention : Reuss Voigt Hill
#
# Bulk Modulus (GPa) = 56.60846 59.50056 58.05451
# Shear Modulus (GPa) = 36.02358 -79.44167 -21.70905
#
# Velocity S-wave (km/s) = 3.78902 -5.62675 -2.94140
# Velocity P-wave (km/s) = 6.45777 4.30124 3.40603
#
# Compressibility (1/GPa) = 0.01766520
#
# Stress axis : x y z
#
# Youngs Moduli (GPa) = 70.90857 83.86166 105.16799
#
# Poissons Ratio (x) = 0.21274 0.46957
# Poissons Ratio (y) = 0.17988 0.20334
# Poissons Ratio (z) = 0.31660 0.16215
#
# Static dielectric constant tensor:
#      x y z
#    x 2.079300 0.000000 0.000000 
#    y 0.000000 2.030130 0.000000 
#    z 0.000000 0.000000 1.995730 
# 
# From -- ./inp_files/15567.got.cif
#   From: 2010.05.17/outbox.cif.g08.bks.cpg/sg56_8_cif.got.tgz:15567.got - 2010.06.03 13:42:01.
