data_PCOD9432940
_publ_section_title
;
Structure prediction by ZEFSAII (Michael W. Deem and Ramdas Pophale) SiO2 
 PCOD9432940
Probable space group: P C C N
;
_chemical_formula_sum "Si O2"
_cell_formula_units_Z 28
_cell_length_a 5.099613
_cell_length_b 21.142361
_cell_length_c 10.639517
_cell_angle_alpha 90.000000
_cell_angle_beta 90.000000
_cell_angle_gamma 90.000000
_cell_volume 1147.129944
_symmetry_space_group_name_H-M "P C C N"
_symmetry_group_IT_number 56
_symmetry_cell_setting 'orthorhombic'
loop_
_space_group_symop_operation_xyz
x,y,z
1/2-x,1/2-y,z
1/2+x,-y,1/2-z
-x,1/2+y,1/2-z
-x,-y,-z
1/2+x,1/2+y,-z
1/2-x,y,1/2+z
x,1/2-y,1/2+z
loop_
_atom_site_type_symbol
_atom_site_label
_atom_site_fract_x
_atom_site_fract_y
_atom_site_fract_z
Si Si1 0.065826 0.149717 0.708730
Si Si2 0.250000 0.750000 0.667433
Si Si3 0.545838 0.631396 0.562589
Si Si4 0.213830 0.960164 0.718454
O O1 0.250187 0.130574 0.823246
O O2 0.181281 0.139847 0.571255
O O3 0.966999 0.219349 0.742330
O O4 0.814508 0.102943 0.711298
O O5 0.365665 0.693279 0.584345
O O6 0.379241 0.567423 0.583738
O O7 0.466138 0.005503 0.718605
#
# Coordination Sequence:
#
# PCOD9432940 Si02
#       4
#     8   4   8   8
#     4  11  25  45  73 105 144 188 240 297 360 425
#     4  10  24  44  68 104 142 192 240 298 354 428
#     4  11  25  45  73 105 144 188 240 297 360 425
#     4  11  24  49  70 109 144 191 238 296 352 425
#
# _framework density 24.408742
#
# number of rings (size 3 to 8) (size 9 to 14) (size 15 to 20)
#    0.000    1.143    2.857    1.714    0.000   16.000 
#    0.000    0.000    0.000    0.000    0.000    0.000 
#    0.000    0.000    0.000    0.000    0.000    0.000 
#
# Total GULP energy -156632.161007 kJ/mol
# GULP energy per Si atom -5594.005750 kJ/mol
# Density = 2.435319 g / cm^3
# Si number density = 24.408742 Si / 1000 Ang^3
#
#
#
# Elastic Constant Matrix: (Units=GPa)
#
#
# Indices 1 2 3 4 5 6 
#
# 1 114.1588 24.0708 27.8604 0.0000 0.0000 0.0000
# 2 24.0708 84.1857 -11.7305 0.0000 0.0000 0.0000
# 3 27.8604 -11.7305 144.9746 0.0000 0.0000 0.0000
# 4 0.0000 0.0000 0.0000 -1.8437 0.0000 0.0000
# 5 0.0000 0.0000 0.0000 0.0000 20.9718 0.0000
# 6 0.0000 0.0000 0.0000 0.0000 0.0000 -382.8320
#
#
#
# Elastic Compliance Matrix: (Units=1/GPa)
#
#
# Indices 1 2 3 4 5 6 
#
# 1 0.009952 -0.003148 -0.002167 0.000000 0.000000 0.000000
# 2 -0.003148 0.013009 0.001658 0.000000 0.000000 0.000000
# 3 -0.002167 0.001658 0.007448 0.000000 0.000000 0.000000
# 4 0.000000 0.000000 0.000000 -0.542395 0.000000 0.000000
# 5 0.000000 0.000000 0.000000 0.000000 0.047683 0.000000
# 6 0.000000 0.000000 0.000000 0.000000 0.000000 -0.002612
#
#
# Mechanical properties :
#
#
# Convention : Reuss Voigt Hill
#
# Bulk Modulus (GPa) = 43.29855 47.08007 45.18931
# Shear Modulus (GPa) = -11.06437 -52.53288 -31.79862
#
# Velocity S-wave (km/s) = -2.13138 -4.64423 -3.61329
# Velocity P-wave (km/s) = 3.42351 3.07058 1.07051
#
# Compressibility (1/GPa) = 0.02309546
#
# Stress axis : x y z
#
# Youngs Moduli (GPa) = 100.47898 76.86721 134.25758
#
# Poissons Ratio (x) = 0.24195 0.29097
# Poissons Ratio (y) = 0.31627 -0.22254
# Poissons Ratio (z) = 0.21776 -0.12741
#
# Static dielectric constant tensor:
#      x y z
#    x 1.991800 0.000000 0.000000 
#    y 0.000000 1.975390 0.000000 
#    z 0.000000 0.000000 1.951860 
# 
# From -- ./inp_files/5399.got.cif
#   From: 2010.05.17/outbox.cif.g08.bks.cpg/sg56_3_cif.got.tgz:5399.got - 2010.06.03 13:42:01.
