data_PCOD9432690
_publ_section_title
;
Structure prediction by ZEFSAII (Michael W. Deem and Ramdas Pophale) SiO2 
 PCOD9432690
Probable space group: P C C N
;
_chemical_formula_sum "Si O2"
_cell_formula_units_Z 32
_cell_length_a 17.155571
_cell_length_b 8.697103
_cell_length_c 8.835350
_cell_angle_alpha 90.000000
_cell_angle_beta 90.000000
_cell_angle_gamma 90.000000
_cell_volume 1318.267512
_symmetry_space_group_name_H-M "P C C N"
_symmetry_group_IT_number 56
_symmetry_cell_setting 'orthorhombic'
loop_
_space_group_symop_operation_xyz
x,y,z
1/2-x,1/2-y,z
1/2+x,-y,1/2-z
-x,1/2+y,1/2-z
-x,-y,-z
1/2+x,1/2+y,-z
1/2-x,y,1/2+z
x,1/2-y,1/2+z
loop_
_atom_site_type_symbol
_atom_site_label
_atom_site_fract_x
_atom_site_fract_y
_atom_site_fract_z
Si Si1 0.826115 0.344765 0.902616
Si Si2 0.641192 0.574595 0.638504
Si Si3 0.465126 0.889861 0.629986
Si Si4 0.880575 0.651990 0.806118
O O1 0.750000 0.250000 0.862212
O O2 0.902680 0.238371 0.923989
O O3 0.847960 0.479644 0.783410
O O4 0.808954 0.441441 0.056744
O O5 0.581097 0.489138 0.746106
O O6 0.537757 0.824997 0.723543
O O7 0.391594 0.344136 0.513649
O O8 0.500000 0.000000 0.500000
O O9 0.328130 0.210389 0.756178
#
# Coordination Sequence:
#
# PCOD9432690 Si02
#       4
#     8   8   8   8
#     4  10  27  49  79 116 163 220 274 342 428 492
#     4  10  24  44  77 113 161 203 269 334 414 483
#     4  12  25  43  79 121 162 212 274 334 400 502
#     4  10  23  43  78 116 159 203 271 335 406 494
#
# _framework density 24.274286
#
# number of rings (size 3 to 8) (size 9 to 14) (size 15 to 20)
#    1.500    0.000    0.000    3.750   10.500    1.000 
#    0.000    1.250   11.000    4.500    0.000    0.000 
#    0.000    0.000    0.000    0.000    0.000    0.000 
#
# Total GULP energy -178629.950672 kJ/mol
# GULP energy per Si atom -5582.185958 kJ/mol
# Density = 2.421904 g / cm^3
# Si number density = 24.274286 Si / 1000 Ang^3
#
#
#
# Elastic Constant Matrix: (Units=GPa)
#
#
# Indices 1 2 3 4 5 6 
#
# 1 106.3857 57.0640 8.6266 0.0000 0.0000 0.0000
# 2 57.0640 169.6746 40.9260 0.0000 0.0000 0.0000
# 3 8.6266 40.9260 75.3363 0.0000 0.0000 0.0000
# 4 0.0000 0.0000 0.0000 85.0002 0.0000 0.0000
# 5 0.0000 0.0000 0.0000 0.0000 1.8654 0.0000
# 6 0.0000 0.0000 0.0000 0.0000 0.0000 -29.2188
#
#
#
# Elastic Compliance Matrix: (Units=1/GPa)
#
#
# Indices 1 2 3 4 5 6 
#
# 1 0.011522 -0.004093 0.000904 0.000000 0.000000 0.000000
# 2 -0.004093 0.008236 -0.004006 0.000000 0.000000 0.000000
# 3 0.000904 -0.004006 0.015346 0.000000 0.000000 0.000000
# 4 0.000000 0.000000 0.000000 0.011765 0.000000 0.000000
# 5 0.000000 0.000000 0.000000 0.000000 0.536071 0.000000
# 6 0.000000 0.000000 0.000000 0.000000 0.000000 -0.034225
#
#
# Mechanical properties :
#
#
# Convention : Reuss Voigt Hill
#
# Bulk Modulus (GPa) = 48.27302 62.73664 55.50483
# Shear Modulus (GPa) = 8.77178 27.84802 18.30990
#
# Velocity S-wave (km/s) = 1.90301 3.39074 2.74942
# Velocity P-wave (km/s) = 4.97577 6.42110 5.74407
#
# Compressibility (1/GPa) = 0.02071550
#
# Stress axis : x y z
#
# Youngs Moduli (GPa) = 86.79108 121.41263 65.16215
#
# Poissons Ratio (x) = 0.49695 -0.05892
# Poissons Ratio (y) = 0.35524 0.26102
# Poissons Ratio (z) = -0.07848 0.48634
#
# Static dielectric constant tensor:
#      x y z
#    x 1.931630 0.000000 0.000000 
#    y 0.000000 1.933940 0.000000 
#    z 0.000000 0.000000 1.951100 
# 
# From -- ./inp_files/7523.got.cif
#   From: 2010.05.17/outbox.cif.g08.bks.cpg/sg56_4_cif.got.tgz:7523.got - 2010.06.03 13:42:01.
