data_PCOD9432302
_publ_section_title
;
Structure prediction by ZEFSAII (Michael W. Deem and Ramdas Pophale) SiO2 
 PCOD9432302
Probable space group: P C C N
;
_chemical_formula_sum "Si O2"
_cell_formula_units_Z 60
_cell_length_a 6.102655
_cell_length_b 16.346568
_cell_length_c 29.130723
_cell_angle_alpha 90.000000
_cell_angle_beta 90.000000
_cell_angle_gamma 90.000000
_cell_volume 2906.007078
_symmetry_space_group_name_H-M "P C C N"
_symmetry_group_IT_number 56
_symmetry_cell_setting 'orthorhombic'
loop_
_space_group_symop_operation_xyz
x,y,z
1/2-x,1/2-y,z
1/2+x,-y,1/2-z
-x,1/2+y,1/2-z
-x,-y,-z
1/2+x,1/2+y,-z
1/2-x,y,1/2+z
x,1/2-y,1/2+z
loop_
_atom_site_type_symbol
_atom_site_label
_atom_site_fract_x
_atom_site_fract_y
_atom_site_fract_z
Si Si1 0.791338 0.656506 0.848663
Si Si2 0.117323 0.868026 0.584177
Si Si3 0.540018 0.137486 0.332752
Si Si4 0.745061 0.455932 0.003261
Si Si5 0.402387 0.954379 0.315471
Si Si6 0.750000 0.750000 0.607426
Si Si7 0.908823 0.454896 0.098707
Si Si8 0.136298 0.832324 0.267450
O O1 0.750000 0.750000 0.860553
O O2 0.577340 0.608703 0.834298
O O3 0.896883 0.608120 0.891269
O O4 0.937892 0.653766 0.802323
O O5 0.265078 0.857400 0.629835
O O6 0.249465 0.888843 0.537412
O O7 0.949972 0.792094 0.580038
O O8 0.989210 0.952858 0.591699
O O9 0.340100 0.177891 0.360121
O O10 0.573821 0.183704 0.284997
O O11 0.498718 0.045042 0.315610
O O12 0.762111 0.427735 0.055830
O O13 0.500000 0.500000 0.000000
O O14 0.000000 0.500000 0.000000
O O15 0.219196 0.956768 0.354101
O O16 0.295413 0.911607 0.271080
O O17 0.250000 0.750000 0.285261
#
# Coordination Sequence:
#
# PCOD9432302 Si02
#       8
#     8   8   8   8   8   4   8   8
#     4  11  23  42  68  93 135 177 228 296 359 425
#     4  11  23  44  69 100 139 184 235 293 362 428
#     4  12  26  43  68  97 134 187 240 291 363 431
#     4  10  23  42  76 108 140 184 241 297 365 440
#     4  11  23  42  68  93 136 175 233 287 354 432
#     4  12  26  44  66  98 142 188 238 300 360 432
#     4  10  22  42  70 103 130 181 228 286 360 433
#     4  11  25  41  61  97 133 180 232 294 360 427
#
# _framework density 20.646885999999999
#
# number of rings (size 3 to 8) (size 9 to 14) (size 15 to 20)
#    0.000    1.067    4.000    2.000    6.533    1.067 
#    1.200    0.000    2.933    0.000    0.000    0.000 
#    0.000    0.000    0.000    0.000    0.000    0.000 
#
# Total GULP energy -334253.388042 kJ/mol
# GULP energy per Si atom -5570.889801 kJ/mol
# Density = 2.059989 g / cm^3
# Si number density = 20.646886 Si / 1000 Ang^3
#
#
#
# Elastic Constant Matrix: (Units=GPa)
#
#
# Indices 1 2 3 4 5 6 
#
# 1 49.5530 19.5556 4.4720 0.0000 0.0000 0.0000
# 2 19.5556 101.9211 -6.4109 0.0000 0.0000 0.0000
# 3 4.4720 -6.4109 83.8335 0.0000 0.0000 0.0000
# 4 0.0000 0.0000 0.0000 12.9541 0.0000 0.0000
# 5 0.0000 0.0000 0.0000 0.0000 23.7931 0.0000
# 6 0.0000 0.0000 0.0000 0.0000 0.0000 39.8020
#
#
#
# Elastic Compliance Matrix: (Units=1/GPa)
#
#
# Indices 1 2 3 4 5 6 
#
# 1 0.022021 -0.004320 -0.001505 0.000000 0.000000 0.000000
# 2 -0.004320 0.010706 0.001049 0.000000 0.000000 0.000000
# 3 -0.001505 0.001049 0.012089 0.000000 0.000000 0.000000
# 4 0.000000 0.000000 0.000000 0.077195 0.000000 0.000000
# 5 0.000000 0.000000 0.000000 0.000000 0.042029 0.000000
# 6 0.000000 0.000000 0.000000 0.000000 0.000000 0.025124
#
#
# Mechanical properties :
#
#
# Convention : Reuss Voigt Hill
#
# Bulk Modulus (GPa) = 28.35682 30.06011 29.20846
# Shear Modulus (GPa) = 23.75619 29.82258 26.78938
#
# Velocity S-wave (km/s) = 3.39572 3.80466 3.60599
# Velocity P-wave (km/s) = 5.39801 5.82163 5.61382
#
# Compressibility (1/GPa) = 0.03526489
#
# Stress axis : x y z
#
# Youngs Moduli (GPa) = 45.41110 93.40240 82.72039
#
# Poissons Ratio (x) = 0.40349 0.12450
# Poissons Ratio (y) = 0.19617 -0.08679
# Poissons Ratio (z) = 0.06835 -0.09800
#
# Static dielectric constant tensor:
#      x y z
#    x 1.817440 0.000000 0.000000 
#    y 0.000000 1.759080 0.000000 
#    z 0.000000 0.000000 1.781470 
# 
# From -- ./inp_files/22966.got.cif
#   From: 2010.05.17/outbox.cif.g08.bks.cpg/sg56_12_cif.got.tgz:22966.got - 2010.06.03 13:42:01.
