data_PCOD9432533
_publ_section_title
;
Structure prediction by ZEFSAII (Michael W. Deem and Ramdas Pophale) SiO2 
 PCOD9432533
Probable space group: P C C N
;
_chemical_formula_sum "Si O2"
_cell_formula_units_Z 64
_cell_length_a 21.193854
_cell_length_b 25.334260
_cell_length_c 5.272427
_cell_angle_alpha 90.000000
_cell_angle_beta 90.000000
_cell_angle_gamma 90.000000
_cell_volume 2830.927433
_symmetry_space_group_name_H-M "P C C N"
_symmetry_group_IT_number 56
_symmetry_cell_setting 'orthorhombic'
loop_
_space_group_symop_operation_xyz
x,y,z
1/2-x,1/2-y,z
1/2+x,-y,1/2-z
-x,1/2+y,1/2-z
-x,-y,-z
1/2+x,1/2+y,-z
1/2-x,y,1/2+z
x,1/2-y,1/2+z
loop_
_atom_site_type_symbol
_atom_site_label
_atom_site_fract_x
_atom_site_fract_y
_atom_site_fract_z
Si Si1 0.030478 0.736483 0.273021
Si Si2 0.106998 0.220658 0.704558
Si Si3 0.283476 0.346857 0.815910
Si Si4 0.217842 0.922239 0.991109
Si Si5 0.599938 0.538268 0.615008
Si Si6 0.512117 0.115736 0.813998
Si Si7 0.923609 0.422728 0.303194
Si Si8 0.682431 0.538735 0.109715
O O1 0.067568 0.746609 0.527147
O O2 0.005693 0.677046 0.256182
O O3 0.968939 0.775336 0.283966
O O4 0.126644 0.238771 0.425704
O O5 0.143340 0.167780 0.774936
O O6 0.243605 0.325996 0.579237
O O7 0.278714 0.409869 0.817191
O O8 0.234258 0.902831 0.708812
O O9 0.220868 0.985926 0.952306
O O10 0.147809 0.913643 0.099968
O O11 0.550320 0.585578 0.594749
O O12 0.569273 0.482866 0.703899
O O13 0.635687 0.528758 0.348878
O O14 0.644879 0.551792 0.851849
O O15 0.535033 0.088125 0.553568
O O16 0.558855 0.111190 0.055225
#
# Coordination Sequence:
#
# PCOD9432533 Si02
#       8
#     8   8   8   8   8   8   8   8
#     4  10  23  40  62  89 116 159 212 252 318 387
#     4  10  23  39  59  75 110 143 209 270 322 381
#     4  12  25  39  58  82 114 159 218 286 324 346
#     4  11  21  39  62  85 126 168 197 244 297 353
#     4  11  23  37  62  88 126 168 203 254 320 374
#     4  12  23  39  66  88 131 161 200 265 321 365
#     4  11  23  40  59 100 125 158 208 248 305 391
#     4  11  23  37  59  87 121 163 225 251 306 372
#
# _framework density 22.607434000000001
#
# number of rings (size 3 to 8) (size 9 to 14) (size 15 to 20)
#    0.000    1.000    0.000    8.250    7.000    1.500 
#    0.000    0.000    0.000    0.000    0.000    0.000 
#    0.000   35.000    0.000    0.000    0.000    0.000 
#
# Total GULP energy -357806.549247 kJ/mol
# GULP energy per Si atom -5590.727332 kJ/mol
# Density = 2.255598 g / cm^3
# Si number density = 22.607434 Si / 1000 Ang^3
#
#
#
# Elastic Constant Matrix: (Units=GPa)
#
#
# Indices 1 2 3 4 5 6 
#
# 1 25.0667 12.8530 34.5489 0.0000 0.0000 0.0000
# 2 12.8530 35.6421 25.1781 0.0000 0.0000 0.0000
# 3 34.5489 25.1781 184.0125 0.0000 0.0000 0.0000
# 4 0.0000 0.0000 0.0000 23.0531 0.0000 0.0000
# 5 0.0000 0.0000 0.0000 0.0000 46.3063 0.0000
# 6 0.0000 0.0000 0.0000 0.0000 0.0000 15.5948
#
#
#
# Elastic Compliance Matrix: (Units=1/GPa)
#
#
# Indices 1 2 3 4 5 6 
#
# 1 0.060498 -0.015268 -0.009270 0.000000 0.000000 0.000000
# 2 -0.015268 0.034912 -0.001910 0.000000 0.000000 0.000000
# 3 -0.009270 -0.001910 0.007436 0.000000 0.000000 0.000000
# 4 0.000000 0.000000 0.000000 0.043378 0.000000 0.000000
# 5 0.000000 0.000000 0.000000 0.000000 0.021595 0.000000
# 6 0.000000 0.000000 0.000000 0.000000 0.000000 0.064124
#
#
# Mechanical properties :
#
#
# Convention : Reuss Voigt Hill
#
# Bulk Modulus (GPa) = 20.01990 43.32015 31.67002
# Shear Modulus (GPa) = 16.58428 28.46696 22.52562
#
# Velocity S-wave (km/s) = 2.71140 3.55235 3.15997
# Velocity P-wave (km/s) = 4.32168 6.00242 5.23001
#
# Compressibility (1/GPa) = 0.04995031
#
# Stress axis : x y z
#
# Youngs Moduli (GPa) = 16.52937 28.64342 134.47738
#
# Poissons Ratio (x) = 0.43733 1.24656
# Poissons Ratio (y) = 0.25237 0.25689
# Poissons Ratio (z) = 0.15322 0.05472
#
# Static dielectric constant tensor:
#      x y z
#    x 1.848610 0.000000 0.000000 
#    y 0.000000 1.833990 0.000000 
#    z 0.000000 0.000000 1.920240 
# 
# From -- ./inp_files/966.got.cif
#   From: 2010.05.17/outbox.cif.g08.bks.cpg/sg56_1_cif.got.tgz:966.got - 2010.06.03 13:42:01.
