data_PCOD9432190
_publ_section_title
;
Structure prediction by ZEFSAII (Michael W. Deem and Ramdas Pophale) SiO2 
 PCOD9432190
Probable space group: P C C N
;
_chemical_formula_sum "Si O2"
_cell_formula_units_Z 56
_cell_length_a 20.737965
_cell_length_b 11.398260
_cell_length_c 9.268485
_cell_angle_alpha 90.000000
_cell_angle_beta 90.000000
_cell_angle_gamma 90.000000
_cell_volume 2190.854055
_symmetry_space_group_name_H-M "P C C N"
_symmetry_group_IT_number 56
_symmetry_cell_setting 'orthorhombic'
loop_
_space_group_symop_operation_xyz
x,y,z
1/2-x,1/2-y,z
1/2+x,-y,1/2-z
-x,1/2+y,1/2-z
-x,-y,-z
1/2+x,1/2+y,-z
1/2-x,y,1/2+z
x,1/2-y,1/2+z
loop_
_atom_site_type_symbol
_atom_site_label
_atom_site_fract_x
_atom_site_fract_y
_atom_site_fract_z
Si Si1 0.929220 0.581837 0.872760
Si Si2 0.840242 0.376558 0.972004
Si Si3 0.671535 0.828596 0.653057
Si Si4 0.842321 0.614929 0.329818
Si Si5 0.251241 0.564802 0.770778
Si Si6 0.973041 0.253828 0.951366
Si Si7 0.492308 0.391323 0.194071
O O1 0.876147 0.504010 0.959321
O O2 0.891258 0.655409 0.753470
O O3 0.971127 0.491669 0.779615
O O4 0.974524 0.656452 0.977860
O O5 0.800724 0.359759 0.823661
O O6 0.789215 0.377910 0.101020
O O7 0.899610 0.288258 0.986202
O O8 0.660982 0.820331 0.483209
O O9 0.690537 0.700155 0.711612
O O10 0.707809 0.952110 0.674989
O O11 0.801891 0.495423 0.333333
O O12 0.916372 0.589959 0.296443
O O13 0.987938 0.131705 0.028799
O O14 0.983982 0.274351 0.781926
#
# Coordination Sequence:
#
# PCOD9432190 Si02
#       7
#     8   8   8   8   8   8   8
#     4  10  22  42  66  93 134 174 221 272 341 392
#     4  10  22  41  66  89 131 170 217 269 331 397
#     4  11  25  37  59  93 135 173 213 266 321 412
#     4  12  23  38  60  95 136 167 217 267 329 399
#     4  11  22  40  61  94 127 175 215 261 331 396
#     4  11  22  44  66  98 131 177 223 279 337 395
#     4  11  23  40  68  96 129 173 222 274 337 392
#
# _framework density 25.560808000000002
#
# number of rings (size 3 to 8) (size 9 to 14) (size 15 to 20)
#    0.000    1.143    2.857    4.714    4.000    1.714 
#    2.571    0.000    0.000   18.000    0.000    0.000 
#    0.000    0.000    0.000    0.000    0.000    0.000 
#
# Total GULP energy -313719.917289 kJ/mol
# GULP energy per Si atom -5602.141380 kJ/mol
# Density = 2.550263 g / cm^3
# Si number density = 25.560808 Si / 1000 Ang^3
#
#
#
# Elastic Constant Matrix: (Units=GPa)
#
#
# Indices 1 2 3 4 5 6 
#
# 1 130.3311 12.2670 19.6061 0.0000 0.0000 0.0000
# 2 12.2670 47.8594 3.1129 0.0000 0.0000 0.0000
# 3 19.6061 3.1129 108.7138 0.0000 0.0000 0.0000
# 4 0.0000 0.0000 0.0000 18.7010 0.0000 0.0000
# 5 0.0000 0.0000 0.0000 0.0000 41.6844 0.0000
# 6 0.0000 0.0000 0.0000 0.0000 0.0000 28.9399
#
#
#
# Elastic Compliance Matrix: (Units=1/GPa)
#
#
# Indices 1 2 3 4 5 6 
#
# 1 0.008069 -0.001977 -0.001399 0.000000 0.000000 0.000000
# 2 -0.001977 0.021418 -0.000257 0.000000 0.000000 0.000000
# 3 -0.001399 -0.000257 0.009458 0.000000 0.000000 0.000000
# 4 0.000000 0.000000 0.000000 0.053473 0.000000 0.000000
# 5 0.000000 0.000000 0.000000 0.000000 0.023990 0.000000
# 6 0.000000 0.000000 0.000000 0.000000 0.000000 0.034554
#
#
# Mechanical properties :
#
#
# Convention : Reuss Voigt Hill
#
# Bulk Modulus (GPa) = 31.56553 39.65293 35.60923
# Shear Modulus (GPa) = 29.62296 34.65961 32.14128
#
# Velocity S-wave (km/s) = 3.40799 3.68634 3.54989
# Velocity P-wave (km/s) = 5.27843 5.80221 5.54651
#
# Compressibility (1/GPa) = 0.03168013
#
# Stress axis : x y z
#
# Youngs Moduli (GPa) = 123.92691 46.68957 105.72998
#
# Poissons Ratio (x) = 0.09232 0.14788
# Poissons Ratio (y) = 0.24504 0.02714
# Poissons Ratio (z) = 0.17333 0.01198
#
# Static dielectric constant tensor:
#      x y z
#    x 2.017160 0.000000 0.000000 
#    y 0.000000 2.117690 0.000000 
#    z 0.000000 0.000000 1.966650 
# 
# From -- ./inp_files/4479.got.cif
#   From: 2010.05.17/outbox.cif.g08.bks.cpg/sg56_3_cif.got.tgz:4479.got - 2010.06.03 13:42:01.
