data_PCOD9432578
_publ_section_title
;
Structure prediction by ZEFSAII (Michael W. Deem and Ramdas Pophale) SiO2 
 PCOD9432578
Probable space group: P C C N
;
_chemical_formula_sum "Si O2"
_cell_formula_units_Z 40
_cell_length_a 17.211762
_cell_length_b 9.754854
_cell_length_c 9.965948
_cell_angle_alpha 90.000000
_cell_angle_beta 90.000000
_cell_angle_gamma 90.000000
_cell_volume 1673.264984
_symmetry_space_group_name_H-M "P C C N"
_symmetry_group_IT_number 56
_symmetry_cell_setting 'orthorhombic'
loop_
_space_group_symop_operation_xyz
x,y,z
1/2-x,1/2-y,z
1/2+x,-y,1/2-z
-x,1/2+y,1/2-z
-x,-y,-z
1/2+x,1/2+y,-z
1/2-x,y,1/2+z
x,1/2-y,1/2+z
loop_
_atom_site_type_symbol
_atom_site_label
_atom_site_fract_x
_atom_site_fract_y
_atom_site_fract_z
Si Si1 0.085842 0.511083 0.943354
Si Si2 0.291952 0.612552 0.779320
Si Si3 0.067321 0.674734 0.427752
Si Si4 0.256615 0.450681 0.531719
Si Si5 0.598198 0.574618 0.867238
O O1 0.099366 0.674502 0.956342
O O2 0.091489 0.466790 0.787927
O O3 0.151647 0.423027 0.019318
O O4 0.000000 0.500000 0.000000
O O5 0.250000 0.750000 0.825192
O O6 0.384311 0.626943 0.796377
O O7 0.259520 0.577914 0.634559
O O8 0.267735 0.492986 0.882059
O O9 0.086274 0.564124 0.543613
O O10 0.975313 0.669833 0.402695
O O11 0.183593 0.368233 0.592798
#
# Coordination Sequence:
#
# PCOD9432578 Si02
#       5
#     8   8   8   8   8
#     4  12  25  39  67  98 127 173 228 270 318 404
#     4  11  19  32  59  91 126 162 208 269 321 375
#     4  10  23  41  63  92 134 170 208 270 337 386
#     4  11  21  36  60  93 128 163 217 266 321 384
#     4  10  23  42  62  93 133 172 209 272 340 389
#
# _framework density 23.905359000000001
#
# number of rings (size 3 to 8) (size 9 to 14) (size 15 to 20)
#    0.000    1.200    4.000    1.800    8.400    0.000 
#    0.000    1.000    0.000    2.400    0.000    0.000 
#    0.000    0.000    0.000    0.000    0.000    0.000 
#
# Total GULP energy -223312.499821 kJ/mol
# GULP energy per Si atom -5582.812496 kJ/mol
# Density = 2.385095 g / cm^3
# Si number density = 23.905359 Si / 1000 Ang^3
#
#
#
# Elastic Constant Matrix: (Units=GPa)
#
#
# Indices 1 2 3 4 5 6 
#
# 1 252.5526 31.5305 45.2941 0.0000 0.0000 0.0000
# 2 31.5305 69.3445 18.5362 0.0000 0.0000 0.0000
# 3 45.2941 18.5362 79.7856 0.0000 0.0000 0.0000
# 4 0.0000 0.0000 0.0000 2.1200 0.0000 0.0000
# 5 0.0000 0.0000 0.0000 0.0000 38.7511 0.0000
# 6 0.0000 0.0000 0.0000 0.0000 0.0000 4.4872
#
#
#
# Elastic Compliance Matrix: (Units=1/GPa)
#
#
# Indices 1 2 3 4 5 6 
#
# 1 0.004544 -0.001468 -0.002239 0.000000 0.000000 0.000000
# 2 -0.001468 0.015850 -0.002849 0.000000 0.000000 0.000000
# 3 -0.002239 -0.002849 0.014466 0.000000 0.000000 0.000000
# 4 0.000000 0.000000 0.000000 0.471691 0.000000 0.000000
# 5 0.000000 0.000000 0.000000 0.000000 0.025806 0.000000
# 6 0.000000 0.000000 0.000000 0.000000 0.000000 0.222855
#
#
# Mechanical properties :
#
#
# Convention : Reuss Voigt Hill
#
# Bulk Modulus (GPa) = 45.97864 65.82272 55.90068
# Shear Modulus (GPa) = 6.44685 29.49314 17.97000
#
# Velocity S-wave (km/s) = 1.64398 3.51628 2.74471
# Velocity P-wave (km/s) = 4.78319 6.63929 5.78615
#
# Compressibility (1/GPa) = 0.02174923
#
# Stress axis : x y z
#
# Youngs Moduli (GPa) = 220.05377 63.09255 69.12551
#
# Poissons Ratio (x) = 0.09261 0.15476
# Poissons Ratio (y) = 0.32300 0.19694
# Poissons Ratio (z) = 0.49266 0.17975
#
# Static dielectric constant tensor:
#      x y z
#    x 1.971540 0.000000 0.000000 
#    y 0.000000 1.996670 0.000000 
#    z 0.000000 0.000000 1.873900 
# 
# From -- ./inp_files/3231.got.cif
#   From: 2010.05.17/outbox.cif.g08.bks.cpg/sg56_2_cif.got.tgz:3231.got - 2010.06.03 13:42:01.
