data_PCOD9432994
_publ_section_title
;
Structure prediction by ZEFSAII (Michael W. Deem and Ramdas Pophale) SiO2 
 PCOD9432994
Probable space group: P C C N
;
_chemical_formula_sum "Si O2"
_cell_formula_units_Z 64
_cell_length_a 14.905344
_cell_length_b 19.435283
_cell_length_c 10.688987
_cell_angle_alpha 90.000000
_cell_angle_beta 90.000000
_cell_angle_gamma 90.000000
_cell_volume 3096.488142
_symmetry_space_group_name_H-M "P C C N"
_symmetry_group_IT_number 56
_symmetry_cell_setting 'orthorhombic'
loop_
_space_group_symop_operation_xyz
x,y,z
1/2-x,1/2-y,z
1/2+x,-y,1/2-z
-x,1/2+y,1/2-z
-x,-y,-z
1/2+x,1/2+y,-z
1/2-x,y,1/2+z
x,1/2-y,1/2+z
loop_
_atom_site_type_symbol
_atom_site_label
_atom_site_fract_x
_atom_site_fract_y
_atom_site_fract_z
Si Si1 0.016069 0.168523 0.774536
Si Si2 0.002685 0.679647 0.284901
Si Si3 0.437974 0.070786 0.502532
Si Si4 0.443861 0.060970 0.852373
Si Si5 0.316482 0.871587 0.659398
Si Si6 0.083588 0.050081 0.636278
Si Si7 0.291312 0.030796 0.673606
Si Si8 0.698739 0.317429 0.113758
O O1 0.042469 0.247696 0.751863
O O2 0.911366 0.163939 0.810375
O O3 0.042184 0.125547 0.652510
O O4 0.059482 0.118205 0.879595
O O5 0.098440 0.698194 0.342885
O O6 0.968300 0.625097 0.389788
O O7 0.998180 0.632158 0.161295
O O8 0.337095 0.050318 0.541180
O O9 0.500000 0.000000 0.500000
O O10 0.350856 0.068598 0.777909
O O11 0.513954 0.003618 0.801553
O O12 0.416936 0.036295 0.989006
O O13 0.299229 0.864794 0.510332
O O14 0.245901 0.841889 0.758515
O O15 0.316947 0.951586 0.691010
O O16 0.185647 0.042585 0.681232
O O17 0.750000 0.250000 0.069644
#
# Coordination Sequence:
#
# PCOD9432994 Si02
#       8
#     8   8   8   8   8   8   8   8
#     4  12  24  42  70 101 137 189 233 297 363 437
#     4  11  24  43  70  98 143 186 231 300 365 432
#     4  11  22  45  73  98 135 190 244 285 361 449
#     4  10  24  46  67 105 139 184 232 294 366 424
#     4  12  25  41  68 102 145 189 238 297 365 441
#     4  11  25  43  72 103 138 181 240 301 354 428
#     4  11  24  44  72 100 135 187 244 297 358 435
#     4  12  25  40  64 105 144 187 234 290 368 460
#
# _framework density 20.668575000000001
#
# number of rings (size 3 to 8) (size 9 to 14) (size 15 to 20)
#    0.000    0.750    5.000    1.875    5.250    1.000 
#    0.000    2.500    0.000    0.000    0.000    0.000 
#    0.000    0.000    0.000    0.000    0.000    0.000 
#
# Total GULP energy -356566.700952 kJ/mol
# GULP energy per Si atom -5571.354702 kJ/mol
# Density = 2.062153 g / cm^3
# Si number density = 20.668575 Si / 1000 Ang^3
#
#
#
# Elastic Constant Matrix: (Units=GPa)
#
#
# Indices 1 2 3 4 5 6 
#
# 1 90.4982 13.2574 22.5092 0.0000 0.0000 0.0000
# 2 13.2574 123.0108 -3.1273 0.0000 0.0000 0.0000
# 3 22.5092 -3.1273 72.5792 0.0000 0.0000 0.0000
# 4 0.0000 0.0000 0.0000 23.5758 0.0000 0.0000
# 5 0.0000 0.0000 0.0000 0.0000 73.0597 0.0000
# 6 0.0000 0.0000 0.0000 0.0000 0.0000 20.5294
#
#
#
# Elastic Compliance Matrix: (Units=1/GPa)
#
#
# Indices 1 2 3 4 5 6 
#
# 1 0.012214 -0.001414 -0.003849 0.000000 0.000000 0.000000
# 2 -0.001414 0.008302 0.000796 0.000000 0.000000 0.000000
# 3 -0.003849 0.000796 0.015006 0.000000 0.000000 0.000000
# 4 0.000000 0.000000 0.000000 0.042416 0.000000 0.000000
# 5 0.000000 0.000000 0.000000 0.000000 0.013687 0.000000
# 6 0.000000 0.000000 0.000000 0.000000 0.000000 0.048711
#
#
# Mechanical properties :
#
#
# Convention : Reuss Voigt Hill
#
# Bulk Modulus (GPa) = 37.61006 39.04076 38.32541
# Shear Modulus (GPa) = 31.61875 40.32956 35.97416
#
# Velocity S-wave (km/s) = 3.91551 4.42209 4.17649
# Velocity P-wave (km/s) = 6.21915 6.70843 6.46842
#
# Compressibility (1/GPa) = 0.02658863
#
# Stress axis : x y z
#
# Youngs Moduli (GPa) = 81.87000 120.45244 66.63960
#
# Poissons Ratio (x) = 0.17035 0.25650
# Poissons Ratio (y) = 0.11579 -0.05307
# Poissons Ratio (z) = 0.31512 -0.09592
#
# Static dielectric constant tensor:
#      x y z
#    x 1.738130 0.000000 0.000000 
#    y 0.000000 33.996560 0.000000 
#    z 0.000000 0.000000 1.881660 
# 
# From -- ./inp_files/8065.got.cif
#   From: 2010.05.17/outbox.cif.g08.bks.cpg/sg56_5_cif.got.tgz:8065.got - 2010.06.03 13:42:01.
