data_PCOD9432939
_publ_section_title
;
Structure prediction by ZEFSAII (Michael W. Deem and Ramdas Pophale) SiO2 
 PCOD9432939
Probable space group: P C C N
;
_chemical_formula_sum "Si O2"
_cell_formula_units_Z 40
_cell_length_a 4.865391
_cell_length_b 18.223212
_cell_length_c 18.257775
_cell_angle_alpha 90.000000
_cell_angle_beta 90.000000
_cell_angle_gamma 90.000000
_cell_volume 1618.790048
_symmetry_space_group_name_H-M "P C C N"
_symmetry_group_IT_number 56
_symmetry_cell_setting 'orthorhombic'
loop_
_space_group_symop_operation_xyz
x,y,z
1/2-x,1/2-y,z
1/2+x,-y,1/2-z
-x,1/2+y,1/2-z
-x,-y,-z
1/2+x,1/2+y,-z
1/2-x,y,1/2+z
x,1/2-y,1/2+z
loop_
_atom_site_type_symbol
_atom_site_label
_atom_site_fract_x
_atom_site_fract_y
_atom_site_fract_z
Si Si1 0.570803 0.334215 0.947637
Si Si2 0.962305 0.182707 0.700491
Si Si3 0.424005 0.440346 0.438882
Si Si4 0.250000 0.250000 0.824385
Si Si5 0.750000 0.750000 0.432023
Si Si6 0.273118 0.978682 0.791838
O O1 0.868474 0.370770 0.940444
O O2 0.478993 0.280557 0.881177
O O3 0.372254 0.404542 0.950372
O O4 0.481046 0.288699 0.018999
O O5 0.750000 0.250000 0.714230
O O6 0.800801 0.107796 0.700291
O O7 0.199288 0.185747 0.763231
O O8 0.105882 0.193212 0.622579
O O9 0.500000 0.500000 0.500000
O O10 0.403217 0.479912 0.360855
O O11 0.460744 0.999958 0.722436
#
# Coordination Sequence:
#
# PCOD9432939 Si02
#       6
#     8   8   8   4   4   8
#     4  11  26  45  73 104 144 191 243 301 368 439
#     4  11  26  44  75 103 148 192 250 309 377 441
#     4  12  26  46  72 104 148 191 247 297 372 444
#     4  10  24  44  68 104 138 186 242 304 362 432
#     4  10  26  44  72 108 148 192 250 310 374 444
#     4  12  28  48  75 108 149 197 249 308 377 449
#
# _framework density 24.709811999999999
#
# number of rings (size 3 to 8) (size 9 to 14) (size 15 to 20)
#    0.000    0.800    0.000    5.400   16.800    1.600 
#    0.000    0.000    0.000    0.000    0.000    0.000 
#    0.000    0.000    0.000    0.000    0.000    0.000 
#
# Total GULP energy -223819.192781 kJ/mol
# GULP energy per Si atom -5595.479820 kJ/mol
# Density = 2.465357 g / cm^3
# Si number density = 24.709812 Si / 1000 Ang^3
#
#
#
# Elastic Constant Matrix: (Units=GPa)
#
#
# Indices 1 2 3 4 5 6 
#
# 1 47.4055 11.2865 -3.7939 0.0000 0.0000 0.0000
# 2 11.2865 137.6637 25.2782 0.0000 0.0000 0.0000
# 3 -3.7939 25.2782 135.0584 0.0000 0.0000 0.0000
# 4 0.0000 0.0000 0.0000 36.8745 0.0000 0.0000
# 5 0.0000 0.0000 0.0000 0.0000-5586.0747 0.0000
# 6 0.0000 0.0000 0.0000 0.0000 0.0000 56.8584
#
#
#
# Elastic Compliance Matrix: (Units=1/GPa)
#
#
# Indices 1 2 3 4 5 6 
#
# 1 0.021637 -0.001953 0.000973 0.000000 0.000000 0.000000
# 2 -0.001953 0.007699 -0.001496 0.000000 0.000000 0.000000
# 3 0.000973 -0.001496 0.007712 0.000000 0.000000 0.000000
# 4 0.000000 0.000000 0.000000 0.027119 0.000000 0.000000
# 5 0.000000 0.000000 0.000000 0.000000 -0.000179 0.000000
# 6 0.000000 0.000000 0.000000 0.000000 0.000000 0.017588
#
#
# Mechanical properties :
#
#
# Convention : Reuss Voigt Hill
#
# Bulk Modulus (GPa) = 31.15523 42.85213 37.00368
# Shear Modulus (GPa) = 51.42722 -1079.31124 -513.94201
#
# Velocity S-wave (km/s) = 4.56702 -20.92230 -14.43754
# Velocity P-wave (km/s) = 6.35972 23.79658 16.21467
#
# Compressibility (1/GPa) = 0.03209733
#
# Stress axis : x y z
#
# Youngs Moduli (GPa) = 46.21630 129.88981 129.67631
#
# Poissons Ratio (x) = 0.25363 -0.12621
# Poissons Ratio (y) = 0.09025 0.19397
# Poissons Ratio (z) = -0.04498 0.19429
#
# Static dielectric constant tensor:
#      x y z
#    x 1.953520 0.000000 0.000000 
#    y 0.000000 1.870570 0.000000 
#    z 0.000000 0.000000 1.947360 
# 
# From -- ./inp_files/13868.got.cif
#   From: 2010.05.17/outbox.cif.g08.bks.cpg/sg56_7_cif.got.tgz:13868.got - 2010.06.03 13:42:01.
