data_PCOD9432270
_publ_section_title
;
Structure prediction by ZEFSAII (Michael W. Deem and Ramdas Pophale) SiO2 
 PCOD9432270
Probable space group: P C C N
;
_chemical_formula_sum "Si O2"
_cell_formula_units_Z 36
_cell_length_a 26.996431
_cell_length_b 6.665833
_cell_length_c 9.741248
_cell_angle_alpha 90.000000
_cell_angle_beta 90.000000
_cell_angle_gamma 90.000000
_cell_volume 1752.973626
_symmetry_space_group_name_H-M "P C C N"
_symmetry_group_IT_number 56
_symmetry_cell_setting 'orthorhombic'
loop_
_space_group_symop_operation_xyz
x,y,z
1/2-x,1/2-y,z
1/2+x,-y,1/2-z
-x,1/2+y,1/2-z
-x,-y,-z
1/2+x,1/2+y,-z
1/2-x,y,1/2+z
x,1/2-y,1/2+z
loop_
_atom_site_type_symbol
_atom_site_label
_atom_site_fract_x
_atom_site_fract_y
_atom_site_fract_z
Si Si1 0.938591 0.546865 0.368573
Si Si2 0.988925 0.805866 0.590736
Si Si3 0.298285 0.870726 0.020753
Si Si4 0.667388 0.052124 0.258038
Si Si5 0.250000 0.250000 0.655591
O O1 0.949493 0.674296 0.504813
O O2 0.968829 0.639603 0.240603
O O3 0.881937 0.535468 0.324441
O O4 0.961867 0.327911 0.393971
O O5 0.000000 0.000000 0.500000
O O6 0.250000 0.750000 0.965547
O O7 0.338017 0.882936 0.899516
O O8 0.316388 0.741458 0.149908
O O9 0.281040 0.090139 0.067098
O O10 0.711244 0.887446 0.262163
#
# Coordination Sequence:
#
# PCOD9432270 Si02
#       5
#     8   8   8   8   4
#     4  11  26  43  71  96 132 176 221 277 337 394
#     4  11  24  47  66  98 134 172 219 281 329 396
#     4  10  22  43  63  91 133 168 215 269 322 386
#     4  11  25  40  66  98 128 173 215 271 327 394
#     4  10  22  42  66  96 128 174 218 274 316 394
#
# _framework density 20.536532999999999
#
# number of rings (size 3 to 8) (size 9 to 14) (size 15 to 20)
#    0.000    1.333    2.222    2.667    6.222    1.778 
#    0.000    0.000    0.000    0.000    0.000    0.000 
#    0.000    0.000    0.000    0.000    0.000    0.000 
#
# Total GULP energy -201285.289489 kJ/mol
# GULP energy per Si atom -5591.258041 kJ/mol
# Density = 2.048979 g / cm^3
# Si number density = 20.536533 Si / 1000 Ang^3
#
#
#
# Elastic Constant Matrix: (Units=GPa)
#
#
# Indices 1 2 3 4 5 6 
#
# 1 39.6583 16.9762 -7.5582 0.0000 0.0000 0.0000
# 2 16.9762 112.4705 33.9946 0.0000 0.0000 0.0000
# 3 -7.5582 33.9946 72.1323 0.0000 0.0000 0.0000
# 4 0.0000 0.0000 0.0000 18.3561 0.0000 0.0000
# 5 0.0000 0.0000 0.0000 0.0000 12.1584 0.0000
# 6 0.0000 0.0000 0.0000 0.0000 0.0000 7.8365
#
#
#
# Elastic Compliance Matrix: (Units=1/GPa)
#
#
# Indices 1 2 3 4 5 6 
#
# 1 0.028991 -0.006174 0.005947 0.000000 0.000000 0.000000
# 2 -0.006174 0.011683 -0.006153 0.000000 0.000000 0.000000
# 3 0.005947 -0.006153 0.017386 0.000000 0.000000 0.000000
# 4 0.000000 0.000000 0.000000 0.054478 0.000000 0.000000
# 5 0.000000 0.000000 0.000000 0.000000 0.082248 0.000000
# 6 0.000000 0.000000 0.000000 0.000000 0.000000 0.127608
#
#
# Mechanical properties :
#
#
# Convention : Reuss Voigt Hill
#
# Bulk Modulus (GPa) = 22.07387 34.56514 28.31951
# Shear Modulus (GPa) = 14.27540 19.72677 17.00108
#
# Velocity S-wave (km/s) = 2.63938 3.10267 2.88035
# Velocity P-wave (km/s) = 4.47888 5.45004 4.98815
#
# Compressibility (1/GPa) = 0.04530243
#
# Stress axis : x y z
#
# Youngs Moduli (GPa) = 34.49294 85.59645 57.51674
#
# Poissons Ratio (x) = 0.52843 -0.34207
# Poissons Ratio (y) = 0.21294 0.35388
# Poissons Ratio (z) = -0.20514 0.52665
#
# Static dielectric constant tensor:
#      x y z
#    x 1.722230 0.000000 0.000000 
#    y 0.000000 1.718600 0.000000 
#    z 0.000000 0.000000 1.707580 
# 
# From -- ./inp_files/5549.got.cif
#   From: 2010.05.17/outbox.cif.g08.bks.cpg/sg56_3_cif.got.tgz:5549.got - 2010.06.03 13:42:01.
