data_PCOD9432182
_publ_section_title
;
Structure prediction by ZEFSAII (Michael W. Deem and Ramdas Pophale) SiO2 
 PCOD9432182
Probable space group: P C C N
;
_chemical_formula_sum "Si O2"
_cell_formula_units_Z 40
_cell_length_a 10.541940
_cell_length_b 9.171945
_cell_length_c 16.819379
_cell_angle_alpha 90.000000
_cell_angle_beta 90.000000
_cell_angle_gamma 90.000000
_cell_volume 1626.267334
_symmetry_space_group_name_H-M "P C C N"
_symmetry_group_IT_number 56
_symmetry_cell_setting 'orthorhombic'
loop_
_space_group_symop_operation_xyz
x,y,z
1/2-x,1/2-y,z
1/2+x,-y,1/2-z
-x,1/2+y,1/2-z
-x,-y,-z
1/2+x,1/2+y,-z
1/2-x,y,1/2+z
x,1/2-y,1/2+z
loop_
_atom_site_type_symbol
_atom_site_label
_atom_site_fract_x
_atom_site_fract_y
_atom_site_fract_z
Si Si1 0.927002 0.867457 0.725048
Si Si2 0.578667 0.367473 0.038210
Si Si3 0.800289 0.087278 0.197471
Si Si4 0.443428 0.890241 0.066743
Si Si5 0.125725 0.176556 0.633145
O O1 0.688195 0.518020 0.727188
O O2 0.890214 0.726261 0.775859
O O3 0.057549 0.923947 0.766249
O O4 0.954704 0.839443 0.632511
O O5 0.682554 0.424098 0.101022
O O6 0.489928 0.259006 0.090469
O O7 0.500000 0.500000 0.000000
O O8 0.616290 0.254163 0.969474
O O9 0.750000 0.250000 0.214575
O O10 0.360285 0.006599 0.115325
O O11 0.500000 0.000000 0.000000
O O12 0.250000 0.250000 0.599150
#
# Coordination Sequence:
#
# PCOD9432182 Si02
#       5
#     8   8   8   8   8
#     4  11  23  42  74 107 146 204 262 325 397 476
#     4  10  24  42  67 104 143 195 254 316 393 468
#     4  11  25  47  72 110 159 205 259 328 399 476
#     4  10  22  44  68  98 145 196 246 317 389 460
#     4  10  22  41  64  97 139 188 250 310 379 462
#
# _framework density 24.596204
#
# number of rings (size 3 to 8) (size 9 to 14) (size 15 to 20)
#    0.000    1.600    0.000    4.800    0.000   12.800 
#    0.000    4.000    0.000    0.000    0.000    0.000 
#    0.000    0.000    0.000    0.000    0.000    0.000 
#
# Total GULP energy -223439.839780 kJ/mol
# GULP energy per Si atom -5585.995995 kJ/mol
# Density = 2.454022 g / cm^3
# Si number density = 24.596204 Si / 1000 Ang^3
#
#
#
# Elastic Constant Matrix: (Units=GPa)
#
#
# Indices 1 2 3 4 5 6 
#
# 1 147.5244 66.5166 46.0751 0.0000 0.0000 0.0000
# 2 66.5166 190.2770 68.3169 0.0000 0.0000 0.0000
# 3 46.0751 68.3169 124.6123 0.0000 0.0000 0.0000
# 4 0.0000 0.0000 0.0000 40.2681 0.0000 0.0000
# 5 0.0000 0.0000 0.0000 0.0000 14.4493 0.0000
# 6 0.0000 0.0000 0.0000 0.0000 0.0000 25.2016
#
#
#
# Elastic Compliance Matrix: (Units=1/GPa)
#
#
# Indices 1 2 3 4 5 6 
#
# 1 0.008379 -0.002262 -0.001858 0.000000 0.000000 0.000000
# 2 -0.002262 0.007154 -0.003086 0.000000 0.000000 0.000000
# 3 -0.001858 -0.003086 0.010404 0.000000 0.000000 0.000000
# 4 0.000000 0.000000 0.000000 0.024834 0.000000 0.000000
# 5 0.000000 0.000000 0.000000 0.000000 0.069207 0.000000
# 6 0.000000 0.000000 0.000000 0.000000 0.000000 0.039680
#
#
# Mechanical properties :
#
#
# Convention : Reuss Voigt Hill
#
# Bulk Modulus (GPa) = 86.76722 91.58122 89.17422
# Shear Modulus (GPa) = 28.10401 34.75080 31.42741
#
# Velocity S-wave (km/s) = 3.38393 3.76287 3.57842
# Velocity P-wave (km/s) = 7.11486 7.49624 7.30804
#
# Compressibility (1/GPa) = 0.01152509
#
# Stress axis : x y z
#
# Youngs Moduli (GPa) = 119.35055 139.77907 96.12050
#
# Poissons Ratio (x) = 0.31617 0.17858
# Poissons Ratio (y) = 0.26996 0.29661
# Poissons Ratio (z) = 0.22174 0.43133
#
# Static dielectric constant tensor:
#      x y z
#    x 1.974090 0.000000 0.000000 
#    y 0.000000 1.940690 0.000000 
#    z 0.000000 0.000000 2.167980 
# 
# From -- ./inp_files/14467.got.cif
#   From: 2010.05.17/outbox.cif.g08.bks.cpg/sg56_8_cif.got.tgz:14467.got - 2010.06.03 13:42:01.
