data_PCOD9432894
_publ_section_title
;
Structure prediction by ZEFSAII (Michael W. Deem and Ramdas Pophale) SiO2 
 PCOD9432894
Probable space group: P C C N
;
_chemical_formula_sum "Si O2"
_cell_formula_units_Z 40
_cell_length_a 11.024495
_cell_length_b 19.920305
_cell_length_c 8.532944
_cell_angle_alpha 90.000000
_cell_angle_beta 90.000000
_cell_angle_gamma 90.000000
_cell_volume 1873.930949
_symmetry_space_group_name_H-M "P C C N"
_symmetry_group_IT_number 56
_symmetry_cell_setting 'orthorhombic'
loop_
_space_group_symop_operation_xyz
x,y,z
1/2-x,1/2-y,z
1/2+x,-y,1/2-z
-x,1/2+y,1/2-z
-x,-y,-z
1/2+x,1/2+y,-z
1/2-x,y,1/2+z
x,1/2-y,1/2+z
loop_
_atom_site_type_symbol
_atom_site_label
_atom_site_fract_x
_atom_site_fract_y
_atom_site_fract_z
Si Si1 0.619151 0.671451 0.289420
Si Si2 0.876276 0.518520 0.907460
Si Si3 0.750000 0.250000 0.157525
Si Si4 0.628083 0.030495 0.560963
Si Si5 0.750000 0.750000 0.043186
Si Si6 0.876426 0.175592 0.905901
O O1 0.621115 0.596286 0.354443
O O2 0.719503 0.688131 0.157247
O O3 0.644525 0.724006 0.428502
O O4 0.497445 0.682470 0.192932
O O5 0.873350 0.474889 0.748333
O O6 0.751466 0.505693 0.001866
O O7 0.000000 0.500000 0.000000
O O8 0.725113 0.188429 0.273446
O O9 0.857946 0.231045 0.040392
O O10 0.632898 0.104624 0.489281
O O11 0.500000 0.000000 0.500000
#
# Coordination Sequence:
#
# PCOD9432894 Si02
#       6
#     8   8   4   8   4   8
#     4  11  23  45  68 100 136 179 235 284 347 416
#     4  12  27  47  73 104 142 187 235 291 355 420
#     4  10  24  42  70  96 136 182 232 286 348 406
#     4  12  25  46  72 103 142 186 232 290 349 421
#     4  10  24  44  70  96 136 182 232 286 346 406
#     4  11  23  44  67 100 136 180 234 285 347 415
#
# _framework density 21.345503000000001
#
# number of rings (size 3 to 8) (size 9 to 14) (size 15 to 20)
#    0.000    0.800    2.000    4.800    2.800    0.000 
#    7.200    0.000    0.000    0.000    0.000    0.000 
#    0.000    0.000    0.000    0.000    0.000    0.000 
#
# Total GULP energy -223410.550087 kJ/mol
# GULP energy per Si atom -5585.263752 kJ/mol
# Density = 2.129692 g / cm^3
# Si number density = 21.345503 Si / 1000 Ang^3
#
#
#
# Elastic Constant Matrix: (Units=GPa)
#
#
# Indices 1 2 3 4 5 6 
#
# 1 139.1161 46.9448 87.5672 0.0000 0.0000 0.0000
# 2 46.9448 127.2858 71.0168 0.0000 0.0000 0.0000
# 3 87.5672 71.0168 181.7034 0.0000 0.0000 0.0000
# 4 0.0000 0.0000 0.0000 28.7370 0.0000 0.0000
# 5 0.0000 0.0000 0.0000 0.0000 9.6469 0.0000
# 6 0.0000 0.0000 0.0000 0.0000 0.0000 25.9485
#
#
#
# Elastic Compliance Matrix: (Units=1/GPa)
#
#
# Indices 1 2 3 4 5 6 
#
# 1 0.010494 -0.001341 -0.004533 0.000000 0.000000 0.000000
# 2 -0.001341 0.010219 -0.003347 0.000000 0.000000 0.000000
# 3 -0.004533 -0.003347 0.008997 0.000000 0.000000 0.000000
# 4 0.000000 0.000000 0.000000 0.034798 0.000000 0.000000
# 5 0.000000 0.000000 0.000000 0.000000 0.103660 0.000000
# 6 0.000000 0.000000 0.000000 0.000000 0.000000 0.038538
#
#
# Mechanical properties :
#
#
# Convention : Reuss Voigt Hill
#
# Bulk Modulus (GPa) = 88.76620 95.46253 92.11437
# Shear Modulus (GPa) = 21.84310 29.03825 25.44067
#
# Velocity S-wave (km/s) = 3.20239 3.69235 3.45607
# Velocity P-wave (km/s) = 7.43972 7.93710 7.69243
#
# Compressibility (1/GPa) = 0.01126555
#
# Stress axis : x y z
#
# Youngs Moduli (GPa) = 95.28968 97.86020 111.15432
#
# Poissons Ratio (x) = 0.13125 0.50389
# Poissons Ratio (y) = 0.12780 0.37209
# Poissons Ratio (z) = 0.43197 0.32759
#
# Static dielectric constant tensor:
#      x y z
#    x 1.807420 0.000000 0.000000 
#    y 0.000000 1.761630 0.000000 
#    z 0.000000 0.000000 1.758040 
# 
# From -- ./inp_files/2613.got.cif
#   From: 2010.05.17/outbox.cif.g08.bks.cpg/sg56_2_cif.got.tgz:2613.got - 2010.06.03 13:42:01.
