data_PCOD9432036
_publ_section_title
;
Structure prediction by ZEFSAII (Michael W. Deem and Ramdas Pophale) SiO2 
 PCOD9432036
Probable space group: P C C N
;
_chemical_formula_sum "Si O2"
_cell_formula_units_Z 64
_cell_length_a 9.463779
_cell_length_b 13.957464
_cell_length_c 22.537904
_cell_angle_alpha 90.000000
_cell_angle_beta 90.000000
_cell_angle_gamma 90.000000
_cell_volume 2977.039733
_symmetry_space_group_name_H-M "P C C N"
_symmetry_group_IT_number 56
_symmetry_cell_setting 'orthorhombic'
loop_
_space_group_symop_operation_xyz
x,y,z
1/2-x,1/2-y,z
1/2+x,-y,1/2-z
-x,1/2+y,1/2-z
-x,-y,-z
1/2+x,1/2+y,-z
1/2-x,y,1/2+z
x,1/2-y,1/2+z
loop_
_atom_site_type_symbol
_atom_site_label
_atom_site_fract_x
_atom_site_fract_y
_atom_site_fract_z
Si Si1 0.143384 0.007851 0.689486
Si Si2 0.442793 0.990517 0.431746
Si Si3 0.403780 0.720948 0.798328
Si Si4 0.387961 0.185747 0.112098
Si Si5 0.968052 0.989565 0.800262
Si Si6 0.383376 0.188637 0.422613
Si Si7 0.099222 0.715272 0.162896
Si Si8 0.593302 0.282438 0.029051
O O1 0.142281 0.078748 0.632966
O O2 0.302852 0.012482 0.714234
O O3 0.101945 0.900620 0.667662
O O4 0.043255 0.041131 0.744258
O O5 0.532469 0.013417 0.371411
O O6 0.402465 0.878771 0.430651
O O7 0.500000 0.000000 0.500000
O O8 0.333428 0.077620 0.422305
O O9 0.250000 0.750000 0.823931
O O10 0.532704 0.768090 0.832167
O O11 0.442015 0.608936 0.798824
O O12 0.400815 0.752487 0.730208
O O13 0.250000 0.250000 0.098666
O O14 0.501068 0.200275 0.060352
O O15 0.250000 0.250000 0.440432
O O16 0.461118 0.238347 0.366972
O O17 0.507448 0.192449 0.470560
O O18 0.250000 0.750000 0.136179
O O19 0.750000 0.250000 0.016708
#
# Coordination Sequence:
#
# PCOD9432036 Si02
#       8
#     8   8   8   8   8   8   8   8
#     4  11  26  39  65 102 133 179 221 288 339 406
#     4  10  23  43  69  96 128 177 223 271 335 404
#     4  10  22  39  64  94 130 176 216 274 337 401
#     4  12  23  40  64  97 136 168 222 279 341 397
#     4  11  23  43  64  98 139 175 229 280 340 412
#     4  11  25  44  67  97 134 173 223 283 333 397
#     4  10  23  43  63  90 132 177 221 267 334 405
#     4  11  24  44  71  98 128 177 226 274 337 414
#
# _framework density 21.497865000000001
#
# number of rings (size 3 to 8) (size 9 to 14) (size 15 to 20)
#    0.000    1.250    2.500    1.875    7.000    5.500 
#    0.000    1.250    0.000    0.000    0.000    0.000 
#    0.000    0.000    0.000    0.000    0.000    0.000 
#
# Total GULP energy -356476.311708 kJ/mol
# GULP energy per Si atom -5569.942370 kJ/mol
# Density = 2.144893 g / cm^3
# Si number density = 21.497865 Si / 1000 Ang^3
#
#
#
# Elastic Constant Matrix: (Units=GPa)
#
#
# Indices 1 2 3 4 5 6 
#
# 1 111.4372 16.0037 16.4998 0.0000 0.0000 0.0000
# 2 16.0037 66.8996 5.4416 0.0000 0.0000 0.0000
# 3 16.4998 5.4416 78.6608 0.0000 0.0000 0.0000
# 4 0.0000 0.0000 0.0000 12.9914 0.0000 0.0000
# 5 0.0000 0.0000 0.0000 0.0000 36.2779 0.0000
# 6 0.0000 0.0000 0.0000 0.0000 0.0000 24.7259
#
#
#
# Elastic Compliance Matrix: (Units=1/GPa)
#
#
# Indices 1 2 3 4 5 6 
#
# 1 0.009555 -0.002135 -0.001857 0.000000 0.000000 0.000000
# 2 -0.002135 0.015509 -0.000625 0.000000 0.000000 0.000000
# 3 -0.001857 -0.000625 0.013145 0.000000 0.000000 0.000000
# 4 0.000000 0.000000 0.000000 0.076974 0.000000 0.000000
# 5 0.000000 0.000000 0.000000 0.000000 0.027565 0.000000
# 6 0.000000 0.000000 0.000000 0.000000 0.000000 0.040443
#
#
# Mechanical properties :
#
#
# Convention : Reuss Voigt Hill
#
# Bulk Modulus (GPa) = 34.51015 36.98752 35.74884
# Shear Modulus (GPa) = 24.74215 29.40253 27.07234
#
# Velocity S-wave (km/s) = 3.39619 3.70225 3.55252
# Velocity P-wave (km/s) = 5.60950 5.95971 5.78725
#
# Compressibility (1/GPa) = 0.02897698
#
# Stress axis : x y z
#
# Youngs Moduli (GPa) = 104.65579 64.47742 76.07172
#
# Poissons Ratio (x) = 0.13764 0.14123
# Poissons Ratio (y) = 0.22341 0.04755
# Poissons Ratio (z) = 0.19430 0.04031
#
# Static dielectric constant tensor:
#      x y z
#    x 1.730690 0.000000 0.000000 
#    y 0.000000 1.928060 0.000000 
#    z 0.000000 0.000000 1.839980 
# 
# From -- ./inp_files/20680.got.cif
#   From: 2010.05.17/outbox.cif.g08.bks.cpg/sg56_11_cif.got.tgz:20680.got - 2010.06.03 13:42:01.
