data_PCOD9432670
_publ_section_title
;
Structure prediction by ZEFSAII (Michael W. Deem and Ramdas Pophale) SiO2 
 PCOD9432670
Probable space group: P C C N
;
_chemical_formula_sum "Si O2"
_cell_formula_units_Z 48
_cell_length_a 9.090888
_cell_length_b 9.611968
_cell_length_c 25.993054
_cell_angle_alpha 90.000000
_cell_angle_beta 90.000000
_cell_angle_gamma 90.000000
_cell_volume 2271.307488
_symmetry_space_group_name_H-M "P C C N"
_symmetry_group_IT_number 56
_symmetry_cell_setting 'orthorhombic'
loop_
_space_group_symop_operation_xyz
x,y,z
1/2-x,1/2-y,z
1/2+x,-y,1/2-z
-x,1/2+y,1/2-z
-x,-y,-z
1/2+x,1/2+y,-z
1/2-x,y,1/2+z
x,1/2-y,1/2+z
loop_
_atom_site_type_symbol
_atom_site_label
_atom_site_fract_x
_atom_site_fract_y
_atom_site_fract_z
Si Si1 0.772268 0.080938 0.890653
Si Si2 0.179107 0.600481 0.728581
Si Si3 0.250000 0.250000 0.979114
Si Si4 0.250000 0.750000 0.405153
Si Si5 0.153179 0.122159 0.787649
Si Si6 0.966719 0.899685 0.452974
Si Si7 0.393996 0.459119 0.900189
O O1 0.750000 0.250000 0.896369
O O2 0.787517 0.047992 0.829565
O O3 0.932607 0.044283 0.914334
O O4 0.640094 0.988707 0.914772
O O5 0.250000 0.750000 0.730829
O O6 0.252723 0.509317 0.771926
O O7 0.006018 0.611142 0.737314
O O8 0.296368 0.380701 0.943228
O O9 0.381299 0.222675 0.018337
O O10 0.383814 0.665076 0.431474
O O11 0.159551 0.614296 0.384652
O O12 0.250000 0.250000 0.769414
O O13 0.123174 0.131351 0.848313
O O14 0.000000 0.000000 0.500000
#
# Coordination Sequence:
#
# PCOD9432670 Si02
#       7
#     8   8   4   4   8   8   8
#     4  10  24  46  72 100 140 184 231 285 347 415
#     4  10  23  43  69 100 135 179 228 283 341 410
#     4  12  24  44  70  94 136 180 234 286 338 416
#     4  12  28  44  64 106 138 180 232 290 346 412
#     4  11  23  44  69 102 137 181 225 277 348 415
#     4  12  26  42  68 100 135 181 229 287 347 408
#     4  11  25  44  70 101 135 181 229 285 349 406
#
# _framework density 21.133202000000001
#
# number of rings (size 3 to 8) (size 9 to 14) (size 15 to 20)
#    0.000    1.000    2.500    3.000    4.667    4.000 
#    7.500    0.000    0.000    0.000    0.000    0.000 
#    0.000    0.000    0.000    0.000    0.000    0.000 
#
# Total GULP energy -267693.026712 kJ/mol
# GULP energy per Si atom -5576.938056 kJ/mol
# Density = 2.108510 g / cm^3
# Si number density = 21.133202 Si / 1000 Ang^3
#
#
#
# Elastic Constant Matrix: (Units=GPa)
#
#
# Indices 1 2 3 4 5 6 
#
# 1 172.0563 36.6518 36.7590 0.0000 0.0000 0.0000
# 2 36.6518 65.2264 13.1819 0.0000 0.0000 0.0000
# 3 36.7590 13.1819 40.6005 0.0000 0.0000 0.0000
# 4 0.0000 0.0000 0.0000 26.1885 0.0000 0.0000
# 5 0.0000 0.0000 0.0000 0.0000 21.6195 0.0000
# 6 0.0000 0.0000 0.0000 0.0000 0.0000 42.8281
#
#
#
# Elastic Compliance Matrix: (Units=1/GPa)
#
#
# Indices 1 2 3 4 5 6 
#
# 1 0.007767 -0.003150 -0.006009 0.000000 0.000000 0.000000
# 2 -0.003150 0.017685 -0.002890 0.000000 0.000000 0.000000
# 3 -0.006009 -0.002890 0.031009 0.000000 0.000000 0.000000
# 4 0.000000 0.000000 0.000000 0.038185 0.000000 0.000000
# 5 0.000000 0.000000 0.000000 0.000000 0.046254 0.000000
# 6 0.000000 0.000000 0.000000 0.000000 0.000000 0.023349
#
#
# Mechanical properties :
#
#
# Convention : Reuss Voigt Hill
#
# Bulk Modulus (GPa) = 30.89960 50.11872 40.50916
# Shear Modulus (GPa) = 25.10847 30.87993 27.99420
#
# Velocity S-wave (km/s) = 3.45063 3.82672 3.64353
# Velocity P-wave (km/s) = 5.52530 6.57968 6.07540
#
# Compressibility (1/GPa) = 0.03236288
#
# Stress axis : x y z
#
# Youngs Moduli (GPa) = 128.75129 56.54425 32.24842
#
# Poissons Ratio (x) = 0.17811 0.19379
# Poissons Ratio (y) = 0.40555 0.09320
# Poissons Ratio (z) = 0.77371 0.16342
#
# Static dielectric constant tensor:
#      x y z
#    x 1.760190 0.000000 0.000000 
#    y 0.000000 1.613140 0.000000 
#    z 0.000000 0.000000 1.754770 
# 
# From -- ./inp_files/23285.got.cif
#   From: 2010.05.17/outbox.cif.g08.bks.cpg/sg56_12_cif.got.tgz:23285.got - 2010.06.03 13:42:01.
