data_PCOD9432800
_publ_section_title
;
Structure prediction by ZEFSAII (Michael W. Deem and Ramdas Pophale) SiO2 
 PCOD9432800
Probable space group: P C C N
;
_chemical_formula_sum "Si O2"
_cell_formula_units_Z 40
_cell_length_a 7.629884
_cell_length_b 14.436280
_cell_length_c 13.526861
_cell_angle_alpha 90.000000
_cell_angle_beta 90.000000
_cell_angle_gamma 90.000000
_cell_volume 1489.945077
_symmetry_space_group_name_H-M "P C C N"
_symmetry_group_IT_number 56
_symmetry_cell_setting 'orthorhombic'
loop_
_space_group_symop_operation_xyz
x,y,z
1/2-x,1/2-y,z
1/2+x,-y,1/2-z
-x,1/2+y,1/2-z
-x,-y,-z
1/2+x,1/2+y,-z
1/2-x,y,1/2+z
x,1/2-y,1/2+z
loop_
_atom_site_type_symbol
_atom_site_label
_atom_site_fract_x
_atom_site_fract_y
_atom_site_fract_z
Si Si1 0.326123 0.074270 0.547925
Si Si2 0.088685 0.197638 0.692015
Si Si3 0.453826 0.757943 0.508339
Si Si4 0.045137 0.029942 0.787900
Si Si5 0.093605 0.426915 0.886329
O O1 0.205865 0.137407 0.616604
O O2 0.439511 0.145739 0.479697
O O3 0.546692 0.981626 0.380363
O O4 0.183435 0.019930 0.480690
O O5 0.250000 0.250000 0.746133
O O6 0.968259 0.129698 0.755409
O O7 0.970919 0.250609 0.612106
O O8 0.250000 0.750000 0.533415
O O9 0.542793 0.673125 0.569324
O O10 0.241807 0.059329 0.813263
O O11 0.049984 0.966612 0.688914
#
# Coordination Sequence:
#
# PCOD9432800 Si02
#       5
#     8   8   8   8   8
#     4  10  23  48  72 110 162 199 261 325 384 466
#     4   9  21  44  73 103 154 211 260 317 390 457
#     4  10  24  47  75 108 155 209 261 322 389 468
#     4  12  24  46  75 114 153 202 268 321 390 461
#     4  11  26  46  72 112 154 209 256 326 395 461
#
# _framework density 26.846627000000002
#
# number of rings (size 3 to 8) (size 9 to 14) (size 15 to 20)
#    0.000    1.600    2.000    2.400    2.800    6.400 
#    0.000    1.000    0.000    0.000    0.000    0.000 
#    0.000    0.000    0.000    0.000    0.000    0.000 
#
# Total GULP energy -223160.908891 kJ/mol
# GULP energy per Si atom -5579.022722 kJ/mol
# Density = 2.678552 g / cm^3
# Si number density = 26.846627 Si / 1000 Ang^3
#
#
#
# Elastic Constant Matrix: (Units=GPa)
#
#
# Indices 1 2 3 4 5 6 
#
# 1 147.3127 46.2790 43.2936 0.0000 0.0000 0.0000
# 2 46.2790 107.3322 64.8797 0.0000 0.0000 0.0000
# 3 43.2936 64.8797 148.4658 0.0000 0.0000 0.0000
# 4 0.0000 0.0000 0.0000 63.0719 0.0000 0.0000
# 5 0.0000 0.0000 0.0000 0.0000 36.3800 0.0000
# 6 0.0000 0.0000 0.0000 0.0000 0.0000 40.2686
#
#
#
# Elastic Compliance Matrix: (Units=1/GPa)
#
#
# Indices 1 2 3 4 5 6 
#
# 1 0.007987 -0.002767 -0.001120 0.000000 0.000000 0.000000
# 2 -0.002767 0.013620 -0.005145 0.000000 0.000000 0.000000
# 3 -0.001120 -0.005145 0.009311 0.000000 0.000000 0.000000
# 4 0.000000 0.000000 0.000000 0.015855 0.000000 0.000000
# 5 0.000000 0.000000 0.000000 0.000000 0.027488 0.000000
# 6 0.000000 0.000000 0.000000 0.000000 0.000000 0.024833
#
#
# Mechanical properties :
#
#
# Convention : Reuss Voigt Hill
#
# Bulk Modulus (GPa) = 77.79901 79.11280 78.45591
# Shear Modulus (GPa) = 41.17235 44.52132 42.84683
#
# Velocity S-wave (km/s) = 3.92039 4.07671 3.99931
# Velocity P-wave (km/s) = 7.03808 7.18970 7.11430
#
# Compressibility (1/GPa) = 0.01285363
#
# Stress axis : x y z
#
# Youngs Moduli (GPa) = 125.21024 73.42205 107.40502
#
# Poissons Ratio (x) = 0.20313 0.12028
# Poissons Ratio (y) = 0.34641 0.55261
# Poissons Ratio (z) = 0.14022 0.37777
#
# Static dielectric constant tensor:
#      x y z
#    x 2.150270 0.000000 0.000000 
#    y 0.000000 2.326070 0.000000 
#    z 0.000000 0.000000 2.219690 
# 
# From -- ./inp_files/14922.got.cif
#   From: 2010.05.17/outbox.cif.g08.bks.cpg/sg56_8_cif.got.tgz:14922.got - 2010.06.03 13:42:01.
