data_PCOD9432558
_publ_section_title
;
Structure prediction by ZEFSAII (Michael W. Deem and Ramdas Pophale) SiO2 
 PCOD9432558
Probable space group: P C C N
;
_chemical_formula_sum "Si O2"
_cell_formula_units_Z 48
_cell_length_a 8.751641
_cell_length_b 8.924471
_cell_length_c 32.307245
_cell_angle_alpha 90.000000
_cell_angle_beta 90.000000
_cell_angle_gamma 90.000000
_cell_volume 2523.317514
_symmetry_space_group_name_H-M "P C C N"
_symmetry_group_IT_number 56
_symmetry_cell_setting 'orthorhombic'
loop_
_space_group_symop_operation_xyz
x,y,z
1/2-x,1/2-y,z
1/2+x,-y,1/2-z
-x,1/2+y,1/2-z
-x,-y,-z
1/2+x,1/2+y,-z
1/2-x,y,1/2+z
x,1/2-y,1/2+z
loop_
_atom_site_type_symbol
_atom_site_label
_atom_site_fract_x
_atom_site_fract_y
_atom_site_fract_z
Si Si1 0.750000 0.750000 0.498413
Si Si2 0.922658 0.718303 0.836874
Si Si3 0.792031 0.994904 0.067509
Si Si4 0.415431 0.073375 0.797802
Si Si5 0.497070 0.786276 0.931008
Si Si6 0.131658 0.615006 0.279753
Si Si7 0.750000 0.750000 0.137554
O O1 0.801069 0.614927 0.528275
O O2 0.614397 0.697816 0.468410
O O3 0.750000 0.750000 0.822783
O O4 0.997139 0.569050 0.817476
O O5 0.926308 0.701921 0.886092
O O6 0.034795 0.850071 0.820975
O O7 0.634250 0.088240 0.066757
O O8 0.921120 0.121659 0.067066
O O9 0.793157 0.889075 0.107967
O O10 0.513716 0.115228 0.757937
O O11 0.388730 0.196832 0.833046
O O12 0.243468 0.026063 0.784268
O O13 0.250000 0.750000 0.273186
#
# Coordination Sequence:
#
# PCOD9432558 Si02
#       7
#     4   8   8   8   8   8   4
#     4  11  22  40  65  96 120 156 205 258 312 367
#     4  11  22  40  63  90 122 166 216 259 313 376
#     4  10  23  40  64  89 126 163 202 253 313 382
#     4  11  23  40  62  89 125 167 211 267 316 371
#     4  11  21  41  63  92 122 164 206 252 310 381
#     4  10  24  39  61  89 121 165 217 256 316 371
#     4  11  22  38  63  90 122 164 209 254 316 363
#
# _framework density 19.022577999999999
#
# number of rings (size 3 to 8) (size 9 to 14) (size 15 to 20)
#    0.000    1.333    2.500    3.000   10.500    0.000 
#    3.000    0.000    0.000    0.000    0.000    0.000 
#    0.000    0.000    0.000    0.000    0.000    0.000 
#
# Total GULP energy -268122.693106 kJ/mol
# GULP energy per Si atom -5585.889440 kJ/mol
# Density = 1.897928 g / cm^3
# Si number density = 19.022578 Si / 1000 Ang^3
#
#
#
# Elastic Constant Matrix: (Units=GPa)
#
#
# Indices 1 2 3 4 5 6 
#
# 1 70.7093 7.5835 15.0794 0.0000 0.0000 0.0000
# 2 7.5835 57.2606 20.4537 0.0000 0.0000 0.0000
# 3 15.0794 20.4537 103.8370 0.0000 0.0000 0.0000
# 4 0.0000 0.0000 0.0000 10.7937 0.0000 0.0000
# 5 0.0000 0.0000 0.0000 0.0000 16.3330 0.0000
# 6 0.0000 0.0000 0.0000 0.0000 0.0000 15.6833
#
#
#
# Elastic Compliance Matrix: (Units=1/GPa)
#
#
# Indices 1 2 3 4 5 6 
#
# 1 0.014680 -0.001272 -0.001881 0.000000 0.000000 0.000000
# 2 -0.001272 0.018896 -0.003537 0.000000 0.000000 0.000000
# 3 -0.001881 -0.003537 0.010600 0.000000 0.000000 0.000000
# 4 0.000000 0.000000 0.000000 0.092646 0.000000 0.000000
# 5 0.000000 0.000000 0.000000 0.000000 0.061226 0.000000
# 6 0.000000 0.000000 0.000000 0.000000 0.000000 0.063762
#
#
# Mechanical properties :
#
#
# Convention : Reuss Voigt Hill
#
# Bulk Modulus (GPa) = 32.47292 35.33778 33.90535
# Shear Modulus (GPa) = 17.51573 21.14135 19.32854
#
# Velocity S-wave (km/s) = 3.03774 3.33736 3.19107
# Velocity P-wave (km/s) = 5.42325 5.78513 5.60711
#
# Compressibility (1/GPa) = 0.03079489
#
# Stress axis : x y z
#
# Youngs Moduli (GPa) = 68.11963 52.92110 94.33548
#
# Poissons Ratio (x) = 0.06733 0.17747
# Poissons Ratio (y) = 0.08666 0.33370
# Poissons Ratio (z) = 0.12815 0.18720
#
# Static dielectric constant tensor:
#      x y z
#    x 1.647010 0.000000 0.000000 
#    y 0.000000 1.684520 0.000000 
#    z 0.000000 0.000000 1.643670 
# 
# From -- ./inp_files/23258.got.cif
#   From: 2010.05.17/outbox.cif.g08.bks.cpg/sg56_12_cif.got.tgz:23258.got - 2010.06.03 13:42:01.
