data_PCOD9432650
_publ_section_title
;
Structure prediction by ZEFSAII (Michael W. Deem and Ramdas Pophale) SiO2 
 PCOD9432650
Probable space group: P C C N
;
_chemical_formula_sum "Si O2"
_cell_formula_units_Z 60
_cell_length_a 11.459510
_cell_length_b 9.016234
_cell_length_c 27.173837
_cell_angle_alpha 90.000000
_cell_angle_beta 90.000000
_cell_angle_gamma 90.000000
_cell_volume 2807.644961
_symmetry_space_group_name_H-M "P C C N"
_symmetry_group_IT_number 56
_symmetry_cell_setting 'orthorhombic'
loop_
_space_group_symop_operation_xyz
x,y,z
1/2-x,1/2-y,z
1/2+x,-y,1/2-z
-x,1/2+y,1/2-z
-x,-y,-z
1/2+x,1/2+y,-z
1/2-x,y,1/2+z
x,1/2-y,1/2+z
loop_
_atom_site_type_symbol
_atom_site_label
_atom_site_fract_x
_atom_site_fract_y
_atom_site_fract_z
Si Si1 0.362762 0.315444 0.499278
Si Si2 0.554879 0.111168 0.724995
Si Si3 0.112226 0.272106 0.297098
Si Si4 0.421168 0.796421 0.628558
Si Si5 0.890946 0.243604 0.620888
Si Si6 0.032640 0.053881 0.053873
Si Si7 0.250000 0.750000 0.208982
Si Si8 0.960817 0.031933 0.426842
O O1 0.250000 0.250000 0.472656
O O2 0.382609 0.188524 0.540461
O O3 0.459216 0.353463 0.458305
O O4 0.373299 0.460162 0.533331
O O5 0.444886 0.157839 0.758326
O O6 0.557384 0.202280 0.673522
O O7 0.667738 0.155659 0.756395
O O8 0.571351 0.937053 0.717556
O O9 0.250000 0.250000 0.299450
O O10 0.049484 0.259426 0.349856
O O11 0.337963 0.838593 0.673650
O O12 0.385537 0.634696 0.608905
O O13 0.421613 0.923414 0.588095
O O14 0.750000 0.250000 0.625100
O O15 0.925073 0.369862 0.581641
O O16 0.955602 0.092368 0.600148
O O17 0.000000 0.000000 0.000000
#
# Coordination Sequence:
#
# PCOD9432650 Si02
#       8
#     8   8   8   8   8   8   4   8
#     4  10  23  43  65  93 140 184 225 283 349 409
#     4  11  25  48  70 107 143 185 241 299 363 443
#     4  11  28  45  77 104 142 189 236 297 369 427
#     4  11  24  44  69 101 137 181 239 289 358 428
#     4  11  25  42  70  99 140 183 229 290 354 420
#     4  11  23  44  64 101 137 179 232 290 340 430
#     4  10  26  42  72  94 144 180 234 300 364 428
#     4  10  24  42  64 103 133 175 239 284 340 427
#
# _framework density 21.370225000000001
#
# number of rings (size 3 to 8) (size 9 to 14) (size 15 to 20)
#    0.000    1.333    3.333    0.000   13.067    0.533 
#    1.200    2.667    0.000    0.000    0.000    0.000 
#    0.000    0.000    0.000    0.000    0.000    0.000 
#
# Total GULP energy -334516.482938 kJ/mol
# GULP energy per Si atom -5575.274716 kJ/mol
# Density = 2.132159 g / cm^3
# Si number density = 21.370225 Si / 1000 Ang^3
#
#
#
# Elastic Constant Matrix: (Units=GPa)
#
#
# Indices 1 2 3 4 5 6 
#
# 1 87.3896 13.0726 19.6567 0.0000 0.0000 0.0000
# 2 13.0726 86.2500 33.4151 0.0000 0.0000 0.0000
# 3 19.6567 33.4151 115.2371 0.0000 0.0000 0.0000
# 4 0.0000 0.0000 0.0000 23.5676 0.0000 0.0000
# 5 0.0000 0.0000 0.0000 0.0000 23.0183 0.0000
# 6 0.0000 0.0000 0.0000 0.0000 0.0000 18.5242
#
#
#
# Elastic Compliance Matrix: (Units=1/GPa)
#
#
# Indices 1 2 3 4 5 6 
#
# 1 0.012001 -0.001156 -0.001712 0.000000 0.000000 0.000000
# 2 -0.001156 0.013173 -0.003623 0.000000 0.000000 0.000000
# 3 -0.001712 -0.003623 0.010020 0.000000 0.000000 0.000000
# 4 0.000000 0.000000 0.000000 0.042431 0.000000 0.000000
# 5 0.000000 0.000000 0.000000 0.000000 0.043444 0.000000
# 6 0.000000 0.000000 0.000000 0.000000 0.000000 0.053984
#
#
# Mechanical properties :
#
#
# Convention : Reuss Voigt Hill
#
# Bulk Modulus (GPa) = 45.01756 46.79616 45.90686
# Shear Modulus (GPa) = 25.58364 27.87083 26.72724
#
# Velocity S-wave (km/s) = 3.46376 3.61527 3.54033
# Velocity P-wave (km/s) = 6.09164 6.27474 6.18387
#
# Compressibility (1/GPa) = 0.02221356
#
# Stress axis : x y z
#
# Youngs Moduli (GPa) = 83.32665 75.91383 99.79828
#
# Poissons Ratio (x) = 0.08773 0.17085
# Poissons Ratio (y) = 0.09630 0.36153
# Poissons Ratio (z) = 0.14265 0.27500
#
# Static dielectric constant tensor:
#      x y z
#    x 1.845850 0.000000 0.000000 
#    y 0.000000 1.560240 0.000000 
#    z 0.000000 0.000000 1.829130 
# 
# From -- ./inp_files/22327.got.cif
#   From: 2010.05.17/outbox.cif.g08.bks.cpg/sg56_12_cif.got.tgz:22327.got - 2010.06.03 13:42:01.
