data_PCOD9432136
_publ_section_title
;
Structure prediction by ZEFSAII (Michael W. Deem and Ramdas Pophale) SiO2 
 PCOD9432136
Probable space group: P C C N
;
_chemical_formula_sum "Si O2"
_cell_formula_units_Z 40
_cell_length_a 5.242239
_cell_length_b 19.758157
_cell_length_c 19.069048
_cell_angle_alpha 90.000000
_cell_angle_beta 90.000000
_cell_angle_gamma 90.000000
_cell_volume 1975.114426
_symmetry_space_group_name_H-M "P C C N"
_symmetry_group_IT_number 56
_symmetry_cell_setting 'orthorhombic'
loop_
_space_group_symop_operation_xyz
x,y,z
1/2-x,1/2-y,z
1/2+x,-y,1/2-z
-x,1/2+y,1/2-z
-x,-y,-z
1/2+x,1/2+y,-z
1/2-x,y,1/2+z
x,1/2-y,1/2+z
loop_
_atom_site_type_symbol
_atom_site_label
_atom_site_fract_x
_atom_site_fract_y
_atom_site_fract_z
Si Si1 0.131640 0.321350 0.900911
Si Si2 0.354716 0.893543 0.378086
Si Si3 0.848690 0.676383 0.936369
Si Si4 0.877196 0.099720 0.285351
Si Si5 0.865545 0.952465 0.151192
O O1 0.250000 0.250000 0.879380
O O2 0.321317 0.386205 0.896988
O O3 0.918979 0.341515 0.843649
O O4 0.065684 0.315699 0.982517
O O5 0.598870 0.868781 0.421883
O O6 0.382354 0.878336 0.294967
O O7 0.093684 0.856860 0.400070
O O8 0.347575 0.975064 0.385056
O O9 0.750000 0.750000 0.911375
O O10 0.625176 0.060367 0.307766
O O11 0.124504 0.053138 0.297183
#
# Coordination Sequence:
#
# PCOD9432136 Si02
#       5
#     8   8   8   8   8
#     4   9  24  45  66  92 133 174 221 263 325 393
#     4  12  23  42  69  95 136 166 218 273 328 389
#     4  11  26  44  63  94 134 175 212 274 330 385
#     4  10  22  41  65  96 127 170 217 267 324 387
#     4  10  22  40  68  97 127 172 218 268 327 379
#
# _framework density 20.251991
#
# number of rings (size 3 to 8) (size 9 to 14) (size 15 to 20)
#    1.200    0.400    0.000    4.200    2.800    3.200 
#    3.600    0.000    0.000    0.000    0.000    0.000 
#    0.000    0.000    0.000    0.000    0.000    0.000 
#
# Total GULP energy -222904.262918 kJ/mol
# GULP energy per Si atom -5572.606573 kJ/mol
# Density = 2.020590 g / cm^3
# Si number density = 20.251991 Si / 1000 Ang^3
#
#
#
# Elastic Constant Matrix: (Units=GPa)
#
#
# Indices 1 2 3 4 5 6 
#
# 1 3052.5842 3663.5225 1641.0144 0.0000 0.0000 0.0000
# 2 3663.5225 4679.8448 2042.7396 0.0000 0.0000 0.0000
# 3 1641.0144 2042.7396 933.2065 0.0000 0.0000 0.0000
# 4 0.0000 0.0000 0.0000 33.8498 0.0000 0.0000
# 5 0.0000 0.0000 0.0000 0.0000 38.2653 0.0000
# 6 0.0000 0.0000 0.0000 0.0000 0.0000 16.8022
#
#
#
# Elastic Compliance Matrix: (Units=1/GPa)
#
#
# Indices 1 2 3 4 5 6 
#
# 1 0.007021 -0.002407 -0.007079 0.000000 0.000000 0.000000
# 2 -0.002407 0.005623 -0.008078 0.000000 0.000000 0.000000
# 3 -0.007079 -0.008078 0.031200 0.000000 0.000000 0.000000
# 4 0.000000 0.000000 0.000000 0.029542 0.000000 0.000000
# 5 0.000000 0.000000 0.000000 0.000000 0.026133 0.000000
# 6 0.000000 0.000000 0.000000 0.000000 0.000000 0.059516
#
#
# Mechanical properties :
#
#
# Convention : Reuss Voigt Hill
#
# Bulk Modulus (GPa) = 114.68517 2595.57649 1355.13083
# Shear Modulus (GPa) = 25.37194 105.67407 65.52300
#
# Velocity S-wave (km/s) = 3.54335 7.23138 5.69422
# Velocity P-wave (km/s) = 8.57277 36.79873 26.71740
#
# Compressibility (1/GPa) = 0.00871952
#
# Stress axis : x y z
#
# Youngs Moduli (GPa) = 142.42924 177.82861 32.05097
#
# Poissons Ratio (x) = 0.42795 0.22687
# Poissons Ratio (y) = 0.34276 0.25889
# Poissons Ratio (z) = 1.00819 1.43642
#
# Static dielectric constant tensor:
#      x y z
#    x 1.700910 0.000000 0.000000 
#    y 0.000000 1.746640 0.000000 
#    z 0.000000 0.000000 1.701330 
# 
# From -- ./inp_files/13822.got.cif
#   From: 2010.05.17/outbox.cif.g08.bks.cpg/sg56_7_cif.got.tgz:13822.got - 2010.06.03 13:42:01.
