data_PCOD9432348
_publ_section_title
;
Structure prediction by ZEFSAII (Michael W. Deem and Ramdas Pophale) SiO2 
 PCOD9432348
Probable space group: P C C N
;
_chemical_formula_sum "Si O2"
_cell_formula_units_Z 64
_cell_length_a 11.048574
_cell_length_b 17.557344
_cell_length_c 13.910192
_cell_angle_alpha 90.000000
_cell_angle_beta 90.000000
_cell_angle_gamma 90.000000
_cell_volume 2698.349322
_symmetry_space_group_name_H-M "P C C N"
_symmetry_group_IT_number 56
_symmetry_cell_setting 'orthorhombic'
loop_
_space_group_symop_operation_xyz
x,y,z
1/2-x,1/2-y,z
1/2+x,-y,1/2-z
-x,1/2+y,1/2-z
-x,-y,-z
1/2+x,1/2+y,-z
1/2-x,y,1/2+z
x,1/2-y,1/2+z
loop_
_atom_site_type_symbol
_atom_site_label
_atom_site_fract_x
_atom_site_fract_y
_atom_site_fract_z
Si Si1 0.804185 0.399305 0.269966
Si Si2 0.898574 0.614333 0.907168
Si Si3 0.854765 0.447224 0.069895
Si Si4 0.980342 0.151321 0.045721
Si Si5 0.478821 0.758732 0.777238
Si Si6 0.231067 0.837545 0.557380
Si Si7 0.614734 0.776921 0.083271
Si Si8 0.675747 0.526591 0.914081
O O1 0.783738 0.437711 0.168787
O O2 0.697603 0.375271 0.341749
O O3 0.865916 0.463938 0.336449
O O4 0.874959 0.319553 0.254283
O O5 0.935392 0.683597 0.837232
O O6 0.771760 0.584053 0.866008
O O7 0.001962 0.546849 0.906189
O O8 0.880966 0.648023 0.015465
O O9 0.862820 0.362683 0.021891
O O10 0.770058 0.494827 0.997196
O O11 0.946547 0.192131 0.146831
O O12 0.061860 0.076173 0.053774
O O13 0.054516 0.212255 0.983370
O O14 0.858519 0.135745 0.987379
O O15 0.540105 0.723249 0.682488
O O16 0.250000 0.750000 0.568005
O O17 0.750000 0.750000 0.105324
#
# Coordination Sequence:
#
# PCOD9432348 Si02
#       8
#     8   8   8   8   8   8   8   8
#     4  10  23  43  65  99 133 182 232 279 346 414
#     4  10  22  43  66  94 138 174 231 283 355 421
#     4  10  24  44  63  95 134 179 220 285 342 419
#     4  11  24  43  66 103 133 181 227 295 352 412
#     4  10  23  40  67  98 135 173 239 290 342 419
#     4  11  22  43  70  93 135 175 228 283 342 408
#     4  11  21  37  65  98 131 175 225 293 354 406
#     4  11  24  43  68  97 139 181 228 282 357 426
#
# _framework density 23.718204
#
# number of rings (size 3 to 8) (size 9 to 14) (size 15 to 20)
#    0.000    1.500    2.500    2.625    1.750    5.500 
#    6.750    0.000    0.000    0.000    0.000    0.000 
#    0.000    0.000    0.000    0.000    0.000    0.000 
#
# Total GULP energy -356999.357601 kJ/mol
# GULP energy per Si atom -5578.114963 kJ/mol
# Density = 2.366422 g / cm^3
# Si number density = 23.718204 Si / 1000 Ang^3
#
#
#
# Elastic Constant Matrix: (Units=GPa)
#
#
# Indices 1 2 3 4 5 6 
#
# 1 82.8662 18.3494 10.1516 0.0000 0.0000 0.0000
# 2 18.3494 75.4405 29.4571 0.0000 0.0000 0.0000
# 3 10.1516 29.4571 151.9832 0.0000 0.0000 0.0000
# 4 0.0000 0.0000 0.0000 30.9921 0.0000 0.0000
# 5 0.0000 0.0000 0.0000 0.0000 19.5149 0.0000
# 6 0.0000 0.0000 0.0000 0.0000 0.0000 37.4769
#
#
#
# Elastic Compliance Matrix: (Units=1/GPa)
#
#
# Indices 1 2 3 4 5 6 
#
# 1 0.012765 -0.002999 -0.000271 0.000000 0.000000 0.000000
# 2 -0.002999 0.015045 -0.002716 0.000000 0.000000 0.000000
# 3 -0.000271 -0.002716 0.007124 0.000000 0.000000 0.000000
# 4 0.000000 0.000000 0.000000 0.032266 0.000000 0.000000
# 5 0.000000 0.000000 0.000000 0.000000 0.051243 0.000000
# 6 0.000000 0.000000 0.000000 0.000000 0.000000 0.026683
#
#
# Mechanical properties :
#
#
# Convention : Reuss Voigt Hill
#
# Bulk Modulus (GPa) = 43.54939 47.35622 45.45281
# Shear Modulus (GPa) = 30.34849 34.41890 32.38369
#
# Velocity S-wave (km/s) = 3.58095 3.81354 3.69908
# Velocity P-wave (km/s) = 5.95807 6.27697 6.11960
#
# Compressibility (1/GPa) = 0.02296243
#
# Stress axis : x y z
#
# Youngs Moduli (GPa) = 78.33960 66.46595 140.36733
#
# Poissons Ratio (x) = 0.19932 0.03809
# Poissons Ratio (y) = 0.23493 0.38120
# Poissons Ratio (z) = 0.02126 0.18050
#
# Static dielectric constant tensor:
#      x y z
#    x 1.974680 0.000000 0.000000 
#    y 0.000000 2.068220 0.000000 
#    z 0.000000 0.000000 1.911400 
# 
# From -- ./inp_files/11855.got.cif
#   From: 2010.05.17/outbox.cif.g08.bks.cpg/sg56_6_cif.got.tgz:11855.got - 2010.06.03 13:42:01.
