data_PCOD9432119
_publ_section_title
;
Structure prediction by ZEFSAII (Michael W. Deem and Ramdas Pophale) SiO2 
 PCOD9432119
Probable space group: P C C N
;
_chemical_formula_sum "Si O2"
_cell_formula_units_Z 40
_cell_length_a 9.298646
_cell_length_b 9.857927
_cell_length_c 20.075311
_cell_angle_alpha 90.000000
_cell_angle_beta 90.000000
_cell_angle_gamma 90.000000
_cell_volume 1840.210880
_symmetry_space_group_name_H-M "P C C N"
_symmetry_group_IT_number 56
_symmetry_cell_setting 'orthorhombic'
loop_
_space_group_symop_operation_xyz
x,y,z
1/2-x,1/2-y,z
1/2+x,-y,1/2-z
-x,1/2+y,1/2-z
-x,-y,-z
1/2+x,1/2+y,-z
1/2-x,y,1/2+z
x,1/2-y,1/2+z
loop_
_atom_site_type_symbol
_atom_site_label
_atom_site_fract_x
_atom_site_fract_y
_atom_site_fract_z
Si Si1 0.553243 0.848000 0.831364
Si Si2 0.250000 0.250000 0.286117
Si Si3 0.750000 0.250000 0.629866
Si Si4 0.750000 0.750000 0.951531
Si Si5 0.250000 0.750000 0.078409
Si Si6 0.269710 0.989120 0.972931
Si Si7 0.482421 0.126291 0.877674
O O1 0.636208 0.812187 0.764838
O O2 0.391407 0.791922 0.830037
O O3 0.624821 0.792546 0.899926
O O4 0.562852 0.008444 0.838768
O O5 0.158685 0.158083 0.335422
O O6 0.783094 0.384561 0.584609
O O7 0.803566 0.874161 0.998187
O O8 0.404919 0.750779 0.114739
O O9 0.229174 0.614950 0.034477
O O10 0.416729 0.055883 0.944044
#
# Coordination Sequence:
#
# PCOD9432119 Si02
#       7
#     8   4   4   4   4   8   8
#     4  10  24  46  66  96 136 179 226 285 325 396
#     4  11  27  46  66  94 135 181 234 282 330 389
#     4   9  22  41  68  98 131 186 219 268 346 399
#     4  11  21  40  66 102 145 173 208 284 338 397
#     4  11  22  41  74 100 135 182 211 276 352 411
#     4  10  22  40  66 103 142 167 215 280 337 413
#     4  11  24  46  67 101 136 179 229 280 335 404
#
# _framework density 21.736640000000001
#
# number of rings (size 3 to 8) (size 9 to 14) (size 15 to 20)
#    0.000    1.600    2.000    1.200    5.600    6.400 
#    7.200    0.000    0.000    0.000    0.000    0.000 
#    0.000    0.000    0.000    0.000    0.000    0.000 
#
# Total GULP energy -222871.396274 kJ/mol
# GULP energy per Si atom -5571.784907 kJ/mol
# Density = 2.168717 g / cm^3
# Si number density = 21.736640 Si / 1000 Ang^3
#
#
#
# Elastic Constant Matrix: (Units=GPa)
#
#
# Indices 1 2 3 4 5 6 
#
# 1 107.8939 34.0249 51.1751 0.0000 0.0000 0.0000
# 2 34.0249 116.1633 43.7467 0.0000 0.0000 0.0000
# 3 51.1751 43.7467 94.6970 0.0000 0.0000 0.0000
# 4 0.0000 0.0000 0.0000 2.8233 0.0000 0.0000
# 5 0.0000 0.0000 0.0000 0.0000 -37.5850 0.0000
# 6 0.0000 0.0000 0.0000 0.0000 0.0000 34.6559
#
#
#
# Elastic Compliance Matrix: (Units=1/GPa)
#
#
# Indices 1 2 3 4 5 6 
#
# 1 0.012640 -0.001368 -0.006199 0.000000 0.000000 0.000000
# 2 -0.001368 0.010570 -0.004144 0.000000 0.000000 0.000000
# 3 -0.006199 -0.004144 0.015824 0.000000 0.000000 0.000000
# 4 0.000000 0.000000 0.000000 0.354194 0.000000 0.000000
# 5 0.000000 0.000000 0.000000 0.000000 -0.026606 0.000000
# 6 0.000000 0.000000 0.000000 0.000000 0.000000 0.028855
#
#
# Mechanical properties :
#
#
# Convention : Reuss Voigt Hill
#
# Bulk Modulus (GPa) = 64.04874 64.07194 64.06034
# Shear Modulus (GPa) = 11.78963 12.63266 12.21115
#
# Velocity S-wave (km/s) = 2.33144 2.41336 2.37276
# Velocity P-wave (km/s) = 6.06443 6.10788 6.08619
#
# Compressibility (1/GPa) = 0.01561311
#
# Stress axis : x y z
#
# Youngs Moduli (GPa) = 79.11477 94.61004 63.19480
#
# Poissons Ratio (x) = 0.12941 0.39173
# Poissons Ratio (y) = 0.10822 0.26186
# Poissons Ratio (z) = 0.49042 0.39203
#
# Static dielectric constant tensor:
#      x y z
#    x 1.856280 0.000000 0.000000 
#    y 0.000000 1.809380 0.000000 
#    z 0.000000 0.000000 1.851350 
# 
# From -- ./inp_files/20391.got.cif
#   From: 2010.05.17/outbox.cif.g08.bks.cpg/sg56_11_cif.got.tgz:20391.got - 2010.06.03 13:42:01.
