data_PCOD9432203
_publ_section_title
;
Structure prediction by ZEFSAII (Michael W. Deem and Ramdas Pophale) SiO2 
 PCOD9432203
Probable space group: P C C N
;
_chemical_formula_sum "Si O2"
_cell_formula_units_Z 60
_cell_length_a 26.490954
_cell_length_b 5.525986
_cell_length_c 19.702733
_cell_angle_alpha 90.000000
_cell_angle_beta 90.000000
_cell_angle_gamma 90.000000
_cell_volume 2884.256306
_symmetry_space_group_name_H-M "P C C N"
_symmetry_group_IT_number 56
_symmetry_cell_setting 'orthorhombic'
loop_
_space_group_symop_operation_xyz
x,y,z
1/2-x,1/2-y,z
1/2+x,-y,1/2-z
-x,1/2+y,1/2-z
-x,-y,-z
1/2+x,1/2+y,-z
1/2-x,y,1/2+z
x,1/2-y,1/2+z
loop_
_atom_site_type_symbol
_atom_site_label
_atom_site_fract_x
_atom_site_fract_y
_atom_site_fract_z
Si Si1 0.694001 0.358775 0.736673
Si Si2 0.423446 0.212118 0.289545
Si Si3 0.948371 0.582871 0.965868
Si Si4 0.388816 0.946994 0.670120
Si Si5 0.250000 0.250000 0.822326
Si Si6 0.838264 0.042611 0.120677
Si Si7 0.475616 0.571200 0.676147
Si Si8 0.391257 0.570053 0.019028
O O1 0.750000 0.250000 0.745174
O O2 0.655303 0.287984 0.795023
O O3 0.708527 0.636054 0.727337
O O4 0.668385 0.283607 0.665608
O O5 0.396795 0.348927 0.226934
O O6 0.383440 0.102453 0.341555
O O7 0.464746 0.383513 0.325309
O O8 0.458287 0.016523 0.250288
O O9 0.959114 0.604799 0.884977
O O10 0.929693 0.843017 0.993395
O O11 0.000000 0.500000 0.000000
O O12 0.912705 0.345876 0.976687
O O13 0.442085 0.809839 0.663537
O O14 0.371324 0.000482 0.594002
O O15 0.216423 0.078661 0.869198
O O16 0.852650 0.070961 0.043012
#
# Coordination Sequence:
#
# PCOD9432203 Si02
#       8
#     8   8   8   8   4   8   8   8
#     4  10  22  41  67  97 123 166 231 275 343 407
#     4  12  21  37  63  93 132 174 227 268 330 392
#     4  11  24  43  63  94 140 184 225 275 329 407
#     4  11  22  42  63  94 135 172 215 283 332 406
#     4  10  22  42  68  94 128 166 224 290 338 404
#     4  11  24  41  69  98 127 178 225 285 336 412
#     4  11  23  36  61  96 132 175 227 270 325 393
#     4  11  26  42  68  97 137 179 223 274 350 394
#
# _framework density 20.802588
#
# number of rings (size 3 to 8) (size 9 to 14) (size 15 to 20)
#    0.000    1.067    5.333    1.200    1.867    3.200 
#    0.000    2.667    0.000    0.000    0.000    0.000 
#    0.000    0.000    0.000    0.000    0.000    0.000 
#
# Total GULP energy -334456.782983 kJ/mol
# GULP energy per Si atom -5574.279716 kJ/mol
# Density = 2.075524 g / cm^3
# Si number density = 20.802588 Si / 1000 Ang^3
#
#
#
# Elastic Constant Matrix: (Units=GPa)
#
#
# Indices 1 2 3 4 5 6 
#
# 1 88.5638 2.1827 28.5530 0.0000 0.0000 0.0000
# 2 2.1827 28.9253 -7.6975 0.0000 0.0000 0.0000
# 3 28.5530 -7.6975 95.6600 0.0000 0.0000 0.0000
# 4 0.0000 0.0000 0.0000 22.2764 0.0000 0.0000
# 5 0.0000 0.0000 0.0000 0.0000 30.0373 0.0000
# 6 0.0000 0.0000 0.0000 0.0000 0.0000 24.0508
#
#
#
# Elastic Compliance Matrix: (Units=1/GPa)
#
#
# Indices 1 2 3 4 5 6 
#
# 1 0.012605 -0.001995 -0.003923 0.000000 0.000000 0.000000
# 2 -0.001995 0.035644 0.003464 0.000000 0.000000 0.000000
# 3 -0.003923 0.003464 0.011903 0.000000 0.000000 0.000000
# 4 0.000000 0.000000 0.000000 0.044890 0.000000 0.000000
# 5 0.000000 0.000000 0.000000 0.000000 0.033292 0.000000
# 6 0.000000 0.000000 0.000000 0.000000 0.000000 0.041579
#
#
# Mechanical properties :
#
#
# Convention : Reuss Voigt Hill
#
# Bulk Modulus (GPa) = 18.10158 28.80282 23.45220
# Shear Modulus (GPa) = 24.60178 27.94697 26.27438
#
# Velocity S-wave (km/s) = 3.44267 3.66927 3.55777
# Velocity P-wave (km/s) = 4.95208 5.64156 5.30803
#
# Compressibility (1/GPa) = 0.05524379
#
# Stress axis : x y z
#
# Youngs Moduli (GPa) = 79.33201 28.05515 84.00981
#
# Poissons Ratio (x) = 0.05597 0.32957
# Poissons Ratio (y) = 0.15828 -0.29099
# Poissons Ratio (z) = 0.31122 -0.09718
#
# Static dielectric constant tensor:
#      x y z
#    x 1.761730 0.000000 0.000000 
#    y 0.000000 1.898290 0.000000 
#    z 0.000000 0.000000 1.758260 
# 
# From -- ./inp_files/14088.got.cif
#   From: 2010.05.17/outbox.cif.g08.bks.cpg/sg56_8_cif.got.tgz:14088.got - 2010.06.03 13:42:01.
