data_PCOD9432819
_publ_section_title
;
Structure prediction by ZEFSAII (Michael W. Deem and Ramdas Pophale) SiO2 
 PCOD9432819
Probable space group: P C C N
;
_chemical_formula_sum "Si O2"
_cell_formula_units_Z 60
_cell_length_a 18.652460
_cell_length_b 18.371870
_cell_length_c 8.171481
_cell_angle_alpha 90.000000
_cell_angle_beta 90.000000
_cell_angle_gamma 90.000000
_cell_volume 2800.207769
_symmetry_space_group_name_H-M "P C C N"
_symmetry_group_IT_number 56
_symmetry_cell_setting 'orthorhombic'
loop_
_space_group_symop_operation_xyz
x,y,z
1/2-x,1/2-y,z
1/2+x,-y,1/2-z
-x,1/2+y,1/2-z
-x,-y,-z
1/2+x,1/2+y,-z
1/2-x,y,1/2+z
x,1/2-y,1/2+z
loop_
_atom_site_type_symbol
_atom_site_label
_atom_site_fract_x
_atom_site_fract_y
_atom_site_fract_z
Si Si1 0.473691 0.979645 0.264154
Si Si2 0.750000 0.750000 0.758306
Si Si3 0.545678 0.648316 0.956952
Si Si4 0.189188 0.483979 0.828376
Si Si5 0.843883 0.664408 0.004542
Si Si6 0.157143 0.049570 0.959722
Si Si7 0.921560 0.088351 0.568965
Si Si8 0.987129 0.706506 0.812478
O O1 0.512270 0.926509 0.392085
O O2 0.406487 0.017275 0.350641
O O3 0.528434 0.039043 0.190187
O O4 0.445824 0.932534 0.112168
O O5 0.785279 0.685157 0.865438
O O6 0.685808 0.715392 0.650789
O O7 0.524357 0.707569 0.823008
O O8 0.629324 0.630739 0.993287
O O9 0.516958 0.678669 0.127713
O O10 0.271483 0.463857 0.857824
O O11 0.171200 0.484880 0.637022
O O12 0.158473 0.558657 0.902506
O O13 0.151708 0.416999 0.924616
O O14 0.920122 0.679216 0.922107
O O15 0.941619 0.171088 0.610419
#
# Coordination Sequence:
#
# PCOD9432819 Si02
#       8
#     8   4   8   8   8   8   8   8
#     4  11  22  45  72  99 132 178 233 302 351 419
#     4  10  24  38  56  78 140 174 220 270 348 410
#     4  12  26  43  66 101 138 184 234 290 355 423
#     4  12  26  41  65  95 137 181 232 284 347 416
#     4  11  24  39  54  88 122 183 217 274 326 412
#     4  12  26  43  66 101 138 184 234 290 355 423
#     4  11  23  44  71  99 134 180 239 290 356 416
#     4  12  26  41  65  95 137 181 232 284 347 416
#
# _framework density 21.42698
#
# number of rings (size 3 to 8) (size 9 to 14) (size 15 to 20)
#    0.000    0.533    2.667    6.000   11.200    0.000 
#    0.000    0.000    0.000    0.800    0.000    5.600 
#    0.000    0.000    0.000    0.000    0.000    0.000 
#
# Total GULP energy -335778.903159 kJ/mol
# GULP energy per Si atom -5596.315053 kJ/mol
# Density = 2.137821 g / cm^3
# Si number density = 21.426980 Si / 1000 Ang^3
#
#
#
# Elastic Constant Matrix: (Units=GPa)
#
#
# Indices 1 2 3 4 5 6 
#
# 1 50.7659 39.4377 19.7565 0.0000 0.0000 0.0000
# 2 39.4377 65.4322 14.1231 0.0000 0.0000 0.0000
# 3 19.7565 14.1231 112.4073 0.0000 0.0000 0.0000
# 4 0.0000 0.0000 0.0000 30.4758 0.0000 0.0000
# 5 0.0000 0.0000 0.0000 0.0000 30.0584 0.0000
# 6 0.0000 0.0000 0.0000 0.0000 0.0000 35.7745
#
#
#
# Elastic Compliance Matrix: (Units=1/GPa)
#
#
# Indices 1 2 3 4 5 6 
#
# 1 0.038700 -0.022467 -0.003979 0.000000 0.000000 0.000000
# 2 -0.022467 0.028752 0.000336 0.000000 0.000000 0.000000
# 3 -0.003979 0.000336 0.009553 0.000000 0.000000 0.000000
# 4 0.000000 0.000000 0.000000 0.032813 0.000000 0.000000
# 5 0.000000 0.000000 0.000000 0.000000 0.033269 0.000000
# 6 0.000000 0.000000 0.000000 0.000000 0.000000 0.027953
#
#
# Mechanical properties :
#
#
# Convention : Reuss Voigt Hill
#
# Bulk Modulus (GPa) = 40.34522 41.69335 41.01929
# Shear Modulus (GPa) = 21.59632 29.61428 25.60530
#
# Velocity S-wave (km/s) = 3.17819 3.72170 3.46063
# Velocity P-wave (km/s) = 5.68664 6.16187 5.92902
#
# Compressibility (1/GPa) = 0.02478608
#
# Stress axis : x y z
#
# Youngs Moduli (GPa) = 25.83963 34.78047 104.67557
#
# Poissons Ratio (x) = 0.78141 0.41652
# Poissons Ratio (y) = 0.58053 -0.03520
# Poissons Ratio (z) = 0.10282 -0.01170
#
# Static dielectric constant tensor:
#      x y z
#    x 1.802130 0.000000 0.000000 
#    y 0.000000 1.823080 0.000000 
#    z 0.000000 0.000000 1.816680 
# 
# From -- ./inp_files/4117.got.cif
#   From: 2010.05.17/outbox.cif.g08.bks.cpg/sg56_3_cif.got.tgz:4117.got - 2010.06.03 13:42:01.
