data_PCOD9432947
_publ_section_title
;
Structure prediction by ZEFSAII (Michael W. Deem and Ramdas Pophale) SiO2 
 PCOD9432947
Probable space group: P C C N
;
_chemical_formula_sum "Si O2"
_cell_formula_units_Z 40
_cell_length_a 18.225127
_cell_length_b 5.334658
_cell_length_c 16.611355
_cell_angle_alpha 90.000000
_cell_angle_beta 90.000000
_cell_angle_gamma 90.000000
_cell_volume 1615.035992
_symmetry_space_group_name_H-M "P C C N"
_symmetry_group_IT_number 56
_symmetry_cell_setting 'orthorhombic'
loop_
_space_group_symop_operation_xyz
x,y,z
1/2-x,1/2-y,z
1/2+x,-y,1/2-z
-x,1/2+y,1/2-z
-x,-y,-z
1/2+x,1/2+y,-z
1/2-x,y,1/2+z
x,1/2-y,1/2+z
loop_
_atom_site_type_symbol
_atom_site_label
_atom_site_fract_x
_atom_site_fract_y
_atom_site_fract_z
Si Si1 0.795240 0.494703 0.343971
Si Si2 0.039002 0.964076 0.877259
Si Si3 0.672294 0.207314 0.521250
Si Si4 0.933561 0.226918 0.298221
Si Si5 0.930692 0.598164 0.947311
O O1 0.750000 0.250000 0.316201
O O2 0.809472 0.447722 0.439640
O O3 0.874439 0.450582 0.303749
O O4 0.750000 0.750000 0.330590
O O5 0.111974 0.943457 0.928605
O O6 0.052396 0.817473 0.794535
O O7 0.967887 0.864224 0.925832
O O8 0.011421 0.224788 0.842334
O O9 0.750000 0.250000 0.563712
O O10 0.636278 0.476853 0.498045
O O11 0.907720 0.007478 0.358488
O O12 0.000000 0.500000 0.000000
#
# Coordination Sequence:
#
# PCOD9432947 Si02
#       5
#     8   8   8   8   8
#     4  10  24  44  69 102 139 185 236 287 353 416
#     4  11  22  40  63  99 133 176 236 279 355 409
#     4   9  21  41  64  94 131 178 227 294 341 416
#     4  11  23  38  68  96 136 183 227 291 343 423
#     4   9  20  39  62  91 129 166 224 279 341 405
#
# _framework density 24.767249
#
# number of rings (size 3 to 8) (size 9 to 14) (size 15 to 20)
#    0.000    2.000    2.000    0.000    8.400    8.000 
#    7.200    0.000    0.000    1.200    0.000    0.000 
#    0.000    0.000    0.000    0.000    0.000    0.000 
#
# Total GULP energy -222999.822566 kJ/mol
# GULP energy per Si atom -5574.995564 kJ/mol
# Density = 2.471088 g / cm^3
# Si number density = 24.767249 Si / 1000 Ang^3
#
#
#
# Elastic Constant Matrix: (Units=GPa)
#
#
# Indices 1 2 3 4 5 6 
#
# 1 164.3725 33.3883 36.3677 0.0000 0.0000 0.0000
# 2 33.3883 77.6471 27.0992 0.0000 0.0000 0.0000
# 3 36.3677 27.0992 86.4360 0.0000 0.0000 0.0000
# 4 0.0000 0.0000 0.0000 28.9979 0.0000 0.0000
# 5 0.0000 0.0000 0.0000 0.0000 28.4699 0.0000
# 6 0.0000 0.0000 0.0000 0.0000 0.0000 43.6985
#
#
#
# Elastic Compliance Matrix: (Units=1/GPa)
#
#
# Indices 1 2 3 4 5 6 
#
# 1 0.007038 -0.002238 -0.002260 0.000000 0.000000 0.000000
# 2 -0.002238 0.015173 -0.003815 0.000000 0.000000 0.000000
# 3 -0.002260 -0.003815 0.013716 0.000000 0.000000 0.000000
# 4 0.000000 0.000000 0.000000 0.034485 0.000000 0.000000
# 5 0.000000 0.000000 0.000000 0.000000 0.035125 0.000000
# 6 0.000000 0.000000 0.000000 0.000000 0.000000 0.022884
#
#
# Mechanical properties :
#
#
# Convention : Reuss Voigt Hill
#
# Bulk Modulus (GPa) = 51.80986 58.01843 54.91414
# Shear Modulus (GPa) = 33.00749 35.67328 34.34039
#
# Velocity S-wave (km/s) = 3.65459 3.79930 3.72765
# Velocity P-wave (km/s) = 6.22673 6.53625 6.38336
#
# Compressibility (1/GPa) = 0.01930134
#
# Stress axis : x y z
#
# Youngs Moduli (GPa) = 142.08034 65.90825 72.90647
#
# Poissons Ratio (x) = 0.14749 0.16475
# Poissons Ratio (y) = 0.31795 0.27816
# Poissons Ratio (z) = 0.32106 0.25146
#
# Static dielectric constant tensor:
#      x y z
#    x 2.064920 0.000000 0.000000 
#    y 0.000000 2.201770 0.000000 
#    z 0.000000 0.000000 1.981590 
# 
# From -- ./inp_files/16467.got.cif
#   From: 2010.05.17/outbox.cif.g08.bks.cpg/sg56_9_cif.got.tgz:16467.got - 2010.06.03 13:42:01.
