data_PCOD9432424
_publ_section_title
;
Structure prediction by ZEFSAII (Michael W. Deem and Ramdas Pophale) SiO2 
 PCOD9432424
Probable space group: P C C N
;
_chemical_formula_sum "Si O2"
_cell_formula_units_Z 32
_cell_length_a 18.843372
_cell_length_b 4.930150
_cell_length_c 13.645239
_cell_angle_alpha 90.000000
_cell_angle_beta 90.000000
_cell_angle_gamma 90.000000
_cell_volume 1267.651579
_symmetry_space_group_name_H-M "P C C N"
_symmetry_group_IT_number 56
_symmetry_cell_setting 'orthorhombic'
loop_
_space_group_symop_operation_xyz
x,y,z
1/2-x,1/2-y,z
1/2+x,-y,1/2-z
-x,1/2+y,1/2-z
-x,-y,-z
1/2+x,1/2+y,-z
1/2-x,y,1/2+z
x,1/2-y,1/2+z
loop_
_atom_site_type_symbol
_atom_site_label
_atom_site_fract_x
_atom_site_fract_y
_atom_site_fract_z
Si Si1 0.478067 0.430171 0.142636
Si Si2 0.402037 0.177008 0.834703
Si Si3 0.750000 0.750000 0.127847
Si Si4 0.250000 0.750000 0.016128
Si Si5 0.598210 0.081460 0.950345
O O1 0.558874 0.533669 0.151858
O O2 0.444198 0.477135 0.250036
O O3 0.444263 0.145098 0.110320
O O4 0.444455 0.644886 0.067047
O O5 0.319586 0.198073 0.808905
O O6 0.402674 0.023124 0.938374
O O7 0.730787 0.500075 0.055718
O O8 0.180406 0.648313 0.073990
#
# Coordination Sequence:
#
# PCOD9432424 Si02
#       5
#     8   8   4   4   8
#     4  12  26  43  73 106 138 188 242 297 360 433
#     4  11  26  48  70 105 145 186 244 301 362 440
#     4  10  24  44  72  96 142 194 230 298 372 426
#     4  10  22  44  70 104 140 188 244 290 358 444
#     4  11  25  45  72 102 143 187 232 297 363 423
#
# _framework density 25.24353
#
# number of rings (size 3 to 8) (size 9 to 14) (size 15 to 20)
#    0.000    1.000    0.000    6.000    0.000   18.000 
#    0.000    1.250    0.000    0.000    0.000    0.000 
#    0.000    0.000    0.000    0.000    0.000    0.000 
#
# Total GULP energy -179283.628390 kJ/mol
# GULP energy per Si atom -5602.613387 kJ/mol
# Density = 2.518608 g / cm^3
# Si number density = 25.243530 Si / 1000 Ang^3
#
#
#
# Elastic Constant Matrix: (Units=GPa)
#
#
# Indices 1 2 3 4 5 6 
#
# 1 240.4586 41.9334 39.6875 0.0000 0.0000 0.0000
# 2 41.9334 142.0221 18.2484 0.0000 0.0000 0.0000
# 3 39.6875 18.2484 82.9947 0.0000 0.0000 0.0000
# 4 0.0000 0.0000 0.0000 34.4229 0.0000 0.0000
# 5 0.0000 0.0000 0.0000 0.0000 24.6279 0.0000
# 6 0.0000 0.0000 0.0000 0.0000 0.0000 41.4361
#
#
#
# Elastic Compliance Matrix: (Units=1/GPa)
#
#
# Indices 1 2 3 4 5 6 
#
# 1 0.004684 -0.001127 -0.001992 0.000000 0.000000 0.000000
# 2 -0.001127 0.007517 -0.001114 0.000000 0.000000 0.000000
# 3 -0.001992 -0.001114 0.013246 0.000000 0.000000 0.000000
# 4 0.000000 0.000000 0.000000 0.029050 0.000000 0.000000
# 5 0.000000 0.000000 0.000000 0.000000 0.040604 0.000000
# 6 0.000000 0.000000 0.000000 0.000000 0.000000 0.024134
#
#
# Mechanical properties :
#
#
# Convention : Reuss Voigt Hill
#
# Bulk Modulus (GPa) = 58.88725 73.91268 66.39996
# Shear Modulus (GPa) = 37.49184 44.47113 40.98148
#
# Velocity S-wave (km/s) = 3.85802 4.20180 4.03357
# Velocity P-wave (km/s) = 6.57450 7.27211 6.93208
#
# Compressibility (1/GPa) = 0.01698161
#
# Stress axis : x y z
#
# Youngs Moduli (GPa) = 213.49019 133.03097 75.49185
#
# Poissons Ratio (x) = 0.14993 0.15039
# Poissons Ratio (y) = 0.24061 0.08409
# Poissons Ratio (z) = 0.42529 0.14818
#
# Static dielectric constant tensor:
#      x y z
#    x 2.003890 0.000000 0.000000 
#    y 0.000000 2.040110 0.000000 
#    z 0.000000 0.000000 1.978770 
# 
# From -- ./inp_files/12523.got.cif
#   From: 2010.05.17/outbox.cif.g08.bks.cpg/sg56_7_cif.got.tgz:12523.got - 2010.06.03 13:42:01.
