data_PCOD9432880
_publ_section_title
;
Structure prediction by ZEFSAII (Michael W. Deem and Ramdas Pophale) SiO2 
 PCOD9432880
Probable space group: P C C N
;
_chemical_formula_sum "Si O2"
_cell_formula_units_Z 48
_cell_length_a 15.438730
_cell_length_b 5.407071
_cell_length_c 26.757023
_cell_angle_alpha 90.000000
_cell_angle_beta 90.000000
_cell_angle_gamma 90.000000
_cell_volume 2233.631041
_symmetry_space_group_name_H-M "P C C N"
_symmetry_group_IT_number 56
_symmetry_cell_setting 'orthorhombic'
loop_
_space_group_symop_operation_xyz
x,y,z
1/2-x,1/2-y,z
1/2+x,-y,1/2-z
-x,1/2+y,1/2-z
-x,-y,-z
1/2+x,1/2+y,-z
1/2-x,y,1/2+z
x,1/2-y,1/2+z
loop_
_atom_site_type_symbol
_atom_site_label
_atom_site_fract_x
_atom_site_fract_y
_atom_site_fract_z
Si Si1 0.819535 0.430249 0.614842
Si Si2 0.054155 0.510220 0.192540
Si Si3 0.615920 0.507798 0.763436
Si Si4 0.430163 0.281993 0.999411
Si Si5 0.531136 0.456265 0.587653
Si Si6 0.750000 0.750000 0.526757
Si Si7 0.250000 0.250000 0.305308
O O1 0.750000 0.250000 0.640031
O O2 0.904302 0.271286 0.600887
O O3 0.766699 0.526610 0.566349
O O4 0.824189 0.642503 0.657026
O O5 0.101554 0.248116 0.201381
O O6 0.967980 0.506241 0.226959
O O7 0.019437 0.534783 0.136430
O O8 0.111310 0.745897 0.208501
O O9 0.700746 0.559090 0.730593
O O10 0.329617 0.310500 0.009885
O O11 0.421046 0.176302 0.942362
O O12 0.500000 0.500000 0.000000
O O13 0.465103 0.111434 0.043447
#
# Coordination Sequence:
#
# PCOD9432880 Si02
#       7
#     8   8   8   8   8   4   4
#     4  11  22  37  67 102 137 170 226 306 366 414
#     4  10  24  43  67  95 137 182 230 277 348 430
#     4  10  24  42  66  99 136 179 223 286 350 426
#     4  11  24  41  67  98 138 181 234 295 358 431
#     4  11  24  41  68  99 132 186 234 287 357 433
#     4  11  22  40  61 102 138 172 229 298 359 426
#     4  11  26  38  69 104 136 178 227 306 363 416
#
# _framework density 21.489671000000001
#
# number of rings (size 3 to 8) (size 9 to 14) (size 15 to 20)
#    0.000    1.333    3.333    1.000   14.000    0.000 
#    0.000    0.833    3.667    0.000    0.000    0.000 
#    0.000    0.000    0.000    0.000    0.000    0.000 
#
# Total GULP energy -267473.695609 kJ/mol
# GULP energy per Si atom -5572.368659 kJ/mol
# Density = 2.144076 g / cm^3
# Si number density = 21.489671 Si / 1000 Ang^3
#
#
#
# Elastic Constant Matrix: (Units=GPa)
#
#
# Indices 1 2 3 4 5 6 
#
# 1 93.2499 28.2913 27.4664 0.0000 0.0000 0.0000
# 2 28.2913 92.8634 37.7373 0.0000 0.0000 0.0000
# 3 27.4664 37.7373 104.9307 0.0000 0.0000 0.0000
# 4 0.0000 0.0000 0.0000 21.0613 0.0000 0.0000
# 5 0.0000 0.0000 0.0000 0.0000 22.0999 0.0000
# 6 0.0000 0.0000 0.0000 0.0000 0.0000 36.5876
#
#
#
# Elastic Compliance Matrix: (Units=1/GPa)
#
#
# Indices 1 2 3 4 5 6 
#
# 1 0.012227 -0.002839 -0.002179 0.000000 0.000000 0.000000
# 2 -0.002839 0.013271 -0.004030 0.000000 0.000000 0.000000
# 3 -0.002179 -0.004030 0.011550 0.000000 0.000000 0.000000
# 4 0.000000 0.000000 0.000000 0.047480 0.000000 0.000000
# 5 0.000000 0.000000 0.000000 0.000000 0.045249 0.000000
# 6 0.000000 0.000000 0.000000 0.000000 0.000000 0.027332
#
#
# Mechanical properties :
#
#
# Convention : Reuss Voigt Hill
#
# Bulk Modulus (GPa) = 52.76686 53.11488 52.94087
# Shear Modulus (GPa) = 27.54466 29.11967 28.33217
#
# Velocity S-wave (km/s) = 3.58406 3.68510 3.63493
# Velocity P-wave (km/s) = 6.46027 6.54803 6.50430
#
# Compressibility (1/GPa) = 0.01895129
#
# Stress axis : x y z
#
# Youngs Moduli (GPa) = 81.78436 75.35194 86.58180
#
# Poissons Ratio (x) = 0.21396 0.18870
# Poissons Ratio (y) = 0.23222 0.34889
# Poissons Ratio (z) = 0.17824 0.30364
#
# Static dielectric constant tensor:
#      x y z
#    x 2.668300 0.000000 0.000000 
#    y 0.000000 3.652950 0.000000 
#    z 0.000000 0.000000 1.748390 
# 
# From -- ./inp_files/22455.got.cif
#   From: 2010.05.17/outbox.cif.g08.bks.cpg/sg56_12_cif.got.tgz:22455.got - 2010.06.03 13:42:01.
