data_PCOD9432827
_publ_section_title
;
Structure prediction by ZEFSAII (Michael W. Deem and Ramdas Pophale) SiO2 
 PCOD9432827
Probable space group: P C C N
;
_chemical_formula_sum "Si O2"
_cell_formula_units_Z 56
_cell_length_a 12.905845
_cell_length_b 21.050005
_cell_length_c 9.473391
_cell_angle_alpha 90.000000
_cell_angle_beta 90.000000
_cell_angle_gamma 90.000000
_cell_volume 2573.618150
_symmetry_space_group_name_H-M "P C C N"
_symmetry_group_IT_number 56
_symmetry_cell_setting 'orthorhombic'
loop_
_space_group_symop_operation_xyz
x,y,z
1/2-x,1/2-y,z
1/2+x,-y,1/2-z
-x,1/2+y,1/2-z
-x,-y,-z
1/2+x,1/2+y,-z
1/2-x,y,1/2+z
x,1/2-y,1/2+z
loop_
_atom_site_type_symbol
_atom_site_label
_atom_site_fract_x
_atom_site_fract_y
_atom_site_fract_z
Si Si1 0.244840 0.031169 0.424759
Si Si2 0.575237 0.830445 0.365980
Si Si3 0.970558 0.164425 0.669220
Si Si4 0.197116 0.116710 0.685806
Si Si5 0.933541 0.452504 0.594637
Si Si6 0.536684 0.015131 0.155700
Si Si7 0.489509 0.742167 0.595645
O O1 0.200099 0.061671 0.566914
O O2 0.308476 0.085185 0.340819
O O3 0.315040 0.968452 0.445434
O O4 0.148168 0.016751 0.323690
O O5 0.692705 0.850597 0.338909
O O6 0.491113 0.885112 0.406211
O O7 0.567418 0.781684 0.495973
O O8 0.538639 0.801864 0.216065
O O9 0.097277 0.161327 0.666857
O O10 0.933822 0.204990 0.804752
O O11 0.934610 0.197912 0.523154
O O12 0.947284 0.089847 0.679692
O O13 0.000000 0.500000 0.500000
O O14 0.952962 0.480695 0.748729
O O15 0.500000 0.000000 0.000000
#
# Coordination Sequence:
#
# PCOD9432827 Si02
#       7
#     8   8   8   8   8   8   8
#     4  12  22  38  60  98 124 154 192 248 316 366
#     4  11  22  39  58  87 121 162 201 246 294 360
#     4  11  22  39  58  87 121 162 201 246 294 360
#     4  12  22  35  62  90 126 159 194 244 304 376
#     4  12  22  39  64  91 122 159 195 252 311 355
#     4  12  22  39  64  91 122 159 195 252 311 355
#     4  10  24  39  58  81 122 168 204 241 290 351
#
# _framework density 21.759250000000002
#
# number of rings (size 3 to 8) (size 9 to 14) (size 15 to 20)
#    0.000    0.571    5.714    3.429    0.000    3.429 
#    0.000    0.000    0.000    5.143    0.000    0.000 
#    0.000    0.000    0.000    0.000    0.000    0.000 
#
# Total GULP energy -312500.665112 kJ/mol
# GULP energy per Si atom -5580.369020 kJ/mol
# Density = 2.170972 g / cm^3
# Si number density = 21.759250 Si / 1000 Ang^3
#
#
#
# Elastic Constant Matrix: (Units=GPa)
#
#
# Indices 1 2 3 4 5 6 
#
# 1 8.0876 -6.1855 -10.8061 0.0000 0.0000 0.0000
# 2 -6.1855 87.0118 14.5443 0.0000 0.0000 0.0000
# 3 -10.8061 14.5443 102.6110 0.0000 0.0000 0.0000
# 4 0.0000 0.0000 0.0000 45.7567 0.0000 0.0000
# 5 0.0000 0.0000 0.0000 0.0000 13.0926 0.0000
# 6 0.0000 0.0000 0.0000 0.0000 0.0000 17.4528
#
#
#
# Elastic Compliance Matrix: (Units=1/GPa)
#
#
# Indices 1 2 3 4 5 6 
#
# 1 0.149374 0.008183 0.014571 0.000000 0.000000 0.000000
# 2 0.008183 0.012220 -0.000870 0.000000 0.000000 0.000000
# 3 0.014571 -0.000870 0.011403 0.000000 0.000000 0.000000
# 4 0.000000 0.000000 0.000000 0.021855 0.000000 0.000000
# 5 0.000000 0.000000 0.000000 0.000000 0.076379 0.000000
# 6 0.000000 0.000000 0.000000 0.000000 0.000000 0.057297
#
#
# Mechanical properties :
#
#
# Convention : Reuss Voigt Hill
#
# Bulk Modulus (GPa) = 4.61330 21.42397 13.01863
# Shear Modulus (GPa) = 14.00499 28.60427 21.30463
#
# Velocity S-wave (km/s) = 2.53975 3.62965 3.13246
# Velocity P-wave (km/s) = 3.27493 5.23766 4.36797
#
# Compressibility (1/GPa) = 0.21676465
#
# Stress axis : x y z
#
# Youngs Moduli (GPa) = 6.69461 81.83377 87.69341
#
# Poissons Ratio (x) = -0.66966 -1.27776
# Poissons Ratio (y) = -0.05478 0.07632
# Poissons Ratio (z) = -0.09755 0.07122
#
# Static dielectric constant tensor:
#      x y z
#    x 1.800340 0.000000 0.000000 
#    y 0.000000 1.854380 0.000000 
#    z 0.000000 0.000000 1.744260 
# 
# From -- ./inp_files/3556.got.cif
#   From: 2010.05.17/outbox.cif.g08.bks.cpg/sg56_2_cif.got.tgz:3556.got - 2010.06.03 13:42:01.
