data_PCOD9432817
_publ_section_title
;
Structure prediction by ZEFSAII (Michael W. Deem and Ramdas Pophale) SiO2 
 PCOD9432817
Probable space group: P C C N
;
_chemical_formula_sum "Si O2"
_cell_formula_units_Z 48
_cell_length_a 15.205319
_cell_length_b 9.477135
_cell_length_c 17.257079
_cell_angle_alpha 90.000000
_cell_angle_beta 90.000000
_cell_angle_gamma 90.000000
_cell_volume 2486.794454
_symmetry_space_group_name_H-M "P C C N"
_symmetry_group_IT_number 56
_symmetry_cell_setting 'orthorhombic'
loop_
_space_group_symop_operation_xyz
x,y,z
1/2-x,1/2-y,z
1/2+x,-y,1/2-z
-x,1/2+y,1/2-z
-x,-y,-z
1/2+x,1/2+y,-z
1/2-x,y,1/2+z
x,1/2-y,1/2+z
loop_
_atom_site_type_symbol
_atom_site_label
_atom_site_fract_x
_atom_site_fract_y
_atom_site_fract_z
Si Si1 0.993468 0.878577 0.692190
Si Si2 0.048239 0.894509 0.110266
Si Si3 0.750000 0.750000 0.325832
Si Si4 0.550367 0.692684 0.343981
Si Si5 0.081403 0.632763 0.433788
Si Si6 0.329622 0.998100 0.752080
Si Si7 0.750000 0.250000 0.150790
O O1 0.989536 0.787953 0.772867
O O2 0.025457 0.765824 0.630550
O O3 0.892352 0.924202 0.686592
O O4 0.043026 0.028994 0.682792
O O5 0.111895 0.952263 0.177742
O O6 0.088708 0.898829 0.024757
O O7 0.962280 0.994364 0.105645
O O8 0.651972 0.734495 0.362571
O O9 0.757910 0.608768 0.275517
O O10 0.487833 0.740438 0.414740
O O11 0.174340 0.676953 0.399391
O O12 0.292408 0.863548 0.793006
#
# Coordination Sequence:
#
# PCOD9432817 Si02
#       7
#     8   8   4   8   8   8   4
#     4  11  20  39  67  93 125 169 227 263 318 387
#     4  11  24  44  69  94 135 181 211 270 340 393
#     4  10  24  36  62  98 124 158 226 270 324 376
#     4  11  21  41  63  95 130 170 221 275 319 391
#     4  11  24  46  65  94 142 174 213 268 344 392
#     4  11  24  39  69 100 124 174 223 278 319 387
#     4  12  26  44  68 102 128 170 222 278 318 394
#
# _framework density 19.301957999999999
#
# number of rings (size 3 to 8) (size 9 to 14) (size 15 to 20)
#    0.000    1.000    6.667    0.000    9.333    1.333 
#    0.000    0.000    0.000    0.000    0.000    0.000 
#    0.000    0.000    0.000    0.000    0.000    0.000 
#
# Total GULP energy -267564.355555 kJ/mol
# GULP energy per Si atom -5574.257407 kJ/mol
# Density = 1.925803 g / cm^3
# Si number density = 19.301958 Si / 1000 Ang^3
#
#
#
# Elastic Constant Matrix: (Units=GPa)
#
#
# Indices 1 2 3 4 5 6 
#
# 1 99.3533 25.4614 34.2603 0.0000 0.0000 0.0000
# 2 25.4614 147.5742 31.5186 0.0000 0.0000 0.0000
# 3 34.2603 31.5186 51.9984 0.0000 0.0000 0.0000
# 4 0.0000 0.0000 0.0000 27.5544 0.0000 0.0000
# 5 0.0000 0.0000 0.0000 0.0000 29.9479 0.0000
# 6 0.0000 0.0000 0.0000 0.0000 0.0000 37.9021
#
#
#
# Elastic Compliance Matrix: (Units=1/GPa)
#
#
# Indices 1 2 3 4 5 6 
#
# 1 0.013053 -0.000477 -0.008311 0.000000 0.000000 0.000000
# 2 -0.000477 0.007801 -0.004414 0.000000 0.000000 0.000000
# 3 -0.008311 -0.004414 0.027383 0.000000 0.000000 0.000000
# 4 0.000000 0.000000 0.000000 0.036292 0.000000 0.000000
# 5 0.000000 0.000000 0.000000 0.000000 0.033391 0.000000
# 6 0.000000 0.000000 0.000000 0.000000 0.000000 0.026384
#
#
# Mechanical properties :
#
#
# Convention : Reuss Voigt Hill
#
# Bulk Modulus (GPa) = 45.80361 53.48961 49.64661
# Shear Modulus (GPa) = 28.09175 32.92657 30.50916
#
# Velocity S-wave (km/s) = 3.81909 4.13470 3.98002
# Velocity P-wave (km/s) = 6.57486 7.11101 6.84818
#
# Compressibility (1/GPa) = 0.02183234
#
# Stress axis : x y z
#
# Youngs Moduli (GPa) = 76.60857 128.18222 36.51860
#
# Poissons Ratio (x) = 0.06114 0.30352
# Poissons Ratio (y) = 0.03654 0.16121
# Poissons Ratio (z) = 0.63672 0.56586
#
# Static dielectric constant tensor:
#      x y z
#    x 1.685520 0.000000 0.000000 
#    y 0.000000 1.481210 0.000000 
#    z 0.000000 0.000000 1.683660 
# 
# From -- ./inp_files/16225.got.cif
#   From: 2010.05.17/outbox.cif.g08.bks.cpg/sg56_9_cif.got.tgz:16225.got - 2010.06.03 13:42:01.
