data_PCOD9432278
_publ_section_title
;
Structure prediction by ZEFSAII (Michael W. Deem and Ramdas Pophale) SiO2 
 PCOD9432278
Probable space group: P C C N
;
_chemical_formula_sum "Si O2"
_cell_formula_units_Z 24
_cell_length_a 9.303665
_cell_length_b 9.455317
_cell_length_c 9.861810
_cell_angle_alpha 90.000000
_cell_angle_beta 90.000000
_cell_angle_gamma 90.000000
_cell_volume 867.534568
_symmetry_space_group_name_H-M "P C C N"
_symmetry_group_IT_number 56
_symmetry_cell_setting 'orthorhombic'
loop_
_space_group_symop_operation_xyz
x,y,z
1/2-x,1/2-y,z
1/2+x,-y,1/2-z
-x,1/2+y,1/2-z
-x,-y,-z
1/2+x,1/2+y,-z
1/2-x,y,1/2+z
x,1/2-y,1/2+z
loop_
_atom_site_type_symbol
_atom_site_label
_atom_site_fract_x
_atom_site_fract_y
_atom_site_fract_z
Si Si1 0.336078 0.896788 0.023298
Si Si2 0.581221 0.746371 0.360817
Si Si3 0.888010 0.989950 0.178153
O O1 0.250000 0.750000 0.019771
O O2 0.489253 0.854264 0.959358
O O3 0.245668 0.996585 0.922068
O O4 0.338458 0.949241 0.176418
O O5 0.750000 0.750000 0.386402
O O6 0.563758 0.669139 0.213426
O O7 0.513308 0.902438 0.366154
#
# Coordination Sequence:
#
# PCOD9432278 Si02
#       3
#     8   8   8
#     4  10  22  42  67  96 135 178 221 273 331 393
#     4  11  24  41  67 102 135 173 222 277 332 392
#     4  11  24  45  69  98 135 177 222 274 333 397
#
# _framework density 27.664605999999999
#
# number of rings (size 3 to 8) (size 9 to 14) (size 15 to 20)
#    0.000    1.333    0.000    6.000    0.000    4.000 
#    0.000    8.333    0.000    0.000    0.000    0.000 
#    0.000    0.000    0.000    0.000    0.000    0.000 
#
# Total GULP energy -134896.186545 kJ/mol
# GULP energy per Si atom -5620.674439 kJ/mol
# Density = 2.760164 g / cm^3
# Si number density = 27.664606 Si / 1000 Ang^3
#
#
#
# Elastic Constant Matrix: (Units=GPa)
#
#
# Indices 1 2 3 4 5 6 
#
# 1 237.5246 54.6852 78.1374 0.0000 0.0000 0.0000
# 2 54.6852 122.9457 23.1891 0.0000 0.0000 0.0000
# 3 78.1374 23.1891 146.7467 0.0000 0.0000 0.0000
# 4 0.0000 0.0000 0.0000 70.5284 0.0000 0.0000
# 5 0.0000 0.0000 0.0000 0.0000 41.9078 0.0000
# 6 0.0000 0.0000 0.0000 0.0000 0.0000 30.8532
#
#
#
# Elastic Compliance Matrix: (Units=1/GPa)
#
#
# Indices 1 2 3 4 5 6 
#
# 1 0.005528 -0.001962 -0.002633 0.000000 0.000000 0.000000
# 2 -0.001962 0.009080 -0.000390 0.000000 0.000000 0.000000
# 3 -0.002633 -0.000390 0.008278 0.000000 0.000000 0.000000
# 4 0.000000 0.000000 0.000000 0.014179 0.000000 0.000000
# 5 0.000000 0.000000 0.000000 0.000000 0.023862 0.000000
# 6 0.000000 0.000000 0.000000 0.000000 0.000000 0.032412
#
#
# Mechanical properties :
#
#
# Convention : Reuss Voigt Hill
#
# Bulk Modulus (GPa) = 77.42882 91.02671 84.22777
# Shear Modulus (GPa) = 46.46187 52.07156 49.26671
#
# Velocity S-wave (km/s) = 4.10258 4.34319 4.22460
# Velocity P-wave (km/s) = 7.10568 7.62405 7.36943
#
# Compressibility (1/GPa) = 0.01291509
#
# Stress axis : x y z
#
# Youngs Moduli (GPa) = 180.89178 110.13220 120.79718
#
# Poissons Ratio (x) = 0.21610 0.31812
# Poissons Ratio (y) = 0.35494 0.04712
# Poissons Ratio (z) = 0.47638 0.04296
#
# Static dielectric constant tensor:
#      x y z
#    x 2.129390 0.000000 0.000000 
#    y 0.000000 2.261350 0.000000 
#    z 0.000000 0.000000 2.099600 
# 
# From -- ./inp_files/5814.got.cif
#   From: 2010.05.17/outbox.cif.g08.bks.cpg/sg56_3_cif.got.tgz:5814.got - 2010.06.03 13:42:01.
