data_PCOD9432714
_publ_section_title
;
Structure prediction by ZEFSAII (Michael W. Deem and Ramdas Pophale) SiO2 
 PCOD9432714
Probable space group: P C C N
;
_chemical_formula_sum "Si O2"
_cell_formula_units_Z 48
_cell_length_a 4.845204
_cell_length_b 29.254284
_cell_length_c 13.886554
_cell_angle_alpha 90.000000
_cell_angle_beta 90.000000
_cell_angle_gamma 90.000000
_cell_volume 1968.321461
_symmetry_space_group_name_H-M "P C C N"
_symmetry_group_IT_number 56
_symmetry_cell_setting 'orthorhombic'
loop_
_space_group_symop_operation_xyz
x,y,z
1/2-x,1/2-y,z
1/2+x,-y,1/2-z
-x,1/2+y,1/2-z
-x,-y,-z
1/2+x,1/2+y,-z
1/2-x,y,1/2+z
x,1/2-y,1/2+z
loop_
_atom_site_type_symbol
_atom_site_label
_atom_site_fract_x
_atom_site_fract_y
_atom_site_fract_z
Si Si1 0.643300 0.300607 0.765950
Si Si2 0.937632 0.117659 0.892162
Si Si3 0.134645 0.153602 0.183245
Si Si4 0.414324 0.559353 0.730419
Si Si5 0.811341 0.988169 0.906883
Si Si6 0.435308 0.396066 0.517982
O O1 0.750000 0.250000 0.782237
O O2 0.664641 0.332609 0.860038
O O3 0.327312 0.310268 0.738863
O O4 0.836918 0.322668 0.682820
O O5 0.870131 0.085012 0.801092
O O6 0.751193 0.106164 0.985631
O O7 0.249450 0.110404 0.923052
O O8 0.079348 0.104929 0.235228
O O9 0.304232 0.141610 0.088080
O O10 0.402690 0.525756 0.636511
O O11 0.484375 0.525608 0.818611
O O12 0.631173 0.944422 0.934842
O O13 0.000000 0.000000 0.000000
#
# Coordination Sequence:
#
# PCOD9432714 Si02
#       6
#     8   8   8   8   8   8
#     4  11  23  45  74 101 132 182 236 294 371 456
#     4  11  23  43  69  98 143 183 237 294 377 432
#     4  10  23  44  70 100 141 183 234 293 378 433
#     4  10  24  40  68  99 146 197 246 309 362 426
#     4  11  24  42  67 104 145 195 265 304 359 425
#     4  11  24  43  68 101 142 190 235 301 360 430
#
# _framework density 24.386261999999999
#
# number of rings (size 3 to 8) (size 9 to 14) (size 15 to 20)
#    0.000    1.333    1.667    3.500    2.333    8.667 
#    0.000    5.000    0.000    0.000    0.000    0.000 
#    0.000    0.000    0.000    0.000    0.000    0.000 
#
# Total GULP energy -267847.736357 kJ/mol
# GULP energy per Si atom -5580.161174 kJ/mol
# Density = 2.433076 g / cm^3
# Si number density = 24.386262 Si / 1000 Ang^3
#
#
#
# Elastic Constant Matrix: (Units=GPa)
#
#
# Indices 1 2 3 4 5 6 
#
# 1 87.5799 4.7870 2.9067 0.0000 0.0000 0.0000
# 2 4.7870 137.6770 15.1512 0.0000 0.0000 0.0000
# 3 2.9067 15.1512 94.2635 0.0000 0.0000 0.0000
# 4 0.0000 0.0000 0.0000 24.6861 0.0000 0.0000
# 5 0.0000 0.0000 0.0000 0.0000 40.6634 0.0000
# 6 0.0000 0.0000 0.0000 0.0000 0.0000 28.3207
#
#
#
# Elastic Compliance Matrix: (Units=1/GPa)
#
#
# Indices 1 2 3 4 5 6 
#
# 1 0.011448 -0.000366 -0.000294 0.000000 0.000000 0.000000
# 2 -0.000366 0.007406 -0.001179 0.000000 0.000000 0.000000
# 3 -0.000294 -0.001179 0.010807 0.000000 0.000000 0.000000
# 4 0.000000 0.000000 0.000000 0.040509 0.000000 0.000000
# 5 0.000000 0.000000 0.000000 0.000000 0.024592 0.000000
# 6 0.000000 0.000000 0.000000 0.000000 0.000000 0.035310
#
#
# Mechanical properties :
#
#
# Convention : Reuss Voigt Hill
#
# Bulk Modulus (GPa) = 38.48681 40.57894 39.53287
# Shear Modulus (GPa) = 35.10980 38.51242 36.81111
#
# Velocity S-wave (km/s) = 3.79850 3.97831 3.88945
# Velocity P-wave (km/s) = 5.92069 6.14645 6.03463
#
# Compressibility (1/GPa) = 0.02598292
#
# Stress axis : x y z
#
# Youngs Moduli (GPa) = 87.35232 135.02842 92.53136
#
# Poissons Ratio (x) = 0.04937 0.02723
# Poissons Ratio (y) = 0.03194 0.10910
# Poissons Ratio (z) = 0.02570 0.15921
#
# Static dielectric constant tensor:
#      x y z
#    x 1.964890 0.000000 0.000000 
#    y 0.000000 1.971650 0.000000 
#    z 0.000000 0.000000 2.052840 
# 
# From -- ./inp_files/9689.got.cif
#   From: 2010.05.17/outbox.cif.g08.bks.cpg/sg56_5_cif.got.tgz:9689.got - 2010.06.03 13:42:01.
