data_PCOD9432376
_publ_section_title
;
Structure prediction by ZEFSAII (Michael W. Deem and Ramdas Pophale) SiO2 
 PCOD9432376
Probable space group: P C C N
;
_chemical_formula_sum "Si O2"
_cell_formula_units_Z 52
_cell_length_a 8.122049
_cell_length_b 15.394614
_cell_length_c 20.361591
_cell_angle_alpha 90.000000
_cell_angle_beta 90.000000
_cell_angle_gamma 90.000000
_cell_volume 2545.928008
_symmetry_space_group_name_H-M "P C C N"
_symmetry_group_IT_number 56
_symmetry_cell_setting 'orthorhombic'
loop_
_space_group_symop_operation_xyz
x,y,z
1/2-x,1/2-y,z
1/2+x,-y,1/2-z
-x,1/2+y,1/2-z
-x,-y,-z
1/2+x,1/2+y,-z
1/2-x,y,1/2+z
x,1/2-y,1/2+z
loop_
_atom_site_type_symbol
_atom_site_label
_atom_site_fract_x
_atom_site_fract_y
_atom_site_fract_z
Si Si1 0.950697 0.071748 0.946398
Si Si2 0.750000 0.750000 0.244526
Si Si3 0.444552 0.766380 0.843053
Si Si4 0.124405 0.433819 0.308037
Si Si5 0.441598 0.927397 0.050749
Si Si6 0.549715 0.254002 0.009319
Si Si7 0.943805 0.033898 0.671876
O O1 0.754535 0.075934 0.948369
O O2 0.012370 0.060763 0.872440
O O3 0.016338 0.164858 0.969414
O O4 0.000000 0.000000 0.000000
O O5 0.584232 0.760854 0.290053
O O6 0.709049 0.661482 0.203927
O O7 0.250000 0.750000 0.825152
O O8 0.485595 0.727622 0.914218
O O9 0.459366 0.869630 0.856689
O O10 0.257308 0.508454 0.317350
O O11 0.029095 0.458073 0.242002
O O12 0.491788 0.960271 0.122693
O O13 0.507809 0.835516 0.023943
O O14 0.500000 0.000000 0.000000
O O15 0.750000 0.250000 0.006408
#
# Coordination Sequence:
#
# PCOD9432376 Si02
#       7
#     8   4   8   8   8   8   8
#     4  11  25  43  68  98 135 178 230 290 349 415
#     4  10  26  46  64 102 142 182 238 276 342 434
#     4  10  22  43  70  98 135 182 229 282 347 413
#     4  11  26  45  65 100 135 181 234 285 353 413
#     4  11  21  42  67  99 135 178 230 285 345 418
#     4   9  21  40  66  96 134 178 228 280 349 414
#     4  11  24  42  67  94 136 178 224 283 345 422
#
# _framework density 20.424772000000001
#
# number of rings (size 3 to 8) (size 9 to 14) (size 15 to 20)
#    0.000    1.538    1.538    1.846    8.615    2.462 
#    2.769    0.769    0.000    0.000    0.000    0.000 
#    0.000    0.000    0.000    0.000    0.000    0.000 
#
# Total GULP energy -290187.974031 kJ/mol
# GULP energy per Si atom -5580.537962 kJ/mol
# Density = 2.037828 g / cm^3
# Si number density = 20.424772 Si / 1000 Ang^3
#
#
#
# Elastic Constant Matrix: (Units=GPa)
#
#
# Indices 1 2 3 4 5 6 
#
# 1 71.1558 9.5979 28.5367 0.0000 0.0000 0.0000
# 2 9.5979 83.3409 36.2575 0.0000 0.0000 0.0000
# 3 28.5367 36.2575 117.4412 0.0000 0.0000 0.0000
# 4 0.0000 0.0000 0.0000 9.1466 0.0000 0.0000
# 5 0.0000 0.0000 0.0000 0.0000 30.1061 0.0000
# 6 0.0000 0.0000 0.0000 0.0000 0.0000 32.2622
#
#
#
# Elastic Compliance Matrix: (Units=1/GPa)
#
#
# Indices 1 2 3 4 5 6 
#
# 1 0.015573 -0.000170 -0.003732 0.000000 0.000000 0.000000
# 2 -0.000170 0.013862 -0.004238 0.000000 0.000000 0.000000
# 3 -0.003732 -0.004238 0.010730 0.000000 0.000000 0.000000
# 4 0.000000 0.000000 0.000000 0.109330 0.000000 0.000000
# 5 0.000000 0.000000 0.000000 0.000000 0.033216 0.000000
# 6 0.000000 0.000000 0.000000 0.000000 0.000000 0.030996
#
#
# Mechanical properties :
#
#
# Convention : Reuss Voigt Hill
#
# Bulk Modulus (GPa) = 41.86617 46.74690 44.30653
# Shear Modulus (GPa) = 21.01282 27.47269 24.24276
#
# Velocity S-wave (km/s) = 3.21096 3.67149 3.44892
# Velocity P-wave (km/s) = 5.85570 6.39611 6.13186
#
# Compressibility (1/GPa) = 0.02388563
#
# Stress axis : x y z
#
# Youngs Moduli (GPa) = 64.21316 72.13745 93.19536
#
# Poissons Ratio (x) = 0.01227 0.34777
# Poissons Ratio (y) = 0.01092 0.39500
# Poissons Ratio (z) = 0.23962 0.30575
#
# Static dielectric constant tensor:
#      x y z
#    x 1.702600 0.000000 0.000000 
#    y 0.000000 1.748600 0.000000 
#    z 0.000000 0.000000 1.703180 
# 
# From -- ./inp_files/18165.got.cif
#   From: 2010.05.17/outbox.cif.g08.bks.cpg/sg56_10_cif.got.tgz:18165.got - 2010.06.03 13:42:01.
