data_PCOD9432519
_publ_section_title
;
Structure prediction by ZEFSAII (Michael W. Deem and Ramdas Pophale) SiO2 
 PCOD9432519
Probable space group: P C C N
;
_chemical_formula_sum "Si O2"
_cell_formula_units_Z 56
_cell_length_a 13.011924
_cell_length_b 21.059212
_cell_length_c 8.529288
_cell_angle_alpha 90.000000
_cell_angle_beta 90.000000
_cell_angle_gamma 90.000000
_cell_volume 2337.202884
_symmetry_space_group_name_H-M "P C C N"
_symmetry_group_IT_number 56
_symmetry_cell_setting 'orthorhombic'
loop_
_space_group_symop_operation_xyz
x,y,z
1/2-x,1/2-y,z
1/2+x,-y,1/2-z
-x,1/2+y,1/2-z
-x,-y,-z
1/2+x,1/2+y,-z
1/2-x,y,1/2+z
x,1/2-y,1/2+z
loop_
_atom_site_type_symbol
_atom_site_label
_atom_site_fract_x
_atom_site_fract_y
_atom_site_fract_z
Si Si1 0.740428 0.554555 0.679258
Si Si2 0.022457 0.305660 0.532655
Si Si3 0.474452 0.168782 0.166254
Si Si4 0.922278 0.420518 0.666787
Si Si5 0.241488 0.176987 0.510030
Si Si6 0.873074 0.984228 0.952959
Si Si7 0.407108 0.548764 0.482307
O O1 0.709662 0.623117 0.615244
O O2 0.722105 0.545482 0.861331
O O3 0.858285 0.546740 0.625265
O O4 0.676583 0.492911 0.613940
O O5 0.006807 0.320495 0.349830
O O6 0.001344 0.232671 0.569273
O O7 0.140461 0.327342 0.567050
O O8 0.952303 0.348287 0.643976
O O9 0.350179 0.167522 0.135872
O O10 0.542416 0.110065 0.102906
O O11 0.867269 0.443087 0.504796
O O12 0.876827 0.432621 0.838332
O O13 0.027905 0.461393 0.639874
O O14 0.250000 0.250000 0.446786
O O15 0.500000 0.500000 0.500000
#
# Coordination Sequence:
#
# PCOD9432519 Si02
#       7
#     8   8   8   8   8   8   8
#     4  12  23  41  60  92 131 173 213 277 325 394
#     4  11  24  41  65  89 135 169 226 271 335 400
#     4  11  24  40  62  94 127 178 219 272 332 402
#     4  11  23  42  62  94 123 170 224 276 334 395
#     4  10  23  36  58  89 129 174 222 258 329 396
#     4  11  24  37  63  88 127 163 217 266 335 386
#     4  12  23  39  66  89 130 170 222 274 331 390
#
# _framework density 23.960263999999999
#
# number of rings (size 3 to 8) (size 9 to 14) (size 15 to 20)
#    0.000    0.857    4.286    2.571    4.000    7.429 
#    0.000    0.000    0.000    0.857    0.000    6.000 
#    0.000    0.000    0.000    0.000    0.000    0.000 
#
# Total GULP energy -312544.697066 kJ/mol
# GULP energy per Si atom -5581.155305 kJ/mol
# Density = 2.390573 g / cm^3
# Si number density = 23.960264 Si / 1000 Ang^3
#
#
#
# Elastic Constant Matrix: (Units=GPa)
#
#
# Indices 1 2 3 4 5 6 
#
# 1 46.1966 38.3737 18.1256 0.0000 0.0000 0.0000
# 2 38.3737 179.5330 65.2712 0.0000 0.0000 0.0000
# 3 18.1256 65.2712 123.9729 0.0000 0.0000 0.0000
# 4 0.0000 0.0000 0.0000 42.6074 0.0000 0.0000
# 5 0.0000 0.0000 0.0000 0.0000 43.8190 0.0000
# 6 0.0000 0.0000 0.0000 0.0000 0.0000 43.3261
#
#
#
# Elastic Compliance Matrix: (Units=1/GPa)
#
#
# Indices 1 2 3 4 5 6 
#
# 1 0.026441 -0.005251 -0.001101 0.000000 0.000000 0.000000
# 2 -0.005251 0.007931 -0.003408 0.000000 0.000000 0.000000
# 3 -0.001101 -0.003408 0.010022 0.000000 0.000000 0.000000
# 4 0.000000 0.000000 0.000000 0.023470 0.000000 0.000000
# 5 0.000000 0.000000 0.000000 0.000000 0.022821 0.000000
# 6 0.000000 0.000000 0.000000 0.000000 0.000000 0.023081
#
#
# Mechanical properties :
#
#
# Convention : Reuss Voigt Hill
#
# Bulk Modulus (GPa) = 40.20431 65.91596 53.06013
# Shear Modulus (GPa) = 35.31637 41.14595 38.23116
#
# Velocity S-wave (km/s) = 3.84338 4.14848 3.99884
# Velocity P-wave (km/s) = 6.04247 7.10751 6.59652
#
# Compressibility (1/GPa) = 0.02487295
#
# Stress axis : x y z
#
# Youngs Moduli (GPa) = 37.82067 126.08015 99.78414
#
# Poissons Ratio (x) = 0.66207 0.10987
# Poissons Ratio (y) = 0.19860 0.34008
# Poissons Ratio (z) = 0.04164 0.42970
#
# Static dielectric constant tensor:
#      x y z
#    x 2.075960 0.000000 0.000000 
#    y 0.000000 2.020210 0.000000 
#    z 0.000000 0.000000 1.970900 
# 
# From -- ./inp_files/3563.got.cif
#   From: 2010.05.17/outbox.cif.g08.bks.cpg/sg56_2_cif.got.tgz:3563.got - 2010.06.03 13:42:01.
