data_PCOD9432327
_publ_section_title
;
Structure prediction by ZEFSAII (Michael W. Deem and Ramdas Pophale) SiO2 
 PCOD9432327
Probable space group: P C C N
;
_chemical_formula_sum "Si O2"
_cell_formula_units_Z 56
_cell_length_a 14.843279
_cell_length_b 11.399823
_cell_length_c 14.346156
_cell_angle_alpha 90.000000
_cell_angle_beta 90.000000
_cell_angle_gamma 90.000000
_cell_volume 2427.523864
_symmetry_space_group_name_H-M "P C C N"
_symmetry_group_IT_number 56
_symmetry_cell_setting 'orthorhombic'
loop_
_space_group_symop_operation_xyz
x,y,z
1/2-x,1/2-y,z
1/2+x,-y,1/2-z
-x,1/2+y,1/2-z
-x,-y,-z
1/2+x,1/2+y,-z
1/2-x,y,1/2+z
x,1/2-y,1/2+z
loop_
_atom_site_type_symbol
_atom_site_label
_atom_site_fract_x
_atom_site_fract_y
_atom_site_fract_z
Si Si1 0.485274 0.820790 0.755519
Si Si2 0.995711 0.835652 0.588220
Si Si3 0.294171 0.622830 0.301678
Si Si4 0.354905 0.985898 0.992696
Si Si5 0.303303 0.370191 0.029711
Si Si6 0.366994 0.471974 0.840500
Si Si7 0.499290 0.664825 0.926314
O O1 0.498118 0.703010 0.694528
O O2 0.386609 0.877055 0.743933
O O3 0.563653 0.907283 0.726035
O O4 0.492555 0.778930 0.861340
O O5 0.074641 0.922696 0.558752
O O6 0.009842 0.715068 0.530487
O O7 0.904802 0.902034 0.555854
O O8 0.250000 0.750000 0.292617
O O9 0.322539 0.597403 0.408952
O O10 0.215862 0.528864 0.285266
O O11 0.267704 0.027690 0.048008
O O12 0.250000 0.250000 0.048462
O O13 0.398463 0.380611 0.081183
O O14 0.326990 0.385294 0.919430
O O15 0.423751 0.572366 0.895980
#
# Coordination Sequence:
#
# PCOD9432327 Si02
#       7
#     8   8   8   8   8   8   8
#     4  12  26  45  72 104 143 185 238 292 354 422
#     4  11  23  45  71 103 139 189 233 297 351 422
#     4  11  23  46  68 101 141 183 234 295 344 425
#     4  10  22  42  75  98 142 186 236 289 369 414
#     4  11  22  45  70 106 137 184 239 291 351 432
#     4  11  25  46  74  99 145 192 225 296 366 408
#     4  12  24  47  70  98 146 183 237 295 351 419
#
# _framework density 23.068774999999999
#
# number of rings (size 3 to 8) (size 9 to 14) (size 15 to 20)
#    0.000    0.857    5.714    0.429    2.000    0.000 
#    5.143    0.000    0.000    0.000    0.000    0.000 
#    0.000    0.000    0.000    0.000    0.000    0.000 
#
# Total GULP energy -313452.225885 kJ/mol
# GULP energy per Si atom -5597.361177 kJ/mol
# Density = 2.301627 g / cm^3
# Si number density = 23.068775 Si / 1000 Ang^3
#
#
#
# Elastic Constant Matrix: (Units=GPa)
#
#
# Indices 1 2 3 4 5 6 
#
# 1 169.1244 30.0789 12.5440 0.0000 0.0000 0.0000
# 2 30.0789 40.6591 0.8236 0.0000 0.0000 0.0000
# 3 12.5440 0.8236 31.8180 0.0000 0.0000 0.0000
# 4 0.0000 0.0000 0.0000 15.3833 0.0000 0.0000
# 5 0.0000 0.0000 0.0000 0.0000 29.4559 0.0000
# 6 0.0000 0.0000 0.0000 0.0000 0.0000 50.0302
#
#
#
# Elastic Compliance Matrix: (Units=1/GPa)
#
#
# Indices 1 2 3 4 5 6 
#
# 1 0.007023 -0.005142 -0.002636 0.000000 0.000000 0.000000
# 2 -0.005142 0.028372 0.001293 0.000000 0.000000 0.000000
# 3 -0.002636 0.001293 0.032434 0.000000 0.000000 0.000000
# 4 0.000000 0.000000 0.000000 0.065006 0.000000 0.000000
# 5 0.000000 0.000000 0.000000 0.000000 0.033949 0.000000
# 6 0.000000 0.000000 0.000000 0.000000 0.000000 0.019988
#
#
# Mechanical properties :
#
#
# Convention : Reuss Voigt Hill
#
# Bulk Modulus (GPa) = 18.22821 36.49941 27.36381
# Shear Modulus (GPa) = 22.93280 32.18422 27.55851
#
# Velocity S-wave (km/s) = 3.15636 3.73921 3.46008
# Velocity P-wave (km/s) = 4.60460 5.87355 5.27736
#
# Compressibility (1/GPa) = 0.05486002
#
# Stress axis : x y z
#
# Youngs Moduli (GPa) = 142.39358 35.24542 30.83154
#
# Poissons Ratio (x) = 0.18123 0.08126
# Poissons Ratio (y) = 0.73218 -0.03986
# Poissons Ratio (z) = 0.37529 -0.04556
#
# Static dielectric constant tensor:
#      x y z
#    x 1.873300 0.000000 0.000000 
#    y 0.000000 1.878580 0.000000 
#    z 0.000000 0.000000 1.812720 
# 
# From -- ./inp_files/12291.got.cif
#   From: 2010.05.17/outbox.cif.g08.bks.cpg/sg56_7_cif.got.tgz:12291.got - 2010.06.03 13:42:01.
