data_PCOD9432300
_publ_section_title
;
Structure prediction by ZEFSAII (Michael W. Deem and Ramdas Pophale) SiO2 
 PCOD9432300
Probable space group: P C C N
;
_chemical_formula_sum "Si O2"
_cell_formula_units_Z 20
_cell_length_a 10.706011
_cell_length_b 5.024534
_cell_length_c 16.193169
_cell_angle_alpha 90.000000
_cell_angle_beta 90.000000
_cell_angle_gamma 90.000000
_cell_volume 871.074546
_symmetry_space_group_name_H-M "P C C N"
_symmetry_group_IT_number 56
_symmetry_cell_setting 'orthorhombic'
loop_
_space_group_symop_operation_xyz
x,y,z
1/2-x,1/2-y,z
1/2+x,-y,1/2-z
-x,1/2+y,1/2-z
-x,-y,-z
1/2+x,1/2+y,-z
1/2-x,y,1/2+z
x,1/2-y,1/2+z
loop_
_atom_site_type_symbol
_atom_site_label
_atom_site_fract_x
_atom_site_fract_y
_atom_site_fract_z
Si Si1 0.494285 0.246800 0.559418
Si Si2 0.417467 0.891155 0.274673
Si Si3 0.250000 0.250000 0.172515
O O1 0.500000 0.500000 0.500000
O O2 0.367018 0.229519 0.611709
O O3 0.500000 0.000000 0.500000
O O4 0.595824 0.217498 0.632460
O O5 0.509894 0.153933 0.273826
O O6 0.294082 0.010349 0.232025
#
# Coordination Sequence:
#
# PCOD9432300 Si02
#       3
#     8   8   4
#     4  11  24  43  67 103 139 176 233 293 347 416
#     4  10  22  42  70 101 133 182 238 281 343 430
#     4  10  24  46  70  96 142 188 224 290 354 410
#
# _framework density 22.960145000000001
#
# number of rings (size 3 to 8) (size 9 to 14) (size 15 to 20)
#    0.000    1.600    0.000    4.800    0.000   16.000 
#    0.000   16.000    0.000    0.000    0.000    0.000 
#    0.000    0.000    0.000    0.000    0.000    0.000 
#
# Total GULP energy -111708.329810 kJ/mol
# GULP energy per Si atom -5585.416490 kJ/mol
# Density = 2.290789 g / cm^3
# Si number density = 22.960145 Si / 1000 Ang^3
#
#
#
# Elastic Constant Matrix: (Units=GPa)
#
#
# Indices 1 2 3 4 5 6 
#
# 1 126.6262 49.7066 61.1789 0.0000 0.0000 0.0000
# 2 49.7066 232.1038 103.0657 0.0000 0.0000 0.0000
# 3 61.1789 103.0657 226.9272 0.0000 0.0000 0.0000
# 4 0.0000 0.0000 0.0000 68.2107 0.0000 0.0000
# 5 0.0000 0.0000 0.0000 0.0000 53.3306 0.0000
# 6 0.0000 0.0000 0.0000 0.0000 0.0000 33.0028
#
#
#
# Elastic Compliance Matrix: (Units=1/GPa)
#
#
# Indices 1 2 3 4 5 6 
#
# 1 0.009299 -0.001100 -0.002007 0.000000 0.000000 0.000000
# 2 -0.001100 0.005527 -0.002214 0.000000 0.000000 0.000000
# 3 -0.002007 -0.002214 0.005953 0.000000 0.000000 0.000000
# 4 0.000000 0.000000 0.000000 0.014660 0.000000 0.000000
# 5 0.000000 0.000000 0.000000 0.000000 0.018751 0.000000
# 6 0.000000 0.000000 0.000000 0.000000 0.000000 0.030300
#
#
# Mechanical properties :
#
#
# Convention : Reuss Voigt Hill
#
# Bulk Modulus (GPa) = 98.64814 112.61773 105.63293
# Shear Modulus (GPa) = 50.75511 55.68922 53.22216
#
# Velocity S-wave (km/s) = 4.70678 4.93025 4.81981
# Velocity P-wave (km/s) = 8.52036 9.03137 8.77958
#
# Compressibility (1/GPa) = 0.01013704
#
# Stress axis : x y z
#
# Youngs Moduli (GPa) = 107.53935 180.93052 167.97488
#
# Poissons Ratio (x) = 0.19904 0.33718
# Poissons Ratio (y) = 0.11830 0.37184
# Poissons Ratio (z) = 0.21587 0.40052
#
# Static dielectric constant tensor:
#      x y z
#    x 1.975430 0.000000 0.000000 
#    y 0.000000 1.870260 0.000000 
#    z 0.000000 0.000000 1.942570 
# 
# From -- ./inp_files/9237.got.cif
#   From: 2010.05.17/outbox.cif.g08.bks.cpg/sg56_5_cif.got.tgz:9237.got - 2010.06.03 13:42:01.
