data_PCOD9432368
_publ_section_title
;
Structure prediction by ZEFSAII (Michael W. Deem and Ramdas Pophale) SiO2 
 PCOD9432368
Probable space group: P C C N
;
_chemical_formula_sum "Si O2"
_cell_formula_units_Z 60
_cell_length_a 6.107075
_cell_length_b 27.294763
_cell_length_c 17.155754
_cell_angle_alpha 90.000000
_cell_angle_beta 90.000000
_cell_angle_gamma 90.000000
_cell_volume 2859.712616
_symmetry_space_group_name_H-M "P C C N"
_symmetry_group_IT_number 56
_symmetry_cell_setting 'orthorhombic'
loop_
_space_group_symop_operation_xyz
x,y,z
1/2-x,1/2-y,z
1/2+x,-y,1/2-z
-x,1/2+y,1/2-z
-x,-y,-z
1/2+x,1/2+y,-z
1/2-x,y,1/2+z
x,1/2-y,1/2+z
loop_
_atom_site_type_symbol
_atom_site_label
_atom_site_fract_x
_atom_site_fract_y
_atom_site_fract_z
Si Si1 0.721939 0.486826 0.718123
Si Si2 0.510043 0.893193 0.491648
Si Si3 0.355604 0.036011 0.946349
Si Si4 0.892998 0.831119 0.441914
Si Si5 0.370849 0.865747 0.088568
Si Si6 0.195642 0.885088 0.345503
Si Si7 0.250000 0.250000 0.165928
Si Si8 0.119042 0.800557 0.741753
O O1 0.473126 0.502230 0.749849
O O2 0.720839 0.507824 0.630382
O O3 0.704718 0.428193 0.715847
O O4 0.656987 0.940945 0.504496
O O5 0.657940 0.845713 0.474555
O O6 0.374470 0.882732 0.569913
O O7 0.352257 0.898480 0.417758
O O8 0.487681 0.084501 0.917825
O O9 0.500000 0.000000 0.000000
O O10 0.895767 0.782307 0.392141
O O11 0.056350 0.832742 0.514460
O O12 0.960960 0.875588 0.384434
O O13 0.400732 0.833950 0.165298
O O14 0.265131 0.834613 0.305795
O O15 0.388930 0.285327 0.220791
O O16 0.250000 0.750000 0.726980
#
# Coordination Sequence:
#
# PCOD9432368 Si02
#       8
#     8   8   8   8   8   8   4   8
#     4  12  30  47  74 113 156 204 249 314 386 462
#     4  10  22  43  74  99 140 191 236 312 360 452
#     4  11  25  46  75 108 145 196 259 308 386 455
#     4  10  22  43  69 101 130 187 241 298 361 440
#     4  10  25  43  68 105 143 189 237 310 377 445
#     4  11  24  45  72 101 146 190 252 296 381 446
#     4  12  24  42  74 100 136 188 250 302 372 450
#     4  12  26  45  68 103 144 188 242 308 379 446
#
# _framework density 20.981127999999998
#
# number of rings (size 3 to 8) (size 9 to 14) (size 15 to 20)
#    0.000    1.067    2.667    3.200    7.467    5.867 
#    0.000    0.000    0.000    0.000    0.000    0.000 
#    0.000    0.000    0.000    0.000    0.000    0.000 
#
# Total GULP energy -334842.825105 kJ/mol
# GULP energy per Si atom -5580.713752 kJ/mol
# Density = 2.093337 g / cm^3
# Si number density = 20.981128 Si / 1000 Ang^3
#
#
#
# Elastic Constant Matrix: (Units=GPa)
#
#
# Indices 1 2 3 4 5 6 
#
# 1 74.9370 38.0338 27.8553 0.0000 0.0000 0.0000
# 2 38.0338 123.1118 54.6088 0.0000 0.0000 0.0000
# 3 27.8553 54.6088 88.5960 0.0000 0.0000 0.0000
# 4 0.0000 0.0000 0.0000 49.3200 0.0000 0.0000
# 5 0.0000 0.0000 0.0000 0.0000 18.6855 0.0000
# 6 0.0000 0.0000 0.0000 0.0000 0.0000 32.9656
#
#
#
# Elastic Compliance Matrix: (Units=1/GPa)
#
#
# Indices 1 2 3 4 5 6 
#
# 1 0.016310 -0.003804 -0.002783 0.000000 0.000000 0.000000
# 2 -0.003804 0.012066 -0.006241 0.000000 0.000000 0.000000
# 3 -0.002783 -0.006241 0.016009 0.000000 0.000000 0.000000
# 4 0.000000 0.000000 0.000000 0.020276 0.000000 0.000000
# 5 0.000000 0.000000 0.000000 0.000000 0.053517 0.000000
# 6 0.000000 0.000000 0.000000 0.000000 0.000000 0.030335
#
#
# Mechanical properties :
#
#
# Convention : Reuss Voigt Hill
#
# Bulk Modulus (GPa) = 53.39568 58.62675 56.01122
# Shear Modulus (GPa) = 27.71406 31.27067 29.49237
#
# Velocity S-wave (km/s) = 3.63837 3.86478 3.75328
# Velocity P-wave (km/s) = 6.56924 6.92233 6.74810
#
# Compressibility (1/GPa) = 0.01872811
#
# Stress axis : x y z
#
# Youngs Moduli (GPa) = 61.31252 82.87413 62.46351
#
# Poissons Ratio (x) = 0.31527 0.17384
# Poissons Ratio (y) = 0.23325 0.38986
# Poissons Ratio (z) = 0.17064 0.51726
#
# Static dielectric constant tensor:
#      x y z
#    x 1.837700 0.000000 0.000000 
#    y 0.000000 1.750010 0.000000 
#    z 0.000000 0.000000 1.734580 
# 
# From -- ./inp_files/14104.got.cif
#   From: 2010.05.17/outbox.cif.g08.bks.cpg/sg56_8_cif.got.tgz:14104.got - 2010.06.03 13:42:01.
