data_PCOD9432566
_publ_section_title
;
Structure prediction by ZEFSAII (Michael W. Deem and Ramdas Pophale) SiO2 
 PCOD9432566
Probable space group: P C C N
;
_chemical_formula_sum "Si O2"
_cell_formula_units_Z 48
_cell_length_a 12.802519
_cell_length_b 8.122684
_cell_length_c 19.231705
_cell_angle_alpha 90.000000
_cell_angle_beta 90.000000
_cell_angle_gamma 90.000000
_cell_volume 1999.920701
_symmetry_space_group_name_H-M "P C C N"
_symmetry_group_IT_number 56
_symmetry_cell_setting 'orthorhombic'
loop_
_space_group_symop_operation_xyz
x,y,z
1/2-x,1/2-y,z
1/2+x,-y,1/2-z
-x,1/2+y,1/2-z
-x,-y,-z
1/2+x,1/2+y,-z
1/2-x,y,1/2+z
x,1/2-y,1/2+z
loop_
_atom_site_type_symbol
_atom_site_label
_atom_site_fract_x
_atom_site_fract_y
_atom_site_fract_z
Si Si1 0.980930 0.580454 0.881482
Si Si2 0.596856 0.147149 0.983010
Si Si3 0.809837 0.989920 0.992407
Si Si4 0.825349 0.960693 0.694699
Si Si5 0.389113 0.099878 0.363034
Si Si6 0.608879 0.595091 0.845076
O O1 0.088350 0.574524 0.840167
O O2 0.934082 0.404060 0.904334
O O3 0.912031 0.709480 0.840188
O O4 0.006827 0.644137 0.959289
O O5 0.687644 0.019759 0.005994
O O6 0.641326 0.328749 0.987461
O O7 0.828158 0.920457 0.916308
O O8 0.866345 0.893648 0.054290
O O9 0.710163 0.999799 0.667391
O O10 0.866928 0.778879 0.670369
O O11 0.831569 0.966220 0.777448
O O12 0.498650 0.006551 0.350323
#
# Coordination Sequence:
#
# PCOD9432566 Si02
#       6
#     8   8   8   8   8   8
#     4  11  23  41  66 101 136 174 225 279 339 396
#     4  10  23  40  68 100 131 169 231 278 328 396
#     4  11  23  44  70  99 130 179 225 281 330 396
#     4  11  26  44  65  98 137 181 221 280 342 407
#     4  11  24  45  67  94 134 176 227 277 335 407
#     4  12  26  42  71  99 136 179 225 278 343 401
#
# _framework density 24.000952999999999
#
# number of rings (size 3 to 8) (size 9 to 14) (size 15 to 20)
#    0.000    1.000    3.333    2.500    4.667    5.333 
#    0.000    1.667    0.000    0.000    0.000    0.000 
#    0.000    0.000    0.000    0.000    0.000    0.000 
#
# Total GULP energy -268537.697524 kJ/mol
# GULP energy per Si atom -5594.535365 kJ/mol
# Density = 2.394633 g / cm^3
# Si number density = 24.000953 Si / 1000 Ang^3
#
#
#
# Elastic Constant Matrix: (Units=GPa)
#
#
# Indices 1 2 3 4 5 6 
#
# 1 57.5550 5.9311 31.5379 0.0000 0.0000 0.0000
# 2 5.9311 39.6233 5.2755 0.0000 0.0000 0.0000
# 3 31.5379 5.2755 148.3129 0.0000 0.0000 0.0000
# 4 0.0000 0.0000 0.0000 20.9964 0.0000 0.0000
# 5 0.0000 0.0000 0.0000 0.0000 20.7184 0.0000
# 6 0.0000 0.0000 0.0000 0.0000 0.0000 31.9849
#
#
#
# Elastic Compliance Matrix: (Units=1/GPa)
#
#
# Indices 1 2 3 4 5 6 
#
# 1 0.019896 -0.002426 -0.004144 0.000000 0.000000 0.000000
# 2 -0.002426 0.025654 -0.000397 0.000000 0.000000 0.000000
# 3 -0.004144 -0.000397 0.007638 0.000000 0.000000 0.000000
# 4 0.000000 0.000000 0.000000 0.047627 0.000000 0.000000
# 5 0.000000 0.000000 0.000000 0.000000 0.048266 0.000000
# 6 0.000000 0.000000 0.000000 0.000000 0.000000 0.031265
#
#
# Mechanical properties :
#
#
# Convention : Reuss Voigt Hill
#
# Bulk Modulus (GPa) = 25.47599 36.77560 31.12579
# Shear Modulus (GPa) = 24.11215 28.25638 26.18426
#
# Velocity S-wave (km/s) = 3.17303 3.43491 3.30656
# Velocity P-wave (km/s) = 4.90528 5.57560 5.25115
#
# Compressibility (1/GPa) = 0.03925265
#
# Stress axis : x y z
#
# Youngs Moduli (GPa) = 50.26214 38.98079 130.92621
#
# Poissons Ratio (x) = 0.09458 0.54261
# Poissons Ratio (y) = 0.12195 0.05192
# Poissons Ratio (z) = 0.20831 0.01546
#
# Static dielectric constant tensor:
#      x y z
#    x 1.978510 0.000000 0.000000 
#    y 0.000000 2.053910 0.000000 
#    z 0.000000 0.000000 1.868770 
# 
# From -- ./inp_files/16180.got.cif
#   From: 2010.05.17/outbox.cif.g08.bks.cpg/sg56_9_cif.got.tgz:16180.got - 2010.06.03 13:42:01.
