data_PCOD9432995
_publ_section_title
;
Structure prediction by ZEFSAII (Michael W. Deem and Ramdas Pophale) SiO2 
 PCOD9432995
Probable space group: P C C N
;
_chemical_formula_sum "Si O2"
_cell_formula_units_Z 60
_cell_length_a 23.428033
_cell_length_b 8.262758
_cell_length_c 14.165483
_cell_angle_alpha 90.000000
_cell_angle_beta 90.000000
_cell_angle_gamma 90.000000
_cell_volume 2742.156566
_symmetry_space_group_name_H-M "P C C N"
_symmetry_group_IT_number 56
_symmetry_cell_setting 'orthorhombic'
loop_
_space_group_symop_operation_xyz
x,y,z
1/2-x,1/2-y,z
1/2+x,-y,1/2-z
-x,1/2+y,1/2-z
-x,-y,-z
1/2+x,1/2+y,-z
1/2-x,y,1/2+z
x,1/2-y,1/2+z
loop_
_atom_site_type_symbol
_atom_site_label
_atom_site_fract_x
_atom_site_fract_y
_atom_site_fract_z
Si Si1 0.347831 0.480050 0.467365
Si Si2 0.502359 0.297628 0.215372
Si Si3 0.134065 0.682624 0.780479
Si Si4 0.035151 0.345441 0.032518
Si Si5 0.465936 0.118880 0.381503
Si Si6 0.184044 0.799118 0.077209
Si Si7 0.250000 0.250000 0.416539
Si Si8 0.163292 0.506293 0.388589
O O1 0.355970 0.545865 0.360146
O O2 0.400826 0.372747 0.499109
O O3 0.345537 0.637464 0.534447
O O4 0.291257 0.371580 0.473102
O O5 0.567931 0.238287 0.220737
O O6 0.469956 0.180701 0.142965
O O7 0.472756 0.276491 0.315428
O O8 0.500798 0.476525 0.171966
O O9 0.155612 0.646701 0.675285
O O10 0.167639 0.840028 0.819974
O O11 0.011668 0.183672 0.981379
O O12 0.000000 0.500000 0.000000
O O13 0.401228 0.058215 0.387950
O O14 0.250000 0.750000 0.091023
O O15 0.177554 0.931069 0.994120
O O16 0.206940 0.365901 0.360474
#
# Coordination Sequence:
#
# PCOD9432995 Si02
#       8
#     8   8   8   8   8   8   4   8
#     4  11  25  45  70 100 138 182 232 290 347 422
#     4  11  25  43  70  99 143 180 235 289 353 431
#     4  10  25  44  70 103 135 180 233 285 352 421
#     4  12  24  44  69  99 140 189 227 286 359 418
#     4  11  25  45  67 105 138 181 234 295 346 420
#     4  11  24  44  73  98 136 183 232 284 355 420
#     4  12  22  46  68  94 142 174 228 292 340 414
#     4  10  24  46  68 100 138 182 227 288 346 413
#
# _framework density 21.880587999999999
#
# number of rings (size 3 to 8) (size 9 to 14) (size 15 to 20)
#    0.000    1.067    4.000    1.200    7.467    1.067 
#    0.000    2.667    0.000    0.000    0.000    0.000 
#    0.000    0.000    0.000    0.000    0.000    0.000 
#
# Total GULP energy -335565.043167 kJ/mol
# GULP energy per Si atom -5592.750719 kJ/mol
# Density = 2.183079 g / cm^3
# Si number density = 21.880588 Si / 1000 Ang^3
#
#
#
# Elastic Constant Matrix: (Units=GPa)
#
#
# Indices 1 2 3 4 5 6 
#
# 1 55.1789 25.6371 22.4387 0.0000 0.0000 0.0000
# 2 25.6371 78.7262 14.2041 0.0000 0.0000 0.0000
# 3 22.4387 14.2041 113.2241 0.0000 0.0000 0.0000
# 4 0.0000 0.0000 0.0000 27.7949 0.0000 0.0000
# 5 0.0000 0.0000 0.0000 0.0000 21.5849 0.0000
# 6 0.0000 0.0000 0.0000 0.0000 0.0000 43.6126
#
#
#
# Elastic Compliance Matrix: (Units=1/GPa)
#
#
# Indices 1 2 3 4 5 6 
#
# 1 0.022746 -0.006747 -0.003661 0.000000 0.000000 0.000000
# 2 -0.006747 0.014998 -0.000544 0.000000 0.000000 0.000000
# 3 -0.003661 -0.000544 0.009626 0.000000 0.000000 0.000000
# 4 0.000000 0.000000 0.000000 0.035978 0.000000 0.000000
# 5 0.000000 0.000000 0.000000 0.000000 0.046329 0.000000
# 6 0.000000 0.000000 0.000000 0.000000 0.000000 0.022929
#
#
# Mechanical properties :
#
#
# Convention : Reuss Voigt Hill
#
# Bulk Modulus (GPa) = 39.27001 41.29877 40.28439
# Shear Modulus (GPa) = 27.32253 30.92177 29.12215
#
# Velocity S-wave (km/s) = 3.53754 3.76334 3.65219
# Velocity P-wave (km/s) = 5.88829 6.14811 6.01960
#
# Compressibility (1/GPa) = 0.02546472
#
# Stress axis : x y z
#
# Youngs Moduli (GPa) = 43.96285 66.67752 103.88566
#
# Poissons Ratio (x) = 0.44986 0.38038
# Poissons Ratio (y) = 0.29661 0.05655
# Poissons Ratio (z) = 0.16097 0.03630
#
# Static dielectric constant tensor:
#      x y z
#    x 1.783940 0.000000 0.000000 
#    y 0.000000 1.864810 0.000000 
#    z 0.000000 0.000000 7.248990 
# 
# From -- ./inp_files/13259.got.cif
#   From: 2010.05.17/outbox.cif.g08.bks.cpg/sg56_7_cif.got.tgz:13259.got - 2010.06.03 13:42:01.
