data_PCOD9432628
_publ_section_title
;
Structure prediction by ZEFSAII (Michael W. Deem and Ramdas Pophale) SiO2 
 PCOD9432628
Probable space group: P C C N
;
_chemical_formula_sum "Si O2"
_cell_formula_units_Z 60
_cell_length_a 13.721696
_cell_length_b 8.578780
_cell_length_c 25.276039
_cell_angle_alpha 90.000000
_cell_angle_beta 90.000000
_cell_angle_gamma 90.000000
_cell_volume 2975.379325
_symmetry_space_group_name_H-M "P C C N"
_symmetry_group_IT_number 56
_symmetry_cell_setting 'orthorhombic'
loop_
_space_group_symop_operation_xyz
x,y,z
1/2-x,1/2-y,z
1/2+x,-y,1/2-z
-x,1/2+y,1/2-z
-x,-y,-z
1/2+x,1/2+y,-z
1/2-x,y,1/2+z
x,1/2-y,1/2+z
loop_
_atom_site_type_symbol
_atom_site_label
_atom_site_fract_x
_atom_site_fract_y
_atom_site_fract_z
Si Si1 0.406981 0.542673 0.114245
Si Si2 0.952258 0.941467 0.374455
Si Si3 0.750000 0.750000 0.139917
Si Si4 0.059382 0.201788 0.427120
Si Si5 0.357171 0.086519 0.267782
Si Si6 0.637944 0.773573 0.460334
Si Si7 0.506660 0.683835 0.795412
Si Si8 0.278158 0.908778 0.181373
O O1 0.487865 0.670837 0.100006
O O2 0.388378 0.443123 0.061621
O O3 0.442007 0.435741 0.163614
O O4 0.301559 0.595023 0.135081
O O5 0.881495 0.833747 0.409064
O O6 0.012763 0.834282 0.333481
O O7 0.884924 0.065155 0.343349
O O8 0.015639 0.033369 0.416082
O O9 0.662211 0.800366 0.102649
O O10 0.799463 0.875415 0.179110
O O11 0.073879 0.235252 0.488711
O O12 0.426493 0.231671 0.249585
O O13 0.420621 0.926398 0.273124
O O14 0.277762 0.052682 0.221955
O O15 0.750000 0.750000 0.475192
O O16 0.250000 0.750000 0.211362
#
# Coordination Sequence:
#
# PCOD9432628 Si02
#       8
#     8   8   4   8   8   8   8   8
#     4  11  22  42  67  93 130 162 225 268 322 389
#     4  10  23  42  67  96 131 165 215 274 321 391
#     4  12  26  42  64  90 136 168 216 268 320 398
#     4  12  24  43  66  93 131 175 214 267 339 386
#     4  11  25  42  64  98 134 174 221 267 331 396
#     4  11  22  41  68  97 129 168 213 270 332 396
#     4  10  24  39  68  95 127 176 213 267 327 388
#     4  11  22  38  66  98 121 167 215 272 314 375
#
# _framework density 20.165495
#
# number of rings (size 3 to 8) (size 9 to 14) (size 15 to 20)
#    0.000    1.067    4.667    1.600    5.600    1.067 
#    0.000    0.000    0.000    0.000    0.000    0.000 
#    0.000    0.000    0.000    0.000    0.000    0.000 
#
# Total GULP energy -334462.588659 kJ/mol
# GULP energy per Si atom -5574.376478 kJ/mol
# Density = 2.011960 g / cm^3
# Si number density = 20.165495 Si / 1000 Ang^3
#
#
#
# Elastic Constant Matrix: (Units=GPa)
#
#
# Indices 1 2 3 4 5 6 
#
# 1 71.1454 40.2486 20.0492 0.0000 0.0000 0.0000
# 2 40.2486 82.3759 13.1683 0.0000 0.0000 0.0000
# 3 20.0492 13.1683 82.0077 0.0000 0.0000 0.0000
# 4 0.0000 0.0000 0.0000 24.3261 0.0000 0.0000
# 5 0.0000 0.0000 0.0000 0.0000 64.3701 0.0000
# 6 0.0000 0.0000 0.0000 0.0000 0.0000 31.0856
#
#
#
# Elastic Compliance Matrix: (Units=1/GPa)
#
#
# Indices 1 2 3 4 5 6 
#
# 1 0.020342 -0.009385 -0.003466 0.000000 0.000000 0.000000
# 2 -0.009385 0.016789 -0.000402 0.000000 0.000000 0.000000
# 3 -0.003466 -0.000402 0.013106 0.000000 0.000000 0.000000
# 4 0.000000 0.000000 0.000000 0.041108 0.000000 0.000000
# 5 0.000000 0.000000 0.000000 0.000000 0.015535 0.000000
# 6 0.000000 0.000000 0.000000 0.000000 0.000000 0.032169
#
#
# Mechanical properties :
#
#
# Convention : Reuss Voigt Hill
#
# Bulk Modulus (GPa) = 42.13780 42.49570 42.31675
# Shear Modulus (GPa) = 28.82433 34.76056 31.79244
#
# Velocity S-wave (km/s) = 3.78483 4.15633 3.97492
# Velocity P-wave (km/s) = 6.32782 6.64475 6.48822
#
# Compressibility (1/GPa) = 0.02373166
#
# Stress axis : x y z
#
# Youngs Moduli (GPa) = 49.16006 59.56262 76.30174
#
# Poissons Ratio (x) = 0.55898 0.26447
# Poissons Ratio (y) = 0.46136 0.03064
# Poissons Ratio (z) = 0.17040 0.02391
#
# Static dielectric constant tensor:
#      x y z
#    x 1.739020 0.000000 0.000000 
#    y 0.000000 1.549130 0.000000 
#    z 0.000000 0.000000 1.701590 
# 
# From -- ./inp_files/22336.got.cif
#   From: 2010.05.17/outbox.cif.g08.bks.cpg/sg56_12_cif.got.tgz:22336.got - 2010.06.03 13:42:01.
