data_PCOD9432103
_publ_section_title
;
Structure prediction by ZEFSAII (Michael W. Deem and Ramdas Pophale) SiO2 
 PCOD9432103
Probable space group: P C C N
;
_chemical_formula_sum "Si O2"
_cell_formula_units_Z 56
_cell_length_a 12.506261
_cell_length_b 14.573419
_cell_length_c 14.096327
_cell_angle_alpha 90.000000
_cell_angle_beta 90.000000
_cell_angle_gamma 90.000000
_cell_volume 2569.182204
_symmetry_space_group_name_H-M "P C C N"
_symmetry_group_IT_number 56
_symmetry_cell_setting 'orthorhombic'
loop_
_space_group_symop_operation_xyz
x,y,z
1/2-x,1/2-y,z
1/2+x,-y,1/2-z
-x,1/2+y,1/2-z
-x,-y,-z
1/2+x,1/2+y,-z
1/2-x,y,1/2+z
x,1/2-y,1/2+z
loop_
_atom_site_type_symbol
_atom_site_label
_atom_site_fract_x
_atom_site_fract_y
_atom_site_fract_z
Si Si1 0.285998 0.914987 0.654724
Si Si2 0.549995 0.725238 0.440929
Si Si3 0.641309 0.801973 0.134157
Si Si4 0.109609 0.952817 0.802716
Si Si5 0.325654 0.673177 0.960019
Si Si6 0.868489 0.887835 0.827142
Si Si7 0.988961 0.855079 0.239068
O O1 0.179190 0.915533 0.716089
O O2 0.278626 0.855486 0.560686
O O3 0.389070 0.877612 0.712272
O O4 0.314015 0.021401 0.632112
O O5 0.591673 0.671339 0.532966
O O6 0.443531 0.782527 0.469343
O O7 0.633075 0.800929 0.397568
O O8 0.522873 0.662097 0.351011
O O9 0.750000 0.750000 0.111031
O O10 0.671839 0.870155 0.220031
O O11 0.556570 0.732957 0.183912
O O12 0.167770 0.918107 0.897033
O O13 0.993460 0.907251 0.809613
O O14 0.083933 0.059453 0.792543
O O15 0.250000 0.750000 0.914188
#
# Coordination Sequence:
#
# PCOD9432103 Si02
#       7
#     8   8   8   8   8   8   8
#     4  11  22  41  66  92 130 175 213 265 331 387
#     4  10  22  40  64  94 124 166 216 268 323 389
#     4  11  22  38  62  90 126 167 216 271 328 385
#     4  10  23  41  63  95 130 172 212 269 324 397
#     4  11  24  39  68  97 128 167 222 267 327 396
#     4   9  23  41  60  92 130 166 219 270 319 392
#     4  10  22  42  64  92 132 168 214 275 326 390
#
# _framework density 21.79682
#
# number of rings (size 3 to 8) (size 9 to 14) (size 15 to 20)
#    0.000    1.714    1.429    1.714    4.000    6.857 
#    2.571    1.429    0.000    0.000    0.000    0.000 
#    0.000    0.000    0.000    0.000    0.000    0.000 
#
# Total GULP energy -312903.996952 kJ/mol
# GULP energy per Si atom -5587.571374 kJ/mol
# Density = 2.174721 g / cm^3
# Si number density = 21.796820 Si / 1000 Ang^3
#
#
#
# Elastic Constant Matrix: (Units=GPa)
#
#
# Indices 1 2 3 4 5 6 
#
# 1 31.1112 -12.9043 -6.6797 0.0000 0.0000 0.0000
# 2 -12.9043 62.5775 9.4561 0.0000 0.0000 0.0000
# 3 -6.6797 9.4561 84.6058 0.0000 0.0000 0.0000
# 4 0.0000 0.0000 0.0000 20.9907 0.0000 0.0000
# 5 0.0000 0.0000 0.0000 0.0000 65.8391 0.0000
# 6 0.0000 0.0000 0.0000 0.0000 0.0000 15.1074
#
#
#
# Elastic Compliance Matrix: (Units=1/GPa)
#
#
# Indices 1 2 3 4 5 6 
#
# 1 0.035485 0.007012 0.002018 0.000000 0.000000 0.000000
# 2 0.007012 0.017641 -0.001418 0.000000 0.000000 0.000000
# 3 0.002018 -0.001418 0.012137 0.000000 0.000000 0.000000
# 4 0.000000 0.000000 0.000000 0.047640 0.000000 0.000000
# 5 0.000000 0.000000 0.000000 0.000000 0.015189 0.000000
# 6 0.000000 0.000000 0.000000 0.000000 0.000000 0.066193
#
#
# Mechanical properties :
#
#
# Convention : Reuss Voigt Hill
#
# Bulk Modulus (GPa) = 12.42438 17.55987 14.99213
# Shear Modulus (GPa) = 24.28504 32.94895 28.61700
#
# Velocity S-wave (km/s) = 3.34152 3.89220 3.62732
# Velocity P-wave (km/s) = 4.53874 5.31720 4.94332
#
# Compressibility (1/GPa) = 0.08048691
#
# Stress axis : x y z
#
# Youngs Moduli (GPa) = 28.18124 56.68773 82.39058
#
# Poissons Ratio (x) = -0.39752 -0.16625
# Poissons Ratio (y) = -0.19762 0.11683
# Poissons Ratio (z) = -0.05686 0.08038
#
# Static dielectric constant tensor:
#      x y z
#    x 1.794320 0.000000 0.000000 
#    y 0.000000 1.842350 0.000000 
#    z 0.000000 0.000000 1.804910 
# 
# From -- ./inp_files/11662.got.cif
#   From: 2010.05.17/outbox.cif.g08.bks.cpg/sg56_6_cif.got.tgz:11662.got - 2010.06.03 13:42:01.
