data_PCOD9432372
_publ_section_title
;
Structure prediction by ZEFSAII (Michael W. Deem and Ramdas Pophale) SiO2 
 PCOD9432372
Probable space group: P C C N
;
_chemical_formula_sum "Si O2"
_cell_formula_units_Z 56
_cell_length_a 6.575041
_cell_length_b 13.152008
_cell_length_c 28.515801
_cell_angle_alpha 90.000000
_cell_angle_beta 90.000000
_cell_angle_gamma 90.000000
_cell_volume 2465.903659
_symmetry_space_group_name_H-M "P C C N"
_symmetry_group_IT_number 56
_symmetry_cell_setting 'orthorhombic'
loop_
_space_group_symop_operation_xyz
x,y,z
1/2-x,1/2-y,z
1/2+x,-y,1/2-z
-x,1/2+y,1/2-z
-x,-y,-z
1/2+x,1/2+y,-z
1/2-x,y,1/2+z
x,1/2-y,1/2+z
loop_
_atom_site_type_symbol
_atom_site_label
_atom_site_fract_x
_atom_site_fract_y
_atom_site_fract_z
Si Si1 0.179210 0.987631 0.905103
Si Si2 0.750000 0.750000 0.539493
Si Si3 0.630815 0.151176 0.372202
Si Si4 0.934280 0.417543 0.931210
Si Si5 0.379270 0.648627 0.988111
Si Si6 0.057198 0.617792 0.731646
Si Si7 0.586771 0.401692 0.194850
Si Si8 0.250000 0.250000 0.711830
O O1 0.067546 0.920766 0.943815
O O2 0.185007 0.936111 0.854190
O O3 0.400706 0.994393 0.929228
O O4 0.063651 0.095424 0.894915
O O5 0.588366 0.678812 0.566189
O O6 0.596332 0.818933 0.509283
O O7 0.750000 0.250000 0.392351
O O8 0.810527 0.071582 0.382690
O O9 0.586783 0.171207 0.318476
O O10 0.767612 0.405060 0.972484
O O11 0.250000 0.750000 0.975079
O O12 0.245700 0.629166 0.766770
O O13 0.021783 0.500641 0.717405
O O14 0.863547 0.667361 0.756088
O O15 0.424983 0.312546 0.185511
#
# Coordination Sequence:
#
# PCOD9432372 Si02
#       8
#     8   4   8   8   8   8   8   4
#     4  11  26  41  67 102 133 179 228 288 342 421
#     4  10  22  43  69  94 136 182 224 287 347 424
#     4  11  24  40  64 101 135 173 226 282 350 415
#     4  11  22  40  67  97 134 174 225 290 340 413
#     4  10  23  43  64  94 134 181 229 281 345 413
#     4  11  25  45  70  99 138 183 233 288 353 422
#     4  11  25  44  70 102 139 183 238 285 350 422
#     4  12  24  45  73  96 142 188 224 297 353 410
#
# _framework density 22.709726
#
# number of rings (size 3 to 8) (size 9 to 14) (size 15 to 20)
#    0.000    1.143    1.429    4.714    2.000    8.571 
#    0.000    1.429    0.000    0.000    0.000    0.000 
#    0.000    0.000    0.000    0.000    0.000    0.000 
#
# Total GULP energy -312430.819428 kJ/mol
# GULP energy per Si atom -5579.121775 kJ/mol
# Density = 2.265804 g / cm^3
# Si number density = 22.709726 Si / 1000 Ang^3
#
#
#
# Elastic Constant Matrix: (Units=GPa)
#
#
# Indices 1 2 3 4 5 6 
#
# 1 121.3071 22.3603 44.5917 0.0000 0.0000 0.0000
# 2 22.3603 65.8695 22.0011 0.0000 0.0000 0.0000
# 3 44.5917 22.0011 93.0007 0.0000 0.0000 0.0000
# 4 0.0000 0.0000 0.0000 10.6026 0.0000 0.0000
# 5 0.0000 0.0000 0.0000 0.0000 13.5530 0.0000
# 6 0.0000 0.0000 0.0000 0.0000 0.0000 43.2607
#
#
#
# Elastic Compliance Matrix: (Units=1/GPa)
#
#
# Indices 1 2 3 4 5 6 
#
# 1 0.010243 -0.001994 -0.004440 0.000000 0.000000 0.000000
# 2 -0.001994 0.016872 -0.003035 0.000000 0.000000 0.000000
# 3 -0.004440 -0.003035 0.013599 0.000000 0.000000 0.000000
# 4 0.000000 0.000000 0.000000 0.094317 0.000000 0.000000
# 5 0.000000 0.000000 0.000000 0.000000 0.073784 0.000000
# 6 0.000000 0.000000 0.000000 0.000000 0.000000 0.023116
#
#
# Mechanical properties :
#
#
# Convention : Reuss Voigt Hill
#
# Bulk Modulus (GPa) = 45.92098 50.89819 48.40958
# Shear Modulus (GPa) = 19.37020 26.23153 22.80087
#
# Velocity S-wave (km/s) = 2.92369 3.40233 3.17205
# Velocity P-wave (km/s) = 5.62691 6.15594 5.89736
#
# Compressibility (1/GPa) = 0.02177654
#
# Stress axis : x y z
#
# Youngs Moduli (GPa) = 97.62681 59.26863 73.53312
#
# Poissons Ratio (x) = 0.11820 0.32645
# Poissons Ratio (y) = 0.19470 0.22319
# Poissons Ratio (z) = 0.43342 0.17990
#
# Static dielectric constant tensor:
#      x y z
#    x 1.876700 0.000000 0.000000 
#    y 0.000000 1.969910 0.000000 
#    z 0.000000 0.000000 1.801310 
# 
# From -- ./inp_files/22899.got.cif
#   From: 2010.05.17/outbox.cif.g08.bks.cpg/sg56_12_cif.got.tgz:22899.got - 2010.06.03 13:42:01.
