data_PCOD9432419
_publ_section_title
;
Structure prediction by ZEFSAII (Michael W. Deem and Ramdas Pophale) SiO2 
 PCOD9432419
Probable space group: P C C N
;
_chemical_formula_sum "Si O2"
_cell_formula_units_Z 40
_cell_length_a 8.031925
_cell_length_b 23.777031
_cell_length_c 8.982416
_cell_angle_alpha 90.000000
_cell_angle_beta 90.000000
_cell_angle_gamma 90.000000
_cell_volume 1715.419857
_symmetry_space_group_name_H-M "P C C N"
_symmetry_group_IT_number 56
_symmetry_cell_setting 'orthorhombic'
loop_
_space_group_symop_operation_xyz
x,y,z
1/2-x,1/2-y,z
1/2+x,-y,1/2-z
-x,1/2+y,1/2-z
-x,-y,-z
1/2+x,1/2+y,-z
1/2-x,y,1/2+z
x,1/2-y,1/2+z
loop_
_atom_site_type_symbol
_atom_site_label
_atom_site_fract_x
_atom_site_fract_y
_atom_site_fract_z
Si Si1 0.911924 0.474375 0.353054
Si Si2 0.975414 0.051228 0.391780
Si Si3 0.063644 0.373533 0.158720
Si Si4 0.872121 0.697713 0.277590
Si Si5 0.066055 0.766765 0.482517
O O1 0.723832 0.450002 0.364923
O O2 0.000000 0.500000 0.500000
O O3 0.921710 0.529902 0.249306
O O4 0.006841 0.422023 0.273748
O O5 0.044081 0.101349 0.492085
O O6 0.000000 0.000000 0.500000
O O7 0.249964 0.354465 0.200299
O O8 0.951324 0.316213 0.143643
O O9 0.750000 0.750000 0.294449
O O10 0.993996 0.708506 0.415499
O O11 0.965289 0.709792 0.123574
O O12 0.250000 0.750000 0.527105
#
# Coordination Sequence:
#
# PCOD9432419 Si02
#       5
#     8   8   8   8   8
#     4  11  23  44  71 105 144 186 240 298 349 421
#     4  10  23  44  66  99 139 181 231 287 350 418
#     4  10  24  43  67 101 142 191 234 284 359 431
#     4  10  22  44  69  99 136 181 232 281 345 426
#     4  11  24  45  69 102 142 179 231 298 355 426
#
# _framework density 23.317906000000001
#
# number of rings (size 3 to 8) (size 9 to 14) (size 15 to 20)
#    0.000    1.600    0.000    4.800    0.000   11.200 
#    0.000   14.000    0.000    0.000    0.000    0.000 
#    0.000    0.000    0.000    0.000    0.000    0.000 
#
# Total GULP energy -223041.754654 kJ/mol
# GULP energy per Si atom -5576.043866 kJ/mol
# Density = 2.326483 g / cm^3
# Si number density = 23.317906 Si / 1000 Ang^3
#
#
#
# Elastic Constant Matrix: (Units=GPa)
#
#
# Indices 1 2 3 4 5 6 
#
# 1 208.8335 122.9789 109.6491 0.0000 0.0000 0.0000
# 2 122.9789 181.2240 85.5106 0.0000 0.0000 0.0000
# 3 109.6491 85.5106 158.4418 0.0000 0.0000 0.0000
# 4 0.0000 0.0000 0.0000 44.0879 0.0000 0.0000
# 5 0.0000 0.0000 0.0000 0.0000 41.6445 0.0000
# 6 0.0000 0.0000 0.0000 0.0000 0.0000 40.4279
#
#
#
# Elastic Compliance Matrix: (Units=1/GPa)
#
#
# Indices 1 2 3 4 5 6 
#
# 1 0.009726 -0.004594 -0.004252 0.000000 0.000000 0.000000
# 2 -0.004594 0.009573 -0.001987 0.000000 0.000000 0.000000
# 3 -0.004252 -0.001987 0.010326 0.000000 0.000000 0.000000
# 4 0.000000 0.000000 0.000000 0.022682 0.000000 0.000000
# 5 0.000000 0.000000 0.000000 0.000000 0.024013 0.000000
# 6 0.000000 0.000000 0.000000 0.000000 0.000000 0.024735
#
#
# Mechanical properties :
#
#
# Convention : Reuss Voigt Hill
#
# Bulk Modulus (GPa) = 125.63145 131.64185 128.63665
# Shear Modulus (GPa) = 39.88023 40.58943 40.23483
#
# Velocity S-wave (km/s) = 4.14004 4.17669 4.15841
# Velocity P-wave (km/s) = 8.76629 8.93518 8.85114
#
# Compressibility (1/GPa) = 0.00795979
#
# Stress axis : x y z
#
# Youngs Moduli (GPa) = 102.81481 104.45661 96.83991
#
# Poissons Ratio (x) = 0.47989 0.41172
# Poissons Ratio (y) = 0.47234 0.19246
# Poissons Ratio (z) = 0.43712 0.20759
#
# Static dielectric constant tensor:
#      x y z
#    x 1.894310 0.000000 0.000000 
#    y 0.000000 2.018470 0.000000 
#    z 0.000000 0.000000 1.974120 
# 
# From -- ./inp_files/2129.got.cif
#   From: 2010.05.17/outbox.cif.g08.bks.cpg/sg56_2_cif.got.tgz:2129.got - 2010.06.03 13:42:01.
