data_PCOD9432258
_publ_section_title
;
Structure prediction by ZEFSAII (Michael W. Deem and Ramdas Pophale) SiO2 
 PCOD9432258
Probable space group: P C C N
;
_chemical_formula_sum "Si O2"
_cell_formula_units_Z 48
_cell_length_a 8.635266
_cell_length_b 24.124537
_cell_length_c 10.789534
_cell_angle_alpha 90.000000
_cell_angle_beta 90.000000
_cell_angle_gamma 90.000000
_cell_volume 2247.695081
_symmetry_space_group_name_H-M "P C C N"
_symmetry_group_IT_number 56
_symmetry_cell_setting 'orthorhombic'
loop_
_space_group_symop_operation_xyz
x,y,z
1/2-x,1/2-y,z
1/2+x,-y,1/2-z
-x,1/2+y,1/2-z
-x,-y,-z
1/2+x,1/2+y,-z
1/2-x,y,1/2+z
x,1/2-y,1/2+z
loop_
_atom_site_type_symbol
_atom_site_label
_atom_site_fract_x
_atom_site_fract_y
_atom_site_fract_z
Si Si1 0.012873 0.314530 0.871382
Si Si2 0.763887 0.642872 0.816974
Si Si3 0.750000 0.250000 0.222220
Si Si4 0.401098 0.643207 0.378898
Si Si5 0.750000 0.750000 0.987934
Si Si6 0.833908 0.976068 0.865806
Si Si7 0.703941 0.033694 0.621356
O O1 0.143120 0.346676 0.792826
O O2 0.101869 0.261417 0.928149
O O3 0.869059 0.288220 0.799087
O O4 0.958709 0.355612 0.979543
O O5 0.723322 0.586294 0.884849
O O6 0.947718 0.637752 0.790665
O O7 0.738697 0.696052 0.903567
O O8 0.839767 0.294955 0.141719
O O9 0.274948 0.595267 0.362075
O O10 0.019560 0.972293 0.864680
O O11 0.778375 0.997787 0.732019
O O12 0.769573 0.012492 0.980367
#
# Coordination Sequence:
#
# PCOD9432258 Si02
#       7
#     8   8   4   8   4   8   8
#     4  11  23  41  68 101 140 182 228 293 356 422
#     4  11  24  43  69  99 136 184 232 290 351 422
#     4  12  24  42  66 104 140 182 230 290 356 426
#     4  11  26  44  69 103 138 185 235 291 357 422
#     4  10  22  42  66 102 134 180 232 282 356 426
#     4  11  27  48  75 105 145 184 241 290 356 423
#     4  11  27  49  73 109 140 190 236 296 353 427
#
# _framework density 21.355208000000001
#
# number of rings (size 3 to 8) (size 9 to 14) (size 15 to 20)
#    0.000    1.000    0.000    6.000    9.333    2.667 
#    3.000    0.000    0.000    0.000    0.000    0.000 
#    0.000    0.000    0.000    0.000    0.000    0.000 
#
# Total GULP energy -268252.782460 kJ/mol
# GULP energy per Si atom -5588.599635 kJ/mol
# Density = 2.130660 g / cm^3
# Si number density = 21.355208 Si / 1000 Ang^3
#
#
#
# Elastic Constant Matrix: (Units=GPa)
#
#
# Indices 1 2 3 4 5 6 
#
# 1 90.2124 19.6362 41.0590 0.0000 0.0000 0.0000
# 2 19.6362 82.3301 5.6215 0.0000 0.0000 0.0000
# 3 41.0590 5.6215 75.0182 0.0000 0.0000 0.0000
# 4 0.0000 0.0000 0.0000 -4.4974 0.0000 0.0000
# 5 0.0000 0.0000 0.0000 0.0000 51.8249 0.0000
# 6 0.0000 0.0000 0.0000 0.0000 0.0000 41.3908
#
#
#
# Elastic Compliance Matrix: (Units=1/GPa)
#
#
# Indices 1 2 3 4 5 6 
#
# 1 0.015530 -0.003140 -0.008265 0.000000 0.000000 0.000000
# 2 -0.003140 0.012843 0.000756 0.000000 0.000000 0.000000
# 3 -0.008265 0.000756 0.017797 0.000000 0.000000 0.000000
# 4 0.000000 0.000000 0.000000 -0.222349 0.000000 0.000000
# 5 0.000000 0.000000 0.000000 0.000000 0.019296 0.000000
# 6 0.000000 0.000000 0.000000 0.000000 0.000000 0.024160
#
#
# Mechanical properties :
#
#
# Convention : Reuss Voigt Hill
#
# Bulk Modulus (GPa) = 40.20320 42.24380 41.22350
# Shear Modulus (GPa) = -48.47991 29.82657 -9.32667
#
# Velocity S-wave (km/s) = -4.76980 3.74128 -2.09210
# Velocity P-wave (km/s) = 3.38641 6.20382 3.67557
#
# Compressibility (1/GPa) = 0.02487364
#
# Stress axis : x y z
#
# Youngs Moduli (GPa) = 64.39212 77.86075 56.18983
#
# Poissons Ratio (x) = 0.24446 0.46438
# Poissons Ratio (y) = 0.20217 -0.04248
# Poissons Ratio (z) = 0.53217 -0.05886
#
# Static dielectric constant tensor:
#      x y z
#    x 1.785430 0.000000 0.000000 
#    y 0.000000 1.708060 0.000000 
#    z 0.000000 0.000000 1.809980 
# 
# From -- ./inp_files/6436.got.cif
#   From: 2010.05.17/outbox.cif.g08.bks.cpg/sg56_4_cif.got.tgz:6436.got - 2010.06.03 13:42:01.
