data_PCOD9432084
_publ_section_title
;
Structure prediction by ZEFSAII (Michael W. Deem and Ramdas Pophale) SiO2 
 PCOD9432084
Probable space group: P C C N
;
_chemical_formula_sum "Si O2"
_cell_formula_units_Z 40
_cell_length_a 7.101259
_cell_length_b 11.194341
_cell_length_c 18.538660
_cell_angle_alpha 90.000000
_cell_angle_beta 90.000000
_cell_angle_gamma 90.000000
_cell_volume 1473.710658
_symmetry_space_group_name_H-M "P C C N"
_symmetry_group_IT_number 56
_symmetry_cell_setting 'orthorhombic'
loop_
_space_group_symop_operation_xyz
x,y,z
1/2-x,1/2-y,z
1/2+x,-y,1/2-z
-x,1/2+y,1/2-z
-x,-y,-z
1/2+x,1/2+y,-z
1/2-x,y,1/2+z
x,1/2-y,1/2+z
loop_
_atom_site_type_symbol
_atom_site_label
_atom_site_fract_x
_atom_site_fract_y
_atom_site_fract_z
Si Si1 0.569653 0.811447 0.449544
Si Si2 0.461685 0.440060 0.911994
Si Si3 0.496575 0.354200 0.760644
Si Si4 0.435606 0.608382 0.700151
Si Si5 0.603952 0.108730 0.961673
O O1 0.750000 0.750000 0.412808
O O2 0.645982 0.878713 0.522066
O O3 0.434527 0.710864 0.480212
O O4 0.461109 0.916206 0.408309
O O5 0.398902 0.392151 0.835521
O O6 0.679211 0.413309 0.936726
O O7 0.462037 0.465308 0.707453
O O8 0.716864 0.371401 0.780606
O O9 0.465093 0.211720 0.750569
O O10 0.477562 0.640916 0.617167
O O11 0.500000 0.000000 0.000000
#
# Coordination Sequence:
#
# PCOD9432084 Si02
#       5
#     8   8   8   8   8
#     4  11  21  36  61  95 122 157 211 249 307 377
#     4  10  22  40  63  87 128 167 196 262 314 367
#     4  10  22  44  64  89 124 166 211 250 320 366
#     4  10  23  42  67  89 124 168 206 262 307 374
#     4  11  21  40  64  91 128 164 202 250 320 372
#
# _framework density 27.142371000000001
#
# number of rings (size 3 to 8) (size 9 to 14) (size 15 to 20)
#    0.000    1.600    4.000    0.600    0.000    4.000 
#    0.000    0.000    0.000    0.000    0.000    0.000 
#    0.000    0.000    0.000    0.000    0.000    0.000 
#
# Total GULP energy -223466.670922 kJ/mol
# GULP energy per Si atom -5586.666773 kJ/mol
# Density = 2.708059 g / cm^3
# Si number density = 27.142371 Si / 1000 Ang^3
#
#
#
# Elastic Constant Matrix: (Units=GPa)
#
#
# Indices 1 2 3 4 5 6 
#
# 1 94.1809 17.1274 -4.9967 0.0000 0.0000 0.0000
# 2 17.1274 200.2379 12.5980 0.0000 0.0000 0.0000
# 3 -4.9967 12.5980 32.8365 0.0000 0.0000 0.0000
# 4 0.0000 0.0000 0.0000 39.0204 0.0000 0.0000
# 5 0.0000 0.0000 0.0000 0.0000 23.0018 0.0000
# 6 0.0000 0.0000 0.0000 0.0000 0.0000 41.7900
#
#
#
# Elastic Compliance Matrix: (Units=1/GPa)
#
#
# Indices 1 2 3 4 5 6 
#
# 1 0.010921 -0.001064 0.002070 0.000000 0.000000 0.000000
# 2 -0.001064 0.005221 -0.002165 0.000000 0.000000 0.000000
# 3 0.002070 -0.002165 0.031600 0.000000 0.000000 0.000000
# 4 0.000000 0.000000 0.000000 0.025628 0.000000 0.000000
# 5 0.000000 0.000000 0.000000 0.000000 0.043475 0.000000
# 6 0.000000 0.000000 0.000000 0.000000 0.000000 0.023929
#
#
# Mechanical properties :
#
#
# Convention : Reuss Voigt Hill
#
# Bulk Modulus (GPa) = 22.01503 41.85698 31.93600
# Shear Modulus (GPa) = 31.59883 40.93088 36.26485
#
# Velocity S-wave (km/s) = 3.41572 3.88752 3.65923
# Velocity P-wave (km/s) = 4.86670 5.96701 5.44472
#
# Compressibility (1/GPa) = 0.04542352
#
# Stress axis : x y z
#
# Youngs Moduli (GPa) = 91.56447 191.52228 31.64598
#
# Poissons Ratio (x) = 0.20386 -0.06552
# Poissons Ratio (y) = 0.09746 0.06852
# Poissons Ratio (z) = -0.18956 0.41468
#
# Static dielectric constant tensor:
#      x y z
#    x 2.263000 0.000000 0.000000 
#    y 0.000000 2.244080 0.000000 
#    z 0.000000 0.000000 2.122160 
# 
# From -- ./inp_files/14462.got.cif
#   From: 2010.05.17/outbox.cif.g08.bks.cpg/sg56_8_cif.got.tgz:14462.got - 2010.06.03 13:42:01.
