data_PCOD9432320
_publ_section_title
;
Structure prediction by ZEFSAII (Michael W. Deem and Ramdas Pophale) SiO2 
 PCOD9432320
Probable space group: P C C N
;
_chemical_formula_sum "Si O2"
_cell_formula_units_Z 48
_cell_length_a 8.713688
_cell_length_b 8.400816
_cell_length_c 28.265524
_cell_angle_alpha 90.000000
_cell_angle_beta 90.000000
_cell_angle_gamma 90.000000
_cell_volume 2069.095420
_symmetry_space_group_name_H-M "P C C N"
_symmetry_group_IT_number 56
_symmetry_cell_setting 'orthorhombic'
loop_
_space_group_symop_operation_xyz
x,y,z
1/2-x,1/2-y,z
1/2+x,-y,1/2-z
-x,1/2+y,1/2-z
-x,-y,-z
1/2+x,1/2+y,-z
1/2-x,y,1/2+z
x,1/2-y,1/2+z
loop_
_atom_site_type_symbol
_atom_site_label
_atom_site_fract_x
_atom_site_fract_y
_atom_site_fract_z
Si Si1 0.554124 0.003507 0.231101
Si Si2 0.738575 0.942021 0.314952
Si Si3 0.849894 0.993160 0.103763
Si Si4 0.673992 0.430077 0.513025
Si Si5 0.311611 0.070549 0.580291
Si Si6 0.250000 0.750000 0.819542
Si Si7 0.750000 0.750000 0.671299
O O1 0.379447 0.991628 0.215479
O O2 0.617891 0.172123 0.212161
O O3 0.586633 0.990889 0.286621
O O4 0.655517 0.868817 0.204910
O O5 0.750000 0.750000 0.315750
O O6 0.745822 0.995335 0.369158
O O7 0.865449 0.832924 0.134053
O O8 0.726328 0.983506 0.061545
O O9 0.800960 0.114864 0.144337
O O10 0.005974 0.059950 0.082550
O O11 0.750000 0.250000 0.521214
O O12 0.500000 0.500000 0.500000
O O13 0.760476 0.479870 0.465739
O O14 0.250000 0.250000 0.576536
#
# Coordination Sequence:
#
# PCOD9432320 Si02
#       7
#     8   8   8   8   8   4   4
#     4  11  25  44  71 105 146 191 245 302 361 447
#     4  11  26  45  70 105 150 189 245 298 375 431
#     4  11  24  46  73 100 144 186 239 298 373 434
#     4  12  28  47  74 108 148 191 248 307 380 451
#     4  11  26  45  71 101 142 189 244 303 367 438
#     4  10  22  42  72  98 138 194 238 294 372 426
#     4  10  26  42  76 104 142 184 250 294 362 436
#
# _framework density 23.198542
#
# number of rings (size 3 to 8) (size 9 to 14) (size 15 to 20)
#    0.000    1.000    1.667    3.500   15.167    0.000 
#    1.500    0.000    0.000    0.000    0.000    0.000 
#    0.000    0.000    0.000    0.000    0.000    0.000 
#
# Total GULP energy -268182.500816 kJ/mol
# GULP energy per Si atom -5587.135434 kJ/mol
# Density = 2.314574 g / cm^3
# Si number density = 23.198542 Si / 1000 Ang^3
#
#
#
# Elastic Constant Matrix: (Units=GPa)
#
#
# Indices 1 2 3 4 5 6 
#
# 1 75.8705 10.5760 1.6053 0.0000 0.0000 0.0000
# 2 10.5760 23.8614 36.8624 0.0000 0.0000 0.0000
# 3 1.6053 36.8624 142.6010 0.0000 0.0000 0.0000
# 4 0.0000 0.0000 0.0000 41.4174 0.0000 0.0000
# 5 0.0000 0.0000 0.0000 0.0000 52.2244 0.0000
# 6 0.0000 0.0000 0.0000 0.0000 0.0000 32.2549
#
#
#
# Elastic Compliance Matrix: (Units=1/GPa)
#
#
# Indices 1 2 3 4 5 6 
#
# 1 0.014567 -0.010327 0.002506 0.000000 0.000000 0.000000
# 2 -0.010327 0.077093 -0.019812 0.000000 0.000000 0.000000
# 3 0.002506 -0.019812 0.012106 0.000000 0.000000 0.000000
# 4 0.000000 0.000000 0.000000 0.024144 0.000000 0.000000
# 5 0.000000 0.000000 0.000000 0.000000 0.019148 0.000000
# 6 0.000000 0.000000 0.000000 0.000000 0.000000 0.031003
#
#
# Mechanical properties :
#
#
# Convention : Reuss Voigt Hill
#
# Bulk Modulus (GPa) = 20.61946 37.82449 29.22198
# Shear Modulus (GPa) = 20.04047 38.06529 29.05288
#
# Velocity S-wave (km/s) = 2.94235 4.05513 3.54271
# Velocity P-wave (km/s) = 4.52226 6.18592 5.41832
#
# Compressibility (1/GPa) = 0.04849787
#
# Stress axis : x y z
#
# Youngs Moduli (GPa) = 68.64874 12.97136 82.60472
#
# Poissons Ratio (x) = 0.13396 -0.20698
# Poissons Ratio (y) = 0.70895 1.63659
# Poissons Ratio (z) = -0.17201 0.25699
#
# Static dielectric constant tensor:
#      x y z
#    x 1.906690 0.000000 0.000000 
#    y 0.000000 1.987340 0.000000 
#    z 0.000000 0.000000 1.836820 
# 
# From -- ./inp_files/23287.got.cif
#   From: 2010.05.17/outbox.cif.g08.bks.cpg/sg56_12_cif.got.tgz:23287.got - 2010.06.03 13:42:01.
