data_PCOD9432194
_publ_section_title
;
Structure prediction by ZEFSAII (Michael W. Deem and Ramdas Pophale) SiO2 
 PCOD9432194
Probable space group: P C C N
;
_chemical_formula_sum "Si O2"
_cell_formula_units_Z 32
_cell_length_a 18.750091
_cell_length_b 5.067091
_cell_length_c 14.263671
_cell_angle_alpha 90.000000
_cell_angle_beta 90.000000
_cell_angle_gamma 90.000000
_cell_volume 1355.168807
_symmetry_space_group_name_H-M "P C C N"
_symmetry_group_IT_number 56
_symmetry_cell_setting 'orthorhombic'
loop_
_space_group_symop_operation_xyz
x,y,z
1/2-x,1/2-y,z
1/2+x,-y,1/2-z
-x,1/2+y,1/2-z
-x,-y,-z
1/2+x,1/2+y,-z
1/2-x,y,1/2+z
x,1/2-y,1/2+z
loop_
_atom_site_type_symbol
_atom_site_label
_atom_site_fract_x
_atom_site_fract_y
_atom_site_fract_z
Si Si1 0.980353 0.254480 0.062304
Si Si2 0.116047 0.409145 0.649327
Si Si3 0.322717 0.592728 0.743212
Si Si4 0.326035 0.616676 0.952464
O O1 0.895902 0.289108 0.074348
O O2 0.035155 0.205701 0.146919
O O3 0.000000 0.500000 0.000000
O O4 0.000000 0.000000 0.000000
O O5 0.121495 0.679225 0.709252
O O6 0.147322 0.467811 0.545024
O O7 0.163277 0.168817 0.685598
O O8 0.250000 0.750000 0.724801
O O9 0.317914 0.486864 0.850405
O O10 0.250000 0.750000 0.973177
#
# Coordination Sequence:
#
# PCOD9432194 Si02
#       4
#     8   8   8   8
#     4  10  22  41  66  97 129 171 223 264 321 398
#     4  11  23  43  69  97 135 177 217 277 332 386
#     4  11  25  42  67 102 133 173 230 268 325 407
#     4  10  24  46  71  98 135 177 218 277 336 389
#
# _framework density 23.613295000000001
#
# number of rings (size 3 to 8) (size 9 to 14) (size 15 to 20)
#    0.000    1.500    0.000    4.500    0.000   10.000 
#    0.000   13.750    0.000    1.500    0.000    0.000 
#    0.000    0.000    0.000    0.000    0.000    0.000 
#
# Total GULP energy -178375.363136 kJ/mol
# GULP energy per Si atom -5574.230098 kJ/mol
# Density = 2.355955 g / cm^3
# Si number density = 23.613295 Si / 1000 Ang^3
#
#
#
# Elastic Constant Matrix: (Units=GPa)
#
#
# Indices 1 2 3 4 5 6 
#
# 1 165.0453 5.8555 39.8152 0.0000 0.0000 0.0000
# 2 5.8555 114.3688 59.6182 0.0000 0.0000 0.0000
# 3 39.8152 59.6182 131.5675 0.0000 0.0000 0.0000
# 4 0.0000 0.0000 0.0000 9.9558 0.0000 0.0000
# 5 0.0000 0.0000 0.0000 0.0000 4.4170 0.0000
# 6 0.0000 0.0000 0.0000 0.0000 0.0000 19.5486
#
#
#
# Elastic Compliance Matrix: (Units=1/GPa)
#
#
# Indices 1 2 3 4 5 6 
#
# 1 0.006610 0.000922 -0.002418 0.000000 0.000000 0.000000
# 2 0.000922 0.011576 -0.005525 0.000000 0.000000 0.000000
# 3 -0.002418 -0.005525 0.010836 0.000000 0.000000 0.000000
# 4 0.000000 0.000000 0.000000 0.100444 0.000000 0.000000
# 5 0.000000 0.000000 0.000000 0.000000 0.226397 0.000000
# 6 0.000000 0.000000 0.000000 0.000000 0.000000 0.051155
#
#
# Mechanical properties :
#
#
# Convention : Reuss Voigt Hill
#
# Bulk Modulus (GPa) = 66.75374 69.06213 67.90794
# Shear Modulus (GPa) = 11.73565 27.16380 19.44972
#
# Velocity S-wave (km/s) = 2.23175 3.39538 2.87309
# Velocity P-wave (km/s) = 5.91370 6.68446 6.31086
#
# Compressibility (1/GPa) = 0.01498043
#
# Stress axis : x y z
#
# Youngs Moduli (GPa) = 151.29627 86.38285 92.28607
#
# Poissons Ratio (x) = -0.07965 0.22315
# Poissons Ratio (y) = -0.13951 0.50986
# Poissons Ratio (z) = 0.36584 0.47724
#
# Static dielectric constant tensor:
#      x y z
#    x 2.035930 0.000000 0.000000 
#    y 0.000000 1.881260 0.000000 
#    z 0.000000 0.000000 2.050890 
# 
# From -- ./inp_files/9395.got.cif
#   From: 2010.05.17/outbox.cif.g08.bks.cpg/sg56_5_cif.got.tgz:9395.got - 2010.06.03 13:42:01.
