data_PCOD9432635
_publ_section_title
;
Structure prediction by ZEFSAII (Michael W. Deem and Ramdas Pophale) SiO2 
 PCOD9432635
Probable space group: P C C N
;
_chemical_formula_sum "Si O2"
_cell_formula_units_Z 48
_cell_length_a 13.913063
_cell_length_b 16.394789
_cell_length_c 9.709166
_cell_angle_alpha 90.000000
_cell_angle_beta 90.000000
_cell_angle_gamma 90.000000
_cell_volume 2214.677583
_symmetry_space_group_name_H-M "P C C N"
_symmetry_group_IT_number 56
_symmetry_cell_setting 'orthorhombic'
loop_
_space_group_symop_operation_xyz
x,y,z
1/2-x,1/2-y,z
1/2+x,-y,1/2-z
-x,1/2+y,1/2-z
-x,-y,-z
1/2+x,1/2+y,-z
1/2-x,y,1/2+z
x,1/2-y,1/2+z
loop_
_atom_site_type_symbol
_atom_site_label
_atom_site_fract_x
_atom_site_fract_y
_atom_site_fract_z
Si Si1 0.840438 0.037565 0.060853
Si Si2 0.643007 0.282227 0.094033
Si Si3 0.673834 0.471713 0.750056
Si Si4 0.983013 0.225994 0.364632
Si Si5 0.038937 0.400769 0.283407
Si Si6 0.580936 0.570826 0.519672
O O1 0.871646 0.129520 0.023824
O O2 0.770979 0.065620 0.188792
O O3 0.916128 0.973291 0.123640
O O4 0.809687 0.003963 0.909377
O O5 0.750000 0.250000 0.117863
O O6 0.578731 0.281813 0.228183
O O7 0.593277 0.221987 0.987442
O O8 0.573020 0.422673 0.751024
O O9 0.660627 0.534881 0.622620
O O10 0.040252 0.311507 0.352513
O O11 0.046912 0.148162 0.393363
O O12 0.096843 0.401657 0.138188
O O13 0.500000 0.500000 0.500000
#
# Coordination Sequence:
#
# PCOD9432635 Si02
#       6
#     8   8   8   8   8   8
#     4  12  26  42  72 101 142 184 233 288 350 421
#     4  12  26  40  64 101 144 177 226 288 353 426
#     4  11  24  43  67 101 134 183 231 281 347 418
#     4  12  24  42  67 100 135 183 235 286 351 418
#     4  11  23  45  67 102 138 188 234 283 352 415
#     4  10  23  42  69  91 138 182 232 279 348 413
#
# _framework density 21.673583000000001
#
# number of rings (size 3 to 8) (size 9 to 14) (size 15 to 20)
#    0.000    0.667    3.333    5.000    7.000    0.000 
#    0.000    0.833    0.000    4.000    0.000    0.000 
#    0.000    0.000    0.000    0.000    0.000    0.000 
#
# Total GULP energy -267452.450811 kJ/mol
# GULP energy per Si atom -5571.926059 kJ/mol
# Density = 2.162425 g / cm^3
# Si number density = 21.673583 Si / 1000 Ang^3
#
#
#
# Elastic Constant Matrix: (Units=GPa)
#
#
# Indices 1 2 3 4 5 6 
#
# 1 11.9392 8.2627 19.5048 0.0000 0.0000 0.0000
# 2 8.2627 86.6956 2.6459 0.0000 0.0000 0.0000
# 3 19.5048 2.6459 148.0768 0.0000 0.0000 0.0000
# 4 0.0000 0.0000 0.0000 39.4002 0.0000 0.0000
# 5 0.0000 0.0000 0.0000 0.0000 36.3620 0.0000
# 6 0.0000 0.0000 0.0000 0.0000 0.0000 6.9450
#
#
#
# Elastic Compliance Matrix: (Units=1/GPa)
#
#
# Indices 1 2 3 4 5 6 
#
# 1 0.115644 -0.010563 -0.015044 0.000000 0.000000 0.000000
# 2 -0.010563 0.012506 0.001168 0.000000 0.000000 0.000000
# 3 -0.015044 0.001168 0.008714 0.000000 0.000000 0.000000
# 4 0.000000 0.000000 0.000000 0.025381 0.000000 0.000000
# 5 0.000000 0.000000 0.000000 0.000000 0.027501 0.000000
# 6 0.000000 0.000000 0.000000 0.000000 0.000000 0.143988
#
#
# Mechanical properties :
#
#
# Convention : Reuss Voigt Hill
#
# Bulk Modulus (GPa) = 11.36538 34.17094 22.76816
# Shear Modulus (GPa) = 12.13769 30.96134 21.54951
#
# Velocity S-wave (km/s) = 2.36905 3.78369 3.15663
# Velocity P-wave (km/s) = 3.56910 5.90667 4.87992
#
# Compressibility (1/GPa) = 0.08798653
#
# Stress axis : x y z
#
# Youngs Moduli (GPa) = 8.64720 79.96388 114.75774
#
# Poissons Ratio (x) = 0.84462 1.72642
# Poissons Ratio (y) = 0.09134 -0.13402
# Poissons Ratio (z) = 0.13009 -0.09339
#
# Static dielectric constant tensor:
#      x y z
#    x 1.801660 0.000000 0.000000 
#    y 0.000000 1.948700 0.000000 
#    z 0.000000 0.000000 1.708840 
# 
# From -- ./inp_files/3368.got.cif
#   From: 2010.05.17/outbox.cif.g08.bks.cpg/sg56_2_cif.got.tgz:3368.got - 2010.06.03 13:42:01.
