data_PCOD9432776
_publ_section_title
;
Structure prediction by ZEFSAII (Michael W. Deem and Ramdas Pophale) SiO2 
 PCOD9432776
Probable space group: P C C N
;
_chemical_formula_sum "Si O2"
_cell_formula_units_Z 32
_cell_length_a 5.131358
_cell_length_b 17.925637
_cell_length_c 13.515080
_cell_angle_alpha 90.000000
_cell_angle_beta 90.000000
_cell_angle_gamma 90.000000
_cell_volume 1243.155723
_symmetry_space_group_name_H-M "P C C N"
_symmetry_group_IT_number 56
_symmetry_cell_setting 'orthorhombic'
loop_
_space_group_symop_operation_xyz
x,y,z
1/2-x,1/2-y,z
1/2+x,-y,1/2-z
-x,1/2+y,1/2-z
-x,-y,-z
1/2+x,1/2+y,-z
1/2-x,y,1/2+z
x,1/2-y,1/2+z
loop_
_atom_site_type_symbol
_atom_site_label
_atom_site_fract_x
_atom_site_fract_y
_atom_site_fract_z
Si Si1 0.299684 0.432705 0.519684
Si Si2 0.508858 0.299634 0.639116
Si Si3 0.995313 0.544795 0.282602
Si Si4 0.705117 0.664581 0.163914
O O1 0.500000 0.500000 0.500000
O O2 0.479223 0.369290 0.568739
O O3 0.082218 0.449973 0.602383
O O4 0.168304 0.392092 0.425938
O O5 0.750000 0.250000 0.611615
O O6 0.515909 0.326478 0.752936
O O7 0.250000 0.250000 0.631600
O O8 0.777930 0.488365 0.237613
O O9 0.932701 0.623268 0.228122
O O10 0.750000 0.750000 0.129433
#
# Coordination Sequence:
#
# PCOD9432776 Si02
#       4
#     8   8   8   8
#     4  11  23  47  75 114 147 203 260 320 383 473
#     4  10  24  50  75 106 154 204 253 323 390 461
#     4  11  25  48  73 104 150 198 248 314 385 457
#     4  10  23  46  73 112 147 197 250 316 383 457
#
# _framework density 25.740943000000001
#
# number of rings (size 3 to 8) (size 9 to 14) (size 15 to 20)
#    0.000    1.500    2.500    0.750    0.000   14.000 
#    9.000    2.500    0.000    0.000    0.000    0.000 
#    0.000    0.000    0.000    0.000    0.000    0.000 
#
# Total GULP energy -179451.136940 kJ/mol
# GULP energy per Si atom -5607.848029 kJ/mol
# Density = 2.568236 g / cm^3
# Si number density = 25.740943 Si / 1000 Ang^3
#
#
#
# Elastic Constant Matrix: (Units=GPa)
#
#
# Indices 1 2 3 4 5 6 
#
# 1 115.3782 64.5849 -2.7419 0.0000 0.0000 0.0000
# 2 64.5849 226.6109 63.6117 0.0000 0.0000 0.0000
# 3 -2.7419 63.6117 133.5396 0.0000 0.0000 0.0000
# 4 0.0000 0.0000 0.0000 75.0067 0.0000 0.0000
# 5 0.0000 0.0000 0.0000 0.0000 0.6951 0.0000
# 6 0.0000 0.0000 0.0000 0.0000 0.0000 50.5197
#
#
#
# Elastic Compliance Matrix: (Units=1/GPa)
#
#
# Indices 1 2 3 4 5 6 
#
# 1 0.010729 -0.003601 0.001936 0.000000 0.000000 0.000000
# 2 -0.003601 0.006303 -0.003076 0.000000 0.000000 0.000000
# 3 0.001936 -0.003076 0.008994 0.000000 0.000000 0.000000
# 4 0.000000 0.000000 0.000000 0.013332 0.000000 0.000000
# 5 0.000000 0.000000 0.000000 0.000000 1.438541 0.000000
# 6 0.000000 0.000000 0.000000 0.000000 0.000000 0.019794
#
#
# Mechanical properties :
#
#
# Convention : Reuss Voigt Hill
#
# Bulk Modulus (GPa) = 60.45289 80.71534 70.58411
# Shear Modulus (GPa) = 3.30537 48.58259 25.94398
#
# Velocity S-wave (km/s) = 1.13441 4.34910 3.17817
# Velocity P-wave (km/s) = 5.02513 7.52625 6.39907
#
# Compressibility (1/GPa) = 0.01654181
#
# Stress axis : x y z
#
# Youngs Moduli (GPa) = 93.20574 158.66167 111.19106
#
# Poissons Ratio (x) = 0.57137 -0.21523
# Poissons Ratio (y) = 0.33565 0.34205
# Poissons Ratio (z) = -0.18042 0.48808
#
# Static dielectric constant tensor:
#      x y z
#    x 1.949120 0.000000 0.000000 
#    y 0.000000 2.074640 0.000000 
#    z 0.000000 0.000000 2.076500 
# 
# From -- ./inp_files/9424.got.cif
#   From: 2010.05.17/outbox.cif.g08.bks.cpg/sg56_5_cif.got.tgz:9424.got - 2010.06.03 13:42:01.
