data_PCOD9432515
_publ_section_title
;
Structure prediction by ZEFSAII (Michael W. Deem and Ramdas Pophale) SiO2 
 PCOD9432515
Probable space group: P C C N
;
_chemical_formula_sum "Si O2"
_cell_formula_units_Z 36
_cell_length_a 12.249924
_cell_length_b 13.912436
_cell_length_c 8.278717
_cell_angle_alpha 90.000000
_cell_angle_beta 90.000000
_cell_angle_gamma 90.000000
_cell_volume 1410.910972
_symmetry_space_group_name_H-M "P C C N"
_symmetry_group_IT_number 56
_symmetry_cell_setting 'orthorhombic'
loop_
_space_group_symop_operation_xyz
x,y,z
1/2-x,1/2-y,z
1/2+x,-y,1/2-z
-x,1/2+y,1/2-z
-x,-y,-z
1/2+x,1/2+y,-z
1/2-x,y,1/2+z
x,1/2-y,1/2+z
loop_
_atom_site_type_symbol
_atom_site_label
_atom_site_fract_x
_atom_site_fract_y
_atom_site_fract_z
Si Si1 0.734496 0.432979 0.951910
Si Si2 0.388639 0.833732 0.278748
Si Si3 0.450800 0.629341 0.436317
Si Si4 0.833761 0.612023 0.810337
Si Si5 0.250000 0.250000 0.951835
O O1 0.633883 0.403180 0.065462
O O2 0.842344 0.435356 0.065270
O O3 0.776389 0.350672 0.826618
O O4 0.744217 0.534355 0.861907
O O5 0.418345 0.731381 0.355364
O O6 0.471520 0.855708 0.130291
O O7 0.543432 0.576735 0.331553
O O8 0.802183 0.664016 0.647738
O O9 0.837666 0.701119 0.934082
#
# Coordination Sequence:
#
# PCOD9432515 Si02
#       5
#     8   8   8   8   4
#     4  10  23  37  63  92 127 167 202 259 313 383
#     4  10  23  35  62  93 126 162 206 249 330 366
#     4  10  23  37  63  92 127 167 202 259 313 383
#     4  11  21  46  62  92 123 167 220 256 318 368
#     4  10  24  38  72  82 120 170 212 266 308 382
#
# _framework density 25.515428
#
# number of rings (size 3 to 8) (size 9 to 14) (size 15 to 20)
#    1.333    0.444    0.000    4.000    6.222    0.000 
#    0.000    0.000    0.000    8.000    0.000    0.000 
#    0.000    0.000    0.000    0.000    0.000    0.000 
#
# Total GULP energy -200522.924739 kJ/mol
# GULP energy per Si atom -5570.081243 kJ/mol
# Density = 2.545735 g / cm^3
# Si number density = 25.515428 Si / 1000 Ang^3
#
#
#
# Elastic Constant Matrix: (Units=GPa)
#
#
# Indices 1 2 3 4 5 6 
#
# 1 23.0249 8.6242 20.2363 0.0000 0.0000 0.0000
# 2 8.6242 118.9140 59.8293 0.0000 0.0000 0.0000
# 3 20.2363 59.8293 103.7396 0.0000 0.0000 0.0000
# 4 0.0000 0.0000 0.0000 55.3745 0.0000 0.0000
# 5 0.0000 0.0000 0.0000 0.0000 20.7074 0.0000
# 6 0.0000 0.0000 0.0000 0.0000 0.0000 28.9157
#
#
#
# Elastic Compliance Matrix: (Units=1/GPa)
#
#
# Indices 1 2 3 4 5 6 
#
# 1 0.052722 0.001903 -0.011382 0.000000 0.000000 0.000000
# 2 0.001903 0.011916 -0.007243 0.000000 0.000000 0.000000
# 3 -0.011382 -0.007243 0.016037 0.000000 0.000000 0.000000
# 4 0.000000 0.000000 0.000000 0.018059 0.000000 0.000000
# 5 0.000000 0.000000 0.000000 0.000000 0.048292 0.000000
# 6 0.000000 0.000000 0.000000 0.000000 0.000000 0.034583
#
#
# Mechanical properties :
#
#
# Convention : Reuss Voigt Hill
#
# Bulk Modulus (GPa) = 21.17289 47.00646 34.08967
# Shear Modulus (GPa) = 21.66412 31.46544 26.56478
#
# Velocity S-wave (km/s) = 2.91702 3.51549 3.23015
# Velocity P-wave (km/s) = 4.43412 5.91109 5.22506
#
# Compressibility (1/GPa) = 0.04723021
#
# Stress axis : x y z
#
# Youngs Moduli (GPa) = 18.96753 83.92237 62.35524
#
# Poissons Ratio (x) = -0.15969 0.70971
# Poissons Ratio (y) = -0.03609 0.45166
# Poissons Ratio (z) = 0.21588 0.60788
#
# Static dielectric constant tensor:
#      x y z
#    x 3.091790 0.000000 0.000000 
#    y 0.000000 2.023530 0.000000 
#    z 0.000000 0.000000 2.107550 
# 
# From -- ./inp_files/3275.got.cif
#   From: 2010.05.17/outbox.cif.g08.bks.cpg/sg56_2_cif.got.tgz:3275.got - 2010.06.03 13:42:01.
