data_PCOD9432068
_publ_section_title
;
Structure prediction by ZEFSAII (Michael W. Deem and Ramdas Pophale) SiO2 
 PCOD9432068
Probable space group: P C C N
;
_chemical_formula_sum "Si O2"
_cell_formula_units_Z 32
_cell_length_a 14.600795
_cell_length_b 8.530781
_cell_length_c 11.194391
_cell_angle_alpha 90.000000
_cell_angle_beta 90.000000
_cell_angle_gamma 90.000000
_cell_volume 1394.330632
_symmetry_space_group_name_H-M "P C C N"
_symmetry_group_IT_number 56
_symmetry_cell_setting 'orthorhombic'
loop_
_space_group_symop_operation_xyz
x,y,z
1/2-x,1/2-y,z
1/2+x,-y,1/2-z
-x,1/2+y,1/2-z
-x,-y,-z
1/2+x,1/2+y,-z
1/2-x,y,1/2+z
x,1/2-y,1/2+z
loop_
_atom_site_type_symbol
_atom_site_label
_atom_site_fract_x
_atom_site_fract_y
_atom_site_fract_z
Si Si1 0.750000 0.750000 0.113942
Si Si2 0.072308 0.287695 0.512584
Si Si3 0.250000 0.750000 0.559813
Si Si4 0.871857 0.485278 0.091683
Si Si5 0.076660 0.578423 0.666721
O O1 0.808459 0.609149 0.169129
O O2 0.672969 0.662519 0.036082
O O3 0.058881 0.398669 0.625319
O O4 0.995889 0.327426 0.414073
O O5 0.084381 0.100576 0.507110
O O6 0.310694 0.639352 0.475347
O O7 0.176756 0.649214 0.635748
O O8 0.935481 0.408881 0.191369
#
# Coordination Sequence:
#
# PCOD9432068 Si02
#       5
#     4   8   4   8   8
#     4   8  18  44  58  82 122 160 200 258 290 382
#     4   9  21  43  60  89 122 159 215 248 307 387
#     4  12  22  40  58  98 126 154 216 256 304 384
#     4  10  22  40  60  89 125 164 202 257 310 372
#     4  11  22  39  66  90 123 167 200 267 315 362
#
# _framework density 22.950081999999998
#
# number of rings (size 3 to 8) (size 9 to 14) (size 15 to 20)
#    1.500    0.500    2.500    0.750    0.000    8.000 
#    4.500    0.000    0.000    0.000    0.000    0.000 
#    0.000    0.000    0.000    0.000    0.000    0.000 
#
# Total GULP energy -178149.747273 kJ/mol
# GULP energy per Si atom -5567.179602 kJ/mol
# Density = 2.289785 g / cm^3
# Si number density = 22.950082 Si / 1000 Ang^3
#
#
#
# Elastic Constant Matrix: (Units=GPa)
#
#
# Indices 1 2 3 4 5 6 
#
# 1 94.3459 30.5587 36.2092 0.0000 0.0000 0.0000
# 2 30.5587 140.5723 40.4659 0.0000 0.0000 0.0000
# 3 36.2092 40.4659 73.6094 0.0000 0.0000 0.0000
# 4 0.0000 0.0000 0.0000 4.6366 0.0000 0.0000
# 5 0.0000 0.0000 0.0000 0.0000 36.6804 0.0000
# 6 0.0000 0.0000 0.0000 0.0000 0.0000 46.5880
#
#
#
# Elastic Compliance Matrix: (Units=1/GPa)
#
#
# Indices 1 2 3 4 5 6 
#
# 1 0.013232 -0.001191 -0.005854 0.000000 0.000000 0.000000
# 2 -0.001191 0.008558 -0.004119 0.000000 0.000000 0.000000
# 3 -0.005854 -0.004119 0.018729 0.000000 0.000000 0.000000
# 4 0.000000 0.000000 0.000000 0.215673 0.000000 0.000000
# 5 0.000000 0.000000 0.000000 0.000000 0.027263 0.000000
# 6 0.000000 0.000000 0.000000 0.000000 0.000000 0.021465
#
#
# Mechanical properties :
#
#
# Convention : Reuss Voigt Hill
#
# Bulk Modulus (GPa) = 54.97183 58.11056 56.54120
# Shear Modulus (GPa) = 15.00095 31.00060 23.00078
#
# Velocity S-wave (km/s) = 2.55940 3.67929 3.16920
# Velocity P-wave (km/s) = 5.72178 6.58976 6.17105
#
# Compressibility (1/GPa) = 0.01819114
#
# Stress axis : x y z
#
# Youngs Moduli (GPa) = 75.57512 116.84380 53.39267
#
# Poissons Ratio (x) = 0.13919 0.31256
# Poissons Ratio (y) = 0.09003 0.21992
# Poissons Ratio (z) = 0.44242 0.48127
#
# Static dielectric constant tensor:
#      x y z
#    x 1.861980 0.000000 0.000000 
#    y 0.000000 1.875780 0.000000 
#    z 0.000000 0.000000 1.769160 
# 
# From -- ./inp_files/6023.got.cif
#   From: 2010.05.17/outbox.cif.g08.bks.cpg/sg56_4_cif.got.tgz:6023.got - 2010.06.03 13:42:01.
