data_PCOD9432291
_publ_section_title
;
Structure prediction by ZEFSAII (Michael W. Deem and Ramdas Pophale) SiO2 
 PCOD9432291
Probable space group: P C C N
;
_chemical_formula_sum "Si O2"
_cell_formula_units_Z 28
_cell_length_a 11.119884
_cell_length_b 7.966748
_cell_length_c 13.672930
_cell_angle_alpha 90.000000
_cell_angle_beta 90.000000
_cell_angle_gamma 90.000000
_cell_volume 1211.275484
_symmetry_space_group_name_H-M "P C C N"
_symmetry_group_IT_number 56
_symmetry_cell_setting 'orthorhombic'
loop_
_space_group_symop_operation_xyz
x,y,z
1/2-x,1/2-y,z
1/2+x,-y,1/2-z
-x,1/2+y,1/2-z
-x,-y,-z
1/2+x,1/2+y,-z
1/2-x,y,1/2+z
x,1/2-y,1/2+z
loop_
_atom_site_type_symbol
_atom_site_label
_atom_site_fract_x
_atom_site_fract_y
_atom_site_fract_z
Si Si1 0.750000 0.250000 0.477176
Si Si2 0.658214 0.896583 0.541461
Si Si3 0.631893 0.642939 0.812377
Si Si4 0.939651 0.297541 0.324896
O O1 0.787588 0.415874 0.536151
O O2 0.859706 0.199228 0.404150
O O3 0.750000 0.750000 0.571130
O O4 0.622778 0.850873 0.429826
O O5 0.544776 0.883920 0.611348
O O6 0.750000 0.750000 0.787070
O O7 0.511432 0.703869 0.759068
O O8 0.643740 0.447140 0.784665
#
# Coordination Sequence:
#
# PCOD9432291 Si02
#       4
#     4   8   8   8
#     4  10  22  42  68  96 136 180 222 280 330 402
#     4  10  23  46  69 100 138 173 231 281 333 406
#     4  10  23  42  65  96 137 170 224 282 327 405
#     4  11  24  44  67 101 132 182 225 275 347 395
#
# _framework density 23.116126000000001
#
# number of rings (size 3 to 8) (size 9 to 14) (size 15 to 20)
#    0.000    1.714    0.000    4.286   12.000    1.143 
#   15.429    1.429    0.000    0.000    0.000    0.000 
#    0.000    0.000    0.000    0.000    0.000    0.000 
#
# Total GULP energy -156506.645271 kJ/mol
# GULP energy per Si atom -5589.523045 kJ/mol
# Density = 2.306351 g / cm^3
# Si number density = 23.116126 Si / 1000 Ang^3
#
#
#
# Elastic Constant Matrix: (Units=GPa)
#
#
# Indices 1 2 3 4 5 6 
#
# 1 91.8861 42.2511 11.6788 0.0000 0.0000 0.0000
# 2 42.2511 72.9893 33.5294 0.0000 0.0000 0.0000
# 3 11.6788 33.5294 82.4198 0.0000 0.0000 0.0000
# 4 0.0000 0.0000 0.0000 9.0200 0.0000 0.0000
# 5 0.0000 0.0000 0.0000 0.0000 38.0450 0.0000
# 6 0.0000 0.0000 0.0000 0.0000 0.0000 56.7696
#
#
#
# Elastic Compliance Matrix: (Units=1/GPa)
#
#
# Indices 1 2 3 4 5 6 
#
# 1 0.015029 -0.009496 0.001734 0.000000 0.000000 0.000000
# 2 -0.009496 0.022850 -0.007950 0.000000 0.000000 0.000000
# 3 0.001734 -0.007950 0.015122 0.000000 0.000000 0.000000
# 4 0.000000 0.000000 0.000000 0.110864 0.000000 0.000000
# 5 0.000000 0.000000 0.000000 0.000000 0.026285 0.000000
# 6 0.000000 0.000000 0.000000 0.000000 0.000000 0.017615
#
#
# Mechanical properties :
#
#
# Convention : Reuss Voigt Hill
#
# Bulk Modulus (GPa) = 46.34954 46.91263 46.63109
# Shear Modulus (GPa) = 20.29369 31.42264 25.85817
#
# Velocity S-wave (km/s) = 2.96616 3.69092 3.34821
# Velocity P-wave (km/s) = 5.64137 6.20502 5.92989
#
# Compressibility (1/GPa) = 0.02157519
#
# Stress axis : x y z
#
# Youngs Moduli (GPa) = 66.53663 43.76408 66.13094
#
# Poissons Ratio (x) = 0.41560 -0.11464
# Poissons Ratio (y) = 0.63186 0.52574
# Poissons Ratio (z) = -0.11535 0.34792
#
# Static dielectric constant tensor:
#      x y z
#    x 2.012150 0.000000 0.000000 
#    y 0.000000 1.707630 0.000000 
#    z 0.000000 0.000000 1.859240 
# 
# From -- ./inp_files/9976.got.cif
#   From: 2010.05.17/outbox.cif.g08.bks.cpg/sg56_5_cif.got.tgz:9976.got - 2010.06.03 13:42:01.
