data_PCOD9432581
_publ_section_title
;
Structure prediction by ZEFSAII (Michael W. Deem and Ramdas Pophale) SiO2 
 PCOD9432581
Probable space group: P C C N
;
_chemical_formula_sum "Si O2"
_cell_formula_units_Z 56
_cell_length_a 16.404550
_cell_length_b 12.508041
_cell_length_c 12.110737
_cell_angle_alpha 90.000000
_cell_angle_beta 90.000000
_cell_angle_gamma 90.000000
_cell_volume 2484.987398
_symmetry_space_group_name_H-M "P C C N"
_symmetry_group_IT_number 56
_symmetry_cell_setting 'orthorhombic'
loop_
_space_group_symop_operation_xyz
x,y,z
1/2-x,1/2-y,z
1/2+x,-y,1/2-z
-x,1/2+y,1/2-z
-x,-y,-z
1/2+x,1/2+y,-z
1/2-x,y,1/2+z
x,1/2-y,1/2+z
loop_
_atom_site_type_symbol
_atom_site_label
_atom_site_fract_x
_atom_site_fract_y
_atom_site_fract_z
Si Si1 0.136946 0.512852 0.275253
Si Si2 0.296022 0.148642 0.967590
Si Si3 0.476840 0.375522 0.186685
Si Si4 0.607161 0.463718 0.642894
Si Si5 0.051153 0.148156 0.609412
Si Si6 0.849629 0.540134 0.477206
Si Si7 0.210800 0.864928 0.175964
O O1 0.095842 0.438994 0.183914
O O2 0.149343 0.453364 0.391149
O O3 0.216549 0.562529 0.222909
O O4 0.071975 0.603287 0.307086
O O5 0.250000 0.250000 0.908810
O O6 0.384344 0.181419 0.015397
O O7 0.226194 0.116905 0.056943
O O8 0.322322 0.032529 0.916690
O O9 0.435002 0.443935 0.283238
O O10 0.461982 0.250530 0.185916
O O11 0.433334 0.422225 0.077304
O O12 0.535865 0.403750 0.574089
O O13 0.644450 0.375828 0.726127
O O14 0.827950 0.422901 0.430471
O O15 0.250000 0.750000 0.154431
#
# Coordination Sequence:
#
# PCOD9432581 Si02
#       7
#     8   8   8   8   8   8   8
#     4  11  23  42  66  90 133 171 215 273 329 390
#     4  12  23  41  68 101 135 175 218 277 338 396
#     4  10  23  41  64  96 128 175 218 275 330 402
#     4  10  24  42  64  98 139 171 228 278 332 406
#     4  11  23  42  65  96 135 172 222 272 338 398
#     4  11  23  43  63  98 130 166 225 272 326 403
#     4  11  23  42  65  93 130 176 223 273 330 395
#
# _framework density 22.535326000000001
#
# number of rings (size 3 to 8) (size 9 to 14) (size 15 to 20)
#    0.000    1.143    4.286    1.714    2.000    0.571 
#    2.571    0.000    0.000    0.000    0.000    0.000 
#    0.000    0.000    0.000    0.000    0.000    0.000 
#
# Total GULP energy -312347.146912 kJ/mol
# GULP energy per Si atom -5577.627623 kJ/mol
# Density = 2.248403 g / cm^3
# Si number density = 22.535326 Si / 1000 Ang^3
#
#
#
# Elastic Constant Matrix: (Units=GPa)
#
#
# Indices 1 2 3 4 5 6 
#
# 1 68.8596 -7.3608 3.4065 0.0000 0.0000 0.0000
# 2 -7.3608 72.8951 -8.9652 0.0000 0.0000 0.0000
# 3 3.4065 -8.9652 29.8000 0.0000 0.0000 0.0000
# 4 0.0000 0.0000 0.0000 15.2433 0.0000 0.0000
# 5 0.0000 0.0000 0.0000 0.0000 24.6752 0.0000
# 6 0.0000 0.0000 0.0000 0.0000 0.0000 45.0557
#
#
#
# Elastic Compliance Matrix: (Units=1/GPa)
#
#
# Indices 1 2 3 4 5 6 
#
# 1 0.014728 0.001329 -0.001284 0.000000 0.000000 0.000000
# 2 0.001329 0.014365 0.004170 0.000000 0.000000 0.000000
# 3 -0.001284 0.004170 0.034958 0.000000 0.000000 0.000000
# 4 0.000000 0.000000 0.000000 0.065603 0.000000 0.000000
# 5 0.000000 0.000000 0.000000 0.000000 0.040526 0.000000
# 6 0.000000 0.000000 0.000000 0.000000 0.000000 0.022195
#
#
# Mechanical properties :
#
#
# Convention : Reuss Voigt Hill
#
# Bulk Modulus (GPa) = 13.79640 16.19061 14.99350
# Shear Modulus (GPa) = 24.02629 29.29312 26.65971
#
# Velocity S-wave (km/s) = 3.26875 3.60929 3.44324
# Velocity P-wave (km/s) = 4.51462 4.95676 4.74084
#
# Compressibility (1/GPa) = 0.07248267
#
# Stress axis : x y z
#
# Youngs Moduli (GPa) = 67.89828 69.61158 28.60553
#
# Poissons Ratio (x) = -0.09254 0.03672
# Poissons Ratio (y) = -0.09026 -0.11928
# Poissons Ratio (z) = 0.08716 -0.29027
#
# Static dielectric constant tensor:
#      x y z
#    x 1.896600 0.000000 0.000000 
#    y 0.000000 1.911210 0.000000 
#    z 0.000000 0.000000 1.869720 
# 
# From -- ./inp_files/12256.got.cif
#   From: 2010.05.17/outbox.cif.g08.bks.cpg/sg56_7_cif.got.tgz:12256.got - 2010.06.03 13:42:01.
