data_PCOD9432859
_publ_section_title
;
Structure prediction by ZEFSAII (Michael W. Deem and Ramdas Pophale) SiO2 
 PCOD9432859
Probable space group: P C C N
;
_chemical_formula_sum "Si O2"
_cell_formula_units_Z 32
_cell_length_a 28.719960
_cell_length_b 5.134639
_cell_length_c 9.409828
_cell_angle_alpha 90.000000
_cell_angle_beta 90.000000
_cell_angle_gamma 90.000000
_cell_volume 1387.635593
_symmetry_space_group_name_H-M "P C C N"
_symmetry_group_IT_number 56
_symmetry_cell_setting 'orthorhombic'
loop_
_space_group_symop_operation_xyz
x,y,z
1/2-x,1/2-y,z
1/2+x,-y,1/2-z
-x,1/2+y,1/2-z
-x,-y,-z
1/2+x,1/2+y,-z
1/2-x,y,1/2+z
x,1/2-y,1/2+z
loop_
_atom_site_type_symbol
_atom_site_label
_atom_site_fract_x
_atom_site_fract_y
_atom_site_fract_z
Si Si1 0.516874 0.047625 0.662547
Si Si2 0.665034 0.675407 0.823692
Si Si3 0.621317 0.001762 0.581197
Si Si4 0.700234 0.187752 0.960544
O O1 0.503810 0.803188 0.762226
O O2 0.500000 0.000000 0.500000
O O3 0.572653 0.073615 0.648601
O O4 0.693637 0.408708 0.837604
O O5 0.648094 0.794585 0.678105
O O6 0.694987 0.901914 0.898802
O O7 0.619640 0.620061 0.923081
O O8 0.655995 0.243673 0.558514
O O9 0.750000 0.250000 0.027662
#
# Coordination Sequence:
#
# PCOD9432859 Si02
#       4
#     8   8   8   8
#     4  12  28  46  76 107 147 192 249 302 369 437
#     4  10  24  41  68  97 135 179 224 285 345 414
#     4  10  26  43  74  95 147 173 242 279 363 402
#     4  10  24  43  67  99 136 179 230 280 353 417
#
# _framework density 23.060808999999999
#
# number of rings (size 3 to 8) (size 9 to 14) (size 15 to 20)
#    1.500    0.000    0.000    3.000   10.500    1.000 
#    4.500    0.000    0.000    0.000    0.000    0.000 
#    0.000    0.000    0.000    0.000    0.000    0.000 
#
# Total GULP energy -178679.951226 kJ/mol
# GULP energy per Si atom -5583.748476 kJ/mol
# Density = 2.300832 g / cm^3
# Si number density = 23.060809 Si / 1000 Ang^3
#
#
#
# Elastic Constant Matrix: (Units=GPa)
#
#
# Indices 1 2 3 4 5 6 
#
# 1 118.3367 17.8647 10.7183 0.0000 0.0000 0.0000
# 2 17.8647 98.2948 18.5070 0.0000 0.0000 0.0000
# 3 10.7183 18.5070 85.6812 0.0000 0.0000 0.0000
# 4 0.0000 0.0000 0.0000 34.6183 0.0000 0.0000
# 5 0.0000 0.0000 0.0000 0.0000 14.7080 0.0000
# 6 0.0000 0.0000 0.0000 0.0000 0.0000 24.9133
#
#
#
# Elastic Compliance Matrix: (Units=1/GPa)
#
#
# Indices 1 2 3 4 5 6 
#
# 1 0.008739 -0.001441 -0.000782 0.000000 0.000000 0.000000
# 2 -0.001441 0.010842 -0.002162 0.000000 0.000000 0.000000
# 3 -0.000782 -0.002162 0.012236 0.000000 0.000000 0.000000
# 4 0.000000 0.000000 0.000000 0.028886 0.000000 0.000000
# 5 0.000000 0.000000 0.000000 0.000000 0.067990 0.000000
# 6 0.000000 0.000000 0.000000 0.000000 0.000000 0.040139
#
#
# Mechanical properties :
#
#
# Convention : Reuss Voigt Hill
#
# Bulk Modulus (GPa) = 43.38796 44.05474 43.72135
# Shear Modulus (GPa) = 26.98547 31.86276 29.42411
#
# Velocity S-wave (km/s) = 3.42451 3.72113 3.57590
# Velocity P-wave (km/s) = 5.87297 6.13251 6.00414
#
# Compressibility (1/GPa) = 0.02304787
#
# Stress axis : x y z
#
# Youngs Moduli (GPa) = 114.43180 92.23066 81.72675
#
# Poissons Ratio (x) = 0.13291 0.06390
# Poissons Ratio (y) = 0.16490 0.17667
# Poissons Ratio (z) = 0.08948 0.19937
#
# Static dielectric constant tensor:
#      x y z
#    x 1.855970 0.000000 0.000000 
#    y 0.000000 1.916500 0.000000 
#    z 0.000000 0.000000 1.940180 
# 
# From -- ./inp_files/1559.got.cif
#   From: 2010.05.17/outbox.cif.g08.bks.cpg/sg56_1_cif.got.tgz:1559.got - 2010.06.03 13:42:01.
