data_PCOD9432410
_publ_section_title
;
Structure prediction by ZEFSAII (Michael W. Deem and Ramdas Pophale) SiO2 
 PCOD9432410
Probable space group: P C C N
;
_chemical_formula_sum "Si O2"
_cell_formula_units_Z 48
_cell_length_a 7.758745
_cell_length_b 14.160363
_cell_length_c 17.765656
_cell_angle_alpha 90.000000
_cell_angle_beta 90.000000
_cell_angle_gamma 90.000000
_cell_volume 1951.853032
_symmetry_space_group_name_H-M "P C C N"
_symmetry_group_IT_number 56
_symmetry_cell_setting 'orthorhombic'
loop_
_space_group_symop_operation_xyz
x,y,z
1/2-x,1/2-y,z
1/2+x,-y,1/2-z
-x,1/2+y,1/2-z
-x,-y,-z
1/2+x,1/2+y,-z
1/2-x,y,1/2+z
x,1/2-y,1/2+z
loop_
_atom_site_type_symbol
_atom_site_label
_atom_site_fract_x
_atom_site_fract_y
_atom_site_fract_z
Si Si1 0.699538 0.507189 0.311171
Si Si2 0.033489 0.891267 0.575006
Si Si3 0.250000 0.250000 0.475430
Si Si4 0.182647 0.849887 0.423756
Si Si5 0.750000 0.250000 0.345535
Si Si6 0.954591 0.918316 0.939280
Si Si7 0.550649 0.143562 0.237165
O O1 0.532937 0.469074 0.359298
O O2 0.824738 0.545717 0.375904
O O3 0.799207 0.428772 0.263489
O O4 0.628688 0.589604 0.258007
O O5 0.078876 0.908016 0.487095
O O6 0.206135 0.837288 0.602532
O O7 0.874400 0.819493 0.571311
O O8 0.369335 0.176057 0.523189
O O9 0.250000 0.750000 0.455377
O O10 0.360154 0.899679 0.402819
O O11 0.074989 0.828161 0.349338
O O12 0.587052 0.230348 0.292114
O O13 0.000000 0.000000 0.000000
#
# Coordination Sequence:
#
# PCOD9432410 Si02
#       7
#     8   8   4   8   4   8   8
#     4  11  26  46  69 102 142 188 237 294 360 431
#     4  11  23  43  70 102 138 179 240 297 350 424
#     4  12  26  40  68 114 132 184 240 306 358 428
#     4  12  22  44  72 101 136 187 228 297 358 424
#     4  10  22  44  68  92 138 190 228 286 366 422
#     4  12  26  43  72 106 142 182 241 300 358 434
#     4  11  25  43  68  99 139 186 231 287 362 432
#
# _framework density 24.592016000000001
#
# number of rings (size 3 to 8) (size 9 to 14) (size 15 to 20)
#    0.000    0.667    5.000    2.000    4.667    2.667 
#    0.000    0.000    0.000    0.000    0.000    0.000 
#    0.000    0.000    0.000    0.000    0.000    0.000 
#
# Total GULP energy -268240.283866 kJ/mol
# GULP energy per Si atom -5588.339247 kJ/mol
# Density = 2.453604 g / cm^3
# Si number density = 24.592016 Si / 1000 Ang^3
#
#
#
# Elastic Constant Matrix: (Units=GPa)
#
#
# Indices 1 2 3 4 5 6 
#
# 1 77.9430 12.5957 13.3040 0.0000 0.0000 0.0000
# 2 12.5957 61.7124 12.1166 0.0000 0.0000 0.0000
# 3 13.3040 12.1166 94.8948 0.0000 0.0000 0.0000
# 4 0.0000 0.0000 0.0000 27.0293 0.0000 0.0000
# 5 0.0000 0.0000 0.0000 0.0000 41.9532 0.0000
# 6 0.0000 0.0000 0.0000 0.0000 0.0000 54.4755
#
#
#
# Elastic Compliance Matrix: (Units=1/GPa)
#
#
# Indices 1 2 3 4 5 6 
#
# 1 0.013495 -0.002444 -0.001580 0.000000 0.000000 0.000000
# 2 -0.002444 0.017064 -0.001836 0.000000 0.000000 0.000000
# 3 -0.001580 -0.001836 0.010994 0.000000 0.000000 0.000000
# 4 0.000000 0.000000 0.000000 0.036997 0.000000 0.000000
# 5 0.000000 0.000000 0.000000 0.000000 0.023836 0.000000
# 6 0.000000 0.000000 0.000000 0.000000 0.000000 0.018357
#
#
# Mechanical properties :
#
#
# Convention : Reuss Voigt Hill
#
# Bulk Modulus (GPa) = 33.52111 34.50920 34.01515
# Shear Modulus (GPa) = 35.11093 37.79386 36.45239
#
# Velocity S-wave (km/s) = 3.78264 3.92450 3.85422
# Velocity P-wave (km/s) = 5.72174 5.88207 5.80246
#
# Compressibility (1/GPa) = 0.02983195
#
# Stress axis : x y z
#
# Youngs Moduli (GPa) = 74.10419 58.60446 90.95942
#
# Poissons Ratio (x) = 0.14323 0.14370
# Poissons Ratio (y) = 0.18112 0.16701
# Poissons Ratio (z) = 0.11707 0.10760
#
# Static dielectric constant tensor:
#      x y z
#    x 1.956800 0.000000 0.000000 
#    y 0.000000 2.096460 0.000000 
#    z 0.000000 0.000000 1.925030 
# 
# From -- ./inp_files/14890.got.cif
#   From: 2010.05.17/outbox.cif.g08.bks.cpg/sg56_8_cif.got.tgz:14890.got - 2010.06.03 13:42:01.
