data_PCOD9432204
_publ_section_title
;
Structure prediction by ZEFSAII (Michael W. Deem and Ramdas Pophale) SiO2 
 PCOD9432204
Probable space group: P C C N
;
_chemical_formula_sum "Si O2"
_cell_formula_units_Z 64
_cell_length_a 7.619984
_cell_length_b 18.808611
_cell_length_c 21.031100
_cell_angle_alpha 90.000000
_cell_angle_beta 90.000000
_cell_angle_gamma 90.000000
_cell_volume 3014.204905
_symmetry_space_group_name_H-M "P C C N"
_symmetry_group_IT_number 56
_symmetry_cell_setting 'orthorhombic'
loop_
_space_group_symop_operation_xyz
x,y,z
1/2-x,1/2-y,z
1/2+x,-y,1/2-z
-x,1/2+y,1/2-z
-x,-y,-z
1/2+x,1/2+y,-z
1/2-x,y,1/2+z
x,1/2-y,1/2+z
loop_
_atom_site_type_symbol
_atom_site_label
_atom_site_fract_x
_atom_site_fract_y
_atom_site_fract_z
Si Si1 0.753925 0.673298 0.841114
Si Si2 0.439612 0.584197 0.567562
Si Si3 0.753083 0.070594 0.195025
Si Si4 0.502230 0.071921 0.083088
Si Si5 0.210810 0.331476 0.388194
Si Si6 0.390866 0.419784 0.766172
Si Si7 0.384012 0.684090 0.888356
Si Si8 0.640800 0.176304 0.466203
O O1 0.750000 0.750000 0.806145
O O2 0.908876 0.640928 0.886184
O O3 0.758706 0.613424 0.786344
O O4 0.593342 0.690359 0.888068
O O5 0.474274 0.581055 0.491643
O O6 0.408158 0.504106 0.591959
O O7 0.609234 0.626499 0.593846
O O8 0.258144 0.624788 0.576596
O O9 0.675876 0.056746 0.124191
O O10 0.585880 0.087320 0.238218
O O11 0.862824 0.139665 0.177059
O O12 0.851280 0.002358 0.221235
O O13 0.250000 0.250000 0.370646
O O14 0.131330 0.375417 0.329951
O O15 0.059606 0.325259 0.442518
O O16 0.250000 0.750000 0.882157
O O17 0.349186 0.655412 0.959414
O O18 0.750000 0.250000 0.462265
#
# Coordination Sequence:
#
# PCOD9432204 Si02
#       8
#     8   8   8   8   8   8   8   8
#     4  11  24  43  69  96 127 175 229 281 339 401
#     4  11  22  43  66  99 144 172 223 277 344 407
#     4  11  22  43  66  91 131 172 219 281 333 399
#     4  10  22  41  67  97 129 177 214 281 339 398
#     4  12  25  43  67 100 141 186 226 282 346 418
#     4  11  25  44  66  97 132 177 231 276 343 415
#     4  11  23  41  67 100 132 167 229 287 336 404
#     4  11  24  40  67 103 135 180 228 277 339 411
#
# _framework density 21.232797000000001
#
# number of rings (size 3 to 8) (size 9 to 14) (size 15 to 20)
#    0.000    1.000    3.750    3.375    1.750    4.000 
#    2.250    3.125    0.000    0.000    0.000    0.000 
#    0.000    0.000    0.000    0.000    0.000    0.000 
#
# Total GULP energy -356405.320447 kJ/mol
# GULP energy per Si atom -5568.833132 kJ/mol
# Density = 2.118447 g / cm^3
# Si number density = 21.232797 Si / 1000 Ang^3
#
#
#
# Elastic Constant Matrix: (Units=GPa)
#
#
# Indices 1 2 3 4 5 6 
#
# 1 65.8348 18.8189 2.8697 0.0000 0.0000 0.0000
# 2 18.8189 73.4891 7.4895 0.0000 0.0000 0.0000
# 3 2.8697 7.4895 65.4648 0.0000 0.0000 0.0000
# 4 0.0000 0.0000 0.0000 42.2521 0.0000 0.0000
# 5 0.0000 0.0000 0.0000 0.0000 5.8081 0.0000
# 6 0.0000 0.0000 0.0000 0.0000 0.0000 16.1557
#
#
#
# Elastic Compliance Matrix: (Units=1/GPa)
#
#
# Indices 1 2 3 4 5 6 
#
# 1 0.016393 -0.004173 -0.000241 0.000000 0.000000 0.000000
# 2 -0.004173 0.014830 -0.001514 0.000000 0.000000 0.000000
# 3 -0.000241 -0.001514 0.015459 0.000000 0.000000 0.000000
# 4 0.000000 0.000000 0.000000 0.023667 0.000000 0.000000
# 5 0.000000 0.000000 0.000000 0.000000 0.172172 0.000000
# 6 0.000000 0.000000 0.000000 0.000000 0.000000 0.061898
#
#
# Mechanical properties :
#
#
# Convention : Reuss Voigt Hill
#
# Bulk Modulus (GPa) = 28.71404 29.23832 28.97618
# Shear Modulus (GPa) = 15.24925 24.55057 19.89991
#
# Velocity S-wave (km/s) = 2.68282 3.40407 3.06473
# Velocity P-wave (km/s) = 4.81139 5.40837 5.11859
#
# Compressibility (1/GPa) = 0.03482617
#
# Stress axis : x y z
#
# Youngs Moduli (GPa) = 61.00175 67.42904 64.68667
#
# Poissons Ratio (x) = 0.28140 0.01560
# Poissons Ratio (y) = 0.25458 0.09792
# Poissons Ratio (z) = 0.01471 0.10207
#
# Static dielectric constant tensor:
#      x y z
#    x 2.491010 0.000000 0.000000 
#    y 0.000000 2.938760 0.000000 
#    z 0.000000 0.000000 1.756000 
# 
# From -- ./inp_files/18378.got.cif
#   From: 2010.05.17/outbox.cif.g08.bks.cpg/sg56_10_cif.got.tgz:18378.got - 2010.06.03 13:42:01.
