data_PCOD9432655
_publ_section_title
;
Structure prediction by ZEFSAII (Michael W. Deem and Ramdas Pophale) SiO2 
 PCOD9432655
Probable space group: P C C N
;
_chemical_formula_sum "Si O2"
_cell_formula_units_Z 28
_cell_length_a 14.129140
_cell_length_b 6.872357
_cell_length_c 12.331700
_cell_angle_alpha 90.000000
_cell_angle_beta 90.000000
_cell_angle_gamma 90.000000
_cell_volume 1197.414164
_symmetry_space_group_name_H-M "P C C N"
_symmetry_group_IT_number 56
_symmetry_cell_setting 'orthorhombic'
loop_
_space_group_symop_operation_xyz
x,y,z
1/2-x,1/2-y,z
1/2+x,-y,1/2-z
-x,1/2+y,1/2-z
-x,-y,-z
1/2+x,1/2+y,-z
1/2-x,y,1/2+z
x,1/2-y,1/2+z
loop_
_atom_site_type_symbol
_atom_site_label
_atom_site_fract_x
_atom_site_fract_y
_atom_site_fract_z
Si Si1 0.250000 0.750000 0.131138
Si Si2 0.991244 0.619170 0.388076
Si Si3 0.116951 0.560675 0.796069
Si Si4 0.111634 0.448266 0.015678
O O1 0.302673 0.603471 0.211028
O O2 0.174598 0.620846 0.064654
O O3 0.970796 0.498338 0.279814
O O4 0.900454 0.760819 0.408559
O O5 0.000000 0.500000 0.500000
O O6 0.084285 0.744097 0.359313
O O7 0.142839 0.412179 0.891736
O O8 0.000000 0.500000 0.000000
#
# Coordination Sequence:
#
# PCOD9432655 Si02
#       4
#     4   8   8   8
#     4  12  24  42  68 102 138 186 246 310 374 462
#     4  11  22  42  70  99 136 188 244 304 382 464
#     4  11  22  40  65  94 133 177 231 299 368 438
#     4  10  23  43  66  98 138 185 239 304 383 460
#
# _framework density 23.383724000000001
#
# number of rings (size 3 to 8) (size 9 to 14) (size 15 to 20)
#    0.000    1.143    0.000    9.429    0.000    1.143 
#    0.000    2.857    0.000    0.000    0.000    0.000 
#    0.000    0.000    0.000    0.000    0.000    0.000 
#
# Total GULP energy -156257.770770 kJ/mol
# GULP energy per Si atom -5580.634670 kJ/mol
# Density = 2.333050 g / cm^3
# Si number density = 23.383724 Si / 1000 Ang^3
#
#
#
# Elastic Constant Matrix: (Units=GPa)
#
#
# Indices 1 2 3 4 5 6 
#
# 1 89.5615 32.6388 41.4544 0.0000 0.0000 0.0000
# 2 32.6388 62.0515 41.1395 0.0000 0.0000 0.0000
# 3 41.4544 41.1395 164.3419 0.0000 0.0000 0.0000
# 4 0.0000 0.0000 0.0000 50.2845 0.0000 0.0000
# 5 0.0000 0.0000 0.0000 0.0000 35.3122 0.0000
# 6 0.0000 0.0000 0.0000 0.0000 0.0000 38.2262
#
#
#
# Elastic Compliance Matrix: (Units=1/GPa)
#
#
# Indices 1 2 3 4 5 6 
#
# 1 0.014382 -0.006187 -0.002079 0.000000 0.000000 0.000000
# 2 -0.006187 0.021984 -0.003943 0.000000 0.000000 0.000000
# 3 -0.002079 -0.003943 0.007596 0.000000 0.000000 0.000000
# 4 0.000000 0.000000 0.000000 0.019887 0.000000 0.000000
# 5 0.000000 0.000000 0.000000 0.000000 0.028319 0.000000
# 6 0.000000 0.000000 0.000000 0.000000 0.000000 0.026160
#
#
# Mechanical properties :
#
#
# Convention : Reuss Voigt Hill
#
# Bulk Modulus (GPa) = 51.16247 60.71338 55.93792
# Shear Modulus (GPa) = 33.49854 38.14606 35.82230
#
# Velocity S-wave (km/s) = 3.78902 4.04333 3.91824
# Velocity P-wave (km/s) = 6.40853 6.91508 6.66662
#
# Compressibility (1/GPa) = 0.01954558
#
# Stress axis : x y z
#
# Youngs Moduli (GPa) = 69.52909 45.48829 131.64307
#
# Poissons Ratio (x) = 0.28142 0.27371
# Poissons Ratio (y) = 0.43015 0.51902
# Poissons Ratio (z) = 0.14457 0.17934
#
# Static dielectric constant tensor:
#      x y z
#    x 2.236890 0.000000 0.000000 
#    y 0.000000 2.184500 0.000000 
#    z 0.000000 0.000000 1.914780 
# 
# From -- ./inp_files/5900.got.cif
#   From: 2010.05.17/outbox.cif.g08.bks.cpg/sg56_3_cif.got.tgz:5900.got - 2010.06.03 13:42:01.
