data_PCOD9432054
_publ_section_title
;
Structure prediction by ZEFSAII (Michael W. Deem and Ramdas Pophale) SiO2 
 PCOD9432054
Probable space group: P C C N
;
_chemical_formula_sum "Si O2"
_cell_formula_units_Z 48
_cell_length_a 11.259236
_cell_length_b 17.089795
_cell_length_c 9.543722
_cell_angle_alpha 90.000000
_cell_angle_beta 90.000000
_cell_angle_gamma 90.000000
_cell_volume 1836.384235
_symmetry_space_group_name_H-M "P C C N"
_symmetry_group_IT_number 56
_symmetry_cell_setting 'orthorhombic'
loop_
_space_group_symop_operation_xyz
x,y,z
1/2-x,1/2-y,z
1/2+x,-y,1/2-z
-x,1/2+y,1/2-z
-x,-y,-z
1/2+x,1/2+y,-z
1/2-x,y,1/2+z
x,1/2-y,1/2+z
loop_
_atom_site_type_symbol
_atom_site_label
_atom_site_fract_x
_atom_site_fract_y
_atom_site_fract_z
Si Si1 0.610289 0.095366 0.685101
Si Si2 0.235142 0.169351 0.337962
Si Si3 0.471697 0.073760 0.288284
Si Si4 0.025530 0.110832 0.473069
Si Si5 0.034957 0.268123 0.632939
Si Si6 0.327049 0.679510 0.202594
O O1 0.569007 0.101102 0.849965
O O2 0.523187 0.149684 0.595936
O O3 0.737799 0.137885 0.685880
O O4 0.583235 0.005782 0.652105
O O5 0.250000 0.250000 0.424483
O O6 0.363096 0.135777 0.299097
O O7 0.157885 0.101330 0.410163
O O8 0.152772 0.201887 0.211425
O O9 0.598398 0.103230 0.347333
O O10 0.493470 0.066374 0.118708
O O11 0.033245 0.202888 0.514241
O O12 0.935376 0.229391 0.733846
O O13 0.250000 0.750000 0.129297
#
# Coordination Sequence:
#
# PCOD9432054 Si02
#       6
#     8   8   8   8   8   8
#     4  10  22  39  68  97 131 171 221 286 340 387
#     4  11  21  37  64  94 131 173 220 276 325 395
#     4  11  23  41  67  97 139 176 218 286 342 392
#     4  10  22  39  68  95 127 176 230 257 337 415
#     4   9  20  42  63  93 126 175 222 274 321 402
#     4   9  19  39  61  87 127 173 219 261 329 394
#
# _framework density 26.138321999999999
#
# number of rings (size 3 to 8) (size 9 to 14) (size 15 to 20)
#    0.000    2.000    3.333    0.500    7.000    0.000 
#    0.000   33.333    0.000    2.000    0.000    0.000 
#    0.000    0.000    0.000    0.000    0.000    0.000 
#
# Total GULP energy -267526.654191 kJ/mol
# GULP energy per Si atom -5573.471962 kJ/mol
# Density = 2.607883 g / cm^3
# Si number density = 26.138322 Si / 1000 Ang^3
#
#
#
# Elastic Constant Matrix: (Units=GPa)
#
#
# Indices 1 2 3 4 5 6 
#
# 1 143.9180 34.2878 -2.1679 0.0000 0.0000 0.0000
# 2 34.2878 142.0652 -22.2724 0.0000 0.0000 0.0000
# 3 -2.1679 -22.2724 48.0928 0.0000 0.0000 0.0000
# 4 0.0000 0.0000 0.0000 20.0725 0.0000 0.0000
# 5 0.0000 0.0000 0.0000 0.0000 0.9185 0.0000
# 6 0.0000 0.0000 0.0000 0.0000 0.0000 32.8371
#
#
#
# Elastic Compliance Matrix: (Units=1/GPa)
#
#
# Indices 1 2 3 4 5 6 
#
# 1 0.007385 -0.001866 -0.000531 0.000000 0.000000 0.000000
# 2 -0.001866 0.008061 0.003649 0.000000 0.000000 0.000000
# 3 -0.000531 0.003649 0.022459 0.000000 0.000000 0.000000
# 4 0.000000 0.000000 0.000000 0.049820 0.000000 0.000000
# 5 0.000000 0.000000 0.000000 0.000000 1.088676 0.000000
# 6 0.000000 0.000000 0.000000 0.000000 0.000000 0.030453
#
#
# Mechanical properties :
#
#
# Convention : Reuss Voigt Hill
#
# Bulk Modulus (GPa) = 24.74605 39.30791 32.02698
# Shear Modulus (GPa) = 4.10570 32.38085 18.24328
#
# Velocity S-wave (km/s) = 1.25466 3.52352 2.64474
# Velocity P-wave (km/s) = 3.40394 5.62358 4.64819
#
# Compressibility (1/GPa) = 0.04041049
#
# Stress axis : x y z
#
# Youngs Moduli (GPa) = 135.41190 124.04783 44.52520
#
# Poissons Ratio (x) = 0.23143 0.02365
# Poissons Ratio (y) = 0.25263 -0.16248
# Poissons Ratio (z) = 0.07192 -0.45268
#
# Static dielectric constant tensor:
#      x y z
#    x 2.188030 0.000000 0.000000 
#    y 0.000000 2.152400 0.000000 
#    z 0.000000 0.000000 2.185000 
# 
# From -- ./inp_files/7171.got.cif
#   From: 2010.05.17/outbox.cif.g08.bks.cpg/sg56_4_cif.got.tgz:7171.got - 2010.06.03 13:42:01.
