data_PCOD9432644
_publ_section_title
;
Structure prediction by ZEFSAII (Michael W. Deem and Ramdas Pophale) SiO2 
 PCOD9432644
Probable space group: P C C N
;
_chemical_formula_sum "Si O2"
_cell_formula_units_Z 36
_cell_length_a 5.155809
_cell_length_b 15.485198
_cell_length_c 17.696380
_cell_angle_alpha 90.000000
_cell_angle_beta 90.000000
_cell_angle_gamma 90.000000
_cell_volume 1412.856385
_symmetry_space_group_name_H-M "P C C N"
_symmetry_group_IT_number 56
_symmetry_cell_setting 'orthorhombic'
loop_
_space_group_symop_operation_xyz
x,y,z
1/2-x,1/2-y,z
1/2+x,-y,1/2-z
-x,1/2+y,1/2-z
-x,-y,-z
1/2+x,1/2+y,-z
1/2-x,y,1/2+z
x,1/2-y,1/2+z
loop_
_atom_site_type_symbol
_atom_site_label
_atom_site_fract_x
_atom_site_fract_y
_atom_site_fract_z
Si Si1 0.341734 0.493524 0.125940
Si Si2 0.339254 0.591046 0.347854
Si Si3 0.048784 0.817071 0.101203
Si Si4 0.750000 0.250000 0.755458
Si Si5 0.327574 0.344638 0.527040
O O1 0.631240 0.483961 0.154367
O O2 0.297341 0.592812 0.108736
O O3 0.333327 0.428439 0.054804
O O4 0.115785 0.449538 0.175609
O O5 0.226395 0.667426 0.297492
O O6 0.403458 0.629199 0.431939
O O7 0.250000 0.750000 0.060189
O O8 0.028435 0.776580 0.184533
O O9 0.781067 0.835285 0.057955
O O10 0.250000 0.250000 0.560698
#
# Coordination Sequence:
#
# PCOD9432644 Si02
#       5
#     8   8   8   4   8
#     4  10  24  46  77 106 150 206 271 307 394 485
#     4  10  24  43  77 102 147 205 270 306 386 494
#     4  10  25  45  71 116 162 198 255 346 402 457
#     4  10  24  48  72 118 162 198 266 336 414 474
#     4  10  23  42  75 108 150 207 262 319 389 480
#
# _framework density 25.480298999999999
#
# number of rings (size 3 to 8) (size 9 to 14) (size 15 to 20)
#    2.000    0.000    0.000    2.000    3.111    4.444 
#    4.000    0.000    0.000    0.000    0.000    0.000 
#    0.000    0.000    0.000    0.000    0.000    0.000 
#
# Total GULP energy -200433.691211 kJ/mol
# GULP energy per Si atom -5567.602534 kJ/mol
# Density = 2.542231 g / cm^3
# Si number density = 25.480299 Si / 1000 Ang^3
#
#
#
# Elastic Constant Matrix: (Units=GPa)
#
#
# Indices 1 2 3 4 5 6 
#
# 1 109.0534 58.0885 41.5311 0.0000 0.0000 0.0000
# 2 58.0885 176.0573 46.2728 0.0000 0.0000 0.0000
# 3 41.5311 46.2728 106.2227 0.0000 0.0000 0.0000
# 4 0.0000 0.0000 0.0000 -62.1964 0.0000 0.0000
# 5 0.0000 0.0000 0.0000 0.0000 3.0521 0.0000
# 6 0.0000 0.0000 0.0000 0.0000 0.0000 27.7748
#
#
#
# Elastic Compliance Matrix: (Units=1/GPa)
#
#
# Indices 1 2 3 4 5 6 
#
# 1 0.012113 -0.003108 -0.003382 0.000000 0.000000 0.000000
# 2 -0.003108 0.007212 -0.001926 0.000000 0.000000 0.000000
# 3 -0.003382 -0.001926 0.011576 0.000000 0.000000 0.000000
# 4 0.000000 0.000000 0.000000 -0.016078 0.000000 0.000000
# 5 0.000000 0.000000 0.000000 0.000000 0.327645 0.000000
# 6 0.000000 0.000000 0.000000 0.000000 0.000000 0.036004
#
#
# Mechanical properties :
#
#
# Convention : Reuss Voigt Hill
#
# Bulk Modulus (GPa) = 71.08441 75.90200 73.49320
# Shear Modulus (GPa) = 12.50019 10.08881 11.29450
#
# Velocity S-wave (km/s) = 2.21731 1.99200 2.10767
# Velocity P-wave (km/s) = 5.87483 5.92823 5.90159
#
# Compressibility (1/GPa) = 0.01406778
#
# Stress axis : x y z
#
# Youngs Moduli (GPa) = 82.55419 138.66427 86.38698
#
# Poissons Ratio (x) = 0.43093 0.29219
# Poissons Ratio (y) = 0.25655 0.16642
# Poissons Ratio (z) = 0.27922 0.26714
#
# Static dielectric constant tensor:
#      x y z
#    x 2.143490 0.000000 0.000000 
#    y 0.000000 2.189420 0.000000 
#    z 0.000000 0.000000 2.118010 
# 
# From -- ./inp_files/17410.got.cif
#   From: 2010.05.17/outbox.cif.g08.bks.cpg/sg56_9_cif.got.tgz:17410.got - 2010.06.03 13:42:01.
