data_PCOD9432220
_publ_section_title
;
Structure prediction by ZEFSAII (Michael W. Deem and Ramdas Pophale) SiO2 
 PCOD9432220
Probable space group: P C C N
;
_chemical_formula_sum "Si O2"
_cell_formula_units_Z 60
_cell_length_a 9.254194
_cell_length_b 10.697528
_cell_length_c 24.945094
_cell_angle_alpha 90.000000
_cell_angle_beta 90.000000
_cell_angle_gamma 90.000000
_cell_volume 2469.489457
_symmetry_space_group_name_H-M "P C C N"
_symmetry_group_IT_number 56
_symmetry_cell_setting 'orthorhombic'
loop_
_space_group_symop_operation_xyz
x,y,z
1/2-x,1/2-y,z
1/2+x,-y,1/2-z
-x,1/2+y,1/2-z
-x,-y,-z
1/2+x,1/2+y,-z
1/2-x,y,1/2+z
x,1/2-y,1/2+z
loop_
_atom_site_type_symbol
_atom_site_label
_atom_site_fract_x
_atom_site_fract_y
_atom_site_fract_z
Si Si1 0.785629 0.515213 0.390069
Si Si2 0.210269 0.444704 0.488082
Si Si3 0.497765 0.286977 0.485882
Si Si4 0.683289 0.122446 0.088579
Si Si5 0.517182 0.085808 0.693190
Si Si6 0.246206 0.101994 0.767713
Si Si7 0.542498 0.635136 0.333686
Si Si8 0.250000 0.750000 0.599844
O O1 0.787947 0.494358 0.453521
O O2 0.668422 0.623626 0.379093
O O3 0.749827 0.377919 0.366594
O O4 0.930969 0.551115 0.360658
O O5 0.367804 0.384544 0.476533
O O6 0.087664 0.341822 0.492473
O O7 0.195325 0.538679 0.439063
O O8 0.584143 0.332763 0.538124
O O9 0.608543 0.266688 0.437405
O O10 0.750000 0.250000 0.109481
O O11 0.584146 0.063175 0.134829
O O12 0.404302 0.067091 0.743600
O O13 0.525984 0.235213 0.686644
O O14 0.660280 0.001091 0.697232
O O15 0.250000 0.250000 0.786109
O O16 0.141235 0.097737 0.715933
#
# Coordination Sequence:
#
# PCOD9432220 Si02
#       8
#     8   8   8   8   8   8   8   4
#     4  11  21  40  66  97 133 184 241 281 341 433
#     4  11  23  38  66  92 136 190 230 292 349 395
#     4  11  22  38  60  90 132 185 235 283 345 408
#     4  12  22  37  62 101 136 177 237 295 337 402
#     4  10  22  43  75 106 135 184 232 287 365 433
#     4   9  21  45  71 105 145 175 222 298 365 435
#     4  10  22  41  71 102 134 178 233 283 353 428
#     4  12  24  40  58  94 142 186 240 284 348 414
#
# _framework density 24.296520000000001
#
# number of rings (size 3 to 8) (size 9 to 14) (size 15 to 20)
#    0.000    1.333    3.333    3.200    1.867    4.267 
#    9.600    0.000    5.867    0.000    3.467    0.000 
#    0.000    0.000    0.000    0.000    0.000    0.000 
#
# Total GULP energy -334875.833976 kJ/mol
# GULP energy per Si atom -5581.263900 kJ/mol
# Density = 2.424122 g / cm^3
# Si number density = 24.296520 Si / 1000 Ang^3
#
#
#
# Elastic Constant Matrix: (Units=GPa)
#
#
# Indices 1 2 3 4 5 6 
#
# 1 105.7249 18.8788 20.0965 0.0000 0.0000 0.0000
# 2 18.8788 56.1533 -7.1416 0.0000 0.0000 0.0000
# 3 20.0965 -7.1416 34.1072 0.0000 0.0000 0.0000
# 4 0.0000 0.0000 0.0000 16.3265 0.0000 0.0000
# 5 0.0000 0.0000 0.0000 0.0000 15.3119 0.0000
# 6 0.0000 0.0000 0.0000 0.0000 0.0000 43.0821
#
#
#
# Elastic Compliance Matrix: (Units=1/GPa)
#
#
# Indices 1 2 3 4 5 6 
#
# 1 0.011886 -0.005020 -0.008055 0.000000 0.000000 0.000000
# 2 -0.005020 0.020416 0.007233 0.000000 0.000000 0.000000
# 3 -0.008055 0.007233 0.035580 0.000000 0.000000 0.000000
# 4 0.000000 0.000000 0.000000 0.061250 0.000000 0.000000
# 5 0.000000 0.000000 0.000000 0.000000 0.065309 0.000000
# 6 0.000000 0.000000 0.000000 0.000000 0.000000 0.023211
#
#
# Mechanical properties :
#
#
# Convention : Reuss Voigt Hill
#
# Bulk Modulus (GPa) = 17.79432 28.85030 23.32231
# Shear Modulus (GPa) = 20.15570 25.88757 23.02164
#
# Velocity S-wave (km/s) = 2.88335 3.26772 3.08153
# Velocity P-wave (km/s) = 4.29240 5.11247 4.72028
#
# Compressibility (1/GPa) = 0.05619772
#
# Stress axis : x y z
#
# Youngs Moduli (GPa) = 84.13225 48.98075 28.10587
#
# Poissons Ratio (x) = 0.24591 0.22638
# Poissons Ratio (y) = 0.42239 -0.20329
# Poissons Ratio (z) = 0.67766 -0.35428
#
# Static dielectric constant tensor:
#      x y z
#    x 1.970920 0.000000 0.000000 
#    y 0.000000 1.972300 0.000000 
#    z 0.000000 0.000000 1.929000 
# 
# From -- ./inp_files/23342.got.cif
#   From: 2010.05.17/outbox.cif.g08.bks.cpg/sg56_12_cif.got.tgz:23342.got - 2010.06.03 13:42:01.
