data_PCOD9432965
_publ_section_title
;
Structure prediction by ZEFSAII (Michael W. Deem and Ramdas Pophale) SiO2 
 PCOD9432965
Probable space group: P C C N
;
_chemical_formula_sum "Si O2"
_cell_formula_units_Z 32
_cell_length_a 11.499851
_cell_length_b 8.084691
_cell_length_c 14.020256
_cell_angle_alpha 90.000000
_cell_angle_beta 90.000000
_cell_angle_gamma 90.000000
_cell_volume 1303.501642
_symmetry_space_group_name_H-M "P C C N"
_symmetry_group_IT_number 56
_symmetry_cell_setting 'orthorhombic'
loop_
_space_group_symop_operation_xyz
x,y,z
1/2-x,1/2-y,z
1/2+x,-y,1/2-z
-x,1/2+y,1/2-z
-x,-y,-z
1/2+x,1/2+y,-z
1/2-x,y,1/2+z
x,1/2-y,1/2+z
loop_
_atom_site_type_symbol
_atom_site_label
_atom_site_fract_x
_atom_site_fract_y
_atom_site_fract_z
Si Si1 0.741606 0.428016 0.713131
Si Si2 0.414450 0.151968 0.409185
Si Si3 0.341126 0.982300 0.596888
Si Si4 0.372982 0.510288 0.459253
O O1 0.750000 0.250000 0.765856
O O2 0.849258 0.517675 0.658750
O O3 0.693198 0.541652 0.798133
O O4 0.650887 0.373846 0.630137
O O5 0.397371 0.110135 0.521549
O O6 0.359930 0.333466 0.405364
O O7 0.552418 0.146419 0.391296
O O8 0.221542 0.948261 0.539530
O O9 0.500000 0.500000 0.500000
#
# Coordination Sequence:
#
# PCOD9432965 Si02
#       4
#     8   8   8   8
#     4  11  26  43  70 104 137 183 234 292 359 424
#     4  10  25  47  70 101 143 188 233 300 355 428
#     4  10  24  44  72  98 144 180 235 293 351 419
#     4  11  27  44  71 105 137 189 237 289 363 425
#
# _framework density 24.54926
#
# number of rings (size 3 to 8) (size 9 to 14) (size 15 to 20)
#    0.000    1.500    0.000    3.000   17.500    5.000 
#    0.000    0.000    0.000    0.000    0.000    0.000 
#    0.000    0.000    0.000    0.000    0.000    0.000 
#
# Total GULP energy -178309.350156 kJ/mol
# GULP energy per Si atom -5572.167192 kJ/mol
# Density = 2.449338 g / cm^3
# Si number density = 24.549260 Si / 1000 Ang^3
#
#
#
# Elastic Constant Matrix: (Units=GPa)
#
#
# Indices 1 2 3 4 5 6 
#
# 1 192.2817 22.9521 76.3500 0.0000 0.0000 0.0000
# 2 22.9521 83.3580 -2.5441 0.0000 0.0000 0.0000
# 3 76.3500 -2.5441 188.3031 0.0000 0.0000 0.0000
# 4 0.0000 0.0000 0.0000 11.2833 0.0000 0.0000
# 5 0.0000 0.0000 0.0000 0.0000 30.3213 0.0000
# 6 0.0000 0.0000 0.0000 0.0000 0.0000 32.9291
#
#
#
# Elastic Compliance Matrix: (Units=1/GPa)
#
#
# Indices 1 2 3 4 5 6 
#
# 1 0.006476 -0.001864 -0.002651 0.000000 0.000000 0.000000
# 2 -0.001864 0.012538 0.000925 0.000000 0.000000 0.000000
# 3 -0.002651 0.000925 0.006398 0.000000 0.000000 0.000000
# 4 0.000000 0.000000 0.000000 0.088626 0.000000 0.000000
# 5 0.000000 0.000000 0.000000 0.000000 0.032980 0.000000
# 6 0.000000 0.000000 0.000000 0.000000 0.000000 0.030368
#
#
# Mechanical properties :
#
#
# Convention : Reuss Voigt Hill
#
# Bulk Modulus (GPa) = 54.84781 73.05098 63.94940
# Shear Modulus (GPa) = 26.22702 39.38575 32.80638
#
# Velocity S-wave (km/s) = 3.27210 4.00979 3.65958
# Velocity P-wave (km/s) = 6.05524 7.15956 6.63043
#
# Compressibility (1/GPa) = 0.01823227
#
# Stress axis : x y z
#
# Youngs Moduli (GPa) = 154.42120 79.75805 156.30067
#
# Poissons Ratio (x) = 0.14867 0.41433
# Poissons Ratio (y) = 0.28784 -0.14460
# Poissons Ratio (z) = 0.40935 -0.07379
#
# Static dielectric constant tensor:
#      x y z
#    x 2.073460 0.000000 0.000000 
#    y 0.000000 2.179920 0.000000 
#    z 0.000000 0.000000 1.854910 
# 
# From -- ./inp_files/11263.got.cif
#   From: 2010.05.17/outbox.cif.g08.bks.cpg/sg56_6_cif.got.tgz:11263.got - 2010.06.03 13:42:01.
