data_PCOD9432641
_publ_section_title
;
Structure prediction by ZEFSAII (Michael W. Deem and Ramdas Pophale) SiO2 
 PCOD9432641
Probable space group: P C C N
;
_chemical_formula_sum "Si O2"
_cell_formula_units_Z 36
_cell_length_a 13.171230
_cell_length_b 7.631770
_cell_length_c 15.090902
_cell_angle_alpha 90.000000
_cell_angle_beta 90.000000
_cell_angle_gamma 90.000000
_cell_volume 1516.934420
_symmetry_space_group_name_H-M "P C C N"
_symmetry_group_IT_number 56
_symmetry_cell_setting 'orthorhombic'
loop_
_space_group_symop_operation_xyz
x,y,z
1/2-x,1/2-y,z
1/2+x,-y,1/2-z
-x,1/2+y,1/2-z
-x,-y,-z
1/2+x,1/2+y,-z
1/2-x,y,1/2+z
x,1/2-y,1/2+z
loop_
_atom_site_type_symbol
_atom_site_label
_atom_site_fract_x
_atom_site_fract_y
_atom_site_fract_z
Si Si1 0.559033 0.276788 0.328239
Si Si2 0.118776 0.943669 0.502775
Si Si3 0.364583 0.147674 0.251153
Si Si4 0.817265 0.418147 0.195517
Si Si5 0.250000 0.250000 0.088746
O O1 0.612569 0.289741 0.423817
O O2 0.437881 0.246059 0.320314
O O3 0.585941 0.465289 0.285130
O O4 0.600460 0.115302 0.271194
O O5 0.204704 0.087823 0.531849
O O6 0.142091 0.894512 0.402786
O O7 0.000000 0.000000 0.500000
O O8 0.239921 0.422267 0.294062
O O9 0.342531 0.258968 0.161084
O O10 0.750000 0.250000 0.213938
#
# Coordination Sequence:
#
# PCOD9432641 Si02
#       5
#     8   8   8   8   4
#     4  10  23  46  67 107 143 184 236 304 353 432
#     4  11  25  44  68 106 143 179 250 295 353 435
#     4  10  23  42  71  99 137 195 233 284 367 423
#     4  10  23  44  68  98 141 185 231 290 358 428
#     4  10  24  38  68 104 138 188 232 294 358 430
#
# _framework density 23.732074000000001
#
# number of rings (size 3 to 8) (size 9 to 14) (size 15 to 20)
#    0.000    1.778    0.000    2.667    9.333    4.444 
#    0.000    2.222    0.000    0.000    0.000    0.000 
#    0.000    0.000    0.000    0.000    0.000    0.000 
#
# Total GULP energy -200608.409688 kJ/mol
# GULP energy per Si atom -5572.455825 kJ/mol
# Density = 2.367806 g / cm^3
# Si number density = 23.732074 Si / 1000 Ang^3
#
#
#
# Elastic Constant Matrix: (Units=GPa)
#
#
# Indices 1 2 3 4 5 6 
#
# 1 133.2883 36.4608 34.8928 0.0000 0.0000 0.0000
# 2 36.4608 86.9164 21.5167 0.0000 0.0000 0.0000
# 3 34.8928 21.5167 123.3774 0.0000 0.0000 0.0000
# 4 0.0000 0.0000 0.0000 38.5382 0.0000 0.0000
# 5 0.0000 0.0000 0.0000 0.0000 32.2838 0.0000
# 6 0.0000 0.0000 0.0000 0.0000 0.0000 41.1816
#
#
#
# Elastic Compliance Matrix: (Units=1/GPa)
#
#
# Indices 1 2 3 4 5 6 
#
# 1 0.008903 -0.003252 -0.001951 0.000000 0.000000 0.000000
# 2 -0.003252 0.013212 -0.001385 0.000000 0.000000 0.000000
# 3 -0.001951 -0.001385 0.008898 0.000000 0.000000 0.000000
# 4 0.000000 0.000000 0.000000 0.025948 0.000000 0.000000
# 5 0.000000 0.000000 0.000000 0.000000 0.030975 0.000000
# 6 0.000000 0.000000 0.000000 0.000000 0.000000 0.024283
#
#
# Mechanical properties :
#
#
# Convention : Reuss Voigt Hill
#
# Bulk Modulus (GPa) = 56.05611 58.81365 57.43488
# Shear Modulus (GPa) = 38.06919 39.11483 38.59201
#
# Velocity S-wave (km/s) = 4.00950 4.06419 4.03693
# Velocity P-wave (km/s) = 6.71613 6.84541 6.78108
#
# Compressibility (1/GPa) = 0.01783927
#
# Stress axis : x y z
#
# Youngs Moduli (GPa) = 112.32549 75.68808 112.38024
#
# Poissons Ratio (x) = 0.24612 0.21922
# Poissons Ratio (y) = 0.36525 0.15559
# Poissons Ratio (z) = 0.21912 0.10479
#
# Static dielectric constant tensor:
#      x y z
#    x 1.940630 0.000000 0.000000 
#    y 0.000000 2.046720 0.000000 
#    z 0.000000 0.000000 1.886150 
# 
# From -- ./inp_files/16016.got.cif
#   From: 2010.05.17/outbox.cif.g08.bks.cpg/sg56_9_cif.got.tgz:16016.got - 2010.06.03 13:42:01.
