data_PCOD9432356
_publ_section_title
;
Structure prediction by ZEFSAII (Michael W. Deem and Ramdas Pophale) SiO2 
 PCOD9432356
Probable space group: P C C N
;
_chemical_formula_sum "Si O2"
_cell_formula_units_Z 40
_cell_length_a 11.539493
_cell_length_b 12.940515
_cell_length_c 11.370880
_cell_angle_alpha 90.000000
_cell_angle_beta 90.000000
_cell_angle_gamma 90.000000
_cell_volume 1697.979196
_symmetry_space_group_name_H-M "P C C N"
_symmetry_group_IT_number 56
_symmetry_cell_setting 'orthorhombic'
loop_
_space_group_symop_operation_xyz
x,y,z
1/2-x,1/2-y,z
1/2+x,-y,1/2-z
-x,1/2+y,1/2-z
-x,-y,-z
1/2+x,1/2+y,-z
1/2-x,y,1/2+z
x,1/2-y,1/2+z
loop_
_atom_site_type_symbol
_atom_site_label
_atom_site_fract_x
_atom_site_fract_y
_atom_site_fract_z
Si Si1 0.225593 0.127944 0.411835
Si Si2 0.459155 0.364798 0.595067
Si Si3 0.979558 0.564534 0.643950
Si Si4 0.953082 0.644953 0.296603
Si Si5 0.885190 0.274794 0.898886
O O1 0.250000 0.250000 0.427971
O O2 0.146758 0.090314 0.519725
O O3 0.345995 0.072680 0.390711
O O4 0.147323 0.120995 0.295847
O O5 0.486458 0.426799 0.712584
O O6 0.422485 0.250737 0.638842
O O7 0.566426 0.342784 0.507347
O O8 0.029538 0.451838 0.618859
O O9 0.048050 0.664722 0.599215
O O10 0.069050 0.670316 0.220459
O O11 0.750000 0.250000 0.901387
#
# Coordination Sequence:
#
# PCOD9432356 Si02
#       5
#     8   8   8   8   8
#     4  11  21  41  66  95 123 174 220 260 324 383
#     4  10  22  43  67  87 135 168 208 269 322 376
#     4  11  24  42  67  96 129 167 217 269 320 383
#     4  10  24  42  64  95 127 169 216 266 320 380
#     4  10  23  42  60  93 131 169 211 255 329 383
#
# _framework density 23.557414000000001
#
# number of rings (size 3 to 8) (size 9 to 14) (size 15 to 20)
#    0.000    1.600    6.000    0.000    5.600    7.200 
#    3.600    0.000    0.000    0.000    0.000    0.000 
#    0.000    0.000    0.000    0.000    0.000    0.000 
#
# Total GULP energy -224079.389909 kJ/mol
# GULP energy per Si atom -5601.984748 kJ/mol
# Density = 2.350380 g / cm^3
# Si number density = 23.557414 Si / 1000 Ang^3
#
#
#
# Elastic Constant Matrix: (Units=GPa)
#
#
# Indices 1 2 3 4 5 6 
#
# 1 168.7718 5.1683 49.0637 0.0000 0.0000 0.0000
# 2 5.1683 88.9512 4.1610 0.0000 0.0000 0.0000
# 3 49.0637 4.1610 88.4587 0.0000 0.0000 0.0000
# 4 0.0000 0.0000 0.0000 28.8964 0.0000 0.0000
# 5 0.0000 0.0000 0.0000 0.0000 5.1746 0.0000
# 6 0.0000 0.0000 0.0000 0.0000 0.0000 -47.5800
#
#
#
# Elastic Compliance Matrix: (Units=1/GPa)
#
#
# Indices 1 2 3 4 5 6 
#
# 1 0.007069 -0.000228 -0.003910 0.000000 0.000000 0.000000
# 2 -0.000228 0.011274 -0.000404 0.000000 0.000000 0.000000
# 3 -0.003910 -0.000404 0.013492 0.000000 0.000000 0.000000
# 4 0.000000 0.000000 0.000000 0.034606 0.000000 0.000000
# 5 0.000000 0.000000 0.000000 0.000000 0.193252 0.000000
# 6 0.000000 0.000000 0.000000 0.000000 0.000000 -0.021017
#
#
# Mechanical properties :
#
#
# Convention : Reuss Voigt Hill
#
# Bulk Modulus (GPa) = 43.95238 51.44083 47.69661
# Shear Modulus (GPa) = 19.58144 16.48410 18.03277
#
# Velocity S-wave (km/s) = 2.88622 2.64813 2.76974
# Velocity P-wave (km/s) = 5.45940 5.58873 5.52445
#
# Compressibility (1/GPa) = 0.02275190
#
# Stress axis : x y z
#
# Youngs Moduli (GPa) = 141.46635 88.69765 74.11574
#
# Poissons Ratio (x) = 0.02021 0.28979
# Poissons Ratio (y) = 0.03223 0.02994
# Poissons Ratio (z) = 0.55314 0.03583
#
# Static dielectric constant tensor:
#      x y z
#    x 1.837350 0.000000 0.000000 
#    y 0.000000 1.858550 0.000000 
#    z 0.000000 0.000000 1.970890 
# 
# From -- ./inp_files/6980.got.cif
#   From: 2010.05.17/outbox.cif.g08.bks.cpg/sg56_4_cif.got.tgz:6980.got - 2010.06.03 13:42:01.
