data_PCOD9432017
_publ_section_title
;
Structure prediction by ZEFSAII (Michael W. Deem and Ramdas Pophale) SiO2 
 PCOD9432017
Probable space group: P C C N
;
_chemical_formula_sum "Si O2"
_cell_formula_units_Z 28
_cell_length_a 11.035771
_cell_length_b 7.340754
_cell_length_c 13.858546
_cell_angle_alpha 90.000000
_cell_angle_beta 90.000000
_cell_angle_gamma 90.000000
_cell_volume 1122.693009
_symmetry_space_group_name_H-M "P C C N"
_symmetry_group_IT_number 56
_symmetry_cell_setting 'orthorhombic'
loop_
_space_group_symop_operation_xyz
x,y,z
1/2-x,1/2-y,z
1/2+x,-y,1/2-z
-x,1/2+y,1/2-z
-x,-y,-z
1/2+x,1/2+y,-z
1/2-x,y,1/2+z
x,1/2-y,1/2+z
loop_
_atom_site_type_symbol
_atom_site_label
_atom_site_fract_x
_atom_site_fract_y
_atom_site_fract_z
Si Si1 0.132488 0.160843 0.233302
Si Si2 0.045536 0.846268 0.138336
Si Si3 0.162556 0.599367 0.441172
Si Si4 0.250000 0.250000 0.051007
O O1 0.250000 0.250000 0.282318
O O2 0.143634 0.951177 0.203375
O O3 0.019705 0.191161 0.302058
O O4 0.901555 0.304550 0.466059
O O5 0.941570 0.001708 0.120794
O O6 0.138722 0.260791 0.128032
O O7 0.250000 0.750000 0.396246
O O8 0.235350 0.429809 0.488356
#
# Coordination Sequence:
#
# PCOD9432017 Si02
#       4
#     8   8   8   4
#     4   9  21  38  57  89 119 151 202 253 290 359
#     4  10  22  39  61  91 118 160 209 237 314 365
#     4  10  22  41  61  90 124 160 202 252 298 371
#     4   8  20  40  58  86 126 150 196 258 292 340
#
# _framework density 24.940031000000001
#
# number of rings (size 3 to 8) (size 9 to 14) (size 15 to 20)
#    0.857    1.714    0.000    0.000    6.000    2.286 
#    0.000    4.286    0.000    0.000    0.000    0.000 
#    0.000    0.000    0.000    0.000    0.000    0.000 
#
# Total GULP energy -156209.970866 kJ/mol
# GULP energy per Si atom -5578.927531 kJ/mol
# Density = 2.488327 g / cm^3
# Si number density = 24.940031 Si / 1000 Ang^3
#
#
#
# Elastic Constant Matrix: (Units=GPa)
#
#
# Indices 1 2 3 4 5 6 
#
# 1 39.6059 14.0589 6.6798 0.0000 0.0000 0.0000
# 2 14.0589 30.2262 28.1827 0.0000 0.0000 0.0000
# 3 6.6798 28.1827 87.3170 0.0000 0.0000 0.0000
# 4 0.0000 0.0000 0.0000 23.6030 0.0000 0.0000
# 5 0.0000 0.0000 0.0000 0.0000 -526.8531 0.0000
# 6 0.0000 0.0000 0.0000 0.0000 0.0000 41.2666
#
#
#
# Elastic Compliance Matrix: (Units=1/GPa)
#
#
# Indices 1 2 3 4 5 6 
#
# 1 0.030874 -0.017392 0.003252 0.000000 0.000000 0.000000
# 2 -0.017392 0.057124 -0.017107 0.000000 0.000000 0.000000
# 3 0.003252 -0.017107 0.016725 0.000000 0.000000 0.000000
# 4 0.000000 0.000000 0.000000 0.042367 0.000000 0.000000
# 5 0.000000 0.000000 0.000000 0.000000 -0.001898 0.000000
# 6 0.000000 0.000000 0.000000 0.000000 0.000000 0.024233
#
#
# Mechanical properties :
#
#
# Convention : Reuss Voigt Hill
#
# Bulk Modulus (GPa) = 23.68078 28.33242 26.00660
# Shear Modulus (GPa) = 20.32556 -85.18152 -32.42798
#
# Velocity S-wave (km/s) = 2.85788 -5.85053 -3.60979
# Velocity P-wave (km/s) = 4.51726 5.85264 2.63132
#
# Compressibility (1/GPa) = 0.04222834
#
# Stress axis : x y z
#
# Youngs Moduli (GPa) = 32.38973 17.50588 59.78983
#
# Poissons Ratio (x) = 0.30446 -0.19441
# Poissons Ratio (y) = 0.56332 1.02282
# Poissons Ratio (z) = -0.10532 0.29947
#
# Static dielectric constant tensor:
#      x y z
#    x 2.124310 0.000000 0.000000 
#    y 0.000000 2.057460 0.000000 
#    z 0.000000 0.000000 1.921290 
# 
# From -- ./inp_files/14280.got.cif
#   From: 2010.05.17/outbox.cif.g08.bks.cpg/sg56_8_cif.got.tgz:14280.got - 2010.06.03 13:42:01.
