data_PCOD9432251
_publ_section_title
;
Structure prediction by ZEFSAII (Michael W. Deem and Ramdas Pophale) SiO2 
 PCOD9432251
Probable space group: P C C N
;
_chemical_formula_sum "Si O2"
_cell_formula_units_Z 40
_cell_length_a 11.483187
_cell_length_b 7.591912
_cell_length_c 17.638322
_cell_angle_alpha 90.000000
_cell_angle_beta 90.000000
_cell_angle_gamma 90.000000
_cell_volume 1537.697362
_symmetry_space_group_name_H-M "P C C N"
_symmetry_group_IT_number 56
_symmetry_cell_setting 'orthorhombic'
loop_
_space_group_symop_operation_xyz
x,y,z
1/2-x,1/2-y,z
1/2+x,-y,1/2-z
-x,1/2+y,1/2-z
-x,-y,-z
1/2+x,1/2+y,-z
1/2-x,y,1/2+z
x,1/2-y,1/2+z
loop_
_atom_site_type_symbol
_atom_site_label
_atom_site_fract_x
_atom_site_fract_y
_atom_site_fract_z
Si Si1 0.035250 0.629733 0.213337
Si Si2 0.000000 0.500000 0.500000
Si Si3 0.762087 0.547435 0.060088
Si Si4 0.823732 0.570713 0.897060
Si Si5 0.409185 0.516135 0.154221
Si Si6 0.250000 0.750000 0.820177
O O1 0.070836 0.469777 0.158562
O O2 0.019542 0.800900 0.161073
O O3 0.142589 0.679297 0.269427
O O4 0.928318 0.581770 0.267092
O O5 0.862373 0.495542 0.524445
O O6 0.964048 0.582509 0.416935
O O7 0.750000 0.750000 0.086176
O O8 0.789703 0.410175 0.125448
O O9 0.846685 0.544784 0.986184
O O10 0.750000 0.750000 0.886418
O O11 0.722702 0.439867 0.866407
#
# Coordination Sequence:
#
# PCOD9432251 Si02
#       6
#     8   4   8   8   8   4
#     4  12  24  41  63 101 128 178 222 279 346 398
#     4  10  22  42  66  92 134 176 226 282 330 416
#     4  10  24  44  68  96 132 181 224 282 344 405
#     4  10  22  42  65  92 129 173 221 275 338 405
#     4  11  23  40  64  93 132 170 223 277 337 405
#     4  12  24  42  68  98 136 176 228 282 340 414
#
# _framework density 26.012924000000002
#
# number of rings (size 3 to 8) (size 9 to 14) (size 15 to 20)
#    0.000    1.200    4.000    1.200    5.600    2.400 
#    0.000    1.000    0.000    0.000    0.000    0.000 
#    0.000    0.000    0.000    0.000    0.000    0.000 
#
# Total GULP energy -222860.044619 kJ/mol
# GULP energy per Si atom -5571.501115 kJ/mol
# Density = 2.595372 g / cm^3
# Si number density = 26.012924 Si / 1000 Ang^3
#
#
#
# Elastic Constant Matrix: (Units=GPa)
#
#
# Indices 1 2 3 4 5 6 
#
# 1 53.4528 -2.6598 27.7799 0.0000 0.0000 0.0000
# 2 -2.6598 104.8093 38.2700 0.0000 0.0000 0.0000
# 3 27.7799 38.2700 119.5688 0.0000 0.0000 0.0000
# 4 0.0000 0.0000 0.0000 26.3766 0.0000 0.0000
# 5 0.0000 0.0000 0.0000 0.0000 2.2986 0.0000
# 6 0.0000 0.0000 0.0000 0.0000 0.0000 12.8172
#
#
#
# Elastic Compliance Matrix: (Units=1/GPa)
#
#
# Indices 1 2 3 4 5 6 
#
# 1 0.021951 0.002739 -0.005977 0.000000 0.000000 0.000000
# 2 0.002739 0.011146 -0.004204 0.000000 0.000000 0.000000
# 3 -0.005977 -0.004204 0.011097 0.000000 0.000000 0.000000
# 4 0.000000 0.000000 0.000000 0.037912 0.000000 0.000000
# 5 0.000000 0.000000 0.000000 0.000000 0.435048 0.000000
# 6 0.000000 0.000000 0.000000 0.000000 0.000000 0.078020
#
#
# Mechanical properties :
#
#
# Convention : Reuss Voigt Hill
#
# Bulk Modulus (GPa) = 34.11634 44.95679 39.53656
# Shear Modulus (GPa) = 8.06677 22.59452 15.33065
#
# Velocity S-wave (km/s) = 1.76289 2.95038 2.43028
# Velocity P-wave (km/s) = 4.15781 5.37832 4.80696
#
# Compressibility (1/GPa) = 0.02931147
#
# Stress axis : x y z
#
# Youngs Moduli (GPa) = 45.55699 89.72130 90.11079
#
# Poissons Ratio (x) = -0.24578 0.53856
# Poissons Ratio (y) = -0.12480 0.37881
# Poissons Ratio (z) = 0.27228 0.37717
#
# Static dielectric constant tensor:
#      x y z
#    x 2.109300 0.000000 0.000000 
#    y 0.000000 2.230950 0.000000 
#    z 0.000000 0.000000 2.184550 
# 
# From -- ./inp_files/10435.got.cif
#   From: 2010.05.17/outbox.cif.g08.bks.cpg/sg56_6_cif.got.tgz:10435.got - 2010.06.03 13:42:01.
