data_PCOD9432265
_publ_section_title
;
Structure prediction by ZEFSAII (Michael W. Deem and Ramdas Pophale) SiO2 
 PCOD9432265
Probable space group: P C C N
;
_chemical_formula_sum "Si O2"
_cell_formula_units_Z 64
_cell_length_a 10.663064
_cell_length_b 29.772230
_cell_length_c 9.377774
_cell_angle_alpha 90.000000
_cell_angle_beta 90.000000
_cell_angle_gamma 90.000000
_cell_volume 2977.098086
_symmetry_space_group_name_H-M "P C C N"
_symmetry_group_IT_number 56
_symmetry_cell_setting 'orthorhombic'
loop_
_space_group_symop_operation_xyz
x,y,z
1/2-x,1/2-y,z
1/2+x,-y,1/2-z
-x,1/2+y,1/2-z
-x,-y,-z
1/2+x,1/2+y,-z
1/2-x,y,1/2+z
x,1/2-y,1/2+z
loop_
_atom_site_type_symbol
_atom_site_label
_atom_site_fract_x
_atom_site_fract_y
_atom_site_fract_z
Si Si1 0.626618 0.621660 0.439639
Si Si2 0.655125 0.516224 0.385866
Si Si3 0.363945 0.878058 0.778281
Si Si4 0.378729 0.517384 0.302464
Si Si5 0.292012 0.673111 0.992034
Si Si6 0.422710 0.257901 0.834357
Si Si7 0.429663 0.761182 0.920283
Si Si8 0.285404 0.172689 0.787331
O O1 0.639876 0.567906 0.435226
O O2 0.493110 0.632619 0.364318
O O3 0.645116 0.641738 0.597120
O O4 0.734820 0.643467 0.342421
O O5 0.526547 0.504167 0.300369
O O6 0.779452 0.510127 0.291713
O O7 0.658037 0.487122 0.530523
O O8 0.368017 0.931148 0.753266
O O9 0.339743 0.851144 0.633043
O O10 0.248701 0.864467 0.879694
O O11 0.389733 0.709492 0.934607
O O12 0.169205 0.705771 0.995963
O O13 0.546660 0.270560 0.745133
O O14 0.365545 0.216413 0.745550
O O15 0.336419 0.301128 0.849881
O O16 0.446209 0.235306 0.986212
#
# Coordination Sequence:
#
# PCOD9432265 Si02
#       8
#     8   8   8   8   8   8   8   8
#     4  11  23  40  62  90 123 156 205 261 312 377
#     4  10  22  42  66  93 127 166 208 264 328 391
#     4  11  23  40  62  90 123 157 205 260 310 376
#     4  10  22  42  66  93 127 165 208 263 327 391
#     4  11  22  37  59  85 118 162 203 248 304 360
#     4  11  22  37  56  82 119 158 200 246 295 353
#     4  11  22  37  56  82 119 158 200 246 294 353
#     4  11  22  37  59  85 118 162 203 250 306 363
#
# _framework density 21.497443000000001
#
# number of rings (size 3 to 8) (size 9 to 14) (size 15 to 20)
#    0.000    1.250    0.000    6.750    0.000    4.500 
#    0.000    5.000    0.000    0.000    0.000    0.000 
#    0.000    0.000    0.000    0.000    0.000    0.000 
#
# Total GULP energy -357301.329431 kJ/mol
# GULP energy per Si atom -5582.833272 kJ/mol
# Density = 2.144851 g / cm^3
# Si number density = 21.497443 Si / 1000 Ang^3
#
#
#
# Elastic Constant Matrix: (Units=GPa)
#
#
# Indices 1 2 3 4 5 6 
#
# 1 65.8118 33.0833 29.8621 0.0000 0.0000 0.0000
# 2 33.0833 79.4591 27.3758 0.0000 0.0000 0.0000
# 3 29.8621 27.3758 68.1834 0.0000 0.0000 0.0000
# 4 0.0000 0.0000 0.0000 33.6417 0.0000 0.0000
# 5 0.0000 0.0000 0.0000 0.0000 34.9045 0.0000
# 6 0.0000 0.0000 0.0000 0.0000 0.0000 27.1812
#
#
#
# Elastic Compliance Matrix: (Units=1/GPa)
#
#
# Indices 1 2 3 4 5 6 
#
# 1 0.021629 -0.006663 -0.006797 0.000000 0.000000 0.000000
# 2 -0.006663 0.016658 -0.003770 0.000000 0.000000 0.000000
# 3 -0.006797 -0.003770 0.019157 0.000000 0.000000 0.000000
# 4 0.000000 0.000000 0.000000 0.029725 0.000000 0.000000
# 5 0.000000 0.000000 0.000000 0.000000 0.028650 0.000000
# 6 0.000000 0.000000 0.000000 0.000000 0.000000 0.036790
#
#
# Mechanical properties :
#
#
# Convention : Reuss Voigt Hill
#
# Bulk Modulus (GPa) = 43.51115 43.78855 43.64985
# Shear Modulus (GPa) = 25.67640 27.35434 26.51537
#
# Velocity S-wave (km/s) = 3.45975 3.57101 3.51582
# Velocity P-wave (km/s) = 6.02029 6.11688 6.06878
#
# Compressibility (1/GPa) = 0.02298261
#
# Stress axis : x y z
#
# Youngs Moduli (GPa) = 46.23461 60.03006 52.20029
#
# Poissons Ratio (x) = 0.40001 0.35482
# Poissons Ratio (y) = 0.30808 0.19679
# Poissons Ratio (z) = 0.31427 0.22631
#
# Static dielectric constant tensor:
#      x y z
#    x 1.891080 0.000000 0.000000 
#    y 0.000000 1.776490 0.000000 
#    z 0.000000 0.000000 1.748300 
# 
# From -- ./inp_files/2968.got.cif
#   From: 2010.05.17/outbox.cif.g08.bks.cpg/sg56_2_cif.got.tgz:2968.got - 2010.06.03 13:42:01.
