data_PCOD9432112
_publ_section_title
;
Structure prediction by ZEFSAII (Michael W. Deem and Ramdas Pophale) SiO2 
 PCOD9432112
Probable space group: P C C N
;
_chemical_formula_sum "Si O2"
_cell_formula_units_Z 52
_cell_length_a 7.727442
_cell_length_b 15.024459
_cell_length_c 20.267932
_cell_angle_alpha 90.000000
_cell_angle_beta 90.000000
_cell_angle_gamma 90.000000
_cell_volume 2353.119786
_symmetry_space_group_name_H-M "P C C N"
_symmetry_group_IT_number 56
_symmetry_cell_setting 'orthorhombic'
loop_
_space_group_symop_operation_xyz
x,y,z
1/2-x,1/2-y,z
1/2+x,-y,1/2-z
-x,1/2+y,1/2-z
-x,-y,-z
1/2+x,1/2+y,-z
1/2-x,y,1/2+z
x,1/2-y,1/2+z
loop_
_atom_site_type_symbol
_atom_site_label
_atom_site_fract_x
_atom_site_fract_y
_atom_site_fract_z
Si Si1 0.048320 0.478656 0.924594
Si Si2 0.461871 0.917243 0.800812
Si Si3 0.046016 0.930570 0.800208
Si Si4 0.556567 0.725289 0.586764
Si Si5 0.750000 0.250000 0.514640
Si Si6 0.403386 0.943467 0.441793
Si Si7 0.959988 0.246617 0.269546
O O1 0.970745 0.544261 0.869860
O O2 0.014688 0.378635 0.903247
O O3 0.253710 0.488261 0.922271
O O4 0.000000 0.500000 0.000000
O O5 0.253170 0.916807 0.804016
O O6 0.519029 0.818674 0.783607
O O7 0.509883 0.980474 0.739998
O O8 0.982414 0.930551 0.875901
O O9 0.979270 0.848927 0.756209
O O10 0.750000 0.750000 0.565053
O O11 0.418904 0.747377 0.531011
O O12 0.526248 0.769618 0.657682
O O13 0.703771 0.152177 0.548029
O O14 0.500000 0.000000 0.500000
O O15 0.750000 0.250000 0.273438
#
# Coordination Sequence:
#
# PCOD9432112 Si02
#       7
#     8   8   8   8   4   8   8
#     4  11  23  44  65  96 136 177 223 293 352 417
#     4  10  23  38  65  94 129 171 225 280 346 410
#     4  10  23  41  65  95 131 173 233 287 348 423
#     4  12  25  42  70 103 141 182 239 285 355 428
#     4  12  26  46  72 102 144 192 230 296 356 422
#     4  11  26  43  69 100 136 186 241 286 359 434
#     4  10  22  40  65  95 131 179 230 286 349 418
#
# _framework density 22.098324000000002
#
# number of rings (size 3 to 8) (size 9 to 14) (size 15 to 20)
#    0.000    1.231    3.846    0.923   11.846    1.231 
#    0.000    0.000    0.000    0.923    0.000    0.000 
#    0.000    0.000    0.000    0.000    0.000    0.000 
#
# Total GULP energy -289887.592232 kJ/mol
# GULP energy per Si atom -5574.761389 kJ/mol
# Density = 2.204803 g / cm^3
# Si number density = 22.098324 Si / 1000 Ang^3
#
#
#
# Elastic Constant Matrix: (Units=GPa)
#
#
# Indices 1 2 3 4 5 6 
#
# 1 50.1482 -13.1756 14.3807 0.0000 0.0000 0.0000
# 2 -13.1756 46.7312 10.1815 0.0000 0.0000 0.0000
# 3 14.3807 10.1815 129.7359 0.0000 0.0000 0.0000
# 4 0.0000 0.0000 0.0000 25.0486 0.0000 0.0000
# 5 0.0000 0.0000 0.0000 0.0000 55.8882 0.0000
# 6 0.0000 0.0000 0.0000 0.0000 0.0000 27.2297
#
#
#
# Elastic Compliance Matrix: (Units=1/GPa)
#
#
# Indices 1 2 3 4 5 6 
#
# 1 0.022676 0.007062 -0.003068 0.000000 0.000000 0.000000
# 2 0.007062 0.023970 -0.002664 0.000000 0.000000 0.000000
# 3 -0.003068 -0.002664 0.008257 0.000000 0.000000 0.000000
# 4 0.000000 0.000000 0.000000 0.039922 0.000000 0.000000
# 5 0.000000 0.000000 0.000000 0.000000 0.017893 0.000000
# 6 0.000000 0.000000 0.000000 0.000000 0.000000 0.036725
#
#
# Mechanical properties :
#
#
# Convention : Reuss Voigt Hill
#
# Bulk Modulus (GPa) = 17.37211 27.70984 22.54098
# Shear Modulus (GPa) = 30.12574 35.98188 33.05381
#
# Velocity S-wave (km/s) = 3.69624 4.03955 3.87170
# Velocity P-wave (km/s) = 5.10829 5.85866 5.49629
#
# Compressibility (1/GPa) = 0.05756352
#
# Stress axis : x y z
#
# Youngs Moduli (GPa) = 44.09960 41.71815 121.10827
#
# Poissons Ratio (x) = -0.29460 0.37153
# Poissons Ratio (y) = -0.31142 0.32262
# Poissons Ratio (z) = 0.13529 0.11113
#
# Static dielectric constant tensor:
#      x y z
#    x 1.737780 0.000000 0.000000 
#    y 0.000000 1.875600 0.000000 
#    z 0.000000 0.000000 1.965180 
# 
# From -- ./inp_files/18130.got.cif
#   From: 2010.05.17/outbox.cif.g08.bks.cpg/sg56_10_cif.got.tgz:18130.got - 2010.06.03 13:42:01.
