data_PCOD9432786
_publ_section_title
;
Structure prediction by ZEFSAII (Michael W. Deem and Ramdas Pophale) SiO2 
 PCOD9432786
Probable space group: P C C N
;
_chemical_formula_sum "Si O2"
_cell_formula_units_Z 40
_cell_length_a 13.289297
_cell_length_b 5.343611
_cell_length_c 24.889773
_cell_angle_alpha 90.000000
_cell_angle_beta 90.000000
_cell_angle_gamma 90.000000
_cell_volume 1767.493309
_symmetry_space_group_name_H-M "P C C N"
_symmetry_group_IT_number 56
_symmetry_cell_setting 'orthorhombic'
loop_
_space_group_symop_operation_xyz
x,y,z
1/2-x,1/2-y,z
1/2+x,-y,1/2-z
-x,1/2+y,1/2-z
-x,-y,-z
1/2+x,1/2+y,-z
1/2-x,y,1/2+z
x,1/2-y,1/2+z
loop_
_atom_site_type_symbol
_atom_site_label
_atom_site_fract_x
_atom_site_fract_y
_atom_site_fract_z
Si Si1 0.635513 0.736564 0.978875
Si Si2 0.683240 0.997070 0.253292
Si Si3 0.855164 0.094027 0.870827
Si Si4 0.817931 0.004045 0.635594
Si Si5 0.491166 0.141008 0.933475
O O1 0.750000 0.750000 0.997766
O O2 0.641836 0.587732 0.922724
O O3 0.580932 0.998647 0.964378
O O4 0.565258 0.657098 0.028841
O O5 0.750000 0.250000 0.255328
O O6 0.632995 0.979455 0.311769
O O7 0.630796 0.003679 0.195123
O O8 0.750000 0.750000 0.250498
O O9 0.750000 0.250000 0.873240
O O10 0.953072 0.257115 0.881487
O O11 0.750000 0.250000 0.633171
O O12 0.750000 0.750000 0.630505
O O13 0.900304 0.023069 0.589013
#
# Coordination Sequence:
#
# PCOD9432786 Si02
#       5
#     8   8   8   8   8
#     4  11  23  44  64  93 135 175 226 281 341 403
#     4   9  20  40  70  97 135 179 218 271 336 395
#     4  11  22  41  67  98 135 176 224 283 337 402
#     4  10  23  47  69 101 140 181 226 278 337 405
#     4  11  25  42  66  99 129 181 226 277 341 407
#
# _framework density 22.630918999999999
#
# number of rings (size 3 to 8) (size 9 to 14) (size 15 to 20)
#    0.000    1.600    2.000    1.800    5.600    0.000 
#   10.800    0.000    0.000    0.000    0.000    0.000 
#    0.000    0.000    0.000    0.000    0.000    0.000 
#
# Total GULP energy -222923.982941 kJ/mol
# GULP energy per Si atom -5573.099574 kJ/mol
# Density = 2.257941 g / cm^3
# Si number density = 22.630919 Si / 1000 Ang^3
#
#
#
# Elastic Constant Matrix: (Units=GPa)
#
#
# Indices 1 2 3 4 5 6 
#
# 1 118.1563 33.6729 64.5307 0.0000 0.0000 0.0000
# 2 33.6729 83.9597 19.9259 0.0000 0.0000 0.0000
# 3 64.5307 19.9259 157.9154 0.0000 0.0000 0.0000
# 4 0.0000 0.0000 0.0000 32.9586 0.0000 0.0000
# 5 0.0000 0.0000 0.0000 0.0000 51.3212 0.0000
# 6 0.0000 0.0000 0.0000 0.0000 0.0000 26.2537
#
#
#
# Elastic Compliance Matrix: (Units=1/GPa)
#
#
# Indices 1 2 3 4 5 6 
#
# 1 0.011936 -0.003741 -0.004405 0.000000 0.000000 0.000000
# 2 -0.003741 0.013451 -0.000168 0.000000 0.000000 0.000000
# 3 -0.004405 -0.000168 0.008154 0.000000 0.000000 0.000000
# 4 0.000000 0.000000 0.000000 0.030341 0.000000 0.000000
# 5 0.000000 0.000000 0.000000 0.000000 0.019485 0.000000
# 6 0.000000 0.000000 0.000000 0.000000 0.000000 0.038090
#
#
# Mechanical properties :
#
#
# Convention : Reuss Voigt Hill
#
# Bulk Modulus (GPa) = 59.13526 66.25448 62.69487
# Shear Modulus (GPa) = 34.78906 38.23348 36.51127
#
# Velocity S-wave (km/s) = 3.92501 4.11473 4.02099
# Velocity P-wave (km/s) = 6.83579 7.20516 7.02290
#
# Compressibility (1/GPa) = 0.01691039
#
# Stress axis : x y z
#
# Youngs Moduli (GPa) = 83.78350 74.34417 122.64044
#
# Poissons Ratio (x) = 0.27815 0.54026
# Poissons Ratio (y) = 0.31347 0.02065
# Poissons Ratio (z) = 0.36909 0.01252
#
# Static dielectric constant tensor:
#      x y z
#    x 1.834240 0.000000 0.000000 
#    y 0.000000 1.886650 0.000000 
#    z 0.000000 0.000000 1.922920 
# 
# From -- ./inp_files/21496.got.cif
#   From: 2010.05.17/outbox.cif.g08.bks.cpg/sg56_11_cif.got.tgz:21496.got - 2010.06.03 13:42:01.
