data_PCOD9432275
_publ_section_title
;
Structure prediction by ZEFSAII (Michael W. Deem and Ramdas Pophale) SiO2 
 PCOD9432275
Probable space group: P C C N
;
_chemical_formula_sum "Si O2"
_cell_formula_units_Z 40
_cell_length_a 9.983541
_cell_length_b 16.085641
_cell_length_c 9.297190
_cell_angle_alpha 90.000000
_cell_angle_beta 90.000000
_cell_angle_gamma 90.000000
_cell_volume 1493.051142
_symmetry_space_group_name_H-M "P C C N"
_symmetry_group_IT_number 56
_symmetry_cell_setting 'orthorhombic'
loop_
_space_group_symop_operation_xyz
x,y,z
1/2-x,1/2-y,z
1/2+x,-y,1/2-z
-x,1/2+y,1/2-z
-x,-y,-z
1/2+x,1/2+y,-z
1/2-x,y,1/2+z
x,1/2-y,1/2+z
loop_
_atom_site_type_symbol
_atom_site_label
_atom_site_fract_x
_atom_site_fract_y
_atom_site_fract_z
Si Si1 0.428669 0.655852 0.559586
Si Si2 0.006351 0.088662 0.919086
Si Si3 0.860443 0.508681 0.808689
Si Si4 0.301570 0.849884 0.361548
Si Si5 0.768685 0.839114 0.464102
O O1 0.373030 0.686037 0.716472
O O2 0.400865 0.557139 0.572068
O O3 0.338497 0.683834 0.423990
O O4 0.586437 0.666018 0.539207
O O5 0.894107 0.143557 0.995275
O O6 0.142928 0.140791 0.935179
O O7 0.000000 0.000000 0.000000
O O8 0.793796 0.447142 0.691551
O O9 0.765586 0.580846 0.862432
O O10 0.987769 0.557269 0.743545
O O11 0.750000 0.750000 0.390341
#
# Coordination Sequence:
#
# PCOD9432275 Si02
#       5
#     8   8   8   8   8
#     4  10  23  43  75 111 138 196 254 312 362 445
#     4  10  22  42  67 101 146 195 248 305 361 441
#     4   9  21  38  72 101 146 187 253 301 367 433
#     4   9  22  40  74 104 141 183 264 303 356 431
#     4  12  27  43  68 111 155 192 240 309 390 446
#
# _framework density 26.790778
#
# number of rings (size 3 to 8) (size 9 to 14) (size 15 to 20)
#    1.200    0.800    0.000    3.000    5.600    4.000 
#    0.000    1.000    0.000    2.400    0.000    0.000 
#    0.000    0.000    0.000    0.000    0.000    0.000 
#
# Total GULP energy -223360.715972 kJ/mol
# GULP energy per Si atom -5584.017899 kJ/mol
# Density = 2.672980 g / cm^3
# Si number density = 26.790778 Si / 1000 Ang^3
#
#
#
# Elastic Constant Matrix: (Units=GPa)
#
#
# Indices 1 2 3 4 5 6 
#
# 1 167.5295 37.6759 40.4033 0.0000 0.0000 0.0000
# 2 37.6759 117.2787 25.0282 0.0000 0.0000 0.0000
# 3 40.4033 25.0282 92.4395 0.0000 0.0000 0.0000
# 4 0.0000 0.0000 0.0000 43.1004 0.0000 0.0000
# 5 0.0000 0.0000 0.0000 0.0000 12.7419 0.0000
# 6 0.0000 0.0000 0.0000 0.0000 0.0000 35.4041
#
#
#
# Elastic Compliance Matrix: (Units=1/GPa)
#
#
# Indices 1 2 3 4 5 6 
#
# 1 0.006973 -0.001687 -0.002591 0.000000 0.000000 0.000000
# 2 -0.001687 0.009458 -0.001823 0.000000 0.000000 0.000000
# 3 -0.002591 -0.001823 0.012444 0.000000 0.000000 0.000000
# 4 0.000000 0.000000 0.000000 0.023202 0.000000 0.000000
# 5 0.000000 0.000000 0.000000 0.000000 0.078481 0.000000
# 6 0.000000 0.000000 0.000000 0.000000 0.000000 0.028245
#
#
# Mechanical properties :
#
#
# Convention : Reuss Voigt Hill
#
# Bulk Modulus (GPa) = 59.98056 64.82914 62.40485
# Shear Modulus (GPa) = 28.31833 36.52531 32.42182
#
# Velocity S-wave (km/s) = 3.25471 3.69637 3.48255
# Velocity P-wave (km/s) = 6.04659 6.51677 6.28608
#
# Compressibility (1/GPa) = 0.01667207
#
# Stress axis : x y z
#
# Youngs Moduli (GPa) = 143.40100 105.73246 80.35961
#
# Poissons Ratio (x) = 0.17840 0.20822
# Poissons Ratio (y) = 0.24196 0.14652
# Poissons Ratio (z) = 0.37157 0.19278
#
# Static dielectric constant tensor:
#      x y z
#    x 2.121170 0.000000 0.000000 
#    y 0.000000 2.236410 0.000000 
#    z 0.000000 0.000000 2.115330 
# 
# From -- ./inp_files/10408.got.cif
#   From: 2010.05.17/outbox.cif.g08.bks.cpg/sg56_6_cif.got.tgz:10408.got - 2010.06.03 13:42:01.
