data_PCOD9432146
_publ_section_title
;
Structure prediction by ZEFSAII (Michael W. Deem and Ramdas Pophale) SiO2 
 PCOD9432146
Probable space group: P C C N
;
_chemical_formula_sum "Si O2"
_cell_formula_units_Z 44
_cell_length_a 26.967821
_cell_length_b 7.895813
_cell_length_c 8.577157
_cell_angle_alpha 90.000000
_cell_angle_beta 90.000000
_cell_angle_gamma 90.000000
_cell_volume 1826.358670
_symmetry_space_group_name_H-M "P C C N"
_symmetry_group_IT_number 56
_symmetry_cell_setting 'orthorhombic'
loop_
_space_group_symop_operation_xyz
x,y,z
1/2-x,1/2-y,z
1/2+x,-y,1/2-z
-x,1/2+y,1/2-z
-x,-y,-z
1/2+x,1/2+y,-z
1/2-x,y,1/2+z
x,1/2-y,1/2+z
loop_
_atom_site_type_symbol
_atom_site_label
_atom_site_fract_x
_atom_site_fract_y
_atom_site_fract_z
Si Si1 0.750000 0.750000 0.037817
Si Si2 0.604314 0.873027 0.163946
Si Si3 0.315533 0.406923 0.723827
Si Si4 0.436270 0.620086 0.856305
Si Si5 0.462576 0.188208 0.552413
Si Si6 0.623636 0.161071 0.948572
O O1 0.727489 0.603707 0.147498
O O2 0.793504 0.686315 0.927162
O O3 0.640576 0.717062 0.210952
O O4 0.565130 0.895477 0.301670
O O5 0.573303 0.831968 0.008896
O O6 0.628895 0.046165 0.106016
O O7 0.332291 0.589961 0.661363
O O8 0.482434 0.740985 0.899861
O O9 0.420422 0.637120 0.679083
O O10 0.459877 0.441061 0.905942
O O11 0.389940 0.659901 0.971380
#
# Coordination Sequence:
#
# PCOD9432146 Si02
#       6
#     4   8   8   8   8   8
#     4  10  22  40  72 102 126 148 224 290 346 416
#     4  12  21  39  67  95 129 172 228 285 321 391
#     4  11  21  41  68 104 119 165 213 288 344 401
#     4  11  25  40  58  95 137 191 220 266 326 389
#     4  11  22  39  62  93 135 180 237 266 313 384
#     4  12  24  42  64  96 137 180 224 276 335 402
#
# _framework density 24.091654999999999
#
# number of rings (size 3 to 8) (size 9 to 14) (size 15 to 20)
#    0.000    0.727    5.455    2.182    0.000    5.818 
#    0.000    0.000    0.000    3.273    0.000    0.000 
#    0.000    0.000    0.000    0.000    0.000    0.000 
#
# Total GULP energy -245347.562406 kJ/mol
# GULP energy per Si atom -5576.080964 kJ/mol
# Density = 2.403682 g / cm^3
# Si number density = 24.091655 Si / 1000 Ang^3
#
#
#
# Elastic Constant Matrix: (Units=GPa)
#
#
# Indices 1 2 3 4 5 6 
#
# 1 72.3600 2.4763 28.4416 0.0000 0.0000 0.0000
# 2 2.4763 44.1245 8.2978 0.0000 0.0000 0.0000
# 3 28.4416 8.2978 137.0504 0.0000 0.0000 0.0000
# 4 0.0000 0.0000 0.0000 34.1747 0.0000 0.0000
# 5 0.0000 0.0000 0.0000 0.0000 42.1083 0.0000
# 6 0.0000 0.0000 0.0000 0.0000 0.0000 14.6855
#
#
#
# Elastic Compliance Matrix: (Units=1/GPa)
#
#
# Indices 1 2 3 4 5 6 
#
# 1 0.015050 -0.000260 -0.003108 0.000000 0.000000 0.000000
# 2 -0.000260 0.022929 -0.001334 0.000000 0.000000 0.000000
# 3 -0.003108 -0.001334 0.008022 0.000000 0.000000 0.000000
# 4 0.000000 0.000000 0.000000 0.029261 0.000000 0.000000
# 5 0.000000 0.000000 0.000000 0.000000 0.023748 0.000000
# 6 0.000000 0.000000 0.000000 0.000000 0.000000 0.068095
#
#
# Mechanical properties :
#
#
# Convention : Reuss Voigt Hill
#
# Bulk Modulus (GPa) = 27.32462 36.88517 32.10490
# Shear Modulus (GPa) = 26.49591 32.48163 29.48877
#
# Velocity S-wave (km/s) = 3.31991 3.67584 3.50240
# Velocity P-wave (km/s) = 5.10513 5.77575 5.45076
#
# Compressibility (1/GPa) = 0.03659703
#
# Stress axis : x y z
#
# Youngs Moduli (GPa) = 66.44456 43.61355 124.65305
#
# Poissons Ratio (x) = 0.01135 0.38737
# Poissons Ratio (y) = 0.01729 0.16632
# Poissons Ratio (z) = 0.20648 0.05819
#
# Static dielectric constant tensor:
#      x y z
#    x 2.018240 0.000000 0.000000 
#    y 0.000000 2.119440 0.000000 
#    z 0.000000 0.000000 1.888860 
# 
# From -- ./inp_files/2183.got.cif
#   From: 2010.05.17/outbox.cif.g08.bks.cpg/sg56_2_cif.got.tgz:2183.got - 2010.06.03 13:42:01.
