data_PCOD9432082
_publ_section_title
;
Structure prediction by ZEFSAII (Michael W. Deem and Ramdas Pophale) SiO2 
 PCOD9432082
Probable space group: P C C N
;
_chemical_formula_sum "Si O2"
_cell_formula_units_Z 36
_cell_length_a 8.095283
_cell_length_b 13.008140
_cell_length_c 17.185577
_cell_angle_alpha 90.000000
_cell_angle_beta 90.000000
_cell_angle_gamma 90.000000
_cell_volume 1809.719875
_symmetry_space_group_name_H-M "P C C N"
_symmetry_group_IT_number 56
_symmetry_cell_setting 'orthorhombic'
loop_
_space_group_symop_operation_xyz
x,y,z
1/2-x,1/2-y,z
1/2+x,-y,1/2-z
-x,1/2+y,1/2-z
-x,-y,-z
1/2+x,1/2+y,-z
1/2-x,y,1/2+z
x,1/2-y,1/2+z
loop_
_atom_site_type_symbol
_atom_site_label
_atom_site_fract_x
_atom_site_fract_y
_atom_site_fract_z
Si Si1 0.431377 0.794037 0.565386
Si Si2 0.410632 0.502679 0.159558
Si Si3 0.435256 0.786059 0.380212
Si Si4 0.750000 0.750000 0.660388
Si Si5 0.610676 0.608525 0.286609
O O1 0.250000 0.750000 0.586612
O O2 0.454447 0.782763 0.473316
O O3 0.584139 0.740732 0.609728
O O4 0.436780 0.912392 0.593168
O O5 0.519980 0.400902 0.146637
O O6 0.461522 0.554522 0.241290
O O7 0.221104 0.467833 0.163305
O O8 0.250000 0.750000 0.361224
O O9 0.552053 0.704297 0.337648
O O10 0.775589 0.653163 0.717029
#
# Coordination Sequence:
#
# PCOD9432082 Si02
#       5
#     8   8   8   4   8
#     4  10  25  43  67  96 134 176 217 276 334 400
#     4  11  23  40  67  99 129 173 224 274 332 402
#     4  11  23  45  64  96 136 173 220 274 339 397
#     4  10  22  40  62  92 128 172 212 268 328 388
#     4  11  23  39  66  96 129 172 220 273 332 386
#
# _framework density 19.892581
#
# number of rings (size 3 to 8) (size 9 to 14) (size 15 to 20)
#    0.000    1.333    2.222    2.000    6.222    3.556 
#    0.000    2.222    0.000    0.000    0.000    0.000 
#    0.000    0.000    0.000    0.000    0.000    0.000 
#
# Total GULP energy -201147.056737 kJ/mol
# GULP energy per Si atom -5587.418243 kJ/mol
# Density = 1.984730 g / cm^3
# Si number density = 19.892581 Si / 1000 Ang^3
#
#
#
# Elastic Constant Matrix: (Units=GPa)
#
#
# Indices 1 2 3 4 5 6 
#
# 1 108.5466 58.6053 58.8990 0.0000 0.0000 0.0000
# 2 58.6053 126.1098 52.1444 0.0000 0.0000 0.0000
# 3 58.8990 52.1444 86.0385 0.0000 0.0000 0.0000
# 4 0.0000 0.0000 0.0000 13.7648 0.0000 0.0000
# 5 0.0000 0.0000 0.0000 0.0000 32.2769 0.0000
# 6 0.0000 0.0000 0.0000 0.0000 0.0000 25.7672
#
#
#
# Elastic Compliance Matrix: (Units=1/GPa)
#
#
# Indices 1 2 3 4 5 6 
#
# 1 0.015956 -0.003868 -0.008579 0.000000 0.000000 0.000000
# 2 -0.003868 0.011519 -0.004333 0.000000 0.000000 0.000000
# 3 -0.008579 -0.004333 0.020122 0.000000 0.000000 0.000000
# 4 0.000000 0.000000 0.000000 0.072649 0.000000 0.000000
# 5 0.000000 0.000000 0.000000 0.000000 0.030982 0.000000
# 6 0.000000 0.000000 0.000000 0.000000 0.000000 0.038809
#
#
# Mechanical properties :
#
#
# Convention : Reuss Voigt Hill
#
# Bulk Modulus (GPa) = 71.24209 73.33246 72.28728
# Shear Modulus (GPa) = 21.90342 24.43151 23.16747
#
# Velocity S-wave (km/s) = 3.32186 3.50833 3.41637
# Velocity P-wave (km/s) = 7.11366 7.30448 7.20970
#
# Compressibility (1/GPa) = 0.01403665
#
# Stress axis : x y z
#
# Youngs Moduli (GPa) = 62.67307 86.81484 49.69770
#
# Poissons Ratio (x) = 0.33578 0.42634
# Poissons Ratio (y) = 0.24240 0.21536
# Poissons Ratio (z) = 0.53765 0.37620
#
# Static dielectric constant tensor:
#      x y z
#    x 1.725310 0.000000 0.000000 
#    y 0.000000 1.677100 0.000000 
#    z 0.000000 0.000000 1.675940 
# 
# From -- ./inp_files/14484.got.cif
#   From: 2010.05.17/outbox.cif.g08.bks.cpg/sg56_8_cif.got.tgz:14484.got - 2010.06.03 13:42:01.
