data_PCOD9432927
_publ_section_title
;
Structure prediction by ZEFSAII (Michael W. Deem and Ramdas Pophale) SiO2 
 PCOD9432927
Probable space group: P C C N
;
_chemical_formula_sum "Si O2"
_cell_formula_units_Z 48
_cell_length_a 7.561942
_cell_length_b 13.465516
_cell_length_c 18.242451
_cell_angle_alpha 90.000000
_cell_angle_beta 90.000000
_cell_angle_gamma 90.000000
_cell_volume 1857.545800
_symmetry_space_group_name_H-M "P C C N"
_symmetry_group_IT_number 56
_symmetry_cell_setting 'orthorhombic'
loop_
_space_group_symop_operation_xyz
x,y,z
1/2-x,1/2-y,z
1/2+x,-y,1/2-z
-x,1/2+y,1/2-z
-x,-y,-z
1/2+x,1/2+y,-z
1/2-x,y,1/2+z
x,1/2-y,1/2+z
loop_
_atom_site_type_symbol
_atom_site_label
_atom_site_fract_x
_atom_site_fract_y
_atom_site_fract_z
Si Si1 0.499611 0.826930 0.418263
Si Si2 0.853281 0.125335 0.646192
Si Si3 0.182353 0.571242 0.212460
Si Si4 0.812196 0.537174 0.911301
Si Si5 0.131298 0.419257 0.455545
Si Si6 0.275287 0.366917 0.294173
O O1 0.331541 0.894058 0.395225
O O2 0.441878 0.724699 0.383574
O O3 0.543396 0.822165 0.504276
O O4 0.193022 0.870088 0.268711
O O5 0.995867 0.046008 0.622545
O O6 0.806926 0.947072 0.497452
O O7 0.823638 0.624312 0.386452
O O8 0.987191 0.616536 0.213072
O O9 0.257700 0.561314 0.129658
O O10 0.193147 0.458655 0.246595
O O11 0.187824 0.389826 0.374255
O O12 0.000000 0.500000 0.500000
O O13 0.250000 0.250000 0.275840
#
# Coordination Sequence:
#
# PCOD9432927 Si02
#       6
#     8   8   8   8   8   8
#     4   9  23  41  74 118 155 210 285 345 425 525
#     4  11  21  44  77 115 157 218 280 345 430 528
#     4  12  26  51  77 125 173 231 299 366 449 543
#     4  10  24  43  81 111 162 215 277 353 437 512
#     4  10  25  50  81 120 172 223 291 375 445 531
#     4  12  30  55  86 123 179 233 304 380 454 541
#
# _framework density 25.840547000000001
#
# number of rings (size 3 to 8) (size 9 to 14) (size 15 to 20)
#    1.000    0.333    1.667    2.500    4.667    4.667 
#    0.000    0.000    0.000    0.000    0.000    0.000 
#    0.000    0.000    0.000    0.000    0.000    0.000 
#
# Total GULP energy -267554.785086 kJ/mol
# GULP energy per Si atom -5574.058023 kJ/mol
# Density = 2.578173 g / cm^3
# Si number density = 25.840547 Si / 1000 Ang^3
#
#
#
# Elastic Constant Matrix: (Units=GPa)
#
#
# Indices 1 2 3 4 5 6 
#
# 1 106.2761 25.6069 3.2853 0.0000 0.0000 0.0000
# 2 25.6069 110.6924 15.9308 0.0000 0.0000 0.0000
# 3 3.2853 15.9308 119.6008 0.0000 0.0000 0.0000
# 4 0.0000 0.0000 0.0000 6.3838 0.0000 0.0000
# 5 0.0000 0.0000 0.0000 0.0000 28.7900 0.0000
# 6 0.0000 0.0000 0.0000 0.0000 0.0000 39.5872
#
#
#
# Elastic Compliance Matrix: (Units=1/GPa)
#
#
# Indices 1 2 3 4 5 6 
#
# 1 0.009965 -0.002310 0.000034 0.000000 0.000000 0.000000
# 2 -0.002310 0.009746 -0.001235 0.000000 0.000000 0.000000
# 3 0.000034 -0.001235 0.008525 0.000000 0.000000 0.000000
# 4 0.000000 0.000000 0.000000 0.156647 0.000000 0.000000
# 5 0.000000 0.000000 0.000000 0.000000 0.034734 0.000000
# 6 0.000000 0.000000 0.000000 0.000000 0.000000 0.025261
#
#
# Mechanical properties :
#
#
# Convention : Reuss Voigt Hill
#
# Bulk Modulus (GPa) = 47.13850 47.35728 47.24789
# Shear Modulus (GPa) = 19.30718 34.40196 26.85457
#
# Velocity S-wave (km/s) = 2.73640 3.65268 3.22722
# Velocity P-wave (km/s) = 5.31653 6.01298 5.67545
#
# Compressibility (1/GPa) = 0.02121408
#
# Stress axis : x y z
#
# Youngs Moduli (GPa) = 100.35099 102.60452 117.30644
#
# Poissons Ratio (x) = 0.23703 -0.00399
# Poissons Ratio (y) = 0.23182 0.14484
# Poissons Ratio (z) = -0.00341 0.12669
#
# Static dielectric constant tensor:
#      x y z
#    x 2.148160 0.000000 0.000000 
#    y 0.000000 2.485570 0.000000 
#    z 0.000000 0.000000 2.235420 
# 
# From -- ./inp_files/14854.got.cif
#   From: 2010.05.17/outbox.cif.g08.bks.cpg/sg56_8_cif.got.tgz:14854.got - 2010.06.03 13:42:01.
