data_PCOD9432675
_publ_section_title
;
Structure prediction by ZEFSAII (Michael W. Deem and Ramdas Pophale) SiO2 
 PCOD9432675
Probable space group: P C C N
;
_chemical_formula_sum "Si O2"
_cell_formula_units_Z 40
_cell_length_a 15.780095
_cell_length_b 11.844444
_cell_length_c 9.210754
_cell_angle_alpha 90.000000
_cell_angle_beta 90.000000
_cell_angle_gamma 90.000000
_cell_volume 1721.549346
_symmetry_space_group_name_H-M "P C C N"
_symmetry_group_IT_number 56
_symmetry_cell_setting 'orthorhombic'
loop_
_space_group_symop_operation_xyz
x,y,z
1/2-x,1/2-y,z
1/2+x,-y,1/2-z
-x,1/2+y,1/2-z
-x,-y,-z
1/2+x,1/2+y,-z
1/2-x,y,1/2+z
x,1/2-y,1/2+z
loop_
_atom_site_type_symbol
_atom_site_label
_atom_site_fract_x
_atom_site_fract_y
_atom_site_fract_z
Si Si1 0.338995 0.051189 0.378534
Si Si2 0.039960 0.218871 0.746335
Si Si3 0.869432 0.328083 0.803656
Si Si4 0.882035 0.380938 0.124895
Si Si5 0.824843 0.595931 0.292043
O O1 0.423475 0.125591 0.355870
O O2 0.264896 0.110897 0.286211
O O3 0.315449 0.047025 0.546546
O O4 0.350846 0.928321 0.307998
O O5 0.117752 0.293400 0.692446
O O6 0.970766 0.305044 0.809620
O O7 0.981777 0.152101 0.630783
O O8 0.840031 0.208062 0.738176
O O9 0.844389 0.360879 0.966044
O O10 0.869747 0.504269 0.188551
#
# Coordination Sequence:
#
# PCOD9432675 Si02
#       5
#     8   8   8   8   8
#     4  12  26  44  67  99 136 175 219 272 330 391
#     4  10  25  42  73  96 130 172 222 270 323 392
#     4  10  23  43  69  99 132 173 220 271 326 391
#     4  10  23  43  69  99 132 173 220 271 326 391
#     4  12  26  44  67  99 136 175 219 272 330 391
#
# _framework density 23.234884999999998
#
# number of rings (size 3 to 8) (size 9 to 14) (size 15 to 20)
#    1.200    0.000    0.000    5.400    0.000   12.000 
#    0.000    4.000    0.000    0.000    0.000    0.000 
#    0.000    0.000    0.000    0.000    0.000    0.000 
#
# Total GULP energy -223453.320857 kJ/mol
# GULP energy per Si atom -5586.333021 kJ/mol
# Density = 2.318200 g / cm^3
# Si number density = 23.234885 Si / 1000 Ang^3
#
#
#
# Elastic Constant Matrix: (Units=GPa)
#
#
# Indices 1 2 3 4 5 6 
#
# 1 62.1955 16.8937 -17.9487 0.0000 0.0000 0.0000
# 2 16.8937 86.1575 4.9780 0.0000 0.0000 0.0000
# 3 -17.9487 4.9780 122.5578 0.0000 0.0000 0.0000
# 4 0.0000 0.0000 0.0000 79.6629 0.0000 0.0000
# 5 0.0000 0.0000 0.0000 0.0000 15.2050 0.0000
# 6 0.0000 0.0000 0.0000 0.0000 0.0000 54.9851
#
#
#
# Elastic Compliance Matrix: (Units=1/GPa)
#
#
# Indices 1 2 3 4 5 6 
#
# 1 0.017872 -0.003664 0.002766 0.000000 0.000000 0.000000
# 2 -0.003664 0.012385 -0.001040 0.000000 0.000000 0.000000
# 3 0.002766 -0.001040 0.008607 0.000000 0.000000 0.000000
# 4 0.000000 0.000000 0.000000 0.012553 0.000000 0.000000
# 5 0.000000 0.000000 0.000000 0.000000 0.065768 0.000000
# 6 0.000000 0.000000 0.000000 0.000000 0.000000 0.018187
#
#
# Mechanical properties :
#
#
# Convention : Reuss Voigt Hill
#
# Bulk Modulus (GPa) = 28.58076 30.97298 29.77687
# Shear Modulus (GPa) = 33.13251 47.76981 40.45116
#
# Velocity S-wave (km/s) = 3.78031 4.53918 4.17702
# Velocity P-wave (km/s) = 5.60195 6.38995 6.00888
#
# Compressibility (1/GPa) = 0.03498858
#
# Stress axis : x y z
#
# Youngs Moduli (GPa) = 55.95386 80.74165 116.18783
#
# Poissons Ratio (x) = 0.29585 -0.32140
# Poissons Ratio (y) = 0.20502 0.12080
# Poissons Ratio (z) = -0.15478 0.08395
#
# Static dielectric constant tensor:
#      x y z
#    x 1.960050 0.000000 0.000000 
#    y 0.000000 1.839430 0.000000 
#    z 0.000000 0.000000 1.832200 
# 
# From -- ./inp_files/3877.got.cif
#   From: 2010.05.17/outbox.cif.g08.bks.cpg/sg56_2_cif.got.tgz:3877.got - 2010.06.03 13:42:01.
