data_PCOD9432932
_publ_section_title
;
Structure prediction by ZEFSAII (Michael W. Deem and Ramdas Pophale) SiO2 
 PCOD9432932
Probable space group: P C C N
;
_chemical_formula_sum "Si O2"
_cell_formula_units_Z 48
_cell_length_a 8.930764
_cell_length_b 20.283451
_cell_length_c 12.177221
_cell_angle_alpha 90.000000
_cell_angle_beta 90.000000
_cell_angle_gamma 90.000000
_cell_volume 2205.863570
_symmetry_space_group_name_H-M "P C C N"
_symmetry_group_IT_number 56
_symmetry_cell_setting 'orthorhombic'
loop_
_space_group_symop_operation_xyz
x,y,z
1/2-x,1/2-y,z
1/2+x,-y,1/2-z
-x,1/2+y,1/2-z
-x,-y,-z
1/2+x,1/2+y,-z
1/2-x,y,1/2+z
x,1/2-y,1/2+z
loop_
_atom_site_type_symbol
_atom_site_label
_atom_site_fract_x
_atom_site_fract_y
_atom_site_fract_z
Si Si1 0.877759 0.943304 0.131652
Si Si2 0.014752 0.661167 0.788209
Si Si3 0.077828 0.121584 0.314164
Si Si4 0.649585 0.136504 0.981674
Si Si5 0.250000 0.750000 0.662322
Si Si6 0.534498 0.091994 0.581484
Si Si7 0.750000 0.750000 0.714110
O O1 0.711015 0.931127 0.175241
O O2 0.983335 0.901641 0.212153
O O3 0.924031 0.018921 0.123336
O O4 0.904441 0.913701 0.009524
O O5 0.053037 0.639297 0.909377
O O6 0.151787 0.702275 0.737213
O O7 0.870732 0.708334 0.782192
O O8 0.157715 0.191546 0.347443
O O9 0.941508 0.096348 0.389959
O O10 0.017618 0.130573 0.189921
O O11 0.817284 0.118079 0.018831
O O12 0.653885 0.206236 0.919983
#
# Coordination Sequence:
#
# PCOD9432932 Si02
#       7
#     8   8   8   8   4   8   4
#     4  10  26  47  69  98 139 184 236 286 348 411
#     4  11  24  44  66  98 135 177 223 288 343 414
#     4  11  26  46  71 103 139 185 233 289 351 417
#     4  12  26  41  71 101 138 178 232 285 352 414
#     4  12  22  44  66 100 134 178 228 284 354 414
#     4  11  26  47  70 100 141 184 236 288 342 423
#     4  10  24  44  64  96 134 174 226 276 342 412
#
# _framework density 21.760183999999999
#
# number of rings (size 3 to 8) (size 9 to 14) (size 15 to 20)
#    0.000    1.000    3.333    1.500    9.333    2.667 
#    0.000    0.000    0.000    0.000    0.000    0.000 
#    0.000    0.000    0.000    0.000    0.000    0.000 
#
# Total GULP energy -268125.359363 kJ/mol
# GULP energy per Si atom -5585.944987 kJ/mol
# Density = 2.171066 g / cm^3
# Si number density = 21.760184 Si / 1000 Ang^3
#
#
#
# Elastic Constant Matrix: (Units=GPa)
#
#
# Indices 1 2 3 4 5 6 
#
# 1 85.1821 -6.6161 25.4664 0.0000 0.0000 0.0000
# 2 -6.6161 35.8553 2.3647 0.0000 0.0000 0.0000
# 3 25.4664 2.3647 112.1387 0.0000 0.0000 0.0000
# 4 0.0000 0.0000 0.0000 24.0082 0.0000 0.0000
# 5 0.0000 0.0000 0.0000 0.0000 16.4552 0.0000
# 6 0.0000 0.0000 0.0000 0.0000 0.0000 100.9445
#
#
#
# Elastic Compliance Matrix: (Units=1/GPa)
#
#
# Indices 1 2 3 4 5 6 
#
# 1 0.012826 0.002562 -0.002967 0.000000 0.000000 0.000000
# 2 0.002562 0.028441 -0.001182 0.000000 0.000000 0.000000
# 3 -0.002967 -0.001182 0.009616 0.000000 0.000000 0.000000
# 4 0.000000 0.000000 0.000000 0.041652 0.000000 0.000000
# 5 0.000000 0.000000 0.000000 0.000000 0.060771 0.000000
# 6 0.000000 0.000000 0.000000 0.000000 0.000000 0.009906
#
#
# Mechanical properties :
#
#
# Convention : Reuss Voigt Hill
#
# Bulk Modulus (GPa) = 20.95988 30.62288 25.79138
# Shear Modulus (GPa) = 27.42915 42.41231 34.92073
#
# Velocity S-wave (km/s) = 3.55423 4.41963 4.01034
# Velocity P-wave (km/s) = 5.14748 6.33621 5.77253
#
# Compressibility (1/GPa) = 0.04771019
#
# Stress axis : x y z
#
# Youngs Moduli (GPa) = 77.96966 35.16104 103.99151
#
# Poissons Ratio (x) = -0.09009 0.30851
# Poissons Ratio (y) = -0.19978 0.12288
# Poissons Ratio (z) = 0.23131 0.04155
#
# Static dielectric constant tensor:
#      x y z
#    x 1.509790 0.000000 0.000000 
#    y 0.000000 1.588950 0.000000 
#    z 0.000000 0.000000 1.761690 
# 
# From -- ./inp_files/6441.got.cif
#   From: 2010.05.17/outbox.cif.g08.bks.cpg/sg56_4_cif.got.tgz:6441.got - 2010.06.03 13:42:01.
