data_PCOD9432946
_publ_section_title
;
Structure prediction by ZEFSAII (Michael W. Deem and Ramdas Pophale) SiO2 
 PCOD9432946
Probable space group: P C C N
;
_chemical_formula_sum "Si O2"
_cell_formula_units_Z 44
_cell_length_a 21.612943
_cell_length_b 5.953064
_cell_length_c 14.998032
_cell_angle_alpha 90.000000
_cell_angle_beta 90.000000
_cell_angle_gamma 90.000000
_cell_volume 1929.695284
_symmetry_space_group_name_H-M "P C C N"
_symmetry_group_IT_number 56
_symmetry_cell_setting 'orthorhombic'
loop_
_space_group_symop_operation_xyz
x,y,z
1/2-x,1/2-y,z
1/2+x,-y,1/2-z
-x,1/2+y,1/2-z
-x,-y,-z
1/2+x,1/2+y,-z
1/2-x,y,1/2+z
x,1/2-y,1/2+z
loop_
_atom_site_type_symbol
_atom_site_label
_atom_site_fract_x
_atom_site_fract_y
_atom_site_fract_z
Si Si1 0.750000 0.250000 0.013681
Si Si2 0.460596 0.466704 0.652380
Si Si3 0.147608 0.328646 0.708452
Si Si4 0.149718 0.088298 0.534579
Si Si5 0.331790 0.079875 0.377472
Si Si6 0.913920 0.289171 0.199133
O O1 0.722594 0.445504 0.075650
O O2 0.804836 0.375023 0.961013
O O3 0.419143 0.485787 0.563721
O O4 0.446638 0.675210 0.715945
O O5 0.532764 0.422426 0.647512
O O6 0.424007 0.258259 0.699939
O O7 0.170238 0.276318 0.608720
O O8 0.141280 0.566597 0.756281
O O9 0.181088 0.165472 0.778023
O O10 0.150857 0.211016 0.440004
O O11 0.386745 0.900960 0.365002
#
# Coordination Sequence:
#
# PCOD9432946 Si02
#       6
#     4   8   8   8   8   8
#     4  12  26  48  66  92 140 182 240 302 332 404
#     4   9  20  37  69 102 134 177 216 275 346 418
#     4   9  22  42  67  99 135 176 224 277 344 418
#     4  10  24  44  69 101 137 178 236 282 341 414
#     4  11  25  43  68 100 136 183 231 287 345 414
#     4  11  19  42  72 102 144 177 221 284 354 424
#
# _framework density 22.801525999999999
#
# number of rings (size 3 to 8) (size 9 to 14) (size 15 to 20)
#    1.091    0.727    1.818    1.636    2.545    1.455 
#    0.000    7.273    0.000    0.000    0.000    0.000 
#    0.000    0.000    0.000    0.000    0.000    0.000 
#
# Total GULP energy -245473.094406 kJ/mol
# GULP energy per Si atom -5578.933964 kJ/mol
# Density = 2.274963 g / cm^3
# Si number density = 22.801526 Si / 1000 Ang^3
#
#
#
# Elastic Constant Matrix: (Units=GPa)
#
#
# Indices 1 2 3 4 5 6 
#
# 1 58.4705 23.9682 12.8976 0.0000 0.0000 0.0000
# 2 23.9682 66.2390 12.3117 0.0000 0.0000 0.0000
# 3 12.8976 12.3117 94.8256 0.0000 0.0000 0.0000
# 4 0.0000 0.0000 0.0000 23.0784 0.0000 0.0000
# 5 0.0000 0.0000 0.0000 0.0000 39.0849 0.0000
# 6 0.0000 0.0000 0.0000 0.0000 0.0000 41.2539
#
#
#
# Elastic Compliance Matrix: (Units=1/GPa)
#
#
# Indices 1 2 3 4 5 6 
#
# 1 0.020397 -0.007035 -0.001861 0.000000 0.000000 0.000000
# 2 -0.007035 0.017896 -0.001367 0.000000 0.000000 0.000000
# 3 -0.001861 -0.001367 0.010976 0.000000 0.000000 0.000000
# 4 0.000000 0.000000 0.000000 0.043331 0.000000 0.000000
# 5 0.000000 0.000000 0.000000 0.000000 0.025585 0.000000
# 6 0.000000 0.000000 0.000000 0.000000 0.000000 0.024240
#
#
# Mechanical properties :
#
#
# Convention : Reuss Voigt Hill
#
# Bulk Modulus (GPa) = 34.78891 35.32113 35.05502
# Shear Modulus (GPa) = 28.98022 32.04061 30.51042
#
# Velocity S-wave (km/s) = 3.56894 3.75266 3.66195
# Velocity P-wave (km/s) = 5.68098 5.85670 5.76951
#
# Compressibility (1/GPa) = 0.02874479
#
# Stress axis : x y z
#
# Youngs Moduli (GPa) = 49.02744 55.87743 91.10587
#
# Poissons Ratio (x) = 0.39307 0.16954
# Poissons Ratio (y) = 0.34489 0.12452
# Poissons Ratio (z) = 0.09124 0.07637
#
# Static dielectric constant tensor:
#      x y z
#    x 1.884510 0.000000 0.000000 
#    y 0.000000 1.872750 0.000000 
#    z 0.000000 0.000000 1.831770 
# 
# From -- ./inp_files/13327.got.cif
#   From: 2010.05.17/outbox.cif.g08.bks.cpg/sg56_7_cif.got.tgz:13327.got - 2010.06.03 13:42:01.
