data_PCOD9432737
_publ_section_title
;
Structure prediction by ZEFSAII (Michael W. Deem and Ramdas Pophale) SiO2 
 PCOD9432737
Probable space group: P C C N
;
_chemical_formula_sum "Si O2"
_cell_formula_units_Z 36
_cell_length_a 6.416869
_cell_length_b 10.455583
_cell_length_c 24.398597
_cell_angle_alpha 90.000000
_cell_angle_beta 90.000000
_cell_angle_gamma 90.000000
_cell_volume 1636.953267
_symmetry_space_group_name_H-M "P C C N"
_symmetry_group_IT_number 56
_symmetry_cell_setting 'orthorhombic'
loop_
_space_group_symop_operation_xyz
x,y,z
1/2-x,1/2-y,z
1/2+x,-y,1/2-z
-x,1/2+y,1/2-z
-x,-y,-z
1/2+x,1/2+y,-z
1/2-x,y,1/2+z
x,1/2-y,1/2+z
loop_
_atom_site_type_symbol
_atom_site_label
_atom_site_fract_x
_atom_site_fract_y
_atom_site_fract_z
Si Si1 0.600064 0.639885 0.047831
Si Si2 0.098858 0.372940 0.802390
Si Si3 0.118901 0.880282 0.812694
Si Si4 0.581055 0.139038 0.569052
Si Si5 0.250000 0.750000 0.621121
O O1 0.750000 0.750000 0.068446
O O2 0.684263 0.499031 0.058164
O O3 0.386346 0.659751 0.081208
O O4 0.566249 0.655694 0.983027
O O5 0.250000 0.250000 0.801224
O O6 0.227257 0.498576 0.819756
O O7 0.403853 0.666441 0.659289
O O8 0.018053 0.399667 0.740982
O O9 0.250000 0.750000 0.804804
O O10 0.992246 0.865398 0.869491
O O11 0.750000 0.250000 0.567931
#
# Coordination Sequence:
#
# PCOD9432737 Si02
#       5
#     8   8   8   8   4
#     4  11  24  45  72  98 135 186 237 284 351 427
#     4  12  26  46  72 103 142 189 239 285 351 433
#     4  11  24  45  69 103 142 180 233 292 357 409
#     4  10  23  45  64 102 139 173 231 291 354 409
#     4  12  24  46  72 104 134 194 234 292 340 438
#
# _framework density 21.992076999999998
#
# number of rings (size 3 to 8) (size 9 to 14) (size 15 to 20)
#    0.000    0.889    2.222    4.667    3.111    1.778 
#   16.000    0.000    0.000    0.000    0.000    0.000 
#    0.000    0.000    0.000    0.000    0.000    0.000 
#
# Total GULP energy -201342.044009 kJ/mol
# GULP energy per Si atom -5592.834556 kJ/mol
# Density = 2.194202 g / cm^3
# Si number density = 21.992077 Si / 1000 Ang^3
#
#
#
# Elastic Constant Matrix: (Units=GPa)
#
#
# Indices 1 2 3 4 5 6 
#
# 1 72.8074 56.3252 51.3334 0.0000 0.0000 0.0000
# 2 56.3252 165.3998 14.5779 0.0000 0.0000 0.0000
# 3 51.3334 14.5779 196.2983 0.0000 0.0000 0.0000
# 4 0.0000 0.0000 0.0000 -26.9655 0.0000 0.0000
# 5 0.0000 0.0000 0.0000 0.0000 24.0334 0.0000
# 6 0.0000 0.0000 0.0000 0.0000 0.0000 22.1615
#
#
#
# Elastic Compliance Matrix: (Units=1/GPa)
#
#
# Indices 1 2 3 4 5 6 
#
# 1 0.023474 -0.007502 -0.005581 0.000000 0.000000 0.000000
# 2 -0.007502 0.008483 0.001332 0.000000 0.000000 0.000000
# 3 -0.005581 0.001332 0.006455 0.000000 0.000000 0.000000
# 4 0.000000 0.000000 0.000000 -0.037084 0.000000 0.000000
# 5 0.000000 0.000000 0.000000 0.000000 0.041609 0.000000
# 6 0.000000 0.000000 0.000000 0.000000 0.000000 0.045123
#
#
# Mechanical properties :
#
#
# Convention : Reuss Voigt Hill
#
# Bulk Modulus (GPa) = 67.07363 75.44205 71.25784
# Shear Modulus (GPa) = 42.90674 24.66382 33.78528
#
# Velocity S-wave (km/s) = 4.42181 3.35249 3.92375
# Velocity P-wave (km/s) = 7.52563 7.02597 7.28009
#
# Compressibility (1/GPa) = 0.01490899
#
# Stress axis : x y z
#
# Youngs Moduli (GPa) = 42.60106 117.87972 154.91958
#
# Poissons Ratio (x) = 0.88431 0.86467
# Poissons Ratio (y) = 0.31958 -0.20632
# Poissons Ratio (z) = 0.23777 -0.15699
#
# Static dielectric constant tensor:
#      x y z
#    x 1.758790 0.000000 0.000000 
#    y 0.000000 1.766200 0.000000 
#    z 0.000000 0.000000 1.831610 
# 
# From -- ./inp_files/17883.got.cif
#   From: 2010.05.17/outbox.cif.g08.bks.cpg/sg56_9_cif.got.tgz:17883.got - 2010.06.03 13:42:01.
