data_PCOD9432322
_publ_section_title
;
Structure prediction by ZEFSAII (Michael W. Deem and Ramdas Pophale) SiO2 
 PCOD9432322
Probable space group: P C C N
;
_chemical_formula_sum "Si O2"
_cell_formula_units_Z 48
_cell_length_a 13.895536
_cell_length_b 13.288446
_cell_length_c 10.555652
_cell_angle_alpha 90.000000
_cell_angle_beta 90.000000
_cell_angle_gamma 90.000000
_cell_volume 1949.101984
_symmetry_space_group_name_H-M "P C C N"
_symmetry_group_IT_number 56
_symmetry_cell_setting 'orthorhombic'
loop_
_space_group_symop_operation_xyz
x,y,z
1/2-x,1/2-y,z
1/2+x,-y,1/2-z
-x,1/2+y,1/2-z
-x,-y,-z
1/2+x,1/2+y,-z
1/2-x,y,1/2+z
x,1/2-y,1/2+z
loop_
_atom_site_type_symbol
_atom_site_label
_atom_site_fract_x
_atom_site_fract_y
_atom_site_fract_z
Si Si1 0.864618 0.039322 0.067967
Si Si2 0.139741 0.030074 0.189196
Si Si3 0.573562 0.243212 0.000625
Si Si4 0.318396 0.961446 0.033642
Si Si5 0.942600 0.760938 0.747144
Si Si6 0.545951 0.549528 0.294371
O O1 0.918079 0.038281 0.200264
O O2 0.872522 0.150273 0.007522
O O3 0.752166 0.009283 0.080614
O O4 0.904530 0.967403 0.956551
O O5 0.127615 0.144241 0.237623
O O6 0.242711 0.983760 0.149029
O O7 0.068490 0.959158 0.272054
O O8 0.646921 0.151093 0.988621
O O9 0.506550 0.230219 0.878093
O O10 0.508406 0.244094 0.127167
O O11 0.410597 0.027963 0.068560
O O12 0.901727 0.647973 0.739076
#
# Coordination Sequence:
#
# PCOD9432322 Si02
#       6
#     8   8   8   8   8   8
#     4  10  22  42  73  96 148 193 246 315 390 438
#     4  10  22  44  67 102 144 199 243 312 387 451
#     4  12  22  45  73 115 141 199 259 319 380 456
#     4  10  25  39  69 108 146 187 257 313 377 456
#     4  12  25  41  80 101 150 205 257 300 396 463
#     4  12  22  46  69 101 151 199 251 314 387 462
#
# _framework density 24.626723999999999
#
# number of rings (size 3 to 8) (size 9 to 14) (size 15 to 20)
#    1.000    0.000    5.000    2.000    0.000    4.000 
#    3.000    5.000    3.667    0.000    0.000    0.000 
#    0.000    0.000    0.000    0.000    0.000    0.000 
#
# Total GULP energy -267755.745073 kJ/mol
# GULP energy per Si atom -5578.244689 kJ/mol
# Density = 2.457067 g / cm^3
# Si number density = 24.626724 Si / 1000 Ang^3
#
#
#
# Elastic Constant Matrix: (Units=GPa)
#
#
# Indices 1 2 3 4 5 6 
#
# 1 103.3817 18.2182 32.9935 0.0000 0.0000 0.0000
# 2 18.2182 142.5961 3.6121 0.0000 0.0000 0.0000
# 3 32.9935 3.6121 119.3329 0.0000 0.0000 0.0000
# 4 0.0000 0.0000 0.0000 39.0008 0.0000 0.0000
# 5 0.0000 0.0000 0.0000 0.0000 44.1350 0.0000
# 6 0.0000 0.0000 0.0000 0.0000 0.0000 39.6906
#
#
#
# Elastic Compliance Matrix: (Units=1/GPa)
#
#
# Indices 1 2 3 4 5 6 
#
# 1 0.010849 -0.001311 -0.002960 0.000000 0.000000 0.000000
# 2 -0.001311 0.007177 0.000145 0.000000 0.000000 0.000000
# 3 -0.002960 0.000145 0.009194 0.000000 0.000000 0.000000
# 4 0.000000 0.000000 0.000000 0.025640 0.000000 0.000000
# 5 0.000000 0.000000 0.000000 0.000000 0.022658 0.000000
# 6 0.000000 0.000000 0.000000 0.000000 0.000000 0.025195
#
#
# Mechanical properties :
#
#
# Convention : Reuss Voigt Hill
#
# Bulk Modulus (GPa) = 52.72060 52.77314 52.74687
# Shear Modulus (GPa) = 43.37048 45.26442 44.31745
#
# Velocity S-wave (km/s) = 4.20112 4.29186 4.24673
# Velocity P-wave (km/s) = 6.70722 6.78497 6.74621
#
# Compressibility (1/GPa) = 0.01896792
#
# Stress axis : x y z
#
# Youngs Moduli (GPa) = 92.17860 139.34105 108.76852
#
# Poissons Ratio (x) = 0.18268 0.32193
# Poissons Ratio (y) = 0.12085 -0.01580
# Poissons Ratio (z) = 0.27282 -0.02024
#
# Static dielectric constant tensor:
#      x y z
#    x 2.087690 0.000000 0.000000 
#    y 0.000000 2.058770 0.000000 
#    z 0.000000 0.000000 2.008340 
# 
# From -- ./inp_files/7821.got.cif
#   From: 2010.05.17/outbox.cif.g08.bks.cpg/sg56_4_cif.got.tgz:7821.got - 2010.06.03 13:42:01.
