data_PCOD9432358
_publ_section_title
;
Structure prediction by ZEFSAII (Michael W. Deem and Ramdas Pophale) SiO2 
 PCOD9432358
Probable space group: P C C N
;
_chemical_formula_sum "Si O2"
_cell_formula_units_Z 40
_cell_length_a 8.881523
_cell_length_b 8.864170
_cell_length_c 22.090969
_cell_angle_alpha 90.000000
_cell_angle_beta 90.000000
_cell_angle_gamma 90.000000
_cell_volume 1739.163001
_symmetry_space_group_name_H-M "P C C N"
_symmetry_group_IT_number 56
_symmetry_cell_setting 'orthorhombic'
loop_
_space_group_symop_operation_xyz
x,y,z
1/2-x,1/2-y,z
1/2+x,-y,1/2-z
-x,1/2+y,1/2-z
-x,-y,-z
1/2+x,1/2+y,-z
1/2-x,y,1/2+z
x,1/2-y,1/2+z
loop_
_atom_site_type_symbol
_atom_site_label
_atom_site_fract_x
_atom_site_fract_y
_atom_site_fract_z
Si Si1 0.567442 0.496127 0.265999
Si Si2 0.233194 0.070492 0.333324
Si Si3 0.124200 0.004582 0.080818
Si Si4 0.750000 0.250000 0.842559
Si Si5 0.750000 0.750000 0.828571
Si Si6 0.782201 0.072568 0.044687
O O1 0.395491 0.473335 0.284722
O O2 0.615650 0.498623 0.195954
O O3 0.656611 0.364925 0.301239
O O4 0.627811 0.658082 0.289627
O O5 0.250000 0.250000 0.338899
O O6 0.195371 0.001816 0.398863
O O7 0.139400 0.844042 0.114077
O O8 0.176109 0.128231 0.128030
O O9 0.233966 0.998476 0.022031
O O10 0.956631 0.042122 0.060300
O O11 0.750000 0.250000 0.042057
#
# Coordination Sequence:
#
# PCOD9432358 Si02
#       6
#     8   8   8   4   4   8
#     4  11  26  43  71  98 139 180 230 286 341 415
#     4  12  28  44  68 103 139 181 231 282 346 416
#     4  10  22  43  67  94 132 176 224 282 339 413
#     4  10  22  44  68  96 134 180 224 286 352 400
#     4  10  22  44  66  96 132 174 226 278 346 398
#     4  11  24  42  66  97 134 176 226 275 342 408
#
# _framework density 22.999569000000001
#
# number of rings (size 3 to 8) (size 9 to 14) (size 15 to 20)
#    0.000    1.200    2.000    2.400   11.200    0.000 
#    0.000    3.000    0.000    0.000    0.000    0.000 
#    0.000    0.000    0.000    0.000    0.000    0.000 
#
# Total GULP energy -223988.784672 kJ/mol
# GULP energy per Si atom -5599.719617 kJ/mol
# Density = 2.294722 g / cm^3
# Si number density = 22.999569 Si / 1000 Ang^3
#
#
#
# Elastic Constant Matrix: (Units=GPa)
#
#
# Indices 1 2 3 4 5 6 
#
# 1 70.0720 29.9324 11.6952 0.0000 0.0000 0.0000
# 2 29.9324 123.8163 37.8946 0.0000 0.0000 0.0000
# 3 11.6952 37.8946 123.2178 0.0000 0.0000 0.0000
# 4 0.0000 0.0000 0.0000 25.9694 0.0000 0.0000
# 5 0.0000 0.0000 0.0000 0.0000 17.5487 0.0000
# 6 0.0000 0.0000 0.0000 0.0000 0.0000 32.0593
#
#
#
# Elastic Compliance Matrix: (Units=1/GPa)
#
#
# Indices 1 2 3 4 5 6 
#
# 1 0.015929 -0.003740 -0.000362 0.000000 0.000000 0.000000
# 2 -0.003740 0.009794 -0.002657 0.000000 0.000000 0.000000
# 3 -0.000362 -0.002657 0.008967 0.000000 0.000000 0.000000
# 4 0.000000 0.000000 0.000000 0.038507 0.000000 0.000000
# 5 0.000000 0.000000 0.000000 0.000000 0.056984 0.000000
# 6 0.000000 0.000000 0.000000 0.000000 0.000000 0.031192
#
#
# Mechanical properties :
#
#
# Convention : Reuss Voigt Hill
#
# Bulk Modulus (GPa) = 47.23116 52.90560 50.06838
# Shear Modulus (GPa) = 27.48028 30.95440 29.21734
#
# Velocity S-wave (km/s) = 3.46036 3.67259 3.56805
# Velocity P-wave (km/s) = 6.04531 6.40599 6.22826
#
# Compressibility (1/GPa) = 0.02117246
#
# Stress axis : x y z
#
# Youngs Moduli (GPa) = 62.77838 102.10496 111.51776
#
# Poissons Ratio (x) = 0.38189 0.04033
# Poissons Ratio (y) = 0.23480 0.29631
# Poissons Ratio (z) = 0.02270 0.27130
#
# Static dielectric constant tensor:
#      x y z
#    x 1.896730 0.000000 0.000000 
#    y 0.000000 1.812080 0.000000 
#    z 0.000000 0.000000 1.892250 
# 
# From -- ./inp_files/20359.got.cif
#   From: 2010.05.17/outbox.cif.g08.bks.cpg/sg56_11_cif.got.tgz:20359.got - 2010.06.03 13:42:01.
