data_PCOD9432197
_publ_section_title
;
Structure prediction by ZEFSAII (Michael W. Deem and Ramdas Pophale) SiO2 
 PCOD9432197
Probable space group: P C C N
;
_chemical_formula_sum "Si O2"
_cell_formula_units_Z 32
_cell_length_a 9.050252
_cell_length_b 8.290986
_cell_length_c 18.702798
_cell_angle_alpha 90.000000
_cell_angle_beta 90.000000
_cell_angle_gamma 90.000000
_cell_volume 1403.374036
_symmetry_space_group_name_H-M "P C C N"
_symmetry_group_IT_number 56
_symmetry_cell_setting 'orthorhombic'
loop_
_space_group_symop_operation_xyz
x,y,z
1/2-x,1/2-y,z
1/2+x,-y,1/2-z
-x,1/2+y,1/2-z
-x,-y,-z
1/2+x,1/2+y,-z
1/2-x,y,1/2+z
x,1/2-y,1/2+z
loop_
_atom_site_type_symbol
_atom_site_label
_atom_site_fract_x
_atom_site_fract_y
_atom_site_fract_z
Si Si1 0.593857 0.955221 0.104754
Si Si2 0.917458 0.755709 0.466746
Si Si3 0.075344 0.559553 0.358208
Si Si4 0.570576 0.751448 0.237430
O O1 0.540574 0.894061 0.180914
O O2 0.497563 0.091492 0.068163
O O3 0.756618 0.027457 0.118343
O O4 0.587904 0.800660 0.050895
O O5 0.750000 0.750000 0.442262
O O6 0.992639 0.599179 0.432245
O O7 0.033113 0.407120 0.308839
O O8 0.029451 0.708840 0.306041
O O9 0.750000 0.750000 0.252761
#
# Coordination Sequence:
#
# PCOD9432197 Si02
#       4
#     8   8   8   8
#     4  10  24  44  67  98 137 178 223 279 339 400
#     4  11  23  42  66  96 134 176 223 270 330 402
#     4  11  22  41  69  97 134 177 225 282 340 402
#     4  10  22  41  66  99 134 172 225 286 343 401
#
# _framework density 22.802191000000001
#
# number of rings (size 3 to 8) (size 9 to 14) (size 15 to 20)
#    0.000    1.500    0.000    5.250    0.000    8.000 
#    0.000    8.750    0.000    0.000    0.000    0.000 
#    0.000    0.000    0.000    0.000    0.000    0.000 
#
# Total GULP energy -178638.375119 kJ/mol
# GULP energy per Si atom -5582.449222 kJ/mol
# Density = 2.275029 g / cm^3
# Si number density = 22.802191 Si / 1000 Ang^3
#
#
#
# Elastic Constant Matrix: (Units=GPa)
#
#
# Indices 1 2 3 4 5 6 
#
# 1 63.5311 38.1717 72.4625 0.0000 0.0000 0.0000
# 2 38.1717 90.9533 58.2978 0.0000 0.0000 0.0000
# 3 72.4625 58.2978 181.9121 0.0000 0.0000 0.0000
# 4 0.0000 0.0000 0.0000 64.9184 0.0000 0.0000
# 5 0.0000 0.0000 0.0000 0.0000 39.8211 0.0000
# 6 0.0000 0.0000 0.0000 0.0000 0.0000 36.4756
#
#
#
# Elastic Compliance Matrix: (Units=1/GPa)
#
#
# Indices 1 2 3 4 5 6 
#
# 1 0.031671 -0.006551 -0.010516 0.000000 0.000000 0.000000
# 2 -0.006551 0.015192 -0.002259 0.000000 0.000000 0.000000
# 3 -0.010516 -0.002259 0.010410 0.000000 0.000000 0.000000
# 4 0.000000 0.000000 0.000000 0.015404 0.000000 0.000000
# 5 0.000000 0.000000 0.000000 0.000000 0.025112 0.000000
# 6 0.000000 0.000000 0.000000 0.000000 0.000000 0.027416
#
#
# Mechanical properties :
#
#
# Convention : Reuss Voigt Hill
#
# Bulk Modulus (GPa) = 53.70513 74.91785 64.31149
# Shear Modulus (GPa) = 29.40036 39.40732 34.40384
#
# Velocity S-wave (km/s) = 3.59467 4.16170 3.88854
# Velocity P-wave (km/s) = 6.39004 7.48464 6.95890
#
# Compressibility (1/GPa) = 0.01862019
#
# Stress axis : x y z
#
# Youngs Moduli (GPa) = 31.57415 65.82374 96.05969
#
# Poissons Ratio (x) = 0.43124 1.01020
# Poissons Ratio (y) = 0.20685 0.21700
# Poissons Ratio (z) = 0.33205 0.14869
#
# Static dielectric constant tensor:
#      x y z
#    x 1.701250 0.000000 0.000000 
#    y 0.000000 1.961120 0.000000 
#    z 0.000000 0.000000 1.877000 
# 
# From -- ./inp_files/17798.got.cif
#   From: 2010.05.17/outbox.cif.g08.bks.cpg/sg56_9_cif.got.tgz:17798.got - 2010.06.03 13:42:01.
