data_PCOD9432319
_publ_section_title
;
Structure prediction by ZEFSAII (Michael W. Deem and Ramdas Pophale) SiO2 
 PCOD9432319
Probable space group: P C C N
;
_chemical_formula_sum "Si O2"
_cell_formula_units_Z 48
_cell_length_a 16.617334
_cell_length_b 8.694088
_cell_length_c 13.458106
_cell_angle_alpha 90.000000
_cell_angle_beta 90.000000
_cell_angle_gamma 90.000000
_cell_volume 1944.327082
_symmetry_space_group_name_H-M "P C C N"
_symmetry_group_IT_number 56
_symmetry_cell_setting 'orthorhombic'
loop_
_space_group_symop_operation_xyz
x,y,z
1/2-x,1/2-y,z
1/2+x,-y,1/2-z
-x,1/2+y,1/2-z
-x,-y,-z
1/2+x,1/2+y,-z
1/2-x,y,1/2+z
x,1/2-y,1/2+z
loop_
_atom_site_type_symbol
_atom_site_label
_atom_site_fract_x
_atom_site_fract_y
_atom_site_fract_z
Si Si1 0.123869 0.935687 0.983545
Si Si2 0.738926 0.920850 0.673027
Si Si3 0.028520 0.244292 0.494628
Si Si4 0.986793 0.355454 0.776610
Si Si5 0.099182 0.146963 0.681128
Si Si6 0.669430 0.146741 0.292726
O O1 0.060016 0.796880 0.965704
O O2 0.192485 0.965530 0.901894
O O3 0.158537 0.910553 0.093974
O O4 0.075183 0.095625 0.980932
O O5 0.750000 0.750000 0.627121
O O6 0.685015 0.883365 0.771640
O O7 0.815768 0.010429 0.714219
O O8 0.082423 0.134912 0.564749
O O9 0.016695 0.167795 0.388443
O O10 0.957747 0.527523 0.761289
O O11 0.907393 0.250564 0.767072
O O12 0.058547 0.309156 0.704913
O O13 0.750000 0.250000 0.289552
#
# Coordination Sequence:
#
# PCOD9432319 Si02
#       6
#     8   8   8   8   8   8
#     4  10  23  45  67 101 136 179 224 282 344 405
#     4  12  26  44  69 103 138 181 227 285 348 403
#     4  10  22  42  72  97 135 175 227 285 336 403
#     4  11  25  44  69 100 133 179 233 277 340 413
#     4  12  24  43  71 101 132 180 228 284 337 410
#     4  11  25  47  66  96 141 184 225 278 345 411
#
# _framework density 24.687203
#
# number of rings (size 3 to 8) (size 9 to 14) (size 15 to 20)
#    0.000    1.000    3.333    2.500    7.000    2.667 
#    3.000    0.000    0.000    0.000    0.000    0.000 
#    0.000    0.000    0.000    0.000    0.000    0.000 
#
# Total GULP energy -268802.992565 kJ/mol
# GULP energy per Si atom -5600.062345 kJ/mol
# Density = 2.463101 g / cm^3
# Si number density = 24.687203 Si / 1000 Ang^3
#
#
#
# Elastic Constant Matrix: (Units=GPa)
#
#
# Indices 1 2 3 4 5 6 
#
# 1 68.9296 11.1150 23.3140 0.0000 0.0000 0.0000
# 2 11.1150 45.7830 -0.6488 0.0000 0.0000 0.0000
# 3 23.3140 -0.6488 100.1118 0.0000 0.0000 0.0000
# 4 0.0000 0.0000 0.0000 33.2765 0.0000 0.0000
# 5 0.0000 0.0000 0.0000 0.0000 42.9995 0.0000
# 6 0.0000 0.0000 0.0000 0.0000 0.0000 44.7785
#
#
#
# Elastic Compliance Matrix: (Units=1/GPa)
#
#
# Indices 1 2 3 4 5 6 
#
# 1 0.016467 -0.004052 -0.003861 0.000000 0.000000 0.000000
# 2 -0.004052 0.022842 0.001092 0.000000 0.000000 0.000000
# 3 -0.003861 0.001092 0.010895 0.000000 0.000000 0.000000
# 4 0.000000 0.000000 0.000000 0.030051 0.000000 0.000000
# 5 0.000000 0.000000 0.000000 0.000000 0.023256 0.000000
# 6 0.000000 0.000000 0.000000 0.000000 0.000000 0.022332
#
#
# Mechanical properties :
#
#
# Convention : Reuss Voigt Hill
#
# Bulk Modulus (GPa) = 27.35235 31.37608 29.36422
# Shear Modulus (GPa) = 32.96561 36.28052 34.62307
#
# Velocity S-wave (km/s) = 3.65818 3.83771 3.74902
# Velocity P-wave (km/s) = 5.38021 5.68985 5.53720
#
# Compressibility (1/GPa) = 0.03655993
#
# Stress axis : x y z
#
# Youngs Moduli (GPa) = 60.72767 43.77996 91.78462
#
# Poissons Ratio (x) = 0.17742 0.35439
# Poissons Ratio (y) = 0.24610 -0.10021
# Poissons Ratio (z) = 0.23447 -0.04780
#
# Static dielectric constant tensor:
#      x y z
#    x 1.930680 0.000000 0.000000 
#    y 0.000000 1.978780 0.000000 
#    z 0.000000 0.000000 1.968560 
# 
# From -- ./inp_files/10701.got.cif
#   From: 2010.05.17/outbox.cif.g08.bks.cpg/sg56_6_cif.got.tgz:10701.got - 2010.06.03 13:42:01.
