data_PCOD9432864
_publ_section_title
;
Structure prediction by ZEFSAII (Michael W. Deem and Ramdas Pophale) SiO2 
 PCOD9432864
Probable space group: P C C N
;
_chemical_formula_sum "Si O2"
_cell_formula_units_Z 60
_cell_length_a 25.847423
_cell_length_b 12.594227
_cell_length_c 9.323625
_cell_angle_alpha 90.000000
_cell_angle_beta 90.000000
_cell_angle_gamma 90.000000
_cell_volume 3035.103914
_symmetry_space_group_name_H-M "P C C N"
_symmetry_group_IT_number 56
_symmetry_cell_setting 'orthorhombic'
loop_
_space_group_symop_operation_xyz
x,y,z
1/2-x,1/2-y,z
1/2+x,-y,1/2-z
-x,1/2+y,1/2-z
-x,-y,-z
1/2+x,1/2+y,-z
1/2-x,y,1/2+z
x,1/2-y,1/2+z
loop_
_atom_site_type_symbol
_atom_site_label
_atom_site_fract_x
_atom_site_fract_y
_atom_site_fract_z
Si Si1 0.250000 0.250000 0.483019
Si Si2 0.823206 0.700542 0.274465
Si Si3 0.418462 0.657806 0.980040
Si Si4 0.604238 0.596102 0.348524
Si Si5 0.029565 0.390875 0.883275
Si Si6 0.593270 0.545744 0.857001
Si Si7 0.034242 0.154449 0.898362
Si Si8 0.587893 0.127735 0.860311
O O1 0.292270 0.295910 0.373793
O O2 0.216580 0.318679 0.594733
O O3 0.854709 0.811740 0.305572
O O4 0.861781 0.603078 0.272019
O O5 0.416522 0.658141 0.808033
O O6 0.390895 0.557248 0.053905
O O7 0.477637 0.638179 0.034480
O O8 0.399223 0.768397 0.047173
O O9 0.569966 0.620051 0.487727
O O10 0.561681 0.584209 0.221827
O O11 0.624330 0.475722 0.371108
O O12 0.049005 0.471662 0.762491
O O13 0.031529 0.269783 0.825120
O O14 0.969428 0.406531 0.919210
O O15 0.572085 0.633100 0.968554
#
# Coordination Sequence:
#
# PCOD9432864 Si02
#       8
#     4   8   8   8   8   8   8   8
#     4  10  24  42  60  92 126 126 182 244 330 370
#     4  11  22  40  65  92 113 149 177 248 306 374
#     4  11  25  37  52  77 123 166 202 245 272 315
#     4  12  22  36  59  84 115 155 206 233 290 353
#     4  11  21  32  53  85 119 158 201 244 272 335
#     4  12  20  37  59  82 112 157 203 230 294 349
#     4  11  19  35  52  81 120 161 201 243 274 329
#     4  11  25  38  50  79 122 167 203 243 273 312
#
# _framework density 19.768681000000001
#
# number of rings (size 3 to 8) (size 9 to 14) (size 15 to 20)
#    0.000    0.800    5.333    3.200    7.467    0.000 
#    0.000    0.000    0.000    0.000    0.000    5.600 
#    0.000    0.000    0.000    0.000    0.000    0.000 
#
# Total GULP energy -334589.393584 kJ/mol
# GULP energy per Si atom -5576.489893 kJ/mol
# Density = 1.972369 g / cm^3
# Si number density = 19.768681 Si / 1000 Ang^3
#
#
#
# Elastic Constant Matrix: (Units=GPa)
#
#
# Indices 1 2 3 4 5 6 
#
# 1 40.8900 13.6680 7.7415 0.0000 0.0000 0.0000
# 2 13.6680 86.3131 -1.1768 0.0000 0.0000 0.0000
# 3 7.7415 -1.1768 95.8528 0.0000 0.0000 0.0000
# 4 0.0000 0.0000 0.0000 25.6063 0.0000 0.0000
# 5 0.0000 0.0000 0.0000 0.0000 15.8559 0.0000
# 6 0.0000 0.0000 0.0000 0.0000 0.0000 6.3757
#
#
#
# Elastic Compliance Matrix: (Units=1/GPa)
#
#
# Indices 1 2 3 4 5 6 
#
# 1 0.026268 -0.004189 -0.002173 0.000000 0.000000 0.000000
# 2 -0.004189 0.012256 0.000489 0.000000 0.000000 0.000000
# 3 -0.002173 0.000489 0.010614 0.000000 0.000000 0.000000
# 4 0.000000 0.000000 0.000000 0.039053 0.000000 0.000000
# 5 0.000000 0.000000 0.000000 0.000000 0.063068 0.000000
# 6 0.000000 0.000000 0.000000 0.000000 0.000000 0.156846
#
#
# Mechanical properties :
#
#
# Convention : Reuss Voigt Hill
#
# Bulk Modulus (GPa) = 26.74450 29.28014 28.01232
# Shear Modulus (GPa) = 15.04600 23.08914 19.06757
#
# Velocity S-wave (km/s) = 2.76180 3.42126 3.10906
# Velocity P-wave (km/s) = 4.87116 5.51817 5.20473
#
# Compressibility (1/GPa) = 0.03739086
#
# Stress axis : x y z
#
# Youngs Moduli (GPa) = 38.06982 81.59424 94.21380
#
# Poissons Ratio (x) = 0.34181 0.20472
# Poissons Ratio (y) = 0.15948 -0.04605
# Poissons Ratio (z) = 0.08272 -0.03988
#
# Static dielectric constant tensor:
#      x y z
#    x 1.736170 0.000000 0.000000 
#    y 0.000000 1.780270 0.000000 
#    z 0.000000 0.000000 1.730010 
# 
# From -- ./inp_files/4977.got.cif
#   From: 2010.05.17/outbox.cif.g08.bks.cpg/sg56_3_cif.got.tgz:4977.got - 2010.06.03 13:42:01.
