data_PCOD9432712
_publ_section_title
;
Structure prediction by ZEFSAII (Michael W. Deem and Ramdas Pophale) SiO2 
 PCOD9432712
Probable space group: P C C N
;
_chemical_formula_sum "Si O2"
_cell_formula_units_Z 60
_cell_length_a 14.720260
_cell_length_b 7.749679
_cell_length_c 23.543312
_cell_angle_alpha 90.000000
_cell_angle_beta 90.000000
_cell_angle_gamma 90.000000
_cell_volume 2685.757226
_symmetry_space_group_name_H-M "P C C N"
_symmetry_group_IT_number 56
_symmetry_cell_setting 'orthorhombic'
loop_
_space_group_symop_operation_xyz
x,y,z
1/2-x,1/2-y,z
1/2+x,-y,1/2-z
-x,1/2+y,1/2-z
-x,-y,-z
1/2+x,1/2+y,-z
1/2-x,y,1/2+z
x,1/2-y,1/2+z
loop_
_atom_site_type_symbol
_atom_site_label
_atom_site_fract_x
_atom_site_fract_y
_atom_site_fract_z
Si Si1 0.321699 0.492733 0.218320
Si Si2 0.250000 0.250000 0.426353
Si Si3 0.551540 0.635892 0.687170
Si Si4 0.080370 0.034277 0.103361
Si Si5 0.610094 0.673056 0.481644
Si Si6 0.361821 0.613932 0.741289
Si Si7 0.042703 0.650064 0.072249
Si Si8 0.387387 0.488879 0.856219
O O1 0.361947 0.428526 0.278179
O O2 0.373361 0.419858 0.163530
O O3 0.212723 0.479411 0.218308
O O4 0.341646 0.697064 0.217443
O O5 0.317152 0.347583 0.468871
O O6 0.189955 0.385119 0.390116
O O7 0.463982 0.578350 0.722374
O O8 0.527019 0.590336 0.622120
O O9 0.564193 0.841015 0.682092
O O10 0.088791 0.829421 0.090757
O O11 0.970625 0.062375 0.106951
O O12 0.121527 0.153739 0.054603
O O13 0.608331 0.508138 0.440807
O O14 0.514660 0.685899 0.515367
O O15 0.351999 0.620465 0.809426
#
# Coordination Sequence:
#
# PCOD9432712 Si02
#       8
#     8   4   8   8   8   8   8   8
#     4  11  24  39  63 104 139 170 234 282 344 439
#     4  12  24  46  66 106 134 178 250 298 336 422
#     4  11  20  42  67  94 139 180 219 286 352 420
#     4  11  22  46  72  97 136 187 225 288 359 421
#     4  11  25  43  72  97 133 180 242 287 350 408
#     4  11  22  39  64 100 134 177 223 275 352 425
#     4  10  23  44  69  97 135 180 231 288 343 423
#     4  11  23  41  70  95 138 181 223 291 351 419
#
# _framework density 22.340069
#
# number of rings (size 3 to 8) (size 9 to 14) (size 15 to 20)
#    0.000    1.067    6.667    1.200    1.867    2.133 
#    0.000    0.000    2.933    0.000    0.000    0.000 
#    0.000    0.000    0.000    0.000    0.000    0.000 
#
# Total GULP energy -335084.568894 kJ/mol
# GULP energy per Si atom -5584.742815 kJ/mol
# Density = 2.228922 g / cm^3
# Si number density = 22.340069 Si / 1000 Ang^3
#
#
#
# Elastic Constant Matrix: (Units=GPa)
#
#
# Indices 1 2 3 4 5 6 
#
# 1 78.0752 19.2302 21.9117 0.0000 0.0000 0.0000
# 2 19.2302 47.8155 42.6674 0.0000 0.0000 0.0000
# 3 21.9117 42.6674 116.3389 0.0000 0.0000 0.0000
# 4 0.0000 0.0000 0.0000 42.6033 0.0000 0.0000
# 5 0.0000 0.0000 0.0000 0.0000 33.8833 0.0000
# 6 0.0000 0.0000 0.0000 0.0000 0.0000 8.3085
#
#
#
# Elastic Compliance Matrix: (Units=1/GPa)
#
#
# Indices 1 2 3 4 5 6 
#
# 1 0.014275 -0.004968 -0.000867 0.000000 0.000000 0.000000
# 2 -0.004968 0.032816 -0.011100 0.000000 0.000000 0.000000
# 3 -0.000867 -0.011100 0.012830 0.000000 0.000000 0.000000
# 4 0.000000 0.000000 0.000000 0.023472 0.000000 0.000000
# 5 0.000000 0.000000 0.000000 0.000000 0.029513 0.000000
# 6 0.000000 0.000000 0.000000 0.000000 0.000000 0.120359
#
#
# Mechanical properties :
#
#
# Convention : Reuss Voigt Hill
#
# Bulk Modulus (GPa) = 38.38380 45.53870 41.96125
# Shear Modulus (GPa) = 18.12787 27.52035 22.82411
#
# Velocity S-wave (km/s) = 2.85169 3.51363 3.19982
# Velocity P-wave (km/s) = 5.29733 6.07366 5.69873
#
# Compressibility (1/GPa) = 0.02605266
#
# Stress axis : x y z
#
# Youngs Moduli (GPa) = 70.05272 30.47262 77.94422
#
# Poissons Ratio (x) = 0.15138 0.06756
# Poissons Ratio (y) = 0.34800 0.86517
# Poissons Ratio (z) = 0.06072 0.33824
#
# Static dielectric constant tensor:
#      x y z
#    x 1.907870 0.000000 0.000000 
#    y 0.000000 1.824090 0.000000 
#    z 0.000000 0.000000 1.848900 
# 
# From -- ./inp_files/21142.got.cif
#   From: 2010.05.17/outbox.cif.g08.bks.cpg/sg56_11_cif.got.tgz:21142.got - 2010.06.03 13:42:01.
