data_PCOD9432903
_publ_section_title
;
Structure prediction by ZEFSAII (Michael W. Deem and Ramdas Pophale) SiO2 
 PCOD9432903
Probable space group: P C C N
;
_chemical_formula_sum "Si O2"
_cell_formula_units_Z 64
_cell_length_a 12.117212
_cell_length_b 13.345259
_cell_length_c 18.840820
_cell_angle_alpha 90.000000
_cell_angle_beta 90.000000
_cell_angle_gamma 90.000000
_cell_volume 3046.698744
_symmetry_space_group_name_H-M "P C C N"
_symmetry_group_IT_number 56
_symmetry_cell_setting 'orthorhombic'
loop_
_space_group_symop_operation_xyz
x,y,z
1/2-x,1/2-y,z
1/2+x,-y,1/2-z
-x,1/2+y,1/2-z
-x,-y,-z
1/2+x,1/2+y,-z
1/2-x,y,1/2+z
x,1/2-y,1/2+z
loop_
_atom_site_type_symbol
_atom_site_label
_atom_site_fract_x
_atom_site_fract_y
_atom_site_fract_z
Si Si1 0.573202 0.298510 0.185931
Si Si2 0.758892 0.610231 0.702177
Si Si3 0.194583 0.143645 0.638069
Si Si4 0.413678 0.415129 0.081983
Si Si5 0.511105 0.471711 0.580137
Si Si6 0.304578 0.900934 0.833618
Si Si7 0.475910 0.178771 0.839640
Si Si8 0.054292 0.118548 0.916865
O O1 0.478033 0.335178 0.132364
O O2 0.610121 0.183111 0.191925
O O3 0.684131 0.354283 0.160580
O O4 0.537837 0.324499 0.265071
O O5 0.813646 0.641286 0.776399
O O6 0.706804 0.499464 0.713989
O O7 0.654977 0.677254 0.678953
O O8 0.843451 0.600848 0.636920
O O9 0.250000 0.250000 0.617596
O O10 0.290558 0.070042 0.610953
O O11 0.080304 0.109152 0.603723
O O12 0.476630 0.521067 0.087944
O O13 0.413333 0.377411 0.000197
O O14 0.500000 0.500000 0.500000
O O15 0.636137 0.435940 0.594639
O O16 0.495922 0.574637 0.622951
O O17 0.496925 0.276813 0.887933
#
# Coordination Sequence:
#
# PCOD9432903 Si02
#       8
#     8   8   8   8   8   8   8   8
#     4  11  22  45  73 105 132 184 241 285 360 417
#     4  11  23  44  70 106 138 184 236 292 353 423
#     4  12  26  42  73 104 138 183 242 292 348 428
#     4  11  26  45  71 105 140 191 237 292 352 431
#     4  11  28  45  67 104 147 188 234 293 362 427
#     4  10  24  42  74  93 143 182 229 292 351 415
#     4  11  25  43  71 105 139 187 235 295 357 424
#     4  11  26  44  70 100 149 186 237 289 360 428
#
# _framework density 21.006343999999999
#
# number of rings (size 3 to 8) (size 9 to 14) (size 15 to 20)
#    0.000    1.000    2.500    2.625   10.500    0.000 
#    0.000    0.000    0.000    0.000    0.000    0.000 
#    0.000    0.000    0.000    0.000    0.000    0.000 
#
# Total GULP energy -357528.356125 kJ/mol
# GULP energy per Si atom -5586.380564 kJ/mol
# Density = 2.095853 g / cm^3
# Si number density = 21.006344 Si / 1000 Ang^3
#
#
#
# Elastic Constant Matrix: (Units=GPa)
#
#
# Indices 1 2 3 4 5 6 
#
# 1 112.9136 22.1907 43.7933 0.0000 0.0000 0.0000
# 2 22.1907 106.8380 36.6835 0.0000 0.0000 0.0000
# 3 43.7933 36.6835 144.8610 0.0000 0.0000 0.0000
# 4 0.0000 0.0000 0.0000 21.0736 0.0000 0.0000
# 5 0.0000 0.0000 0.0000 0.0000 26.1652 0.0000
# 6 0.0000 0.0000 0.0000 0.0000 0.0000 26.5520
#
#
#
# Elastic Compliance Matrix: (Units=1/GPa)
#
#
# Indices 1 2 3 4 5 6 
#
# 1 0.010161 -0.001156 -0.002779 0.000000 0.000000 0.000000
# 2 -0.001156 0.010383 -0.002280 0.000000 0.000000 0.000000
# 3 -0.002779 -0.002280 0.008321 0.000000 0.000000 0.000000
# 4 0.000000 0.000000 0.000000 0.047453 0.000000 0.000000
# 5 0.000000 0.000000 0.000000 0.000000 0.038219 0.000000
# 6 0.000000 0.000000 0.000000 0.000000 0.000000 0.037662
#
#
# Mechanical properties :
#
#
# Convention : Reuss Voigt Hill
#
# Bulk Modulus (GPa) = 60.84706 63.32749 62.08728
# Shear Modulus (GPa) = 29.39327 32.22116 30.80722
#
# Velocity S-wave (km/s) = 3.74472 3.92072 3.83373
# Velocity P-wave (km/s) = 6.90841 7.12098 7.01550
#
# Compressibility (1/GPa) = 0.01643465
#
# Stress axis : x y z
#
# Youngs Moduli (GPa) = 98.41109 96.31221 120.18335
#
# Poissons Ratio (x) = 0.11137 0.33400
# Poissons Ratio (y) = 0.11380 0.27398
# Poissons Ratio (z) = 0.27349 0.21956
#
# Static dielectric constant tensor:
#      x y z
#    x 1.754840 0.000000 0.000000 
#    y 0.000000 1.858100 0.000000 
#    z 0.000000 0.000000 1.705190 
# 
# From -- ./inp_files/15813.got.cif
#   From: 2010.05.17/outbox.cif.g08.bks.cpg/sg56_8_cif.got.tgz:15813.got - 2010.06.03 13:42:01.
