data_PCOD9432849
_publ_section_title
;
Structure prediction by ZEFSAII (Michael W. Deem and Ramdas Pophale) SiO2 
 PCOD9432849
Probable space group: P C C N
;
_chemical_formula_sum "Si O2"
_cell_formula_units_Z 60
_cell_length_a 17.072115
_cell_length_b 17.320725
_cell_length_c 8.862472
_cell_angle_alpha 90.000000
_cell_angle_beta 90.000000
_cell_angle_gamma 90.000000
_cell_volume 2620.645458
_symmetry_space_group_name_H-M "P C C N"
_symmetry_group_IT_number 56
_symmetry_cell_setting 'orthorhombic'
loop_
_space_group_symop_operation_xyz
x,y,z
1/2-x,1/2-y,z
1/2+x,-y,1/2-z
-x,1/2+y,1/2-z
-x,-y,-z
1/2+x,1/2+y,-z
1/2-x,y,1/2+z
x,1/2-y,1/2+z
loop_
_atom_site_type_symbol
_atom_site_label
_atom_site_fract_x
_atom_site_fract_y
_atom_site_fract_z
Si Si1 0.313684 0.478824 0.927899
Si Si2 0.455391 0.424044 0.447155
Si Si3 0.463996 0.960894 0.352124
Si Si4 0.410271 0.832232 0.919545
Si Si5 0.853323 0.324307 0.739152
Si Si6 0.701834 0.426376 0.767855
Si Si7 0.750000 0.750000 0.720441
Si Si8 0.701878 0.641641 0.476878
O O1 0.313315 0.542967 0.063343
O O2 0.393173 0.477104 0.830246
O O3 0.246350 0.504156 0.813158
O O4 0.285743 0.399570 0.001710
O O5 0.500000 0.500000 0.500000
O O6 0.470189 0.434008 0.267337
O O7 0.501327 0.352813 0.528760
O O8 0.367143 0.418838 0.501037
O O9 0.408681 0.885074 0.348376
O O10 0.500000 0.000000 0.500000
O O11 0.369594 0.828415 0.082608
O O12 0.382979 0.756459 0.828663
O O13 0.376793 0.901718 0.817158
O O14 0.763204 0.354826 0.737592
O O15 0.692902 0.702465 0.612406
O O16 0.795758 0.689849 0.824746
#
# Coordination Sequence:
#
# PCOD9432849 Si02
#       8
#     8   8   8   8   8   8   4   8
#     4  11  24  41  73 102 137 185 234 305 353 429
#     4  11  27  45  70 104 143 188 239 299 365 438
#     4  10  26  45  65 104 138 179 239 292 366 428
#     4  11  24  42  63  97 141 182 233 287 357 428
#     4  10  24  41  63  98 135 185 232 286 352 429
#     4  11  22  40  66  99 138 182 237 289 351 423
#     4  10  26  48  74 108 134 192 242 310 364 428
#     4  11  25  47  75 104 143 184 250 298 370 436
#
# _framework density 22.895123999999999
#
# number of rings (size 3 to 8) (size 9 to 14) (size 15 to 20)
#    0.000    1.333    1.333    2.000   14.933    3.200 
#    2.400    0.000    0.000    0.000    0.000    0.000 
#    0.000    0.000    0.000    0.000    0.000    0.000 
#
# Total GULP energy -334476.583491 kJ/mol
# GULP energy per Si atom -5574.609725 kJ/mol
# Density = 2.284301 g / cm^3
# Si number density = 22.895124 Si / 1000 Ang^3
#
#
#
# Elastic Constant Matrix: (Units=GPa)
#
#
# Indices 1 2 3 4 5 6 
#
# 1 54.1632 -1.9061 7.5944 0.0000 0.0000 0.0000
# 2 -1.9061 59.9586 17.7707 0.0000 0.0000 0.0000
# 3 7.5944 17.7707 124.1554 0.0000 0.0000 0.0000
# 4 0.0000 0.0000 0.0000 40.3836 0.0000 0.0000
# 5 0.0000 0.0000 0.0000 0.0000 14.1199 0.0000
# 6 0.0000 0.0000 0.0000 0.0000 0.0000 -30.1338
#
#
#
# Elastic Compliance Matrix: (Units=1/GPa)
#
#
# Indices 1 2 3 4 5 6 
#
# 1 0.018677 0.000974 -0.001282 0.000000 0.000000 0.000000
# 2 0.000974 0.017468 -0.002560 0.000000 0.000000 0.000000
# 3 -0.001282 -0.002560 0.008499 0.000000 0.000000 0.000000
# 4 0.000000 0.000000 0.000000 0.024763 0.000000 0.000000
# 5 0.000000 0.000000 0.000000 0.000000 0.070822 0.000000
# 6 0.000000 0.000000 0.000000 0.000000 0.000000 -0.033185
#
#
# Mechanical properties :
#
#
# Convention : Reuss Voigt Hill
#
# Bulk Modulus (GPa) = 25.70173 31.68835 28.69504
# Shear Modulus (GPa) = 39.76206 19.19515 29.47860
#
# Velocity S-wave (km/s) = 4.17190 2.89865 3.59214
# Velocity P-wave (km/s) = 5.86997 5.00735 5.45574
#
# Compressibility (1/GPa) = 0.03890789
#
# Stress axis : x y z
#
# Youngs Moduli (GPa) = 53.54264 57.24816 117.65797
#
# Poissons Ratio (x) = -0.05574 0.15081
# Poissons Ratio (y) = -0.05213 0.30118
# Poissons Ratio (z) = 0.06863 0.14654
#
# Static dielectric constant tensor:
#      x y z
#    x 1.663210 0.000000 0.000000 
#    y 0.000000 2.024370 0.000000 
#    z 0.000000 0.000000 1.976210 
# 
# From -- ./inp_files/4130.got.cif
#   From: 2010.05.17/outbox.cif.g08.bks.cpg/sg56_3_cif.got.tgz:4130.got - 2010.06.03 13:42:01.
