data_PCOD9432198
_publ_section_title
;
Structure prediction by ZEFSAII (Michael W. Deem and Ramdas Pophale) SiO2 
 PCOD9432198
Probable space group: P C C N
;
_chemical_formula_sum "Si O2"
_cell_formula_units_Z 64
_cell_length_a 8.740531
_cell_length_b 18.430381
_cell_length_c 17.978235
_cell_angle_alpha 90.000000
_cell_angle_beta 90.000000
_cell_angle_gamma 90.000000
_cell_volume 2896.137544
_symmetry_space_group_name_H-M "P C C N"
_symmetry_group_IT_number 56
_symmetry_cell_setting 'orthorhombic'
loop_
_space_group_symop_operation_xyz
x,y,z
1/2-x,1/2-y,z
1/2+x,-y,1/2-z
-x,1/2+y,1/2-z
-x,-y,-z
1/2+x,1/2+y,-z
1/2-x,y,1/2+z
x,1/2-y,1/2+z
loop_
_atom_site_type_symbol
_atom_site_label
_atom_site_fract_x
_atom_site_fract_y
_atom_site_fract_z
Si Si1 0.190601 0.967637 0.670416
Si Si2 0.671304 0.071414 0.479913
Si Si3 0.076922 0.227260 0.324146
Si Si4 0.358820 0.070770 0.779900
Si Si5 0.376910 0.311316 0.483594
Si Si6 0.840004 0.173082 0.754721
Si Si7 0.347194 0.677367 0.413301
Si Si8 0.656053 0.930894 0.575000
O O1 0.222495 0.964147 0.583047
O O2 0.258025 0.891171 0.701328
O O3 0.011783 0.970434 0.691712
O O4 0.288685 0.031972 0.708013
O O5 0.759682 0.132116 0.524529
O O6 0.514707 0.099091 0.440730
O O7 0.639836 0.011243 0.542631
O O8 0.250000 0.250000 0.336426
O O9 0.084935 0.154662 0.273685
O O10 0.025636 0.204050 0.407474
O O11 0.996015 0.297220 0.290097
O O12 0.224796 0.068012 0.842192
O O13 0.250000 0.250000 0.493123
O O14 0.485004 0.311726 0.554188
O O15 0.282404 0.384806 0.469607
O O16 0.750000 0.250000 0.757634
O O17 0.855149 0.146555 0.669995
O O18 0.250000 0.750000 0.405637
#
# Coordination Sequence:
#
# PCOD9432198 Si02
#       8
#     8   8   8   8   8   8   8   8
#     4  12  26  40  72  97 137 185 232 287 347 417
#     4  11  24  43  67  98 128 182 224 278 344 408
#     4  10  23  42  70  98 135 179 232 289 347 412
#     4  11  24  45  65 102 136 180 231 286 351 415
#     4  10  22  41  67 100 132 176 225 285 332 413
#     4  11  25  45  65 100 138 179 226 287 345 419
#     4  11  25  41  66  98 133 177 222 277 341 410
#     4  10  23  44  66  93 137 171 224 286 340 404
#
# _framework density 22.098399000000001
#
# number of rings (size 3 to 8) (size 9 to 14) (size 15 to 20)
#    0.000    1.250    1.250    3.750    8.750    4.500 
#    2.250    0.000    0.000    0.000    0.000    0.000 
#    0.000    0.000    0.000    0.000    0.000    0.000 
#
# Total GULP energy -357701.158008 kJ/mol
# GULP energy per Si atom -5589.080594 kJ/mol
# Density = 2.204810 g / cm^3
# Si number density = 22.098399 Si / 1000 Ang^3
#
#
#
# Elastic Constant Matrix: (Units=GPa)
#
#
# Indices 1 2 3 4 5 6 
#
# 1 88.0821 1.9044 24.8883 0.0000 0.0000 0.0000
# 2 1.9044 65.4691 14.3651 0.0000 0.0000 0.0000
# 3 24.8883 14.3651 72.1490 0.0000 0.0000 0.0000
# 4 0.0000 0.0000 0.0000 38.8213 0.0000 0.0000
# 5 0.0000 0.0000 0.0000 0.0000 20.0865 0.0000
# 6 0.0000 0.0000 0.0000 0.0000 0.0000 34.7566
#
#
#
# Elastic Compliance Matrix: (Units=1/GPa)
#
#
# Indices 1 2 3 4 5 6 
#
# 1 0.012603 0.000614 -0.004470 0.000000 0.000000 0.000000
# 2 0.000614 0.016002 -0.003398 0.000000 0.000000 0.000000
# 3 -0.004470 -0.003398 0.016079 0.000000 0.000000 0.000000
# 4 0.000000 0.000000 0.000000 0.025759 0.000000 0.000000
# 5 0.000000 0.000000 0.000000 0.000000 0.049785 0.000000
# 6 0.000000 0.000000 0.000000 0.000000 0.000000 0.028771
#
#
# Mechanical properties :
#
#
# Convention : Reuss Voigt Hill
#
# Bulk Modulus (GPa) = 33.13839 34.22396 33.68118
# Shear Modulus (GPa) = 28.80777 31.03572 29.92175
#
# Velocity S-wave (km/s) = 3.61448 3.75164 3.68370
# Velocity P-wave (km/s) = 5.69628 5.85552 5.77645
#
# Compressibility (1/GPa) = 0.03017648
#
# Stress axis : x y z
#
# Youngs Moduli (GPa) = 79.34807 62.49192 62.19455
#
# Poissons Ratio (x) = -0.03838 0.27799
# Poissons Ratio (y) = -0.04873 0.21133
# Poissons Ratio (z) = 0.35466 0.21234
#
# Static dielectric constant tensor:
#      x y z
#    x 1.852200 0.000000 0.000000 
#    y 0.000000 1.841670 0.000000 
#    z 0.000000 0.000000 1.788110 
# 
# From -- ./inp_files/15226.got.cif
#   From: 2010.05.17/outbox.cif.g08.bks.cpg/sg56_8_cif.got.tgz:15226.got - 2010.06.03 13:42:01.
