data_PCOD9432648
_publ_section_title
;
Structure prediction by ZEFSAII (Michael W. Deem and Ramdas Pophale) SiO2 
 PCOD9432648
Probable space group: P C C N
;
_chemical_formula_sum "Si O2"
_cell_formula_units_Z 48
_cell_length_a 8.756337
_cell_length_b 19.358715
_cell_length_c 15.372345
_cell_angle_alpha 90.000000
_cell_angle_beta 90.000000
_cell_angle_gamma 90.000000
_cell_volume 2605.788221
_symmetry_space_group_name_H-M "P C C N"
_symmetry_group_IT_number 56
_symmetry_cell_setting 'orthorhombic'
loop_
_space_group_symop_operation_xyz
x,y,z
1/2-x,1/2-y,z
1/2+x,-y,1/2-z
-x,1/2+y,1/2-z
-x,-y,-z
1/2+x,1/2+y,-z
1/2-x,y,1/2+z
x,1/2-y,1/2+z
loop_
_atom_site_type_symbol
_atom_site_label
_atom_site_fract_x
_atom_site_fract_y
_atom_site_fract_z
Si Si1 0.066932 0.573121 0.531660
Si Si2 0.433353 0.830627 0.368768
Si Si3 0.068028 0.073716 0.779561
Si Si4 0.933068 0.073121 0.468340
Si Si5 0.431972 0.426284 0.279561
Si Si6 0.066647 0.669373 0.868768
O O1 0.030449 0.630026 0.458572
O O2 0.250000 0.567562 0.538893
O O3 0.000000 0.500000 0.500000
O O4 0.997060 0.590190 0.625189
O O5 0.515942 0.869784 0.290414
O O6 0.472803 0.750000 0.372657
O O7 0.250000 0.836528 0.355782
O O8 0.250000 0.068408 0.782792
O O9 0.015942 0.130216 0.709586
O O10 1.000000 1.000000 0.750000
O O11 0.969551 0.130026 0.541428
O O12 0.002940 0.090190 0.374811
O O13 0.000000 0.000000 0.500000
#
# Coordination Sequence:
#
# PCOD9432648 Si02
#       6
#     8   8   8   8   8   8
#     4  11  22  38  64  94 125 164 208 257 309 370
#     4  10  23  43  65  91 125 164 207 257 315 376
#     4  12  24  39  63  93 126 165 210 261 311 369
#     4  11  22  38  64  94 125 164 208 257 309 370
#     4  12  24  39  63  93 126 165 210 261 311 369
#     4  10  23  43  65  91 125 164 207 257 315 376
#
# _framework density 18.420528999999998
#
# number of rings (size 3 to 8) (size 9 to 14) (size 15 to 20)
#    0.000    1.000    3.333    4.000    0.000    3.333 
#    0.000    3.333    0.000    0.000    0.000    0.000 
#    0.000    0.000    0.000    0.000    0.000    0.000 
#
# Total GULP energy -268499.620030 kJ/mol
# GULP energy per Si atom -5593.742084 kJ/mol
# Density = 1.837860 g / cm^3
# Si number density = 18.420529 Si / 1000 Ang^3
#
#
#
# Elastic Constant Matrix: (Units=GPa)
#
#
# Indices 1 2 3 4 5 6 
#
# 1 104.5485 85.1045 102.0457 0.0000 0.0000 0.0000
# 2 85.1045 166.3628 103.2028 0.0000 0.0000 0.0000
# 3 102.0457 103.2028 212.6666 0.0000 0.0000 0.0000
# 4 0.0000 0.0000 0.0000 32.7641 0.0000 0.0000
# 5 0.0000 0.0000 0.0000 0.0000 37.3386 0.0000
# 6 0.0000 0.0000 0.0000 0.0000 0.0000 28.2540
#
#
#
# Elastic Compliance Matrix: (Units=1/GPa)
#
#
# Indices 1 2 3 4 5 6 
#
# 1 0.022375 -0.006847 -0.007413 0.000000 0.000000 0.000000
# 2 -0.006847 0.010695 -0.001905 0.000000 0.000000 0.000000
# 3 -0.007413 -0.001905 0.009184 0.000000 0.000000 0.000000
# 4 0.000000 0.000000 0.000000 0.030521 0.000000 0.000000
# 5 0.000000 0.000000 0.000000 0.000000 0.026782 0.000000
# 6 0.000000 0.000000 0.000000 0.000000 0.000000 0.035393
#
#
# Mechanical properties :
#
#
# Convention : Reuss Voigt Hill
#
# Bulk Modulus (GPa) = 100.77418 118.25376 109.51397
# Shear Modulus (GPa) = 29.31040 32.55299 30.93170
#
# Velocity S-wave (km/s) = 3.99329 4.20838 4.10225
# Velocity P-wave (km/s) = 8.72285 9.37817 9.05644
#
# Compressibility (1/GPa) = 0.00992318
#
# Stress axis : x y z
#
# Youngs Moduli (GPa) = 44.69372 93.50010 108.88757
#
# Poissons Ratio (x) = 0.64019 0.80723
# Poissons Ratio (y) = 0.30602 0.20740
# Poissons Ratio (z) = 0.33134 0.17809
#
# Static dielectric constant tensor:
#      x y z
#    x 1.621050 0.000000 0.000000 
#    y 0.000000 1.600090 0.000000 
#    z 0.000000 0.000000 1.613480 
# 
# From -- ./inp_files/10632.got.cif
#   From: 2010.05.17/outbox.cif.g08.bks.cpg/sg56_6_cif.got.tgz:10632.got - 2010.06.03 13:42:01.
