data_PCOD9432671
_publ_section_title
;
Structure prediction by ZEFSAII (Michael W. Deem and Ramdas Pophale) SiO2 
 PCOD9432671
Probable space group: P C C N
;
_chemical_formula_sum "Si O2"
_cell_formula_units_Z 64
_cell_length_a 28.557075
_cell_length_b 5.632130
_cell_length_c 18.154197
_cell_angle_alpha 90.000000
_cell_angle_beta 90.000000
_cell_angle_gamma 90.000000
_cell_volume 2919.869466
_symmetry_space_group_name_H-M "P C C N"
_symmetry_group_IT_number 56
_symmetry_cell_setting 'orthorhombic'
loop_
_space_group_symop_operation_xyz
x,y,z
1/2-x,1/2-y,z
1/2+x,-y,1/2-z
-x,1/2+y,1/2-z
-x,-y,-z
1/2+x,1/2+y,-z
1/2-x,y,1/2+z
x,1/2-y,1/2+z
loop_
_atom_site_type_symbol
_atom_site_label
_atom_site_fract_x
_atom_site_fract_y
_atom_site_fract_z
Si Si1 0.493609 0.832535 0.335565
Si Si2 0.167487 0.208258 0.352337
Si Si3 0.928892 0.060101 0.935238
Si Si4 0.196721 0.716862 0.278299
Si Si5 0.044767 0.924773 0.453849
Si Si6 0.926181 0.708970 0.729290
Si Si7 0.863016 0.684629 0.988524
Si Si8 0.627768 0.416914 0.347896
O O1 0.471501 0.593227 0.369896
O O2 0.528692 0.828291 0.266871
O O3 0.527165 0.925617 0.401130
O O4 0.449463 0.991060 0.314383
O O5 0.187979 0.457337 0.318015
O O6 0.113949 0.188445 0.322921
O O7 0.169216 0.224809 0.441062
O O8 0.188240 0.953194 0.327599
O O9 0.915691 0.263321 0.877145
O O10 0.940925 0.168023 0.014469
O O11 0.881168 0.916935 0.947041
O O12 0.250000 0.750000 0.253099
O O13 0.161560 0.716392 0.208727
O O14 0.088604 0.082890 0.476582
O O15 0.000000 0.000000 0.500000
O O16 0.896033 0.624617 0.800395
O O17 0.847566 0.511014 0.922439
#
# Coordination Sequence:
#
# PCOD9432671 Si02
#       8
#     8   8   8   8   8   8   8   8
#     4  12  22  35  55  88 134 186 244 293 324 392
#     4  11  27  46  76 108 144 190 234 290 367 435
#     4  11  21  39  59  89 133 182 238 294 343 402
#     4  11  26  52  83 109 139 178 228 295 371 450
#     4  11  23  35  55  86 128 182 247 291 341 383
#     4  11  24  38  59  97 138 191 241 292 344 401
#     4  11  24  41  66  97 139 192 229 292 355 421
#     4  10  23  43  69 101 133 181 234 292 358 432
#
# _framework density 21.918786000000001
#
# number of rings (size 3 to 8) (size 9 to 14) (size 15 to 20)
#    0.000    1.000    2.500    3.750   12.250    0.000 
#    0.000    0.625    2.750    0.000    0.000    0.000 
#    0.000    0.000    0.000    0.000    0.000    0.000 
#
# Total GULP energy -357156.039218 kJ/mol
# GULP energy per Si atom -5580.563113 kJ/mol
# Density = 2.186890 g / cm^3
# Si number density = 21.918786 Si / 1000 Ang^3
#
#
#
# Elastic Constant Matrix: (Units=GPa)
#
#
# Indices 1 2 3 4 5 6 
#
# 1 54.5265 0.4571 5.1405 0.0000 0.0000 0.0000
# 2 0.4571 56.1032 16.9395 0.0000 0.0000 0.0000
# 3 5.1405 16.9395 104.9152 0.0000 0.0000 0.0000
# 4 0.0000 0.0000 0.0000 37.2716 0.0000 0.0000
# 5 0.0000 0.0000 0.0000 0.0000 16.3451 0.0000
# 6 0.0000 0.0000 0.0000 0.0000 0.0000 24.8090
#
#
#
# Elastic Compliance Matrix: (Units=1/GPa)
#
#
# Indices 1 2 3 4 5 6 
#
# 1 0.018426 0.000129 -0.000924 0.000000 0.000000 0.000000
# 2 0.000129 0.018739 -0.003032 0.000000 0.000000 0.000000
# 3 -0.000924 -0.003032 0.010066 0.000000 0.000000 0.000000
# 4 0.000000 0.000000 0.000000 0.026830 0.000000 0.000000
# 5 0.000000 0.000000 0.000000 0.000000 0.061180 0.000000
# 6 0.000000 0.000000 0.000000 0.000000 0.000000 0.040308
#
#
# Mechanical properties :
#
#
# Convention : Reuss Voigt Hill
#
# Bulk Modulus (GPa) = 25.26702 28.95769 27.11236
# Shear Modulus (GPa) = 25.45895 28.55235 27.00565
#
# Velocity S-wave (km/s) = 3.41179 3.61313 3.51390
# Velocity P-wave (km/s) = 5.20318 5.53591 5.37212
#
# Compressibility (1/GPa) = 0.03957728
#
# Stress axis : x y z
#
# Youngs Moduli (GPa) = 54.27203 53.36561 99.34157
#
# Poissons Ratio (x) = -0.00687 0.09175
# Poissons Ratio (y) = -0.00699 0.30119
# Poissons Ratio (z) = 0.05013 0.16180
#
# Static dielectric constant tensor:
#      x y z
#    x 1.777420 0.000000 0.000000 
#    y 0.000000 1.896000 0.000000 
#    z 0.000000 0.000000 1.899170 
# 
# From -- ./inp_files/17119.got.cif
#   From: 2010.05.17/outbox.cif.g08.bks.cpg/sg56_9_cif.got.tgz:17119.got - 2010.06.03 13:42:01.
