data_PCOD9432909
_publ_section_title
;
Structure prediction by ZEFSAII (Michael W. Deem and Ramdas Pophale) SiO2 
 PCOD9432909
Probable space group: P C C N
;
_chemical_formula_sum "Si O2"
_cell_formula_units_Z 48
_cell_length_a 9.354612
_cell_length_b 9.173708
_cell_length_c 28.079569
_cell_angle_alpha 90.000000
_cell_angle_beta 90.000000
_cell_angle_gamma 90.000000
_cell_volume 2409.689742
_symmetry_space_group_name_H-M "P C C N"
_symmetry_group_IT_number 56
_symmetry_cell_setting 'orthorhombic'
loop_
_space_group_symop_operation_xyz
x,y,z
1/2-x,1/2-y,z
1/2+x,-y,1/2-z
-x,1/2+y,1/2-z
-x,-y,-z
1/2+x,1/2+y,-z
1/2-x,y,1/2+z
x,1/2-y,1/2+z
loop_
_atom_site_type_symbol
_atom_site_label
_atom_site_fract_x
_atom_site_fract_y
_atom_site_fract_z
Si Si1 0.267437 0.087142 0.114451
Si Si2 0.675177 0.906865 0.713716
Si Si3 0.036601 0.578077 0.949639
Si Si4 0.511013 0.581373 0.950798
Si Si5 0.783430 0.922059 0.105821
Si Si6 0.672430 0.094916 0.295180
O O1 0.250000 0.250000 0.135495
O O2 0.422301 0.052598 0.093144
O O3 0.172006 0.092350 0.067054
O O4 0.209125 0.979143 0.154211
O O5 0.750000 0.750000 0.719336
O O6 0.723892 0.961215 0.661408
O O7 0.500358 0.899495 0.713786
O O8 0.744591 0.005241 0.754389
O O9 0.046408 0.753339 0.954800
O O10 0.179114 0.508739 0.928916
O O11 0.000000 0.500000 0.000000
O O12 0.435537 0.477659 0.912309
O O13 0.500000 0.500000 0.000000
O O14 0.750000 0.750000 0.101300
O O15 0.750000 0.250000 0.295480
#
# Coordination Sequence:
#
# PCOD9432909 Si02
#       6
#     8   8   8   8   8   8
#     4  10  24  43  65  95 135 173 223 276 340 404
#     4  11  26  47  69 102 140 178 226 282 345 413
#     4  11  24  40  66 100 133 181 227 280 343 405
#     4  11  22  42  66  94 134 175 224 282 339 407
#     4  11  24  42  66  95 136 175 225 279 336 403
#     4  12  26  44  74 102 134 180 227 281 347 412
#
# _framework density 19.919577
#
# number of rings (size 3 to 8) (size 9 to 14) (size 15 to 20)
#    0.000    1.000    1.667    4.000    7.000    4.000 
#    0.000    0.000    0.000    0.000    0.000    0.000 
#    0.000    0.000    0.000    0.000    0.000    0.000 
#
# Total GULP energy -267962.687527 kJ/mol
# GULP energy per Si atom -5582.555990 kJ/mol
# Density = 1.987424 g / cm^3
# Si number density = 19.919577 Si / 1000 Ang^3
#
#
#
# Elastic Constant Matrix: (Units=GPa)
#
#
# Indices 1 2 3 4 5 6 
#
# 1 89.1467 20.8485 24.9041 0.0000 0.0000 0.0000
# 2 20.8485 90.1527 66.8958 0.0000 0.0000 0.0000
# 3 24.9041 66.8958 134.6588 0.0000 0.0000 0.0000
# 4 0.0000 0.0000 0.0000 5.5178 0.0000 0.0000
# 5 0.0000 0.0000 0.0000 0.0000 11.4484 0.0000
# 6 0.0000 0.0000 0.0000 0.0000 0.0000 29.7702
#
#
#
# Elastic Compliance Matrix: (Units=1/GPa)
#
#
# Indices 1 2 3 4 5 6 
#
# 1 0.012008 -0.001788 -0.001332 0.000000 0.000000 0.000000
# 2 -0.001788 0.017835 -0.008529 0.000000 0.000000 0.000000
# 3 -0.001332 -0.008529 0.011910 0.000000 0.000000 0.000000
# 4 0.000000 0.000000 0.000000 0.181231 0.000000 0.000000
# 5 0.000000 0.000000 0.000000 0.000000 0.087349 0.000000
# 6 0.000000 0.000000 0.000000 0.000000 0.000000 0.033591
#
#
# Mechanical properties :
#
#
# Convention : Reuss Voigt Hill
#
# Bulk Modulus (GPa) = 54.19274 59.91722 57.05498
# Shear Modulus (GPa) = 13.39141 22.76794 18.07968
#
# Velocity S-wave (km/s) = 2.59564 3.38449 3.01596
# Velocity P-wave (km/s) = 6.02063 6.73928 6.39006
#
# Compressibility (1/GPa) = 0.01845266
#
# Stress axis : x y z
#
# Youngs Moduli (GPa) = 83.27855 56.07037 83.96493
#
# Poissons Ratio (x) = 0.10027 0.11188
# Poissons Ratio (y) = 0.14892 0.71615
# Poissons Ratio (z) = 0.11096 0.47824
#
# Static dielectric constant tensor:
#      x y z
#    x 1.732560 0.000000 0.000000 
#    y 0.000000 1.661500 0.000000 
#    z 0.000000 0.000000 1.768860 
# 
# From -- ./inp_files/23187.got.cif
#   From: 2010.05.17/outbox.cif.g08.bks.cpg/sg56_12_cif.got.tgz:23187.got - 2010.06.03 13:42:01.
