data_PCOD9432551
_publ_section_title
;
Structure prediction by ZEFSAII (Michael W. Deem and Ramdas Pophale) SiO2 
 PCOD9432551
Probable space group: P C C N
;
_chemical_formula_sum "Si O2"
_cell_formula_units_Z 64
_cell_length_a 8.750582
_cell_length_b 19.123956
_cell_length_c 17.989210
_cell_angle_alpha 90.000000
_cell_angle_beta 90.000000
_cell_angle_gamma 90.000000
_cell_volume 3010.417752
_symmetry_space_group_name_H-M "P C C N"
_symmetry_group_IT_number 56
_symmetry_cell_setting 'orthorhombic'
loop_
_space_group_symop_operation_xyz
x,y,z
1/2-x,1/2-y,z
1/2+x,-y,1/2-z
-x,1/2+y,1/2-z
-x,-y,-z
1/2+x,1/2+y,-z
1/2-x,y,1/2+z
x,1/2-y,1/2+z
loop_
_atom_site_type_symbol
_atom_site_label
_atom_site_fract_x
_atom_site_fract_y
_atom_site_fract_z
Si Si1 0.950157 0.835842 0.893369
Si Si2 0.932735 0.513291 0.174403
Si Si3 0.419451 0.613897 0.565923
Si Si4 0.660367 0.320383 0.851133
Si Si5 0.003957 0.701839 0.803962
Si Si6 0.293234 0.611147 0.406111
Si Si7 0.083899 0.263297 0.450811
Si Si8 0.266877 0.418675 0.698001
O O1 0.120226 0.863639 0.907646
O O2 0.961876 0.781170 0.824267
O O3 0.900518 0.793242 0.966232
O O4 0.832816 0.898041 0.874378
O O5 0.817718 0.452093 0.150540
O O6 0.855357 0.556043 0.241088
O O7 0.960894 0.563083 0.104204
O O8 0.095274 0.474899 0.191068
O O9 0.279353 0.620809 0.624801
O O10 0.351490 0.590245 0.487510
O O11 0.496743 0.689221 0.551243
O O12 0.750000 0.250000 0.871249
O O13 0.613353 0.311395 0.766174
O O14 0.510718 0.318734 0.902056
O O15 0.857650 0.653729 0.787497
O O16 0.096223 0.672156 0.874966
O O17 0.250000 0.250000 0.417802
#
# Coordination Sequence:
#
# PCOD9432551 Si02
#       8
#     8   8   8   8   8   8   8   8
#     4  12  23  44  71 103 141 176 236 290 359 418
#     4  11  27  47  69  97 146 186 247 277 346 418
#     4  11  24  45  70  99 140 186 232 279 348 426
#     4  10  23  40  63 104 136 179 220 285 358 420
#     4  11  24  40  73 103 138 172 235 289 364 411
#     4  11  23  45  71 101 134 193 226 285 344 422
#     4  11  24  40  68 102 142 174 224 294 354 417
#     4  11  27  45  69 102 137 191 232 294 339 416
#
# _framework density 21.259508
#
# number of rings (size 3 to 8) (size 9 to 14) (size 15 to 20)
#    0.000    1.000    2.500    3.375   12.250    0.000 
#    0.000    0.625    0.000    0.000    0.000    0.000 
#    0.000    0.000    0.000    0.000    0.000    0.000 
#
# Total GULP energy -357543.257702 kJ/mol
# GULP energy per Si atom -5586.613402 kJ/mol
# Density = 2.121112 g / cm^3
# Si number density = 21.259508 Si / 1000 Ang^3
#
#
#
# Elastic Constant Matrix: (Units=GPa)
#
#
# Indices 1 2 3 4 5 6 
#
# 1 87.8563 24.0262 25.1282 0.0000 0.0000 0.0000
# 2 24.0262 41.9874 8.5643 0.0000 0.0000 0.0000
# 3 25.1282 8.5643 68.4817 0.0000 0.0000 0.0000
# 4 0.0000 0.0000 0.0000 22.2022 0.0000 0.0000
# 5 0.0000 0.0000 0.0000 0.0000 16.7819 0.0000
# 6 0.0000 0.0000 0.0000 0.0000 0.0000 13.9001
#
#
#
# Elastic Compliance Matrix: (Units=1/GPa)
#
#
# Indices 1 2 3 4 5 6 
#
# 1 0.014711 -0.007508 -0.004459 0.000000 0.000000 0.000000
# 2 -0.007508 0.028272 -0.000781 0.000000 0.000000 0.000000
# 3 -0.004459 -0.000781 0.016336 0.000000 0.000000 0.000000
# 4 0.000000 0.000000 0.000000 0.045041 0.000000 0.000000
# 5 0.000000 0.000000 0.000000 0.000000 0.059588 0.000000
# 6 0.000000 0.000000 0.000000 0.000000 0.000000 0.071942
#
#
# Mechanical properties :
#
#
# Convention : Reuss Voigt Hill
#
# Bulk Modulus (GPa) = 29.56524 34.86254 32.21389
# Shear Modulus (GPa) = 18.33784 19.95063 19.14424
#
# Velocity S-wave (km/s) = 2.94014 3.06671 3.00409
# Velocity P-wave (km/s) = 5.04608 5.38273 5.21712
#
# Compressibility (1/GPa) = 0.03382351
#
# Stress axis : x y z
#
# Youngs Moduli (GPa) = 67.97691 35.37021 61.21379
#
# Poissons Ratio (x) = 0.26557 0.27295
# Poissons Ratio (y) = 0.51040 0.04779
# Poissons Ratio (z) = 0.30310 0.02761
#
# Static dielectric constant tensor:
#      x y z
#    x 1.784250 0.000000 0.000000 
#    y 0.000000 1.768990 0.000000 
#    z 0.000000 0.000000 1.768030 
# 
# From -- ./inp_files/15243.got.cif
#   From: 2010.05.17/outbox.cif.g08.bks.cpg/sg56_8_cif.got.tgz:15243.got - 2010.06.03 13:42:01.
