data_PCOD9432795
_publ_section_title
;
Structure prediction by ZEFSAII (Michael W. Deem and Ramdas Pophale) SiO2 
 PCOD9432795
Probable space group: P C C N
;
_chemical_formula_sum "Si O2"
_cell_formula_units_Z 28
_cell_length_a 8.026219
_cell_length_b 15.761740
_cell_length_c 9.204599
_cell_angle_alpha 90.000000
_cell_angle_beta 90.000000
_cell_angle_gamma 90.000000
_cell_volume 1164.447835
_symmetry_space_group_name_H-M "P C C N"
_symmetry_group_IT_number 56
_symmetry_cell_setting 'orthorhombic'
loop_
_space_group_symop_operation_xyz
x,y,z
1/2-x,1/2-y,z
1/2+x,-y,1/2-z
-x,1/2+y,1/2-z
-x,-y,-z
1/2+x,1/2+y,-z
1/2-x,y,1/2+z
x,1/2-y,1/2+z
loop_
_atom_site_type_symbol
_atom_site_label
_atom_site_fract_x
_atom_site_fract_y
_atom_site_fract_z
Si Si1 0.270641 0.098109 0.276159
Si Si2 0.869488 0.420975 0.277243
Si Si3 0.750000 0.250000 0.910837
Si Si4 0.037464 0.157972 0.527442
O O1 0.449256 0.081726 0.353413
O O2 0.127763 0.130020 0.381533
O O3 0.220673 0.009263 0.202985
O O4 0.322039 0.163762 0.150832
O O5 0.769680 0.336876 0.321143
O O6 0.916084 0.411044 0.105431
O O7 0.581242 0.237670 0.001796
#
# Coordination Sequence:
#
# PCOD9432795 Si02
#       4
#     8   8   4   8
#     4  10  23  47  75 104 142 193 255 287 360 435
#     4  10  24  43  74 105 142 193 239 307 352 440
#     4  12  24  48  68 108 154 186 240 308 380 414
#     4  10  25  48  71 107 144 191 242 306 359 440
#
# _framework density 24.045732000000001
#
# number of rings (size 3 to 8) (size 9 to 14) (size 15 to 20)
#    1.714    0.000    0.000    3.429    4.000    2.286 
#   15.429    0.000    0.000    1.714    0.000    0.000 
#    0.000    0.000    0.000    0.000    0.000    0.000 
#
# Total GULP energy -156246.217626 kJ/mol
# GULP energy per Si atom -5580.222058 kJ/mol
# Density = 2.399100 g / cm^3
# Si number density = 24.045732 Si / 1000 Ang^3
#
#
#
# Elastic Constant Matrix: (Units=GPa)
#
#
# Indices 1 2 3 4 5 6 
#
# 1 118.3765 75.2439 47.8165 0.0000 0.0000 0.0000
# 2 75.2439 102.6409 40.6278 0.0000 0.0000 0.0000
# 3 47.8165 40.6278 91.0667 0.0000 0.0000 0.0000
# 4 0.0000 0.0000 0.0000 -19.7457 0.0000 0.0000
# 5 0.0000 0.0000 0.0000 0.0000 15.6649 0.0000
# 6 0.0000 0.0000 0.0000 0.0000 0.0000 48.4777
#
#
#
# Elastic Compliance Matrix: (Units=1/GPa)
#
#
# Indices 1 2 3 4 5 6 
#
# 1 0.016984 -0.010834 -0.004084 0.000000 0.000000 0.000000
# 2 -0.010834 0.018743 -0.002673 0.000000 0.000000 0.000000
# 3 -0.004084 -0.002673 0.014318 0.000000 0.000000 0.000000
# 4 0.000000 0.000000 0.000000 -0.050644 0.000000 0.000000
# 5 0.000000 0.000000 0.000000 0.000000 0.063837 0.000000
# 6 0.000000 0.000000 0.000000 0.000000 0.000000 0.020628
#
#
# Mechanical properties :
#
#
# Convention : Reuss Voigt Hill
#
# Bulk Modulus (GPa) = 67.28602 71.05117 69.16859
# Shear Modulus (GPa) = 40.32178 18.77244 29.54711
#
# Velocity S-wave (km/s) = 4.09941 2.79713 3.50921
# Velocity P-wave (km/s) = 7.10283 6.32806 6.72661
#
# Compressibility (1/GPa) = 0.01486193
#
# Stress axis : x y z
#
# Youngs Moduli (GPa) = 58.88001 53.35376 69.84116
#
# Poissons Ratio (x) = 0.57802 0.28526
# Poissons Ratio (y) = 0.63789 0.18671
# Poissons Ratio (z) = 0.24049 0.14263
#
# Static dielectric constant tensor:
#      x y z
#    x 1.963800 0.000000 0.000000 
#    y 0.000000 1.927210 0.000000 
#    z 0.000000 0.000000 1.986000 
# 
# From -- ./inp_files/1861.got.cif
#   From: 2010.05.17/outbox.cif.g08.bks.cpg/sg56_1_cif.got.tgz:1861.got - 2010.06.03 13:42:01.
