data_PCOD9432268
_publ_section_title
;
Structure prediction by ZEFSAII (Michael W. Deem and Ramdas Pophale) SiO2 
 PCOD9432268
Probable space group: P C C N
;
_chemical_formula_sum "Si O2"
_cell_formula_units_Z 40
_cell_length_a 19.619755
_cell_length_b 9.256009
_cell_length_c 8.167253
_cell_angle_alpha 90.000000
_cell_angle_beta 90.000000
_cell_angle_gamma 90.000000
_cell_volume 1483.178281
_symmetry_space_group_name_H-M "P C C N"
_symmetry_group_IT_number 56
_symmetry_cell_setting 'orthorhombic'
loop_
_space_group_symop_operation_xyz
x,y,z
1/2-x,1/2-y,z
1/2+x,-y,1/2-z
-x,1/2+y,1/2-z
-x,-y,-z
1/2+x,1/2+y,-z
1/2-x,y,1/2+z
x,1/2-y,1/2+z
loop_
_atom_site_type_symbol
_atom_site_label
_atom_site_fract_x
_atom_site_fract_y
_atom_site_fract_z
Si Si1 0.749876 0.916786 0.809801
Si Si2 0.802543 0.375095 0.032652
Si Si3 0.061913 0.678280 0.780733
Si Si4 0.531967 0.841214 0.071705
Si Si5 0.103371 0.078807 0.108718
O O1 0.750000 0.750000 0.754834
O O2 0.816797 0.915801 0.927607
O O3 0.767943 0.035361 0.676907
O O4 0.686676 0.995123 0.900503
O O5 0.750000 0.250000 0.975189
O O6 0.869897 0.308209 0.113528
O O7 0.028621 0.818669 0.703567
O O8 0.076239 0.582967 0.618655
O O9 0.005452 0.607552 0.902897
O O10 0.592599 0.889190 0.194983
O O11 0.563460 0.689137 0.003963
#
# Coordination Sequence:
#
# PCOD9432268 Si02
#       5
#     8   8   8   8   8
#     4  11  26  45  71 101 138 182 233 283 346 409
#     4  11  26  45  71 101 138 182 233 283 346 409
#     4  10  23  41  66  97 132 175 226 279 344 406
#     4  10  22  42  66  94 136 166 232 274 354 396
#     4  10  23  41  66  97 132 175 226 279 344 406
#
# _framework density 26.969111000000002
#
# number of rings (size 3 to 8) (size 9 to 14) (size 15 to 20)
#    0.000    1.600    0.000    2.400   16.800    0.000 
#    0.000    0.000    0.000    0.000    0.000    0.000 
#    0.000    0.000    0.000    0.000    0.000    0.000 
#
# Total GULP energy -223159.018574 kJ/mol
# GULP energy per Si atom -5578.975464 kJ/mol
# Density = 2.690773 g / cm^3
# Si number density = 26.969111 Si / 1000 Ang^3
#
#
#
# Elastic Constant Matrix: (Units=GPa)
#
#
# Indices 1 2 3 4 5 6 
#
# 1 106.3283 24.2344 20.7179 0.0000 0.0000 0.0000
# 2 24.2344 60.6740 29.3784 0.0000 0.0000 0.0000
# 3 20.7179 29.3784 85.4410 0.0000 0.0000 0.0000
# 4 0.0000 0.0000 0.0000 60.2159 0.0000 0.0000
# 5 0.0000 0.0000 0.0000 0.0000 39.8725 0.0000
# 6 0.0000 0.0000 0.0000 0.0000 0.0000 42.7330
#
#
#
# Elastic Compliance Matrix: (Units=1/GPa)
#
#
# Indices 1 2 3 4 5 6 
#
# 1 0.010470 -0.003542 -0.001321 0.000000 0.000000 0.000000
# 2 -0.003542 0.020972 -0.006352 0.000000 0.000000 0.000000
# 3 -0.001321 -0.006352 0.014208 0.000000 0.000000 0.000000
# 4 0.000000 0.000000 0.000000 0.016607 0.000000 0.000000
# 5 0.000000 0.000000 0.000000 0.000000 0.025080 0.000000
# 6 0.000000 0.000000 0.000000 0.000000 0.000000 0.023401
#
#
# Mechanical properties :
#
#
# Convention : Reuss Voigt Hill
#
# Bulk Modulus (GPa) = 43.06682 44.56719 43.81701
# Shear Modulus (GPa) = 35.48408 40.43844 37.96126
#
# Velocity S-wave (km/s) = 3.63123 3.87646 3.75585
# Velocity P-wave (km/s) = 5.79524 6.04955 5.92376
#
# Compressibility (1/GPa) = 0.02321973
#
# Stress axis : x y z
#
# Youngs Moduli (GPa) = 95.51535 47.68234 70.38089
#
# Poissons Ratio (x) = 0.16890 0.09295
# Poissons Ratio (y) = 0.33834 0.44707
# Poissons Ratio (z) = 0.12615 0.30289
#
# Static dielectric constant tensor:
#      x y z
#    x 2.192420 0.000000 0.000000 
#    y 0.000000 2.337740 0.000000 
#    z 0.000000 0.000000 2.087940 
# 
# From -- ./inp_files/4687.got.cif
#   From: 2010.05.17/outbox.cif.g08.bks.cpg/sg56_3_cif.got.tgz:4687.got - 2010.06.03 13:42:01.
