data_PCOD9432063
_publ_section_title
;
Structure prediction by ZEFSAII (Michael W. Deem and Ramdas Pophale) SiO2 
 PCOD9432063
Probable space group: P C C N
;
_chemical_formula_sum "Si O2"
_cell_formula_units_Z 40
_cell_length_a 24.761547
_cell_length_b 6.521311
_cell_length_c 10.789522
_cell_angle_alpha 90.000000
_cell_angle_beta 90.000000
_cell_angle_gamma 90.000000
_cell_volume 1742.267723
_symmetry_space_group_name_H-M "P C C N"
_symmetry_group_IT_number 56
_symmetry_cell_setting 'orthorhombic'
loop_
_space_group_symop_operation_xyz
x,y,z
1/2-x,1/2-y,z
1/2+x,-y,1/2-z
-x,1/2+y,1/2-z
-x,-y,-z
1/2+x,1/2+y,-z
1/2-x,y,1/2+z
x,1/2-y,1/2+z
loop_
_atom_site_type_symbol
_atom_site_label
_atom_site_fract_x
_atom_site_fract_y
_atom_site_fract_z
Si Si1 0.139518 0.360017 0.628052
Si Si2 0.631636 0.249487 0.707071
Si Si3 0.193855 0.371066 0.360825
Si Si4 0.551861 0.880956 0.759402
Si Si5 0.954087 0.514475 0.102629
O O1 0.141366 0.590798 0.681823
O O2 0.164309 0.339755 0.492820
O O3 0.170124 0.232850 0.736061
O O4 0.079783 0.261465 0.636149
O O5 0.600705 0.382373 0.599931
O O6 0.683529 0.115607 0.665111
O O7 0.587380 0.083093 0.748592
O O8 0.250000 0.250000 0.375806
O O9 0.489782 0.930530 0.781605
O O10 0.558155 0.746858 0.636749
O O11 0.000000 0.500000 0.000000
#
# Coordination Sequence:
#
# PCOD9432063 Si02
#       5
#     8   8   8   8   8
#     4  10  25  44  72 103 141 182 235 298 357 431
#     4  10  24  42  63 102 141 183 233 291 349 426
#     4  11  25  48  75 102 137 182 239 302 365 426
#     4  10  22  40  58  97 140 178 233 279 345 417
#     4  11  23  36  64  95 139 188 227 276 345 422
#
# _framework density 22.958583999999998
#
# number of rings (size 3 to 8) (size 9 to 14) (size 15 to 20)
#    0.000    1.600    2.000    0.600   11.200    3.200 
#    0.000    2.000    0.000    0.000    0.000    0.000 
#    0.000    0.000    0.000    0.000    0.000    0.000 
#
# Total GULP energy -223068.294043 kJ/mol
# GULP energy per Si atom -5576.707351 kJ/mol
# Density = 2.290633 g / cm^3
# Si number density = 22.958584 Si / 1000 Ang^3
#
#
#
# Elastic Constant Matrix: (Units=GPa)
#
#
# Indices 1 2 3 4 5 6 
#
# 1 88.1667 32.5288 18.7140 0.0000 0.0000 0.0000
# 2 32.5288 125.4711 32.2429 0.0000 0.0000 0.0000
# 3 18.7140 32.2429 108.3078 0.0000 0.0000 0.0000
# 4 0.0000 0.0000 0.0000 15.2315 0.0000 0.0000
# 5 0.0000 0.0000 0.0000 0.0000 42.1591 0.0000
# 6 0.0000 0.0000 0.0000 0.0000 0.0000 39.7279
#
#
#
# Elastic Compliance Matrix: (Units=1/GPa)
#
#
# Indices 1 2 3 4 5 6 
#
# 1 0.012713 -0.002958 -0.001316 0.000000 0.000000 0.000000
# 2 -0.002958 0.009318 -0.002263 0.000000 0.000000 0.000000
# 3 -0.001316 -0.002263 0.010134 0.000000 0.000000 0.000000
# 4 0.000000 0.000000 0.000000 0.065654 0.000000 0.000000
# 5 0.000000 0.000000 0.000000 0.000000 0.023720 0.000000
# 6 0.000000 0.000000 0.000000 0.000000 0.000000 0.025171
#
#
# Mechanical properties :
#
#
# Convention : Reuss Voigt Hill
#
# Bulk Modulus (GPa) = 52.37903 54.32411 53.35157
# Shear Modulus (GPa) = 30.09388 35.32101 32.70744
#
# Velocity S-wave (km/s) = 3.62441 3.92658 3.77852
# Velocity P-wave (km/s) = 6.35447 6.65361 6.50576
#
# Compressibility (1/GPa) = 0.01909161
#
# Stress axis : x y z
#
# Youngs Moduli (GPa) = 78.66154 107.31613 98.67738
#
# Poissons Ratio (x) = 0.31740 0.12987
# Poissons Ratio (y) = 0.23265 0.22331
# Poissons Ratio (z) = 0.10353 0.24286
#
# Static dielectric constant tensor:
#      x y z
#    x 1.920170 0.000000 0.000000 
#    y 0.000000 1.916880 0.000000 
#    z 0.000000 0.000000 1.966230 
# 
# From -- ./inp_files/5615.got.cif
#   From: 2010.05.17/outbox.cif.g08.bks.cpg/sg56_3_cif.got.tgz:5615.got - 2010.06.03 13:42:01.
