data_PCOD9432624
_publ_section_title
;
Structure prediction by ZEFSAII (Michael W. Deem and Ramdas Pophale) SiO2 
 PCOD9432624
Probable space group: P C C N
;
_chemical_formula_sum "Si O2"
_cell_formula_units_Z 36
_cell_length_a 7.553464
_cell_length_b 9.704707
_cell_length_c 23.177708
_cell_angle_alpha 90.000000
_cell_angle_beta 90.000000
_cell_angle_gamma 90.000000
_cell_volume 1699.022299
_symmetry_space_group_name_H-M "P C C N"
_symmetry_group_IT_number 56
_symmetry_cell_setting 'orthorhombic'
loop_
_space_group_symop_operation_xyz
x,y,z
1/2-x,1/2-y,z
1/2+x,-y,1/2-z
-x,1/2+y,1/2-z
-x,-y,-z
1/2+x,1/2+y,-z
1/2-x,y,1/2+z
x,1/2-y,1/2+z
loop_
_atom_site_type_symbol
_atom_site_label
_atom_site_fract_x
_atom_site_fract_y
_atom_site_fract_z
Si Si1 0.250000 0.750000 0.431111
Si Si2 0.606623 0.869904 0.740874
Si Si3 0.357806 0.533156 0.336972
Si Si4 0.545429 0.249763 0.370190
Si Si5 0.568127 0.838981 0.509079
O O1 0.275543 0.621451 0.388099
O O2 0.419414 0.759882 0.472219
O O3 0.750000 0.750000 0.746828
O O4 0.511741 0.892596 0.800971
O O5 0.471313 0.825126 0.691045
O O6 0.711514 0.996305 0.711653
O O7 0.449760 0.395944 0.361667
O O8 0.750000 0.250000 0.386725
O O9 0.446145 0.175626 0.422091
O O10 0.750000 0.750000 0.494171
O O11 0.500000 0.000000 0.500000
#
# Coordination Sequence:
#
# PCOD9432624 Si02
#       5
#     4   8   8   8   8
#     4  12  28  44  70 110 146 188 250 306 370 452
#     4  10  23  42  67 101 136 188 234 296 361 440
#     4  11  25  43  69 103 145 183 247 298 375 444
#     4  11  23  44  73 100 139 188 237 297 369 444
#     4  12  27  49  75 106 148 195 251 309 377 453
#
# _framework density 21.188655000000001
#
# number of rings (size 3 to 8) (size 9 to 14) (size 15 to 20)
#    0.000    0.889    1.111    6.000   10.889    2.667 
#    0.000    0.000    0.000    0.000    0.000    0.000 
#    0.000    0.000    0.000    0.000    0.000    0.000 
#
# Total GULP energy -200815.194344 kJ/mol
# GULP energy per Si atom -5578.199843 kJ/mol
# Density = 2.114043 g / cm^3
# Si number density = 21.188655 Si / 1000 Ang^3
#
#
#
# Elastic Constant Matrix: (Units=GPa)
#
#
# Indices 1 2 3 4 5 6 
#
# 1 127.2193 32.0866 19.5245 0.0000 0.0000 0.0000
# 2 32.0866 72.3594 39.4034 0.0000 0.0000 0.0000
# 3 19.5245 39.4034 91.3688 0.0000 0.0000 0.0000
# 4 0.0000 0.0000 0.0000 97.0326 0.0000 0.0000
# 5 0.0000 0.0000 0.0000 0.0000 29.2293 0.0000
# 6 0.0000 0.0000 0.0000 0.0000 0.0000 17.8519
#
#
#
# Elastic Compliance Matrix: (Units=1/GPa)
#
#
# Indices 1 2 3 4 5 6 
#
# 1 0.008855 -0.003785 -0.000260 0.000000 0.000000 0.000000
# 2 -0.003785 0.019679 -0.007678 0.000000 0.000000 0.000000
# 3 -0.000260 -0.007678 0.014311 0.000000 0.000000 0.000000
# 4 0.000000 0.000000 0.000000 0.010306 0.000000 0.000000
# 5 0.000000 0.000000 0.000000 0.000000 0.034212 0.000000
# 6 0.000000 0.000000 0.000000 0.000000 0.000000 0.056017
#
#
# Mechanical properties :
#
#
# Convention : Reuss Voigt Hill
#
# Bulk Modulus (GPa) = 51.54697 52.55298 52.04998
# Shear Modulus (GPa) = 28.85286 42.15162 35.50224
#
# Velocity S-wave (km/s) = 3.69414 4.46505 4.09777
# Velocity P-wave (km/s) = 6.52503 7.17206 6.85618
#
# Compressibility (1/GPa) = 0.01939978
#
# Stress axis : x y z
#
# Youngs Moduli (GPa) = 112.93078 50.81444 69.87437
#
# Poissons Ratio (x) = 0.19234 0.01816
# Poissons Ratio (y) = 0.42745 0.53650
# Poissons Ratio (z) = 0.02935 0.39016
#
# Static dielectric constant tensor:
#      x y z
#    x 1.473300 0.000000 0.000000 
#    y 0.000000 1.872960 0.000000 
#    z 0.000000 0.000000 1.715610 
# 
# From -- ./inp_files/17894.got.cif
#   From: 2010.05.17/outbox.cif.g08.bks.cpg/sg56_9_cif.got.tgz:17894.got - 2010.06.03 13:42:01.
