data_PCOD9432447
_publ_section_title
;
Structure prediction by ZEFSAII (Michael W. Deem and Ramdas Pophale) SiO2 
 PCOD9432447
Probable space group: P C C N
;
_chemical_formula_sum "Si O2"
_cell_formula_units_Z 48
_cell_length_a 7.915393
_cell_length_b 26.806105
_cell_length_c 10.895716
_cell_angle_alpha 90.000000
_cell_angle_beta 90.000000
_cell_angle_gamma 90.000000
_cell_volume 2311.862346
_symmetry_space_group_name_H-M "P C C N"
_symmetry_group_IT_number 56
_symmetry_cell_setting 'orthorhombic'
loop_
_space_group_symop_operation_xyz
x,y,z
1/2-x,1/2-y,z
1/2+x,-y,1/2-z
-x,1/2+y,1/2-z
-x,-y,-z
1/2+x,1/2+y,-z
1/2-x,y,1/2+z
x,1/2-y,1/2+z
loop_
_atom_site_type_symbol
_atom_site_label
_atom_site_fract_x
_atom_site_fract_y
_atom_site_fract_z
Si Si1 0.046052 0.529864 0.124014
Si Si2 0.327920 0.304721 0.330694
Si Si3 0.447211 0.526597 0.126275
Si Si4 0.290853 0.692510 0.651184
Si Si5 0.507761 0.870830 0.005266
Si Si6 0.475026 0.127704 0.264767
O O1 0.247273 0.534333 0.126020
O O2 0.990044 0.505494 0.252041
O O3 0.974202 0.585442 0.104421
O O4 0.000000 0.500000 0.000000
O O5 0.250000 0.250000 0.333658
O O6 0.352298 0.328836 0.466624
O O7 0.977124 0.193296 0.283358
O O8 0.194138 0.340117 0.266541
O O9 0.528312 0.581383 0.142614
O O10 0.500000 0.500000 0.000000
O O11 0.250000 0.750000 0.625139
O O12 0.335370 0.659513 0.531362
O O13 0.134610 0.664345 0.713032
O O14 0.508079 0.893608 0.871925
#
# Coordination Sequence:
#
# PCOD9432447 Si02
#       6
#     8   8   8   8   8   8
#     4  12  25  47  68 102 143 179 238 290 353 428
#     4  10  23  45  67 101 139 176 233 283 347 418
#     4  12  28  42  73 104 137 191 234 295 360 421
#     4  10  22  45  66 101 139 176 230 285 347 420
#     4  10  25  43  69 101 133 185 228 284 348 424
#     4  12  23  47  69  98 143 182 228 286 354 415
#
# _framework density 20.762481999999999
#
# number of rings (size 3 to 8) (size 9 to 14) (size 15 to 20)
#    1.000    0.000    5.000    1.000    4.667    1.333 
#    3.000    0.000    0.000    0.000    0.000    0.000 
#    0.000    0.000    0.000    0.000    0.000    0.000 
#
# Total GULP energy -267549.200347 kJ/mol
# GULP energy per Si atom -5573.941674 kJ/mol
# Density = 2.071523 g / cm^3
# Si number density = 20.762482 Si / 1000 Ang^3
#
#
#
# Elastic Constant Matrix: (Units=GPa)
#
#
# Indices 1 2 3 4 5 6 
#
# 1 95.8975 23.5507 8.6663 0.0000 0.0000 0.0000
# 2 23.5507 149.6916 38.5677 0.0000 0.0000 0.0000
# 3 8.6663 38.5677 87.3157 0.0000 0.0000 0.0000
# 4 0.0000 0.0000 0.0000 18.9908 0.0000 0.0000
# 5 0.0000 0.0000 0.0000 0.0000 20.3508 0.0000
# 6 0.0000 0.0000 0.0000 0.0000 0.0000 23.3490
#
#
#
# Elastic Compliance Matrix: (Units=1/GPa)
#
#
# Indices 1 2 3 4 5 6 
#
# 1 0.010857 -0.001614 -0.000365 0.000000 0.000000 0.000000
# 2 -0.001614 0.007778 -0.003275 0.000000 0.000000 0.000000
# 3 -0.000365 -0.003275 0.012936 0.000000 0.000000 0.000000
# 4 0.000000 0.000000 0.000000 0.052657 0.000000 0.000000
# 5 0.000000 0.000000 0.000000 0.000000 0.049138 0.000000
# 6 0.000000 0.000000 0.000000 0.000000 0.000000 0.042828
#
#
# Mechanical properties :
#
#
# Convention : Reuss Voigt Hill
#
# Bulk Modulus (GPa) = 47.47762 52.71935 50.09848
# Shear Modulus (GPa) = 25.80989 30.01279 27.91134
#
# Velocity S-wave (km/s) = 3.52959 3.80614 3.67047
# Velocity P-wave (km/s) = 6.28708 6.69047 6.49191
#
# Compressibility (1/GPa) = 0.02106256
#
# Stress axis : x y z
#
# Youngs Moduli (GPa) = 92.10503 128.56305 77.30558
#
# Poissons Ratio (x) = 0.20753 0.02819
# Poissons Ratio (y) = 0.14868 0.25321
# Poissons Ratio (z) = 0.03358 0.42111
#
# Static dielectric constant tensor:
#      x y z
#    x 1.759670 0.000000 0.000000 
#    y 0.000000 1.771970 0.000000 
#    z 0.000000 0.000000 1.775260 
# 
# From -- ./inp_files/6430.got.cif
#   From: 2010.05.17/outbox.cif.g08.bks.cpg/sg56_4_cif.got.tgz:6430.got - 2010.06.03 13:42:01.
