data_PCOD9432490
_publ_section_title
;
Structure prediction by ZEFSAII (Michael W. Deem and Ramdas Pophale) SiO2 
 PCOD9432490
Probable space group: P C C N
;
_chemical_formula_sum "Si O2"
_cell_formula_units_Z 40
_cell_length_a 18.342831
_cell_length_b 10.249178
_cell_length_c 9.194309
_cell_angle_alpha 90.000000
_cell_angle_beta 90.000000
_cell_angle_gamma 90.000000
_cell_volume 1728.520346
_symmetry_space_group_name_H-M "P C C N"
_symmetry_group_IT_number 56
_symmetry_cell_setting 'orthorhombic'
loop_
_space_group_symop_operation_xyz
x,y,z
1/2-x,1/2-y,z
1/2+x,-y,1/2-z
-x,1/2+y,1/2-z
-x,-y,-z
1/2+x,1/2+y,-z
1/2-x,y,1/2+z
x,1/2-y,1/2+z
loop_
_atom_site_type_symbol
_atom_site_label
_atom_site_fract_x
_atom_site_fract_y
_atom_site_fract_z
Si Si1 0.250000 0.250000 0.178540
Si Si2 0.126396 0.434736 0.774728
Si Si3 0.329920 0.995694 0.075129
Si Si4 0.898752 0.137603 0.972069
Si Si5 0.539021 0.374987 0.284333
Si Si6 0.250000 0.750000 0.550075
O O1 0.316946 0.316422 0.263118
O O2 0.212659 0.370105 0.094797
O O3 0.117538 0.508903 0.621693
O O4 0.045368 0.392585 0.819583
O O5 0.156450 0.525427 0.903868
O O6 0.408060 0.988108 0.153357
O O7 0.282185 0.875119 0.134322
O O8 0.932391 0.242889 0.860316
O O9 0.949707 0.124414 0.111229
O O10 0.820720 0.190960 0.027361
#
# Coordination Sequence:
#
# PCOD9432490 Si02
#       6
#     4   8   8   8   8   4
#     4  12  28  46  76 112 154 196 250 314 390 444
#     4  12  27  47  73 108 152 196 252 310 384 450
#     4  11  26  47  76 108 149 199 251 314 374 454
#     4  11  24  45  72 109 142 200 246 318 361 459
#     4  11  27  45  77 104 150 193 257 307 381 440
#     4  10  22  46  74 104 144 182 260 296 372 430
#
# _framework density 23.141179999999999
#
# number of rings (size 3 to 8) (size 9 to 14) (size 15 to 20)
#    0.000    0.800    2.000    4.200    8.400    5.600 
#    0.000    0.000    0.000    0.000    0.000    0.000 
#    0.000    0.000    0.000    0.000    0.000    0.000 
#
# Total GULP energy -223598.958074 kJ/mol
# GULP energy per Si atom -5589.973952 kJ/mol
# Density = 2.308851 g / cm^3
# Si number density = 23.141180 Si / 1000 Ang^3
#
#
#
# Elastic Constant Matrix: (Units=GPa)
#
#
# Indices 1 2 3 4 5 6 
#
# 1 175.0689 61.9378 24.9082 0.0000 0.0000 0.0000
# 2 61.9378 110.1633 42.6063 0.0000 0.0000 0.0000
# 3 24.9082 42.6063 110.3082 0.0000 0.0000 0.0000
# 4 0.0000 0.0000 0.0000 33.0893 0.0000 0.0000
# 5 0.0000 0.0000 0.0000 0.0000 -6.1434 0.0000
# 6 0.0000 0.0000 0.0000 0.0000 0.0000 27.9723
#
#
#
# Elastic Compliance Matrix: (Units=1/GPa)
#
#
# Indices 1 2 3 4 5 6 
#
# 1 0.007131 -0.003981 -0.000072 0.000000 0.000000 0.000000
# 2 -0.003981 0.012894 -0.004081 0.000000 0.000000 0.000000
# 3 -0.000072 -0.004081 0.010658 0.000000 0.000000 0.000000
# 4 0.000000 0.000000 0.000000 0.030221 0.000000 0.000000
# 5 0.000000 0.000000 0.000000 0.000000 -0.162775 0.000000
# 6 0.000000 0.000000 0.000000 0.000000 0.000000 0.035750
#
#
# Mechanical properties :
#
#
# Convention : Reuss Voigt Hill
#
# Bulk Modulus (GPa) = 69.38026 72.71611 71.04819
# Shear Modulus (GPa) = -110.99698 28.72282 -41.13708
#
# Velocity S-wave (km/s) = -6.93320 3.52689 -4.22080
# Velocity P-wave (km/s) = 5.83489 6.93371 2.64862
#
# Compressibility (1/GPa) = 0.01441332
#
# Stress axis : x y z
#
# Youngs Moduli (GPa) = 140.23556 77.55350 93.82341
#
# Poissons Ratio (x) = 0.30876 0.00680
# Poissons Ratio (y) = 0.55831 0.38293
# Poissons Ratio (z) = 0.01016 0.31653
#
# Static dielectric constant tensor:
#      x y z
#    x 1.872340 0.000000 0.000000 
#    y 0.000000 1.865420 0.000000 
#    z 0.000000 0.000000 1.839980 
# 
# From -- ./inp_files/2601.got.cif
#   From: 2010.05.17/outbox.cif.g08.bks.cpg/sg56_2_cif.got.tgz:2601.got - 2010.06.03 13:42:01.
