data_PCOD9432610
_publ_section_title
;
Structure prediction by ZEFSAII (Michael W. Deem and Ramdas Pophale) SiO2 
 PCOD9432610
Probable space group: P C C N
;
_chemical_formula_sum "Si O2"
_cell_formula_units_Z 56
_cell_length_a 5.701393
_cell_length_b 12.413919
_cell_length_c 32.205061
_cell_angle_alpha 90.000000
_cell_angle_beta 90.000000
_cell_angle_gamma 90.000000
_cell_volume 2279.365715
_symmetry_space_group_name_H-M "P C C N"
_symmetry_group_IT_number 56
_symmetry_cell_setting 'orthorhombic'
loop_
_space_group_symop_operation_xyz
x,y,z
1/2-x,1/2-y,z
1/2+x,-y,1/2-z
-x,1/2+y,1/2-z
-x,-y,-z
1/2+x,1/2+y,-z
1/2-x,y,1/2+z
x,1/2-y,1/2+z
loop_
_atom_site_type_symbol
_atom_site_label
_atom_site_fract_x
_atom_site_fract_y
_atom_site_fract_z
Si Si1 0.912412 0.484602 0.619164
Si Si2 0.350202 0.073816 0.226076
Si Si3 0.926833 0.848995 0.584605
Si Si4 0.448482 0.375121 0.040437
Si Si5 0.547006 0.364199 0.508329
Si Si6 0.657374 0.402985 0.205569
Si Si7 0.769737 0.132781 0.333519
O O1 0.713388 0.541376 0.592447
O O2 0.069676 0.415974 0.587685
O O3 0.822739 0.410078 0.656191
O O4 0.046365 0.580692 0.643204
O O5 0.590898 0.139138 0.220760
O O6 0.106269 0.133137 0.216710
O O7 0.344783 0.021537 0.271809
O O8 0.354883 0.966827 0.195584
O O9 0.750000 0.750000 0.579854
O O10 0.066501 0.850711 0.541448
O O11 0.065649 0.839047 0.627438
O O12 0.706008 0.408662 0.024112
O O13 0.491864 0.248550 0.031962
O O14 0.208987 0.414090 0.018445
O O15 0.750000 0.250000 0.311540
#
# Coordination Sequence:
#
# PCOD9432610 Si02
#       7
#     8   8   8   8   8   8   8
#     4  11  24  37  62  95 117 164 212 257 304 373
#     4   9  18  35  57  82 118 155 188 231 303 363
#     4  12  23  39  59  86 127 167 203 257 320 365
#     4  10  23  42  63  85 118 157 214 255 312 371
#     4  10  24  44  60  83 118 168 198 264 324 354
#     4   9  18  35  57  86 116 148 192 245 294 351
#     4  11  23  36  58  90 129 165 198 257 312 373
#
# _framework density 24.568239999999999
#
# number of rings (size 3 to 8) (size 9 to 14) (size 15 to 20)
#    0.000    1.714    4.286    0.000    6.000    1.143 
#    0.000    0.000    3.143    0.000   14.857    0.000 
#    0.000    0.000    0.000    0.000    0.000    0.000 
#
# Total GULP energy -312202.210865 kJ/mol
# GULP energy per Si atom -5575.039480 kJ/mol
# Density = 2.451232 g / cm^3
# Si number density = 24.568240 Si / 1000 Ang^3
#
#
#
# Elastic Constant Matrix: (Units=GPa)
#
#
# Indices 1 2 3 4 5 6 
#
# 1 189.9909 15.8572 29.2947 0.0000 0.0000 0.0000
# 2 15.8572 68.0191 22.4422 0.0000 0.0000 0.0000
# 3 29.2947 22.4422 125.4207 0.0000 0.0000 0.0000
# 4 0.0000 0.0000 0.0000 53.0608 0.0000 0.0000
# 5 0.0000 0.0000 0.0000 0.0000 24.8226 0.0000
# 6 0.0000 0.0000 0.0000 0.0000 0.0000 10.4736
#
#
#
# Elastic Compliance Matrix: (Units=1/GPa)
#
#
# Indices 1 2 3 4 5 6 
#
# 1 0.005513 -0.000914 -0.001124 0.000000 0.000000 0.000000
# 2 -0.000914 0.015776 -0.002609 0.000000 0.000000 0.000000
# 3 -0.001124 -0.002609 0.008703 0.000000 0.000000 0.000000
# 4 0.000000 0.000000 0.000000 0.018846 0.000000 0.000000
# 5 0.000000 0.000000 0.000000 0.000000 0.040286 0.000000
# 6 0.000000 0.000000 0.000000 0.000000 0.000000 0.095478
#
#
# Mechanical properties :
#
#
# Convention : Reuss Voigt Hill
#
# Bulk Modulus (GPa) = 48.31849 57.62433 52.97141
# Shear Modulus (GPa) = 24.90095 38.72718 31.81406
#
# Velocity S-wave (km/s) = 3.18707 3.97458 3.60241
# Velocity P-wave (km/s) = 5.76654 6.67599 6.23786
#
# Compressibility (1/GPa) = 0.02069601
#
# Stress axis : x y z
#
# Youngs Moduli (GPa) = 181.38789 63.38817 114.90808
#
# Poissons Ratio (x) = 0.05796 0.12917
# Poissons Ratio (y) = 0.16586 0.29983
# Poissons Ratio (z) = 0.20389 0.16540
#
# Static dielectric constant tensor:
#      x y z
#    x 2.045640 0.000000 0.000000 
#    y 0.000000 2.002100 0.000000 
#    z 0.000000 0.000000 1.934840 
# 
# From -- ./inp_files/22868.got.cif
#   From: 2010.05.17/outbox.cif.g08.bks.cpg/sg56_12_cif.got.tgz:22868.got - 2010.06.03 13:42:01.
