data_PCOD9432550
_publ_section_title
;
Structure prediction by ZEFSAII (Michael W. Deem and Ramdas Pophale) SiO2 
 PCOD9432550
Probable space group: P C C N
;
_chemical_formula_sum "Si O2"
_cell_formula_units_Z 52
_cell_length_a 8.463201
_cell_length_b 22.674928
_cell_length_c 13.085930
_cell_angle_alpha 90.000000
_cell_angle_beta 90.000000
_cell_angle_gamma 90.000000
_cell_volume 2511.222333
_symmetry_space_group_name_H-M "P C C N"
_symmetry_group_IT_number 56
_symmetry_cell_setting 'orthorhombic'
loop_
_space_group_symop_operation_xyz
x,y,z
1/2-x,1/2-y,z
1/2+x,-y,1/2-z
-x,1/2+y,1/2-z
-x,-y,-z
1/2+x,1/2+y,-z
1/2-x,y,1/2+z
x,1/2-y,1/2+z
loop_
_atom_site_type_symbol
_atom_site_label
_atom_site_fract_x
_atom_site_fract_y
_atom_site_fract_z
Si Si1 0.417829 0.566476 0.621457
Si Si2 0.942904 0.572713 0.901505
Si Si3 0.845292 0.139609 0.763018
Si Si4 0.346499 0.385550 0.230360
Si Si5 0.850974 0.810473 0.129932
Si Si6 0.083704 0.217020 0.094664
Si Si7 0.250000 0.750000 0.859083
O O1 0.405421 0.497018 0.599719
O O2 0.260772 0.602923 0.655385
O O3 0.528306 0.569903 0.722790
O O4 0.003717 0.590363 0.015206
O O5 0.779446 0.598361 0.856692
O O6 0.074632 0.594799 0.819193
O O7 0.748087 0.189828 0.704850
O O8 0.985308 0.179893 0.811044
O O9 0.251468 0.364112 0.329139
O O10 0.431256 0.328773 0.185391
O O11 0.750000 0.750000 0.144835
O O12 0.890070 0.814764 0.012049
O O13 0.250000 0.250000 0.114194
O O14 0.920206 0.252927 0.084102
#
# Coordination Sequence:
#
# PCOD9432550 Si02
#       7
#     8   8   8   8   8   8   4
#     4  11  23  41  69  95 131 175 226 290 343 402
#     4  10  24  43  64  98 130 175 232 282 345 409
#     4  11  24  42  65  98 137 173 226 282 339 416
#     4  11  20  41  64  86 128 171 214 277 332 396
#     4  10  23  40  62  92 129 177 217 263 338 408
#     4  11  23  41  62  92 131 172 217 268 328 403
#     4  12  24  40  64  98 134 176 220 276 332 420
#
# _framework density 20.707048
#
# number of rings (size 3 to 8) (size 9 to 14) (size 15 to 20)
#    0.000    1.231    1.538    5.077    2.154    1.846 
#    0.000    0.000    0.000   10.154    0.000    0.000 
#    0.000    0.000    0.000    0.000    0.000    0.000 
#
# Total GULP energy -289627.858355 kJ/mol
# GULP energy per Si atom -5569.766507 kJ/mol
# Density = 2.065992 g / cm^3
# Si number density = 20.707048 Si / 1000 Ang^3
#
#
#
# Elastic Constant Matrix: (Units=GPa)
#
#
# Indices 1 2 3 4 5 6 
#
# 1 148.7399 30.9316 45.2991 0.0000 0.0000 0.0000
# 2 30.9316 38.5745 4.1042 0.0000 0.0000 0.0000
# 3 45.2991 4.1042 101.8427 0.0000 0.0000 0.0000
# 4 0.0000 0.0000 0.0000 34.4977 0.0000 0.0000
# 5 0.0000 0.0000 0.0000 0.0000 39.1999 0.0000
# 6 0.0000 0.0000 0.0000 0.0000 0.0000 2.3834
#
#
#
# Elastic Compliance Matrix: (Units=1/GPa)
#
#
# Indices 1 2 3 4 5 6 
#
# 1 0.009387 -0.007113 -0.003888 0.000000 0.000000 0.000000
# 2 -0.007113 0.031426 0.001897 0.000000 0.000000 0.000000
# 3 -0.003888 0.001897 0.011472 0.000000 0.000000 0.000000
# 4 0.000000 0.000000 0.000000 0.028987 0.000000 0.000000
# 5 0.000000 0.000000 0.000000 0.000000 0.025510 0.000000
# 6 0.000000 0.000000 0.000000 0.000000 0.000000 0.419566
#
#
# Mechanical properties :
#
#
# Convention : Reuss Voigt Hill
#
# Bulk Modulus (GPa) = 29.34592 49.98076 39.66334
# Shear Modulus (GPa) = 8.99418 29.13768 19.06593
#
# Velocity S-wave (km/s) = 2.08638 3.75525 3.03767
# Velocity P-wave (km/s) = 4.47288 6.55683 5.61243
#
# Compressibility (1/GPa) = 0.03407629
#
# Stress axis : x y z
#
# Youngs Moduli (GPa) = 106.53468 31.82103 87.16746
#
# Poissons Ratio (x) = 0.22635 0.33895
# Poissons Ratio (y) = 0.75779 -0.16540
# Poissons Ratio (z) = 0.41426 -0.06038
#
# Static dielectric constant tensor:
#      x y z
#    x 1.834180 0.000000 0.000000 
#    y 0.000000 1.734410 0.000000 
#    z 0.000000 0.000000 1.760000 
# 
# From -- ./inp_files/10973.got.cif
#   From: 2010.05.17/outbox.cif.g08.bks.cpg/sg56_6_cif.got.tgz:10973.got - 2010.06.03 13:42:01.
