data_PCOD9432404
_publ_section_title
;
Structure prediction by ZEFSAII (Michael W. Deem and Ramdas Pophale) SiO2 
 PCOD9432404
Probable space group: P C C N
;
_chemical_formula_sum "Si O2"
_cell_formula_units_Z 52
_cell_length_a 19.723527
_cell_length_b 5.228727
_cell_length_c 18.841083
_cell_angle_alpha 90.000000
_cell_angle_beta 90.000000
_cell_angle_gamma 90.000000
_cell_volume 1943.060884
_symmetry_space_group_name_H-M "P C C N"
_symmetry_group_IT_number 56
_symmetry_cell_setting 'orthorhombic'
loop_
_space_group_symop_operation_xyz
x,y,z
1/2-x,1/2-y,z
1/2+x,-y,1/2-z
-x,1/2+y,1/2-z
-x,-y,-z
1/2+x,1/2+y,-z
1/2-x,y,1/2+z
x,1/2-y,1/2+z
loop_
_atom_site_type_symbol
_atom_site_label
_atom_site_fract_x
_atom_site_fract_y
_atom_site_fract_z
Si Si1 0.750000 0.750000 0.061127
Si Si2 0.250000 0.750000 0.838685
Si Si3 0.750000 0.250000 0.397573
Si Si4 0.606915 0.419313 0.453843
Si Si5 0.904549 0.873957 0.186445
Si Si6 0.836963 0.019652 0.777866
Si Si7 0.541593 0.339347 0.315608
Si Si8 0.890219 0.913159 0.026806
O O1 0.762111 0.500775 0.112017
O O2 0.811151 0.850588 0.013368
O O3 0.312498 0.773133 0.782056
O O4 0.687626 0.368265 0.441991
O O5 0.715469 0.045983 0.342583
O O6 0.578578 0.494944 0.377388
O O7 0.582121 0.635358 0.507740
O O8 0.581516 0.143150 0.480814
O O9 0.846194 0.737376 0.232449
O O10 0.888263 0.984013 0.109686
O O11 0.962927 0.667649 0.167346
O O12 0.947591 0.047572 0.238491
O O13 0.910046 0.089038 0.811073
#
# Coordination Sequence:
#
# PCOD9432404 Si02
#       8
#     4   4   4   8   8   8   8   8
#     4  12  22  40  68 100 142 186 230 296 366 438
#     4  11  22  39  68 106 143 177 232 310 373 421
#     4   9  22  47  74 100 147 193 244 302 379 455
#     4  11  27  49  70 108 146 200 240 305 373 455
#     4  12  25  45  76 106 147 198 253 318 363 440
#     4  10  22  44  67 109 137 186 244 307 366 440
#     4  11  26  45  75 102 148 194 256 304 374 438
#     4  12  27  45  75 104 153 191 249 303 378 441
#
# _framework density 26.761897000000001
#
# number of rings (size 3 to 8) (size 9 to 14) (size 15 to 20)
#    0.000    0.923    3.077    2.769    6.462    1.231 
#    2.769    0.000    0.000    0.000    0.000    0.000 
#    0.000    0.000    0.000    0.000    0.000    0.000 
#
# Total GULP energy -290593.610987 kJ/mol
# GULP energy per Si atom -5588.338673 kJ/mol
# Density = 2.670099 g / cm^3
# Si number density = 26.761897 Si / 1000 Ang^3
#
#
#
# Elastic Constant Matrix: (Units=GPa)
#
#
# Indices 1 2 3 4 5 6 
#
# 1 56.6235 -3.2874 -5.4915 0.0000 0.0000 0.0000
# 2 -3.2874 130.6055 39.5084 0.0000 0.0000 0.0000
# 3 -5.4915 39.5084 110.8205 0.0000 0.0000 0.0000
# 4 0.0000 0.0000 0.0000 42.5779 0.0000 0.0000
# 5 0.0000 0.0000 0.0000 0.0000 30.1054 0.0000
# 6 0.0000 0.0000 0.0000 0.0000 0.0000 14.8209
#
#
#
# Elastic Compliance Matrix: (Units=1/GPa)
#
#
# Indices 1 2 3 4 5 6 
#
# 1 0.017751 0.000203 0.000807 0.000000 0.000000 0.000000
# 2 0.000203 0.008584 -0.003050 0.000000 0.000000 0.000000
# 3 0.000807 -0.003050 0.010151 0.000000 0.000000 0.000000
# 4 0.000000 0.000000 0.000000 0.023486 0.000000 0.000000
# 5 0.000000 0.000000 0.000000 0.000000 0.033217 0.000000
# 6 0.000000 0.000000 0.000000 0.000000 0.000000 0.067472
#
#
# Mechanical properties :
#
#
# Convention : Reuss Voigt Hill
#
# Bulk Modulus (GPa) = 30.85922 39.94539 35.40231
# Shear Modulus (GPa) = 28.48285 35.32216 31.90251
#
# Velocity S-wave (km/s) = 3.26591 3.63694 3.45641
# Velocity P-wave (km/s) = 5.07717 5.70921 5.40244
#
# Compressibility (1/GPa) = 0.03240522
#
# Stress axis : x y z
#
# Youngs Moduli (GPa) = 56.33626 116.48904 98.51143
#
# Poissons Ratio (x) = -0.02360 -0.07954
# Poissons Ratio (y) = -0.01141 0.30050
# Poissons Ratio (z) = -0.04548 0.35534
#
# Static dielectric constant tensor:
#      x y z
#    x 2.246390 0.000000 0.000000 
#    y 0.000000 2.296030 0.000000 
#    z 0.000000 0.000000 1.998670 
# 
# From -- ./inp_files/19490.got.cif
#   From: 2010.05.17/outbox.cif.g08.bks.cpg/sg56_10_cif.got.tgz:19490.got - 2010.06.03 13:42:01.
