data_PCOD9432375
_publ_section_title
;
Structure prediction by ZEFSAII (Michael W. Deem and Ramdas Pophale) SiO2 
 PCOD9432375
Probable space group: P C C N
;
_chemical_formula_sum "Si O2"
_cell_formula_units_Z 40
_cell_length_a 9.443889
_cell_length_b 8.073588
_cell_length_c 22.554406
_cell_angle_alpha 90.000000
_cell_angle_beta 90.000000
_cell_angle_gamma 90.000000
_cell_volume 1719.684794
_symmetry_space_group_name_H-M "P C C N"
_symmetry_group_IT_number 56
_symmetry_cell_setting 'orthorhombic'
loop_
_space_group_symop_operation_xyz
x,y,z
1/2-x,1/2-y,z
1/2+x,-y,1/2-z
-x,1/2+y,1/2-z
-x,-y,-z
1/2+x,1/2+y,-z
1/2-x,y,1/2+z
x,1/2-y,1/2+z
loop_
_atom_site_type_symbol
_atom_site_label
_atom_site_fract_x
_atom_site_fract_y
_atom_site_fract_z
Si Si1 0.601362 0.216078 0.738002
Si Si2 0.909510 0.572551 0.830014
Si Si3 0.413896 0.555697 0.441499
Si Si4 0.085425 0.954599 0.941473
Si Si5 0.852368 0.099407 0.860047
O O1 0.750000 0.250000 0.704511
O O2 0.473650 0.258659 0.695091
O O3 0.611604 0.340718 0.793919
O O4 0.594197 0.043075 0.771570
O O5 0.755317 0.555228 0.858350
O O6 0.014125 0.498629 0.879996
O O7 0.500000 0.500000 0.500000
O O8 0.420206 0.755530 0.436664
O O9 0.250843 0.500154 0.444829
O O10 0.996298 0.052767 0.892173
O O11 0.000000 0.000000 0.000000
O O12 0.750000 0.250000 0.884918
#
# Coordination Sequence:
#
# PCOD9432375 Si02
#       5
#     8   8   8   8   8
#     4   9  22  41  66  98 137 176 227 280 334 396
#     4  10  22  43  70  96 140 178 229 280 336 416
#     4  11  27  46  69 105 136 178 234 284 352 411
#     4  11  26  44  74  95 140 182 226 290 345 413
#     4   9  22  44  68 100 137 180 227 286 346 408
#
# _framework density 23.260076999999999
#
# number of rings (size 3 to 8) (size 9 to 14) (size 15 to 20)
#    0.000    2.400    0.000    1.200   14.000    4.800 
#    3.600    8.000    0.000    0.000    0.000    0.000 
#    0.000    0.000    0.000    0.000    0.000    0.000 
#
# Total GULP energy -223453.466008 kJ/mol
# GULP energy per Si atom -5586.336650 kJ/mol
# Density = 2.320714 g / cm^3
# Si number density = 23.260077 Si / 1000 Ang^3
#
#
#
# Elastic Constant Matrix: (Units=GPa)
#
#
# Indices 1 2 3 4 5 6 
#
# 1 211.2881 48.5705 51.4287 0.0000 0.0000 0.0000
# 2 48.5705 56.7508 13.8206 0.0000 0.0000 0.0000
# 3 51.4287 13.8206 49.7082 0.0000 0.0000 0.0000
# 4 0.0000 0.0000 0.0000 28.6502 0.0000 0.0000
# 5 0.0000 0.0000 0.0000 0.0000 47.9453 0.0000
# 6 0.0000 0.0000 0.0000 0.0000 0.0000 42.1903
#
#
#
# Elastic Compliance Matrix: (Units=1/GPa)
#
#
# Indices 1 2 3 4 5 6 
#
# 1 0.007359 -0.004767 -0.006289 0.000000 0.000000 0.000000
# 2 -0.004767 0.021989 -0.001181 0.000000 0.000000 0.000000
# 3 -0.006289 -0.001181 0.026952 0.000000 0.000000 0.000000
# 4 0.000000 0.000000 0.000000 0.034904 0.000000 0.000000
# 5 0.000000 0.000000 0.000000 0.000000 0.020857 0.000000
# 6 0.000000 0.000000 0.000000 0.000000 0.000000 0.023702
#
#
# Mechanical properties :
#
#
# Convention : Reuss Voigt Hill
#
# Bulk Modulus (GPa) = 31.42115 60.59850 46.00982
# Shear Modulus (GPa) = 29.26602 37.35231 33.30917
#
# Velocity S-wave (km/s) = 3.55097 4.01166 3.78832
# Velocity P-wave (km/s) = 5.50913 6.89688 6.24169
#
# Compressibility (1/GPa) = 0.03182570
#
# Stress axis : x y z
#
# Youngs Moduli (GPa) = 135.87979 45.47815 37.10257
#
# Poissons Ratio (x) = 0.21680 0.23333
# Poissons Ratio (y) = 0.64775 0.04383
# Poissons Ratio (z) = 0.85451 0.05373
#
# Static dielectric constant tensor:
#      x y z
#    x 1.916190 0.000000 0.000000 
#    y 0.000000 2.040880 0.000000 
#    z 0.000000 0.000000 1.884930 
# 
# From -- ./inp_files/20329.got.cif
#   From: 2010.05.17/outbox.cif.g08.bks.cpg/sg56_11_cif.got.tgz:20329.got - 2010.06.03 13:42:01.
