data_PCOD9432806
_publ_section_title
;
Structure prediction by ZEFSAII (Michael W. Deem and Ramdas Pophale) SiO2 
 PCOD9432806
Probable space group: P C C N
;
_chemical_formula_sum "Si O2"
_cell_formula_units_Z 40
_cell_length_a 8.658873
_cell_length_b 18.588164
_cell_length_c 11.006432
_cell_angle_alpha 90.000000
_cell_angle_beta 90.000000
_cell_angle_gamma 90.000000
_cell_volume 1771.513312
_symmetry_space_group_name_H-M "P C C N"
_symmetry_group_IT_number 56
_symmetry_cell_setting 'orthorhombic'
loop_
_space_group_symop_operation_xyz
x,y,z
1/2-x,1/2-y,z
1/2+x,-y,1/2-z
-x,1/2+y,1/2-z
-x,-y,-z
1/2+x,1/2+y,-z
1/2-x,y,1/2+z
x,1/2-y,1/2+z
loop_
_atom_site_type_symbol
_atom_site_label
_atom_site_fract_x
_atom_site_fract_y
_atom_site_fract_z
Si Si1 0.428901 0.607618 0.503656
Si Si2 0.612339 0.454767 0.916022
Si Si3 0.397445 0.419571 0.269718
Si Si4 0.567159 0.650809 0.246628
Si Si5 0.092939 0.792349 0.718379
O O1 0.268090 0.566724 0.516687
O O2 0.552293 0.567930 0.591290
O O3 0.494868 0.621256 0.371761
O O4 0.402905 0.683137 0.577198
O O5 0.636237 0.508059 0.801936
O O6 0.529606 0.384378 0.863105
O O7 0.500000 0.500000 0.000000
O O8 0.242348 0.373630 0.264661
O O9 0.540490 0.368785 0.221556
O O10 0.541037 0.735495 0.242001
O O11 0.250000 0.750000 0.752497
#
# Coordination Sequence:
#
# PCOD9432806 Si02
#       5
#     8   8   8   8   8
#     4  10  27  48  73 108 148 198 249 304 372 447
#     4  12  28  44  74 109 146 201 252 306 377 440
#     4  10  26  47  68 111 145 192 251 303 373 440
#     4  12  25  48  77 103 158 193 250 313 371 447
#     4  10  23  49  72 107 143 193 245 301 374 432
#
# _framework density 22.579566
#
# number of rings (size 3 to 8) (size 9 to 14) (size 15 to 20)
#    1.200    0.000    2.000    1.800   11.200    4.000 
#    3.600    0.000    0.000    0.000    0.000    0.000 
#    0.000    0.000    0.000    0.000    0.000    0.000 
#
# Total GULP energy -223484.987402 kJ/mol
# GULP energy per Si atom -5587.124685 kJ/mol
# Density = 2.252817 g / cm^3
# Si number density = 22.579566 Si / 1000 Ang^3
#
#
#
# Elastic Constant Matrix: (Units=GPa)
#
#
# Indices 1 2 3 4 5 6 
#
# 1 127.7048 18.6956 50.8017 0.0000 0.0000 0.0000
# 2 18.6956 59.2339 16.9435 0.0000 0.0000 0.0000
# 3 50.8017 16.9435 92.6498 0.0000 0.0000 0.0000
# 4 0.0000 0.0000 0.0000 30.8390 0.0000 0.0000
# 5 0.0000 0.0000 0.0000 0.0000 31.0820 0.0000
# 6 0.0000 0.0000 0.0000 0.0000 0.0000 35.7923
#
#
#
# Elastic Compliance Matrix: (Units=1/GPa)
#
#
# Indices 1 2 3 4 5 6 
#
# 1 0.010176 -0.001705 -0.005268 0.000000 0.000000 0.000000
# 2 -0.001705 0.018100 -0.002375 0.000000 0.000000 0.000000
# 3 -0.005268 -0.002375 0.014116 0.000000 0.000000 0.000000
# 4 0.000000 0.000000 0.000000 0.032426 0.000000 0.000000
# 5 0.000000 0.000000 0.000000 0.000000 0.032173 0.000000
# 6 0.000000 0.000000 0.000000 0.000000 0.000000 0.027939
#
#
# Mechanical properties :
#
#
# Convention : Reuss Voigt Hill
#
# Bulk Modulus (GPa) = 42.20145 50.27447 46.23796
# Shear Modulus (GPa) = 30.95511 32.41917 31.68714
#
# Velocity S-wave (km/s) = 3.70663 3.79327 3.75020
# Velocity P-wave (km/s) = 6.08683 6.44197 6.26692
#
# Compressibility (1/GPa) = 0.02369587
#
# Stress axis : x y z
#
# Youngs Moduli (GPa) = 98.27344 55.24941 70.84105
#
# Poissons Ratio (x) = 0.09419 0.37317
# Poissons Ratio (y) = 0.16754 0.16826
# Poissons Ratio (z) = 0.51768 0.13123
#
# Static dielectric constant tensor:
#      x y z
#    x 1.774410 0.000000 0.000000 
#    y 0.000000 1.880970 0.000000 
#    z 0.000000 0.000000 1.867560 
# 
# From -- ./inp_files/6187.got.cif
#   From: 2010.05.17/outbox.cif.g08.bks.cpg/sg56_4_cif.got.tgz:6187.got - 2010.06.03 13:42:01.
