data_PCOD9432631
_publ_section_title
;
Structure prediction by ZEFSAII (Michael W. Deem and Ramdas Pophale) SiO2 
 PCOD9432631
Probable space group: P C C N
;
_chemical_formula_sum "Si O2"
_cell_formula_units_Z 44
_cell_length_a 12.063623
_cell_length_b 7.954034
_cell_length_c 21.660679
_cell_angle_alpha 90.000000
_cell_angle_beta 90.000000
_cell_angle_gamma 90.000000
_cell_volume 2078.438919
_symmetry_space_group_name_H-M "P C C N"
_symmetry_group_IT_number 56
_symmetry_cell_setting 'orthorhombic'
loop_
_space_group_symop_operation_xyz
x,y,z
1/2-x,1/2-y,z
1/2+x,-y,1/2-z
-x,1/2+y,1/2-z
-x,-y,-z
1/2+x,1/2+y,-z
1/2-x,y,1/2+z
x,1/2-y,1/2+z
loop_
_atom_site_type_symbol
_atom_site_label
_atom_site_fract_x
_atom_site_fract_y
_atom_site_fract_z
Si Si1 0.128637 0.329607 0.440086
Si Si2 0.378468 0.280876 0.080135
Si Si3 0.536598 0.425292 0.376165
Si Si4 0.577600 0.385331 0.733102
Si Si5 0.750000 0.250000 0.814268
Si Si6 0.545266 0.458225 0.163560
O O1 0.250000 0.250000 0.435970
O O2 0.108221 0.360641 0.512343
O O3 0.123165 0.482262 0.391727
O O4 0.033792 0.202187 0.417215
O O5 0.250000 0.250000 0.091994
O O6 0.432143 0.403870 0.129681
O O7 0.435609 0.098035 0.087561
O O8 0.459071 0.481905 0.318502
O O9 0.650714 0.337476 0.352824
O O10 0.692501 0.390829 0.770374
O O11 0.482760 0.401468 0.785662
O O12 0.582225 0.206292 0.699769
#
# Coordination Sequence:
#
# PCOD9432631 Si02
#       6
#     8   8   8   8   4   8
#     4  11  24  42  64  94 132 172 215 269 324 387
#     4  10  23  42  68  93 126 169 223 267 328 381
#     4  11  24  42  67  97 129 172 214 274 321 391
#     4  11  23  39  64  97 128 167 214 260 329 384
#     4  12  22  40  68  94 136 164 218 264 330 392
#     4  11  21  43  62  92 131 165 212 270 321 391
#
# _framework density 21.169734999999999
#
# number of rings (size 3 to 8) (size 9 to 14) (size 15 to 20)
#    0.000    1.091    3.636    2.182    2.545    0.000 
#    0.000    1.818    0.000    0.000    0.000    0.000 
#    0.000    0.000    0.000    0.000    0.000    0.000 
#
# Total GULP energy -245731.547429 kJ/mol
# GULP energy per Si atom -5584.807896 kJ/mol
# Density = 2.112155 g / cm^3
# Si number density = 21.169735 Si / 1000 Ang^3
#
#
#
# Elastic Constant Matrix: (Units=GPa)
#
#
# Indices 1 2 3 4 5 6 
#
# 1 78.9267 5.0873 25.1073 0.0000 0.0000 0.0000
# 2 5.0873 78.9098 21.0955 0.0000 0.0000 0.0000
# 3 25.1073 21.0955 91.9128 0.0000 0.0000 0.0000
# 4 0.0000 0.0000 0.0000 -2.5349 0.0000 0.0000
# 5 0.0000 0.0000 0.0000 0.0000 0.3555 0.0000
# 6 0.0000 0.0000 0.0000 0.0000 0.0000 24.2342
#
#
#
# Elastic Compliance Matrix: (Units=1/GPa)
#
#
# Indices 1 2 3 4 5 6 
#
# 1 0.013877 0.000127 -0.003820 0.000000 0.000000 0.000000
# 2 0.000127 0.013502 -0.003134 0.000000 0.000000 0.000000
# 3 -0.003820 -0.003134 0.012642 0.000000 0.000000 0.000000
# 4 0.000000 0.000000 0.000000 -0.394492 0.000000 0.000000
# 5 0.000000 0.000000 0.000000 0.000000 2.813222 0.000000
# 6 0.000000 0.000000 0.000000 0.000000 0.000000 0.041264
#
#
# Mechanical properties :
#
#
# Convention : Reuss Voigt Hill
#
# Bulk Modulus (GPa) = 37.92455 39.14773 38.53614
# Shear Modulus (GPa) = 1.98219 17.64155 9.81187
#
# Velocity S-wave (km/s) = 0.96869 2.88989 2.15521
# Velocity P-wave (km/s) = 4.38230 5.44681 4.94329
#
# Compressibility (1/GPa) = 0.02636814
#
# Stress axis : x y z
#
# Youngs Moduli (GPa) = 72.06214 74.06167 79.09835
#
# Poissons Ratio (x) = -0.00937 0.30213
# Poissons Ratio (y) = -0.00912 0.24786
# Poissons Ratio (z) = 0.27526 0.23208
#
# Static dielectric constant tensor:
#      x y z
#    x 1.750430 0.000000 0.000000 
#    y 0.000000 1.789800 0.000000 
#    z 0.000000 0.000000 1.774360 
# 
# From -- ./inp_files/20866.got.cif
#   From: 2010.05.17/outbox.cif.g08.bks.cpg/sg56_11_cif.got.tgz:20866.got - 2010.06.03 13:42:01.
