data_PCOD9432752
_publ_section_title
;
Structure prediction by ZEFSAII (Michael W. Deem and Ramdas Pophale) SiO2 
 PCOD9432752
Probable space group: P C C N
;
_chemical_formula_sum "Si O2"
_cell_formula_units_Z 36
_cell_length_a 5.192869
_cell_length_b 11.096895
_cell_length_c 25.166858
_cell_angle_alpha 90.000000
_cell_angle_beta 90.000000
_cell_angle_gamma 90.000000
_cell_volume 1450.233197
_symmetry_space_group_name_H-M "P C C N"
_symmetry_group_IT_number 56
_symmetry_cell_setting 'orthorhombic'
loop_
_space_group_symop_operation_xyz
x,y,z
1/2-x,1/2-y,z
1/2+x,-y,1/2-z
-x,1/2+y,1/2-z
-x,-y,-z
1/2+x,1/2+y,-z
1/2-x,y,1/2+z
x,1/2-y,1/2+z
loop_
_atom_site_type_symbol
_atom_site_label
_atom_site_fract_x
_atom_site_fract_y
_atom_site_fract_z
Si Si1 0.505823 0.329543 0.512116
Si Si2 0.909428 0.872360 0.370315
Si Si3 0.403225 0.876779 0.104359
Si Si4 0.585024 0.079140 0.241967
Si Si5 0.750000 0.750000 0.184880
O O1 0.750000 0.250000 0.501872
O O2 0.545746 0.368955 0.572785
O O3 0.501073 0.400811 0.456265
O O4 0.250000 0.250000 0.512508
O O5 0.750000 0.750000 0.365385
O O6 0.085546 0.878318 0.318829
O O7 0.760861 0.001838 0.375530
O O8 0.250000 0.750000 0.106727
O O9 0.633969 0.850599 0.145287
O O10 0.467367 0.185613 0.278783
O O11 0.864418 0.025411 0.255001
#
# Coordination Sequence:
#
# PCOD9432752 Si02
#       5
#     8   8   8   8   4
#     4  10  23  45  73 109 145 191 241 307 370 437
#     4  11  24  47  71 108 146 188 238 308 365 432
#     4  11  23  47  74 104 145 192 251 296 371 445
#     4  12  27  46  71 102 145 190 244 298 365 435
#     4  12  24  44  72 102 140 202 244 302 358 458
#
# _framework density 24.823591
#
# number of rings (size 3 to 8) (size 9 to 14) (size 15 to 20)
#    0.000    0.889    4.444    2.000    0.000    3.556 
#    8.000   10.000    0.000    0.000    0.000    0.000 
#    0.000    0.000    0.000    0.000    0.000    0.000 
#
# Total GULP energy -201004.232243 kJ/mol
# GULP energy per Si atom -5583.450896 kJ/mol
# Density = 2.476709 g / cm^3
# Si number density = 24.823591 Si / 1000 Ang^3
#
#
#
# Elastic Constant Matrix: (Units=GPa)
#
#
# Indices 1 2 3 4 5 6 
#
# 1 75.2143 13.9800 17.3432 0.0000 0.0000 0.0000
# 2 13.9800 118.5949 42.9727 0.0000 0.0000 0.0000
# 3 17.3432 42.9727 211.7566 0.0000 0.0000 0.0000
# 4 0.0000 0.0000 0.0000 29.4645 0.0000 0.0000
# 5 0.0000 0.0000 0.0000 0.0000 27.4788 0.0000
# 6 0.0000 0.0000 0.0000 0.0000 0.0000 28.7527
#
#
#
# Elastic Compliance Matrix: (Units=1/GPa)
#
#
# Indices 1 2 3 4 5 6 
#
# 1 0.013737 -0.001308 -0.000860 0.000000 0.000000 0.000000
# 2 -0.001308 0.009226 -0.001765 0.000000 0.000000 0.000000
# 3 -0.000860 -0.001765 0.005151 0.000000 0.000000 0.000000
# 4 0.000000 0.000000 0.000000 0.033939 0.000000 0.000000
# 5 0.000000 0.000000 0.000000 0.000000 0.036392 0.000000
# 6 0.000000 0.000000 0.000000 0.000000 0.000000 0.034779
#
#
# Mechanical properties :
#
#
# Convention : Reuss Voigt Hill
#
# Bulk Modulus (GPa) = 49.38676 61.57307 55.47992
# Shear Modulus (GPa) = 33.82076 39.22387 36.52231
#
# Velocity S-wave (km/s) = 3.69513 3.97937 3.83988
# Velocity P-wave (km/s) = 6.17605 6.78026 6.48520
#
# Compressibility (1/GPa) = 0.02024834
#
# Stress axis : x y z
#
# Youngs Moduli (GPa) = 72.79793 108.39147 194.13653
#
# Poissons Ratio (x) = 0.14175 0.16689
# Poissons Ratio (y) = 0.09520 0.34267
# Poissons Ratio (z) = 0.06258 0.19132
#
# Static dielectric constant tensor:
#      x y z
#    x 1.898600 0.000000 0.000000 
#    y 0.000000 2.084070 0.000000 
#    z 0.000000 0.000000 1.977800 
# 
# From -- ./inp_files/19865.got.cif
#   From: 2010.05.17/outbox.cif.g08.bks.cpg/sg56_10_cif.got.tgz:19865.got - 2010.06.03 13:42:01.
