data_PCOD9432475
_publ_section_title
;
Structure prediction by ZEFSAII (Michael W. Deem and Ramdas Pophale) SiO2 
 PCOD9432475
Probable space group: P C C N
;
_chemical_formula_sum "Si O2"
_cell_formula_units_Z 60
_cell_length_a 8.480950
_cell_length_b 22.456313
_cell_length_c 13.939417
_cell_angle_alpha 90.000000
_cell_angle_beta 90.000000
_cell_angle_gamma 90.000000
_cell_volume 2654.774063
_symmetry_space_group_name_H-M "P C C N"
_symmetry_group_IT_number 56
_symmetry_cell_setting 'orthorhombic'
loop_
_space_group_symop_operation_xyz
x,y,z
1/2-x,1/2-y,z
1/2+x,-y,1/2-z
-x,1/2+y,1/2-z
-x,-y,-z
1/2+x,1/2+y,-z
1/2-x,y,1/2+z
x,1/2-y,1/2+z
loop_
_atom_site_type_symbol
_atom_site_label
_atom_site_fract_x
_atom_site_fract_y
_atom_site_fract_z
Si Si1 0.840934 0.129116 0.053116
Si Si2 0.099522 0.159459 0.412644
Si Si3 0.024896 0.084479 0.224518
Si Si4 0.250000 0.750000 0.352067
Si Si5 0.065180 0.239337 0.775968
Si Si6 0.147606 0.027400 0.737627
Si Si7 0.959477 0.438077 0.052613
Si Si8 0.936949 0.623812 0.619233
O O1 0.755794 0.190363 0.083527
O O2 0.724875 0.073219 0.064161
O O3 0.981190 0.118260 0.128519
O O4 0.912143 0.128172 0.947412
O O5 0.069120 0.128415 0.309731
O O6 0.056209 0.226574 0.380343
O O7 0.283337 0.149714 0.435088
O O8 0.012342 0.119590 0.490989
O O9 0.173248 0.041515 0.212693
O O10 0.883679 0.042433 0.258631
O O11 0.411886 0.754114 0.288823
O O12 0.250000 0.250000 0.742848
O O13 0.048175 0.169171 0.792831
O O14 0.103229 0.059288 0.837963
O O15 0.042310 0.056490 0.654680
O O16 0.000000 0.500000 0.000000
#
# Coordination Sequence:
#
# PCOD9432475 Si02
#       8
#     8   8   8   4   8   8   8   8
#     4  12  28  44  68 110 142 186 239 296 358 436
#     4  10  22  46  69 101 140 187 230 298 361 427
#     4  11  23  44  72  98 139 181 238 294 360 429
#     4  12  26  46  78 110 144 188 250 294 368 430
#     4  10  23  47  75 103 145 190 239 297 364 436
#     4  11  24  43  71 100 135 191 232 295 363 423
#     4  12  26  42  67 102 140 180 236 292 355 428
#     4  10  25  44  70 102 140 187 237 289 365 427
#
# _framework density 22.600794
#
# number of rings (size 3 to 8) (size 9 to 14) (size 15 to 20)
#    0.000    1.067    2.667    2.400    7.467    1.600 
#    2.400    0.000    0.000    0.000    0.000    0.000 
#    0.000    0.000    0.000    0.000    0.000    0.000 
#
# Total GULP energy -335155.758102 kJ/mol
# GULP energy per Si atom -5585.929302 kJ/mol
# Density = 2.254935 g / cm^3
# Si number density = 22.600794 Si / 1000 Ang^3
#
#
#
# Elastic Constant Matrix: (Units=GPa)
#
#
# Indices 1 2 3 4 5 6 
#
# 1 97.7133 14.9980 32.4161 0.0000 0.0000 0.0000
# 2 14.9980 78.7797 7.5503 0.0000 0.0000 0.0000
# 3 32.4161 7.5503 53.3056 0.0000 0.0000 0.0000
# 4 0.0000 0.0000 0.0000 27.2321 0.0000 0.0000
# 5 0.0000 0.0000 0.0000 0.0000 26.0135 0.0000
# 6 0.0000 0.0000 0.0000 0.0000 0.0000 36.1047
#
#
#
# Elastic Compliance Matrix: (Units=1/GPa)
#
#
# Indices 1 2 3 4 5 6 
#
# 1 0.013054 -0.001748 -0.007691 0.000000 0.000000 0.000000
# 2 -0.001748 0.013102 -0.000793 0.000000 0.000000 0.000000
# 3 -0.007691 -0.000793 0.023549 0.000000 0.000000 0.000000
# 4 0.000000 0.000000 0.000000 0.036721 0.000000 0.000000
# 5 0.000000 0.000000 0.000000 0.000000 0.038442 0.000000
# 6 0.000000 0.000000 0.000000 0.000000 0.000000 0.027697
#
#
# Mechanical properties :
#
#
# Convention : Reuss Voigt Hill
#
# Bulk Modulus (GPa) = 34.19741 37.74750 35.97245
# Shear Modulus (GPa) = 27.35598 29.52566 28.44082
#
# Velocity S-wave (km/s) = 3.48285 3.61834 3.55124
# Velocity P-wave (km/s) = 5.59800 5.84761 5.72417
#
# Compressibility (1/GPa) = 0.02924198
#
# Stress axis : x y z
#
# Youngs Moduli (GPa) = 76.60682 76.32182 42.46495
#
# Poissons Ratio (x) = 0.13342 0.32658
# Poissons Ratio (y) = 0.13391 0.03367
# Poissons Ratio (z) = 0.58915 0.06051
#
# Static dielectric constant tensor:
#      x y z
#    x 1.886550 0.000000 0.000000 
#    y 0.000000 1.851870 0.000000 
#    z 0.000000 0.000000 1.816660 
# 
# From -- ./inp_files/10998.got.cif
#   From: 2010.05.17/outbox.cif.g08.bks.cpg/sg56_6_cif.got.tgz:10998.got - 2010.06.03 13:42:01.
