data_PCOD9432513
_publ_section_title
;
Structure prediction by ZEFSAII (Michael W. Deem and Ramdas Pophale) SiO2 
 PCOD9432513
Probable space group: P C C N
;
_chemical_formula_sum "Si O2"
_cell_formula_units_Z 60
_cell_length_a 20.205821
_cell_length_b 9.465382
_cell_length_c 13.624098
_cell_angle_alpha 90.000000
_cell_angle_beta 90.000000
_cell_angle_gamma 90.000000
_cell_volume 2605.687958
_symmetry_space_group_name_H-M "P C C N"
_symmetry_group_IT_number 56
_symmetry_cell_setting 'orthorhombic'
loop_
_space_group_symop_operation_xyz
x,y,z
1/2-x,1/2-y,z
1/2+x,-y,1/2-z
-x,1/2+y,1/2-z
-x,-y,-z
1/2+x,1/2+y,-z
1/2-x,y,1/2+z
x,1/2-y,1/2+z
loop_
_atom_site_type_symbol
_atom_site_label
_atom_site_fract_x
_atom_site_fract_y
_atom_site_fract_z
Si Si1 0.964357 0.811799 0.531408
Si Si2 0.880437 0.224612 0.419048
Si Si3 0.588640 0.359829 0.215853
Si Si4 0.250000 0.250000 0.236689
Si Si5 0.380074 0.928547 0.884485
Si Si6 0.170186 0.490239 0.680583
Si Si7 0.549550 0.720965 0.819374
Si Si8 0.874898 0.867832 0.150259
O O1 0.964668 0.814138 0.414536
O O2 0.908012 0.697267 0.555634
O O3 0.038892 0.764412 0.562788
O O4 0.933096 0.952386 0.581232
O O5 0.878509 0.128661 0.321696
O O6 0.853890 0.144125 0.515265
O O7 0.843192 0.368857 0.384036
O O8 0.590890 0.200381 0.178172
O O9 0.510421 0.379940 0.213239
O O10 0.626344 0.464541 0.144070
O O11 0.267678 0.385537 0.168891
O O12 0.308943 0.200508 0.308228
O O13 0.330432 0.984451 0.800080
O O14 0.108614 0.387464 0.662207
O O15 0.570952 0.824487 0.732706
#
# Coordination Sequence:
#
# PCOD9432513 Si02
#       8
#     8   8   8   4   8   8   8   8
#     4  12  22  36  67 101 144 186 220 288 362 434
#     4  11  22  36  66 104 145 174 230 285 364 437
#     4  11  23  36  62 100 138 176 220 287 361 425
#     4  10  22  52  74  82 134 192 252 292 348 410
#     4  11  22  40  62 103 143 180 220 285 362 426
#     4  10  23  43  69  99 135 188 239 293 345 417
#     4  11  22  36  64 100 141 172 228 283 352 435
#     4  11  24  42  67  97 129 185 240 284 351 417
#
# _framework density 23.026548999999999
#
# number of rings (size 3 to 8) (size 9 to 14) (size 15 to 20)
#    0.000    1.067    5.333    2.000    5.600    1.067 
#    0.000    5.333    0.000    1.600    0.000    0.000 
#    0.000    0.000    0.000    0.000    0.000    0.000 
#
# Total GULP energy -334544.843046 kJ/mol
# GULP energy per Si atom -5575.747384 kJ/mol
# Density = 2.297414 g / cm^3
# Si number density = 23.026549 Si / 1000 Ang^3
#
#
#
# Elastic Constant Matrix: (Units=GPa)
#
#
# Indices 1 2 3 4 5 6 
#
# 1 34.3592 24.4283 2.1077 0.0000 0.0000 0.0000
# 2 24.4283 66.3510 16.5503 0.0000 0.0000 0.0000
# 3 2.1077 16.5503 115.0980 0.0000 0.0000 0.0000
# 4 0.0000 0.0000 0.0000 31.0965 0.0000 0.0000
# 5 0.0000 0.0000 0.0000 0.0000 12.0741 0.0000
# 6 0.0000 0.0000 0.0000 0.0000 0.0000 28.7342
#
#
#
# Elastic Compliance Matrix: (Units=1/GPa)
#
#
# Indices 1 2 3 4 5 6 
#
# 1 0.039647 -0.014952 0.001424 0.000000 0.000000 0.000000
# 2 -0.014952 0.021271 -0.002785 0.000000 0.000000 0.000000
# 3 0.001424 -0.002785 0.009063 0.000000 0.000000 0.000000
# 4 0.000000 0.000000 0.000000 0.032158 0.000000 0.000000
# 5 0.000000 0.000000 0.000000 0.000000 0.082822 0.000000
# 6 0.000000 0.000000 0.000000 0.000000 0.000000 0.034802
#
#
# Mechanical properties :
#
#
# Convention : Reuss Voigt Hill
#
# Bulk Modulus (GPa) = 26.77016 33.55343 30.16180
# Shear Modulus (GPa) = 18.87932 25.89575 22.38754
#
# Velocity S-wave (km/s) = 2.86648 3.35715 3.12147
# Velocity P-wave (km/s) = 4.75465 5.44339 5.11064
#
# Compressibility (1/GPa) = 0.03735502
#
# Stress axis : x y z
#
# Youngs Moduli (GPa) = 25.22235 47.01261 110.34358
#
# Poissons Ratio (x) = 0.70294 -0.15713
# Poissons Ratio (y) = 0.37713 0.30728
# Poissons Ratio (z) = -0.03592 0.13092
#
# Static dielectric constant tensor:
#      x y z
#    x 1.888930 0.000000 0.000000 
#    y 0.000000 1.976780 0.000000 
#    z 0.000000 0.000000 1.890550 
# 
# From -- ./inp_files/13246.got.cif
#   From: 2010.05.17/outbox.cif.g08.bks.cpg/sg56_7_cif.got.tgz:13246.got - 2010.06.03 13:42:01.
