data_PCOD9432721
_publ_section_title
;
Structure prediction by ZEFSAII (Michael W. Deem and Ramdas Pophale) SiO2 
 PCOD9432721
Probable space group: P C C N
;
_chemical_formula_sum "Si O2"
_cell_formula_units_Z 48
_cell_length_a 9.519258
_cell_length_b 17.618657
_cell_length_c 12.300426
_cell_angle_alpha 90.000000
_cell_angle_beta 90.000000
_cell_angle_gamma 90.000000
_cell_volume 2062.984909
_symmetry_space_group_name_H-M "P C C N"
_symmetry_group_IT_number 56
_symmetry_cell_setting 'orthorhombic'
loop_
_space_group_symop_operation_xyz
x,y,z
1/2-x,1/2-y,z
1/2+x,-y,1/2-z
-x,1/2+y,1/2-z
-x,-y,-z
1/2+x,1/2+y,-z
1/2-x,y,1/2+z
x,1/2-y,1/2+z
loop_
_atom_site_type_symbol
_atom_site_label
_atom_site_fract_x
_atom_site_fract_y
_atom_site_fract_z
Si Si1 0.495832 0.657318 0.953106
Si Si2 0.271674 0.330376 0.669961
Si Si3 0.873681 0.093020 0.829655
Si Si4 0.444635 0.063093 0.743769
Si Si5 0.897747 0.064196 0.449474
Si Si6 0.098260 0.816745 0.370670
O O1 0.661728 0.674743 0.931476
O O2 0.474270 0.591136 0.863951
O O3 0.406648 0.730224 0.912801
O O4 0.463362 0.630076 0.073664
O O5 0.250000 0.250000 0.730157
O O6 0.209741 0.400440 0.736233
O O7 0.432353 0.336558 0.641668
O O8 0.748529 0.046190 0.889166
O O9 0.834811 0.159824 0.744888
O O10 0.945756 0.027245 0.758206
O O11 0.512470 0.097835 0.850678
O O12 0.852215 0.126122 0.536918
O O13 0.000000 0.000000 0.500000
#
# Coordination Sequence:
#
# PCOD9432721 Si02
#       6
#     8   8   8   8   8   8
#     4   9  24  44  71 107 141 185 240 295 362 434
#     4   8  19  43  70 102 137 178 241 292 352 425
#     4  12  26  46  73 103 146 190 240 303 365 440
#     4  10  23  44  72 100 136 182 241 290 361 420
#     4  12  27  47  70 102 145 188 238 307 364 438
#     4  11  24  46  69 108 141 192 241 294 376 427
#
# _framework density 23.267257000000001
#
# number of rings (size 3 to 8) (size 9 to 14) (size 15 to 20)
#    1.000    0.667    1.667    1.500    4.667    2.000 
#    0.000    3.333    0.000    0.000    0.000    0.000 
#    0.000    0.000    0.000    0.000    0.000    0.000 
#
# Total GULP energy -267693.257120 kJ/mol
# GULP energy per Si atom -5576.942857 kJ/mol
# Density = 2.321430 g / cm^3
# Si number density = 23.267257 Si / 1000 Ang^3
#
#
#
# Elastic Constant Matrix: (Units=GPa)
#
#
# Indices 1 2 3 4 5 6 
#
# 1 68.8743 6.0621 3.6642 0.0000 0.0000 0.0000
# 2 6.0621 110.1033 21.3197 0.0000 0.0000 0.0000
# 3 3.6642 21.3197 95.3826 0.0000 0.0000 0.0000
# 4 0.0000 0.0000 0.0000 13.1788 0.0000 0.0000
# 5 0.0000 0.0000 0.0000 0.0000 23.4661 0.0000
# 6 0.0000 0.0000 0.0000 0.0000 0.0000 24.7609
#
#
#
# Elastic Compliance Matrix: (Units=1/GPa)
#
#
# Indices 1 2 3 4 5 6 
#
# 1 0.014604 -0.000727 -0.000399 0.000000 0.000000 0.000000
# 2 -0.000727 0.009529 -0.002102 0.000000 0.000000 0.000000
# 3 -0.000399 -0.002102 0.010969 0.000000 0.000000 0.000000
# 4 0.000000 0.000000 0.000000 0.075880 0.000000 0.000000
# 5 0.000000 0.000000 0.000000 0.000000 0.042615 0.000000
# 6 0.000000 0.000000 0.000000 0.000000 0.000000 0.040386
#
#
# Mechanical properties :
#
#
# Convention : Reuss Voigt Hill
#
# Bulk Modulus (GPa) = 34.90649 37.38359 36.14504
# Shear Modulus (GPa) = 23.81087 28.50210 26.15649
#
# Velocity S-wave (km/s) = 3.20248 3.50378 3.35651
# Velocity P-wave (km/s) = 5.35812 5.69829 5.53082
#
# Compressibility (1/GPa) = 0.02864796
#
# Stress axis : x y z
#
# Youngs Moduli (GPa) = 68.47262 104.93803 91.16394
#
# Poissons Ratio (x) = 0.07628 0.03633
# Poissons Ratio (y) = 0.04977 0.19163
# Poissons Ratio (z) = 0.02729 0.22059
#
# Static dielectric constant tensor:
#      x y z
#    x 2.061730 0.000000 0.000000 
#    y 0.000000 1.903020 0.000000 
#    z 0.000000 0.000000 1.856700 
# 
# From -- ./inp_files/6404.got.cif
#   From: 2010.05.17/outbox.cif.g08.bks.cpg/sg56_4_cif.got.tgz:6404.got - 2010.06.03 13:42:01.
