data_PCOD9432087
_publ_section_title
;
Structure prediction by ZEFSAII (Michael W. Deem and Ramdas Pophale) SiO2 
 PCOD9432087
Probable space group: P C C N
;
_chemical_formula_sum "Si O2"
_cell_formula_units_Z 40
_cell_length_a 8.164660
_cell_length_b 14.257167
_cell_length_c 13.836473
_cell_angle_alpha 90.000000
_cell_angle_beta 90.000000
_cell_angle_gamma 90.000000
_cell_volume 1610.633548
_symmetry_space_group_name_H-M "P C C N"
_symmetry_group_IT_number 56
_symmetry_cell_setting 'orthorhombic'
loop_
_space_group_symop_operation_xyz
x,y,z
1/2-x,1/2-y,z
1/2+x,-y,1/2-z
-x,1/2+y,1/2-z
-x,-y,-z
1/2+x,1/2+y,-z
1/2-x,y,1/2+z
x,1/2-y,1/2+z
loop_
_atom_site_type_symbol
_atom_site_label
_atom_site_fract_x
_atom_site_fract_y
_atom_site_fract_z
Si Si1 0.621410 0.365085 0.534881
Si Si2 0.331841 0.034719 0.669890
Si Si3 0.581226 0.698765 0.965573
Si Si4 0.625372 0.172025 0.366633
Si Si5 0.539693 0.532846 0.637076
O O1 0.553370 0.270073 0.580247
O O2 0.772179 0.351878 0.464223
O O3 0.657349 0.447643 0.608077
O O4 0.484969 0.404060 0.458242
O O5 0.403155 0.096237 0.582131
O O6 0.389345 0.083284 0.769261
O O7 0.399105 0.928223 0.681161
O O8 0.138219 0.015088 0.657045
O O9 0.750000 0.750000 0.944521
O O10 0.541540 0.701516 0.080715
O O11 0.750000 0.250000 0.320748
#
# Coordination Sequence:
#
# PCOD9432087 Si02
#       5
#     8   8   8   8   8
#     4   9  20  43  63  84 125 173 207 249 318 391
#     4  11  23  40  63  97 128 160 214 267 312 380
#     4  11  21  39  63  94 125 160 213 266 312 376
#     4   9  21  41  64  91 124 172 214 249 317 386
#     4  10  22  40  63  91 129 164 209 259 320 374
#
# _framework density 24.834947
#
# number of rings (size 3 to 8) (size 9 to 14) (size 15 to 20)
#    0.000    2.000    2.000    0.600    2.800    1.600 
#   10.800    1.000    0.000    0.000    0.000    0.000 
#    0.000    0.000    0.000    0.000    0.000    0.000 
#
# Total GULP energy -223002.091126 kJ/mol
# GULP energy per Si atom -5575.052278 kJ/mol
# Density = 2.477842 g / cm^3
# Si number density = 24.834947 Si / 1000 Ang^3
#
#
#
# Elastic Constant Matrix: (Units=GPa)
#
#
# Indices 1 2 3 4 5 6 
#
# 1 43.4746 0.6837 6.2005 0.0000 0.0000 0.0000
# 2 0.6837 108.9651 21.1163 0.0000 0.0000 0.0000
# 3 6.2005 21.1163 63.5848 0.0000 0.0000 0.0000
# 4 0.0000 0.0000 0.0000 19.6329 0.0000 0.0000
# 5 0.0000 0.0000 0.0000 0.0000 25.4534 0.0000
# 6 0.0000 0.0000 0.0000 0.0000 0.0000 27.3408
#
#
#
# Elastic Compliance Matrix: (Units=1/GPa)
#
#
# Indices 1 2 3 4 5 6 
#
# 1 0.023336 0.000315 -0.002380 0.000000 0.000000 0.000000
# 2 0.000315 0.009813 -0.003289 0.000000 0.000000 0.000000
# 3 -0.002380 -0.003289 0.017052 0.000000 0.000000 0.000000
# 4 0.000000 0.000000 0.000000 0.050935 0.000000 0.000000
# 5 0.000000 0.000000 0.000000 0.000000 0.039288 0.000000
# 6 0.000000 0.000000 0.000000 0.000000 0.000000 0.036575
#
#
# Mechanical properties :
#
#
# Convention : Reuss Voigt Hill
#
# Bulk Modulus (GPa) = 25.32222 30.22505 27.77364
# Shear Modulus (GPa) = 24.89147 27.02034 25.95591
#
# Velocity S-wave (km/s) = 3.16931 3.30206 3.23636
# Velocity P-wave (km/s) = 4.85912 5.17058 5.01727
#
# Compressibility (1/GPa) = 0.03949101
#
# Stress axis : x y z
#
# Youngs Moduli (GPa) = 42.85144 101.90831 58.64565
#
# Poissons Ratio (x) = -0.03209 0.13959
# Poissons Ratio (y) = -0.01349 0.19291
# Poissons Ratio (z) = 0.10200 0.33523
#
# Static dielectric constant tensor:
#      x y z
#    x 2.133520 0.000000 0.000000 
#    y 0.000000 2.114110 0.000000 
#    z 0.000000 0.000000 1.950440 
# 
# From -- ./inp_files/10391.got.cif
#   From: 2010.05.17/outbox.cif.g08.bks.cpg/sg56_6_cif.got.tgz:10391.got - 2010.06.03 13:42:01.
