data_PCOD9432986
_publ_section_title
;
Structure prediction by ZEFSAII (Michael W. Deem and Ramdas Pophale) SiO2 
 PCOD9432986
Probable space group: P C C N
;
_chemical_formula_sum "Si O2"
_cell_formula_units_Z 28
_cell_length_a 7.483410
_cell_length_b 17.236139
_cell_length_c 8.556168
_cell_angle_alpha 90.000000
_cell_angle_beta 90.000000
_cell_angle_gamma 90.000000
_cell_volume 1103.618142
_symmetry_space_group_name_H-M "P C C N"
_symmetry_group_IT_number 56
_symmetry_cell_setting 'orthorhombic'
loop_
_space_group_symop_operation_xyz
x,y,z
1/2-x,1/2-y,z
1/2+x,-y,1/2-z
-x,1/2+y,1/2-z
-x,-y,-z
1/2+x,1/2+y,-z
1/2-x,y,1/2+z
x,1/2-y,1/2+z
loop_
_atom_site_type_symbol
_atom_site_label
_atom_site_fract_x
_atom_site_fract_y
_atom_site_fract_z
Si Si1 0.750000 0.750000 0.100779
Si Si2 0.005125 0.634953 0.495670
Si Si3 0.852869 0.415584 0.171256
Si Si4 0.853023 0.911465 0.594598
O O1 0.581776 0.720636 0.998843
O O2 0.686471 0.829725 0.181791
O O3 0.830398 0.580407 0.495381
O O4 0.155710 0.613566 0.373003
O O5 0.087482 0.623065 0.668592
O O6 0.866440 0.508684 0.185689
O O7 0.984271 0.400217 0.024601
#
# Coordination Sequence:
#
# PCOD9432986 Si02
#       4
#     4   8   8   8
#     4   8  22  48  64  96 148 178 222 286 356 390
#     4  10  24  45  72 104 135 186 226 300 338 429
#     4  11  23  41  77 101 137 183 246 270 360 411
#     4   9  23  43  65 103 141 185 221 296 332 428
#
# _framework density 25.371095
#
# number of rings (size 3 to 8) (size 9 to 14) (size 15 to 20)
#    1.714    0.571    0.000    0.857    8.000    4.571 
#    0.000    2.857    0.000    1.714    0.000    0.000 
#    0.000    0.000    0.000    0.000    0.000    0.000 
#
# Total GULP energy -156438.228682 kJ/mol
# GULP energy per Si atom -5587.079596 kJ/mol
# Density = 2.531335 g / cm^3
# Si number density = 25.371095 Si / 1000 Ang^3
#
#
#
# Elastic Constant Matrix: (Units=GPa)
#
#
# Indices 1 2 3 4 5 6 
#
# 1 145.6196 39.3629 25.5444 0.0000 0.0000 0.0000
# 2 39.3629 172.4304 51.0441 0.0000 0.0000 0.0000
# 3 25.5444 51.0441 83.9268 0.0000 0.0000 0.0000
# 4 0.0000 0.0000 0.0000 -2.9192 0.0000 0.0000
# 5 0.0000 0.0000 0.0000 0.0000 2.2369 0.0000
# 6 0.0000 0.0000 0.0000 0.0000 0.0000 40.9270
#
#
#
# Elastic Compliance Matrix: (Units=1/GPa)
#
#
# Indices 1 2 3 4 5 6 
#
# 1 0.007472 -0.001259 -0.001508 0.000000 0.000000 0.000000
# 2 -0.001259 0.007285 -0.004047 0.000000 0.000000 0.000000
# 3 -0.001508 -0.004047 0.014836 0.000000 0.000000 0.000000
# 4 0.000000 0.000000 0.000000 -0.342561 0.000000 0.000000
# 5 0.000000 0.000000 0.000000 0.000000 0.447046 0.000000
# 6 0.000000 0.000000 0.000000 0.000000 0.000000 0.024434
#
#
# Mechanical properties :
#
#
# Convention : Reuss Voigt Hill
#
# Bulk Modulus (GPa) = 62.64524 70.43107 66.53815
# Shear Modulus (GPa) = 28.17489 27.11732 27.64610
#
# Velocity S-wave (km/s) = 3.33605 3.27284 3.30460
# Velocity P-wave (km/s) = 6.29159 6.48865 6.39088
#
# Compressibility (1/GPa) = 0.01596291
#
# Stress axis : x y z
#
# Youngs Moduli (GPa) = 133.82936 137.26698 67.40398
#
# Poissons Ratio (x) = 0.17285 0.10167
# Poissons Ratio (y) = 0.16852 0.27282
# Poissons Ratio (z) = 0.20187 0.55559
#
# Static dielectric constant tensor:
#      x y z
#    x 2.002830 0.000000 0.000000 
#    y 0.000000 1.994270 0.000000 
#    z 0.000000 0.000000 1.980340 
# 
# From -- ./inp_files/2382.got.cif
#   From: 2010.05.17/outbox.cif.g08.bks.cpg/sg56_2_cif.got.tgz:2382.got - 2010.06.03 13:42:01.
