data_PCOD9432613
_publ_section_title
;
Structure prediction by ZEFSAII (Michael W. Deem and Ramdas Pophale) SiO2 
 PCOD9432613
Probable space group: P C C N
;
_chemical_formula_sum "Si O2"
_cell_formula_units_Z 40
_cell_length_a 8.694458
_cell_length_b 8.300216
_cell_length_c 24.052413
_cell_angle_alpha 90.000000
_cell_angle_beta 90.000000
_cell_angle_gamma 90.000000
_cell_volume 1735.763536
_symmetry_space_group_name_H-M "P C C N"
_symmetry_group_IT_number 56
_symmetry_cell_setting 'orthorhombic'
loop_
_space_group_symop_operation_xyz
x,y,z
1/2-x,1/2-y,z
1/2+x,-y,1/2-z
-x,1/2+y,1/2-z
-x,-y,-z
1/2+x,1/2+y,-z
1/2-x,y,1/2+z
x,1/2-y,1/2+z
loop_
_atom_site_type_symbol
_atom_site_label
_atom_site_fract_x
_atom_site_fract_y
_atom_site_fract_z
Si Si1 0.935876 0.595191 0.678939
Si Si2 0.856545 0.406833 0.210921
Si Si3 0.924875 0.732701 0.367386
Si Si4 0.421386 0.312780 0.427298
Si Si5 0.913230 0.316543 0.032393
O O1 0.760844 0.554008 0.699132
O O2 0.952622 0.741658 0.634799
O O3 0.043140 0.599320 0.733245
O O4 0.997394 0.435312 0.648413
O O5 0.750000 0.250000 0.213384
O O6 0.976305 0.374093 0.161492
O O7 0.750000 0.750000 0.349180
O O8 0.944750 0.746725 0.432901
O O9 0.250000 0.250000 0.438966
O O10 0.411545 0.497567 0.448599
O O11 0.556848 0.260453 0.469345
O O12 0.750000 0.250000 0.052195
#
# Coordination Sequence:
#
# PCOD9432613 Si02
#       5
#     8   8   8   8   8
#     4  11  24  43  69  99 140 184 238 298 362 439
#     4  10  23  42  65 101 139 179 234 296 362 433
#     4  11  23  41  66  93 132 181 230 293 361 425
#     4  11  25  43  70  99 132 186 234 287 360 431
#     4  11  25  45  66  99 142 180 236 298 354 431
#
# _framework density 23.044613999999999
#
# number of rings (size 3 to 8) (size 9 to 14) (size 15 to 20)
#    0.000    1.200    0.000    6.000    0.000   16.000 
#    0.000    0.000    0.000    0.000    0.000    0.000 
#    0.000    0.000    0.000    0.000    0.000    0.000 
#
# Total GULP energy -223180.226948 kJ/mol
# GULP energy per Si atom -5579.505674 kJ/mol
# Density = 2.299216 g / cm^3
# Si number density = 23.044614 Si / 1000 Ang^3
#
#
#
# Elastic Constant Matrix: (Units=GPa)
#
#
# Indices 1 2 3 4 5 6 
#
# 1 135.8368 25.9307 48.1567 0.0000 0.0000 0.0000
# 2 25.9307 63.1540 47.0225 0.0000 0.0000 0.0000
# 3 48.1567 47.0225 140.8555 0.0000 0.0000 0.0000
# 4 0.0000 0.0000 0.0000 44.9789 0.0000 0.0000
# 5 0.0000 0.0000 0.0000 0.0000 43.9166 0.0000
# 6 0.0000 0.0000 0.0000 0.0000 0.0000 6.9456
#
#
#
# Elastic Compliance Matrix: (Units=1/GPa)
#
#
# Indices 1 2 3 4 5 6 
#
# 1 0.008523 -0.001770 -0.002323 0.000000 0.000000 0.000000
# 2 -0.001770 0.021440 -0.006552 0.000000 0.000000 0.000000
# 3 -0.002323 -0.006552 0.010081 0.000000 0.000000 0.000000
# 4 0.000000 0.000000 0.000000 0.022233 0.000000 0.000000
# 5 0.000000 0.000000 0.000000 0.000000 0.022770 0.000000
# 6 0.000000 0.000000 0.000000 0.000000 0.000000 0.143975
#
#
# Mechanical properties :
#
#
# Convention : Reuss Voigt Hill
#
# Bulk Modulus (GPa) = 53.32339 64.67403 58.99871
# Shear Modulus (GPa) = 19.48833 33.75066 26.61950
#
# Velocity S-wave (km/s) = 2.91121 3.83113 3.40241
# Velocity P-wave (km/s) = 5.87279 6.90621 6.41036
#
# Compressibility (1/GPa) = 0.01875349
#
# Stress axis : x y z
#
# Youngs Moduli (GPa) = 117.32643 46.64277 99.19573
#
# Poissons Ratio (x) = 0.08255 0.23045
# Poissons Ratio (y) = 0.20765 0.64995
# Poissons Ratio (z) = 0.27257 0.30561
#
# Static dielectric constant tensor:
#      x y z
#    x 1.791170 0.000000 0.000000 
#    y 0.000000 1.925770 0.000000 
#    z 0.000000 0.000000 1.961530 
# 
# From -- ./inp_files/20297.got.cif
#   From: 2010.05.17/outbox.cif.g08.bks.cpg/sg56_11_cif.got.tgz:20297.got - 2010.06.03 13:42:01.
