data_PCOD9432121
_publ_section_title
;
Structure prediction by ZEFSAII (Michael W. Deem and Ramdas Pophale) SiO2 
 PCOD9432121
Probable space group: P C C N
;
_chemical_formula_sum "Si O2"
_cell_formula_units_Z 64
_cell_length_a 8.323889
_cell_length_b 27.389049
_cell_length_c 12.515760
_cell_angle_alpha 90.000000
_cell_angle_beta 90.000000
_cell_angle_gamma 90.000000
_cell_volume 2853.385565
_symmetry_space_group_name_H-M "P C C N"
_symmetry_group_IT_number 56
_symmetry_cell_setting 'orthorhombic'
loop_
_space_group_symop_operation_xyz
x,y,z
1/2-x,1/2-y,z
1/2+x,-y,1/2-z
-x,1/2+y,1/2-z
-x,-y,-z
1/2+x,1/2+y,-z
1/2-x,y,1/2+z
x,1/2-y,1/2+z
loop_
_atom_site_type_symbol
_atom_site_label
_atom_site_fract_x
_atom_site_fract_y
_atom_site_fract_z
Si Si1 0.343209 0.613567 0.212529
Si Si2 0.898732 0.947124 0.743010
Si Si3 0.901793 0.774037 0.319120
Si Si4 0.133184 0.938373 0.546503
Si Si5 0.639179 0.207348 0.810305
Si Si6 0.203194 0.357817 0.325425
Si Si7 0.441086 0.153024 0.995767
Si Si8 0.802720 0.027911 0.147145
O O1 0.271110 0.593890 0.101300
O O2 0.257270 0.665459 0.233890
O O3 0.531823 0.617870 0.195971
O O4 0.282678 0.574849 0.299097
O O5 0.836440 0.891429 0.735234
O O6 0.022943 0.956302 0.644398
O O7 0.006964 0.961739 0.844388
O O8 0.749517 0.981806 0.718076
O O9 0.750000 0.750000 0.377277
O O10 0.822175 0.803676 0.220594
O O11 0.962787 0.814899 0.399977
O O12 0.030196 0.734910 0.277639
O O13 0.221815 0.975872 0.469137
O O14 0.017934 0.899932 0.486969
O O15 0.750000 0.250000 0.859138
O O16 0.530372 0.181420 0.899205
O O17 0.263038 0.355116 0.447573
#
# Coordination Sequence:
#
# PCOD9432121 Si02
#       8
#     8   8   8   8   8   8   8   8
#     4  10  22  40  66  92 125 169 211 263 325 375
#     4  10  23  40  66  95 130 169 209 265 324 376
#     4  12  25  38  66  91 125 172 217 256 324 392
#     4   9  21  41  64  91 128 163 211 264 314 381
#     4  11  23  43  61  90 128 165 210 273 318 378
#     4  11  22  44  61  91 134 165 209 271 319 379
#     4  10  24  42  59  94 125 165 211 264 324 378
#     4  11  21  41  66  95 129 167 215 260 321 385
#
# _framework density 22.429496
#
# number of rings (size 3 to 8) (size 9 to 14) (size 15 to 20)
#    0.000    1.500    2.500    2.625    1.750    1.500 
#    2.250    8.125    0.000    0.000    0.000    0.000 
#    0.000    0.000    0.000    0.000    0.000    0.000 
#
# Total GULP energy -357364.474690 kJ/mol
# GULP energy per Si atom -5583.819917 kJ/mol
# Density = 2.237845 g / cm^3
# Si number density = 22.429496 Si / 1000 Ang^3
#
#
#
# Elastic Constant Matrix: (Units=GPa)
#
#
# Indices 1 2 3 4 5 6 
#
# 1 100.8759 14.3431 18.5586 0.0000 0.0000 0.0000
# 2 14.3431 70.5131 -0.0568 0.0000 0.0000 0.0000
# 3 18.5586 -0.0568 40.9887 0.0000 0.0000 0.0000
# 4 0.0000 0.0000 0.0000 28.8561 0.0000 0.0000
# 5 0.0000 0.0000 0.0000 0.0000 16.6069 0.0000
# 6 0.0000 0.0000 0.0000 0.0000 0.0000 35.6440
#
#
#
# Elastic Compliance Matrix: (Units=1/GPa)
#
#
# Indices 1 2 3 4 5 6 
#
# 1 0.011168 -0.002276 -0.005060 0.000000 0.000000 0.000000
# 2 -0.002276 0.014645 0.001051 0.000000 0.000000 0.000000
# 3 -0.005060 0.001051 0.026689 0.000000 0.000000 0.000000
# 4 0.000000 0.000000 0.000000 0.034655 0.000000 0.000000
# 5 0.000000 0.000000 0.000000 0.000000 0.060216 0.000000
# 6 0.000000 0.000000 0.000000 0.000000 0.000000 0.028055
#
#
# Mechanical properties :
#
#
# Convention : Reuss Voigt Hill
#
# Bulk Modulus (GPa) = 25.04182 30.89640 27.96911
# Shear Modulus (GPa) = 24.83750 28.19025 26.51387
#
# Velocity S-wave (km/s) = 3.33131 3.54904 3.44190
# Velocity P-wave (km/s) = 5.09762 5.53164 5.31906
#
# Compressibility (1/GPa) = 0.03993320
#
# Stress axis : x y z
#
# Youngs Moduli (GPa) = 89.54501 68.28039 37.46826
#
# Poissons Ratio (x) = 0.15538 0.18957
# Poissons Ratio (y) = 0.20377 -0.03937
# Poissons Ratio (z) = 0.45306 -0.07174
#
# Static dielectric constant tensor:
#      x y z
#    x 1.865230 0.000000 0.000000 
#    y 0.000000 1.841790 0.000000 
#    z 0.000000 0.000000 1.850880 
# 
# From -- ./inp_files/6609.got.cif
#   From: 2010.05.17/outbox.cif.g08.bks.cpg/sg56_4_cif.got.tgz:6609.got - 2010.06.03 13:42:01.
