data_PCOD9432428
_publ_section_title
;
Structure prediction by ZEFSAII (Michael W. Deem and Ramdas Pophale) SiO2 
 PCOD9432428
Probable space group: P C C N
;
_chemical_formula_sum "Si O2"
_cell_formula_units_Z 60
_cell_length_a 11.638379
_cell_length_b 11.681556
_cell_length_c 19.594622
_cell_angle_alpha 90.000000
_cell_angle_beta 90.000000
_cell_angle_gamma 90.000000
_cell_volume 2663.974608
_symmetry_space_group_name_H-M "P C C N"
_symmetry_group_IT_number 56
_symmetry_cell_setting 'orthorhombic'
loop_
_space_group_symop_operation_xyz
x,y,z
1/2-x,1/2-y,z
1/2+x,-y,1/2-z
-x,1/2+y,1/2-z
-x,-y,-z
1/2+x,1/2+y,-z
1/2-x,y,1/2+z
x,1/2-y,1/2+z
loop_
_atom_site_type_symbol
_atom_site_label
_atom_site_fract_x
_atom_site_fract_y
_atom_site_fract_z
Si Si1 0.250000 0.750000 0.460084
Si Si2 0.163742 0.952410 0.553699
Si Si3 0.625925 0.803728 0.001026
Si Si4 0.639966 0.509066 0.841941
Si Si5 0.048126 0.128091 0.362081
Si Si6 0.240281 0.115701 0.782711
Si Si7 0.988745 0.324753 0.261449
Si Si8 0.969733 0.202801 0.118390
O O1 0.183800 0.840065 0.508391
O O2 0.342757 0.810879 0.411641
O O3 0.058295 0.941448 0.606909
O O4 0.135859 0.059871 0.506255
O O5 0.280954 0.976329 0.594503
O O6 0.750000 0.750000 0.992314
O O7 0.545759 0.756136 0.942145
O O8 0.580885 0.784062 0.077184
O O9 0.712038 0.590934 0.792190
O O10 0.610437 0.397500 0.797283
O O11 0.529375 0.582608 0.863195
O O12 0.164831 0.065036 0.335752
O O13 0.002501 0.203227 0.299435
O O14 0.250000 0.250000 0.798158
O O15 0.103819 0.100083 0.776834
O O16 0.973040 0.289532 0.182823
#
# Coordination Sequence:
#
# PCOD9432428 Si02
#       8
#     4   8   8   8   8   8   8   8
#     4  12  30  50  70 108 160 192 252 306 384 448
#     4  12  27  47  73 105 148 198 242 307 375 445
#     4  12  25  45  78 105 140 199 248 299 370 451
#     4  12  26  44  77 106 146 196 240 310 379 448
#     4  11  24  46  73 107 142 188 247 304 365 448
#     4  10  22  44  71 100 140 182 241 301 358 442
#     4  11  26  45  73 107 146 189 249 306 380 443
#     4  12  27  48  73 107 151 194 248 314 374 451
#
# _framework density 22.522738
#
# number of rings (size 3 to 8) (size 9 to 14) (size 15 to 20)
#    0.000    0.533    5.333    3.200    3.733    4.800 
#    0.000    0.000    0.000    0.000    0.000    0.000 
#    0.000    0.000    0.000    0.000    0.000    0.000 
#
# Total GULP energy -335478.600545 kJ/mol
# GULP energy per Si atom -5591.310009 kJ/mol
# Density = 2.247147 g / cm^3
# Si number density = 22.522738 Si / 1000 Ang^3
#
#
#
# Elastic Constant Matrix: (Units=GPa)
#
#
# Indices 1 2 3 4 5 6 
#
# 1 76.8483 1.1027 16.9679 0.0000 0.0000 0.0000
# 2 1.1027 34.0401 4.0747 0.0000 0.0000 0.0000
# 3 16.9679 4.0747 111.4359 0.0000 0.0000 0.0000
# 4 0.0000 0.0000 0.0000 9.9819 0.0000 0.0000
# 5 0.0000 0.0000 0.0000 0.0000 12.1831 0.0000
# 6 0.0000 0.0000 0.0000 0.0000 0.0000 29.2633
#
#
#
# Elastic Compliance Matrix: (Units=1/GPa)
#
#
# Indices 1 2 3 4 5 6 
#
# 1 0.013467 -0.000192 -0.002043 0.000000 0.000000 0.000000
# 2 -0.000192 0.029509 -0.001050 0.000000 0.000000 0.000000
# 3 -0.002043 -0.001050 0.009323 0.000000 0.000000 0.000000
# 4 0.000000 0.000000 0.000000 0.100181 0.000000 0.000000
# 5 0.000000 0.000000 0.000000 0.000000 0.082081 0.000000
# 6 0.000000 0.000000 0.000000 0.000000 0.000000 0.034172
#
#
# Mechanical properties :
#
#
# Convention : Reuss Voigt Hill
#
# Bulk Modulus (GPa) = 21.86796 29.62387 25.74591
# Shear Modulus (GPa) = 17.20897 23.63094 20.41995
#
# Velocity S-wave (km/s) = 2.76718 3.24266 3.01431
# Velocity P-wave (km/s) = 4.46543 5.21548 4.85496
#
# Compressibility (1/GPa) = 0.04572901
#
# Stress axis : x y z
#
# Youngs Moduli (GPa) = 74.25781 33.88801 107.25803
#
# Poissons Ratio (x) = 0.00649 0.21918
# Poissons Ratio (y) = 0.01423 0.11260
# Poissons Ratio (z) = 0.15175 0.03558
#
# Static dielectric constant tensor:
#      x y z
#    x 1.882400 0.000000 0.000000 
#    y 0.000000 1.833020 0.000000 
#    z 0.000000 0.000000 1.798510 
# 
# From -- ./inp_files/18806.got.cif
#   From: 2010.05.17/outbox.cif.g08.bks.cpg/sg56_10_cif.got.tgz:18806.got - 2010.06.03 13:42:01.
