data_PCOD9432673
_publ_section_title
;
Structure prediction by ZEFSAII (Michael W. Deem and Ramdas Pophale) SiO2 
 PCOD9432673
Probable space group: P C C N
;
_chemical_formula_sum "Si O2"
_cell_formula_units_Z 24
_cell_length_a 8.472019
_cell_length_b 8.842665
_cell_length_c 12.538766
_cell_angle_alpha 90.000000
_cell_angle_beta 90.000000
_cell_angle_gamma 90.000000
_cell_volume 939.344487
_symmetry_space_group_name_H-M "P C C N"
_symmetry_group_IT_number 56
_symmetry_cell_setting 'orthorhombic'
loop_
_space_group_symop_operation_xyz
x,y,z
1/2-x,1/2-y,z
1/2+x,-y,1/2-z
-x,1/2+y,1/2-z
-x,-y,-z
1/2+x,1/2+y,-z
1/2-x,y,1/2+z
x,1/2-y,1/2+z
loop_
_atom_site_type_symbol
_atom_site_label
_atom_site_fract_x
_atom_site_fract_y
_atom_site_fract_z
Si Si1 0.631197 0.112099 0.945080
Si Si2 0.437405 0.447748 0.113791
Si Si3 0.069552 0.289035 0.268970
O O1 0.750000 0.250000 0.993890
O O2 0.756311 0.996817 0.892067
O O3 0.536701 0.205109 0.856728
O O4 0.500000 0.000000 0.000000
O O5 0.460547 0.276362 0.151047
O O6 0.524860 0.540547 0.206208
O O7 0.500000 0.500000 0.000000
O O8 0.250000 0.250000 0.294188
#
# Coordination Sequence:
#
# PCOD9432673 Si02
#       3
#     8   8   8
#     4  10  23  43  69 105 146 194 247 308 377 451
#     4  11  25  45  72 105 143 187 239 304 372 449
#     4  11  24  44  69 100 142 187 240 300 368 444
#
# _framework density 25.549731999999999
#
# number of rings (size 3 to 8) (size 9 to 14) (size 15 to 20)
#    0.000    1.333    0.000    4.000    0.000   12.000 
#    0.000   13.333    0.000    0.000    0.000    0.000 
#    0.000    0.000    0.000    0.000    0.000    0.000 
#
# Total GULP energy -133980.964984 kJ/mol
# GULP energy per Si atom -5582.540208 kJ/mol
# Density = 2.549158 g / cm^3
# Si number density = 25.549732 Si / 1000 Ang^3
#
#
#
# Elastic Constant Matrix: (Units=GPa)
#
#
# Indices 1 2 3 4 5 6 
#
# 1 186.2135 35.9204 58.4767 0.0000 0.0000 0.0000
# 2 35.9204 162.1019 59.4063 0.0000 0.0000 0.0000
# 3 58.4767 59.4063 93.1303 0.0000 0.0000 0.0000
# 4 0.0000 0.0000 0.0000 41.8507 0.0000 0.0000
# 5 0.0000 0.0000 0.0000 0.0000 41.9306 0.0000
# 6 0.0000 0.0000 0.0000 0.0000 0.0000 58.5610
#
#
#
# Elastic Compliance Matrix: (Units=1/GPa)
#
#
# Indices 1 2 3 4 5 6 
#
# 1 0.006690 0.000074 -0.004248 0.000000 0.000000 0.000000
# 2 0.000074 0.008052 -0.005183 0.000000 0.000000 0.000000
# 3 -0.004248 -0.005183 0.016711 0.000000 0.000000 0.000000
# 4 0.000000 0.000000 0.000000 0.023894 0.000000 0.000000
# 5 0.000000 0.000000 0.000000 0.000000 0.023849 0.000000
# 6 0.000000 0.000000 0.000000 0.000000 0.000000 0.017076
#
#
# Mechanical properties :
#
#
# Convention : Reuss Voigt Hill
#
# Bulk Modulus (GPa) = 78.49436 83.22804 80.86120
# Shear Modulus (GPa) = 41.93509 47.64461 44.78985
#
# Velocity S-wave (km/s) = 4.05571 4.32299 4.19148
# Velocity P-wave (km/s) = 7.26089 7.58705 7.42576
#
# Compressibility (1/GPa) = 0.01273977
#
# Stress axis : x y z
#
# Youngs Moduli (GPa) = 149.48042 124.19488 59.84071
#
# Poissons Ratio (x) = -0.00924 0.25420
# Poissons Ratio (y) = -0.01112 0.31015
# Poissons Ratio (z) = 0.63499 0.64368
#
# Static dielectric constant tensor:
#      x y z
#    x 2.068050 0.000000 0.000000 
#    y 0.000000 1.934670 0.000000 
#    z 0.000000 0.000000 2.035810 
# 
# From -- ./inp_files/9922.got.cif
#   From: 2010.05.17/outbox.cif.g08.bks.cpg/sg56_5_cif.got.tgz:9922.got - 2010.06.03 13:42:01.
