data_PCOD9432295
_publ_section_title
;
Structure prediction by ZEFSAII (Michael W. Deem and Ramdas Pophale) SiO2 
 PCOD9432295
Probable space group: P C C N
;
_chemical_formula_sum "Si O2"
_cell_formula_units_Z 40
_cell_length_a 13.944176
_cell_length_b 7.701181
_cell_length_c 14.398676
_cell_angle_alpha 90.000000
_cell_angle_beta 90.000000
_cell_angle_gamma 90.000000
_cell_volume 1546.225195
_symmetry_space_group_name_H-M "P C C N"
_symmetry_group_IT_number 56
_symmetry_cell_setting 'orthorhombic'
loop_
_space_group_symop_operation_xyz
x,y,z
1/2-x,1/2-y,z
1/2+x,-y,1/2-z
-x,1/2+y,1/2-z
-x,-y,-z
1/2+x,1/2+y,-z
1/2-x,y,1/2+z
x,1/2-y,1/2+z
loop_
_atom_site_type_symbol
_atom_site_label
_atom_site_fract_x
_atom_site_fract_y
_atom_site_fract_z
Si Si1 0.559689 0.843496 0.549684
Si Si2 0.045451 0.785908 0.238423
Si Si3 0.788873 0.977626 0.819304
Si Si4 0.399219 0.129744 0.117202
Si Si5 0.191838 0.921736 0.862780
O O1 0.525851 0.776249 0.650338
O O2 0.563397 0.679058 0.482991
O O3 0.500000 0.000000 0.500000
O O4 0.661140 0.941123 0.560724
O O5 0.095603 0.648398 0.309333
O O6 0.985969 0.903614 0.312218
O O7 0.136651 0.867386 0.185889
O O8 0.691562 0.997374 0.878593
O O9 0.849671 0.808813 0.845798
O O10 0.751345 0.974517 0.713937
O O11 0.250000 0.750000 0.892102
#
# Coordination Sequence:
#
# PCOD9432295 Si02
#       5
#     8   8   8   8   8
#     4  12  22  43  69 101 138 188 237 289 350 429
#     4  11  21  42  72  97 144 183 230 297 358 413
#     4  10  22  43  65  98 141 183 233 289 349 422
#     4  11  23  42  69 100 138 187 234 290 355 420
#     4  10  22  42  69 100 140 193 231 290 360 419
#
# _framework density 25.869453
#
# number of rings (size 3 to 8) (size 9 to 14) (size 15 to 20)
#    0.000    1.200    6.000    0.000    0.000    0.000 
#   10.800    1.000    0.000    0.000    0.000    1.400 
#    0.000    0.000    0.000    0.000    0.000    0.000 
#
# Total GULP energy -223472.483805 kJ/mol
# GULP energy per Si atom -5586.812095 kJ/mol
# Density = 2.581057 g / cm^3
# Si number density = 25.869453 Si / 1000 Ang^3
#
#
#
# Elastic Constant Matrix: (Units=GPa)
#
#
# Indices 1 2 3 4 5 6 
#
# 1 88.4862 30.4183 39.0761 0.0000 0.0000 0.0000
# 2 30.4183 81.9738 26.0783 0.0000 0.0000 0.0000
# 3 39.0761 26.0783 125.0792 0.0000 0.0000 0.0000
# 4 0.0000 0.0000 0.0000 -6.6637 0.0000 0.0000
# 5 0.0000 0.0000 0.0000 0.0000 38.9847 0.0000
# 6 0.0000 0.0000 0.0000 0.0000 0.0000 39.5699
#
#
#
# Elastic Compliance Matrix: (Units=1/GPa)
#
#
# Indices 1 2 3 4 5 6 
#
# 1 0.014327 -0.004169 -0.003607 0.000000 0.000000 0.000000
# 2 -0.004169 0.014279 -0.001675 0.000000 0.000000 0.000000
# 3 -0.003607 -0.001675 0.009471 0.000000 0.000000 0.000000
# 4 0.000000 0.000000 0.000000 -0.150068 0.000000 0.000000
# 5 0.000000 0.000000 0.000000 0.000000 0.025651 0.000000
# 6 0.000000 0.000000 0.000000 0.000000 0.000000 0.025272
#
#
# Mechanical properties :
#
#
# Convention : Reuss Voigt Hill
#
# Bulk Modulus (GPa) = 52.14833 54.07606 53.11219
# Shear Modulus (GPa) = -139.76141 27.70928 -56.02607
#
# Velocity S-wave (km/s) = -7.35819 3.27635 -4.65878
# Velocity P-wave (km/s) = 7.21031 5.93813 2.89198
#
# Compressibility (1/GPa) = 0.01917607
#
# Stress axis : x y z
#
# Youngs Moduli (GPa) = 69.79780 70.03405 105.58708
#
# Poissons Ratio (x) = 0.29197 0.38082
# Poissons Ratio (y) = 0.29099 0.17682
# Poissons Ratio (z) = 0.25174 0.11728
#
# Static dielectric constant tensor:
#      x y z
#    x 2.153890 0.000000 0.000000 
#    y 0.000000 2.144950 0.000000 
#    z 0.000000 0.000000 2.014550 
# 
# From -- ./inp_files/12054.got.cif
#   From: 2010.05.17/outbox.cif.g08.bks.cpg/sg56_7_cif.got.tgz:12054.got - 2010.06.03 13:42:01.
