data_PCOD9432824
_publ_section_title
;
Structure prediction by ZEFSAII (Michael W. Deem and Ramdas Pophale) SiO2 
 PCOD9432824
Probable space group: P C C N
;
_chemical_formula_sum "Si O2"
_cell_formula_units_Z 44
_cell_length_a 14.372435
_cell_length_b 15.188124
_cell_length_c 8.439725
_cell_angle_alpha 90.000000
_cell_angle_beta 90.000000
_cell_angle_gamma 90.000000
_cell_volume 1842.310313
_symmetry_space_group_name_H-M "P C C N"
_symmetry_group_IT_number 56
_symmetry_cell_setting 'orthorhombic'
loop_
_space_group_symop_operation_xyz
x,y,z
1/2-x,1/2-y,z
1/2+x,-y,1/2-z
-x,1/2+y,1/2-z
-x,-y,-z
1/2+x,1/2+y,-z
1/2-x,y,1/2+z
x,1/2-y,1/2+z
loop_
_atom_site_type_symbol
_atom_site_label
_atom_site_fract_x
_atom_site_fract_y
_atom_site_fract_z
Si Si1 0.868081 0.965961 0.973826
Si Si2 0.750000 0.750000 0.217192
Si Si3 0.123527 0.347220 0.036169
Si Si4 0.670260 0.486525 0.609214
Si Si5 0.537275 0.358894 0.023852
Si Si6 0.421251 0.690476 0.337489
O O1 0.925134 0.874492 0.973880
O O2 0.852099 0.990612 0.790799
O O3 0.771147 0.976545 0.062867
O O4 0.927215 0.042852 0.057107
O O5 0.693713 0.679962 0.323721
O O6 0.827173 0.699010 0.113780
O O7 0.020539 0.315068 0.073942
O O8 0.110355 0.450973 0.005005
O O9 0.648938 0.382641 0.592582
O O10 0.594270 0.293837 0.137856
O O11 0.563805 0.331444 0.845946
#
# Coordination Sequence:
#
# PCOD9432824 Si02
#       6
#     8   4   8   8   8   8
#     4  10  25  47  69  99 139 181 226 282 340 405
#     4  10  24  38  64  94 136 182 224 278 348 402
#     4  11  23  40  60  98 132 174 220 280 336 412
#     4  11  25  43  68  98 134 178 224 278 342 409
#     4  10  25  47  69  99 139 181 226 282 340 405
#     4  11  25  43  68  98 134 178 224 278 342 409
#
# _framework density 23.883056
#
# number of rings (size 3 to 8) (size 9 to 14) (size 15 to 20)
#    0.000    1.455    0.000    2.727   15.273    2.182 
#    0.000    3.636    0.000    0.000    0.000    0.000 
#    0.000    0.000    0.000    0.000    0.000    0.000 
#
# Total GULP energy -245897.700596 kJ/mol
# GULP energy per Si atom -5588.584104 kJ/mol
# Density = 2.382870 g / cm^3
# Si number density = 23.883056 Si / 1000 Ang^3
#
#
#
# Elastic Constant Matrix: (Units=GPa)
#
#
# Indices 1 2 3 4 5 6 
#
# 1 33.5295 5.5321 7.8114 0.0000 0.0000 0.0000
# 2 5.5321 122.5334 19.0316 0.0000 0.0000 0.0000
# 3 7.8114 19.0316 59.7114 0.0000 0.0000 0.0000
# 4 0.0000 0.0000 0.0000 24.2653 0.0000 0.0000
# 5 0.0000 0.0000 0.0000 0.0000 0.2981 0.0000
# 6 0.0000 0.0000 0.0000 0.0000 0.0000 32.2659
#
#
#
# Elastic Compliance Matrix: (Units=1/GPa)
#
#
# Indices 1 2 3 4 5 6 
#
# 1 0.030837 -0.000806 -0.003777 0.000000 0.000000 0.000000
# 2 -0.000806 0.008607 -0.002638 0.000000 0.000000 0.000000
# 3 -0.003777 -0.002638 0.018082 0.000000 0.000000 0.000000
# 4 0.000000 0.000000 0.000000 0.041211 0.000000 0.000000
# 5 0.000000 0.000000 0.000000 0.000000 3.355116 0.000000
# 6 0.000000 0.000000 0.000000 0.000000 0.000000 0.030992
#
#
# Mechanical properties :
#
#
# Convention : Reuss Voigt Hill
#
# Bulk Modulus (GPa) = 23.20994 31.16937 27.18966
# Shear Modulus (GPa) = 1.42302 23.59248 12.50775
#
# Velocity S-wave (km/s) = 0.77274 3.14639 2.29095
# Velocity P-wave (km/s) = 3.24583 5.12629 4.29036
#
# Compressibility (1/GPa) = 0.04308498
#
# Stress axis : x y z
#
# Youngs Moduli (GPa) = 32.42816 116.18276 55.30311
#
# Poissons Ratio (x) = 0.09359 0.20890
# Poissons Ratio (y) = 0.02612 0.14589
# Poissons Ratio (z) = 0.12249 0.30648
#
# Static dielectric constant tensor:
#      x y z
#    x -10.450490 0.000000 0.000000 
#    y 0.000000 2.135680 0.000000 
#    z 0.000000 0.000000 1.885150 
# 
# From -- ./inp_files/3339.got.cif
#   From: 2010.05.17/outbox.cif.g08.bks.cpg/sg56_2_cif.got.tgz:3339.got - 2010.06.03 13:42:01.
