data_PCOD9432247
_publ_section_title
;
Structure prediction by ZEFSAII (Michael W. Deem and Ramdas Pophale) SiO2 
 PCOD9432247
Probable space group: P C C N
;
_chemical_formula_sum "Si O2"
_cell_formula_units_Z 32
_cell_length_a 7.346705
_cell_length_b 7.130013
_cell_length_c 30.354380
_cell_angle_alpha 90.000000
_cell_angle_beta 90.000000
_cell_angle_gamma 90.000000
_cell_volume 1590.026234
_symmetry_space_group_name_H-M "P C C N"
_symmetry_group_IT_number 56
_symmetry_cell_setting 'orthorhombic'
loop_
_space_group_symop_operation_xyz
x,y,z
1/2-x,1/2-y,z
1/2+x,-y,1/2-z
-x,1/2+y,1/2-z
-x,-y,-z
1/2+x,1/2+y,-z
1/2-x,y,1/2+z
x,1/2-y,1/2+z
loop_
_atom_site_type_symbol
_atom_site_label
_atom_site_fract_x
_atom_site_fract_y
_atom_site_fract_z
Si Si1 0.750000 0.750000 0.249112
Si Si2 0.092131 0.597252 0.303683
Si Si3 0.413897 0.115949 0.604566
Si Si4 0.536887 0.782713 0.489500
Si Si5 0.250000 0.750000 0.057394
O O1 0.591179 0.837548 0.279085
O O2 0.660678 0.592682 0.218418
O O3 0.250000 0.750000 0.297688
O O4 0.047440 0.577707 0.355340
O O5 0.250000 0.250000 0.620164
O O6 0.499533 0.227013 0.562747
O O7 0.329284 0.920486 0.586220
O O8 0.750000 0.750000 0.496624
O O9 0.407224 0.676474 0.523857
O O10 0.500000 0.000000 0.500000
#
# Coordination Sequence:
#
# PCOD9432247 Si02
#       5
#     4   8   8   8   4
#     4  12  26  48  76 102 134 178 220 286 354 418
#     4  12  26  46  71 103 135 174 227 281 350 415
#     4  10  23  41  66  99 132 177 227 279 331 403
#     4   9  20  39  60  93 129 177 221 266 328 383
#     4  10  22  42  64  94 144 178 226 280 328 394
#
# _framework density 20.125453
#
# number of rings (size 3 to 8) (size 9 to 14) (size 15 to 20)
#    0.000    1.500    3.750    0.000    1.750   13.000 
#   13.500    0.000    0.000    0.000    0.000    0.000 
#    0.000    0.000    0.000    0.000    0.000    0.000 
#
# Total GULP energy -178764.204315 kJ/mol
# GULP energy per Si atom -5586.381385 kJ/mol
# Density = 2.007965 g / cm^3
# Si number density = 20.125453 Si / 1000 Ang^3
#
#
#
# Elastic Constant Matrix: (Units=GPa)
#
#
# Indices 1 2 3 4 5 6 
#
# 1 135.9858 52.5994 73.2688 0.0000 0.0000 0.0000
# 2 52.5994 97.7563 46.7847 0.0000 0.0000 0.0000
# 3 73.2688 46.7847 123.2912 0.0000 0.0000 0.0000
# 4 0.0000 0.0000 0.0000 -28.8617 0.0000 0.0000
# 5 0.0000 0.0000 0.0000 0.0000 55.2183 0.0000
# 6 0.0000 0.0000 0.0000 0.0000 0.0000 45.8659
#
#
#
# Elastic Compliance Matrix: (Units=1/GPa)
#
#
# Indices 1 2 3 4 5 6 
#
# 1 0.011798 -0.003657 -0.005624 0.000000 0.000000 0.000000
# 2 -0.003657 0.013633 -0.003000 0.000000 0.000000 0.000000
# 3 -0.005624 -0.003000 0.012591 0.000000 0.000000 0.000000
# 4 0.000000 0.000000 0.000000 -0.034648 0.000000 0.000000
# 5 0.000000 0.000000 0.000000 0.000000 0.018110 0.000000
# 6 0.000000 0.000000 0.000000 0.000000 0.000000 0.021803
#
#
# Mechanical properties :
#
#
# Convention : Reuss Voigt Hill
#
# Bulk Modulus (GPa) = 74.28735 78.03770 76.16253
# Shear Modulus (GPa) = 69.12245 26.73654 47.92949
#
# Velocity S-wave (km/s) = 5.86689 3.64881 4.88539
# Velocity P-wave (km/s) = 9.10418 7.52406 8.35157
#
# Compressibility (1/GPa) = 0.01346124
#
# Stress axis : x y z
#
# Youngs Moduli (GPa) = 84.75852 73.35192 79.41954
#
# Poissons Ratio (x) = 0.26823 0.44664
# Poissons Ratio (y) = 0.30994 0.23827
# Poissons Ratio (z) = 0.47666 0.22006
#
# Static dielectric constant tensor:
#      x y z
#    x 1.722470 0.000000 0.000000 
#    y 0.000000 1.752380 0.000000 
#    z 0.000000 0.000000 1.719400 
# 
# From -- ./inp_files/22743.got.cif
#   From: 2010.05.17/outbox.cif.g08.bks.cpg/sg56_12_cif.got.tgz:22743.got - 2010.06.03 13:42:01.
