data_PCOD9432173
_publ_section_title
;
Structure prediction by ZEFSAII (Michael W. Deem and Ramdas Pophale) SiO2 
 PCOD9432173
Probable space group: P C C N
;
_chemical_formula_sum "Si O2"
_cell_formula_units_Z 60
_cell_length_a 8.932995
_cell_length_b 11.910523
_cell_length_c 25.234009
_cell_angle_alpha 90.000000
_cell_angle_beta 90.000000
_cell_angle_gamma 90.000000
_cell_volume 2684.813832
_symmetry_space_group_name_H-M "P C C N"
_symmetry_group_IT_number 56
_symmetry_cell_setting 'orthorhombic'
loop_
_space_group_symop_operation_xyz
x,y,z
1/2-x,1/2-y,z
1/2+x,-y,1/2-z
-x,1/2+y,1/2-z
-x,-y,-z
1/2+x,1/2+y,-z
1/2-x,y,1/2+z
x,1/2-y,1/2+z
loop_
_atom_site_type_symbol
_atom_site_label
_atom_site_fract_x
_atom_site_fract_y
_atom_site_fract_z
Si Si1 0.016650 0.651148 0.282299
Si Si2 0.788223 0.530477 0.769714
Si Si3 0.903460 0.602557 0.516576
Si Si4 0.914160 0.512153 0.057047
Si Si5 0.250000 0.250000 0.068691
Si Si6 0.524368 0.650880 0.358146
Si Si7 0.378940 0.684563 0.190626
Si Si8 0.928315 0.756758 0.604172
O O1 0.124191 0.540441 0.276396
O O2 0.090517 0.740863 0.242381
O O3 0.846031 0.621839 0.262623
O O4 0.013538 0.723252 0.336849
O O5 0.921035 0.579826 0.806789
O O6 0.689035 0.435684 0.798850
O O7 0.750697 0.550918 0.540035
O O8 0.864055 0.686473 0.469159
O O9 0.990577 0.676583 0.559007
O O10 0.000000 0.500000 0.500000
O O11 0.977557 0.616685 0.091937
O O12 0.914961 0.409943 0.099760
O O13 0.000000 0.500000 0.000000
O O14 0.172045 0.338970 0.106204
O O15 0.250000 0.750000 0.158548
O O16 0.528832 0.698688 0.158479
O O17 0.750000 0.750000 0.598912
#
# Coordination Sequence:
#
# PCOD9432173 Si02
#       8
#     8   8   8   8   4   8   8   8
#     4  11  24  45  67 103 137 183 242 297 363 436
#     4  11  24  44  70 100 137 189 232 298 368 431
#     4  11  24  43  70 105 142 186 237 305 369 434
#     4  11  21  42  70  97 139 185 233 299 364 433
#     4  12  22  48  70 102 150 180 246 298 362 456
#     4  12  24  43  76 102 139 195 241 296 372 441
#     4  10  23  41  64  96 134 174 231 290 341 430
#     4  10  22  41  63  98 136 178 231 292 358 431
#
# _framework density 22.347918
#
# number of rings (size 3 to 8) (size 9 to 14) (size 15 to 20)
#    0.000    1.067    4.667    2.400    1.867    3.200 
#    0.000   18.000    0.000    0.000    0.000    0.000 
#    0.000    0.000    0.000    0.000    0.000    0.000 
#
# Total GULP energy -334408.927151 kJ/mol
# GULP energy per Si atom -5573.482119 kJ/mol
# Density = 2.229705 g / cm^3
# Si number density = 22.347918 Si / 1000 Ang^3
#
#
#
# Elastic Constant Matrix: (Units=GPa)
#
#
# Indices 1 2 3 4 5 6 
#
# 1 49.2590 32.7722 22.1301 0.0000 0.0000 0.0000
# 2 32.7722 92.8018 28.7999 0.0000 0.0000 0.0000
# 3 22.1301 28.7999 60.9963 0.0000 0.0000 0.0000
# 4 0.0000 0.0000 0.0000 40.6151 0.0000 0.0000
# 5 0.0000 0.0000 0.0000 0.0000 -59.7265 0.0000
# 6 0.0000 0.0000 0.0000 0.0000 0.0000 50.6730
#
#
#
# Elastic Compliance Matrix: (Units=1/GPa)
#
#
# Indices 1 2 3 4 5 6 
#
# 1 0.028622 -0.008067 -0.006575 0.000000 0.000000 0.000000
# 2 -0.008067 0.014899 -0.004108 0.000000 0.000000 0.000000
# 3 -0.006575 -0.004108 0.020720 0.000000 0.000000 0.000000
# 4 0.000000 0.000000 0.000000 0.024621 0.000000 0.000000
# 5 0.000000 0.000000 0.000000 0.000000 -0.016743 0.000000
# 6 0.000000 0.000000 0.000000 0.000000 0.000000 0.019734
#
#
# Mechanical properties :
#
#
# Convention : Reuss Voigt Hill
#
# Bulk Modulus (GPa) = 37.39712 41.16237 39.27974
# Shear Modulus (GPa) = 36.16163 14.26930 25.21546
#
# Velocity S-wave (km/s) = 4.02695 2.52961 3.36268
# Velocity P-wave (km/s) = 6.19614 5.19526 5.71765
#
# Compressibility (1/GPa) = 0.02674003
#
# Stress axis : x y z
#
# Youngs Moduli (GPa) = 34.93824 67.11712 48.26316
#
# Poissons Ratio (x) = 0.54143 0.31735
# Poissons Ratio (y) = 0.28185 0.19827
# Poissons Ratio (z) = 0.22973 0.27572
#
# Static dielectric constant tensor:
#      x y z
#    x 1.904470 0.000000 0.000000 
#    y 0.000000 1.884590 0.000000 
#    z 0.000000 0.000000 2.136130 
# 
# From -- ./inp_files/22100.got.cif
#   From: 2010.05.17/outbox.cif.g08.bks.cpg/sg56_12_cif.got.tgz:22100.got - 2010.06.03 13:42:01.
