data_PCOD9432871
_publ_section_title
;
Structure prediction by ZEFSAII (Michael W. Deem and Ramdas Pophale) SiO2 
 PCOD9432871
Probable space group: P C C N
;
_chemical_formula_sum "Si O2"
_cell_formula_units_Z 48
_cell_length_a 13.943997
_cell_length_b 14.290154
_cell_length_c 8.984856
_cell_angle_alpha 90.000000
_cell_angle_beta 90.000000
_cell_angle_gamma 90.000000
_cell_volume 1790.339159
_symmetry_space_group_name_H-M "P C C N"
_symmetry_group_IT_number 56
_symmetry_cell_setting 'orthorhombic'
loop_
_space_group_symop_operation_xyz
x,y,z
1/2-x,1/2-y,z
1/2+x,-y,1/2-z
-x,1/2+y,1/2-z
-x,-y,-z
1/2+x,1/2+y,-z
1/2-x,y,1/2+z
x,1/2-y,1/2+z
loop_
_atom_site_type_symbol
_atom_site_label
_atom_site_fract_x
_atom_site_fract_y
_atom_site_fract_z
Si Si1 0.857590 0.979143 0.947182
Si Si2 0.250000 0.250000 0.343584
Si Si3 0.191945 0.563841 0.234660
Si Si4 0.022153 0.106676 0.831696
Si Si5 0.250000 0.750000 0.869166
Si Si6 0.372630 0.338781 0.586333
Si Si7 0.931125 0.287015 0.927091
O O1 0.762389 0.988983 0.848182
O O2 0.942867 0.028482 0.858847
O O3 0.834773 0.033956 0.098750
O O4 0.909229 0.888614 0.020449
O O5 0.294172 0.329149 0.454396
O O6 0.168255 0.279263 0.226171
O O7 0.256662 0.657288 0.269318
O O8 0.108456 0.617772 0.145152
O O9 0.085918 0.077001 0.689156
O O10 0.965090 0.203595 0.818492
O O11 0.154759 0.751463 0.970178
O O12 0.470925 0.308728 0.511263
#
# Coordination Sequence:
#
# PCOD9432871 Si02
#       7
#     8   4   8   8   4   8   8
#     4  11  26  44  68 104 158 198 240 307 396 464
#     4  10  24  42  66 100 136 182 260 310 376 422
#     4  12  23  44  72 115 145 198 251 310 384 462
#     4  11  24  44  68 103 148 197 242 311 389 452
#     4  12  22  38  72 116 146 180 248 318 378 444
#     4  11  23  43  70 101 137 191 252 323 367 442
#     4  12  22  41  76 111 146 190 260 322 373 451
#
# _framework density 26.810562999999998
#
# number of rings (size 3 to 8) (size 9 to 14) (size 15 to 20)
#    0.000    0.667    5.000    3.500    0.000    1.333 
#    0.000    0.833    0.000    0.000    0.000    0.000 
#    0.000    0.000    0.000    0.000    0.000    0.000 
#
# Total GULP energy -268237.948696 kJ/mol
# GULP energy per Si atom -5588.290598 kJ/mol
# Density = 2.674954 g / cm^3
# Si number density = 26.810563 Si / 1000 Ang^3
#
#
#
# Elastic Constant Matrix: (Units=GPa)
#
#
# Indices 1 2 3 4 5 6 
#
# 1 228.9086 22.9577 82.3579 0.0000 0.0000 0.0000
# 2 22.9577 50.3132 24.0133 0.0000 0.0000 0.0000
# 3 82.3579 24.0133 132.6853 0.0000 0.0000 0.0000
# 4 0.0000 0.0000 0.0000 42.1562 0.0000 0.0000
# 5 0.0000 0.0000 0.0000 0.0000 82.5804 0.0000
# 6 0.0000 0.0000 0.0000 0.0000 0.0000 33.6477
#
#
#
# Elastic Compliance Matrix: (Units=1/GPa)
#
#
# Indices 1 2 3 4 5 6 
#
# 1 0.005670 -0.000993 -0.003339 0.000000 0.000000 0.000000
# 2 -0.000993 0.021929 -0.003352 0.000000 0.000000 0.000000
# 3 -0.003339 -0.003352 0.010216 0.000000 0.000000 0.000000
# 4 0.000000 0.000000 0.000000 0.023721 0.000000 0.000000
# 5 0.000000 0.000000 0.000000 0.000000 0.012109 0.000000
# 6 0.000000 0.000000 0.000000 0.000000 0.000000 0.029720
#
#
# Mechanical properties :
#
#
# Convention : Reuss Voigt Hill
#
# Bulk Modulus (GPa) = 44.55376 74.50722 59.53049
# Shear Modulus (GPa) = 39.61470 50.51542 45.06506
#
# Velocity S-wave (km/s) = 3.84810 4.34540 4.10429
# Velocity P-wave (km/s) = 6.03307 7.28198 6.68675
#
# Compressibility (1/GPa) = 0.02244479
#
# Stress axis : x y z
#
# Youngs Moduli (GPa) = 176.37829 45.60257 97.88500
#
# Poissons Ratio (x) = 0.04529 0.32688
# Poissons Ratio (y) = 0.17518 0.32812
# Poissons Ratio (z) = 0.58900 0.15287
#
# Static dielectric constant tensor:
#      x y z
#    x 2.143390 0.000000 0.000000 
#    y 0.000000 2.240770 0.000000 
#    z 0.000000 0.000000 2.071650 
# 
# From -- ./inp_files/3428.got.cif
#   From: 2010.05.17/outbox.cif.g08.bks.cpg/sg56_2_cif.got.tgz:3428.got - 2010.06.03 13:42:01.
