data_PCOD9432387
_publ_section_title
;
Structure prediction by ZEFSAII (Michael W. Deem and Ramdas Pophale) SiO2 
 PCOD9432387
Probable space group: P C C N
;
_chemical_formula_sum "Si O2"
_cell_formula_units_Z 28
_cell_length_a 10.618547
_cell_length_b 4.845710
_cell_length_c 20.265769
_cell_angle_alpha 90.000000
_cell_angle_beta 90.000000
_cell_angle_gamma 90.000000
_cell_volume 1042.762972
_symmetry_space_group_name_H-M "P C C N"
_symmetry_group_IT_number 56
_symmetry_cell_setting 'orthorhombic'
loop_
_space_group_symop_operation_xyz
x,y,z
1/2-x,1/2-y,z
1/2+x,-y,1/2-z
-x,1/2+y,1/2-z
-x,-y,-z
1/2+x,1/2+y,-z
1/2-x,y,1/2+z
x,1/2-y,1/2+z
loop_
_atom_site_type_symbol
_atom_site_label
_atom_site_fract_x
_atom_site_fract_y
_atom_site_fract_z
Si Si1 0.485004 0.691104 0.206431
Si Si2 0.126284 0.939539 0.399714
Si Si3 0.250000 0.750000 0.624509
Si Si4 0.380519 0.142150 0.044668
O O1 0.542781 0.414995 0.236179
O O2 0.349411 0.614674 0.175713
O O3 0.582122 0.860391 0.159191
O O4 0.250000 0.750000 0.391941
O O5 0.005895 0.750488 0.421492
O O6 0.129423 0.126012 0.466714
O O7 0.359285 0.664917 0.571800
O O8 0.250000 0.250000 0.074264
#
# Coordination Sequence:
#
# PCOD9432387 Si02
#       4
#     8   8   4   8
#     4  11  28  49  72 106 150 208 252 305 371 459
#     4  10  23  46  71 111 145 188 251 309 372 451
#     4  10  24  48  70 102 152 190 248 312 388 434
#     4  10  22  43  74 107 145 187 239 315 388 439
#
# _framework density 26.851738999999998
#
# number of rings (size 3 to 8) (size 9 to 14) (size 15 to 20)
#    0.000    1.714    1.429    0.000   10.000    3.429 
#    0.000    0.000    0.000    0.000    0.000    0.000 
#    0.000    0.000    0.000    0.000    0.000    0.000 
#
# Total GULP energy -155956.348978 kJ/mol
# GULP energy per Si atom -5569.869606 kJ/mol
# Density = 2.679062 g / cm^3
# Si number density = 26.851739 Si / 1000 Ang^3
#
#
#
# Elastic Constant Matrix: (Units=GPa)
#
#
# Indices 1 2 3 4 5 6 
#
# 1 217.8725 44.1597 36.8645 0.0000 0.0000 0.0000
# 2 44.1597 72.7182 31.7107 0.0000 0.0000 0.0000
# 3 36.8645 31.7107 112.9479 0.0000 0.0000 0.0000
# 4 0.0000 0.0000 0.0000 20.2552 0.0000 0.0000
# 5 0.0000 0.0000 0.0000 0.0000 46.0892 0.0000
# 6 0.0000 0.0000 0.0000 0.0000 0.0000 29.3847
#
#
#
# Elastic Compliance Matrix: (Units=1/GPa)
#
#
# Indices 1 2 3 4 5 6 
#
# 1 0.005321 -0.002819 -0.000945 0.000000 0.000000 0.000000
# 2 -0.002819 0.017164 -0.003899 0.000000 0.000000 0.000000
# 3 -0.000945 -0.003899 0.010257 0.000000 0.000000 0.000000
# 4 0.000000 0.000000 0.000000 0.049370 0.000000 0.000000
# 5 0.000000 0.000000 0.000000 0.000000 0.021697 0.000000
# 6 0.000000 0.000000 0.000000 0.000000 0.000000 0.034031
#
#
# Mechanical properties :
#
#
# Convention : Reuss Voigt Hill
#
# Bulk Modulus (GPa) = 57.42017 69.88984 63.65500
# Shear Modulus (GPa) = 31.45213 38.53272 34.99243
#
# Velocity S-wave (km/s) = 3.42618 3.79227 3.61386
# Velocity P-wave (km/s) = 6.08951 6.72753 6.41646
#
# Compressibility (1/GPa) = 0.01741548
#
# Stress axis : x y z
#
# Youngs Moduli (GPa) = 187.92770 58.26195 97.49696
#
# Poissons Ratio (x) = 0.16425 0.09216
# Poissons Ratio (y) = 0.52981 0.38011
# Poissons Ratio (z) = 0.17764 0.22715
#
# Static dielectric constant tensor:
#      x y z
#    x 2.150740 0.000000 0.000000 
#    y 0.000000 1.359730 0.000000 
#    z 0.000000 0.000000 2.185310 
# 
# From -- ./inp_files/17270.got.cif
#   From: 2010.05.17/outbox.cif.g08.bks.cpg/sg56_9_cif.got.tgz:17270.got - 2010.06.03 13:42:01.
