data_PCOD9432301
_publ_section_title
;
Structure prediction by ZEFSAII (Michael W. Deem and Ramdas Pophale) SiO2 
 PCOD9432301
Probable space group: P C C N
;
_chemical_formula_sum "Si O2"
_cell_formula_units_Z 48
_cell_length_a 19.070409
_cell_length_b 8.398129
_cell_length_c 12.339718
_cell_angle_alpha 90.000000
_cell_angle_beta 90.000000
_cell_angle_gamma 90.000000
_cell_volume 1976.276851
_symmetry_space_group_name_H-M "P C C N"
_symmetry_group_IT_number 56
_symmetry_cell_setting 'orthorhombic'
loop_
_space_group_symop_operation_xyz
x,y,z
1/2-x,1/2-y,z
1/2+x,-y,1/2-z
-x,1/2+y,1/2-z
-x,-y,-z
1/2+x,1/2+y,-z
1/2-x,y,1/2+z
x,1/2-y,1/2+z
loop_
_atom_site_type_symbol
_atom_site_label
_atom_site_fract_x
_atom_site_fract_y
_atom_site_fract_z
Si Si1 0.848379 0.824436 0.100756
Si Si2 0.276756 0.500895 0.320077
Si Si3 0.172463 0.807258 0.512202
Si Si4 0.447219 0.000286 0.102048
Si Si5 0.363459 0.495701 0.115523
Si Si6 0.533828 0.704744 0.748480
O O1 0.810194 0.660382 0.131066
O O2 0.805057 0.969600 0.155999
O O3 0.923503 0.794677 0.153267
O O4 0.850686 0.860466 0.974088
O O5 0.312948 0.641696 0.388082
O O6 0.297055 0.509912 0.195464
O O7 0.250000 0.750000 0.548384
O O8 0.131451 0.957081 0.564189
O O9 0.125819 0.654788 0.544913
O O10 0.466440 0.868003 0.192242
O O11 0.465122 0.167541 0.156888
O O12 0.500000 0.000000 0.000000
O O13 0.424255 0.444324 0.198254
#
# Coordination Sequence:
#
# PCOD9432301 Si02
#       6
#     8   8   8   8   8   8
#     4  10  22  42  70 102 139 191 254 295 372 445
#     4  10  23  42  65 105 146 188 237 301 369 452
#     4  12  26  45  70 109 149 190 246 309 381 448
#     4  12  27  50  75 106 154 198 256 317 382 466
#     4  11  23  43  71 104 149 191 245 308 373 442
#     4  11  25  46  75 109 140 204 250 308 374 455
#
# _framework density 24.288095999999999
#
# number of rings (size 3 to 8) (size 9 to 14) (size 15 to 20)
#    0.000    1.000    1.667    5.000    2.333    8.667 
#    0.000    3.333    0.000    0.000    0.000    0.000 
#    0.000    0.000    0.000    0.000    0.000    0.000 
#
# Total GULP energy -268105.018899 kJ/mol
# GULP energy per Si atom -5585.521227 kJ/mol
# Density = 2.423282 g / cm^3
# Si number density = 24.288096 Si / 1000 Ang^3
#
#
#
# Elastic Constant Matrix: (Units=GPa)
#
#
# Indices 1 2 3 4 5 6 
#
# 1 51.8183 1.7123 18.6138 0.0000 0.0000 0.0000
# 2 1.7123 108.4411 44.1677 0.0000 0.0000 0.0000
# 3 18.6138 44.1677 133.0400 0.0000 0.0000 0.0000
# 4 0.0000 0.0000 0.0000 43.6722 0.0000 0.0000
# 5 0.0000 0.0000 0.0000 0.0000 17.8400 0.0000
# 6 0.0000 0.0000 0.0000 0.0000 0.0000 32.0446
#
#
#
# Elastic Compliance Matrix: (Units=1/GPa)
#
#
# Indices 1 2 3 4 5 6 
#
# 1 0.020408 0.000972 -0.003178 0.000000 0.000000 0.000000
# 2 0.000972 0.010710 -0.003692 0.000000 0.000000 0.000000
# 3 -0.003178 -0.003692 0.009187 0.000000 0.000000 0.000000
# 4 0.000000 0.000000 0.000000 0.022898 0.000000 0.000000
# 5 0.000000 0.000000 0.000000 0.000000 0.056054 0.000000
# 6 0.000000 0.000000 0.000000 0.000000 0.000000 0.031207
#
#
# Mechanical properties :
#
#
# Convention : Reuss Voigt Hill
#
# Bulk Modulus (GPa) = 35.07615 46.92078 40.99846
# Shear Modulus (GPa) = 29.11033 33.96506 31.53769
#
# Velocity S-wave (km/s) = 3.46575 3.74361 3.60736
# Velocity P-wave (km/s) = 5.52162 6.16818 5.85384
#
# Compressibility (1/GPa) = 0.02850940
#
# Stress axis : x y z
#
# Youngs Moduli (GPa) = 49.00119 93.37242 108.85276
#
# Poissons Ratio (x) = -0.09077 0.34593
# Poissons Ratio (y) = -0.04764 0.40183
# Poissons Ratio (z) = 0.15573 0.34469
#
# Static dielectric constant tensor:
#      x y z
#    x 2.018990 0.000000 0.000000 
#    y 0.000000 2.011350 0.000000 
#    z 0.000000 0.000000 1.895150 
# 
# From -- ./inp_files/8883.got.cif
#   From: 2010.05.17/outbox.cif.g08.bks.cpg/sg56_5_cif.got.tgz:8883.got - 2010.06.03 13:42:01.
