data_PCOD9432032
_publ_section_title
;
Structure prediction by ZEFSAII (Michael W. Deem and Ramdas Pophale) SiO2 
 PCOD9432032
Probable space group: P C C N
;
_chemical_formula_sum "Si O2"
_cell_formula_units_Z 36
_cell_length_a 5.614771
_cell_length_b 13.035201
_cell_length_c 19.601324
_cell_angle_alpha 90.000000
_cell_angle_beta 90.000000
_cell_angle_gamma 90.000000
_cell_volume 1434.614407
_symmetry_space_group_name_H-M "P C C N"
_symmetry_group_IT_number 56
_symmetry_cell_setting 'orthorhombic'
loop_
_space_group_symop_operation_xyz
x,y,z
1/2-x,1/2-y,z
1/2+x,-y,1/2-z
-x,1/2+y,1/2-z
-x,-y,-z
1/2+x,1/2+y,-z
1/2-x,y,1/2+z
x,1/2-y,1/2+z
loop_
_atom_site_type_symbol
_atom_site_label
_atom_site_fract_x
_atom_site_fract_y
_atom_site_fract_z
Si Si1 0.354812 0.377897 0.745880
Si Si2 0.250000 0.250000 0.492817
Si Si3 0.078364 0.832782 0.389417
Si Si4 0.856760 0.392711 0.799699
Si Si5 0.614195 0.952888 0.068194
O O1 0.376792 0.352606 0.666029
O O2 0.103669 0.342283 0.774969
O O3 0.595215 0.349039 0.786594
O O4 0.348495 0.502074 0.744229
O O5 0.468263 0.281454 0.542631
O O6 0.278039 0.145132 0.449222
O O7 0.250000 0.750000 0.357434
O O8 0.214505 0.941198 0.400002
O O9 0.911880 0.415304 0.879125
O O10 0.500000 0.000000 0.000000
#
# Coordination Sequence:
#
# PCOD9432032 Si02
#       5
#     8   4   8   8   8
#     4   9  19  36  63  91 128 165 223 277 334 397
#     4  10  22  42  62  92 132 176 230 274 348 410
#     4  10  22  39  63  96 126 174 229 284 343 410
#     4   9  18  38  62  94 126 170 216 276 336 396
#     4   9  20  43  64  95 134 177 224 278 339 417
#
# _framework density 25.093851999999998
#
# number of rings (size 3 to 8) (size 9 to 14) (size 15 to 20)
#    0.000    2.667    0.000    0.000    3.111    0.889 
#   24.000    0.000    0.000    0.000    0.000    0.000 
#    0.000    0.000    0.000    0.000    0.000    0.000 
#
# Total GULP energy -200958.537252 kJ/mol
# GULP energy per Si atom -5582.181590 kJ/mol
# Density = 2.503674 g / cm^3
# Si number density = 25.093852 Si / 1000 Ang^3
#
#
#
# Elastic Constant Matrix: (Units=GPa)
#
#
# Indices 1 2 3 4 5 6 
#
# 1 145.3793 82.8112 38.9741 0.0000 0.0000 0.0000
# 2 82.8112 185.9534 47.5684 0.0000 0.0000 0.0000
# 3 38.9741 47.5684 122.3937 0.0000 0.0000 0.0000
# 4 0.0000 0.0000 0.0000 -14.0061 0.0000 0.0000
# 5 0.0000 0.0000 0.0000 0.0000 -5.0697 0.0000
# 6 0.0000 0.0000 0.0000 0.0000 0.0000 49.4672
#
#
#
# Elastic Compliance Matrix: (Units=1/GPa)
#
#
# Indices 1 2 3 4 5 6 
#
# 1 0.009467 -0.003825 -0.001528 0.000000 0.000000 0.000000
# 2 -0.003825 0.007517 -0.001703 0.000000 0.000000 0.000000
# 3 -0.001528 -0.001703 0.009319 0.000000 0.000000 0.000000
# 4 0.000000 0.000000 0.000000 -0.071398 0.000000 0.000000
# 5 0.000000 0.000000 0.000000 0.000000 -0.197250 0.000000
# 6 0.000000 0.000000 0.000000 0.000000 0.000000 0.020215
#
#
# Mechanical properties :
#
#
# Convention : Reuss Voigt Hill
#
# Bulk Modulus (GPa) = 82.03525 88.04818 85.04172
# Shear Modulus (GPa) = -24.51545 25.03646 0.26050
#
# Velocity S-wave (km/s) = -3.12901 3.16209 0.32255
# Velocity P-wave (km/s) = 4.43938 6.96387 5.83967
#
# Compressibility (1/GPa) = 0.01218988
#
# Stress axis : x y z
#
# Youngs Moduli (GPa) = 105.62934 133.03370 107.30833
#
# Poissons Ratio (x) = 0.50887 0.16396
# Poissons Ratio (y) = 0.40405 0.18279
# Poissons Ratio (z) = 0.16140 0.22661
#
# Static dielectric constant tensor:
#      x y z
#    x 1.946740 0.000000 0.000000 
#    y 0.000000 2.089700 0.000000 
#    z 0.000000 0.000000 1.982120 
# 
# From -- ./inp_files/17941.got.cif
#   From: 2010.05.17/outbox.cif.g08.bks.cpg/sg56_9_cif.got.tgz:17941.got - 2010.06.03 13:42:01.
