data_PCOD9432411
_publ_section_title
;
Structure prediction by ZEFSAII (Michael W. Deem and Ramdas Pophale) SiO2 
 PCOD9432411
Probable space group: P C C N
;
_chemical_formula_sum "Si O2"
_cell_formula_units_Z 44
_cell_length_a 15.939738
_cell_length_b 13.402895
_cell_length_c 8.640706
_cell_angle_alpha 90.000000
_cell_angle_beta 90.000000
_cell_angle_gamma 90.000000
_cell_volume 1845.988633
_symmetry_space_group_name_H-M "P C C N"
_symmetry_group_IT_number 56
_symmetry_cell_setting 'orthorhombic'
loop_
_space_group_symop_operation_xyz
x,y,z
1/2-x,1/2-y,z
1/2+x,-y,1/2-z
-x,1/2+y,1/2-z
-x,-y,-z
1/2+x,1/2+y,-z
1/2-x,y,1/2+z
x,1/2-y,1/2+z
loop_
_atom_site_type_symbol
_atom_site_label
_atom_site_fract_x
_atom_site_fract_y
_atom_site_fract_z
Si Si1 0.374968 0.350841 0.932398
Si Si2 0.510067 0.526499 0.248166
Si Si3 0.325583 0.890467 0.697233
Si Si4 0.559648 0.639322 0.562233
Si Si5 0.220526 0.396425 0.745182
Si Si6 0.250000 0.750000 0.445006
O O1 0.425830 0.450078 0.888618
O O2 0.438413 0.258285 0.934063
O O3 0.304612 0.342309 0.798955
O O4 0.325972 0.355834 0.093506
O O5 0.418336 0.565236 0.202572
O O6 0.538426 0.592366 0.396846
O O7 0.500028 0.414133 0.311418
O O8 0.303113 0.825650 0.549070
O O9 0.310260 0.816951 0.840105
O O10 0.264487 0.986405 0.712647
O O11 0.654154 0.609993 0.613746
#
# Coordination Sequence:
#
# PCOD9432411 Si02
#       6
#     8   8   8   8   8   4
#     4  12  24  43  71 105 141 193 234 298 353 432
#     4  10  24  44  65 104 142 181 237 294 357 409
#     4  10  23  43  67 100 133 184 232 298 347 425
#     4  10  23  43  65  97 143 186 229 292 350 418
#     4  11  24  43  69 102 141 184 243 286 356 417
#     4  10  22  44  68  96 134 182 238 280 358 426
#
# _framework density 23.835466
#
# number of rings (size 3 to 8) (size 9 to 14) (size 15 to 20)
#    0.000    1.455    0.000    3.818    2.545    7.273 
#    6.545    1.818    0.000    0.000    0.000    0.000 
#    0.000    0.000    0.000    0.000    0.000    0.000 
#
# Total GULP energy -246499.308410 kJ/mol
# GULP energy per Si atom -5602.257009 kJ/mol
# Density = 2.378122 g / cm^3
# Si number density = 23.835466 Si / 1000 Ang^3
#
#
#
# Elastic Constant Matrix: (Units=GPa)
#
#
# Indices 1 2 3 4 5 6 
#
# 1 72.0045 10.7084 47.7166 0.0000 0.0000 0.0000
# 2 10.7084 116.8508 48.9687 0.0000 0.0000 0.0000
# 3 47.7166 48.9687 126.2073 0.0000 0.0000 0.0000
# 4 0.0000 0.0000 0.0000 126.2303 0.0000 0.0000
# 5 0.0000 0.0000 0.0000 0.0000 26.8402 0.0000
# 6 0.0000 0.0000 0.0000 0.0000 0.0000 38.1928
#
#
#
# Elastic Compliance Matrix: (Units=1/GPa)
#
#
# Indices 1 2 3 4 5 6 
#
# 1 0.018747 0.001496 -0.007668 0.000000 0.000000 0.000000
# 2 0.001496 0.010339 -0.004577 0.000000 0.000000 0.000000
# 3 -0.007668 -0.004577 0.012599 0.000000 0.000000 0.000000
# 4 0.000000 0.000000 0.000000 0.007922 0.000000 0.000000
# 5 0.000000 0.000000 0.000000 0.000000 0.037258 0.000000
# 6 0.000000 0.000000 0.000000 0.000000 0.000000 0.026183
#
#
# Mechanical properties :
#
#
# Convention : Reuss Voigt Hill
#
# Bulk Modulus (GPa) = 49.54080 58.87221 54.20650
# Shear Modulus (GPa) = 35.39192 52.09726 43.74459
#
# Velocity S-wave (km/s) = 3.85755 4.68022 4.28866
# Velocity P-wave (km/s) = 6.37734 7.34568 6.87857
#
# Compressibility (1/GPa) = 0.02018538
#
# Stress axis : x y z
#
# Youngs Moduli (GPa) = 53.34107 96.72178 79.37411
#
# Poissons Ratio (x) = -0.14465 0.60866
# Poissons Ratio (y) = -0.07977 0.36329
# Poissons Ratio (z) = 0.40903 0.44269
#
# Static dielectric constant tensor:
#      x y z
#    x 1.897560 0.000000 0.000000 
#    y 0.000000 1.927770 0.000000 
#    z 0.000000 0.000000 1.903030 
# 
# From -- ./inp_files/3979.got.cif
#   From: 2010.05.17/outbox.cif.g08.bks.cpg/sg56_2_cif.got.tgz:3979.got - 2010.06.03 13:42:01.
