data_PCOD9432253
_publ_section_title
;
Structure prediction by ZEFSAII (Michael W. Deem and Ramdas Pophale) SiO2 
 PCOD9432253
Probable space group: P C C N
;
_chemical_formula_sum "Si O2"
_cell_formula_units_Z 64
_cell_length_a 7.859487
_cell_length_b 11.883818
_cell_length_c 29.562031
_cell_angle_alpha 90.000000
_cell_angle_beta 90.000000
_cell_angle_gamma 90.000000
_cell_volume 2761.114776
_symmetry_space_group_name_H-M "P C C N"
_symmetry_group_IT_number 56
_symmetry_cell_setting 'orthorhombic'
loop_
_space_group_symop_operation_xyz
x,y,z
1/2-x,1/2-y,z
1/2+x,-y,1/2-z
-x,1/2+y,1/2-z
-x,-y,-z
1/2+x,1/2+y,-z
1/2-x,y,1/2+z
x,1/2-y,1/2+z
loop_
_atom_site_type_symbol
_atom_site_label
_atom_site_fract_x
_atom_site_fract_y
_atom_site_fract_z
Si Si1 0.055583 0.767952 0.825892
Si Si2 0.045816 0.758054 0.520500
Si Si3 0.912459 0.116037 0.391949
Si Si4 0.900766 0.487879 0.718672
Si Si5 0.009693 0.971001 0.311632
Si Si6 0.028690 0.552206 0.579467
Si Si7 0.074486 0.316437 0.339236
Si Si8 0.060155 0.287601 0.576017
O O1 0.250000 0.750000 0.810601
O O2 0.000481 0.888063 0.806964
O O3 0.956758 0.659081 0.809409
O O4 0.051169 0.764468 0.879992
O O5 0.250000 0.750000 0.518396
O O6 0.004199 0.848161 0.559974
O O7 0.983524 0.636867 0.538856
O O8 0.981678 0.777650 0.470194
O O9 0.718308 0.086536 0.403647
O O10 0.946049 0.223549 0.359340
O O11 0.983074 0.014728 0.362182
O O12 0.706725 0.487556 0.701592
O O13 0.974820 0.609417 0.704038
O O14 0.908225 0.467104 0.772018
O O15 0.034987 0.421349 0.567981
O O16 0.908647 0.589577 0.620998
O O17 0.250000 0.250000 0.331843
O O18 0.250000 0.250000 0.588570
#
# Coordination Sequence:
#
# PCOD9432253 Si02
#       8
#     8   8   8   8   8   8   8   8
#     4  10  24  46  64  92 136 184 221 276 350 413
#     4   9  21  42  64  95 133 180 231 281 342 409
#     4  10  22  43  68  99 137 178 227 282 347 410
#     4  11  25  43  64  99 135 177 232 283 346 406
#     4  11  25  43  67  99 136 179 231 279 346 416
#     4  10  22  42  65  97 135 179 225 277 349 407
#     4  11  21  40  68  98 131 172 234 283 334 406
#     4  12  23  40  67 100 136 179 229 283 350 414
#
# _framework density 23.179043
#
# number of rings (size 3 to 8) (size 9 to 14) (size 15 to 20)
#    0.000    1.500    2.500    2.625    3.500    3.000 
#    0.000    6.875    0.000    0.000    0.000    0.000 
#    0.000    0.000    0.000    0.000    0.000    0.000 
#
# Total GULP energy -357505.002812 kJ/mol
# GULP energy per Si atom -5586.015669 kJ/mol
# Density = 2.312629 g / cm^3
# Si number density = 23.179043 Si / 1000 Ang^3
#
#
#
# Elastic Constant Matrix: (Units=GPa)
#
#
# Indices 1 2 3 4 5 6 
#
# 1 34.9486 4.8566 12.8262 0.0000 0.0000 0.0000
# 2 4.8566 94.7700 47.0895 0.0000 0.0000 0.0000
# 3 12.8262 47.0895 108.9332 0.0000 0.0000 0.0000
# 4 0.0000 0.0000 0.0000 19.5933 0.0000 0.0000
# 5 0.0000 0.0000 0.0000 0.0000 19.7407 0.0000
# 6 0.0000 0.0000 0.0000 0.0000 0.0000 21.0713
#
#
#
# Elastic Compliance Matrix: (Units=1/GPa)
#
#
# Indices 1 2 3 4 5 6 
#
# 1 0.029911 0.000277 -0.003641 0.000000 0.000000 0.000000
# 2 0.000277 0.013441 -0.005843 0.000000 0.000000 0.000000
# 3 -0.003641 -0.005843 0.012134 0.000000 0.000000 0.000000
# 4 0.000000 0.000000 0.000000 0.051038 0.000000 0.000000
# 5 0.000000 0.000000 0.000000 0.000000 0.050657 0.000000
# 6 0.000000 0.000000 0.000000 0.000000 0.000000 0.047458
#
#
# Mechanical properties :
#
#
# Convention : Reuss Voigt Hill
#
# Bulk Modulus (GPa) = 26.97501 40.91072 33.94287
# Shear Modulus (GPa) = 21.23940 23.67303 22.45621
#
# Velocity S-wave (km/s) = 3.03036 3.19926 3.11596
# Velocity P-wave (km/s) = 4.88948 5.59779 5.25558
#
# Compressibility (1/GPa) = 0.03707134
#
# Stress axis : x y z
#
# Youngs Moduli (GPa) = 33.43207 74.39997 82.41037
#
# Poissons Ratio (x) = -0.02057 0.30009
# Poissons Ratio (y) = -0.00924 0.48150
# Poissons Ratio (z) = 0.12174 0.43470
#
# Static dielectric constant tensor:
#      x y z
#    x 1.747120 0.000000 0.000000 
#    y 0.000000 1.913340 0.000000 
#    z 0.000000 0.000000 1.872800 
# 
# From -- ./inp_files/23395.got.cif
#   From: 2010.05.17/outbox.cif.g08.bks.cpg/sg56_12_cif.got.tgz:23395.got - 2010.06.03 13:42:01.
