data_PCOD9432210
_publ_section_title
;
Structure prediction by ZEFSAII (Michael W. Deem and Ramdas Pophale) SiO2 
 PCOD9432210
Probable space group: P C C N
;
_chemical_formula_sum "Si O2"
_cell_formula_units_Z 60
_cell_length_a 28.456422
_cell_length_b 11.636192
_cell_length_c 8.870432
_cell_angle_alpha 90.000000
_cell_angle_beta 90.000000
_cell_angle_gamma 90.000000
_cell_volume 2937.216385
_symmetry_space_group_name_H-M "P C C N"
_symmetry_group_IT_number 56
_symmetry_cell_setting 'orthorhombic'
loop_
_space_group_symop_operation_xyz
x,y,z
1/2-x,1/2-y,z
1/2+x,-y,1/2-z
-x,1/2+y,1/2-z
-x,-y,-z
1/2+x,1/2+y,-z
1/2-x,y,1/2+z
x,1/2-y,1/2+z
loop_
_atom_site_type_symbol
_atom_site_label
_atom_site_fract_x
_atom_site_fract_y
_atom_site_fract_z
Si Si1 0.250000 0.750000 0.474818
Si Si2 0.715926 0.081769 0.774559
Si Si3 0.441455 0.150064 0.086268
Si Si4 0.346792 0.263547 0.966511
Si Si5 0.957926 0.089224 0.035675
Si Si6 0.284828 0.141338 0.739689
Si Si7 0.994221 0.278307 0.823074
Si Si8 0.618028 0.525036 0.211367
O O1 0.222922 0.838256 0.581272
O O2 0.278806 0.833958 0.367387
O O3 0.754171 0.976320 0.767685
O O4 0.663248 0.038910 0.768932
O O5 0.466430 0.208408 0.229445
O O6 0.419488 0.035190 0.153836
O O7 0.396077 0.221050 0.032677
O O8 0.478631 0.148455 0.950606
O O9 0.317401 0.159471 0.888771
O O10 0.361243 0.351401 0.835420
O O11 0.316080 0.333319 0.090177
O O12 0.969317 0.150286 0.193713
O O13 0.908841 0.025556 0.065470
O O14 0.961009 0.186813 0.907953
O O15 0.000000 0.000000 0.000000
O O16 0.250000 0.250000 0.748511
#
# Coordination Sequence:
#
# PCOD9432210 Si02
#       8
#     4   8   8   8   8   8   8   8
#     4  10  26  50  66  82 132 190 230 268 318 390
#     4  11  25  45  68  92 129 180 230 274 325 398
#     4  11  19  39  61 100 135 170 209 272 342 407
#     4  12  22  37  63 106 142 167 204 277 352 410
#     4  11  23  44  67  95 132 177 219 277 340 401
#     4  12  24  38  67 105 136 167 216 274 353 407
#     4  10  22  41  68  92 136 175 222 268 335 408
#     4  12  23  38  68  95 134 170 224 281 335 398
#
# _framework density 20.427505
#
# number of rings (size 3 to 8) (size 9 to 14) (size 15 to 20)
#    0.000    0.800    5.333    2.000    3.733    1.600 
#    0.000    0.000    0.000    0.000    0.000    0.000 
#    0.000    0.000    0.000    0.000    0.000    0.000 
#
# Total GULP energy -334996.509322 kJ/mol
# GULP energy per Si atom -5583.275155 kJ/mol
# Density = 2.038101 g / cm^3
# Si number density = 20.427505 Si / 1000 Ang^3
#
#
#
# Elastic Constant Matrix: (Units=GPa)
#
#
# Indices 1 2 3 4 5 6 
#
# 1 35.4102 12.3041 -2.0299 0.0000 0.0000 0.0000
# 2 12.3041 90.0145 24.5643 0.0000 0.0000 0.0000
# 3 -2.0299 24.5643 91.4900 0.0000 0.0000 0.0000
# 4 0.0000 0.0000 0.0000 10.6714 0.0000 0.0000
# 5 0.0000 0.0000 0.0000 0.0000 18.2001 0.0000
# 6 0.0000 0.0000 0.0000 0.0000 0.0000 28.0109
#
#
#
# Elastic Compliance Matrix: (Units=1/GPa)
#
#
# Indices 1 2 3 4 5 6 
#
# 1 0.029953 -0.004614 0.001903 0.000000 0.000000 0.000000
# 2 -0.004614 0.012698 -0.003512 0.000000 0.000000 0.000000
# 3 0.001903 -0.003512 0.011915 0.000000 0.000000 0.000000
# 4 0.000000 0.000000 0.000000 0.093709 0.000000 0.000000
# 5 0.000000 0.000000 0.000000 0.000000 0.054945 0.000000
# 6 0.000000 0.000000 0.000000 0.000000 0.000000 0.035700
#
#
# Mechanical properties :
#
#
# Convention : Reuss Voigt Hill
#
# Bulk Modulus (GPa) = 23.74056 31.84353 27.79204
# Shear Modulus (GPa) = 18.83916 23.51491 21.17703
#
# Velocity S-wave (km/s) = 3.04014 3.39653 3.22326
# Velocity P-wave (km/s) = 4.89596 5.56815 5.24283
#
# Compressibility (1/GPa) = 0.04212201
#
# Stress axis : x y z
#
# Youngs Moduli (GPa) = 33.38602 78.75071 83.92603
#
# Poissons Ratio (x) = 0.36333 -0.15974
# Poissons Ratio (y) = 0.15403 0.29473
# Poissons Ratio (z) = -0.06354 0.27655
#
# Static dielectric constant tensor:
#      x y z
#    x 1.334340 0.000000 0.000000 
#    y 0.000000 1.764740 0.000000 
#    z 0.000000 0.000000 1.775420 
# 
# From -- ./inp_files/2951.got.cif
#   From: 2010.05.17/outbox.cif.g08.bks.cpg/sg56_2_cif.got.tgz:2951.got - 2010.06.03 13:42:01.
