data_PCOD9432602
_publ_section_title
;
Structure prediction by ZEFSAII (Michael W. Deem and Ramdas Pophale) SiO2 
 PCOD9432602
Probable space group: P C C N
;
_chemical_formula_sum "Si O2"
_cell_formula_units_Z 40
_cell_length_a 16.249906
_cell_length_b 5.298409
_cell_length_c 17.991076
_cell_angle_alpha 90.000000
_cell_angle_beta 90.000000
_cell_angle_gamma 90.000000
_cell_volume 1549.007323
_symmetry_space_group_name_H-M "P C C N"
_symmetry_group_IT_number 56
_symmetry_cell_setting 'orthorhombic'
loop_
_space_group_symop_operation_xyz
x,y,z
1/2-x,1/2-y,z
1/2+x,-y,1/2-z
-x,1/2+y,1/2-z
-x,-y,-z
1/2+x,1/2+y,-z
1/2-x,y,1/2+z
x,1/2-y,1/2+z
loop_
_atom_site_type_symbol
_atom_site_label
_atom_site_fract_x
_atom_site_fract_y
_atom_site_fract_z
Si Si1 0.954784 0.259359 0.270016
Si Si2 0.959664 0.697483 0.942115
Si Si3 0.379020 0.590973 0.948419
Si Si4 0.200136 0.493006 0.302691
Si Si5 0.157403 0.814109 0.600784
O O1 0.882205 0.081120 0.237731
O O2 0.914358 0.327371 0.351567
O O3 0.974069 0.536820 0.233157
O O4 0.883815 0.590925 0.894912
O O5 0.043609 0.789751 0.903565
O O6 0.000000 0.500000 0.000000
O O7 0.920091 0.893449 0.997349
O O8 0.320998 0.459874 0.889598
O O9 0.340563 0.771436 0.011173
O O10 0.250000 0.750000 0.299720
O O11 0.250000 0.250000 0.274699
O O12 0.250000 0.750000 0.627216
#
# Coordination Sequence:
#
# PCOD9432602 Si02
#       5
#     8   8   8   8   8
#     4  12  29  52  78 104 148 210 264 307 384 466
#     4   9  21  39  67 103 147 181 246 292 371 436
#     4  10  23  41  72 106 145 195 241 307 373 459
#     4  12  28  48  76 111 158 196 249 318 394 452
#     4  11  25  43  72 106 146 187 249 318 374 441
#
# _framework density 25.822990000000001
#
# number of rings (size 3 to 8) (size 9 to 14) (size 15 to 20)
#    0.000    1.200    0.000    3.600   19.600    0.000 
#    0.000    0.000    0.000    0.000    0.000    0.000 
#    0.000    0.000    0.000    0.000    0.000    0.000 
#
# Total GULP energy -222796.171533 kJ/mol
# GULP energy per Si atom -5569.904288 kJ/mol
# Density = 2.576422 g / cm^3
# Si number density = 25.822990 Si / 1000 Ang^3
#
#
#
# Elastic Constant Matrix: (Units=GPa)
#
#
# Indices 1 2 3 4 5 6 
#
# 1 135.7704 61.5174 35.0876 0.0000 0.0000 0.0000
# 2 61.5174 85.3877 -14.1139 0.0000 0.0000 0.0000
# 3 35.0876 -14.1139 85.5477 0.0000 0.0000 0.0000
# 4 0.0000 0.0000 0.0000 32.7022 0.0000 0.0000
# 5 0.0000 0.0000 0.0000 0.0000 55.1516 0.0000
# 6 0.0000 0.0000 0.0000 0.0000 0.0000 37.3290
#
#
#
# Elastic Compliance Matrix: (Units=1/GPa)
#
#
# Indices 1 2 3 4 5 6 
#
# 1 0.014962 -0.012124 -0.008137 0.000000 0.000000 0.000000
# 2 -0.012124 0.021864 0.008580 0.000000 0.000000 0.000000
# 3 -0.008137 0.008580 0.016442 0.000000 0.000000 0.000000
# 4 0.000000 0.000000 0.000000 0.030579 0.000000 0.000000
# 5 0.000000 0.000000 0.000000 0.000000 0.018132 0.000000
# 6 0.000000 0.000000 0.000000 0.000000 0.000000 0.026789
#
#
# Mechanical properties :
#
#
# Convention : Reuss Voigt Hill
#
# Bulk Modulus (GPa) = 33.43784 52.40979 42.92381
# Shear Modulus (GPa) = 30.84556 39.98420 35.41488
#
# Velocity S-wave (km/s) = 3.45990 3.93923 3.70732
# Velocity P-wave (km/s) = 5.37943 6.40546 5.91473
#
# Compressibility (1/GPa) = 0.02990624
#
# Stress axis : x y z
#
# Youngs Moduli (GPa) = 66.83817 45.73704 60.81905
#
# Poissons Ratio (x) = 0.55451 0.49487
# Poissons Ratio (y) = 0.81034 -0.52182
# Poissons Ratio (z) = 0.54385 -0.39242
#
# Static dielectric constant tensor:
#      x y z
#    x 2.243820 0.000000 0.000000 
#    y 0.000000 2.181490 0.000000 
#    z 0.000000 0.000000 2.081750 
# 
# From -- ./inp_files/16466.got.cif
#   From: 2010.05.17/outbox.cif.g08.bks.cpg/sg56_9_cif.got.tgz:16466.got - 2010.06.03 13:42:01.
