data_PCOD9432321
_publ_section_title
;
Structure prediction by ZEFSAII (Michael W. Deem and Ramdas Pophale) SiO2 
 PCOD9432321
Probable space group: P C C N
;
_chemical_formula_sum "Si O2"
_cell_formula_units_Z 48
_cell_length_a 13.948843
_cell_length_b 5.509142
_cell_length_c 28.087053
_cell_angle_alpha 90.000000
_cell_angle_beta 90.000000
_cell_angle_gamma 90.000000
_cell_volume 2158.382080
_symmetry_space_group_name_H-M "P C C N"
_symmetry_group_IT_number 56
_symmetry_cell_setting 'orthorhombic'
loop_
_space_group_symop_operation_xyz
x,y,z
1/2-x,1/2-y,z
1/2+x,-y,1/2-z
-x,1/2+y,1/2-z
-x,-y,-z
1/2+x,1/2+y,-z
1/2-x,y,1/2+z
x,1/2-y,1/2+z
loop_
_atom_site_type_symbol
_atom_site_label
_atom_site_fract_x
_atom_site_fract_y
_atom_site_fract_z
Si Si1 0.465564 0.638324 0.149871
Si Si2 0.363462 0.720805 0.846895
Si Si3 0.913622 0.689140 0.496678
Si Si4 0.970882 0.489599 0.077654
Si Si5 0.444807 0.921932 0.750888
Si Si6 0.802829 0.507177 0.416673
O O1 0.570087 0.520375 0.160340
O O2 0.404121 0.637325 0.198329
O O3 0.404185 0.496989 0.110597
O O4 0.481055 0.893118 0.124229
O O5 0.250000 0.750000 0.848969
O O6 0.400720 0.798013 0.898991
O O7 0.388898 0.879598 0.799736
O O8 0.825714 0.549540 0.472620
O O9 0.000000 0.500000 0.500000
O O10 0.948543 0.892717 0.458484
O O11 0.908911 0.816911 0.547566
O O12 0.523776 0.703194 0.752514
O O13 0.750000 0.750000 0.399919
O O14 0.750000 0.250000 0.409219
#
# Coordination Sequence:
#
# PCOD9432321 Si02
#       6
#     8   8   8   8   8   8
#     4  11  23  46  72 100 143 191 234 301 367 421
#     4  11  24  44  69 107 145 188 245 299 364 444
#     4  11  23  43  68  98 134 194 237 299 357 430
#     4  11  21  43  72  94 142 188 242 282 374 419
#     4  10  22  42  73 100 136 184 233 290 359 426
#     4  12  27  45  71 107 142 184 248 298 351 427
#
# _framework density 22.238880999999999
#
# number of rings (size 3 to 8) (size 9 to 14) (size 15 to 20)
#    0.000    1.000    5.000    1.000    2.333    1.333 
#    6.000    3.333    0.000    0.000    0.000    0.000 
#    0.000    0.000    0.000    0.000    0.000    0.000 
#
# Total GULP energy -267430.203162 kJ/mol
# GULP energy per Si atom -5571.462566 kJ/mol
# Density = 2.218826 g / cm^3
# Si number density = 22.238881 Si / 1000 Ang^3
#
#
#
# Elastic Constant Matrix: (Units=GPa)
#
#
# Indices 1 2 3 4 5 6 
#
# 1 82.2478 28.0405 -3.0852 0.0000 0.0000 0.0000
# 2 28.0405 82.3556 14.9987 0.0000 0.0000 0.0000
# 3 -3.0852 14.9987 95.8658 0.0000 0.0000 0.0000
# 4 0.0000 0.0000 0.0000 53.0679 0.0000 0.0000
# 5 0.0000 0.0000 0.0000 0.0000 23.0983 0.0000
# 6 0.0000 0.0000 0.0000 0.0000 0.0000 16.3446
#
#
#
# Elastic Compliance Matrix: (Units=1/GPa)
#
#
# Indices 1 2 3 4 5 6 
#
# 1 0.013893 -0.004953 0.001222 0.000000 0.000000 0.000000
# 2 -0.004953 0.014264 -0.002391 0.000000 0.000000 0.000000
# 3 0.001222 -0.002391 0.010845 0.000000 0.000000 0.000000
# 4 0.000000 0.000000 0.000000 0.018844 0.000000 0.000000
# 5 0.000000 0.000000 0.000000 0.000000 0.043293 0.000000
# 6 0.000000 0.000000 0.000000 0.000000 0.000000 0.061182
#
#
# Mechanical properties :
#
#
# Convention : Reuss Voigt Hill
#
# Bulk Modulus (GPa) = 37.37214 37.81971 37.59593
# Shear Modulus (GPa) = 27.25029 33.20316 30.22672
#
# Velocity S-wave (km/s) = 3.50429 3.86816 3.69071
# Velocity P-wave (km/s) = 5.76322 6.08221 5.92486
#
# Compressibility (1/GPa) = 0.02675790
#
# Stress axis : x y z
#
# Youngs Moduli (GPa) = 71.97997 70.10528 92.21119
#
# Poissons Ratio (x) = 0.34722 -0.11268
# Poissons Ratio (y) = 0.35650 0.22049
# Poissons Ratio (z) = -0.08796 0.16763
#
# Static dielectric constant tensor:
#      x y z
#    x 1.867710 0.000000 0.000000 
#    y 0.000000 1.921370 0.000000 
#    z 0.000000 0.000000 1.881560 
# 
# From -- ./inp_files/22433.got.cif
#   From: 2010.05.17/outbox.cif.g08.bks.cpg/sg56_12_cif.got.tgz:22433.got - 2010.06.03 13:42:01.
