data_PCOD9432865
_publ_section_title
;
Structure prediction by ZEFSAII (Michael W. Deem and Ramdas Pophale) SiO2 
 PCOD9432865
Probable space group: P C C N
;
_chemical_formula_sum "Si O2"
_cell_formula_units_Z 60
_cell_length_a 20.441261
_cell_length_b 6.156469
_cell_length_c 23.521518
_cell_angle_alpha 90.000000
_cell_angle_beta 90.000000
_cell_angle_gamma 90.000000
_cell_volume 2960.088711
_symmetry_space_group_name_H-M "P C C N"
_symmetry_group_IT_number 56
_symmetry_cell_setting 'orthorhombic'
loop_
_space_group_symop_operation_xyz
x,y,z
1/2-x,1/2-y,z
1/2+x,-y,1/2-z
-x,1/2+y,1/2-z
-x,-y,-z
1/2+x,1/2+y,-z
1/2-x,y,1/2+z
x,1/2-y,1/2+z
loop_
_atom_site_type_symbol
_atom_site_label
_atom_site_fract_x
_atom_site_fract_y
_atom_site_fract_z
Si Si1 0.421402 0.811908 0.875216
Si Si2 0.169486 0.128188 0.993172
Si Si3 0.250000 0.750000 0.543763
Si Si4 0.562451 0.610763 0.188377
Si Si5 0.820868 0.658096 0.131457
Si Si6 0.123679 0.988145 0.577948
Si Si7 0.948527 0.305272 0.506602
Si Si8 0.039062 0.538211 0.185395
O O1 0.424541 0.562015 0.860476
O O2 0.453551 0.840014 0.937045
O O3 0.347980 0.909625 0.874080
O O4 0.473176 0.907181 0.830252
O O5 0.144460 0.295545 0.042330
O O6 0.231435 0.974159 0.009869
O O7 0.173361 0.250990 0.933091
O O8 0.117174 0.940196 0.985161
O O9 0.186627 0.828159 0.578704
O O10 0.624904 0.762284 0.176735
O O11 0.491115 0.719875 0.180445
O O12 0.562231 0.512341 0.251225
O O13 0.750000 0.750000 0.149849
O O14 0.066770 0.855542 0.544902
O O15 0.094617 0.024014 0.640306
O O16 0.000000 0.500000 0.500000
#
# Coordination Sequence:
#
# PCOD9432865 Si02
#       8
#     8   8   4   8   8   8   8   8
#     4  11  22  40  63  94 128 163 210 268 326 386
#     4  11  22  39  63  93 133 170 212 259 329 394
#     4  10  24  42  60  92 130 176 214 252 326 394
#     4  11  23  44  64  94 124 169 223 261 327 388
#     4  11  24  39  64  95 129 171 214 266 323 391
#     4  11  23  40  62  93 128 171 209 264 327 389
#     4  11  22  35  59  98 130 160 208 268 325 390
#     4  11  24  42  69  89 126 171 212 270 325 387
#
# _framework density 20.269663000000001
#
# number of rings (size 3 to 8) (size 9 to 14) (size 15 to 20)
#    0.000    1.067    4.000    2.800    3.733    2.667 
#    0.000    2.667    0.000    0.000    0.000    0.000 
#    0.000    0.000    0.000    0.000    0.000    0.000 
#
# Total GULP energy -334064.900536 kJ/mol
# GULP energy per Si atom -5567.748342 kJ/mol
# Density = 2.022353 g / cm^3
# Si number density = 20.269663 Si / 1000 Ang^3
#
#
#
# Elastic Constant Matrix: (Units=GPa)
#
#
# Indices 1 2 3 4 5 6 
#
# 1 107.1553 23.9884 36.2873 0.0000 0.0000 0.0000
# 2 23.9884 70.3033 16.8202 0.0000 0.0000 0.0000
# 3 36.2873 16.8202 89.6958 0.0000 0.0000 0.0000
# 4 0.0000 0.0000 0.0000 28.3924 0.0000 0.0000
# 5 0.0000 0.0000 0.0000 0.0000 24.9039 0.0000
# 6 0.0000 0.0000 0.0000 0.0000 0.0000 34.7676
#
#
#
# Elastic Compliance Matrix: (Units=1/GPa)
#
#
# Indices 1 2 3 4 5 6 
#
# 1 0.011354 -0.002905 -0.004048 0.000000 0.000000 0.000000
# 2 -0.002905 0.015636 -0.001757 0.000000 0.000000 0.000000
# 3 -0.004048 -0.001757 0.013116 0.000000 0.000000 0.000000
# 4 0.000000 0.000000 0.000000 0.035221 0.000000 0.000000
# 5 0.000000 0.000000 0.000000 0.000000 0.040154 0.000000
# 6 0.000000 0.000000 0.000000 0.000000 0.000000 0.028762
#
#
# Mechanical properties :
#
#
# Convention : Reuss Voigt Hill
#
# Bulk Modulus (GPa) = 44.08307 46.81623 45.44965
# Shear Modulus (GPa) = 29.54640 30.28334 29.91487
#
# Velocity S-wave (km/s) = 3.82208 3.86945 3.84584
# Velocity P-wave (km/s) = 6.42443 6.56585 6.49552
#
# Compressibility (1/GPa) = 0.02268445
#
# Stress axis : x y z
#
# Youngs Moduli (GPa) = 88.07758 63.95601 76.24262
#
# Poissons Ratio (x) = 0.18582 0.30866
# Poissons Ratio (y) = 0.25590 0.13393
# Poissons Ratio (z) = 0.35657 0.11235
#
# Static dielectric constant tensor:
#      x y z
#    x 1.813860 0.000000 0.000000 
#    y 0.000000 1.906630 0.000000 
#    z 0.000000 0.000000 1.701630 
# 
# From -- ./inp_files/21348.got.cif
#   From: 2010.05.17/outbox.cif.g08.bks.cpg/sg56_11_cif.got.tgz:21348.got - 2010.06.03 13:42:01.
