data_PCOD9432256
_publ_section_title
;
Structure prediction by ZEFSAII (Michael W. Deem and Ramdas Pophale) SiO2 
 PCOD9432256
Probable space group: P C C N
;
_chemical_formula_sum "Si O2"
_cell_formula_units_Z 40
_cell_length_a 21.558410
_cell_length_b 8.804960
_cell_length_c 10.627160
_cell_angle_alpha 90.000000
_cell_angle_beta 90.000000
_cell_angle_gamma 90.000000
_cell_volume 2017.257476
_symmetry_space_group_name_H-M "P C C N"
_symmetry_group_IT_number 56
_symmetry_cell_setting 'orthorhombic'
loop_
_space_group_symop_operation_xyz
x,y,z
1/2-x,1/2-y,z
1/2+x,-y,1/2-z
-x,1/2+y,1/2-z
-x,-y,-z
1/2+x,1/2+y,-z
1/2-x,y,1/2+z
x,1/2-y,1/2+z
loop_
_atom_site_type_symbol
_atom_site_label
_atom_site_fract_x
_atom_site_fract_y
_atom_site_fract_z
Si Si1 0.837442 0.499554 0.513870
Si Si2 0.030197 0.067128 0.373826
Si Si3 0.338682 0.497224 0.271255
Si Si4 0.750000 0.750000 0.120203
Si Si5 0.750000 0.250000 0.122368
Si Si6 0.966312 0.565836 0.624038
O O1 0.861340 0.499707 0.371802
O O2 0.791450 0.639851 0.535787
O O3 0.796322 0.352124 0.540684
O O4 0.894574 0.517507 0.608652
O O5 0.101535 0.012507 0.360518
O O6 0.028889 0.250812 0.374601
O O7 0.000000 0.000000 0.500000
O O8 0.994531 0.003825 0.251197
O O9 0.295985 0.351149 0.296654
O O10 0.294020 0.639353 0.297674
O O11 0.000000 0.500000 0.500000
#
# Coordination Sequence:
#
# PCOD9432256 Si02
#       6
#     8   8   8   4   4   8
#     4  11  23  44  71  95 137 173 229 279 347 409
#     4  12  28  45  72 103 142 186 237 290 350 409
#     4  11  23  45  69  98 136 172 230 277 349 406
#     4  10  22  42  66 100 126 176 222 280 340 410
#     4  10  26  42  66 108 132 178 216 290 342 420
#     4  12  26  47  72  99 140 186 233 289 347 414
#
# _framework density 19.828903
#
# number of rings (size 3 to 8) (size 9 to 14) (size 15 to 20)
#    0.000    0.800    4.000    2.400    5.600    0.000 
#   14.400    0.000    0.000    0.000    0.000    0.000 
#    0.000    0.000    0.000    0.000    0.000    0.000 
#
# Total GULP energy -223670.214981 kJ/mol
# GULP energy per Si atom -5591.755375 kJ/mol
# Density = 1.978377 g / cm^3
# Si number density = 19.828903 Si / 1000 Ang^3
#
#
#
# Elastic Constant Matrix: (Units=GPa)
#
#
# Indices 1 2 3 4 5 6 
#
# 1 150.6519 57.2352 57.8906 0.0000 0.0000 0.0000
# 2 57.2352 141.7016 50.2765 0.0000 0.0000 0.0000
# 3 57.8906 50.2765 126.7929 0.0000 0.0000 0.0000
# 4 0.0000 0.0000 0.0000 10.8125 0.0000 0.0000
# 5 0.0000 0.0000 0.0000 0.0000 40.4128 0.0000
# 6 0.0000 0.0000 0.0000 0.0000 0.0000 3.4864
#
#
#
# Elastic Compliance Matrix: (Units=1/GPa)
#
#
# Indices 1 2 3 4 5 6 
#
# 1 0.008728 -0.002457 -0.003011 0.000000 0.000000 0.000000
# 2 -0.002457 0.008904 -0.002409 0.000000 0.000000 0.000000
# 3 -0.003011 -0.002409 0.010217 0.000000 0.000000 0.000000
# 4 0.000000 0.000000 0.000000 0.092486 0.000000 0.000000
# 5 0.000000 0.000000 0.000000 0.000000 0.024745 0.000000
# 6 0.000000 0.000000 0.000000 0.000000 0.000000 0.286829
#
#
# Mechanical properties :
#
#
# Convention : Reuss Voigt Hill
#
# Bulk Modulus (GPa) = 82.67511 83.32789 83.00150
# Shear Modulus (GPa) = 11.06943 27.85861 19.46402
#
# Velocity S-wave (km/s) = 2.36529 3.75233 3.13645
# Velocity P-wave (km/s) = 7.01742 7.80308 7.42065
#
# Compressibility (1/GPa) = 0.01209554
#
# Stress axis : x y z
#
# Youngs Moduli (GPa) = 114.56980 112.30576 97.87908
#
# Poissons Ratio (x) = 0.27596 0.29469
# Poissons Ratio (y) = 0.28153 0.23578
# Poissons Ratio (z) = 0.34494 0.27053
#
# Static dielectric constant tensor:
#      x y z
#    x 1.701880 0.000000 0.000000 
#    y 0.000000 1.683100 0.000000 
#    z 0.000000 0.000000 1.668140 
# 
# From -- ./inp_files/2079.got.cif
#   From: 2010.05.17/outbox.cif.g08.bks.cpg/sg56_2_cif.got.tgz:2079.got - 2010.06.03 13:42:01.
