data_PCOD9432053
_publ_section_title
;
Structure prediction by ZEFSAII (Michael W. Deem and Ramdas Pophale) SiO2 
 PCOD9432053
Probable space group: P C C N
;
_chemical_formula_sum "Si O2"
_cell_formula_units_Z 52
_cell_length_a 10.148258
_cell_length_b 13.884171
_cell_length_c 19.682063
_cell_angle_alpha 90.000000
_cell_angle_beta 90.000000
_cell_angle_gamma 90.000000
_cell_volume 2773.205618
_symmetry_space_group_name_H-M "P C C N"
_symmetry_group_IT_number 56
_symmetry_cell_setting 'orthorhombic'
loop_
_space_group_symop_operation_xyz
x,y,z
1/2-x,1/2-y,z
1/2+x,-y,1/2-z
-x,1/2+y,1/2-z
-x,-y,-z
1/2+x,1/2+y,-z
1/2-x,y,1/2+z
x,1/2-y,1/2+z
loop_
_atom_site_type_symbol
_atom_site_label
_atom_site_fract_x
_atom_site_fract_y
_atom_site_fract_z
Si Si1 0.250000 0.750000 0.393025
Si Si2 0.373555 0.435341 0.079097
Si Si3 0.589305 0.026291 0.273861
Si Si4 0.250000 0.750000 0.110518
Si Si5 0.872524 0.377560 0.495626
Si Si6 0.528342 0.279517 0.710626
Si Si7 0.750000 0.750000 0.358882
Si Si8 0.372264 0.905212 0.213412
O O1 0.204988 0.663722 0.440927
O O2 0.369910 0.704592 0.350485
O O3 0.428809 0.478636 0.151235
O O4 0.314928 0.526138 0.038741
O O5 0.280747 0.346254 0.098270
O O6 0.485176 0.397583 0.027713
O O7 0.545384 0.137726 0.266907
O O8 0.747436 0.030307 0.263669
O O9 0.502017 0.972546 0.216330
O O10 0.361553 0.703190 0.062544
O O11 0.315355 0.838686 0.152223
O O12 0.379615 0.269585 0.685817
O O13 0.583554 0.178204 0.735957
#
# Coordination Sequence:
#
# PCOD9432053 Si02
#       8
#     4   8   8   4   8   8   4   8
#     4  11  19  42  64  92 119 177 220 264 320 405
#     4  11  22  42  64  93 129 173 216 269 329 392
#     4  12  23  39  67  97 130 169 219 277 332 400
#     4  11  21  42  64  92 131 177 224 272 330 405
#     4  10  22  39  68  87 123 178 223 253 322 401
#     4  12  23  40  65  93 136 168 216 278 338 395
#     4  12  24  42  62  98 132 166 212 272 340 386
#     4  12  22  41  64  99 132 173 217 278 345 399
#
# _framework density 18.750864
#
# number of rings (size 3 to 8) (size 9 to 14) (size 15 to 20)
#    0.000    0.615    7.692    0.923    0.000    0.000 
#    0.000    2.308    0.000    0.923    0.000    0.000 
#    0.000    0.000    0.000    0.000    0.000    0.000 
#
# Total GULP energy -289543.018840 kJ/mol
# GULP energy per Si atom -5568.134978 kJ/mol
# Density = 1.870819 g / cm^3
# Si number density = 18.750864 Si / 1000 Ang^3
#
#
#
# Elastic Constant Matrix: (Units=GPa)
#
#
# Indices 1 2 3 4 5 6 
#
# 1 108.6105 39.5142 49.4120 0.0000 0.0000 0.0000
# 2 39.5142 86.1160 33.7962 0.0000 0.0000 0.0000
# 3 49.4120 33.7962 62.0150 0.0000 0.0000 0.0000
# 4 0.0000 0.0000 0.0000 -330.9462 0.0000 0.0000
# 5 0.0000 0.0000 0.0000 0.0000 11.2773 0.0000
# 6 0.0000 0.0000 0.0000 0.0000 0.0000 37.0942
#
#
#
# Elastic Compliance Matrix: (Units=1/GPa)
#
#
# Indices 1 2 3 4 5 6 
#
# 1 0.014948 -0.002779 -0.010395 0.000000 0.000000 0.000000
# 2 -0.002779 0.015288 -0.006117 0.000000 0.000000 0.000000
# 3 -0.010395 -0.006117 0.027742 0.000000 0.000000 0.000000
# 4 0.000000 0.000000 0.000000 -0.003022 0.000000 0.000000
# 5 0.000000 0.000000 0.000000 0.000000 0.088674 0.000000
# 6 0.000000 0.000000 0.000000 0.000000 0.000000 0.026958
#
#
# Mechanical properties :
#
#
# Convention : Reuss Voigt Hill
#
# Bulk Modulus (GPa) = 51.56240 55.79846 53.68043
# Shear Modulus (GPa) = 23.18721 -47.58034 -12.19657
#
# Velocity S-wave (km/s) = 3.52034 -5.04283 -2.55317
# Velocity P-wave (km/s) = 6.63943 2.02099 4.47201
#
# Compressibility (1/GPa) = 0.01939398
#
# Stress axis : x y z
#
# Youngs Moduli (GPa) = 66.90019 65.41033 36.04683
#
# Poissons Ratio (x) = 0.18178 0.37472
# Poissons Ratio (y) = 0.18592 0.22051
# Poissons Ratio (z) = 0.69546 0.40013
#
# Static dielectric constant tensor:
#      x y z
#    x 1.627060 0.000000 0.000000 
#    y 0.000000 1.771770 0.000000 
#    z 0.000000 0.000000 1.677130 
# 
# From -- ./inp_files/18182.got.cif
#   From: 2010.05.17/outbox.cif.g08.bks.cpg/sg56_10_cif.got.tgz:18182.got - 2010.06.03 13:42:01.
