data_PCOD9432157
_publ_section_title
;
Structure prediction by ZEFSAII (Michael W. Deem and Ramdas Pophale) SiO2 
 PCOD9432157
Probable space group: P C C N
;
_chemical_formula_sum "Si O2"
_cell_formula_units_Z 32
_cell_length_a 5.516235
_cell_length_b 13.354781
_cell_length_c 17.735185
_cell_angle_alpha 90.000000
_cell_angle_beta 90.000000
_cell_angle_gamma 90.000000
_cell_volume 1306.517566
_symmetry_space_group_name_H-M "P C C N"
_symmetry_group_IT_number 56
_symmetry_cell_setting 'orthorhombic'
loop_
_space_group_symop_operation_xyz
x,y,z
1/2-x,1/2-y,z
1/2+x,-y,1/2-z
-x,1/2+y,1/2-z
-x,-y,-z
1/2+x,1/2+y,-z
1/2-x,y,1/2+z
x,1/2-y,1/2+z
loop_
_atom_site_type_symbol
_atom_site_label
_atom_site_fract_x
_atom_site_fract_y
_atom_site_fract_z
Si Si1 0.700078 0.451420 0.446050
Si Si2 0.480468 0.495700 0.703808
Si Si3 0.551763 0.836182 0.454691
Si Si4 0.005977 0.771002 0.297814
O O1 0.500000 0.500000 0.500000
O O2 0.577688 0.431243 0.365313
O O3 0.870857 0.548895 0.436747
O O4 0.841307 0.359497 0.484577
O O5 0.739751 0.509992 0.743938
O O6 0.501774 0.383442 0.673022
O O7 0.750000 0.750000 0.479793
O O8 0.481109 0.796656 0.372232
O O9 0.250000 0.750000 0.252423
O O10 0.750000 0.750000 0.258691
#
# Coordination Sequence:
#
# PCOD9432157 Si02
#       4
#     8   8   8   8
#     4  11  24  43  77 111 149 197 273 329 381 479
#     4  12  27  46  74 112 159 206 256 324 404 474
#     4  10  22  40  75 109 140 197 261 323 388 461
#     4  11  21  42  74 105 136 202 255 297 382 477
#
# _framework density 24.492591999999998
#
# number of rings (size 3 to 8) (size 9 to 14) (size 15 to 20)
#    0.000    1.000    5.000    3.000    7.000    0.000 
#    0.000    1.250   11.000    0.000    0.000    0.000 
#    0.000    0.000    0.000    0.000    0.000    0.000 
#
# Total GULP energy -178580.089346 kJ/mol
# GULP energy per Si atom -5580.627792 kJ/mol
# Density = 2.443685 g / cm^3
# Si number density = 24.492592 Si / 1000 Ang^3
#
#
#
# Elastic Constant Matrix: (Units=GPa)
#
#
# Indices 1 2 3 4 5 6 
#
# 1 169.3370 26.1541 26.5373 0.0000 0.0000 0.0000
# 2 26.1541 120.2063 15.3561 0.0000 0.0000 0.0000
# 3 26.5373 15.3561 55.8820 0.0000 0.0000 0.0000
# 4 0.0000 0.0000 0.0000 41.3107 0.0000 0.0000
# 5 0.0000 0.0000 0.0000 0.0000 31.6188 0.0000
# 6 0.0000 0.0000 0.0000 0.0000 0.0000 52.6843
#
#
#
# Elastic Compliance Matrix: (Units=1/GPa)
#
#
# Indices 1 2 3 4 5 6 
#
# 1 0.006508 -0.001058 -0.002800 0.000000 0.000000 0.000000
# 2 -0.001058 0.008794 -0.001914 0.000000 0.000000 0.000000
# 3 -0.002800 -0.001914 0.019750 0.000000 0.000000 0.000000
# 4 0.000000 0.000000 0.000000 0.024207 0.000000 0.000000
# 5 0.000000 0.000000 0.000000 0.000000 0.031627 0.000000
# 6 0.000000 0.000000 0.000000 0.000000 0.000000 0.018981
#
#
# Mechanical properties :
#
#
# Convention : Reuss Voigt Hill
#
# Bulk Modulus (GPa) = 42.53846 53.50226 48.02036
# Shear Modulus (GPa) = 38.68605 43.61462 41.15033
#
# Velocity S-wave (km/s) = 3.97860 4.22444 4.10337
# Velocity P-wave (km/s) = 6.20575 6.75916 6.48836
#
# Compressibility (1/GPa) = 0.02350814
#
# Stress axis : x y z
#
# Youngs Moduli (GPa) = 153.66765 113.71670 50.63234
#
# Poissons Ratio (x) = 0.12034 0.14175
# Poissons Ratio (y) = 0.16262 0.09691
# Poissons Ratio (z) = 0.43019 0.21765
#
# Static dielectric constant tensor:
#      x y z
#    x 2.024760 0.000000 0.000000 
#    y 0.000000 1.915750 0.000000 
#    z 0.000000 0.000000 1.951890 
# 
# From -- ./inp_files/13764.got.cif
#   From: 2010.05.17/outbox.cif.g08.bks.cpg/sg56_7_cif.got.tgz:13764.got - 2010.06.03 13:42:01.
