data_PCOD9432718
_publ_section_title
;
Structure prediction by ZEFSAII (Michael W. Deem and Ramdas Pophale) SiO2 
 PCOD9432718
Probable space group: P C C N
;
_chemical_formula_sum "Si O2"
_cell_formula_units_Z 48
_cell_length_a 12.897934
_cell_length_b 8.143256
_cell_length_c 18.339818
_cell_angle_alpha 90.000000
_cell_angle_beta 90.000000
_cell_angle_gamma 90.000000
_cell_volume 1926.252697
_symmetry_space_group_name_H-M "P C C N"
_symmetry_group_IT_number 56
_symmetry_cell_setting 'orthorhombic'
loop_
_space_group_symop_operation_xyz
x,y,z
1/2-x,1/2-y,z
1/2+x,-y,1/2-z
-x,1/2+y,1/2-z
-x,-y,-z
1/2+x,1/2+y,-z
1/2-x,y,1/2+z
x,1/2-y,1/2+z
loop_
_atom_site_type_symbol
_atom_site_label
_atom_site_fract_x
_atom_site_fract_y
_atom_site_fract_z
Si Si1 0.418004 0.689864 0.831926
Si Si2 0.069240 0.655846 0.168007
Si Si3 0.671893 0.956553 0.954685
Si Si4 0.250000 0.750000 0.947789
Si Si5 0.250000 0.250000 0.428711
Si Si6 0.138336 0.026288 0.148448
Si Si7 0.650438 0.563889 0.689491
O O1 0.396160 0.614573 0.751222
O O2 0.337532 0.670023 0.896976
O O3 0.529584 0.622158 0.855893
O O4 0.402849 0.885011 0.817531
O O5 0.093332 0.515711 0.108235
O O6 0.946123 0.684596 0.174433
O O7 0.120676 0.829344 0.146449
O O8 0.778965 0.929079 0.911789
O O9 0.691802 0.117325 0.003285
O O10 0.660019 0.810260 0.014144
O O11 0.262447 0.393521 0.368628
O O12 0.183649 0.073478 0.227318
#
# Coordination Sequence:
#
# PCOD9432718 Si02
#       7
#     8   8   8   4   4   8   8
#     4  10  24  43  70  99 133 184 235 289 345 415
#     4  10  23  44  70  97 136 180 237 292 341 418
#     4  12  26  43  66 104 140 181 227 282 359 421
#     4  12  24  42  66 100 138 178 226 280 350 420
#     4  12  28  44  64 104 144 184 222 288 360 420
#     4  10  23  45  70  98 131 184 239 288 346 416
#     4  10  24  46  67  98 137 181 237 286 345 421
#
# _framework density 24.918848000000001
#
# number of rings (size 3 to 8) (size 9 to 14) (size 15 to 20)
#    0.000    1.333    3.333    0.000    9.333    3.333 
#    6.000    0.000    0.000    0.000    0.000    0.000 
#    0.000    0.000    0.000    0.000    0.000    0.000 
#
# Total GULP energy -267913.043304 kJ/mol
# GULP energy per Si atom -5581.521736 kJ/mol
# Density = 2.486213 g / cm^3
# Si number density = 24.918848 Si / 1000 Ang^3
#
#
#
# Elastic Constant Matrix: (Units=GPa)
#
#
# Indices 1 2 3 4 5 6 
#
# 1 80.1358 36.7785 51.3405 0.0000 0.0000 0.0000
# 2 36.7785 64.5591 49.8749 0.0000 0.0000 0.0000
# 3 51.3405 49.8749 178.0925 0.0000 0.0000 0.0000
# 4 0.0000 0.0000 0.0000 55.2573 0.0000 0.0000
# 5 0.0000 0.0000 0.0000 0.0000 32.4229 0.0000
# 6 0.0000 0.0000 0.0000 0.0000 0.0000 41.4913
#
#
#
# Elastic Compliance Matrix: (Units=1/GPa)
#
#
# Indices 1 2 3 4 5 6 
#
# 1 0.018045 -0.007990 -0.002964 0.000000 0.000000 0.000000
# 2 -0.007990 0.023304 -0.004223 0.000000 0.000000 0.000000
# 3 -0.002964 -0.004223 0.007652 0.000000 0.000000 0.000000
# 4 0.000000 0.000000 0.000000 0.018097 0.000000 0.000000
# 5 0.000000 0.000000 0.000000 0.000000 0.030842 0.000000
# 6 0.000000 0.000000 0.000000 0.000000 0.000000 0.024101
#
#
# Mechanical properties :
#
#
# Convention : Reuss Voigt Hill
#
# Bulk Modulus (GPa) = 53.62892 66.53058 60.07975
# Shear Modulus (GPa) = 31.52346 38.15387 34.83867
#
# Velocity S-wave (km/s) = 3.56061 3.91720 3.74315
# Velocity P-wave (km/s) = 6.20258 6.87140 6.54554
#
# Compressibility (1/GPa) = 0.01864665
#
# Stress axis : x y z
#
# Youngs Moduli (GPa) = 55.41709 42.91143 130.67978
#
# Poissons Ratio (x) = 0.34285 0.38739
# Poissons Ratio (y) = 0.44277 0.55185
# Poissons Ratio (z) = 0.16428 0.18121
#
# Static dielectric constant tensor:
#      x y z
#    x 1.984500 0.000000 0.000000 
#    y 0.000000 1.928420 0.000000 
#    z 0.000000 0.000000 1.948740 
# 
# From -- ./inp_files/16220.got.cif
#   From: 2010.05.17/outbox.cif.g08.bks.cpg/sg56_9_cif.got.tgz:16220.got - 2010.06.03 13:42:01.
