data_PCOD9432678
_publ_section_title
;
Structure prediction by ZEFSAII (Michael W. Deem and Ramdas Pophale) SiO2 
 PCOD9432678
Probable space group: P C C N
;
_chemical_formula_sum "Si O2"
_cell_formula_units_Z 40
_cell_length_a 9.980694
_cell_length_b 18.708401
_cell_length_c 9.084360
_cell_angle_alpha 90.000000
_cell_angle_beta 90.000000
_cell_angle_gamma 90.000000
_cell_volume 1696.257368
_symmetry_space_group_name_H-M "P C C N"
_symmetry_group_IT_number 56
_symmetry_cell_setting 'orthorhombic'
loop_
_space_group_symop_operation_xyz
x,y,z
1/2-x,1/2-y,z
1/2+x,-y,1/2-z
-x,1/2+y,1/2-z
-x,-y,-z
1/2+x,1/2+y,-z
1/2-x,y,1/2+z
x,1/2-y,1/2+z
loop_
_atom_site_type_symbol
_atom_site_label
_atom_site_fract_x
_atom_site_fract_y
_atom_site_fract_z
Si Si1 0.622615 0.794726 0.032350
Si Si2 0.165500 0.915294 0.424821
Si Si3 0.478776 0.916548 0.478819
Si Si4 0.564166 0.933010 0.161902
Si Si5 0.497560 0.808455 0.729235
O O1 0.750000 0.750000 0.076778
O O2 0.597236 0.788612 0.859974
O O3 0.647833 0.877168 0.067208
O O4 0.496003 0.761555 0.123956
O O5 0.319566 0.905193 0.463561
O O6 0.118733 0.847318 0.326706
O O7 0.077677 0.929441 0.573429
O O8 0.129542 0.988566 0.336813
O O9 0.547262 0.900953 0.323263
O O10 0.533162 0.870301 0.612968
O O11 0.500000 0.000000 0.500000
#
# Coordination Sequence:
#
# PCOD9432678 Si02
#       5
#     8   8   8   8   8
#     4  11  25  46  74 104 147 194 241 298 364 440
#     4  10  23  45  70 104 151 184 238 309 356 429
#     4  12  24  42  72 107 144 188 240 297 368 427
#     4  10  23  43  70 110 146 187 242 299 369 427
#     4  11  24  47  68 108 142 188 247 289 371 429
#
# _framework density 23.581327000000002
#
# number of rings (size 3 to 8) (size 9 to 14) (size 15 to 20)
#    0.000    1.200    2.000    3.000    2.800    0.000 
#    3.600   18.000    0.000    0.000    0.000    0.000 
#    0.000    0.000    0.000    0.000    0.000    0.000 
#
# Total GULP energy -223410.843338 kJ/mol
# GULP energy per Si atom -5585.271083 kJ/mol
# Density = 2.352766 g / cm^3
# Si number density = 23.581327 Si / 1000 Ang^3
#
#
#
# Elastic Constant Matrix: (Units=GPa)
#
#
# Indices 1 2 3 4 5 6 
#
# 1 58.5352 15.5863 8.3243 0.0000 0.0000 0.0000
# 2 15.5863 92.9530 17.5752 0.0000 0.0000 0.0000
# 3 8.3243 17.5752 152.5167 0.0000 0.0000 0.0000
# 4 0.0000 0.0000 0.0000 57.7033 0.0000 0.0000
# 5 0.0000 0.0000 0.0000 0.0000 6.1639 0.0000
# 6 0.0000 0.0000 0.0000 0.0000 0.0000 17.3184
#
#
#
# Elastic Compliance Matrix: (Units=1/GPa)
#
#
# Indices 1 2 3 4 5 6 
#
# 1 0.017944 -0.002887 -0.000647 0.000000 0.000000 0.000000
# 2 -0.002887 0.011462 -0.001163 0.000000 0.000000 0.000000
# 3 -0.000647 -0.001163 0.006726 0.000000 0.000000 0.000000
# 4 0.000000 0.000000 0.000000 0.017330 0.000000 0.000000
# 5 0.000000 0.000000 0.000000 0.000000 0.162234 0.000000
# 6 0.000000 0.000000 0.000000 0.000000 0.000000 0.057742
#
#
# Mechanical properties :
#
#
# Convention : Reuss Voigt Hill
#
# Bulk Modulus (GPa) = 37.39836 42.99740 40.19788
# Shear Modulus (GPa) = 17.13827 33.73841 25.43834
#
# Velocity S-wave (km/s) = 2.69880 3.78660 3.28799
# Velocity P-wave (km/s) = 5.06015 6.11482 5.61231
#
# Compressibility (1/GPa) = 0.02673914
#
# Stress axis : x y z
#
# Youngs Moduli (GPa) = 55.72790 87.24409 148.67663
#
# Poissons Ratio (x) = 0.25184 0.09616
# Poissons Ratio (y) = 0.16086 0.17295
# Poissons Ratio (z) = 0.03604 0.10149
#
# Static dielectric constant tensor:
#      x y z
#    x 1.911250 0.000000 0.000000 
#    y 0.000000 1.911090 0.000000 
#    z 0.000000 0.000000 1.905890 
# 
# From -- ./inp_files/2573.got.cif
#   From: 2010.05.17/outbox.cif.g08.bks.cpg/sg56_2_cif.got.tgz:2573.got - 2010.06.03 13:42:01.
