data_PCOD9432027
_publ_section_title
;
Structure prediction by ZEFSAII (Michael W. Deem and Ramdas Pophale) SiO2 
 PCOD9432027
Probable space group: P C C N
;
_chemical_formula_sum "Si O2"
_cell_formula_units_Z 56
_cell_length_a 17.299850
_cell_length_b 8.356184
_cell_length_c 16.926278
_cell_angle_alpha 90.000000
_cell_angle_beta 90.000000
_cell_angle_gamma 90.000000
_cell_volume 2446.875100
_symmetry_space_group_name_H-M "P C C N"
_symmetry_group_IT_number 56
_symmetry_cell_setting 'orthorhombic'
loop_
_space_group_symop_operation_xyz
x,y,z
1/2-x,1/2-y,z
1/2+x,-y,1/2-z
-x,1/2+y,1/2-z
-x,-y,-z
1/2+x,1/2+y,-z
1/2-x,y,1/2+z
x,1/2-y,1/2+z
loop_
_atom_site_type_symbol
_atom_site_label
_atom_site_fract_x
_atom_site_fract_y
_atom_site_fract_z
Si Si1 0.458436 0.857068 0.065702
Si Si2 0.761815 0.559771 0.790276
Si Si3 0.904403 0.065342 0.826757
Si Si4 0.012961 0.350469 0.558774
Si Si5 0.708009 0.078252 0.956790
Si Si6 0.935287 0.399067 0.152886
Si Si7 0.259153 0.942071 0.874990
O O1 0.426000 0.716060 0.120463
O O2 0.381015 0.899466 0.017877
O O3 0.498161 0.992823 0.115620
O O4 0.522710 0.787990 0.005889
O O5 0.750000 0.750000 0.788915
O O6 0.684083 0.455642 0.803379
O O7 0.801936 0.514743 0.873608
O O8 0.787529 0.511286 0.700722
O O9 0.924462 0.908916 0.878536
O O10 0.949949 0.093241 0.746231
O O11 0.944957 0.278278 0.614809
O O12 0.000000 0.500000 0.500000
O O13 0.750000 0.250000 0.943210
O O14 0.753360 0.004892 0.033146
O O15 0.850011 0.472107 0.141649
O O16 0.250000 0.750000 0.874755
#
# Coordination Sequence:
#
# PCOD9432027 Si02
#       7
#     8   8   8   8   8   8   8
#     4  11  22  40  68  97 129 177 227 280 339 416
#     4  11  25  42  65  98 138 180 228 284 342 419
#     4  10  23  42  62  93 138 172 225 281 344 410
#     4  10  22  39  62  96 133 169 215 282 339 408
#     4  11  22  43  72  96 129 186 231 278 347 414
#     4  11  22  40  65  98 129 174 225 277 348 410
#     4  10  24  43  67  96 132 179 232 280 339 420
#
# _framework density 22.886333
#
# number of rings (size 3 to 8) (size 9 to 14) (size 15 to 20)
#    0.000    1.429    2.857    1.714    4.000    0.571 
#    0.000    4.286    0.000    0.000    0.000    0.000 
#    0.000    0.000    0.000    0.000    0.000    0.000 
#
# Total GULP energy -311847.737428 kJ/mol
# GULP energy per Si atom -5568.709597 kJ/mol
# Density = 2.283424 g / cm^3
# Si number density = 22.886333 Si / 1000 Ang^3
#
#
#
# Elastic Constant Matrix: (Units=GPa)
#
#
# Indices 1 2 3 4 5 6 
#
# 1 31.9145 7.2938 1.9652 0.0000 0.0000 0.0000
# 2 7.2938 63.1017 42.4284 0.0000 0.0000 0.0000
# 3 1.9652 42.4284 186.5864 0.0000 0.0000 0.0000
# 4 0.0000 0.0000 0.0000 7.9410 0.0000 0.0000
# 5 0.0000 0.0000 0.0000 0.0000 27.6949 0.0000
# 6 0.0000 0.0000 0.0000 0.0000 0.0000 25.7728
#
#
#
# Elastic Compliance Matrix: (Units=1/GPa)
#
#
# Indices 1 2 3 4 5 6 
#
# 1 0.032241 -0.004130 0.000599 0.000000 0.000000 0.000000
# 2 -0.004130 0.019237 -0.004331 0.000000 0.000000 0.000000
# 3 0.000599 -0.004331 0.006338 0.000000 0.000000 0.000000
# 4 0.000000 0.000000 0.000000 0.125928 0.000000 0.000000
# 5 0.000000 0.000000 0.000000 0.000000 0.036108 0.000000
# 6 0.000000 0.000000 0.000000 0.000000 0.000000 0.038801
#
#
# Mechanical properties :
#
#
# Convention : Reuss Voigt Hill
#
# Bulk Modulus (GPa) = 23.75679 42.77528 33.26603
# Shear Modulus (GPa) = 17.33676 27.60944 22.47310
#
# Velocity S-wave (km/s) = 2.75529 3.47705 3.13700
# Velocity P-wave (km/s) = 4.53045 5.90345 5.26193
#
# Compressibility (1/GPa) = 0.04209323
#
# Stress axis : x y z
#
# Youngs Moduli (GPa) = 31.01681 51.98393 157.78040
#
# Poissons Ratio (x) = 0.21468 -0.09459
# Poissons Ratio (y) = 0.12809 0.68331
# Poissons Ratio (z) = -0.01859 0.22513
#
# Static dielectric constant tensor:
#      x y z
#    x 1.909540 0.000000 0.000000 
#    y 0.000000 1.851900 0.000000 
#    z 0.000000 0.000000 1.999180 
# 
# From -- ./inp_files/13087.got.cif
#   From: 2010.05.17/outbox.cif.g08.bks.cpg/sg56_7_cif.got.tgz:13087.got - 2010.06.03 13:42:01.
