data_PCOD9432231
_publ_section_title
;
Structure prediction by ZEFSAII (Michael W. Deem and Ramdas Pophale) SiO2 
 PCOD9432231
Probable space group: P C C N
;
_chemical_formula_sum "Si O2"
_cell_formula_units_Z 28
_cell_length_a 16.946345
_cell_length_b 4.807972
_cell_length_c 12.553476
_cell_angle_alpha 90.000000
_cell_angle_beta 90.000000
_cell_angle_gamma 90.000000
_cell_volume 1022.826497
_symmetry_space_group_name_H-M "P C C N"
_symmetry_group_IT_number 56
_symmetry_cell_setting 'orthorhombic'
loop_
_space_group_symop_operation_xyz
x,y,z
1/2-x,1/2-y,z
1/2+x,-y,1/2-z
-x,1/2+y,1/2-z
-x,-y,-z
1/2+x,1/2+y,-z
1/2-x,y,1/2+z
x,1/2-y,1/2+z
loop_
_atom_site_type_symbol
_atom_site_label
_atom_site_fract_x
_atom_site_fract_y
_atom_site_fract_z
Si Si1 0.250000 0.250000 0.428919
Si Si2 0.103145 0.337234 0.304559
Si Si3 0.168624 0.621986 0.104384
Si Si4 0.941351 0.194466 0.566633
O O1 0.188842 0.410330 0.354972
O O2 0.299658 0.434888 0.508456
O O3 0.116976 0.437086 0.184592
O O4 0.039994 0.534704 0.363060
O O5 0.090195 0.019144 0.340048
O O6 0.250000 0.750000 0.151069
O O7 0.113180 0.814868 0.031198
O O8 0.000000 0.000000 0.500000
#
# Coordination Sequence:
#
# PCOD9432231 Si02
#       4
#     4   8   8   8
#     4  10  22  42  62 104 136 168 220 290 346 404
#     4  11  25  40  71  96 134 180 224 283 346 413
#     4  11  24  40  68  99 136 173 229 285 350 403
#     4  11  26  47  66  98 140 183 231 280 342 423
#
# _framework density 27.375124
#
# number of rings (size 3 to 8) (size 9 to 14) (size 15 to 20)
#    0.000    1.143    2.857    1.714   12.000    2.286 
#    0.000    0.000    0.000    0.000    0.000    0.000 
#    0.000    0.000    0.000    0.000    0.000    0.000 
#
# Total GULP energy -156296.293553 kJ/mol
# GULP energy per Si atom -5582.010484 kJ/mol
# Density = 2.731282 g / cm^3
# Si number density = 27.375124 Si / 1000 Ang^3
#
#
#
# Elastic Constant Matrix: (Units=GPa)
#
#
# Indices 1 2 3 4 5 6 
#
# 1 59.5506 5.5785 30.8014 0.0000 0.0000 0.0000
# 2 5.5785 106.1489 21.7369 0.0000 0.0000 0.0000
# 3 30.8014 21.7369 115.8330 0.0000 0.0000 0.0000
# 4 0.0000 0.0000 0.0000 36.0029 0.0000 0.0000
# 5 0.0000 0.0000 0.0000 0.0000 41.1681 0.0000
# 6 0.0000 0.0000 0.0000 0.0000 0.0000 44.7030
#
#
#
# Elastic Compliance Matrix: (Units=1/GPa)
#
#
# Indices 1 2 3 4 5 6 
#
# 1 0.019471 0.000038 -0.005185 0.000000 0.000000 0.000000
# 2 0.000038 0.009797 -0.001849 0.000000 0.000000 0.000000
# 3 -0.005185 -0.001849 0.010359 0.000000 0.000000 0.000000
# 4 0.000000 0.000000 0.000000 0.027776 0.000000 0.000000
# 5 0.000000 0.000000 0.000000 0.000000 0.024291 0.000000
# 6 0.000000 0.000000 0.000000 0.000000 0.000000 0.022370
#
#
# Mechanical properties :
#
#
# Convention : Reuss Voigt Hill
#
# Bulk Modulus (GPa) = 39.00675 44.19624 41.60149
# Shear Modulus (GPa) = 36.60374 39.26918 37.93646
#
# Velocity S-wave (km/s) = 3.66063 3.79157 3.72667
# Velocity P-wave (km/s) = 5.66982 5.94539 5.80924
#
# Compressibility (1/GPa) = 0.02563659
#
# Stress axis : x y z
#
# Youngs Moduli (GPa) = 51.35970 102.06898 96.53702
#
# Poissons Ratio (x) = -0.00393 0.50051
# Poissons Ratio (y) = -0.00198 0.17847
# Poissons Ratio (z) = 0.26628 0.18870
#
# Static dielectric constant tensor:
#      x y z
#    x 3.060580 0.000000 0.000000 
#    y 0.000000 2.215840 0.000000 
#    z 0.000000 0.000000 2.115060 
# 
# From -- ./inp_files/5361.got.cif
#   From: 2010.05.17/outbox.cif.g08.bks.cpg/sg56_3_cif.got.tgz:5361.got - 2010.06.03 13:42:01.
