data_PCOD9432788
_publ_section_title
;
Structure prediction by ZEFSAII (Michael W. Deem and Ramdas Pophale) SiO2 
 PCOD9432788
Probable space group: P C C N
;
_chemical_formula_sum "Si O2"
_cell_formula_units_Z 64
_cell_length_a 12.077616
_cell_length_b 15.966816
_cell_length_c 13.623104
_cell_angle_alpha 90.000000
_cell_angle_beta 90.000000
_cell_angle_gamma 90.000000
_cell_volume 2627.093985
_symmetry_space_group_name_H-M "P C C N"
_symmetry_group_IT_number 56
_symmetry_cell_setting 'orthorhombic'
loop_
_space_group_symop_operation_xyz
x,y,z
1/2-x,1/2-y,z
1/2+x,-y,1/2-z
-x,1/2+y,1/2-z
-x,-y,-z
1/2+x,1/2+y,-z
1/2-x,y,1/2+z
x,1/2-y,1/2+z
loop_
_atom_site_type_symbol
_atom_site_label
_atom_site_fract_x
_atom_site_fract_y
_atom_site_fract_z
Si Si1 0.785060 0.058789 0.550129
Si Si2 0.925460 0.979016 0.163762
Si Si3 0.098386 0.045073 0.300521
Si Si4 0.726026 0.921551 0.396156
Si Si5 0.009025 0.356450 0.488552
Si Si6 0.368829 0.279897 0.369832
Si Si7 0.593215 0.821725 0.806498
Si Si8 0.363891 0.731199 0.399568
O O1 0.818351 0.155592 0.530825
O O2 0.674804 0.025323 0.609469
O O3 0.879653 0.031793 0.628033
O O4 0.776388 0.000984 0.454009
O O5 0.008478 0.936711 0.082544
O O6 0.897385 0.896292 0.226524
O O7 0.984685 0.039039 0.241127
O O8 0.186806 0.050607 0.212185
O O9 0.110778 0.122852 0.373206
O O10 0.617041 0.883426 0.449079
O O11 0.821493 0.851004 0.389014
O O12 0.041968 0.276552 0.422989
O O13 0.910493 0.316736 0.551533
O O14 0.250000 0.250000 0.405996
O O15 0.371491 0.260023 0.253452
O O16 0.470165 0.802782 0.842091
O O17 0.250000 0.750000 0.340375
#
# Coordination Sequence:
#
# PCOD9432788 Si02
#       8
#     8   8   8   8   8   8   8   8
#     4  11  26  47  70 107 148 184 249 305 362 452
#     4  10  23  47  70 101 143 191 246 302 365 444
#     4  12  23  43  72 104 138 188 239 298 373 430
#     4  11  24  44  80 104 136 192 242 314 370 428
#     4  10  26  45  69 107 148 189 245 304 368 446
#     4  11  22  42  70 108 141 173 240 316 366 426
#     4  11  23  45  69 106 142 185 246 301 368 429
#     4  12  29  46  66 103 152 198 239 295 371 453
#
# _framework density 24.361519000000001
#
# number of rings (size 3 to 8) (size 9 to 14) (size 15 to 20)
#    0.000    1.000    3.750    2.250    8.750    2.500 
#    0.000    2.500    0.000    0.000    0.000    0.000 
#    0.000    0.000    0.000    0.000    0.000    0.000 
#
# Total GULP energy -357528.419791 kJ/mol
# GULP energy per Si atom -5586.381559 kJ/mol
# Density = 2.430607 g / cm^3
# Si number density = 24.361519 Si / 1000 Ang^3
#
#
#
# Elastic Constant Matrix: (Units=GPa)
#
#
# Indices 1 2 3 4 5 6 
#
# 1 87.3566 10.6319 2.6236 0.0000 0.0000 0.0000
# 2 10.6319 86.2173 16.4466 0.0000 0.0000 0.0000
# 3 2.6236 16.4466 56.9680 0.0000 0.0000 0.0000
# 4 0.0000 0.0000 0.0000 25.3416 0.0000 0.0000
# 5 0.0000 0.0000 0.0000 0.0000 17.0890 0.0000
# 6 0.0000 0.0000 0.0000 0.0000 0.0000 29.4496
#
#
#
# Elastic Compliance Matrix: (Units=1/GPa)
#
#
# Indices 1 2 3 4 5 6 
#
# 1 0.011623 -0.001409 -0.000129 0.000000 0.000000 0.000000
# 2 -0.001409 0.012445 -0.003528 0.000000 0.000000 0.000000
# 3 -0.000129 -0.003528 0.018578 0.000000 0.000000 0.000000
# 4 0.000000 0.000000 0.000000 0.039461 0.000000 0.000000
# 5 0.000000 0.000000 0.000000 0.000000 0.058517 0.000000
# 6 0.000000 0.000000 0.000000 0.000000 0.000000 0.033956
#
#
# Mechanical properties :
#
#
# Convention : Reuss Voigt Hill
#
# Bulk Modulus (GPa) = 30.75463 32.21622 31.48542
# Shear Modulus (GPa) = 25.56896 27.76537 26.66716
#
# Velocity S-wave (km/s) = 3.24321 3.37964 3.31213
# Velocity P-wave (km/s) = 5.16490 5.33687 5.25159
#
# Compressibility (1/GPa) = 0.03251543
#
# Stress axis : x y z
#
# Youngs Moduli (GPa) = 86.03891 80.35148 53.82659
#
# Poissons Ratio (x) = 0.11319 0.00692
# Poissons Ratio (y) = 0.12120 0.18990
# Poissons Ratio (z) = 0.01106 0.28349
#
# Static dielectric constant tensor:
#      x y z
#    x 2.008250 0.000000 0.000000 
#    y 0.000000 1.942640 0.000000 
#    z 0.000000 0.000000 2.004500 
# 
# From -- ./inp_files/11848.got.cif
#   From: 2010.05.17/outbox.cif.g08.bks.cpg/sg56_6_cif.got.tgz:11848.got - 2010.06.03 13:42:01.
