data_PCOD9432483
_publ_section_title
;
Structure prediction by ZEFSAII (Michael W. Deem and Ramdas Pophale) SiO2 
 PCOD9432483
Probable space group: P C C N
;
_chemical_formula_sum "Si O2"
_cell_formula_units_Z 32
_cell_length_a 8.055578
_cell_length_b 15.399882
_cell_length_c 10.580228
_cell_angle_alpha 90.000000
_cell_angle_beta 90.000000
_cell_angle_gamma 90.000000
_cell_volume 1312.529662
_symmetry_space_group_name_H-M "P C C N"
_symmetry_group_IT_number 56
_symmetry_cell_setting 'orthorhombic'
loop_
_space_group_symop_operation_xyz
x,y,z
1/2-x,1/2-y,z
1/2+x,-y,1/2-z
-x,1/2+y,1/2-z
-x,-y,-z
1/2+x,1/2+y,-z
1/2-x,y,1/2+z
x,1/2-y,1/2+z
loop_
_atom_site_type_symbol
_atom_site_label
_atom_site_fract_x
_atom_site_fract_y
_atom_site_fract_z
Si Si1 0.438468 0.780745 0.357614
Si Si2 0.063459 0.096649 0.627016
Si Si3 0.068580 0.081433 0.339554
Si Si4 0.109646 0.085456 0.989002
O O1 0.250000 0.750000 0.365695
O O2 0.539222 0.693801 0.327878
O O3 0.476495 0.851841 0.250765
O O4 0.503257 0.828369 0.484870
O O5 0.992636 0.095101 0.481587
O O6 0.256583 0.078774 0.603046
O O7 0.971062 0.018254 0.695187
O O8 0.265396 0.092324 0.370054
O O9 0.000000 0.000000 0.000000
#
# Coordination Sequence:
#
# PCOD9432483 Si02
#       4
#     8   8   8   8
#     4  12  25  44  74 115 144 193 248 299 372 446
#     4   9  22  49  67 105 151 184 250 292 372 439
#     4   9  23  48  72  99 149 192 236 308 363 445
#     4  10  22  46  72 102 143 190 242 308 362 433
#
# _framework density 24.380400999999999
#
# number of rings (size 3 to 8) (size 9 to 14) (size 15 to 20)
#    1.500    0.500    0.000    2.250    0.000    5.000 
#   13.500    0.000    0.000    0.000    0.000    0.000 
#    0.000    0.000    0.000    0.000    0.000    0.000 
#
# Total GULP energy -178903.967958 kJ/mol
# GULP energy per Si atom -5590.748999 kJ/mol
# Density = 2.432491 g / cm^3
# Si number density = 24.380401 Si / 1000 Ang^3
#
#
#
# Elastic Constant Matrix: (Units=GPa)
#
#
# Indices 1 2 3 4 5 6 
#
# 1 184.9997 89.8268 26.7959 0.0000 0.0000 0.0000
# 2 89.8268 218.7030 21.7044 0.0000 0.0000 0.0000
# 3 26.7959 21.7044 61.6232 0.0000 0.0000 0.0000
# 4 0.0000 0.0000 0.0000 44.8423 0.0000 0.0000
# 5 0.0000 0.0000 0.0000 0.0000 25.6781 0.0000
# 6 0.0000 0.0000 0.0000 0.0000 0.0000 61.0917
#
#
#
# Elastic Compliance Matrix: (Units=1/GPa)
#
#
# Indices 1 2 3 4 5 6 
#
# 1 0.007006 -0.002669 -0.002107 0.000000 0.000000 0.000000
# 2 -0.002669 0.005754 -0.000866 0.000000 0.000000 0.000000
# 3 -0.002107 -0.000866 0.017449 0.000000 0.000000 0.000000
# 4 0.000000 0.000000 0.000000 0.022300 0.000000 0.000000
# 5 0.000000 0.000000 0.000000 0.000000 0.038944 0.000000
# 6 0.000000 0.000000 0.000000 0.000000 0.000000 0.016369
#
#
# Mechanical properties :
#
#
# Convention : Reuss Voigt Hill
#
# Bulk Modulus (GPa) = 52.83654 82.44226 67.63940
# Shear Modulus (GPa) = 39.86776 48.12232 43.99504
#
# Velocity S-wave (km/s) = 4.04819 4.44758 4.25258
# Velocity P-wave (km/s) = 6.60070 7.76293 7.20529
#
# Compressibility (1/GPa) = 0.01892630
#
# Stress axis : x y z
#
# Youngs Moduli (GPa) = 142.72896 173.77858 57.31036
#
# Poissons Ratio (x) = 0.46374 0.12073
# Poissons Ratio (y) = 0.38089 0.04965
# Poissons Ratio (z) = 0.30068 0.15056
#
# Static dielectric constant tensor:
#      x y z
#    x 1.953230 0.000000 0.000000 
#    y 0.000000 1.888700 0.000000 
#    z 0.000000 0.000000 2.147250 
# 
# From -- ./inp_files/10158.got.cif
#   From: 2010.05.17/outbox.cif.g08.bks.cpg/sg56_6_cif.got.tgz:10158.got - 2010.06.03 13:42:01.
