data_PCOD9432080
_publ_section_title
;
Structure prediction by ZEFSAII (Michael W. Deem and Ramdas Pophale) SiO2 
 PCOD9432080
Probable space group: P C C N
;
_chemical_formula_sum "Si O2"
_cell_formula_units_Z 48
_cell_length_a 8.153764
_cell_length_b 11.382969
_cell_length_c 21.811275
_cell_angle_alpha 90.000000
_cell_angle_beta 90.000000
_cell_angle_gamma 90.000000
_cell_volume 2024.392612
_symmetry_space_group_name_H-M "P C C N"
_symmetry_group_IT_number 56
_symmetry_cell_setting 'orthorhombic'
loop_
_space_group_symop_operation_xyz
x,y,z
1/2-x,1/2-y,z
1/2+x,-y,1/2-z
-x,1/2+y,1/2-z
-x,-y,-z
1/2+x,1/2+y,-z
1/2-x,y,1/2+z
x,1/2-y,1/2+z
loop_
_atom_site_type_symbol
_atom_site_label
_atom_site_fract_x
_atom_site_fract_y
_atom_site_fract_z
Si Si1 0.553324 0.077350 0.188415
Si Si2 0.685165 0.033579 0.316613
Si Si3 0.821043 0.861926 0.616680
Si Si4 0.843853 0.919501 0.991913
Si Si5 0.423856 0.199381 0.632155
Si Si6 0.684485 0.365438 0.434750
O O1 0.369581 0.020115 0.191035
O O2 0.952492 0.302242 0.149778
O O3 0.620575 0.096100 0.256387
O O4 0.666237 0.979463 0.156221
O O5 0.563943 0.926041 0.334586
O O6 0.699911 0.117424 0.375200
O O7 0.750000 0.750000 0.652907
O O8 0.705662 0.873461 0.557663
O O9 0.002131 0.846080 0.588859
O O10 0.895406 0.826864 0.939780
O O11 0.702211 0.008747 0.968086
O O12 0.000000 0.000000 0.000000
O O13 0.250000 0.250000 0.654585
O O14 0.750000 0.250000 0.469506
#
# Coordination Sequence:
#
# PCOD9432080 Si02
#       6
#     8   8   8   8   8   8
#     4  10  22  40  65  94 125 169 215 264 337 405
#     4   9  21  39  62  92 126 163 210 266 328 405
#     4  11  24  40  61  89 123 165 212 266 317 378
#     4  11  23  40  63  92 126 165 215 271 325 388
#     4   9  20  41  64  88 125 170 213 265 329 401
#     4  10  22  40  62  91 123 162 209 260 324 389
#
# _framework density 23.710815
#
# number of rings (size 3 to 8) (size 9 to 14) (size 15 to 20)
#    0.000    2.000    0.000    3.000    0.000   11.333 
#    0.000    1.667    0.000    0.000    0.000    0.000 
#    0.000    0.000    0.000    0.000    0.000    0.000 
#
# Total GULP energy -268425.797889 kJ/mol
# GULP energy per Si atom -5592.204123 kJ/mol
# Density = 2.365685 g / cm^3
# Si number density = 23.710815 Si / 1000 Ang^3
#
#
#
# Elastic Constant Matrix: (Units=GPa)
#
#
# Indices 1 2 3 4 5 6 
#
# 1 66.7802 34.6293 2.7328 0.0000 0.0000 0.0000
# 2 34.6293 122.2417 32.1057 0.0000 0.0000 0.0000
# 3 2.7328 32.1057 67.8406 0.0000 0.0000 0.0000
# 4 0.0000 0.0000 0.0000 60.7386 0.0000 0.0000
# 5 0.0000 0.0000 0.0000 0.0000 24.6640 0.0000
# 6 0.0000 0.0000 0.0000 0.0000 0.0000 46.4758
#
#
#
# Elastic Compliance Matrix: (Units=1/GPa)
#
#
# Indices 1 2 3 4 5 6 
#
# 1 0.017766 -0.005532 0.001903 0.000000 0.000000 0.000000
# 2 -0.005532 0.011064 -0.005013 0.000000 0.000000 0.000000
# 3 0.001903 -0.005013 0.017036 0.000000 0.000000 0.000000
# 4 0.000000 0.000000 0.000000 0.016464 0.000000 0.000000
# 5 0.000000 0.000000 0.000000 0.000000 0.040545 0.000000
# 6 0.000000 0.000000 0.000000 0.000000 0.000000 0.021517
#
#
# Mechanical properties :
#
#
# Convention : Reuss Voigt Hill
#
# Bulk Modulus (GPa) = 34.98963 43.97757 39.48360
# Shear Modulus (GPa) = 33.06765 38.86865 35.96815
#
# Velocity S-wave (km/s) = 3.73852 4.05319 3.89903
# Velocity P-wave (km/s) = 5.78137 6.36335 6.07933
#
# Compressibility (1/GPa) = 0.02857990
#
# Stress axis : x y z
#
# Youngs Moduli (GPa) = 56.28884 90.37914 58.69777
#
# Poissons Ratio (x) = 0.50001 -0.11168
# Poissons Ratio (y) = 0.31141 0.29428
# Poissons Ratio (z) = -0.10709 0.45311
#
# Static dielectric constant tensor:
#      x y z
#    x 1.896120 0.000000 0.000000 
#    y 0.000000 2.046630 0.000000 
#    z 0.000000 0.000000 1.874680 
# 
# From -- ./inp_files/20466.got.cif
#   From: 2010.05.17/outbox.cif.g08.bks.cpg/sg56_11_cif.got.tgz:20466.got - 2010.06.03 13:42:01.
