data_PCOD9432159
_publ_section_title
;
Structure prediction by ZEFSAII (Michael W. Deem and Ramdas Pophale) SiO2 
 PCOD9432159
Probable space group: P C C N
;
_chemical_formula_sum "Si O2"
_cell_formula_units_Z 44
_cell_length_a 28.277612
_cell_length_b 7.890659
_cell_length_c 8.750337
_cell_angle_alpha 90.000000
_cell_angle_beta 90.000000
_cell_angle_gamma 90.000000
_cell_volume 1952.453889
_symmetry_space_group_name_H-M "P C C N"
_symmetry_group_IT_number 56
_symmetry_cell_setting 'orthorhombic'
loop_
_space_group_symop_operation_xyz
x,y,z
1/2-x,1/2-y,z
1/2+x,-y,1/2-z
-x,1/2+y,1/2-z
-x,-y,-z
1/2+x,1/2+y,-z
1/2-x,y,1/2+z
x,1/2-y,1/2+z
loop_
_atom_site_type_symbol
_atom_site_label
_atom_site_fract_x
_atom_site_fract_y
_atom_site_fract_z
Si Si1 0.443103 0.226939 0.177411
Si Si2 0.384543 0.085541 0.438443
Si Si3 0.250000 0.750000 0.046235
Si Si4 0.599310 0.231931 0.890319
Si Si5 0.040837 0.920721 0.351959
Si Si6 0.689452 0.082809 0.713753
O O1 0.423511 0.102443 0.306343
O O2 0.457324 0.400574 0.264901
O O3 0.489116 0.145237 0.100115
O O4 0.400807 0.277232 0.062637
O O5 0.388115 0.905171 0.521220
O O6 0.333353 0.088961 0.355935
O O7 0.269898 0.898462 0.157416
O O8 0.209823 0.816768 0.931959
O O9 0.558106 0.286017 0.775392
O O10 0.644626 0.170417 0.796212
O O11 0.579078 0.100047 0.013245
#
# Coordination Sequence:
#
# PCOD9432159 Si02
#       6
#     8   8   4   8   8   8
#     4  11  26  41  63  97 141 193 234 275 322 390
#     4  11  24  43  62  99 138 179 226 277 336 398
#     4  10  22  40  76 106 126 158 216 290 348 424
#     4  11  21  39  66  95 135 175 225 287 327 392
#     4  11  23  38  62  95 136 188 238 272 322 380
#     4  11  21  42  69 107 126 162 217 284 346 406
#
# _framework density 22.535744000000001
#
# number of rings (size 3 to 8) (size 9 to 14) (size 15 to 20)
#    0.000    1.091    3.636    2.182    2.545    4.364 
#    0.000    0.000    0.000    3.273    0.000    0.000 
#    0.000    0.000    0.000    0.000    0.000    0.000 
#
# Total GULP energy -245850.548821 kJ/mol
# GULP energy per Si atom -5587.512473 kJ/mol
# Density = 2.248445 g / cm^3
# Si number density = 22.535744 Si / 1000 Ang^3
#
#
#
# Elastic Constant Matrix: (Units=GPa)
#
#
# Indices 1 2 3 4 5 6 
#
# 1 99.2611 37.7322 44.3339 0.0000 0.0000 0.0000
# 2 37.7322 88.1660 28.7684 0.0000 0.0000 0.0000
# 3 44.3339 28.7684 127.3660 0.0000 0.0000 0.0000
# 4 0.0000 0.0000 0.0000 31.9023 0.0000 0.0000
# 5 0.0000 0.0000 0.0000 0.0000 57.0189 0.0000
# 6 0.0000 0.0000 0.0000 0.0000 0.0000 31.5028
#
#
#
# Elastic Compliance Matrix: (Units=1/GPa)
#
#
# Indices 1 2 3 4 5 6 
#
# 1 0.013437 -0.004561 -0.003647 0.000000 0.000000 0.000000
# 2 -0.004561 0.013793 -0.001528 0.000000 0.000000 0.000000
# 3 -0.003647 -0.001528 0.009466 0.000000 0.000000 0.000000
# 4 0.000000 0.000000 0.000000 0.031346 0.000000 0.000000
# 5 0.000000 0.000000 0.000000 0.000000 0.017538 0.000000
# 6 0.000000 0.000000 0.000000 0.000000 0.000000 0.031743
#
#
# Mechanical properties :
#
#
# Convention : Reuss Voigt Hill
#
# Bulk Modulus (GPa) = 58.05701 59.60691 58.83196
# Shear Modulus (GPa) = 35.07910 37.68204 36.38057
#
# Velocity S-wave (km/s) = 3.94965 4.09357 4.02226
# Velocity P-wave (km/s) = 6.82772 6.98931 6.90899
#
# Compressibility (1/GPa) = 0.01722445
#
# Stress axis : x y z
#
# Youngs Moduli (GPa) = 74.42155 72.50288 105.64135
#
# Poissons Ratio (x) = 0.33065 0.38528
# Poissons Ratio (y) = 0.33940 0.16141
# Poissons Ratio (z) = 0.27142 0.11078
#
# Static dielectric constant tensor:
#      x y z
#    x 1.851480 0.000000 0.000000 
#    y 0.000000 1.845900 0.000000 
#    z 0.000000 0.000000 1.894720 
# 
# From -- ./inp_files/5098.got.cif
#   From: 2010.05.17/outbox.cif.g08.bks.cpg/sg56_3_cif.got.tgz:5098.got - 2010.06.03 13:42:01.
