data_PCOD9432227
_publ_section_title
;
Structure prediction by ZEFSAII (Michael W. Deem and Ramdas Pophale) SiO2 
 PCOD9432227
Probable space group: P C C N
;
_chemical_formula_sum "Si O2"
_cell_formula_units_Z 40
_cell_length_a 5.374753
_cell_length_b 16.592518
_cell_length_c 18.980248
_cell_angle_alpha 90.000000
_cell_angle_beta 90.000000
_cell_angle_gamma 90.000000
_cell_volume 1692.671535
_symmetry_space_group_name_H-M "P C C N"
_symmetry_group_IT_number 56
_symmetry_cell_setting 'orthorhombic'
loop_
_space_group_symop_operation_xyz
x,y,z
1/2-x,1/2-y,z
1/2+x,-y,1/2-z
-x,1/2+y,1/2-z
-x,-y,-z
1/2+x,1/2+y,-z
1/2-x,y,1/2+z
x,1/2-y,1/2+z
loop_
_atom_site_type_symbol
_atom_site_label
_atom_site_fract_x
_atom_site_fract_y
_atom_site_fract_z
Si Si1 0.360291 0.925620 0.963058
Si Si2 0.850859 0.856737 0.187060
Si Si3 0.835532 0.134885 0.388517
Si Si4 0.670490 0.663818 0.342639
Si Si5 0.033194 0.016181 0.141994
O O1 0.496610 0.881732 0.898009
O O2 0.108769 0.963002 0.930412
O O3 0.344478 0.862425 0.027205
O O4 0.500000 0.000000 0.000000
O O5 0.583149 0.840009 0.152830
O O6 0.924462 0.824073 0.263466
O O7 0.368022 0.044774 0.312128
O O8 0.073883 0.828693 0.136231
O O9 0.775123 0.040056 0.369722
O O10 0.750000 0.750000 0.371707
O O11 0.898903 0.602658 0.328263
#
# Coordination Sequence:
#
# PCOD9432227 Si02
#       5
#     8   8   8   8   8
#     4  12  21  44  72 110 141 188 254 306 361 447
#     4  10  24  43  71 107 138 196 247 300 358 444
#     4  10  22  41  77 105 136 181 259 302 343 426
#     4  12  29  45  69 109 160 190 242 316 387 434
#     4  10  23  38  77 102 139 190 248 302 353 442
#
# _framework density 23.631281999999999
#
# number of rings (size 3 to 8) (size 9 to 14) (size 15 to 20)
#    1.200    0.000    4.000    0.600   11.200    0.800 
#    0.000    1.000    4.400    0.000    0.000    0.000 
#    0.000    0.000    0.000    0.000    0.000    0.000 
#
# Total GULP energy -223096.294622 kJ/mol
# GULP energy per Si atom -5577.407366 kJ/mol
# Density = 2.357750 g / cm^3
# Si number density = 23.631282 Si / 1000 Ang^3
#
#
#
# Elastic Constant Matrix: (Units=GPa)
#
#
# Indices 1 2 3 4 5 6 
#
# 1 130.1830 28.5162 54.9809 0.0000 0.0000 0.0000
# 2 28.5162 102.3713 12.4298 0.0000 0.0000 0.0000
# 3 54.9809 12.4298 147.5575 0.0000 0.0000 0.0000
# 4 0.0000 0.0000 0.0000 0.5386 0.0000 0.0000
# 5 0.0000 0.0000 0.0000 0.0000 35.5086 0.0000
# 6 0.0000 0.0000 0.0000 0.0000 0.0000 17.0259
#
#
#
# Elastic Compliance Matrix: (Units=1/GPa)
#
#
# Indices 1 2 3 4 5 6 
#
# 1 0.009609 -0.002265 -0.003390 0.000000 0.000000 0.000000
# 2 -0.002265 0.010403 -0.000032 0.000000 0.000000 0.000000
# 3 -0.003390 -0.000032 0.008043 0.000000 0.000000 0.000000
# 4 0.000000 0.000000 0.000000 1.856655 0.000000 0.000000
# 5 0.000000 0.000000 0.000000 0.000000 0.028162 0.000000
# 6 0.000000 0.000000 0.000000 0.000000 0.000000 0.058734
#
#
# Mechanical properties :
#
#
# Convention : Reuss Voigt Hill
#
# Bulk Modulus (GPa) = 59.94852 63.55174 61.75013
# Shear Modulus (GPa) = 2.51441 29.56029 16.03735
#
# Velocity S-wave (km/s) = 1.03263 3.54064 2.60792
# Velocity P-wave (km/s) = 5.18123 6.60805 5.93765
#
# Compressibility (1/GPa) = 0.01668098
#
# Stress axis : x y z
#
# Youngs Moduli (GPa) = 104.06654 96.12373 124.33558
#
# Poissons Ratio (x) = 0.21773 0.42145
# Poissons Ratio (y) = 0.23573 0.00402
# Poissons Ratio (z) = 0.35275 0.00311
#
# Static dielectric constant tensor:
#      x y z
#    x 1.962150 0.000000 0.000000 
#    y 0.000000 2.050200 0.000000 
#    z 0.000000 0.000000 1.949580 
# 
# From -- ./inp_files/13840.got.cif
#   From: 2010.05.17/outbox.cif.g08.bks.cpg/sg56_7_cif.got.tgz:13840.got - 2010.06.03 13:42:01.
