data_PCOD9432731
_publ_section_title
;
Structure prediction by ZEFSAII (Michael W. Deem and Ramdas Pophale) SiO2 
 PCOD9432731
Probable space group: P C C N
;
_chemical_formula_sum "Si O2"
_cell_formula_units_Z 52
_cell_length_a 7.919434
_cell_length_b 17.641647
_cell_length_c 14.590798
_cell_angle_alpha 90.000000
_cell_angle_beta 90.000000
_cell_angle_gamma 90.000000
_cell_volume 2038.507514
_symmetry_space_group_name_H-M "P C C N"
_symmetry_group_IT_number 56
_symmetry_cell_setting 'orthorhombic'
loop_
_space_group_symop_operation_xyz
x,y,z
1/2-x,1/2-y,z
1/2+x,-y,1/2-z
-x,1/2+y,1/2-z
-x,-y,-z
1/2+x,1/2+y,-z
1/2-x,y,1/2+z
x,1/2-y,1/2+z
loop_
_atom_site_type_symbol
_atom_site_label
_atom_site_fract_x
_atom_site_fract_y
_atom_site_fract_z
Si Si1 0.926621 0.295311 0.007910
Si Si2 0.304688 0.381814 0.257318
Si Si3 0.316886 0.663769 0.314305
Si Si4 0.170243 0.506870 0.385860
Si Si5 0.750000 0.750000 0.106527
Si Si6 0.215242 0.453781 0.582898
Si Si7 0.657623 0.402782 0.344398
O O1 0.750000 0.250000 0.014612
O O2 0.873156 0.361732 0.939602
O O3 0.085405 0.257241 0.957784
O O4 0.964193 0.319202 0.112351
O O5 0.235046 0.460481 0.298910
O O6 0.225899 0.318783 0.322383
O O7 0.288187 0.380825 0.147771
O O8 0.503394 0.379907 0.279426
O O9 0.250000 0.750000 0.296260
O O10 0.225455 0.594746 0.372237
O O11 0.319958 0.626534 0.213073
O O12 0.239183 0.459977 0.474358
O O13 0.968839 0.508799 0.398399
O O14 0.348858 0.510203 0.627957
#
# Coordination Sequence:
#
# PCOD9432731 Si02
#       7
#     8   8   8   8   4   8   8
#     4  10  23  44  75  96 148 189 241 309 369 442
#     4  11  23  46  69 100 149 182 248 318 377 455
#     4  11  22  41  69 103 139 192 243 300 371 454
#     4  11  24  41  70 104 141 191 254 303 378 457
#     4  10  26  46  70 112 142 192 250 312 376 452
#     4  11  22  42  72 103 140 193 245 312 373 463
#     4  11  22  42  68 102 137 188 246 300 378 446
#
# _framework density 25.508856999999999
#
# number of rings (size 3 to 8) (size 9 to 14) (size 15 to 20)
#    0.000    1.231    4.615    0.462    2.154    1.846 
#    0.000    0.769   10.154    0.000    0.000    0.000 
#    0.000    0.000    0.000    0.000    0.000    0.000 
#
# Total GULP energy -290104.058518 kJ/mol
# GULP energy per Si atom -5578.924202 kJ/mol
# Density = 2.545080 g / cm^3
# Si number density = 25.508857 Si / 1000 Ang^3
#
#
#
# Elastic Constant Matrix: (Units=GPa)
#
#
# Indices 1 2 3 4 5 6 
#
# 1 61.5669 10.4288 18.8209 0.0000 0.0000 0.0000
# 2 10.4288 38.6229 3.2397 0.0000 0.0000 0.0000
# 3 18.8209 3.2397 94.5678 0.0000 0.0000 0.0000
# 4 0.0000 0.0000 0.0000 62.5210 0.0000 0.0000
# 5 0.0000 0.0000 0.0000 0.0000 17.8795 0.0000
# 6 0.0000 0.0000 0.0000 0.0000 0.0000 27.7216
#
#
#
# Elastic Compliance Matrix: (Units=1/GPa)
#
#
# Indices 1 2 3 4 5 6 
#
# 1 0.018072 -0.004591 -0.003439 0.000000 0.000000 0.000000
# 2 -0.004591 0.027132 -0.000016 0.000000 0.000000 0.000000
# 3 -0.003439 -0.000016 0.011259 0.000000 0.000000 0.000000
# 4 0.000000 0.000000 0.000000 0.015995 0.000000 0.000000
# 5 0.000000 0.000000 0.000000 0.000000 0.055930 0.000000
# 6 0.000000 0.000000 0.000000 0.000000 0.000000 0.036073
#
#
# Mechanical properties :
#
#
# Convention : Reuss Voigt Hill
#
# Bulk Modulus (GPa) = 24.77027 28.85960 26.81494
# Shear Modulus (GPa) = 25.77181 32.44231 29.10706
#
# Velocity S-wave (km/s) = 3.18198 3.57011 3.38162
# Velocity P-wave (km/s) = 4.81991 5.32281 5.07759
#
# Compressibility (1/GPa) = 0.04037097
#
# Stress axis : x y z
#
# Youngs Moduli (GPa) = 55.33551 36.85629 88.81426
#
# Poissons Ratio (x) = 0.16921 0.30546
# Poissons Ratio (y) = 0.25405 0.00140
# Poissons Ratio (z) = 0.19032 0.00058
#
# Static dielectric constant tensor:
#      x y z
#    x 2.073620 0.000000 0.000000 
#    y 0.000000 2.079460 0.000000 
#    z 0.000000 0.000000 2.014930 
# 
# From -- ./inp_files/10810.got.cif
#   From: 2010.05.17/outbox.cif.g08.bks.cpg/sg56_6_cif.got.tgz:10810.got - 2010.06.03 13:42:01.
