data_PCOD9432138
_publ_section_title
;
Structure prediction by ZEFSAII (Michael W. Deem and Ramdas Pophale) SiO2 
 PCOD9432138
Probable space group: P C C N
;
_chemical_formula_sum "Si O2"
_cell_formula_units_Z 60
_cell_length_a 5.337796
_cell_length_b 17.106929
_cell_length_c 30.833962
_cell_angle_alpha 90.000000
_cell_angle_beta 90.000000
_cell_angle_gamma 90.000000
_cell_volume 2815.550736
_symmetry_space_group_name_H-M "P C C N"
_symmetry_group_IT_number 56
_symmetry_cell_setting 'orthorhombic'
loop_
_space_group_symop_operation_xyz
x,y,z
1/2-x,1/2-y,z
1/2+x,-y,1/2-z
-x,1/2+y,1/2-z
-x,-y,-z
1/2+x,1/2+y,-z
1/2-x,y,1/2+z
x,1/2-y,1/2+z
loop_
_atom_site_type_symbol
_atom_site_label
_atom_site_fract_x
_atom_site_fract_y
_atom_site_fract_z
Si Si1 0.598844 0.123856 0.628769
Si Si2 0.790783 0.158241 0.806984
Si Si3 0.251243 0.539567 0.519562
Si Si4 0.748725 0.473485 0.877341
Si Si5 0.211496 0.407615 0.762705
Si Si6 0.865983 0.335213 0.043824
Si Si7 0.250000 0.250000 0.091036
Si Si8 0.556451 0.441964 0.688929
O O1 0.753643 0.117684 0.584017
O O2 0.438934 0.202530 0.621617
O O3 0.776268 0.127487 0.670585
O O4 0.444135 0.043911 0.631453
O O5 0.750000 0.250000 0.814882
O O6 0.799475 0.106034 0.850782
O O7 0.553806 0.129115 0.777445
O O8 0.056258 0.138758 0.784384
O O9 0.500000 0.500000 0.500000
O O10 0.258555 0.537241 0.571312
O O11 0.286177 0.625982 0.500500
O O12 0.000000 0.500000 0.500000
O O13 0.994479 0.507223 0.853737
O O14 0.304722 0.414084 0.713110
O O15 0.198271 0.497422 0.779694
O O16 0.750000 0.250000 0.045277
O O17 0.148881 0.317889 0.058687
#
# Coordination Sequence:
#
# PCOD9432138 Si02
#       8
#     8   8   8   8   8   8   4   8
#     4  11  20  40  67 100 135 179 237 283 359 419
#     4  11  25  47  72 102 145 188 239 299 363 420
#     4  12  25  42  68 104 142 182 240 291 345 420
#     4  11  24  41  72 103 139 186 243 293 351 420
#     4  11  24  43  73 102 136 182 232 299 357 430
#     4  10  23  42  66  95 141 191 225 290 357 424
#     4  10  22  40  68  98 142 186 222 300 364 418
#     4  11  23  41  71 104 131 181 236 289 357 431
#
# _framework density 21.310217999999999
#
# number of rings (size 3 to 8) (size 9 to 14) (size 15 to 20)
#    0.000    1.067    2.667    4.400    3.733    0.533 
#    0.000    3.333   11.733    0.000    0.000    0.000 
#    0.000    0.000    0.000    0.000    0.000    0.000 
#
# Total GULP energy -334972.693980 kJ/mol
# GULP energy per Si atom -5582.878233 kJ/mol
# Density = 2.126172 g / cm^3
# Si number density = 21.310218 Si / 1000 Ang^3
#
#
#
# Elastic Constant Matrix: (Units=GPa)
#
#
# Indices 1 2 3 4 5 6 
#
# 1 104.1626 33.0040 54.2011 0.0000 0.0000 0.0000
# 2 33.0040 109.1651 58.0777 0.0000 0.0000 0.0000
# 3 54.2011 58.0777 167.3562 0.0000 0.0000 0.0000
# 4 0.0000 0.0000 0.0000 34.4305 0.0000 0.0000
# 5 0.0000 0.0000 0.0000 0.0000 25.9211 0.0000
# 6 0.0000 0.0000 0.0000 0.0000 0.0000 25.4926
#
#
#
# Elastic Compliance Matrix: (Units=1/GPa)
#
#
# Indices 1 2 3 4 5 6 
#
# 1 0.011856 -0.001891 -0.003184 0.000000 0.000000 0.000000
# 2 -0.001891 0.011536 -0.003391 0.000000 0.000000 0.000000
# 3 -0.003184 -0.003391 0.008183 0.000000 0.000000 0.000000
# 4 0.000000 0.000000 0.000000 0.029044 0.000000 0.000000
# 5 0.000000 0.000000 0.000000 0.000000 0.038579 0.000000
# 6 0.000000 0.000000 0.000000 0.000000 0.000000 0.039227
#
#
# Mechanical properties :
#
#
# Convention : Reuss Voigt Hill
#
# Bulk Modulus (GPa) = 68.28478 74.58327 71.43403
# Shear Modulus (GPa) = 31.20369 32.86224 32.03296
#
# Velocity S-wave (km/s) = 3.83072 3.93120 3.88128
# Velocity P-wave (km/s) = 7.18878 7.46194 7.32664
#
# Compressibility (1/GPa) = 0.01464455
#
# Stress axis : x y z
#
# Youngs Moduli (GPa) = 84.34499 86.68398 122.20218
#
# Poissons Ratio (x) = 0.16389 0.38905
# Poissons Ratio (y) = 0.15947 0.41440
# Poissons Ratio (z) = 0.26853 0.29395
#
# Static dielectric constant tensor:
#      x y z
#    x 1.964190 0.000000 0.000000 
#    y 0.000000 -19.262430 0.000000 
#    z 0.000000 0.000000 1.877640 
# 
# From -- ./inp_files/21804.got.cif
#   From: 2010.05.17/outbox.cif.g08.bks.cpg/sg56_11_cif.got.tgz:21804.got - 2010.06.03 13:42:01.
