data_PCOD9432922
_publ_section_title
;
Structure prediction by ZEFSAII (Michael W. Deem and Ramdas Pophale) SiO2 
 PCOD9432922
Probable space group: P C C N
;
_chemical_formula_sum "Si O2"
_cell_formula_units_Z 40
_cell_length_a 19.192726
_cell_length_b 8.108971
_cell_length_c 9.240797
_cell_angle_alpha 90.000000
_cell_angle_beta 90.000000
_cell_angle_gamma 90.000000
_cell_volume 1438.175349
_symmetry_space_group_name_H-M "P C C N"
_symmetry_group_IT_number 56
_symmetry_cell_setting 'orthorhombic'
loop_
_space_group_symop_operation_xyz
x,y,z
1/2-x,1/2-y,z
1/2+x,-y,1/2-z
-x,1/2+y,1/2-z
-x,-y,-z
1/2+x,1/2+y,-z
1/2-x,y,1/2+z
x,1/2-y,1/2+z
loop_
_atom_site_type_symbol
_atom_site_label
_atom_site_fract_x
_atom_site_fract_y
_atom_site_fract_z
Si Si1 0.196256 0.598471 0.538541
Si Si2 0.239470 0.060500 0.305106
Si Si3 0.396685 0.487067 0.476990
Si Si4 0.474584 0.532559 0.742026
Si Si5 0.572620 0.623995 0.981418
O O1 0.250000 0.750000 0.566637
O O2 0.200777 0.553247 0.370257
O O3 0.115837 0.540290 0.564369
O O4 0.233291 0.459448 0.635576
O O5 0.250000 0.250000 0.341016
O O6 0.171306 0.981441 0.381850
O O7 0.415483 0.584306 0.624890
O O8 0.461047 0.502330 0.365828
O O9 0.389079 0.297909 0.530291
O O10 0.507234 0.639968 0.873036
O O11 0.447143 0.388746 0.849021
#
# Coordination Sequence:
#
# PCOD9432922 Si02
#       5
#     8   8   8   8   8
#     4  12  28  50  72 114 156 196 250 322 392 443
#     4  12  26  48  81 109 143 209 262 309 372 467
#     4  11  23  47  74 109 146 194 266 304 370 455
#     4  10  24  43  71 115 144 193 248 318 367 435
#     4  11  23  47  74 105 153 199 246 311 378 457
#
# _framework density 27.813020999999999
#
# number of rings (size 3 to 8) (size 9 to 14) (size 15 to 20)
#    0.000    0.800    4.000    2.400    2.800    0.000 
#   21.600    0.000    0.000    0.000    0.000    0.000 
#    0.000    0.000    0.000    0.000    0.000    0.000 
#
# Total GULP energy -223032.103689 kJ/mol
# GULP energy per Si atom -5575.802592 kJ/mol
# Density = 2.774972 g / cm^3
# Si number density = 27.813021 Si / 1000 Ang^3
#
#
#
# Elastic Constant Matrix: (Units=GPa)
#
#
# Indices 1 2 3 4 5 6 
#
# 1 86.6088 40.9282 25.6592 0.0000 0.0000 0.0000
# 2 40.9282 128.5587 15.3797 0.0000 0.0000 0.0000
# 3 25.6592 15.3797 174.0306 0.0000 0.0000 0.0000
# 4 0.0000 0.0000 0.0000 25.7309 0.0000 0.0000
# 5 0.0000 0.0000 0.0000 0.0000 56.3876 0.0000
# 6 0.0000 0.0000 0.0000 0.0000 0.0000 24.6970
#
#
#
# Elastic Compliance Matrix: (Units=1/GPa)
#
#
# Indices 1 2 3 4 5 6 
#
# 1 0.014070 -0.004276 -0.001697 0.000000 0.000000 0.000000
# 2 -0.004276 0.009161 -0.000179 0.000000 0.000000 0.000000
# 3 -0.001697 -0.000179 0.006012 0.000000 0.000000 0.000000
# 4 0.000000 0.000000 0.000000 0.038864 0.000000 0.000000
# 5 0.000000 0.000000 0.000000 0.000000 0.017734 0.000000
# 6 0.000000 0.000000 0.000000 0.000000 0.000000 0.040491
#
#
# Mechanical properties :
#
#
# Convention : Reuss Voigt Hill
#
# Bulk Modulus (GPa) = 59.03459 61.45917 60.24688
# Shear Modulus (GPa) = 34.65431 41.84518 38.24974
#
# Velocity S-wave (km/s) = 3.53367 3.88302 3.71245
# Velocity P-wave (km/s) = 6.15798 6.49992 6.33126
#
# Compressibility (1/GPa) = 0.01693922
#
# Stress axis : x y z
#
# Youngs Moduli (GPa) = 71.07517 109.15382 166.33174
#
# Poissons Ratio (x) = 0.46677 0.28219
# Poissons Ratio (y) = 0.30394 0.02979
# Poissons Ratio (z) = 0.12058 0.01955
#
# Static dielectric constant tensor:
#      x y z
#    x 2.276770 0.000000 0.000000 
#    y 0.000000 2.199670 0.000000 
#    z 0.000000 0.000000 2.028880 
# 
# From -- ./inp_files/4682.got.cif
#   From: 2010.05.17/outbox.cif.g08.bks.cpg/sg56_3_cif.got.tgz:4682.got - 2010.06.03 13:42:01.
