data_PCOD9432632
_publ_section_title
;
Structure prediction by ZEFSAII (Michael W. Deem and Ramdas Pophale) SiO2 
 PCOD9432632
Probable space group: P C C N
;
_chemical_formula_sum "Si O2"
_cell_formula_units_Z 56
_cell_length_a 12.675386
_cell_length_b 13.820682
_cell_length_c 13.937244
_cell_angle_alpha 90.000000
_cell_angle_beta 90.000000
_cell_angle_gamma 90.000000
_cell_volume 2441.560956
_symmetry_space_group_name_H-M "P C C N"
_symmetry_group_IT_number 56
_symmetry_cell_setting 'orthorhombic'
loop_
_space_group_symop_operation_xyz
x,y,z
1/2-x,1/2-y,z
1/2+x,-y,1/2-z
-x,1/2+y,1/2-z
-x,-y,-z
1/2+x,1/2+y,-z
1/2-x,y,1/2+z
x,1/2-y,1/2+z
loop_
_atom_site_type_symbol
_atom_site_label
_atom_site_fract_x
_atom_site_fract_y
_atom_site_fract_z
Si Si1 0.682394 0.341885 0.398922
Si Si2 0.954833 0.241861 0.740854
Si Si3 0.525891 0.955918 0.672483
Si Si4 0.631328 0.870114 0.331721
Si Si5 0.999676 0.332755 0.036608
Si Si6 0.349761 0.311710 0.951594
Si Si7 0.167580 0.459882 0.153890
O O1 0.750000 0.250000 0.435189
O O2 0.630871 0.301780 0.299951
O O3 0.593120 0.376812 0.474181
O O4 0.733165 0.446645 0.381484
O O5 0.962231 0.138031 0.791289
O O6 0.067822 0.296443 0.735527
O O7 0.943963 0.220352 0.627007
O O8 0.611206 0.909789 0.599479
O O9 0.585278 0.993587 0.766694
O O10 0.450088 0.043166 0.644035
O O11 0.667123 0.831801 0.435533
O O12 0.744323 0.898239 0.290323
O O13 0.094545 0.399094 0.079210
O O14 0.050109 0.258937 0.960564
O O15 0.250000 0.250000 0.914953
#
# Coordination Sequence:
#
# PCOD9432632 Si02
#       7
#     8   8   8   8   8   8   8
#     4  12  24  45  69  98 139 185 230 279 353 420
#     4  10  23  42  68  93 138 172 232 286 339 410
#     4  11  23  40  67  98 131 176 228 286 349 414
#     4  11  23  44  62  98 136 176 227 296 343 410
#     4  10  23  43  67  97 135 180 225 288 339 409
#     4  11  22  40  68  97 128 173 229 287 350 412
#     4  11  24  42  67  99 136 182 230 289 351 415
#
# _framework density 22.936146000000001
#
# number of rings (size 3 to 8) (size 9 to 14) (size 15 to 20)
#    0.000    1.143    4.286    1.714    2.000    0.571 
#    0.000    1.429    0.000    0.000    0.000    0.000 
#    0.000    0.000    0.000    0.000    0.000    0.000 
#
# Total GULP energy -312042.621977 kJ/mol
# GULP energy per Si atom -5572.189678 kJ/mol
# Density = 2.288394 g / cm^3
# Si number density = 22.936146 Si / 1000 Ang^3
#
#
#
# Elastic Constant Matrix: (Units=GPa)
#
#
# Indices 1 2 3 4 5 6 
#
# 1 50.5967 25.9833 5.8572 0.0000 0.0000 0.0000
# 2 25.9833 101.4700 12.2029 0.0000 0.0000 0.0000
# 3 5.8572 12.2029 57.7522 0.0000 0.0000 0.0000
# 4 0.0000 0.0000 0.0000 13.6114 0.0000 0.0000
# 5 0.0000 0.0000 0.0000 0.0000 29.9840 0.0000
# 6 0.0000 0.0000 0.0000 0.0000 0.0000 47.4654
#
#
#
# Elastic Compliance Matrix: (Units=1/GPa)
#
#
# Indices 1 2 3 4 5 6 
#
# 1 0.022826 -0.005712 -0.001108 0.000000 0.000000 0.000000
# 2 -0.005712 0.011541 -0.001859 0.000000 0.000000 0.000000
# 3 -0.001108 -0.001859 0.017821 0.000000 0.000000 0.000000
# 4 0.000000 0.000000 0.000000 0.073468 0.000000 0.000000
# 5 0.000000 0.000000 0.000000 0.000000 0.033351 0.000000
# 6 0.000000 0.000000 0.000000 0.000000 0.000000 0.021068
#
#
# Mechanical properties :
#
#
# Convention : Reuss Voigt Hill
#
# Bulk Modulus (GPa) = 28.71152 33.10064 30.90608
# Shear Modulus (GPa) = 23.91859 29.26385 26.59122
#
# Velocity S-wave (km/s) = 3.23280 3.57583 3.40863
# Velocity P-wave (km/s) = 5.14586 5.61353 5.38477
#
# Compressibility (1/GPa) = 0.03482922
#
# Stress axis : x y z
#
# Youngs Moduli (GPa) = 43.81052 86.64520 56.11478
#
# Poissons Ratio (x) = 0.49489 0.06218
# Poissons Ratio (y) = 0.25023 0.10434
# Poissons Ratio (z) = 0.04855 0.16111
#
# Static dielectric constant tensor:
#      x y z
#    x 1.928410 0.000000 0.000000 
#    y 0.000000 2.002550 0.000000 
#    z 0.000000 0.000000 1.846140 
# 
# From -- ./inp_files/11658.got.cif
#   From: 2010.05.17/outbox.cif.g08.bks.cpg/sg56_6_cif.got.tgz:11658.got - 2010.06.03 13:42:01.
