data_PCOD9432692
_publ_section_title
;
Structure prediction by ZEFSAII (Michael W. Deem and Ramdas Pophale) SiO2 
 PCOD9432692
Probable space group: P C C N
;
_chemical_formula_sum "Si O2"
_cell_formula_units_Z 60
_cell_length_a 11.962608
_cell_length_b 8.516123
_cell_length_c 26.848130
_cell_angle_alpha 90.000000
_cell_angle_beta 90.000000
_cell_angle_gamma 90.000000
_cell_volume 2735.154348
_symmetry_space_group_name_H-M "P C C N"
_symmetry_group_IT_number 56
_symmetry_cell_setting 'orthorhombic'
loop_
_space_group_symop_operation_xyz
x,y,z
1/2-x,1/2-y,z
1/2+x,-y,1/2-z
-x,1/2+y,1/2-z
-x,-y,-z
1/2+x,1/2+y,-z
1/2-x,y,1/2+z
x,1/2-y,1/2+z
loop_
_atom_site_type_symbol
_atom_site_label
_atom_site_fract_x
_atom_site_fract_y
_atom_site_fract_z
Si Si1 0.621267 0.714333 0.220371
Si Si2 0.592080 0.872092 0.895895
Si Si3 0.903138 0.933331 0.965552
Si Si4 0.684793 0.402774 0.179554
Si Si5 0.879829 0.591307 0.121891
Si Si6 0.447331 0.141665 0.682634
Si Si7 0.302920 0.582825 0.123570
Si Si8 0.250000 0.250000 0.964705
O O1 0.750000 0.750000 0.232248
O O2 0.628222 0.526713 0.217718
O O3 0.594157 0.784415 0.165963
O O4 0.546800 0.801657 0.260680
O O5 0.578549 0.734495 0.937001
O O6 0.615322 0.782611 0.844431
O O7 0.483555 0.980172 0.889912
O O8 0.701612 0.978557 0.898777
O O9 0.886016 0.065741 0.923196
O O10 0.799988 0.888710 0.001569
O O11 0.000000 0.000000 0.000000
O O12 0.750000 0.250000 0.199226
O O13 0.773514 0.493391 0.144619
O O14 0.567887 0.353557 0.154904
O O15 0.842649 0.680379 0.072431
O O16 0.372954 0.989755 0.669904
O O17 0.250000 0.750000 0.135137
#
# Coordination Sequence:
#
# PCOD9432692 Si02
#       8
#     8   8   8   8   8   8   8   4
#     4  10  23  44  65 102 143 189 239 290 356 430
#     4  11  24  47  68 103 145 187 242 296 365 434
#     4  11  26  46  74 102 142 193 241 305 374 440
#     4  11  23  43  68 108 138 185 247 294 350 440
#     4  11  25  41  72 101 145 188 232 298 366 430
#     4  11  24  44  72  98 152 187 234 299 360 421
#     4  11  26  47  73 107 141 187 246 300 362 446
#     4  12  24  46  72 100 146 184 238 308 366 428
#
# _framework density 21.936605
#
# number of rings (size 3 to 8) (size 9 to 14) (size 15 to 20)
#    0.000    1.067    4.667    2.000    9.333    1.600 
#    0.000    6.000    0.000    0.000    0.000    0.000 
#    0.000    0.000    0.000    0.000    0.000    0.000 
#
# Total GULP energy -334630.942011 kJ/mol
# GULP energy per Si atom -5577.182367 kJ/mol
# Density = 2.188668 g / cm^3
# Si number density = 21.936605 Si / 1000 Ang^3
#
#
#
# Elastic Constant Matrix: (Units=GPa)
#
#
# Indices 1 2 3 4 5 6 
#
# 1 90.6197 26.6616 17.7278 0.0000 0.0000 0.0000
# 2 26.6616 99.1248 34.7095 0.0000 0.0000 0.0000
# 3 17.7278 34.7095 94.1841 0.0000 0.0000 0.0000
# 4 0.0000 0.0000 0.0000 -1.4567 0.0000 0.0000
# 5 0.0000 0.0000 0.0000 0.0000 24.3308 0.0000
# 6 0.0000 0.0000 0.0000 0.0000 0.0000 49.7311
#
#
#
# Elastic Compliance Matrix: (Units=1/GPa)
#
#
# Indices 1 2 3 4 5 6 
#
# 1 0.012108 -0.002823 -0.001239 0.000000 0.000000 0.000000
# 2 -0.002823 0.012241 -0.003980 0.000000 0.000000 0.000000
# 3 -0.001239 -0.003980 0.012317 0.000000 0.000000 0.000000
# 4 0.000000 0.000000 0.000000 -0.686468 0.000000 0.000000
# 5 0.000000 0.000000 0.000000 0.000000 0.041100 0.000000
# 6 0.000000 0.000000 0.000000 0.000000 0.000000 0.020108
#
#
# Mechanical properties :
#
#
# Convention : Reuss Voigt Hill
#
# Bulk Modulus (GPa) = 48.58258 49.12515 48.85386
# Shear Modulus (GPa) = -8.83941 28.17633 9.66846
#
# Velocity S-wave (km/s) = -2.00954 3.58780 2.10167
# Velocity P-wave (km/s) = 4.10006 6.29332 5.31114
#
# Compressibility (1/GPa) = 0.02058351
#
# Stress axis : x y z
#
# Youngs Moduli (GPa) = 82.58998 81.69146 81.18624
#
# Poissons Ratio (x) = 0.23061 0.10056
# Poissons Ratio (y) = 0.23315 0.32311
# Poissons Ratio (z) = 0.10230 0.32512
#
# Static dielectric constant tensor:
#      x y z
#    x -1.513660 0.000000 0.000000 
#    y 0.000000 1.845600 0.000000 
#    z 0.000000 0.000000 1.829700 
# 
# From -- ./inp_files/22315.got.cif
#   From: 2010.05.17/outbox.cif.g08.bks.cpg/sg56_12_cif.got.tgz:22315.got - 2010.06.03 13:42:01.
