data_PCOD9432269
_publ_section_title
;
Structure prediction by ZEFSAII (Michael W. Deem and Ramdas Pophale) SiO2 
 PCOD9432269
Probable space group: P C C N
;
_chemical_formula_sum "Si O2"
_cell_formula_units_Z 32
_cell_length_a 5.314771
_cell_length_b 22.055579
_cell_length_c 13.046365
_cell_angle_alpha 90.000000
_cell_angle_beta 90.000000
_cell_angle_gamma 90.000000
_cell_volume 1529.299493
_symmetry_space_group_name_H-M "P C C N"
_symmetry_group_IT_number 56
_symmetry_cell_setting 'orthorhombic'
loop_
_space_group_symop_operation_xyz
x,y,z
1/2-x,1/2-y,z
1/2+x,-y,1/2-z
-x,1/2+y,1/2-z
-x,-y,-z
1/2+x,1/2+y,-z
1/2-x,y,1/2+z
x,1/2-y,1/2+z
loop_
_atom_site_type_symbol
_atom_site_label
_atom_site_fract_x
_atom_site_fract_y
_atom_site_fract_z
Si Si1 0.121603 0.965532 0.095842
Si Si2 0.355164 0.422206 0.714897
Si Si3 0.648902 0.814747 0.396479
Si Si4 0.138966 0.633576 0.961649
O O1 0.920561 0.933018 0.168374
O O2 0.253965 0.016096 0.165269
O O3 0.301481 0.914674 0.048797
O O4 0.000000 0.000000 0.000000
O O5 0.170193 0.366195 0.691286
O O6 0.596296 0.402794 0.645744
O O7 0.750000 0.750000 0.359003
O O8 0.373570 0.821287 0.444888
O O9 0.869273 0.834776 0.475774
#
# Coordination Sequence:
#
# PCOD9432269 Si02
#       4
#     8   8   8   8
#     4  12  21  42  64 104 134 170 224 277 342 406
#     4  10  25  37  70  93 138 172 216 280 342 393
#     4  10  22  44  68  91 132 176 223 272 330 392
#     4  10  22  42  66  95 131 174 214 280 328 396
#
# _framework density 20.924613999999998
#
# number of rings (size 3 to 8) (size 9 to 14) (size 15 to 20)
#    1.500    0.000    2.500    3.000    0.000    2.000 
#    0.000    1.250    5.500    0.000    0.000    0.000 
#    0.000    0.000    0.000    0.000    0.000    0.000 
#
# Total GULP energy -178441.022674 kJ/mol
# GULP energy per Si atom -5576.281959 kJ/mol
# Density = 2.087699 g / cm^3
# Si number density = 20.924614 Si / 1000 Ang^3
#
#
#
# Elastic Constant Matrix: (Units=GPa)
#
#
# Indices 1 2 3 4 5 6 
#
# 1 81.9928 6.6142 -2.0916 0.0000 0.0000 0.0000
# 2 6.6142 73.3904 -1.0847 0.0000 0.0000 0.0000
# 3 -2.0916 -1.0847 61.2679 0.0000 0.0000 0.0000
# 4 0.0000 0.0000 0.0000 1.5744 0.0000 0.0000
# 5 0.0000 0.0000 0.0000 0.0000 23.3883 0.0000
# 6 0.0000 0.0000 0.0000 0.0000 0.0000 38.7985
#
#
#
# Elastic Compliance Matrix: (Units=1/GPa)
#
#
# Indices 1 2 3 4 5 6 
#
# 1 0.012295 -0.001102 0.000400 0.000000 0.000000 0.000000
# 2 -0.001102 0.013728 0.000205 0.000000 0.000000 0.000000
# 3 0.000400 0.000205 0.016339 0.000000 0.000000 0.000000
# 4 0.000000 0.000000 0.000000 0.635155 0.000000 0.000000
# 5 0.000000 0.000000 0.000000 0.000000 0.042756 0.000000
# 6 0.000000 0.000000 0.000000 0.000000 0.000000 0.025774
#
#
# Mechanical properties :
#
#
# Convention : Reuss Voigt Hill
#
# Bulk Modulus (GPa) = 24.17244 24.83632 24.50438
# Shear Modulus (GPa) = 6.57176 26.96645 16.76910
#
# Velocity S-wave (km/s) = 1.77412 3.59380 2.83398
# Velocity P-wave (km/s) = 3.97164 5.39590 4.73760
#
# Compressibility (1/GPa) = 0.04136943
#
# Stress axis : x y z
#
# Youngs Moduli (GPa) = 81.33177 72.84312 61.20304
#
# Poissons Ratio (x) = 0.08029 -0.02450
# Poissons Ratio (y) = 0.08964 -0.01257
# Poissons Ratio (z) = -0.03255 -0.01496
#
# Static dielectric constant tensor:
#      x y z
#    x 1.786010 0.000000 0.000000 
#    y 0.000000 1.802670 0.000000 
#    z 0.000000 0.000000 1.712170 
# 
# From -- ./inp_files/5483.got.cif
#   From: 2010.05.17/outbox.cif.g08.bks.cpg/sg56_3_cif.got.tgz:5483.got - 2010.06.03 13:42:01.
