data_PCOD9432215
_publ_section_title
;
Structure prediction by ZEFSAII (Michael W. Deem and Ramdas Pophale) SiO2 
 PCOD9432215
Probable space group: P C C N
;
_chemical_formula_sum "Si O2"
_cell_formula_units_Z 64
_cell_length_a 14.283642
_cell_length_b 12.046731
_cell_length_c 18.838793
_cell_angle_alpha 90.000000
_cell_angle_beta 90.000000
_cell_angle_gamma 90.000000
_cell_volume 3241.613584
_symmetry_space_group_name_H-M "P C C N"
_symmetry_group_IT_number 56
_symmetry_cell_setting 'orthorhombic'
loop_
_space_group_symop_operation_xyz
x,y,z
1/2-x,1/2-y,z
1/2+x,-y,1/2-z
-x,1/2+y,1/2-z
-x,-y,-z
1/2+x,1/2+y,-z
1/2-x,y,1/2+z
x,1/2-y,1/2+z
loop_
_atom_site_type_symbol
_atom_site_label
_atom_site_fract_x
_atom_site_fract_y
_atom_site_fract_z
Si Si1 0.715469 0.625721 0.741176
Si Si2 0.927896 0.911505 0.030843
Si Si3 0.404163 0.007609 0.078390
Si Si4 0.447098 0.527360 0.295466
Si Si5 0.138304 0.749422 0.855612
Si Si6 0.524747 0.190968 0.002725
Si Si7 0.394461 0.501294 0.814055
Si Si8 0.285410 0.374058 0.096580
O O1 0.750000 0.750000 0.722693
O O2 0.629401 0.570603 0.699620
O O3 0.806993 0.549410 0.729282
O O4 0.678520 0.627428 0.822575
O O5 0.889695 0.952690 0.106218
O O6 0.852731 0.901222 0.967999
O O7 0.979197 0.793210 0.038072
O O8 0.000000 0.000000 0.000000
O O9 0.475343 0.010020 0.143892
O O10 0.443769 0.105016 0.027233
O O11 0.300510 0.041639 0.097878
O O12 0.407868 0.887955 0.042233
O O13 0.393451 0.643074 0.309479
O O14 0.507458 0.529299 0.223350
O O15 0.250000 0.750000 0.868308
O O16 0.079805 0.737034 0.928697
O O17 0.112714 0.865826 0.819291
O O18 0.250000 0.250000 0.083616
#
# Coordination Sequence:
#
# PCOD9432215 Si02
#       8
#     8   8   8   8   8   8   8   8
#     4  11  26  43  69 102 135 178 233 287 345 407
#     4  12  25  41  66 102 139 179 223 284 345 408
#     4  10  22  41  69  97 129 180 231 280 334 404
#     4  11  25  45  68  98 140 180 230 287 343 420
#     4  11  24  45  67  95 141 184 228 283 352 411
#     4  10  23  40  65  96 133 180 226 277 345 399
#     4  12  26  43  69 102 137 182 229 282 352 407
#     4  11  23  45  71  95 136 184 233 278 340 408
#
# _framework density 19.743252999999999
#
# number of rings (size 3 to 8) (size 9 to 14) (size 15 to 20)
#    0.000    1.000    5.000    0.750    5.250    1.500 
#    0.000    0.000    0.000    0.000    0.000    0.000 
#    0.000    0.000    0.000    0.000    0.000    0.000 
#
# Total GULP energy -357530.867557 kJ/mol
# GULP energy per Si atom -5586.419806 kJ/mol
# Density = 1.969832 g / cm^3
# Si number density = 19.743253 Si / 1000 Ang^3
#
#
#
# Elastic Constant Matrix: (Units=GPa)
#
#
# Indices 1 2 3 4 5 6 
#
# 1 51.3576 22.5530 1.3025 0.0000 0.0000 0.0000
# 2 22.5530 121.5220 33.4423 0.0000 0.0000 0.0000
# 3 1.3025 33.4423 60.3047 0.0000 0.0000 0.0000
# 4 0.0000 0.0000 0.0000 33.3418 0.0000 0.0000
# 5 0.0000 0.0000 0.0000 0.0000 60.5253 0.0000
# 6 0.0000 0.0000 0.0000 0.0000 0.0000 28.7127
#
#
#
# Elastic Compliance Matrix: (Units=1/GPa)
#
#
# Indices 1 2 3 4 5 6 
#
# 1 0.021413 -0.004539 0.002055 0.000000 0.000000 0.000000
# 2 -0.004539 0.010673 -0.005821 0.000000 0.000000 0.000000
# 3 0.002055 -0.005821 0.019766 0.000000 0.000000 0.000000
# 4 0.000000 0.000000 0.000000 0.029992 0.000000 0.000000
# 5 0.000000 0.000000 0.000000 0.000000 0.016522 0.000000
# 6 0.000000 0.000000 0.000000 0.000000 0.000000 0.034828
#
#
# Mechanical properties :
#
#
# Convention : Reuss Voigt Hill
#
# Bulk Modulus (GPa) = 28.37595 38.64224 33.50910
# Shear Modulus (GPa) = 30.94977 36.24173 33.59575
#
# Velocity S-wave (km/s) = 3.96360 4.28910 4.12956
# Velocity P-wave (km/s) = 5.94563 6.64405 6.30452
#
# Compressibility (1/GPa) = 0.03524111
#
# Stress axis : x y z
#
# Youngs Moduli (GPa) = 46.70145 93.69166 50.59169
#
# Poissons Ratio (x) = 0.42531 -0.10396
# Poissons Ratio (y) = 0.21200 0.29449
# Poissons Ratio (z) = -0.09596 0.54537
#
# Static dielectric constant tensor:
#      x y z
#    x 1.674570 0.000000 0.000000 
#    y 0.000000 1.674110 0.000000 
#    z 0.000000 0.000000 1.749510 
# 
# From -- ./inp_files/16363.got.cif
#   From: 2010.05.17/outbox.cif.g08.bks.cpg/sg56_9_cif.got.tgz:16363.got - 2010.06.03 13:42:01.
