data_PCOD9432511
_publ_section_title
;
Structure prediction by ZEFSAII (Michael W. Deem and Ramdas Pophale) SiO2 
 PCOD9432511
Probable space group: P C C N
;
_chemical_formula_sum "Si O2"
_cell_formula_units_Z 60
_cell_length_a 11.921819
_cell_length_b 25.673165
_cell_length_c 9.423806
_cell_angle_alpha 90.000000
_cell_angle_beta 90.000000
_cell_angle_gamma 90.000000
_cell_volume 2884.352089
_symmetry_space_group_name_H-M "P C C N"
_symmetry_group_IT_number 56
_symmetry_cell_setting 'orthorhombic'
loop_
_space_group_symop_operation_xyz
x,y,z
1/2-x,1/2-y,z
1/2+x,-y,1/2-z
-x,1/2+y,1/2-z
-x,-y,-z
1/2+x,1/2+y,-z
1/2-x,y,1/2+z
x,1/2-y,1/2+z
loop_
_atom_site_type_symbol
_atom_site_label
_atom_site_fract_x
_atom_site_fract_y
_atom_site_fract_z
Si Si1 0.642133 0.691458 0.322551
Si Si2 0.781824 0.956649 0.783719
Si Si3 0.282156 0.927856 0.228014
Si Si4 0.989972 0.059389 0.058920
Si Si5 0.038151 0.559308 0.996214
Si Si6 0.750000 0.750000 0.061242
Si Si7 0.443100 0.622490 0.219904
Si Si8 0.315583 0.097807 0.981495
O O1 0.706716 0.707291 0.177353
O O2 0.651414 0.735649 0.446906
O O3 0.519239 0.671064 0.273536
O O4 0.703428 0.646329 0.415911
O O5 0.745434 0.919669 0.654098
O O6 0.697421 0.950328 0.912242
O O7 0.898304 0.936846 0.848066
O O8 0.783153 0.017320 0.747629
O O9 0.380293 0.930366 0.345211
O O10 0.193572 0.880145 0.224119
O O11 0.345922 0.930859 0.076942
O O12 0.983080 0.100524 0.930978
O O13 0.000000 0.000000 0.000000
O O14 0.032545 0.578964 0.836979
O O15 0.944027 0.596546 0.067986
O O16 0.000000 0.500000 0.000000
#
# Coordination Sequence:
#
# PCOD9432511 Si02
#       8
#     8   8   8   8   8   4   8   8
#     4  10  24  44  73 105 134 161 213 277 362 440
#     4  12  24  34  57  86 136 188 236 275 308 368
#     4  12  23  40  57  83 135 200 237 278 310 363
#     4  12  24  38  55  89 134 193 240 272 314 367
#     4  11  20  38  54  83 129 184 233 269 311 365
#     4  10  22  50  78 104 134 160 196 296 388 430
#     4  11  25  39  60  92 128 174 230 280 327 398
#     4  11  23  37  58  95 133 173 223 279 323 395
#
# _framework density 20.801898999999999
#
# number of rings (size 3 to 8) (size 9 to 14) (size 15 to 20)
#    0.000    0.800    4.000    4.000    7.467    0.000 
#    0.000    0.000    0.000    0.000    0.000   25.200 
#    0.000    0.000    0.000    0.000    0.000    0.000 
#
# Total GULP energy -334149.551349 kJ/mol
# GULP energy per Si atom -5569.159189 kJ/mol
# Density = 2.075455 g / cm^3
# Si number density = 20.801899 Si / 1000 Ang^3
#
#
#
# Elastic Constant Matrix: (Units=GPa)
#
#
# Indices 1 2 3 4 5 6 
#
# 1 129.6605 25.2292 50.6637 0.0000 0.0000 0.0000
# 2 25.2292 48.2902 32.1460 0.0000 0.0000 0.0000
# 3 50.6637 32.1460 143.8773 0.0000 0.0000 0.0000
# 4 0.0000 0.0000 0.0000 33.8215 0.0000 0.0000
# 5 0.0000 0.0000 0.0000 0.0000 40.2266 0.0000
# 6 0.0000 0.0000 0.0000 0.0000 0.0000 28.6297
#
#
#
# Elastic Compliance Matrix: (Units=1/GPa)
#
#
# Indices 1 2 3 4 5 6 
#
# 1 0.009336 -0.003159 -0.002582 0.000000 0.000000 0.000000
# 2 -0.003159 0.025395 -0.004562 0.000000 0.000000 0.000000
# 3 -0.002582 -0.004562 0.008879 0.000000 0.000000 0.000000
# 4 0.000000 0.000000 0.000000 0.029567 0.000000 0.000000
# 5 0.000000 0.000000 0.000000 0.000000 0.024859 0.000000
# 6 0.000000 0.000000 0.000000 0.000000 0.000000 0.034929
#
#
# Mechanical properties :
#
#
# Convention : Reuss Voigt Hill
#
# Bulk Modulus (GPa) = 43.46837 59.76731 51.61784
# Shear Modulus (GPa) = 31.01019 34.78816 32.89918
#
# Velocity S-wave (km/s) = 3.86520 4.09388 3.98118
# Velocity P-wave (km/s) = 6.39229 7.15126 6.78240
#
# Compressibility (1/GPa) = 0.02300523
#
# Stress axis : x y z
#
# Youngs Moduli (GPa) = 107.11369 39.37764 112.63005
#
# Poissons Ratio (x) = 0.12439 0.29077
# Poissons Ratio (y) = 0.33837 0.51377
# Poissons Ratio (z) = 0.27653 0.17962
#
# Static dielectric constant tensor:
#      x y z
#    x 1.868930 0.000000 0.000000 
#    y 0.000000 1.766010 0.000000 
#    z 0.000000 0.000000 1.763720 
# 
# From -- ./inp_files/2901.got.cif
#   From: 2010.05.17/outbox.cif.g08.bks.cpg/sg56_2_cif.got.tgz:2901.got - 2010.06.03 13:42:01.
