data_PCOD9432826
_publ_section_title
;
Structure prediction by ZEFSAII (Michael W. Deem and Ramdas Pophale) SiO2 
 PCOD9432826
Probable space group: P C C N
;
_chemical_formula_sum "Si O2"
_cell_formula_units_Z 48
_cell_length_a 8.853202
_cell_length_b 7.804549
_cell_length_c 28.823985
_cell_angle_alpha 90.000000
_cell_angle_beta 90.000000
_cell_angle_gamma 90.000000
_cell_volume 1991.600415
_symmetry_space_group_name_H-M "P C C N"
_symmetry_group_IT_number 56
_symmetry_cell_setting 'orthorhombic'
loop_
_space_group_symop_operation_xyz
x,y,z
1/2-x,1/2-y,z
1/2+x,-y,1/2-z
-x,1/2+y,1/2-z
-x,-y,-z
1/2+x,1/2+y,-z
1/2-x,y,1/2+z
x,1/2-y,1/2+z
loop_
_atom_site_type_symbol
_atom_site_label
_atom_site_fract_x
_atom_site_fract_y
_atom_site_fract_z
Si Si1 0.230975 0.952855 0.815151
Si Si2 0.675168 0.049878 0.988602
Si Si3 0.453103 0.522636 0.730074
Si Si4 0.750000 0.750000 0.823335
Si Si5 0.250000 0.750000 0.671212
Si Si6 0.650488 0.957136 0.399959
Si Si7 0.188658 0.947567 0.917932
O O1 0.250000 0.750000 0.819060
O O2 0.374881 0.013231 0.785448
O O3 0.229525 0.023353 0.867382
O O4 0.081206 0.980108 0.784530
O O5 0.750000 0.250000 0.984127
O O6 0.725766 0.959949 0.940710
O O7 0.748453 0.975203 0.035088
O O8 0.500000 0.000000 0.000000
O O9 0.347730 0.374358 0.708365
O O10 0.381501 0.688664 0.705497
O O11 0.629290 0.694314 0.862687
O O12 0.304034 0.895519 0.636138
O O13 0.489578 0.968359 0.423209
O O14 0.250000 0.750000 0.917565
#
# Coordination Sequence:
#
# PCOD9432826 Si02
#       7
#     8   8   8   4   4   8   8
#     4  11  25  43  69 100 146 183 240 290 365 423
#     4  11  26  47  76 108 150 192 248 307 377 451
#     4  11  25  43  69 102 145 188 241 302 355 441
#     4  10  24  38  74 102 138 192 240 292 368 426
#     4  10  24  44  72 102 142 182 248 294 366 422
#     4  11  23  46  75 103 145 189 239 297 373 437
#     4  10  24  44  70 103 141 187 244 298 358 431
#
# _framework density 24.101220000000001
#
# number of rings (size 3 to 8) (size 9 to 14) (size 15 to 20)
#    0.000    1.333    1.667    2.500   16.333    0.000 
#    0.000    1.667    0.000    0.000    0.000    0.000 
#    0.000    0.000    0.000    0.000    0.000    0.000 
#
# Total GULP energy -267833.624241 kJ/mol
# GULP energy per Si atom -5579.867172 kJ/mol
# Density = 2.404636 g / cm^3
# Si number density = 24.101220 Si / 1000 Ang^3
#
#
#
# Elastic Constant Matrix: (Units=GPa)
#
#
# Indices 1 2 3 4 5 6 
#
# 1 104.2432 3.5120 21.9279 0.0000 0.0000 0.0000
# 2 3.5120 24.7357 33.8824 0.0000 0.0000 0.0000
# 3 21.9279 33.8824 182.2312 0.0000 0.0000 0.0000
# 4 0.0000 0.0000 0.0000 22.2758 0.0000 0.0000
# 5 0.0000 0.0000 0.0000 0.0000 50.4924 0.0000
# 6 0.0000 0.0000 0.0000 0.0000 0.0000 31.8108
#
#
#
# Elastic Compliance Matrix: (Units=1/GPa)
#
#
# Indices 1 2 3 4 5 6 
#
# 1 0.009844 0.000302 -0.001241 0.000000 0.000000 0.000000
# 2 0.000302 0.054251 -0.010123 0.000000 0.000000 0.000000
# 3 -0.001241 -0.010123 0.007519 0.000000 0.000000 0.000000
# 4 0.000000 0.000000 0.000000 0.044892 0.000000 0.000000
# 5 0.000000 0.000000 0.000000 0.000000 0.019805 0.000000
# 6 0.000000 0.000000 0.000000 0.000000 0.000000 0.031436
#
#
# Mechanical properties :
#
#
# Convention : Reuss Voigt Hill
#
# Bulk Modulus (GPa) = 20.20628 47.76163 33.98396
# Shear Modulus (GPa) = 24.22866 37.70833 30.96849
#
# Velocity S-wave (km/s) = 3.17407 3.95977 3.58849
# Velocity P-wave (km/s) = 4.67280 6.38486 5.59471
#
# Compressibility (1/GPa) = 0.04948957
#
# Stress axis : x y z
#
# Youngs Moduli (GPa) = 101.58732 18.43283 132.99578
#
# Poissons Ratio (x) = -0.00556 0.16499
# Poissons Ratio (y) = -0.03065 1.34635
# Poissons Ratio (z) = 0.12603 0.18660
#
# Static dielectric constant tensor:
#      x y z
#    x 0.060670 0.000000 0.000000 
#    y 0.000000 2.163280 0.000000 
#    z 0.000000 0.000000 1.884530 
# 
# From -- ./inp_files/23304.got.cif
#   From: 2010.05.17/outbox.cif.g08.bks.cpg/sg56_12_cif.got.tgz:23304.got - 2010.06.03 13:42:01.
