data_PCOD9432088
_publ_section_title
;
Structure prediction by ZEFSAII (Michael W. Deem and Ramdas Pophale) SiO2 
 PCOD9432088
Probable space group: P C C N
;
_chemical_formula_sum "Si O2"
_cell_formula_units_Z 64
_cell_length_a 15.280720
_cell_length_b 21.821047
_cell_length_c 8.492150
_cell_angle_alpha 90.000000
_cell_angle_beta 90.000000
_cell_angle_gamma 90.000000
_cell_volume 2831.633615
_symmetry_space_group_name_H-M "P C C N"
_symmetry_group_IT_number 56
_symmetry_cell_setting 'orthorhombic'
loop_
_space_group_symop_operation_xyz
x,y,z
1/2-x,1/2-y,z
1/2+x,-y,1/2-z
-x,1/2+y,1/2-z
-x,-y,-z
1/2+x,1/2+y,-z
1/2-x,y,1/2+z
x,1/2-y,1/2+z
loop_
_atom_site_type_symbol
_atom_site_label
_atom_site_fract_x
_atom_site_fract_y
_atom_site_fract_z
Si Si1 0.500691 0.223135 0.074830
Si Si2 0.695064 0.485449 0.881491
Si Si3 0.560474 0.392552 0.726224
Si Si4 0.328626 0.111075 0.780998
Si Si5 0.609319 0.441784 0.389324
Si Si6 0.566051 0.969506 0.624214
Si Si7 0.304712 0.190324 0.079062
Si Si8 0.983456 0.339038 0.736702
O O1 0.561500 0.178335 0.178867
O O2 0.399406 0.215963 0.130805
O O3 0.529234 0.292626 0.095605
O O4 0.503714 0.201190 0.894975
O O5 0.635126 0.428438 0.823797
O O6 0.691644 0.540539 0.754519
O O7 0.790971 0.460224 0.912463
O O8 0.656672 0.518913 0.036959
O O9 0.564113 0.424688 0.553345
O O10 0.471489 0.404307 0.825148
O O11 0.258046 0.156311 0.701780
O O12 0.426601 0.123303 0.716296
O O13 0.327339 0.135330 0.958509
O O14 0.565118 0.495154 0.289194
O O15 0.596019 0.383982 0.273346
O O16 0.500000 0.000000 0.500000
O O17 0.250000 0.250000 0.018100
#
# Coordination Sequence:
#
# PCOD9432088 Si02
#       8
#     8   8   8   8   8   8   8   8
#     4  10  23  39  65  91 127 175 218 265 334 396
#     4  11  25  42  64 101 131 173 227 281 335 403
#     4  10  23  43  65  93 133 175 219 275 341 402
#     4  11  25  39  63  95 131 171 218 266 331 395
#     4  11  23  41  66  93 135 175 223 283 332 399
#     4  10  22  40  63  91 129 172 215 267 337 396
#     4  11  23  40  61  92 130 172 213 270 324 398
#     4  10  22  43  63  94 128 174 220 272 329 406
#
# _framework density 22.601796
#
# number of rings (size 3 to 8) (size 9 to 14) (size 15 to 20)
#    0.000    1.500    1.250    3.000    7.000    4.000 
#    0.000    0.625    0.000    3.000    0.000    0.000 
#    0.000    0.000    0.000    0.000    0.000    0.000 
#
# Total GULP energy -357625.492041 kJ/mol
# GULP energy per Si atom -5587.898313 kJ/mol
# Density = 2.255035 g / cm^3
# Si number density = 22.601796 Si / 1000 Ang^3
#
#
#
# Elastic Constant Matrix: (Units=GPa)
#
#
# Indices 1 2 3 4 5 6 
#
# 1 69.0130 46.0397 17.5534 0.0000 0.0000 0.0000
# 2 46.0397 80.2167 8.8573 0.0000 0.0000 0.0000
# 3 17.5534 8.8573 37.7496 0.0000 0.0000 0.0000
# 4 0.0000 0.0000 0.0000 35.3483 0.0000 0.0000
# 5 0.0000 0.0000 0.0000 0.0000 28.8699 0.0000
# 6 0.0000 0.0000 0.0000 0.0000 0.0000 30.6289
#
#
#
# Elastic Compliance Matrix: (Units=1/GPa)
#
#
# Indices 1 2 3 4 5 6 
#
# 1 0.026069 -0.013986 -0.008840 0.000000 0.000000 0.000000
# 2 -0.013986 0.020301 0.001740 0.000000 0.000000 0.000000
# 3 -0.008840 0.001740 0.030193 0.000000 0.000000 0.000000
# 4 0.000000 0.000000 0.000000 0.028290 0.000000 0.000000
# 5 0.000000 0.000000 0.000000 0.000000 0.034638 0.000000
# 6 0.000000 0.000000 0.000000 0.000000 0.000000 0.032649
#
#
# Mechanical properties :
#
#
# Convention : Reuss Voigt Hill
#
# Bulk Modulus (GPa) = 29.07785 36.87557 32.97671
# Shear Modulus (GPa) = 22.14593 26.60469 24.37531
#
# Velocity S-wave (km/s) = 3.13362 3.43462 3.28757
# Velocity P-wave (km/s) = 5.09764 5.66388 5.38821
#
# Compressibility (1/GPa) = 0.03439044
#
# Stress axis : x y z
#
# Youngs Moduli (GPa) = 38.36021 49.25839 33.12052
#
# Poissons Ratio (x) = 0.68892 0.29280
# Poissons Ratio (y) = 0.53650 -0.05763
# Poissons Ratio (z) = 0.33912 -0.08571
#
# Static dielectric constant tensor:
#      x y z
#    x 1.860860 0.000000 0.000000 
#    y 0.000000 1.830490 0.000000 
#    z 0.000000 0.000000 1.907110 
# 
# From -- ./inp_files/3717.got.cif
#   From: 2010.05.17/outbox.cif.g08.bks.cpg/sg56_2_cif.got.tgz:3717.got - 2010.06.03 13:42:01.
