data_PCOD9432390
_publ_section_title
;
Structure prediction by ZEFSAII (Michael W. Deem and Ramdas Pophale) SiO2 
 PCOD9432390
Probable space group: P C C N
;
_chemical_formula_sum "Si O2"
_cell_formula_units_Z 56
_cell_length_a 13.994443
_cell_length_b 17.920548
_cell_length_c 7.521719
_cell_angle_alpha 90.000000
_cell_angle_beta 90.000000
_cell_angle_gamma 90.000000
_cell_volume 1886.357523
_symmetry_space_group_name_H-M "P C C N"
_symmetry_group_IT_number 56
_symmetry_cell_setting 'orthorhombic'
loop_
_space_group_symop_operation_xyz
x,y,z
1/2-x,1/2-y,z
1/2+x,-y,1/2-z
-x,1/2+y,1/2-z
-x,-y,-z
1/2+x,1/2+y,-z
1/2-x,y,1/2+z
x,1/2-y,1/2+z
loop_
_atom_site_type_symbol
_atom_site_label
_atom_site_fract_x
_atom_site_fract_y
_atom_site_fract_z
Si Si1 0.906956 0.241248 0.736421
Si Si2 0.611839 0.100664 0.457336
Si Si3 0.164355 0.874656 0.556116
Si Si4 0.902936 0.945396 0.921637
Si Si5 0.397227 0.190537 0.175471
Si Si6 0.709787 0.862216 0.123322
Si Si7 0.115933 0.464768 0.159178
O O1 0.903670 0.187354 0.909632
O O2 0.647239 0.181909 0.776915
O O3 0.863300 0.182030 0.599306
O O4 0.020439 0.248724 0.708096
O O5 0.727210 0.100544 0.479506
O O6 0.511687 0.082463 0.560860
O O7 0.604226 0.026442 0.328702
O O8 0.105660 0.950490 0.597873
O O9 0.847201 0.887323 0.798661
O O10 0.868141 0.966213 0.125526
O O11 0.311376 0.169137 0.310019
O O12 0.450553 0.109333 0.151542
O O13 0.344523 0.200810 0.989290
O O14 0.694327 0.930973 0.981685
#
# Coordination Sequence:
#
# PCOD9432390 Si02
#       7
#     8   8   8   8   8   8   8
#     4  12  29  54  73 117 171 238 296 347 429 553
#     4  11  26  44  79 116 167 225 286 350 432 524
#     4  12  30  50  78 112 179 240 296 361 438 536
#     4  11  23  46  83 136 170 213 287 375 458 523
#     4  10  23  46  83 128 170 210 290 367 456 519
#     4  10  22  43  83 134 171 206 275 382 456 518
#     4  10  24  45  79 126 169 216 282 374 448 514
#
# _framework density 29.686845000000002
#
# number of rings (size 3 to 8) (size 9 to 14) (size 15 to 20)
#    0.857    0.286    1.429    3.000    6.000    4.000 
#    0.000    0.000    3.143    2.571    0.000    2.000 
#    0.000    0.000    0.000    0.000    0.000    0.286 
#
# Total GULP energy -312143.596686 kJ/mol
# GULP energy per Si atom -5573.992798 kJ/mol
# Density = 2.961928 g / cm^3
# Si number density = 29.686845 Si / 1000 Ang^3
#
#
#
# Elastic Constant Matrix: (Units=GPa)
#
#
# Indices 1 2 3 4 5 6 
#
# 1 165.4168 59.8830 78.3238 0.0000 0.0000 0.0000
# 2 59.8830 231.9189 39.6690 0.0000 0.0000 0.0000
# 3 78.3238 39.6690 176.7669 0.0000 0.0000 0.0000
# 4 0.0000 0.0000 0.0000 22.1783 0.0000 0.0000
# 5 0.0000 0.0000 0.0000 0.0000 43.4658 0.0000
# 6 0.0000 0.0000 0.0000 0.0000 0.0000 43.6033
#
#
#
# Elastic Compliance Matrix: (Units=1/GPa)
#
#
# Indices 1 2 3 4 5 6 
#
# 1 0.008151 -0.001546 -0.003265 0.000000 0.000000 0.000000
# 2 -0.001546 0.004777 -0.000387 0.000000 0.000000 0.000000
# 3 -0.003265 -0.000387 0.007191 0.000000 0.000000 0.000000
# 4 0.000000 0.000000 0.000000 0.045089 0.000000 0.000000
# 5 0.000000 0.000000 0.000000 0.000000 0.023007 0.000000
# 6 0.000000 0.000000 0.000000 0.000000 0.000000 0.022934
#
#
# Mechanical properties :
#
#
# Convention : Reuss Voigt Hill
#
# Bulk Modulus (GPa) = 102.84767 103.31715 103.08241
# Shear Modulus (GPa) = 40.06894 48.26461 44.16677
#
# Velocity S-wave (km/s) = 3.67784 4.03648 3.86133
# Velocity P-wave (km/s) = 7.26325 7.52344 7.39449
#
# Compressibility (1/GPa) = 0.00972312
#
# Stress axis : x y z
#
# Youngs Moduli (GPa) = 122.68686 209.32395 139.07214
#
# Poissons Ratio (x) = 0.32366 0.45401
# Poissons Ratio (y) = 0.18970 0.05382
# Poissons Ratio (z) = 0.40052 0.08100
#
# Static dielectric constant tensor:
#      x y z
#    x 2.328650 0.000000 0.000000 
#    y 0.000000 2.587440 0.000000 
#    z 0.000000 0.000000 2.869940 
# 
# From -- ./inp_files/4180.got.cif
#   From: 2010.05.17/outbox.cif.g08.bks.cpg/sg56_3_cif.got.tgz:4180.got - 2010.06.03 13:42:01.
