data_PCOD9432209
_publ_section_title
;
Structure prediction by ZEFSAII (Michael W. Deem and Ramdas Pophale) SiO2 
 PCOD9432209
Probable space group: P C C N
;
_chemical_formula_sum "Si O2"
_cell_formula_units_Z 32
_cell_length_a 5.582410
_cell_length_b 19.070147
_cell_length_c 13.578139
_cell_angle_alpha 90.000000
_cell_angle_beta 90.000000
_cell_angle_gamma 90.000000
_cell_volume 1445.493094
_symmetry_space_group_name_H-M "P C C N"
_symmetry_group_IT_number 56
_symmetry_cell_setting 'orthorhombic'
loop_
_space_group_symop_operation_xyz
x,y,z
1/2-x,1/2-y,z
1/2+x,-y,1/2-z
-x,1/2+y,1/2-z
-x,-y,-z
1/2+x,1/2+y,-z
1/2-x,y,1/2+z
x,1/2-y,1/2+z
loop_
_atom_site_type_symbol
_atom_site_label
_atom_site_fract_x
_atom_site_fract_y
_atom_site_fract_z
Si Si1 0.910796 0.004551 0.311459
Si Si2 0.354533 0.354402 0.643413
Si Si3 0.750000 0.250000 0.685055
Si Si4 0.554965 0.842485 0.167306
Si Si5 0.250000 0.250000 0.503083
O O1 0.958339 0.080508 0.357917
O O2 0.653833 0.007834 0.254139
O O3 0.889571 0.935607 0.379103
O O4 0.579506 0.303657 0.627512
O O5 0.287156 0.350837 0.759970
O O6 0.163327 0.313934 0.574595
O O7 0.615230 0.197713 0.758448
O O8 0.590806 0.793834 0.073893
#
# Coordination Sequence:
#
# PCOD9432209 Si02
#       5
#     8   8   4   8   4
#     4  10  22  41  68  91 132 182 218 267 334 395
#     4  11  23  41  63  93 130 172 218 269 333 389
#     4  12  18  42  64  90 122 174 214 274 314 412
#     4  11  23  41  63  93 130 172 218 269 333 389
#     4  12  22  40  64  98 134 164 218 282 324 398
#
# _framework density 22.137775999999999
#
# number of rings (size 3 to 8) (size 9 to 14) (size 15 to 20)
#    0.000    1.000    7.500    0.000    0.000    2.000 
#    0.000    0.000    0.000   10.500    0.000    0.000 
#    0.000    0.000    0.000    0.000    0.000    0.000 
#
# Total GULP energy -178135.476312 kJ/mol
# GULP energy per Si atom -5566.733635 kJ/mol
# Density = 2.208739 g / cm^3
# Si number density = 22.137776 Si / 1000 Ang^3
#
#
#
# Elastic Constant Matrix: (Units=GPa)
#
#
# Indices 1 2 3 4 5 6 
#
# 1 73.5012 41.4336 12.4803 0.0000 0.0000 0.0000
# 2 41.4336 214.2731 39.9371 0.0000 0.0000 0.0000
# 3 12.4803 39.9371 99.6473 0.0000 0.0000 0.0000
# 4 0.0000 0.0000 0.0000 18.8841 0.0000 0.0000
# 5 0.0000 0.0000 0.0000 0.0000 8.6597 0.0000
# 6 0.0000 0.0000 0.0000 0.0000 0.0000 43.1704
#
#
#
# Elastic Compliance Matrix: (Units=1/GPa)
#
#
# Indices 1 2 3 4 5 6 
#
# 1 0.015327 -0.002816 -0.000791 0.000000 0.000000 0.000000
# 2 -0.002816 0.005561 -0.001876 0.000000 0.000000 0.000000
# 3 -0.000791 -0.001876 0.010886 0.000000 0.000000 0.000000
# 4 0.000000 0.000000 0.000000 0.052955 0.000000 0.000000
# 5 0.000000 0.000000 0.000000 0.000000 0.115477 0.000000
# 6 0.000000 0.000000 0.000000 0.000000 0.000000 0.023164
#
#
# Mechanical properties :
#
#
# Convention : Reuss Voigt Hill
#
# Bulk Modulus (GPa) = 48.05847 63.90260 55.98053
# Shear Modulus (GPa) = 20.72337 33.71421 27.21879
#
# Velocity S-wave (km/s) = 3.06291 3.90670 3.51025
# Velocity P-wave (km/s) = 5.85359 7.01985 6.46308
#
# Compressibility (1/GPa) = 0.02080799
#
# Stress axis : x y z
#
# Youngs Moduli (GPa) = 65.24378 179.81681 91.85798
#
# Poissons Ratio (x) = 0.50643 0.07265
# Poissons Ratio (y) = 0.18375 0.17234
# Poissons Ratio (z) = 0.05160 0.33736
#
# Static dielectric constant tensor:
#      x y z
#    x 2.008240 0.000000 0.000000 
#    y 0.000000 1.819970 0.000000 
#    z 0.000000 0.000000 1.901480 
# 
# From -- ./inp_files/5455.got.cif
#   From: 2010.05.17/outbox.cif.g08.bks.cpg/sg56_3_cif.got.tgz:5455.got - 2010.06.03 13:42:01.
