data_PCOD9432497
_publ_section_title
;
Structure prediction by ZEFSAII (Michael W. Deem and Ramdas Pophale) SiO2 
 PCOD9432497
Probable space group: P C C N
;
_chemical_formula_sum "Si O2"
_cell_formula_units_Z 28
_cell_length_a 9.943013
_cell_length_b 11.073635
_cell_length_c 9.703075
_cell_angle_alpha 90.000000
_cell_angle_beta 90.000000
_cell_angle_gamma 90.000000
_cell_volume 1068.359952
_symmetry_space_group_name_H-M "P C C N"
_symmetry_group_IT_number 56
_symmetry_cell_setting 'orthorhombic'
loop_
_space_group_symop_operation_xyz
x,y,z
1/2-x,1/2-y,z
1/2+x,-y,1/2-z
-x,1/2+y,1/2-z
-x,-y,-z
1/2+x,1/2+y,-z
1/2-x,y,1/2+z
x,1/2-y,1/2+z
loop_
_atom_site_type_symbol
_atom_site_label
_atom_site_fract_x
_atom_site_fract_y
_atom_site_fract_z
Si Si1 0.637758 0.650030 0.029649
Si Si2 0.977405 0.809151 0.750671
Si Si3 0.359734 0.981488 0.919059
Si Si4 0.250000 0.750000 0.774167
O O1 0.750000 0.750000 0.993769
O O2 0.581926 0.687600 0.180073
O O3 0.718229 0.525843 0.016522
O O4 0.526287 0.672047 0.914270
O O5 0.130290 0.818660 0.696388
O O6 0.883180 0.917295 0.698776
O O7 0.331740 0.850609 0.858346
O O8 0.500000 0.000000 0.000000
#
# Coordination Sequence:
#
# PCOD9432497 Si02
#       4
#     8   8   8   4
#     4  10  22  46  79 107 153 204 259 321 403 466
#     4  11  26  47  78 111 154 208 261 331 397 472
#     4  11  27  47  76 113 161 204 266 332 395 476
#     4  12  28  46  78 114 156 206 272 322 396 476
#
# _framework density 26.208397000000001
#
# number of rings (size 3 to 8) (size 9 to 14) (size 15 to 20)
#    0.000    1.143    0.000    6.000    8.000    5.714 
#    0.000    0.000    0.000    0.000    0.000    0.000 
#    0.000    0.000    0.000    0.000    0.000    0.000 
#
# Total GULP energy -156498.474510 kJ/mol
# GULP energy per Si atom -5589.231232 kJ/mol
# Density = 2.614875 g / cm^3
# Si number density = 26.208397 Si / 1000 Ang^3
#
#
#
# Elastic Constant Matrix: (Units=GPa)
#
#
# Indices 1 2 3 4 5 6 
#
# 1 159.9176 33.9987 29.2009 0.0000 0.0000 0.0000
# 2 33.9987 78.2041 11.8318 0.0000 0.0000 0.0000
# 3 29.2009 11.8318 80.2821 0.0000 0.0000 0.0000
# 4 0.0000 0.0000 0.0000 12.2787 0.0000 0.0000
# 5 0.0000 0.0000 0.0000 0.0000 44.4435 0.0000
# 6 0.0000 0.0000 0.0000 0.0000 0.0000 60.0285
#
#
#
# Elastic Compliance Matrix: (Units=1/GPa)
#
#
# Indices 1 2 3 4 5 6 
#
# 1 0.007259 -0.002819 -0.002225 0.000000 0.000000 0.000000
# 2 -0.002819 0.014174 -0.001063 0.000000 0.000000 0.000000
# 3 -0.002225 -0.001063 0.013422 0.000000 0.000000 0.000000
# 4 0.000000 0.000000 0.000000 0.081442 0.000000 0.000000
# 5 0.000000 0.000000 0.000000 0.000000 0.022500 0.000000
# 6 0.000000 0.000000 0.000000 0.000000 0.000000 0.016659
#
#
# Mechanical properties :
#
#
# Convention : Reuss Voigt Hill
#
# Bulk Modulus (GPa) = 44.17028 52.05185 48.11106
# Shear Modulus (GPa) = 28.53605 39.57497 34.05551
#
# Velocity S-wave (km/s) = 3.30330 3.89010 3.60865
# Velocity P-wave (km/s) = 5.60706 6.33096 5.97997
#
# Compressibility (1/GPa) = 0.02263966
#
# Stress axis : x y z
#
# Youngs Moduli (GPa) = 137.76365 70.55400 74.50444
#
# Poissons Ratio (x) = 0.19890 0.16575
# Poissons Ratio (y) = 0.38837 0.07923
# Poissons Ratio (z) = 0.30649 0.07503
#
# Static dielectric constant tensor:
#      x y z
#    x 2.124550 0.000000 0.000000 
#    y 0.000000 2.139380 0.000000 
#    z 0.000000 0.000000 2.112910 
# 
# From -- ./inp_files/5991.got.cif
#   From: 2010.05.17/outbox.cif.g08.bks.cpg/sg56_3_cif.got.tgz:5991.got - 2010.06.03 13:42:01.
