data_PCOD9432575
_publ_section_title
;
Structure prediction by ZEFSAII (Michael W. Deem and Ramdas Pophale) SiO2 
 PCOD9432575
Probable space group: P C C N
;
_chemical_formula_sum "Si O2"
_cell_formula_units_Z 32
_cell_length_a 11.989261
_cell_length_b 9.643372
_cell_length_c 10.199959
_cell_angle_alpha 90.000000
_cell_angle_beta 90.000000
_cell_angle_gamma 90.000000
_cell_volume 1179.287679
_symmetry_space_group_name_H-M "P C C N"
_symmetry_group_IT_number 56
_symmetry_cell_setting 'orthorhombic'
loop_
_space_group_symop_operation_xyz
x,y,z
1/2-x,1/2-y,z
1/2+x,-y,1/2-z
-x,1/2+y,1/2-z
-x,-y,-z
1/2+x,1/2+y,-z
1/2-x,y,1/2+z
x,1/2-y,1/2+z
loop_
_atom_site_type_symbol
_atom_site_label
_atom_site_fract_x
_atom_site_fract_y
_atom_site_fract_z
Si Si1 0.494114 0.195006 0.117159
Si Si2 0.459275 0.609200 0.652962
Si Si3 0.782562 0.911146 0.711176
Si Si4 0.872086 0.546583 0.475184
O O1 0.435838 0.054546 0.169746
O O2 0.557341 0.279987 0.231332
O O3 0.571270 0.162631 0.991268
O O4 0.406091 0.402625 0.349326
O O5 0.701331 0.525843 0.102463
O O6 0.602788 0.793788 0.438669
O O7 0.750000 0.750000 0.728474
O O8 0.805877 0.998961 0.844343
O O9 0.000000 0.500000 0.500000
#
# Coordination Sequence:
#
# PCOD9432575 Si02
#       4
#     8   8   8   8
#     4  10  23  42  69 109 153 203 258 321 405 458
#     4  10  23  40  72 110 152 204 266 326 392 477
#     4  11  23  44  74 112 147 201 268 320 385 491
#     4  11  26  46  75 110 155 201 260 328 397 464
#
# _framework density 27.135024999999999
#
# number of rings (size 3 to 8) (size 9 to 14) (size 15 to 20)
#    0.000    1.500    2.500    0.750   10.500    0.000 
#    9.000    1.250    0.000    6.000    0.000    0.000 
#    0.000    0.000    0.000    0.000    0.000    0.000 
#
# Total GULP energy -178958.919430 kJ/mol
# GULP energy per Si atom -5592.466232 kJ/mol
# Density = 2.707326 g / cm^3
# Si number density = 27.135025 Si / 1000 Ang^3
#
#
#
# Elastic Constant Matrix: (Units=GPa)
#
#
# Indices 1 2 3 4 5 6 
#
# 1 129.7306 16.7960 51.5062 0.0000 0.0000 0.0000
# 2 16.7960 129.9885 83.9302 0.0000 0.0000 0.0000
# 3 51.5062 83.9302 272.9314 0.0000 0.0000 0.0000
# 4 0.0000 0.0000 0.0000 38.7900 0.0000 0.0000
# 5 0.0000 0.0000 0.0000 0.0000 42.1583 0.0000
# 6 0.0000 0.0000 0.0000 0.0000 0.0000 31.1941
#
#
#
# Elastic Compliance Matrix: (Units=1/GPa)
#
#
# Indices 1 2 3 4 5 6 
#
# 1 0.008333 -0.000077 -0.001549 0.000000 0.000000 0.000000
# 2 -0.000077 0.009600 -0.002938 0.000000 0.000000 0.000000
# 3 -0.001549 -0.002938 0.004860 0.000000 0.000000 0.000000
# 4 0.000000 0.000000 0.000000 0.025780 0.000000 0.000000
# 5 0.000000 0.000000 0.000000 0.000000 0.023720 0.000000
# 6 0.000000 0.000000 0.000000 0.000000 0.000000 0.032057
#
#
# Mechanical properties :
#
#
# Convention : Reuss Voigt Hill
#
# Bulk Modulus (GPa) = 73.17410 93.01280 83.09345
# Shear Modulus (GPa) = 42.36163 47.78970 45.07567
#
# Velocity S-wave (km/s) = 3.95542 4.20120 4.08016
# Velocity P-wave (km/s) = 6.91994 7.60826 7.27225
#
# Compressibility (1/GPa) = 0.01366604
#
# Stress axis : x y z
#
# Youngs Moduli (GPa) = 120.00182 104.17116 205.77853
#
# Poissons Ratio (x) = 0.00798 0.31876
# Poissons Ratio (y) = 0.00919 0.60449
# Poissons Ratio (z) = 0.18589 0.30601
#
# Static dielectric constant tensor:
#      x y z
#    x 2.215120 0.000000 0.000000 
#    y 0.000000 2.287260 0.000000 
#    z 0.000000 0.000000 2.267750 
# 
# From -- ./inp_files/8220.got.cif
#   From: 2010.05.17/outbox.cif.g08.bks.cpg/sg56_5_cif.got.tgz:8220.got - 2010.06.03 13:42:01.
