data_PCOD9432765
_publ_section_title
;
Structure prediction by ZEFSAII (Michael W. Deem and Ramdas Pophale) SiO2 
 PCOD9432765
Probable space group: P C C N
;
_chemical_formula_sum "Si O2"
_cell_formula_units_Z 32
_cell_length_a 19.085166
_cell_length_b 4.949144
_cell_length_c 14.046935
_cell_angle_alpha 90.000000
_cell_angle_beta 90.000000
_cell_angle_gamma 90.000000
_cell_volume 1326.806544
_symmetry_space_group_name_H-M "P C C N"
_symmetry_group_IT_number 56
_symmetry_cell_setting 'orthorhombic'
loop_
_space_group_symop_operation_xyz
x,y,z
1/2-x,1/2-y,z
1/2+x,-y,1/2-z
-x,1/2+y,1/2-z
-x,-y,-z
1/2+x,1/2+y,-z
1/2-x,y,1/2+z
x,1/2-y,1/2+z
loop_
_atom_site_type_symbol
_atom_site_label
_atom_site_fract_x
_atom_site_fract_y
_atom_site_fract_z
Si Si1 0.380213 0.633008 0.565468
Si Si2 0.669674 0.654716 0.044634
Si Si3 0.039170 0.597215 0.718662
Si Si4 0.326137 0.869062 0.263467
O O1 0.382342 0.385294 0.493601
O O2 0.448712 0.766397 0.614847
O O3 0.335411 0.523673 0.656205
O O4 0.341584 0.881755 0.515193
O O5 0.750000 0.750000 0.034663
O O6 0.657332 0.577038 0.153862
O O7 0.115372 0.635476 0.764804
O O8 0.012313 0.294754 0.723066
O O9 0.250000 0.750000 0.279524
#
# Coordination Sequence:
#
# PCOD9432765 Si02
#       4
#     8   8   8   8
#     4  10  25  42  69  95 140 173 225 272 345 385
#     4  12  23  41  65 106 136 171 224 282 335 410
#     4  10  23  46  68  95 137 182 225 274 335 407
#     4  10  24  43  72 100 137 178 226 283 340 396
#
# _framework density 24.118058999999999
#
# number of rings (size 3 to 8) (size 9 to 14) (size 15 to 20)
#    1.500    0.000    0.000    5.250    0.000    9.000 
#    0.000    7.500    0.000    0.000    0.000    0.000 
#    0.000    0.000    0.000    0.000    0.000    0.000 
#
# Total GULP energy -178953.641937 kJ/mol
# GULP energy per Si atom -5592.301311 kJ/mol
# Density = 2.406316 g / cm^3
# Si number density = 24.118059 Si / 1000 Ang^3
#
#
#
# Elastic Constant Matrix: (Units=GPa)
#
#
# Indices 1 2 3 4 5 6 
#
# 1 71.0775 7.7993 12.2642 0.0000 0.0000 0.0000
# 2 7.7993 93.3114 52.9989 0.0000 0.0000 0.0000
# 3 12.2642 52.9989 108.8846 0.0000 0.0000 0.0000
# 4 0.0000 0.0000 0.0000 -19.1288 0.0000 0.0000
# 5 0.0000 0.0000 0.0000 0.0000 -72.1609 0.0000
# 6 0.0000 0.0000 0.0000 0.0000 0.0000 15.6252
#
#
#
# Elastic Compliance Matrix: (Units=1/GPa)
#
#
# Indices 1 2 3 4 5 6 
#
# 1 0.014358 -0.000389 -0.001428 0.000000 0.000000 0.000000
# 2 -0.000389 0.014822 -0.007171 0.000000 0.000000 0.000000
# 3 -0.001428 -0.007171 0.012835 0.000000 0.000000 0.000000
# 4 0.000000 0.000000 0.000000 -0.052277 0.000000 0.000000
# 5 0.000000 0.000000 0.000000 0.000000 -0.013858 0.000000
# 6 0.000000 0.000000 0.000000 0.000000 0.000000 0.063999
#
#
# Mechanical properties :
#
#
# Convention : Reuss Voigt Hill
#
# Bulk Modulus (GPa) = 41.59716 46.59982 44.09849
# Shear Modulus (GPa) = 75.90894 -1.78549 37.06172
#
# Velocity S-wave (km/s) = 5.61625 -0.86135 3.92430
# Velocity P-wave (km/s) = 7.70331 4.28652 6.23359
#
# Compressibility (1/GPa) = 0.02404010
#
# Stress axis : x y z
#
# Youngs Moduli (GPa) = 69.64657 67.46647 77.91081
#
# Poissons Ratio (x) = 0.02625 0.11124
# Poissons Ratio (y) = 0.02710 0.55868
# Poissons Ratio (z) = 0.09944 0.48379
#
# Static dielectric constant tensor:
#      x y z
#    x 1.952610 0.000000 0.000000 
#    y 0.000000 1.875810 0.000000 
#    z 0.000000 0.000000 1.946150 
# 
# From -- ./inp_files/12520.got.cif
#   From: 2010.05.17/outbox.cif.g08.bks.cpg/sg56_7_cif.got.tgz:12520.got - 2010.06.03 13:42:01.
