data_PCOD9432480
_publ_section_title
;
Structure prediction by ZEFSAII (Michael W. Deem and Ramdas Pophale) SiO2 
 PCOD9432480
Probable space group: P C C N
;
_chemical_formula_sum "Si O2"
_cell_formula_units_Z 44
_cell_length_a 20.727169
_cell_length_b 9.191258
_cell_length_c 9.732393
_cell_angle_alpha 90.000000
_cell_angle_beta 90.000000
_cell_angle_gamma 90.000000
_cell_volume 1854.106102
_symmetry_space_group_name_H-M "P C C N"
_symmetry_group_IT_number 56
_symmetry_cell_setting 'orthorhombic'
loop_
_space_group_symop_operation_xyz
x,y,z
1/2-x,1/2-y,z
1/2+x,-y,1/2-z
-x,1/2+y,1/2-z
-x,-y,-z
1/2+x,1/2+y,-z
1/2-x,y,1/2+z
x,1/2-y,1/2+z
loop_
_atom_site_type_symbol
_atom_site_label
_atom_site_fract_x
_atom_site_fract_y
_atom_site_fract_z
Si Si1 0.677209 0.494350 0.864249
Si Si2 0.036530 0.577455 0.315718
Si Si3 0.621792 0.821066 0.598469
Si Si4 0.416453 0.757403 0.566935
Si Si5 0.416164 0.489318 0.368223
Si Si6 0.750000 0.750000 0.769582
O O1 0.650561 0.480649 0.710861
O O2 0.741045 0.595992 0.852568
O O3 0.635146 0.606063 0.953190
O O4 0.654355 0.338173 0.928144
O O5 0.084842 0.441051 0.312809
O O6 0.038741 0.638399 0.471845
O O7 0.970972 0.520327 0.248503
O O8 0.062169 0.710108 0.219588
O O9 0.584053 0.673161 0.574288
O O10 0.687846 0.779168 0.675299
O O11 0.420987 0.605814 0.486565
#
# Coordination Sequence:
#
# PCOD9432480 Si02
#       6
#     8   8   8   8   8   4
#     4  10  23  43  69  96 133 178 232 289 342 423
#     4  11  24  41  66 102 144 186 228 289 354 422
#     4  10  24  40  71  97 132 182 230 289 348 423
#     4  11  23  42  64  98 144 178 234 283 350 408
#     4  11  23  39  68 102 141 183 226 282 351 428
#     4  10  22  46  70  94 124 176 244 280 354 418
#
# _framework density 23.731110999999999
#
# number of rings (size 3 to 8) (size 9 to 14) (size 15 to 20)
#    0.000    1.455    1.818    2.182    7.636    1.455 
#    0.000    0.909    8.000    0.000    0.000    0.000 
#    0.000    0.000    0.000    0.000    0.000    0.000 
#
# Total GULP energy -245448.690827 kJ/mol
# GULP energy per Si atom -5578.379337 kJ/mol
# Density = 2.367710 g / cm^3
# Si number density = 23.731111 Si / 1000 Ang^3
#
#
#
# Elastic Constant Matrix: (Units=GPa)
#
#
# Indices 1 2 3 4 5 6 
#
# 1 60.1630 43.1179 3.0130 0.0000 0.0000 0.0000
# 2 43.1179 168.9833 31.7804 0.0000 0.0000 0.0000
# 3 3.0130 31.7804 83.5655 0.0000 0.0000 0.0000
# 4 0.0000 0.0000 0.0000 40.3690 0.0000 0.0000
# 5 0.0000 0.0000 0.0000 0.0000 19.4790 0.0000
# 6 0.0000 0.0000 0.0000 0.0000 0.0000 44.9934
#
#
#
# Elastic Compliance Matrix: (Units=1/GPa)
#
#
# Indices 1 2 3 4 5 6 
#
# 1 0.020481 -0.005479 0.001345 0.000000 0.000000 0.000000
# 2 -0.005479 0.007839 -0.002784 0.000000 0.000000 0.000000
# 3 0.001345 -0.002784 0.012977 0.000000 0.000000 0.000000
# 4 0.000000 0.000000 0.000000 0.024772 0.000000 0.000000
# 5 0.000000 0.000000 0.000000 0.000000 0.051337 0.000000
# 6 0.000000 0.000000 0.000000 0.000000 0.000000 0.022225
#
#
# Mechanical properties :
#
#
# Convention : Reuss Voigt Hill
#
# Bulk Modulus (GPa) = 36.41398 52.05939 44.23668
# Shear Modulus (GPa) = 30.74651 36.62164 33.68408
#
# Velocity S-wave (km/s) = 3.60338 3.93261 3.77159
# Velocity P-wave (km/s) = 5.71753 6.52728 6.13578
#
# Compressibility (1/GPa) = 0.02746198
#
# Stress axis : x y z
#
# Youngs Moduli (GPa) = 48.82624 127.56274 77.06040
#
# Poissons Ratio (x) = 0.69890 -0.10366
# Poissons Ratio (y) = 0.26751 0.21452
# Poissons Ratio (z) = -0.06568 0.35511
#
# Static dielectric constant tensor:
#      x y z
#    x 1.983780 0.000000 0.000000 
#    y 0.000000 1.941630 0.000000 
#    z 0.000000 0.000000 1.896360 
# 
# From -- ./inp_files/8848.got.cif
#   From: 2010.05.17/outbox.cif.g08.bks.cpg/sg56_5_cif.got.tgz:8848.got - 2010.06.03 13:42:01.
