data_PCOD9432282
_publ_section_title
;
Structure prediction by ZEFSAII (Michael W. Deem and Ramdas Pophale) SiO2 
 PCOD9432282
Probable space group: P C C N
;
_chemical_formula_sum "Si O2"
_cell_formula_units_Z 60
_cell_length_a 7.542659
_cell_length_b 12.846549
_cell_length_c 25.924323
_cell_angle_alpha 90.000000
_cell_angle_beta 90.000000
_cell_angle_gamma 90.000000
_cell_volume 2511.992715
_symmetry_space_group_name_H-M "P C C N"
_symmetry_group_IT_number 56
_symmetry_cell_setting 'orthorhombic'
loop_
_space_group_symop_operation_xyz
x,y,z
1/2-x,1/2-y,z
1/2+x,-y,1/2-z
-x,1/2+y,1/2-z
-x,-y,-z
1/2+x,1/2+y,-z
1/2-x,y,1/2+z
x,1/2-y,1/2+z
loop_
_atom_site_type_symbol
_atom_site_label
_atom_site_fract_x
_atom_site_fract_y
_atom_site_fract_z
Si Si1 0.012610 0.122691 0.638742
Si Si2 0.080113 0.535158 0.055032
Si Si3 0.565733 0.381646 0.993208
Si Si4 0.533493 0.245231 0.901985
Si Si5 0.404663 0.486162 0.262673
Si Si6 0.250000 0.750000 0.422458
Si Si7 0.937286 0.862904 0.199040
Si Si8 0.456373 0.784426 0.286111
O O1 0.829861 0.153963 0.609886
O O2 0.050353 0.237337 0.662884
O O3 0.992196 0.048772 0.689059
O O4 0.116456 0.061185 0.593872
O O5 0.248882 0.597480 0.035123
O O6 0.981986 0.624114 0.089069
O O7 0.000000 0.500000 0.000000
O O8 0.469750 0.307536 0.952673
O O9 0.500000 0.500000 0.000000
O O10 0.604228 0.308445 0.042281
O O11 0.750000 0.250000 0.892326
O O12 0.449185 0.309760 0.855642
O O13 0.388532 0.570331 0.216229
O O14 0.518413 0.401767 0.230699
O O15 0.235744 0.429826 0.287300
O O16 0.947771 0.771285 0.239479
O O17 0.250000 0.750000 0.288857
#
# Coordination Sequence:
#
# PCOD9432282 Si02
#       8
#     8   8   8   8   8   4   8   8
#     4  11  24  40  75  96 133 194 226 292 357 427
#     4  11  21  43  69 100 141 178 235 292 365 426
#     4  11  24  43  72 103 140 182 231 296 356 435
#     4  10  22  42  68 100 137 187 232 291 363 432
#     4  11  25  44  66 107 139 187 241 294 356 426
#     4  12  22  48  70 102 142 180 242 288 370 424
#     4  11  24  40  67  97 137 182 236 294 351 433
#     4  11  23  44  67  97 139 184 238 297 355 423
#
# _framework density 23.88542
#
# number of rings (size 3 to 8) (size 9 to 14) (size 15 to 20)
#    0.000    1.067    4.000    3.200    1.867    5.333 
#    0.000    6.667    0.000    0.000    0.000    0.000 
#    0.000    0.000    0.000    0.000    0.000    0.000 
#
# Total GULP energy -334249.460946 kJ/mol
# GULP energy per Si atom -5570.824349 kJ/mol
# Density = 2.383106 g / cm^3
# Si number density = 23.885420 Si / 1000 Ang^3
#
#
#
# Elastic Constant Matrix: (Units=GPa)
#
#
# Indices 1 2 3 4 5 6 
#
# 1 46.4189 31.5212 14.9173 0.0000 0.0000 0.0000
# 2 31.5212 112.9880 43.8358 0.0000 0.0000 0.0000
# 3 14.9173 43.8358 151.7195 0.0000 0.0000 0.0000
# 4 0.0000 0.0000 0.0000-2479.7910 0.0000 0.0000
# 5 0.0000 0.0000 0.0000 0.0000 -5.1567 0.0000
# 6 0.0000 0.0000 0.0000 0.0000 0.0000 42.7930
#
#
#
# Elastic Compliance Matrix: (Units=1/GPa)
#
#
# Indices 1 2 3 4 5 6 
#
# 1 0.026616 -0.007219 -0.000531 0.000000 0.000000 0.000000
# 2 -0.007219 0.011926 -0.002736 0.000000 0.000000 0.000000
# 3 -0.000531 -0.002736 0.007434 0.000000 0.000000 0.000000
# 4 0.000000 0.000000 0.000000 -0.000403 0.000000 0.000000
# 5 0.000000 0.000000 0.000000 0.000000 -0.193924 0.000000
# 6 0.000000 0.000000 0.000000 0.000000 0.000000 0.023368
#
#
# Mechanical properties :
#
#
# Convention : Reuss Voigt Hill
#
# Bulk Modulus (GPa) = 39.99486 54.63056 47.31271
# Shear Modulus (GPa) = -52.25978 -473.70748 -262.98363
#
# Velocity S-wave (km/s) = -4.68261 -14.09807 -10.50434
# Velocity P-wave (km/s) = 3.52916 15.55911 11.28142
#
# Compressibility (1/GPa) = 0.02500321
#
# Stress axis : x y z
#
# Youngs Moduli (GPa) = 37.57147 83.85071 134.52050
#
# Poissons Ratio (x) = 0.60534 0.07144
# Poissons Ratio (y) = 0.27124 0.36804
# Poissons Ratio (z) = 0.01995 0.22941
#
# Static dielectric constant tensor:
#      x y z
#    x 2.101380 0.000000 0.000000 
#    y 0.000000 2.495630 0.000000 
#    z 0.000000 0.000000 1.942050 
# 
# From -- ./inp_files/22131.got.cif
#   From: 2010.05.17/outbox.cif.g08.bks.cpg/sg56_12_cif.got.tgz:22131.got - 2010.06.03 13:42:01.
