data_PCOD9432514
_publ_section_title
;
Structure prediction by ZEFSAII (Michael W. Deem and Ramdas Pophale) SiO2 
 PCOD9432514
Probable space group: P C C N
;
_chemical_formula_sum "Si O2"
_cell_formula_units_Z 64
_cell_length_a 11.807684
_cell_length_b 18.652646
_cell_length_c 11.045013
_cell_angle_alpha 90.000000
_cell_angle_beta 90.000000
_cell_angle_gamma 90.000000
_cell_volume 2432.603915
_symmetry_space_group_name_H-M "P C C N"
_symmetry_group_IT_number 56
_symmetry_cell_setting 'orthorhombic'
loop_
_space_group_symop_operation_xyz
x,y,z
1/2-x,1/2-y,z
1/2+x,-y,1/2-z
-x,1/2+y,1/2-z
-x,-y,-z
1/2+x,1/2+y,-z
1/2-x,y,1/2+z
x,1/2-y,1/2+z
loop_
_atom_site_type_symbol
_atom_site_label
_atom_site_fract_x
_atom_site_fract_y
_atom_site_fract_z
Si Si1 0.927112 0.791634 0.128045
Si Si2 0.439807 0.442954 0.776034
Si Si3 0.081874 0.422312 0.756923
Si Si4 0.904742 0.783945 0.866646
Si Si5 0.235912 0.596710 0.046576
Si Si6 0.613291 0.547740 0.482215
Si Si7 0.118103 0.770585 0.490799
Si Si8 0.668836 0.412046 0.203894
O O1 0.940927 0.877200 0.134547
O O2 0.873082 0.760361 0.248478
O O3 0.053318 0.759525 0.107827
O O4 0.866889 0.769447 0.003404
O O5 0.552923 0.494212 0.774988
O O6 0.412331 0.412366 0.642486
O O7 0.340764 0.501071 0.800252
O O8 0.130552 0.366546 0.661275
O O9 0.952716 0.393448 0.759042
O O10 0.132203 0.414039 0.890488
O O11 0.038410 0.760679 0.885788
O O12 0.128780 0.643578 0.998946
O O13 0.253122 0.613872 0.189437
O O14 0.207325 0.512726 0.041966
O O15 0.321799 0.609529 0.935842
O O16 0.500000 0.500000 0.500000
O O17 0.250000 0.750000 0.487284
#
# Coordination Sequence:
#
# PCOD9432514 Si02
#       8
#     8   8   8   8   8   8   8   8
#     4  10  23  36  56  83 113 158 199 252 299 359
#     4   8  19  36  59  80 112 157 201 258 308 335
#     4   9  18  37  57  82 114 154 202 255 296 351
#     4  10  23  35  54  79 117 148 199 247 290 363
#     4  11  20  40  57  92 119 167 208 242 315 367
#     4   9  18  33  66  79 110 159 206 261 293 373
#     4  10  24  37  52  78 130 169 200 233 300 370
#     4   9  21  35  61  79 123 151 202 254 294 369
#
# _framework density 26.309256000000001
#
# number of rings (size 3 to 8) (size 9 to 14) (size 15 to 20)
#    1.500    1.000    1.250    1.500    5.250    2.000 
#    2.250    0.000    0.000    0.000    0.000    0.875 
#    0.000    0.000    0.000    0.000    0.000    0.000 
#
# Total GULP energy -356503.435460 kJ/mol
# GULP energy per Si atom -5570.366179 kJ/mol
# Density = 2.624938 g / cm^3
# Si number density = 26.309256 Si / 1000 Ang^3
#
#
#
# Elastic Constant Matrix: (Units=GPa)
#
#
# Indices 1 2 3 4 5 6 
#
# 1 72.0911 14.4384 15.9760 0.0000 0.0000 0.0000
# 2 14.4384 108.8727 41.7775 0.0000 0.0000 0.0000
# 3 15.9760 41.7775 134.3466 0.0000 0.0000 0.0000
# 4 0.0000 0.0000 0.0000 42.3593 0.0000 0.0000
# 5 0.0000 0.0000 0.0000 0.0000 0.8727 0.0000
# 6 0.0000 0.0000 0.0000 0.0000 0.0000 25.1362
#
#
#
# Elastic Compliance Matrix: (Units=1/GPa)
#
#
# Indices 1 2 3 4 5 6 
#
# 1 0.014439 -0.001426 -0.001274 0.000000 0.000000 0.000000
# 2 -0.001426 0.010570 -0.003117 0.000000 0.000000 0.000000
# 3 -0.001274 -0.003117 0.008564 0.000000 0.000000 0.000000
# 4 0.000000 0.000000 0.000000 0.023608 0.000000 0.000000
# 5 0.000000 0.000000 0.000000 0.000000 1.145821 0.000000
# 6 0.000000 0.000000 0.000000 0.000000 0.000000 0.039783
#
#
# Mechanical properties :
#
#
# Convention : Reuss Voigt Hill
#
# Bulk Modulus (GPa) = 45.57984 51.07713 48.32849
# Shear Modulus (GPa) = 3.96280 29.88155 16.92218
#
# Velocity S-wave (km/s) = 1.22862 3.37379 2.53889
# Velocity P-wave (km/s) = 4.40170 5.88497 5.19653
#
# Compressibility (1/GPa) = 0.02193952
#
# Stress axis : x y z
#
# Youngs Moduli (GPa) = 69.25585 94.60350 116.76358
#
# Poissons Ratio (x) = 0.13492 0.14870
# Poissons Ratio (y) = 0.09877 0.36401
# Poissons Ratio (z) = 0.08820 0.29492
#
# Static dielectric constant tensor:
#      x y z
#    x 2.169610 0.000000 0.000000 
#    y 0.000000 2.153910 0.000000 
#    z 0.000000 0.000000 2.083620 
# 
# From -- ./inp_files/4213.got.cif
#   From: 2010.05.17/outbox.cif.g08.bks.cpg/sg56_3_cif.got.tgz:4213.got - 2010.06.03 13:42:01.
