data_PCOD9432352
_publ_section_title
;
Structure prediction by ZEFSAII (Michael W. Deem and Ramdas Pophale) SiO2 
 PCOD9432352
Probable space group: P C C N
;
_chemical_formula_sum "Si O2"
_cell_formula_units_Z 48
_cell_length_a 8.958901
_cell_length_b 15.632972
_cell_length_c 16.386683
_cell_angle_alpha 90.000000
_cell_angle_beta 90.000000
_cell_angle_gamma 90.000000
_cell_volume 2295.024573
_symmetry_space_group_name_H-M "P C C N"
_symmetry_group_IT_number 56
_symmetry_cell_setting 'orthorhombic'
loop_
_space_group_symop_operation_xyz
x,y,z
1/2-x,1/2-y,z
1/2+x,-y,1/2-z
-x,1/2+y,1/2-z
-x,-y,-z
1/2+x,1/2+y,-z
1/2-x,y,1/2+z
x,1/2-y,1/2+z
loop_
_atom_site_type_symbol
_atom_site_label
_atom_site_fract_x
_atom_site_fract_y
_atom_site_fract_z
Si Si1 0.855385 0.832720 0.146528
Si Si2 0.460283 0.594737 0.295206
Si Si3 0.912068 0.212250 0.375691
Si Si4 0.887622 0.488802 0.574981
Si Si5 0.840960 0.160304 0.543557
Si Si6 0.393169 0.573560 0.749909
O O1 0.750000 0.750000 0.153169
O O2 0.811928 0.921424 0.103749
O O3 0.934309 0.856427 0.231410
O O4 0.992097 0.793222 0.096731
O O5 0.444753 0.648287 0.377903
O O6 0.544304 0.504207 0.304580
O O7 0.288780 0.580347 0.260928
O O8 0.750000 0.250000 0.359815
O O9 0.914925 0.154123 0.455266
O O10 0.950833 0.159079 0.294527
O O11 0.769076 0.419281 0.548783
O O12 0.954428 0.449379 0.659631
O O13 0.000000 0.500000 0.500000
O O14 0.750000 0.250000 0.548645
#
# Coordination Sequence:
#
# PCOD9432352 Si02
#       6
#     8   8   8   8   8   8
#     4  11  25  44  65  96 143 179 221 282 356 407
#     4  10  23  43  63  99 132 175 226 281 340 413
#     4  11  22  42  69  94 128 180 224 279 342 405
#     4  10  22  43  66  97 137 178 221 284 346 407
#     4  10  23  40  67  99 130 173 236 283 341 407
#     4  10  23  38  68  95 129 175 228 271 341 409
#
# _framework density 20.914809000000002
#
# number of rings (size 3 to 8) (size 9 to 14) (size 15 to 20)
#    0.000    1.667    1.667    2.000   14.000    0.667 
#    0.000    0.833    0.000    0.000    0.000    0.000 
#    0.000    0.000    0.000    0.000    0.000    0.000 
#
# Total GULP energy -267395.841745 kJ/mol
# GULP energy per Si atom -5570.746703 kJ/mol
# Density = 2.086721 g / cm^3
# Si number density = 20.914809 Si / 1000 Ang^3
#
#
#
# Elastic Constant Matrix: (Units=GPa)
#
#
# Indices 1 2 3 4 5 6 
#
# 1 30.0405 24.3127 -5.0608 0.0000 0.0000 0.0000
# 2 24.3127 121.1862 34.7839 0.0000 0.0000 0.0000
# 3 -5.0608 34.7839 89.7615 0.0000 0.0000 0.0000
# 4 0.0000 0.0000 0.0000 41.3618 0.0000 0.0000
# 5 0.0000 0.0000 0.0000 0.0000 66.1571 0.0000
# 6 0.0000 0.0000 0.0000 0.0000 0.0000 42.6954
#
#
#
# Elastic Compliance Matrix: (Units=1/GPa)
#
#
# Indices 1 2 3 4 5 6 
#
# 1 0.042834 -0.010449 0.006464 0.000000 0.000000 0.000000
# 2 -0.010449 0.011833 -0.005175 0.000000 0.000000 0.000000
# 3 0.006464 -0.005175 0.013510 0.000000 0.000000 0.000000
# 4 0.000000 0.000000 0.000000 0.024177 0.000000 0.000000
# 5 0.000000 0.000000 0.000000 0.000000 0.015116 0.000000
# 6 0.000000 0.000000 0.000000 0.000000 0.000000 0.023422
#
#
# Mechanical properties :
#
#
# Convention : Reuss Voigt Hill
#
# Bulk Modulus (GPa) = 20.05667 38.78443 29.42055
# Shear Modulus (GPa) = 30.15130 42.50636 36.32883
#
# Velocity S-wave (km/s) = 3.80099 4.51306 4.17224
# Velocity P-wave (km/s) = 5.37344 6.76322 6.10799
#
# Compressibility (1/GPa) = 0.04985873
#
# Stress axis : x y z
#
# Youngs Moduli (GPa) = 23.34595 84.50708 74.01730
#
# Poissons Ratio (x) = 0.88300 -0.47845
# Poissons Ratio (y) = 0.24394 0.38302
# Poissons Ratio (z) = -0.15091 0.43730
#
# Static dielectric constant tensor:
#      x y z
#    x 1.825520 0.000000 0.000000 
#    y 0.000000 1.723790 0.000000 
#    z 0.000000 0.000000 1.823420 
# 
# From -- ./inp_files/14812.got.cif
#   From: 2010.05.17/outbox.cif.g08.bks.cpg/sg56_8_cif.got.tgz:14812.got - 2010.06.03 13:42:01.
