data_PCOD9432784
_publ_section_title
;
Structure prediction by ZEFSAII (Michael W. Deem and Ramdas Pophale) SiO2 
 PCOD9432784
Probable space group: P C C N
;
_chemical_formula_sum "Si O2"
_cell_formula_units_Z 36
_cell_length_a 7.259572
_cell_length_b 9.573822
_cell_length_c 21.384576
_cell_angle_alpha 90.000000
_cell_angle_beta 90.000000
_cell_angle_gamma 90.000000
_cell_volume 1486.267596
_symmetry_space_group_name_H-M "P C C N"
_symmetry_group_IT_number 56
_symmetry_cell_setting 'orthorhombic'
loop_
_space_group_symop_operation_xyz
x,y,z
1/2-x,1/2-y,z
1/2+x,-y,1/2-z
-x,1/2+y,1/2-z
-x,-y,-z
1/2+x,1/2+y,-z
1/2-x,y,1/2+z
x,1/2-y,1/2+z
loop_
_atom_site_type_symbol
_atom_site_label
_atom_site_fract_x
_atom_site_fract_y
_atom_site_fract_z
Si Si1 0.750000 0.250000 0.786017
Si Si2 0.383624 0.540939 0.608497
Si Si3 0.529441 0.450596 0.087115
Si Si4 0.970434 0.777609 0.319496
Si Si5 0.444054 0.220748 0.474526
O O1 0.837349 0.366862 0.830536
O O2 0.584641 0.306918 0.742841
O O3 0.187429 0.486498 0.585596
O O4 0.492601 0.404961 0.631523
O O5 0.470044 0.643852 0.557312
O O6 0.556506 0.361202 0.149052
O O7 0.609780 0.604689 0.078082
O O8 0.568082 0.354960 0.026622
O O9 0.750000 0.750000 0.309895
O O10 0.250000 0.250000 0.506734
#
# Coordination Sequence:
#
# PCOD9432784 Si02
#       5
#     4   8   8   8   8
#     4  12  26  44  70 100 138 186 236 288 342 408
#     4  11  24  46  65  99 140 179 228 292 344 415
#     4  10  23  47  65 102 140 176 226 286 351 413
#     4  10  26  45  71  97 140 183 234 287 343 414
#     4  11  23  40  74 100 136 175 226 285 352 416
#
# _framework density 24.221748000000002
#
# number of rings (size 3 to 8) (size 9 to 14) (size 15 to 20)
#    0.000    1.333    2.222    2.000    9.333    4.444 
#    4.000    0.000    0.000    0.000    0.000    0.000 
#    0.000    0.000    0.000    0.000    0.000    0.000 
#
# Total GULP energy -201365.797443 kJ/mol
# GULP energy per Si atom -5593.494373 kJ/mol
# Density = 2.416662 g / cm^3
# Si number density = 24.221748 Si / 1000 Ang^3
#
#
#
# Elastic Constant Matrix: (Units=GPa)
#
#
# Indices 1 2 3 4 5 6 
#
# 1 57.4544 10.9741 9.7579 0.0000 0.0000 0.0000
# 2 10.9741 92.3234 1.0647 0.0000 0.0000 0.0000
# 3 9.7579 1.0647 56.2513 0.0000 0.0000 0.0000
# 4 0.0000 0.0000 0.0000 37.9841 0.0000 0.0000
# 5 0.0000 0.0000 0.0000 0.0000 35.9168 0.0000
# 6 0.0000 0.0000 0.0000 0.0000 0.0000 22.2151
#
#
#
# Elastic Compliance Matrix: (Units=1/GPa)
#
#
# Indices 1 2 3 4 5 6 
#
# 1 0.018348 -0.002145 -0.003142 0.000000 0.000000 0.000000
# 2 -0.002145 0.011085 0.000162 0.000000 0.000000 0.000000
# 3 -0.003142 0.000162 0.018319 0.000000 0.000000 0.000000
# 4 0.000000 0.000000 0.000000 0.026327 0.000000 0.000000
# 5 0.000000 0.000000 0.000000 0.000000 0.027842 0.000000
# 6 0.000000 0.000000 0.000000 0.000000 0.000000 0.045014
#
#
# Mechanical properties :
#
#
# Convention : Reuss Voigt Hill
#
# Bulk Modulus (GPa) = 26.66474 27.73586 27.20030
# Shear Modulus (GPa) = 29.46614 31.50537 30.48575
#
# Velocity S-wave (km/s) = 3.49164 3.61044 3.55154
# Velocity P-wave (km/s) = 5.22378 5.37178 5.29830
#
# Compressibility (1/GPa) = 0.03750271
#
# Stress axis : x y z
#
# Youngs Moduli (GPa) = 54.50053 90.21563 54.58699
#
# Poissons Ratio (x) = 0.19349 0.17153
# Poissons Ratio (y) = 0.11689 -0.00886
# Poissons Ratio (z) = 0.17126 -0.01464
#
# Static dielectric constant tensor:
#      x y z
#    x 1.989100 0.000000 0.000000 
#    y 0.000000 1.631230 0.000000 
#    z 0.000000 0.000000 1.931200 
# 
# From -- ./inp_files/17853.got.cif
#   From: 2010.05.17/outbox.cif.g08.bks.cpg/sg56_9_cif.got.tgz:17853.got - 2010.06.03 13:42:01.
