data_PCOD9432695
_publ_section_title
;
Structure prediction by ZEFSAII (Michael W. Deem and Ramdas Pophale) SiO2 
 PCOD9432695
Probable space group: P C C N
;
_chemical_formula_sum "Si O2"
_cell_formula_units_Z 60
_cell_length_a 8.298659
_cell_length_b 12.329403
_cell_length_c 28.808057
_cell_angle_alpha 90.000000
_cell_angle_beta 90.000000
_cell_angle_gamma 90.000000
_cell_volume 2947.568694
_symmetry_space_group_name_H-M "P C C N"
_symmetry_group_IT_number 56
_symmetry_cell_setting 'orthorhombic'
loop_
_space_group_symop_operation_xyz
x,y,z
1/2-x,1/2-y,z
1/2+x,-y,1/2-z
-x,1/2+y,1/2-z
-x,-y,-z
1/2+x,1/2+y,-z
1/2-x,y,1/2+z
x,1/2-y,1/2+z
loop_
_atom_site_type_symbol
_atom_site_label
_atom_site_fract_x
_atom_site_fract_y
_atom_site_fract_z
Si Si1 0.250000 0.750000 0.932846
Si Si2 0.927475 0.199739 0.339751
Si Si3 0.342306 0.353579 0.419346
Si Si4 0.249197 0.380154 0.109334
Si Si5 0.049951 0.080589 0.797229
Si Si6 0.386214 0.959448 0.387407
Si Si7 0.812274 0.506657 0.796015
Si Si8 0.534941 0.879404 0.982003
O O1 0.180866 0.842576 0.899790
O O2 0.385297 0.807901 0.964290
O O3 0.750000 0.250000 0.350560
O O4 0.004243 0.142803 0.385151
O O5 0.027634 0.300533 0.319266
O O6 0.909740 0.105672 0.301517
O O7 0.250000 0.250000 0.400525
O O8 0.219682 0.454985 0.417221
O O9 0.392310 0.327409 0.471776
O O10 0.250000 0.250000 0.116516
O O11 0.421729 0.442454 0.104295
O O12 0.170506 0.430444 0.155387
O O13 0.152109 0.392918 0.061734
O O14 0.135675 0.076016 0.747987
O O15 0.135161 0.003865 0.835314
O O16 0.872376 0.030196 0.790967
O O17 0.500000 0.000000 0.000000
#
# Coordination Sequence:
#
# PCOD9432695 Si02
#       8
#     4   8   8   8   8   8   8   8
#     4  12  26  46  70 104 142 180 240 296 350 424
#     4  10  23  45  66  99 140 181 232 292 352 423
#     4  12  25  42  70 100 134 184 227 290 346 412
#     4  11  24  47  69 100 146 184 232 295 356 424
#     4  10  23  44  66 102 136 179 232 281 355 424
#     4  11  25  46  67 102 141 181 233 291 351 418
#     4  10  24  41  70  98 135 182 228 288 350 418
#     4  12  26  44  69 105 136 185 237 282 357 419
#
# _framework density 20.35576
#
# number of rings (size 3 to 8) (size 9 to 14) (size 15 to 20)
#    0.000    1.067    4.000    1.200    2.800    3.733 
#    3.600    0.000    0.000    0.000    0.000    0.000 
#    0.000    0.000    0.000    0.000    0.000    0.000 
#
# Total GULP energy -334923.794395 kJ/mol
# GULP energy per Si atom -5582.063240 kJ/mol
# Density = 2.030943 g / cm^3
# Si number density = 20.355760 Si / 1000 Ang^3
#
#
#
# Elastic Constant Matrix: (Units=GPa)
#
#
# Indices 1 2 3 4 5 6 
#
# 1 74.7535 46.3177 70.2645 0.0000 0.0000 0.0000
# 2 46.3177 132.1452 49.6196 0.0000 0.0000 0.0000
# 3 70.2645 49.6196 155.8110 0.0000 0.0000 0.0000
# 4 0.0000 0.0000 0.0000 27.1840 0.0000 0.0000
# 5 0.0000 0.0000 0.0000 0.0000 27.9240 0.0000
# 6 0.0000 0.0000 0.0000 0.0000 0.0000 28.3397
#
#
#
# Elastic Compliance Matrix: (Units=1/GPa)
#
#
# Indices 1 2 3 4 5 6 
#
# 1 0.026219 -0.005395 -0.010105 0.000000 0.000000 0.000000
# 2 -0.005395 0.009706 -0.000658 0.000000 0.000000 0.000000
# 3 -0.010105 -0.000658 0.011185 0.000000 0.000000 0.000000
# 4 0.000000 0.000000 0.000000 0.036786 0.000000 0.000000
# 5 0.000000 0.000000 0.000000 0.000000 0.035811 0.000000
# 6 0.000000 0.000000 0.000000 0.000000 0.000000 0.035286
#
#
# Mechanical properties :
#
#
# Convention : Reuss Voigt Hill
#
# Bulk Modulus (GPa) = 67.60426 77.23482 72.41954
# Shear Modulus (GPa) = 26.00904 29.79008 27.89956
#
# Velocity S-wave (km/s) = 3.57840 3.82969 3.70618
# Velocity P-wave (km/s) = 7.09625 7.58816 7.34632
#
# Compressibility (1/GPa) = 0.01479197
#
# Stress axis : x y z
#
# Youngs Moduli (GPa) = 38.14038 103.03424 89.40814
#
# Poissons Ratio (x) = 0.55591 0.90351
# Poissons Ratio (y) = 0.20578 0.05881
# Poissons Ratio (z) = 0.38543 0.06777
#
# Static dielectric constant tensor:
#      x y z
#    x 1.781210 0.000000 0.000000 
#    y 0.000000 1.766780 0.000000 
#    z 0.000000 0.000000 1.707410 
# 
# From -- ./inp_files/22122.got.cif
#   From: 2010.05.17/outbox.cif.g08.bks.cpg/sg56_12_cif.got.tgz:22122.got - 2010.06.03 13:42:01.
