data_PCOD9432077
_publ_section_title
;
Structure prediction by ZEFSAII (Michael W. Deem and Ramdas Pophale) SiO2 
 PCOD9432077
Probable space group: P C C N
;
_chemical_formula_sum "Si O2"
_cell_formula_units_Z 52
_cell_length_a 22.171926
_cell_length_b 5.524869
_cell_length_c 20.410133
_cell_angle_alpha 90.000000
_cell_angle_beta 90.000000
_cell_angle_gamma 90.000000
_cell_volume 2500.179789
_symmetry_space_group_name_H-M "P C C N"
_symmetry_group_IT_number 56
_symmetry_cell_setting 'orthorhombic'
loop_
_space_group_symop_operation_xyz
x,y,z
1/2-x,1/2-y,z
1/2+x,-y,1/2-z
-x,1/2+y,1/2-z
-x,-y,-z
1/2+x,1/2+y,-z
1/2-x,y,1/2+z
x,1/2-y,1/2+z
loop_
_atom_site_type_symbol
_atom_site_label
_atom_site_fract_x
_atom_site_fract_y
_atom_site_fract_z
Si Si1 0.076295 0.971264 0.570474
Si Si2 0.250000 0.750000 0.413989
Si Si3 0.311563 0.363640 0.508183
Si Si4 0.027952 0.804569 0.949336
Si Si5 0.859882 0.943857 0.110960
Si Si6 0.562028 0.271266 0.801716
Si Si7 0.080050 0.233911 0.767170
O O1 0.143290 0.068900 0.565386
O O2 0.026072 0.170532 0.588182
O O3 0.060401 0.887971 0.496906
O O4 0.071333 0.753675 0.620826
O O5 0.290232 0.582979 0.461775
O O6 0.200778 0.594944 0.374493
O O7 0.250000 0.250000 0.533594
O O8 0.345176 0.181827 0.458391
O O9 0.078911 0.905282 0.901425
O O10 0.000000 0.000000 0.000000
O O11 0.877096 0.764828 0.169300
O O12 0.490232 0.267018 0.788692
O O13 0.588129 0.520028 0.773552
O O14 0.588499 0.023164 0.770092
#
# Coordination Sequence:
#
# PCOD9432077 Si02
#       7
#     8   4   8   8   8   8   8
#     4  11  23  37  62  97 138 169 219 267 348 414
#     4  10  22  40  62  94 124 178 216 286 340 392
#     4  10  22  40  61  97 126 173 218 277 340 399
#     4  11  22  34  61 101 133 171 205 279 343 414
#     4  11  22  38  67  93 135 171 229 278 344 399
#     4  10  24  40  62  94 136 180 214 269 339 401
#     4  10  24  41  62  93 133 178 222 269 327 410
#
# _framework density 20.798504000000001
#
# number of rings (size 3 to 8) (size 9 to 14) (size 15 to 20)
#    0.000    1.538    3.077    0.923   12.923    0.000 
#    0.000    0.000    0.000    3.692    0.000    0.000 
#    0.000    0.000    0.000    0.000    0.000    0.000 
#
# Total GULP energy -290610.607664 kJ/mol
# GULP energy per Si atom -5588.665532 kJ/mol
# Density = 2.075117 g / cm^3
# Si number density = 20.798504 Si / 1000 Ang^3
#
#
#
# Elastic Constant Matrix: (Units=GPa)
#
#
# Indices 1 2 3 4 5 6 
#
# 1 106.9648 52.2967 35.2546 0.0000 0.0000 0.0000
# 2 52.2967 102.9099 30.6433 0.0000 0.0000 0.0000
# 3 35.2546 30.6433 62.9262 0.0000 0.0000 0.0000
# 4 0.0000 0.0000 0.0000 38.9497 0.0000 0.0000
# 5 0.0000 0.0000 0.0000 0.0000 7.7617 0.0000
# 6 0.0000 0.0000 0.0000 0.0000 0.0000 23.6447
#
#
#
# Elastic Compliance Matrix: (Units=1/GPa)
#
#
# Indices 1 2 3 4 5 6 
#
# 1 0.013663 -0.005455 -0.004998 0.000000 0.000000 0.000000
# 2 -0.005455 0.013543 -0.003539 0.000000 0.000000 0.000000
# 3 -0.004998 -0.003539 0.020415 0.000000 0.000000 0.000000
# 4 0.000000 0.000000 0.000000 0.025674 0.000000 0.000000
# 5 0.000000 0.000000 0.000000 0.000000 0.128838 0.000000
# 6 0.000000 0.000000 0.000000 0.000000 0.000000 0.042293
#
#
# Mechanical properties :
#
#
# Convention : Reuss Voigt Hill
#
# Bulk Modulus (GPa) = 50.92429 56.57669 53.75049
# Shear Modulus (GPa) = 17.92385 24.37829 21.15107
#
# Velocity S-wave (km/s) = 2.93880 3.42733 3.19243
# Velocity P-wave (km/s) = 6.00443 6.55160 6.28397
#
# Compressibility (1/GPa) = 0.01963699
#
# Stress axis : x y z
#
# Youngs Moduli (GPa) = 73.18837 73.83799 48.98259
#
# Poissons Ratio (x) = 0.40279 0.24484
# Poissons Ratio (y) = 0.39925 0.17335
# Poissons Ratio (z) = 0.36583 0.26131
#
# Static dielectric constant tensor:
#      x y z
#    x 1.755620 0.000000 0.000000 
#    y 0.000000 2.292660 0.000000 
#    z 0.000000 0.000000 1.732720 
# 
# From -- ./inp_files/14046.got.cif
#   From: 2010.05.17/outbox.cif.g08.bks.cpg/sg56_8_cif.got.tgz:14046.got - 2010.06.03 13:42:01.
