data_PCOD9432442
_publ_section_title
;
Structure prediction by ZEFSAII (Michael W. Deem and Ramdas Pophale) SiO2 
 PCOD9432442
Probable space group: P C C N
;
_chemical_formula_sum "Si O2"
_cell_formula_units_Z 48
_cell_length_a 5.983456
_cell_length_b 13.537041
_cell_length_c 25.463203
_cell_angle_alpha 90.000000
_cell_angle_beta 90.000000
_cell_angle_gamma 90.000000
_cell_volume 2062.475880
_symmetry_space_group_name_H-M "P C C N"
_symmetry_group_IT_number 56
_symmetry_cell_setting 'orthorhombic'
loop_
_space_group_symop_operation_xyz
x,y,z
1/2-x,1/2-y,z
1/2+x,-y,1/2-z
-x,1/2+y,1/2-z
-x,-y,-z
1/2+x,1/2+y,-z
1/2-x,y,1/2+z
x,1/2-y,1/2+z
loop_
_atom_site_type_symbol
_atom_site_label
_atom_site_fract_x
_atom_site_fract_y
_atom_site_fract_z
Si Si1 0.249254 0.069497 0.886707
Si Si2 0.750000 0.250000 0.155432
Si Si3 0.591705 0.615666 0.389103
Si Si4 0.251305 0.054981 0.501782
Si Si5 0.867716 0.996815 0.816794
Si Si6 0.250000 0.250000 0.306496
Si Si7 0.893071 0.135976 0.253144
O O1 0.271031 0.155406 0.843977
O O2 0.024637 0.017973 0.866290
O O3 0.434333 0.983039 0.887748
O O4 0.241888 0.110242 0.945815
O O5 0.949026 0.286086 0.118542
O O6 0.790380 0.161211 0.196507
O O7 0.728434 0.612238 0.443309
O O8 0.730644 0.597356 0.336413
O O9 0.500000 0.000000 0.500000
O O10 0.000000 0.000000 0.500000
O O11 0.749492 0.099224 0.802209
O O12 0.968813 0.962530 0.761416
O O13 0.461391 0.269144 0.269006
#
# Coordination Sequence:
#
# PCOD9432442 Si02
#       7
#     8   4   8   8   8   4   8
#     4  11  23  45  68 100 135 185 237 300 372 441
#     4  12  24  42  66 108 140 190 246 308 370 444
#     4  11  23  45  71 101 142 186 244 308 375 443
#     4  10  22  44  76 103 136 187 240 303 382 446
#     4  12  22  43  69  93 144 194 241 293 374 448
#     4  12  24  42  64 102 140 186 246 304 362 444
#     4  12  24  40  65 102 145 193 244 298 365 445
#
# _framework density 23.273001000000001
#
# number of rings (size 3 to 8) (size 9 to 14) (size 15 to 20)
#    0.000    0.667    5.000    4.000    0.000    0.000 
#    0.000    5.000    0.000    0.000    0.000    0.000 
#    0.000    0.000    0.000    0.000    0.000    0.000 
#
# Total GULP energy -267421.795309 kJ/mol
# GULP energy per Si atom -5571.287402 kJ/mol
# Density = 2.322003 g / cm^3
# Si number density = 23.273001 Si / 1000 Ang^3
#
#
#
# Elastic Constant Matrix: (Units=GPa)
#
#
# Indices 1 2 3 4 5 6 
#
# 1 82.9500 18.9112 42.5285 0.0000 0.0000 0.0000
# 2 18.9112 54.7890 21.7264 0.0000 0.0000 0.0000
# 3 42.5285 21.7264 153.9884 0.0000 0.0000 0.0000
# 4 0.0000 0.0000 0.0000 25.1438 0.0000 0.0000
# 5 0.0000 0.0000 0.0000 0.0000 46.8319 0.0000
# 6 0.0000 0.0000 0.0000 0.0000 0.0000 48.9599
#
#
#
# Elastic Compliance Matrix: (Units=1/GPa)
#
#
# Indices 1 2 3 4 5 6 
#
# 1 0.014710 -0.003672 -0.003545 0.000000 0.000000 0.000000
# 2 -0.003672 0.020250 -0.001843 0.000000 0.000000 0.000000
# 3 -0.003545 -0.001843 0.007733 0.000000 0.000000 0.000000
# 4 0.000000 0.000000 0.000000 0.039771 0.000000 0.000000
# 5 0.000000 0.000000 0.000000 0.000000 0.021353 0.000000
# 6 0.000000 0.000000 0.000000 0.000000 0.000000 0.020425
#
#
# Mechanical properties :
#
#
# Convention : Reuss Voigt Hill
#
# Bulk Modulus (GPa) = 40.69299 50.89550 45.79424
# Shear Modulus (GPa) = 33.21113 38.09119 35.65116
#
# Velocity S-wave (km/s) = 3.78170 4.05002 3.91815
# Velocity P-wave (km/s) = 6.04908 6.61714 6.33948
#
# Compressibility (1/GPa) = 0.02457426
#
# Stress axis : x y z
#
# Youngs Moduli (GPa) = 67.98176 49.38261 129.31667
#
# Poissons Ratio (x) = 0.18132 0.45836
# Poissons Ratio (y) = 0.24961 0.23834
# Poissons Ratio (z) = 0.24096 0.09101
#
# Static dielectric constant tensor:
#      x y z
#    x 2.251260 0.000000 0.000000 
#    y 0.000000 1.890210 0.000000 
#    z 0.000000 0.000000 1.820680 
# 
# From -- ./inp_files/21690.got.cif
#   From: 2010.05.17/outbox.cif.g08.bks.cpg/sg56_11_cif.got.tgz:21690.got - 2010.06.03 13:42:01.
