data_PCOD9432189
_publ_section_title
;
Structure prediction by ZEFSAII (Michael W. Deem and Ramdas Pophale) SiO2 
 PCOD9432189
Probable space group: P C C N
;
_chemical_formula_sum "Si O2"
_cell_formula_units_Z 48
_cell_length_a 10.661368
_cell_length_b 21.484321
_cell_length_c 9.001363
_cell_angle_alpha 90.000000
_cell_angle_beta 90.000000
_cell_angle_gamma 90.000000
_cell_volume 2061.782470
_symmetry_space_group_name_H-M "P C C N"
_symmetry_group_IT_number 56
_symmetry_cell_setting 'orthorhombic'
loop_
_space_group_symop_operation_xyz
x,y,z
1/2-x,1/2-y,z
1/2+x,-y,1/2-z
-x,1/2+y,1/2-z
-x,-y,-z
1/2+x,1/2+y,-z
1/2-x,y,1/2+z
x,1/2-y,1/2+z
loop_
_atom_site_type_symbol
_atom_site_label
_atom_site_fract_x
_atom_site_fract_y
_atom_site_fract_z
Si Si1 0.679516 0.965280 0.376836
Si Si2 0.600042 0.367953 0.693142
Si Si3 0.750000 0.750000 0.600302
Si Si4 0.908898 0.018442 0.197494
Si Si5 0.674638 0.374537 0.016381
Si Si6 0.250000 0.750000 0.876251
Si Si7 0.326166 0.341265 0.645837
O O1 0.714978 0.891708 0.367584
O O2 0.807028 0.998460 0.319286
O O3 0.636648 0.982157 0.545741
O O4 0.817383 0.107765 0.556487
O O5 0.558495 0.515051 0.777154
O O6 0.631305 0.393423 0.855272
O O7 0.651300 0.296053 0.702637
O O8 0.456814 0.376188 0.657850
O O9 0.817619 0.701440 0.708215
O O10 0.670051 0.706344 0.491481
O O11 0.896731 0.090622 0.147350
O O12 0.669556 0.300416 0.033938
#
# Coordination Sequence:
#
# PCOD9432189 Si02
#       7
#     8   8   4   8   8   4   8
#     4  11  27  48  74 106 142 194 237 313 355 443
#     4  10  23  39  69  97 150 178 243 283 368 418
#     4  10  26  44  70 106 138 190 232 290 368 438
#     4  11  26  47  76 101 146 187 249 296 373 422
#     4  10  22  41  66 104 134 191 229 300 348 433
#     4   8  22  36  62 104 136 182 232 286 354 414
#     4  11  25  46  71 106 144 190 240 299 362 434
#
# _framework density 23.280826999999999
#
# number of rings (size 3 to 8) (size 9 to 14) (size 15 to 20)
#    1.000    0.667    0.000    2.500   11.667    2.000 
#    9.000    0.000    0.000    0.000    0.000    0.000 
#    0.000    0.000    0.000    0.000    0.000    0.000 
#
# Total GULP energy -267662.206481 kJ/mol
# GULP energy per Si atom -5576.295968 kJ/mol
# Density = 2.322784 g / cm^3
# Si number density = 23.280827 Si / 1000 Ang^3
#
#
#
# Elastic Constant Matrix: (Units=GPa)
#
#
# Indices 1 2 3 4 5 6 
#
# 1 122.5514 25.0780 8.6200 0.0000 0.0000 0.0000
# 2 25.0780 121.3115 15.7250 0.0000 0.0000 0.0000
# 3 8.6200 15.7250 61.1858 0.0000 0.0000 0.0000
# 4 0.0000 0.0000 0.0000 29.1820 0.0000 0.0000
# 5 0.0000 0.0000 0.0000 0.0000 -3.6044 0.0000
# 6 0.0000 0.0000 0.0000 0.0000 0.0000 33.3095
#
#
#
# Elastic Compliance Matrix: (Units=1/GPa)
#
#
# Indices 1 2 3 4 5 6 
#
# 1 0.008556 -0.001668 -0.000777 0.000000 0.000000 0.000000
# 2 -0.001668 0.008853 -0.002040 0.000000 0.000000 0.000000
# 3 -0.000777 -0.002040 0.016977 0.000000 0.000000 0.000000
# 4 0.000000 0.000000 0.000000 0.034268 0.000000 0.000000
# 5 0.000000 0.000000 0.000000 0.000000 -0.277436 0.000000
# 6 0.000000 0.000000 0.000000 0.000000 0.000000 0.030021
#
#
# Mechanical properties :
#
#
# Convention : Reuss Voigt Hill
#
# Bulk Modulus (GPa) = 39.34520 44.87719 42.11119
# Shear Modulus (GPa) = -30.99448 28.81913 -1.08768
#
# Velocity S-wave (km/s) = -3.65270 3.52218 -0.68426
# Velocity P-wave (km/s) = 0.92340 5.98827 4.18370
#
# Compressibility (1/GPa) = 0.02541606
#
# Stress axis : x y z
#
# Youngs Moduli (GPa) = 116.87974 112.96225 58.90183
#
# Poissons Ratio (x) = 0.18842 0.04575
# Poissons Ratio (y) = 0.19496 0.12017
# Poissons Ratio (z) = 0.09078 0.23046
#
# Static dielectric constant tensor:
#      x y z
#    x 1.888170 0.000000 0.000000 
#    y 0.000000 1.913250 0.000000 
#    z 0.000000 0.000000 1.859490 
# 
# From -- ./inp_files/7244.got.cif
#   From: 2010.05.17/outbox.cif.g08.bks.cpg/sg56_4_cif.got.tgz:7244.got - 2010.06.03 13:42:01.
