data_PCOD9432742
_publ_section_title
;
Structure prediction by ZEFSAII (Michael W. Deem and Ramdas Pophale) SiO2 
 PCOD9432742
Probable space group: P C C N
;
_chemical_formula_sum "Si O2"
_cell_formula_units_Z 40
_cell_length_a 12.030108
_cell_length_b 9.347495
_cell_length_c 12.471457
_cell_angle_alpha 90.000000
_cell_angle_beta 90.000000
_cell_angle_gamma 90.000000
_cell_volume 1402.432480
_symmetry_space_group_name_H-M "P C C N"
_symmetry_group_IT_number 56
_symmetry_cell_setting 'orthorhombic'
loop_
_space_group_symop_operation_xyz
x,y,z
1/2-x,1/2-y,z
1/2+x,-y,1/2-z
-x,1/2+y,1/2-z
-x,-y,-z
1/2+x,1/2+y,-z
1/2-x,y,1/2+z
x,1/2-y,1/2+z
loop_
_atom_site_type_symbol
_atom_site_label
_atom_site_fract_x
_atom_site_fract_y
_atom_site_fract_z
Si Si1 0.545324 0.642266 0.255005
Si Si2 0.254322 0.053263 0.133107
Si Si3 0.141751 0.503257 0.857745
Si Si4 0.869557 0.448820 0.558069
Si Si5 0.453696 0.820780 0.079790
O O1 0.660460 0.666489 0.314845
O O2 0.467168 0.595797 0.350973
O O3 0.570209 0.530215 0.156893
O O4 0.475699 0.764884 0.199850
O O5 0.344301 0.924104 0.098970
O O6 0.174293 0.024717 0.234697
O O7 0.171429 0.063463 0.032629
O O8 0.249007 0.586230 0.895352
O O9 0.084191 0.379491 0.931611
O O10 0.076527 0.684837 0.504380
#
# Coordination Sequence:
#
# PCOD9432742 Si02
#       5
#     8   8   8   8   8
#     4  10  23  45  72 105 157 197 258 321 374 470
#     4  10  23  45  68 109 151 189 259 312 375 468
#     4  10  24  46  70 111 154 194 260 323 371 474
#     4  11  23  45  72 106 153 198 257 324 372 469
#     4  11  23  45  74 107 145 206 254 303 401 452
#
# _framework density 28.521872999999999
#
# number of rings (size 3 to 8) (size 9 to 14) (size 15 to 20)
#    0.000    1.600    2.000    1.200    0.000    6.400 
#   32.400    2.000    0.000    0.000    0.000    0.000 
#    0.000    0.000    0.000    0.000    0.000    0.000 
#
# Total GULP energy -222751.762734 kJ/mol
# GULP energy per Si atom -5568.794068 kJ/mol
# Density = 2.845696 g / cm^3
# Si number density = 28.521873 Si / 1000 Ang^3
#
#
#
# Elastic Constant Matrix: (Units=GPa)
#
#
# Indices 1 2 3 4 5 6 
#
# 1 182.5654 46.6544 -0.1138 0.0000 0.0000 0.0000
# 2 46.6544 95.1813 40.0511 0.0000 0.0000 0.0000
# 3 -0.1138 40.0511 75.3469 0.0000 0.0000 0.0000
# 4 0.0000 0.0000 0.0000 51.2851 0.0000 0.0000
# 5 0.0000 0.0000 0.0000 0.0000 74.9198 0.0000
# 6 0.0000 0.0000 0.0000 0.0000 0.0000 53.2161
#
#
#
# Elastic Compliance Matrix: (Units=1/GPa)
#
#
# Indices 1 2 3 4 5 6 
#
# 1 0.006535 -0.004131 0.002206 0.000000 0.000000 0.000000
# 2 -0.004131 0.016145 -0.008588 0.000000 0.000000 0.000000
# 3 0.002206 -0.008588 0.017840 0.000000 0.000000 0.000000
# 4 0.000000 0.000000 0.000000 0.019499 0.000000 0.000000
# 5 0.000000 0.000000 0.000000 0.000000 0.013348 0.000000
# 6 0.000000 0.000000 0.000000 0.000000 0.000000 0.018791
#
#
# Mechanical properties :
#
#
# Convention : Reuss Voigt Hill
#
# Bulk Modulus (GPa) = 51.30087 58.47519 54.88803
# Shear Modulus (GPa) = 41.77714 53.65100 47.71407
#
# Velocity S-wave (km/s) = 3.83134 4.34181 4.09454
# Velocity P-wave (km/s) = 6.13171 6.75881 6.45288
#
# Compressibility (1/GPa) = 0.01949285
#
# Stress axis : x y z
#
# Youngs Moduli (GPa) = 153.03177 61.93841 56.05247
#
# Poissons Ratio (x) = 0.25588 -0.12364
# Poissons Ratio (y) = 0.63221 0.48139
# Poissons Ratio (z) = -0.33756 0.53194
#
# Static dielectric constant tensor:
#      x y z
#    x 2.131070 0.000000 0.000000 
#    y 0.000000 2.621390 0.000000 
#    z 0.000000 0.000000 2.251030 
# 
# From -- ./inp_files/11423.got.cif
#   From: 2010.05.17/outbox.cif.g08.bks.cpg/sg56_6_cif.got.tgz:11423.got - 2010.06.03 13:42:01.
