data_PCOD9432698
_publ_section_title
;
Structure prediction by ZEFSAII (Michael W. Deem and Ramdas Pophale) SiO2 
 PCOD9432698
Probable space group: P C C N
;
_chemical_formula_sum "Si O2"
_cell_formula_units_Z 48
_cell_length_a 15.041939
_cell_length_b 5.020456
_cell_length_c 29.863649
_cell_angle_alpha 90.000000
_cell_angle_beta 90.000000
_cell_angle_gamma 90.000000
_cell_volume 2255.224915
_symmetry_space_group_name_H-M "P C C N"
_symmetry_group_IT_number 56
_symmetry_cell_setting 'orthorhombic'
loop_
_space_group_symop_operation_xyz
x,y,z
1/2-x,1/2-y,z
1/2+x,-y,1/2-z
-x,1/2+y,1/2-z
-x,-y,-z
1/2+x,1/2+y,-z
1/2-x,y,1/2+z
x,1/2-y,1/2+z
loop_
_atom_site_type_symbol
_atom_site_label
_atom_site_fract_x
_atom_site_fract_y
_atom_site_fract_z
Si Si1 0.954310 0.709882 0.807785
Si Si2 0.544917 0.249355 0.942478
Si Si3 0.250000 0.750000 0.906122
Si Si4 0.690153 0.498344 0.377156
Si Si5 0.431244 0.210763 0.298498
Si Si6 0.750000 0.750000 0.153914
Si Si7 0.434005 0.748203 0.950506
O O1 0.873786 0.621548 0.839151
O O2 0.928032 0.696007 0.755400
O O3 0.033798 0.498816 0.812935
O O4 0.995749 0.999812 0.815725
O O5 0.628168 0.137187 0.915057
O O6 0.507058 0.540857 0.931673
O O7 0.465051 0.040016 0.935794
O O8 0.565043 0.255876 0.995524
O O9 0.223937 0.499277 0.876261
O O10 0.336354 0.675322 0.934558
O O11 0.750000 0.250000 0.360072
O O12 0.750000 0.750000 0.393277
O O13 0.334256 0.160220 0.317323
#
# Coordination Sequence:
#
# PCOD9432698 Si02
#       7
#     8   8   4   8   8   4   8
#     4  10  23  44  69  92 132 176 216 269 334 386
#     4  10  23  44  69  92 128 174 213 264 332 387
#     4  12  26  40  66 102 130 168 220 272 324 384
#     4  12  26  42  68 103 129 168 221 275 329 389
#     4  10  23  44  66  95 130 178 217 267 329 390
#     4  12  26  40  66 102 130 168 226 268 322 390
#     4  10  23  44  66  94 129 173 213 265 327 387
#
# _framework density 21.283908
#
# number of rings (size 3 to 8) (size 9 to 14) (size 15 to 20)
#    0.000    1.333    0.000    4.000    9.333    0.000 
#    3.000    0.000    0.000    0.000    0.000    0.000 
#    0.000    0.000    0.000    0.000    0.000    0.000 
#
# Total GULP energy -268537.203867 kJ/mol
# GULP energy per Si atom -5594.525081 kJ/mol
# Density = 2.123547 g / cm^3
# Si number density = 21.283908 Si / 1000 Ang^3
#
#
#
# Elastic Constant Matrix: (Units=GPa)
#
#
# Indices 1 2 3 4 5 6 
#
# 1 108.8343 4.0290 40.5542 0.0000 0.0000 0.0000
# 2 4.0290 84.8532 11.5145 0.0000 0.0000 0.0000
# 3 40.5542 11.5145 55.3735 0.0000 0.0000 0.0000
# 4 0.0000 0.0000 0.0000 26.5994 0.0000 0.0000
# 5 0.0000 0.0000 0.0000 0.0000 29.6277 0.0000
# 6 0.0000 0.0000 0.0000 0.0000 0.0000 36.0651
#
#
#
# Elastic Compliance Matrix: (Units=1/GPa)
#
#
# Indices 1 2 3 4 5 6 
#
# 1 0.012675 0.000677 -0.009423 0.000000 0.000000 0.000000
# 2 0.000677 0.012163 -0.003025 0.000000 0.000000 0.000000
# 3 -0.009423 -0.003025 0.025590 0.000000 0.000000 0.000000
# 4 0.000000 0.000000 0.000000 0.037595 0.000000 0.000000
# 5 0.000000 0.000000 0.000000 0.000000 0.033752 0.000000
# 6 0.000000 0.000000 0.000000 0.000000 0.000000 0.027728
#
#
# Mechanical properties :
#
#
# Convention : Reuss Voigt Hill
#
# Bulk Modulus (GPa) = 37.19587 40.13963 38.66775
# Shear Modulus (GPa) = 27.47150 31.32265 29.39708
#
# Velocity S-wave (km/s) = 3.59655 3.84038 3.72047
# Velocity P-wave (km/s) = 5.89584 6.21006 6.05499
#
# Compressibility (1/GPa) = 0.02688471
#
# Stress axis : x y z
#
# Youngs Moduli (GPa) = 78.89814 82.21376 39.07831
#
# Poissons Ratio (x) = -0.05565 0.36825
# Poissons Ratio (y) = -0.05341 0.11821
# Poissons Ratio (z) = 0.74348 0.24870
#
# Static dielectric constant tensor:
#      x y z
#    x 1.733800 0.000000 0.000000 
#    y 0.000000 1.743860 0.000000 
#    z 0.000000 0.000000 1.762490 
# 
# From -- ./inp_files/23583.got.cif
#   From: 2010.05.17/outbox.cif.g08.bks.cpg/sg56_12_cif.got.tgz:23583.got - 2010.06.03 13:42:01.
