data_PCOD9432626
_publ_section_title
;
Structure prediction by ZEFSAII (Michael W. Deem and Ramdas Pophale) SiO2 
 PCOD9432626
Probable space group: P C C N
;
_chemical_formula_sum "Si O2"
_cell_formula_units_Z 48
_cell_length_a 16.444205
_cell_length_b 9.461979
_cell_length_c 16.293223
_cell_angle_alpha 90.000000
_cell_angle_beta 90.000000
_cell_angle_gamma 90.000000
_cell_volume 2535.139509
_symmetry_space_group_name_H-M "P C C N"
_symmetry_group_IT_number 56
_symmetry_cell_setting 'orthorhombic'
loop_
_space_group_symop_operation_xyz
x,y,z
1/2-x,1/2-y,z
1/2+x,-y,1/2-z
-x,1/2+y,1/2-z
-x,-y,-z
1/2+x,1/2+y,-z
1/2-x,y,1/2+z
x,1/2-y,1/2+z
loop_
_atom_site_type_symbol
_atom_site_label
_atom_site_fract_x
_atom_site_fract_y
_atom_site_fract_z
Si Si1 0.189465 0.873807 0.389322
Si Si2 0.942073 0.295514 0.505742
Si Si3 0.305102 0.129610 0.418913
Si Si4 0.969733 0.795684 0.162372
Si Si5 0.106215 0.096471 0.069472
Si Si6 0.410043 0.019762 0.744725
O O1 0.250000 0.750000 0.362125
O O2 0.123387 0.807032 0.452342
O O3 0.248604 0.993132 0.426224
O O4 0.144514 0.943461 0.312345
O O5 0.903874 0.445569 0.477459
O O6 0.983961 0.245700 0.420829
O O7 0.016838 0.332143 0.566900
O O8 0.250000 0.250000 0.379211
O O9 0.387898 0.123043 0.366530
O O10 0.334736 0.179208 0.508870
O O11 0.948880 0.658014 0.214457
O O12 0.024590 0.906378 0.211627
O O13 0.134442 0.070415 0.161423
#
# Coordination Sequence:
#
# PCOD9432626 Si02
#       6
#     8   8   8   8   8   8
#     4  12  24  40  66  93 128 165 214 266 317 375
#     4   9  19  39  67  87 118 169 212 245 305 395
#     4  11  22  44  63  89 128 169 209 266 316 373
#     4  10  23  42  67  91 128 170 211 259 317 388
#     4   9  19  40  64  86 122 165 206 253 315 378
#     4  11  23  41  63  97 125 163 213 263 323 371
#
# _framework density 18.933869000000001
#
# number of rings (size 3 to 8) (size 9 to 14) (size 15 to 20)
#    0.000    1.667    3.333    2.000    2.333    0.667 
#   12.000    0.000    0.000    0.000    0.000    0.000 
#    0.000    0.000    0.000    0.000    0.000    0.000 
#
# Total GULP energy -267664.857683 kJ/mol
# GULP energy per Si atom -5576.351202 kJ/mol
# Density = 1.889077 g / cm^3
# Si number density = 18.933869 Si / 1000 Ang^3
#
#
#
# Elastic Constant Matrix: (Units=GPa)
#
#
# Indices 1 2 3 4 5 6 
#
# 1 109.9962 32.5165 50.6476 0.0000 0.0000 0.0000
# 2 32.5165 70.7837 27.7443 0.0000 0.0000 0.0000
# 3 50.6476 27.7443 102.0871 0.0000 0.0000 0.0000
# 4 0.0000 0.0000 0.0000 29.1237 0.0000 0.0000
# 5 0.0000 0.0000 0.0000 0.0000 21.3203 0.0000
# 6 0.0000 0.0000 0.0000 0.0000 0.0000 37.0890
#
#
#
# Elastic Compliance Matrix: (Units=1/GPa)
#
#
# Indices 1 2 3 4 5 6 
#
# 1 0.012609 -0.003739 -0.005240 0.000000 0.000000 0.000000
# 2 -0.003739 0.016920 -0.002744 0.000000 0.000000 0.000000
# 3 -0.005240 -0.002744 0.013141 0.000000 0.000000 0.000000
# 4 0.000000 0.000000 0.000000 0.034336 0.000000 0.000000
# 5 0.000000 0.000000 0.000000 0.000000 0.046904 0.000000
# 6 0.000000 0.000000 0.000000 0.000000 0.000000 0.026962
#
#
# Mechanical properties :
#
#
# Convention : Reuss Voigt Hill
#
# Bulk Modulus (GPa) = 52.01185 56.07598 54.04391
# Shear Modulus (GPa) = 27.66643 28.97050 28.31847
#
# Velocity S-wave (km/s) = 3.82673 3.91588 3.87156
# Velocity P-wave (km/s) = 6.85967 7.08001 6.97071
#
# Compressibility (1/GPa) = 0.01922639
#
# Stress axis : x y z
#
# Youngs Moduli (GPa) = 79.30886 59.10037 76.09969
#
# Poissons Ratio (x) = 0.22095 0.39873
# Poissons Ratio (y) = 0.29650 0.20879
# Poissons Ratio (z) = 0.41554 0.16215
#
# Static dielectric constant tensor:
#      x y z
#    x 1.682170 0.000000 0.000000 
#    y 0.000000 1.674570 0.000000 
#    z 0.000000 0.000000 1.661510 
# 
# From -- ./inp_files/14836.got.cif
#   From: 2010.05.17/outbox.cif.g08.bks.cpg/sg56_8_cif.got.tgz:14836.got - 2010.06.03 13:42:01.
