data_PCOD9432218
_publ_section_title
;
Structure prediction by ZEFSAII (Michael W. Deem and Ramdas Pophale) SiO2 
 PCOD9432218
Probable space group: P C C N
;
_chemical_formula_sum "Si O2"
_cell_formula_units_Z 56
_cell_length_a 33.952953
_cell_length_b 4.969744
_cell_length_c 14.164811
_cell_angle_alpha 90.000000
_cell_angle_beta 90.000000
_cell_angle_gamma 90.000000
_cell_volume 2390.134576
_symmetry_space_group_name_H-M "P C C N"
_symmetry_group_IT_number 56
_symmetry_cell_setting 'orthorhombic'
loop_
_space_group_symop_operation_xyz
x,y,z
1/2-x,1/2-y,z
1/2+x,-y,1/2-z
-x,1/2+y,1/2-z
-x,-y,-z
1/2+x,1/2+y,-z
1/2-x,y,1/2+z
x,1/2-y,1/2+z
loop_
_atom_site_type_symbol
_atom_site_label
_atom_site_fract_x
_atom_site_fract_y
_atom_site_fract_z
Si Si1 0.655748 0.860931 0.798541
Si Si2 0.362227 0.758181 0.857237
Si Si3 0.474064 0.500926 0.253534
Si Si4 0.830194 0.262463 0.950346
Si Si5 0.409063 0.440825 0.107805
Si Si6 0.084227 0.259019 0.400945
Si Si7 0.723015 0.492690 0.799099
O O1 0.655074 0.132365 0.738409
O O2 0.669542 0.941122 0.904445
O O3 0.612173 0.754629 0.817068
O O4 0.684684 0.641014 0.752945
O O5 0.399125 0.552618 0.873682
O O6 0.380827 0.049004 0.876789
O O7 0.329595 0.731484 0.938519
O O8 0.495794 0.773143 0.282726
O O9 0.443886 0.569465 0.168383
O O10 0.451903 0.356290 0.340914
O O11 0.873197 0.138129 0.921919
O O12 0.794998 0.119666 0.896125
O O13 0.422493 0.284460 0.013744
O O14 0.750000 0.750000 0.814020
O O15 0.750000 0.250000 0.757816
#
# Coordination Sequence:
#
# PCOD9432218 Si02
#       7
#     8   8   8   8   8   8   8
#     4  11  21  41  71 100 132 177 223 283 329 392
#     4  11  23  38  70 102 128 162 234 280 324 385
#     4  12  27  42  63  94 135 180 219 276 354 411
#     4  10  22  41  70 100 124 177 225 272 332 388
#     4  10  23  41  67  96 130 172 232 282 335 398
#     4  11  23  42  65  95 130 171 221 284 332 399
#     4  11  23  41  67  95 138 183 213 260 336 401
#
# _framework density 23.429644
#
# number of rings (size 3 to 8) (size 9 to 14) (size 15 to 20)
#    0.000    1.143    4.286    1.714    4.000    1.143 
#    0.000    0.714    3.143    0.000    0.000    0.000 
#    0.000    0.000    0.000    0.000    0.000    0.000 
#
# Total GULP energy -312702.357095 kJ/mol
# GULP energy per Si atom -5583.970662 kJ/mol
# Density = 2.337632 g / cm^3
# Si number density = 23.429644 Si / 1000 Ang^3
#
#
#
# Elastic Constant Matrix: (Units=GPa)
#
#
# Indices 1 2 3 4 5 6 
#
# 1 73.4632 16.0883 10.9658 0.0000 0.0000 0.0000
# 2 16.0883 85.0618 -2.0783 0.0000 0.0000 0.0000
# 3 10.9658 -2.0783 97.5872 0.0000 0.0000 0.0000
# 4 0.0000 0.0000 0.0000 23.8863 0.0000 0.0000
# 5 0.0000 0.0000 0.0000 0.0000 22.3201 0.0000
# 6 0.0000 0.0000 0.0000 0.0000 0.0000 40.5261
#
#
#
# Elastic Compliance Matrix: (Units=1/GPa)
#
#
# Indices 1 2 3 4 5 6 
#
# 1 0.014472 -0.002778 -0.001685 0.000000 0.000000 0.000000
# 2 -0.002778 0.012296 0.000574 0.000000 0.000000 0.000000
# 3 -0.001685 0.000574 0.010449 0.000000 0.000000 0.000000
# 4 0.000000 0.000000 0.000000 0.041865 0.000000 0.000000
# 5 0.000000 0.000000 0.000000 0.000000 0.044803 0.000000
# 6 0.000000 0.000000 0.000000 0.000000 0.000000 0.024675
#
#
# Mechanical properties :
#
#
# Convention : Reuss Voigt Hill
#
# Bulk Modulus (GPa) = 33.97048 34.00709 33.98878
# Shear Modulus (GPa) = 30.09295 32.75561 31.42428
#
# Velocity S-wave (km/s) = 3.58774 3.74310 3.66624
# Velocity P-wave (km/s) = 5.62964 5.76429 5.69737
#
# Compressibility (1/GPa) = 0.02943732
#
# Stress axis : x y z
#
# Youngs Moduli (GPa) = 69.09748 81.32936 95.70417
#
# Poissons Ratio (x) = 0.22597 0.16130
# Poissons Ratio (y) = 0.19198 -0.05494
# Poissons Ratio (z) = 0.11646 -0.04669
#
# Static dielectric constant tensor:
#      x y z
#    x 1.961500 0.000000 0.000000 
#    y 0.000000 1.931610 0.000000 
#    z 0.000000 0.000000 1.936600 
# 
# From -- ./inp_files/9792.got.cif
#   From: 2010.05.17/outbox.cif.g08.bks.cpg/sg56_5_cif.got.tgz:9792.got - 2010.06.03 13:42:01.
