data_PCOD9432540
_publ_section_title
;
Structure prediction by ZEFSAII (Michael W. Deem and Ramdas Pophale) SiO2 
 PCOD9432540
Probable space group: P C C N
;
_chemical_formula_sum "Si O2"
_cell_formula_units_Z 64
_cell_length_a 12.860858
_cell_length_b 8.950110
_cell_length_c 26.421687
_cell_angle_alpha 90.000000
_cell_angle_beta 90.000000
_cell_angle_gamma 90.000000
_cell_volume 3041.297182
_symmetry_space_group_name_H-M "P C C N"
_symmetry_group_IT_number 56
_symmetry_cell_setting 'orthorhombic'
loop_
_space_group_symop_operation_xyz
x,y,z
1/2-x,1/2-y,z
1/2+x,-y,1/2-z
-x,1/2+y,1/2-z
-x,-y,-z
1/2+x,1/2+y,-z
1/2-x,y,1/2+z
x,1/2-y,1/2+z
loop_
_atom_site_type_symbol
_atom_site_label
_atom_site_fract_x
_atom_site_fract_y
_atom_site_fract_z
Si Si1 0.656164 0.655325 0.065615
Si Si2 0.360487 0.560819 0.219884
Si Si3 0.871648 0.717215 0.879895
Si Si4 0.962868 0.659104 0.982142
Si Si5 0.556546 0.048067 0.389519
Si Si6 0.975432 0.731056 0.243276
Si Si7 0.622866 0.988688 0.782655
Si Si8 0.843713 0.365503 0.497546
O O1 0.750000 0.750000 0.090275
O O2 0.559116 0.611742 0.101516
O O3 0.613801 0.766719 0.022435
O O4 0.683541 0.504160 0.034294
O O5 0.391947 0.606612 0.162439
O O6 0.420016 0.672537 0.258643
O O7 0.404477 0.391954 0.227946
O O8 0.236954 0.555423 0.223717
O O9 0.750000 0.750000 0.883936
O O10 0.906860 0.631669 0.929428
O O11 0.884269 0.621090 0.829978
O O12 0.936884 0.869993 0.881870
O O13 0.000000 0.500000 0.000000
O O14 0.058232 0.775934 0.979279
O O15 0.619758 0.081830 0.441450
O O16 0.903313 0.877125 0.235320
O O17 0.036158 0.613831 0.208153
O O18 0.750000 0.250000 0.492944
#
# Coordination Sequence:
#
# PCOD9432540 Si02
#       8
#     8   8   8   8   8   8   8   8
#     4  11  22  41  61  86 132 178 212 265 327 378
#     4  11  22  42  67  95 128 162 209 266 325 381
#     4  12  21  38  68  95 124 167 216 273 326 378
#     4  11  23  37  60  94 129 170 220 267 323 390
#     4  11  22  40  64  96 126 161 219 276 313 374
#     4  10  23  39  63  98 130 159 202 259 326 403
#     4  11  22  40  69  98 127 167 204 267 329 383
#     4  11  23  38  60  92 129 171 218 271 323 382
#
# _framework density 21.043652000000002
#
# number of rings (size 3 to 8) (size 9 to 14) (size 15 to 20)
#    0.000    1.000    5.000    2.625    1.750    3.000 
#    0.000    2.500    0.000   12.000    0.000    0.000 
#    0.000    0.000    0.000    0.000    0.000    0.000 
#
# Total GULP energy -356538.563587 kJ/mol
# GULP energy per Si atom -5570.915056 kJ/mol
# Density = 2.099576 g / cm^3
# Si number density = 21.043652 Si / 1000 Ang^3
#
#
#
# Elastic Constant Matrix: (Units=GPa)
#
#
# Indices 1 2 3 4 5 6 
#
# 1 112.2556 21.6201 30.3423 0.0000 0.0000 0.0000
# 2 21.6201 96.7724 1.8303 0.0000 0.0000 0.0000
# 3 30.3423 1.8303 18.9974 0.0000 0.0000 0.0000
# 4 0.0000 0.0000 0.0000 208.1335 0.0000 0.0000
# 5 0.0000 0.0000 0.0000 0.0000 -7.8227 0.0000
# 6 0.0000 0.0000 0.0000 0.0000 0.0000 45.8392
#
#
#
# Elastic Compliance Matrix: (Units=1/GPa)
#
#
# Indices 1 2 3 4 5 6 
#
# 1 0.016618 -0.003217 -0.026233 0.000000 0.000000 0.000000
# 2 -0.003217 0.010975 0.004080 0.000000 0.000000 0.000000
# 3 -0.026233 0.004080 0.094144 0.000000 0.000000 0.000000
# 4 0.000000 0.000000 0.000000 0.004805 0.000000 0.000000
# 5 0.000000 0.000000 0.000000 0.000000 -0.127833 0.000000
# 6 0.000000 0.000000 0.000000 0.000000 0.000000 0.021815
#
#
# Mechanical properties :
#
#
# Convention : Reuss Voigt Hill
#
# Bulk Modulus (GPa) = 14.08467 37.29008 25.68738
# Shear Modulus (GPa) = 52.67089 60.84550 56.75819
#
# Velocity S-wave (km/s) = 5.00836 5.38300 5.19906
# Velocity P-wave (km/s) = 6.33660 7.50962 6.94791
#
# Compressibility (1/GPa) = 0.07099918
#
# Stress axis : x y z
#
# Youngs Moduli (GPa) = 60.17450 91.11638 10.62200
#
# Poissons Ratio (x) = 0.29308 0.27864
# Poissons Ratio (y) = 0.19356 -0.04334
# Poissons Ratio (z) = 1.57854 -0.37176
#
# Static dielectric constant tensor:
#      x y z
#    x 1.797710 0.000000 0.000000 
#    y 0.000000 1.785920 0.000000 
#    z 0.000000 0.000000 1.811050 
# 
# From -- ./inp_files/23520.got.cif
#   From: 2010.05.17/outbox.cif.g08.bks.cpg/sg56_12_cif.got.tgz:23520.got - 2010.06.03 13:42:01.
