data_PCOD9432607
_publ_section_title
;
Structure prediction by ZEFSAII (Michael W. Deem and Ramdas Pophale) SiO2 
 PCOD9432607
Probable space group: P C C N
;
_chemical_formula_sum "Si O2"
_cell_formula_units_Z 32
_cell_length_a 12.664812
_cell_length_b 8.891725
_cell_length_c 11.178408
_cell_angle_alpha 90.000000
_cell_angle_beta 90.000000
_cell_angle_gamma 90.000000
_cell_volume 1258.823167
_symmetry_space_group_name_H-M "P C C N"
_symmetry_group_IT_number 56
_symmetry_cell_setting 'orthorhombic'
loop_
_space_group_symop_operation_xyz
x,y,z
1/2-x,1/2-y,z
1/2+x,-y,1/2-z
-x,1/2+y,1/2-z
-x,-y,-z
1/2+x,1/2+y,-z
1/2-x,y,1/2+z
x,1/2-y,1/2+z
loop_
_atom_site_type_symbol
_atom_site_label
_atom_site_fract_x
_atom_site_fract_y
_atom_site_fract_z
Si Si1 0.309556 0.090000 0.606146
Si Si2 0.493346 0.245650 0.005516
Si Si3 0.840136 0.155690 0.333656
Si Si4 0.955920 0.499461 0.180093
O O1 0.250000 0.250000 0.619023
O O2 0.408176 0.124541 0.519568
O O3 0.364790 0.040598 0.729553
O O4 0.223770 0.961632 0.582961
O O5 0.530130 0.169393 0.130471
O O6 0.593025 0.268527 0.918882
O O7 0.439038 0.108202 0.933529
O O8 0.750000 0.250000 0.266460
O O9 0.928903 0.053318 0.270583
#
# Coordination Sequence:
#
# PCOD9432607 Si02
#       4
#     8   8   8   8
#     4  12  22  39  73  90 125 189 210 258 351 382
#     4   9  21  46  59  93 138 158 219 283 300 409
#     4  10  23  42  61  94 134 164 215 274 330 382
#     4   9  21  41  61  95 132 155 223 273 300 403
#
# _framework density 25.420566999999998
#
# number of rings (size 3 to 8) (size 9 to 14) (size 15 to 20)
#    1.500    0.500    2.500    0.000    3.500    4.000 
#    4.500    0.000    0.000    0.000    0.000    0.000 
#    0.000    0.000    0.000    0.000    0.000    0.000 
#
# Total GULP energy -178488.714626 kJ/mol
# GULP energy per Si atom -5577.772332 kJ/mol
# Density = 2.536271 g / cm^3
# Si number density = 25.420567 Si / 1000 Ang^3
#
#
#
# Elastic Constant Matrix: (Units=GPa)
#
#
# Indices 1 2 3 4 5 6 
#
# 1 123.8040 8.7823 19.8534 0.0000 0.0000 0.0000
# 2 8.7823 48.7293 -2.2728 0.0000 0.0000 0.0000
# 3 19.8534 -2.2728 43.7641 0.0000 0.0000 0.0000
# 4 0.0000 0.0000 0.0000 29.9035 0.0000 0.0000
# 5 0.0000 0.0000 0.0000 0.0000 47.1911 0.0000
# 6 0.0000 0.0000 0.0000 0.0000 0.0000 65.9027
#
#
#
# Elastic Compliance Matrix: (Units=1/GPa)
#
#
# Indices 1 2 3 4 5 6 
#
# 1 0.008864 -0.001789 -0.004114 0.000000 0.000000 0.000000
# 2 -0.001789 0.020933 0.001899 0.000000 0.000000 0.000000
# 3 -0.004114 0.001899 0.024815 0.000000 0.000000 0.000000
# 4 0.000000 0.000000 0.000000 0.033441 0.000000 0.000000
# 5 0.000000 0.000000 0.000000 0.000000 0.021190 0.000000
# 6 0.000000 0.000000 0.000000 0.000000 0.000000 0.015174
#
#
# Mechanical properties :
#
#
# Convention : Reuss Voigt Hill
#
# Bulk Modulus (GPa) = 21.45824 29.89144 25.67484
# Shear Modulus (GPa) = 33.79301 41.26177 37.52739
#
# Velocity S-wave (km/s) = 3.64999 4.03322 3.84638
# Velocity P-wave (km/s) = 5.12083 5.78563 5.46335
#
# Compressibility (1/GPa) = 0.04660215
#
# Stress axis : x y z
#
# Youngs Moduli (GPa) = 112.81653 47.77241 40.29867
#
# Poissons Ratio (x) = 0.08548 0.16579
# Poissons Ratio (y) = 0.20187 -0.07652
# Poissons Ratio (z) = 0.46413 -0.09071
#
# Static dielectric constant tensor:
#      x y z
#    x 2.032340 0.000000 0.000000 
#    y 0.000000 2.071520 0.000000 
#    z 0.000000 0.000000 1.983770 
# 
# From -- ./inp_files/11234.got.cif
#   From: 2010.05.17/outbox.cif.g08.bks.cpg/sg56_6_cif.got.tgz:11234.got - 2010.06.03 13:42:01.
