data_PCOD9432907
_publ_section_title
;
Structure prediction by ZEFSAII (Michael W. Deem and Ramdas Pophale) SiO2 
 PCOD9432907
Probable space group: P C C N
;
_chemical_formula_sum "Si O2"
_cell_formula_units_Z 40
_cell_length_a 13.371989
_cell_length_b 12.979076
_cell_length_c 9.885997
_cell_angle_alpha 90.000000
_cell_angle_beta 90.000000
_cell_angle_gamma 90.000000
_cell_volume 1715.774703
_symmetry_space_group_name_H-M "P C C N"
_symmetry_group_IT_number 56
_symmetry_cell_setting 'orthorhombic'
loop_
_space_group_symop_operation_xyz
x,y,z
1/2-x,1/2-y,z
1/2+x,-y,1/2-z
-x,1/2+y,1/2-z
-x,-y,-z
1/2+x,1/2+y,-z
1/2-x,y,1/2+z
x,1/2-y,1/2+z
loop_
_atom_site_type_symbol
_atom_site_label
_atom_site_fract_x
_atom_site_fract_y
_atom_site_fract_z
Si Si1 0.647968 0.312556 0.692221
Si Si2 0.532670 0.227378 0.927691
Si Si3 0.166196 0.180084 0.551550
Si Si4 0.629274 0.473896 0.314961
Si Si5 0.253120 0.990324 0.436916
O O1 0.750000 0.250000 0.725599
O O2 0.571614 0.302444 0.813226
O O3 0.602544 0.261270 0.558092
O O4 0.669796 0.428088 0.646434
O O5 0.551588 0.111765 0.865740
O O6 0.420307 0.240958 0.976351
O O7 0.250000 0.250000 0.621733
O O8 0.111527 0.092245 0.641738
O O9 0.227824 0.110257 0.444891
O O10 0.650790 0.469447 0.155419
O O11 0.730564 0.453202 0.408753
#
# Coordination Sequence:
#
# PCOD9432907 Si02
#       5
#     8   8   8   8   8
#     4  11  22  38  66  98 126 163 218 273 328 389
#     4  11  23  39  65  97 132 172 218 268 331 391
#     4  10  24  43  63  91 133 182 219 264 326 389
#     4   9  20  39  63  88 127 168 216 267 322 384
#     4   9  21  38  64  90 125 171 209 267 323 385
#
# _framework density 23.313085999999998
#
# number of rings (size 3 to 8) (size 9 to 14) (size 15 to 20)
#    1.200    0.800    2.000    1.200    2.800    4.000 
#    0.000    0.000    0.000    4.800    0.000    0.000 
#    0.000    0.000    0.000    0.000    0.000    0.000 
#
# Total GULP energy -222913.236905 kJ/mol
# GULP energy per Si atom -5572.830923 kJ/mol
# Density = 2.326002 g / cm^3
# Si number density = 23.313086 Si / 1000 Ang^3
#
#
#
# Elastic Constant Matrix: (Units=GPa)
#
#
# Indices 1 2 3 4 5 6 
#
# 1 55.9009 16.5179 1.7218 0.0000 0.0000 0.0000
# 2 16.5179 46.3498 -14.4334 0.0000 0.0000 0.0000
# 3 1.7218 -14.4334 66.3924 0.0000 0.0000 0.0000
# 4 0.0000 0.0000 0.0000 16.5242 0.0000 0.0000
# 5 0.0000 0.0000 0.0000 0.0000 19.8895 0.0000
# 6 0.0000 0.0000 0.0000 0.0000 0.0000 23.1937
#
#
#
# Elastic Compliance Matrix: (Units=1/GPa)
#
#
# Indices 1 2 3 4 5 6 
#
# 1 0.020303 -0.007937 -0.002252 0.000000 0.000000 0.000000
# 2 -0.007937 0.026244 0.005911 0.000000 0.000000 0.000000
# 3 -0.002252 0.005911 0.016405 0.000000 0.000000 0.000000
# 4 0.000000 0.000000 0.000000 0.060517 0.000000 0.000000
# 5 0.000000 0.000000 0.000000 0.000000 0.050278 0.000000
# 6 0.000000 0.000000 0.000000 0.000000 0.000000 0.043115
#
#
# Mechanical properties :
#
#
# Convention : Reuss Voigt Hill
#
# Bulk Modulus (GPa) = 18.38306 19.58395 18.98351
# Shear Modulus (GPa) = 20.52957 22.91060 21.72008
#
# Velocity S-wave (km/s) = 2.97071 3.13826 3.05564
# Velocity P-wave (km/s) = 4.43501 4.64222 4.53980
#
# Compressibility (1/GPa) = 0.05439791
#
# Stress axis : x y z
#
# Youngs Moduli (GPa) = 49.25285 38.10351 60.95538
#
# Poissons Ratio (x) = 0.30242 0.13727
# Poissons Ratio (y) = 0.39091 -0.36032
# Poissons Ratio (z) = 0.11092 -0.22524
#
# Static dielectric constant tensor:
#      x y z
#    x 1.943320 0.000000 0.000000 
#    y 0.000000 1.948690 0.000000 
#    z 0.000000 0.000000 1.882280 
# 
# From -- ./inp_files/6991.got.cif
#   From: 2010.05.17/outbox.cif.g08.bks.cpg/sg56_4_cif.got.tgz:6991.got - 2010.06.03 13:42:01.
