data_PCOD9432223
_publ_section_title
;
Structure prediction by ZEFSAII (Michael W. Deem and Ramdas Pophale) SiO2 
 PCOD9432223
Probable space group: P C C N
;
_chemical_formula_sum "Si O2"
_cell_formula_units_Z 48
_cell_length_a 12.674864
_cell_length_b 31.865887
_cell_length_c 5.194137
_cell_angle_alpha 90.000000
_cell_angle_beta 90.000000
_cell_angle_gamma 90.000000
_cell_volume 2097.890036
_symmetry_space_group_name_H-M "P C C N"
_symmetry_group_IT_number 56
_symmetry_cell_setting 'orthorhombic'
loop_
_space_group_symop_operation_xyz
x,y,z
1/2-x,1/2-y,z
1/2+x,-y,1/2-z
-x,1/2+y,1/2-z
-x,-y,-z
1/2+x,1/2+y,-z
1/2-x,y,1/2+z
x,1/2-y,1/2+z
loop_
_atom_site_type_symbol
_atom_site_label
_atom_site_fract_x
_atom_site_fract_y
_atom_site_fract_z
Si Si1 0.630881 0.266072 0.784390
Si Si2 0.816121 0.947846 0.673787
Si Si3 0.204827 0.297645 0.657234
Si Si4 0.512232 0.335820 0.023080
Si Si5 0.497902 0.889847 0.977098
Si Si6 0.682455 0.044887 0.170168
O O1 0.750000 0.250000 0.741391
O O2 0.582116 0.264737 0.500470
O O3 0.613406 0.310603 0.915818
O O4 0.722006 0.942304 0.466503
O O5 0.905004 0.915806 0.590588
O O6 0.852524 0.996313 0.645161
O O7 0.250000 0.250000 0.687910
O O8 0.224677 0.317862 0.933682
O O9 0.084586 0.303562 0.574564
O O10 0.477452 0.365026 0.785667
O O11 0.535782 0.359862 0.286436
O O12 0.407492 0.922634 0.900843
O O13 0.724997 0.050867 0.459284
#
# Coordination Sequence:
#
# PCOD9432223 Si02
#       6
#     8   8   8   8   8   8
#     4  10  23  45  67  88 117 165 222 263 329 391
#     4  10  22  41  71  97 135 182 220 255 312 392
#     4  10  23  40  63  88 118 163 208 260 327 389
#     4  12  26  41  67  98 129 166 217 280 331 381
#     4  12  25  43  64 103 138 168 213 276 333 374
#     4  10  22  44  67  98 135 182 220 255 312 392
#
# _framework density 22.880133000000001
#
# number of rings (size 3 to 8) (size 9 to 14) (size 15 to 20)
#    0.000    1.333    0.000    4.500    4.667    4.000 
#   18.000    6.667    0.000    0.000    0.000    0.000 
#    0.000    0.000    0.000    0.000    0.000    0.000 
#
# Total GULP energy -268242.568709 kJ/mol
# GULP energy per Si atom -5588.386848 kJ/mol
# Density = 2.282806 g / cm^3
# Si number density = 22.880133 Si / 1000 Ang^3
#
#
#
# Elastic Constant Matrix: (Units=GPa)
#
#
# Indices 1 2 3 4 5 6 
#
# 1 39.0530 30.3980 -24.8768 0.0000 0.0000 0.0000
# 2 30.3980 67.9611 -3.0691 0.0000 0.0000 0.0000
# 3 -24.8768 -3.0691 111.8343 0.0000 0.0000 0.0000
# 4 0.0000 0.0000 0.0000 14.0637 0.0000 0.0000
# 5 0.0000 0.0000 0.0000 0.0000 25.7922 0.0000
# 6 0.0000 0.0000 0.0000 0.0000 0.0000 41.8043
#
#
#
# Elastic Compliance Matrix: (Units=1/GPa)
#
#
# Indices 1 2 3 4 5 6 
#
# 1 0.048755 -0.021344 0.010260 0.000000 0.000000 0.000000
# 2 -0.021344 0.024077 -0.004087 0.000000 0.000000 0.000000
# 3 0.010260 -0.004087 0.011112 0.000000 0.000000 0.000000
# 4 0.000000 0.000000 0.000000 0.071105 0.000000 0.000000
# 5 0.000000 0.000000 0.000000 0.000000 0.038771 0.000000
# 6 0.000000 0.000000 0.000000 0.000000 0.000000 0.023921
#
#
# Mechanical properties :
#
#
# Convention : Reuss Voigt Hill
#
# Bulk Modulus (GPa) = 18.65664 24.86141 21.75903
# Shear Modulus (GPa) = 18.80042 30.75847 24.77945
#
# Velocity S-wave (km/s) = 2.86963 3.67049 3.29448
# Velocity P-wave (km/s) = 4.37624 5.37149 4.89920
#
# Compressibility (1/GPa) = 0.05360021
#
# Stress axis : x y z
#
# Youngs Moduli (GPa) = 20.51056 41.53399 89.99448
#
# Poissons Ratio (x) = 0.88651 -0.92330
# Poissons Ratio (y) = 0.43778 0.36782
# Poissons Ratio (z) = -0.21043 0.16975
#
# Static dielectric constant tensor:
#      x y z
#    x 1.875020 0.000000 0.000000 
#    y 0.000000 1.777610 0.000000 
#    z 0.000000 0.000000 1.899210 
# 
# From -- ./inp_files/516.got.cif
#   From: 2010.05.17/outbox.cif.g08.bks.cpg/sg56_1_cif.got.tgz:516.got - 2010.06.03 13:42:01.
