data_PCOD9432165
_publ_section_title
;
Structure prediction by ZEFSAII (Michael W. Deem and Ramdas Pophale) SiO2 
 PCOD9432165
Probable space group: P C C N
;
_chemical_formula_sum "Si O2"
_cell_formula_units_Z 48
_cell_length_a 17.635749
_cell_length_b 7.119019
_cell_length_c 15.701334
_cell_angle_alpha 90.000000
_cell_angle_beta 90.000000
_cell_angle_gamma 90.000000
_cell_volume 1971.290428
_symmetry_space_group_name_H-M "P C C N"
_symmetry_group_IT_number 56
_symmetry_cell_setting 'orthorhombic'
loop_
_space_group_symop_operation_xyz
x,y,z
1/2-x,1/2-y,z
1/2+x,-y,1/2-z
-x,1/2+y,1/2-z
-x,-y,-z
1/2+x,1/2+y,-z
1/2-x,y,1/2+z
x,1/2-y,1/2+z
loop_
_atom_site_type_symbol
_atom_site_label
_atom_site_fract_x
_atom_site_fract_y
_atom_site_fract_z
Si Si1 0.574104 0.073160 0.045007
Si Si2 0.320496 0.516333 0.601873
Si Si3 0.158197 0.408687 0.636453
Si Si4 0.509095 0.453888 0.099823
Si Si5 0.815131 0.517147 0.173330
Si Si6 0.152586 0.569383 0.301312
O O1 0.536030 0.238095 0.099344
O O2 0.622863 0.932569 0.103111
O O3 0.500000 0.000000 0.000000
O O4 0.634090 0.127052 0.970690
O O5 0.228917 0.527887 0.600420
O O6 0.340107 0.293973 0.591179
O O7 0.345286 0.557297 0.698736
O O8 0.174840 0.384009 0.736386
O O9 0.074387 0.491238 0.634031
O O10 0.577485 0.525203 0.159054
O O11 0.500000 0.500000 0.000000
O O12 0.725886 0.527512 0.154575
O O13 0.832574 0.292699 0.183826
#
# Coordination Sequence:
#
# PCOD9432165 Si02
#       6
#     8   8   8   8   8   8
#     4  11  23  41  62  90 125 162 206 255 319 373
#     4  10  22  42  64  88 125 166 203 253 319 376
#     4  10  22  41  61  92 123 158 208 253 308 377
#     4  11  25  39  59  95 123 157 212 261 308 368
#     4   9  21  41  62  88 121 163 205 252 308 378
#     4   9  21  41  62  87 122 163 208 248 313 379
#
# _framework density 24.349533999999998
#
# number of rings (size 3 to 8) (size 9 to 14) (size 15 to 20)
#    0.000    2.000    1.667    0.000    7.000    1.333 
#    0.000    1.667    0.000    0.000    0.000    0.000 
#    0.000    0.000    0.000    0.000    0.000    0.000 
#
# Total GULP energy -267875.914147 kJ/mol
# GULP energy per Si atom -5580.748211 kJ/mol
# Density = 2.429411 g / cm^3
# Si number density = 24.349534 Si / 1000 Ang^3
#
#
#
# Elastic Constant Matrix: (Units=GPa)
#
#
# Indices 1 2 3 4 5 6 
#
# 1 215.0523 8.1440 53.0635 0.0000 0.0000 0.0000
# 2 8.1440 37.5432 -10.2069 0.0000 0.0000 0.0000
# 3 53.0635 -10.2069 43.4180 0.0000 0.0000 0.0000
# 4 0.0000 0.0000 0.0000 25.9795 0.0000 0.0000
# 5 0.0000 0.0000 0.0000 0.0000 46.0144 0.0000
# 6 0.0000 0.0000 0.0000 0.0000 0.0000 19.7311
#
#
#
# Elastic Compliance Matrix: (Units=1/GPa)
#
#
# Indices 1 2 3 4 5 6 
#
# 1 0.007241 -0.004248 -0.009848 0.000000 0.000000 0.000000
# 2 -0.004248 0.030947 0.012467 0.000000 0.000000 0.000000
# 3 -0.009848 0.012467 0.037999 0.000000 0.000000 0.000000
# 4 0.000000 0.000000 0.000000 0.038492 0.000000 0.000000
# 5 0.000000 0.000000 0.000000 0.000000 0.021732 0.000000
# 6 0.000000 0.000000 0.000000 0.000000 0.000000 0.050682
#
#
# Mechanical properties :
#
#
# Convention : Reuss Voigt Hill
#
# Bulk Modulus (GPa) = 13.71214 44.22385 28.96800
# Shear Modulus (GPa) = 23.29260 34.67917 28.98588
#
# Velocity S-wave (km/s) = 3.09624 3.77798 3.45397
# Velocity P-wave (km/s) = 4.29254 6.10183 5.27533
#
# Compressibility (1/GPa) = 0.07292807
#
# Stress axis : x y z
#
# Youngs Moduli (GPa) = 138.10384 32.31339 26.31660
#
# Poissons Ratio (x) = 0.13727 0.25917
# Poissons Ratio (y) = 0.58669 -0.32809
# Poissons Ratio (z) = 1.36008 -0.40285
#
# Static dielectric constant tensor:
#      x y z
#    x 1.964790 0.000000 0.000000 
#    y 0.000000 2.067060 0.000000 
#    z 0.000000 0.000000 1.616440 
# 
# From -- ./inp_files/12663.got.cif
#   From: 2010.05.17/outbox.cif.g08.bks.cpg/sg56_7_cif.got.tgz:12663.got - 2010.06.03 13:42:01.
