data_PCOD9432851
_publ_section_title
;
Structure prediction by ZEFSAII (Michael W. Deem and Ramdas Pophale) SiO2 
 PCOD9432851
Probable space group: P C C N
;
_chemical_formula_sum "Si O2"
_cell_formula_units_Z 60
_cell_length_a 16.295459
_cell_length_b 5.945305
_cell_length_c 28.696852
_cell_angle_alpha 90.000000
_cell_angle_beta 90.000000
_cell_angle_gamma 90.000000
_cell_volume 2780.193317
_symmetry_space_group_name_H-M "P C C N"
_symmetry_group_IT_number 56
_symmetry_cell_setting 'orthorhombic'
loop_
_space_group_symop_operation_xyz
x,y,z
1/2-x,1/2-y,z
1/2+x,-y,1/2-z
-x,1/2+y,1/2-z
-x,-y,-z
1/2+x,1/2+y,-z
1/2-x,y,1/2+z
x,1/2-y,1/2+z
loop_
_atom_site_type_symbol
_atom_site_label
_atom_site_fract_x
_atom_site_fract_y
_atom_site_fract_z
Si Si1 0.750000 0.250000 0.895462
Si Si2 0.330699 0.878232 0.925078
Si Si3 0.663285 0.826468 0.163108
Si Si4 0.049672 0.485360 0.401267
Si Si5 0.546281 0.569210 0.748018
Si Si6 0.337382 0.139561 0.074932
Si Si7 0.381487 0.067009 0.651834
Si Si8 0.068204 0.317626 0.988638
O O1 0.817343 0.377258 0.927059
O O2 0.695820 0.416932 0.863922
O O3 0.250000 0.750000 0.941042
O O4 0.409196 0.720934 0.915286
O O5 0.312304 0.992072 0.875755
O O6 0.355818 0.060835 0.963058
O O7 0.750000 0.750000 0.184614
O O8 0.615581 0.638294 0.132547
O O9 0.600311 0.918596 0.201267
O O10 0.038584 0.356854 0.450224
O O11 0.965845 0.487561 0.372437
O O12 0.501509 0.317824 0.749510
O O13 0.603396 0.572464 0.793687
O O14 0.250000 0.250000 0.066176
O O15 0.365641 0.192618 0.127406
O O16 0.398979 0.252540 0.038929
O O17 0.000000 0.500000 0.000000
#
# Coordination Sequence:
#
# PCOD9432851 Si02
#       8
#     4   8   8   8   8   8   8   8
#     4  10  24  44  68  96 138 192 236 304 360 430
#     4  11  24  40  69 100 144 190 241 305 377 438
#     4  11  24  45  70 107 141 186 242 302 370 446
#     4  11  23  44  70  99 145 188 232 306 362 438
#     4  12  28  49  78 112 147 195 246 309 378 450
#     4  10  24  41  64  95 136 184 238 296 355 426
#     4  11  24  46  71  99 144 187 245 299 370 439
#     4  11  25  39  64 103 136 188 244 292 361 442
#
# _framework density 21.581233999999998
#
# number of rings (size 3 to 8) (size 9 to 14) (size 15 to 20)
#    0.000    1.067    2.667    2.400    4.667    6.933 
#    1.200    0.000    0.000    0.000    0.000    0.000 
#    0.000    0.000    0.000    0.000    0.000    0.000 
#
# Total GULP energy -334863.767098 kJ/mol
# GULP energy per Si atom -5581.062785 kJ/mol
# Density = 2.153211 g / cm^3
# Si number density = 21.581234 Si / 1000 Ang^3
#
#
#
# Elastic Constant Matrix: (Units=GPa)
#
#
# Indices 1 2 3 4 5 6 
#
# 1 87.5600 12.0297 1.2840 0.0000 0.0000 0.0000
# 2 12.0297 56.2390 -2.7951 0.0000 0.0000 0.0000
# 3 1.2840 -2.7951 74.7631 0.0000 0.0000 0.0000
# 4 0.0000 0.0000 0.0000 17.3892 0.0000 0.0000
# 5 0.0000 0.0000 0.0000 0.0000 27.3933 0.0000
# 6 0.0000 0.0000 0.0000 0.0000 0.0000 33.9597
#
#
#
# Elastic Compliance Matrix: (Units=1/GPa)
#
#
# Indices 1 2 3 4 5 6 
#
# 1 0.011773 -0.002533 -0.000297 0.000000 0.000000 0.000000
# 2 -0.002533 0.018359 0.000730 0.000000 0.000000 0.000000
# 3 -0.000297 0.000730 0.013408 0.000000 0.000000 0.000000
# 4 0.000000 0.000000 0.000000 0.057507 0.000000 0.000000
# 5 0.000000 0.000000 0.000000 0.000000 0.036505 0.000000
# 6 0.000000 0.000000 0.000000 0.000000 0.000000 0.029447
#
#
# Mechanical properties :
#
#
# Convention : Reuss Voigt Hill
#
# Bulk Modulus (GPa) = 25.41922 26.62213 26.02067
# Shear Modulus (GPa) = 27.12780 29.61801 28.37291
#
# Velocity S-wave (km/s) = 3.54928 3.70861 3.62982
# Velocity P-wave (km/s) = 5.34794 5.54084 5.44524
#
# Compressibility (1/GPa) = 0.03934031
#
# Stress axis : x y z
#
# Youngs Moduli (GPa) = 84.93938 54.46817 74.58249
#
# Poissons Ratio (x) = 0.13797 0.02214
# Poissons Ratio (y) = 0.21516 -0.05444
# Poissons Ratio (z) = 0.02522 -0.03976
#
# Static dielectric constant tensor:
#      x y z
#    x 1.817250 0.000000 0.000000 
#    y 0.000000 1.919200 0.000000 
#    z 0.000000 0.000000 1.770660 
# 
# From -- ./inp_files/22527.got.cif
#   From: 2010.05.17/outbox.cif.g08.bks.cpg/sg56_12_cif.got.tgz:22527.got - 2010.06.03 13:42:01.
