data_PCOD9432067
_publ_section_title
;
Structure prediction by ZEFSAII (Michael W. Deem and Ramdas Pophale) SiO2 
 PCOD9432067
Probable space group: P C C N
;
_chemical_formula_sum "Si O2"
_cell_formula_units_Z 64
_cell_length_a 8.306477
_cell_length_b 10.283189
_cell_length_c 33.444342
_cell_angle_alpha 90.000000
_cell_angle_beta 90.000000
_cell_angle_gamma 90.000000
_cell_volume 2856.717799
_symmetry_space_group_name_H-M "P C C N"
_symmetry_group_IT_number 56
_symmetry_cell_setting 'orthorhombic'
loop_
_space_group_symop_operation_xyz
x,y,z
1/2-x,1/2-y,z
1/2+x,-y,1/2-z
-x,1/2+y,1/2-z
-x,-y,-z
1/2+x,1/2+y,-z
1/2-x,y,1/2+z
x,1/2-y,1/2+z
loop_
_atom_site_type_symbol
_atom_site_label
_atom_site_fract_x
_atom_site_fract_y
_atom_site_fract_z
Si Si1 0.147199 0.616268 0.009526
Si Si2 0.167798 0.605856 0.716056
Si Si3 0.938191 0.754844 0.165636
Si Si4 0.935172 0.726790 0.942836
Si Si5 0.502317 0.005336 0.204052
Si Si6 0.632654 0.007123 0.553986
Si Si7 0.947842 0.737087 0.075378
Si Si8 0.644428 0.380411 0.622758
O O1 0.250000 0.750000 0.008352
O O2 0.049642 0.630821 0.051011
O O3 0.265728 0.512836 0.987445
O O4 0.005073 0.636350 0.977412
O O5 0.250000 0.750000 0.718547
O O6 0.307612 0.501215 0.706098
O O7 0.030914 0.619365 0.681909
O O8 0.080225 0.568595 0.757045
O O9 0.750000 0.750000 0.159116
O O10 0.001000 0.723229 0.121349
O O11 0.958007 0.646731 0.199678
O O12 0.750000 0.750000 0.946880
O O13 0.027781 0.863029 0.945326
O O14 0.987023 0.661145 0.901622
O O15 0.585947 0.063560 0.164633
O O16 0.751994 0.025252 0.592941
O O17 0.518289 0.882890 0.559162
O O18 0.750000 0.750000 0.070465
O O19 0.750000 0.250000 0.628438
#
# Coordination Sequence:
#
# PCOD9432067 Si02
#       8
#     8   8   8   8   8   8   8   8
#     4   9  20  37  56  82 116 155 202 248 299 365
#     4  10  23  40  63  94 125 162 207 251 309 378
#     4  10  22  40  60  88 122 154 203 255 304 373
#     4   9  18  35  56  83 116 150 200 252 295 362
#     4  11  21  39  62  85 119 158 196 249 309 360
#     4   9  20  38  58  83 119 160 198 250 310 359
#     4  11  22  37  60  87 117 159 204 249 305 364
#     4   9  18  35  59  84 116 154 196 246 303 366
#
# _framework density 22.403333
#
# number of rings (size 3 to 8) (size 9 to 14) (size 15 to 20)
#    0.000    2.250    0.000    4.500    0.000    5.000 
#    0.000    9.375    0.000    2.250    0.000    0.000 
#    0.000    0.000    0.000    0.000    0.000    0.000 
#
# Total GULP energy -357035.152115 kJ/mol
# GULP energy per Si atom -5578.674252 kJ/mol
# Density = 2.235234 g / cm^3
# Si number density = 22.403333 Si / 1000 Ang^3
#
#
#
# Elastic Constant Matrix: (Units=GPa)
#
#
# Indices 1 2 3 4 5 6 
#
# 1 98.8830 10.4777 48.4631 0.0000 0.0000 0.0000
# 2 10.4777 61.7071 14.2290 0.0000 0.0000 0.0000
# 3 48.4631 14.2290 127.5055 0.0000 0.0000 0.0000
# 4 0.0000 0.0000 0.0000 28.8492 0.0000 0.0000
# 5 0.0000 0.0000 0.0000 0.0000 24.8828 0.0000
# 6 0.0000 0.0000 0.0000 0.0000 0.0000 17.3578
#
#
#
# Elastic Compliance Matrix: (Units=1/GPa)
#
#
# Indices 1 2 3 4 5 6 
#
# 1 0.012494 -0.001054 -0.004631 0.000000 0.000000 0.000000
# 2 -0.001054 0.016722 -0.001466 0.000000 0.000000 0.000000
# 3 -0.004631 -0.001466 0.009767 0.000000 0.000000 0.000000
# 4 0.000000 0.000000 0.000000 0.034663 0.000000 0.000000
# 5 0.000000 0.000000 0.000000 0.000000 0.040188 0.000000
# 6 0.000000 0.000000 0.000000 0.000000 0.000000 0.057611
#
#
# Mechanical properties :
#
#
# Convention : Reuss Voigt Hill
#
# Bulk Modulus (GPa) = 40.51489 48.27057 44.39273
# Shear Modulus (GPa) = 25.77655 28.54634 27.16145
#
# Velocity S-wave (km/s) = 3.39568 3.57347 3.48571
# Velocity P-wave (km/s) = 5.78773 6.21443 6.00487
#
# Compressibility (1/GPa) = 0.02468228
#
# Stress axis : x y z
#
# Youngs Moduli (GPa) = 80.03537 59.79980 102.38871
#
# Poissons Ratio (x) = 0.06300 0.47420
# Poissons Ratio (y) = 0.08432 0.15007
# Poissons Ratio (z) = 0.37068 0.08765
#
# Static dielectric constant tensor:
#      x y z
#    x 1.934840 0.000000 0.000000 
#    y 0.000000 1.972850 0.000000 
#    z 0.000000 0.000000 1.789910 
# 
# From -- ./inp_files/23367.got.cif
#   From: 2010.05.17/outbox.cif.g08.bks.cpg/sg56_12_cif.got.tgz:23367.got - 2010.06.03 13:42:01.
