data_PCOD9432245
_publ_section_title
;
Structure prediction by ZEFSAII (Michael W. Deem and Ramdas Pophale) SiO2 
 PCOD9432245
Probable space group: P C C N
;
_chemical_formula_sum "Si O2"
_cell_formula_units_Z 32
_cell_length_a 13.411031
_cell_length_b 4.846550
_cell_length_c 20.325091
_cell_angle_alpha 90.000000
_cell_angle_beta 90.000000
_cell_angle_gamma 90.000000
_cell_volume 1321.074661
_symmetry_space_group_name_H-M "P C C N"
_symmetry_group_IT_number 56
_symmetry_cell_setting 'orthorhombic'
loop_
_space_group_symop_operation_xyz
x,y,z
1/2-x,1/2-y,z
1/2+x,-y,1/2-z
-x,1/2+y,1/2-z
-x,-y,-z
1/2+x,1/2+y,-z
1/2-x,y,1/2+z
x,1/2-y,1/2+z
loop_
_atom_site_type_symbol
_atom_site_label
_atom_site_fract_x
_atom_site_fract_y
_atom_site_fract_z
Si Si1 0.858733 0.377949 0.618116
Si Si2 0.564588 0.436611 0.254244
Si Si3 0.649523 0.429499 0.971754
Si Si4 0.435360 0.058107 0.100402
O O1 0.750000 0.250000 0.624134
O O2 0.878220 0.522797 0.688045
O O3 0.856834 0.524710 0.547399
O O4 0.951886 0.168287 0.609047
O O5 0.537045 0.114814 0.250541
O O6 0.605656 0.487882 0.326778
O O7 0.750000 0.250000 0.963455
O O8 0.631143 0.697164 0.928597
O O9 0.568304 0.206568 0.946826
#
# Coordination Sequence:
#
# PCOD9432245 Si02
#       4
#     8   8   8   8
#     4  10  23  43  69  99 134 174 219 268 327 393
#     4  10  22  42  64  92 128 171 217 268 324 385
#     4  11  24  42  67  99 132 174 222 271 326 385
#     4  11  22  43  68  96 133 173 217 273 326 387
#
# _framework density 24.222702999999999
#
# number of rings (size 3 to 8) (size 9 to 14) (size 15 to 20)
#    0.000    1.500    0.000    5.250    0.000    5.000 
#    0.000   28.750    0.000    0.000    0.000    0.000 
#    0.000    0.000    0.000    0.000    0.000    0.000 
#
# Total GULP energy -178859.514021 kJ/mol
# GULP energy per Si atom -5589.359813 kJ/mol
# Density = 2.416757 g / cm^3
# Si number density = 24.222703 Si / 1000 Ang^3
#
#
#
# Elastic Constant Matrix: (Units=GPa)
#
#
# Indices 1 2 3 4 5 6 
#
# 1 106.7607 15.6308 39.6291 0.0000 0.0000 0.0000
# 2 15.6308 72.7416 21.3334 0.0000 0.0000 0.0000
# 3 39.6291 21.3334 214.0067 0.0000 0.0000 0.0000
# 4 0.0000 0.0000 0.0000 35.9742 0.0000 0.0000
# 5 0.0000 0.0000 0.0000 0.0000 70.2321 0.0000
# 6 0.0000 0.0000 0.0000 0.0000 0.0000 16.9271
#
#
#
# Elastic Compliance Matrix: (Units=1/GPa)
#
#
# Indices 1 2 3 4 5 6 
#
# 1 0.010257 -0.001697 -0.001730 0.000000 0.000000 0.000000
# 2 -0.001697 0.014442 -0.001125 0.000000 0.000000 0.000000
# 3 -0.001730 -0.001125 0.005105 0.000000 0.000000 0.000000
# 4 0.000000 0.000000 0.000000 0.027798 0.000000 0.000000
# 5 0.000000 0.000000 0.000000 0.000000 0.014239 0.000000
# 6 0.000000 0.000000 0.000000 0.000000 0.000000 0.059077
#
#
# Mechanical properties :
#
#
# Convention : Reuss Voigt Hill
#
# Bulk Modulus (GPa) = 48.30956 60.74396 54.52676
# Shear Modulus (GPa) = 34.03147 45.75438 39.89293
#
# Velocity S-wave (km/s) = 3.75232 4.35087 4.06263
# Velocity P-wave (km/s) = 6.22579 7.09731 6.67579
#
# Compressibility (1/GPa) = 0.02069984
#
# Stress axis : x y z
#
# Youngs Moduli (GPa) = 97.49029 69.24277 195.87269
#
# Poissons Ratio (x) = 0.11748 0.33892
# Poissons Ratio (y) = 0.16541 0.22045
# Poissons Ratio (z) = 0.16869 0.07793
#
# Static dielectric constant tensor:
#      x y z
#    x 1.986730 0.000000 0.000000 
#    y 0.000000 1.921320 0.000000 
#    z 0.000000 0.000000 1.945750 
# 
# From -- ./inp_files/15960.got.cif
#   From: 2010.05.17/outbox.cif.g08.bks.cpg/sg56_8_cif.got.tgz:15960.got - 2010.06.03 13:42:01.
