data_PCOD9432482
_publ_section_title
;
Structure prediction by ZEFSAII (Michael W. Deem and Ramdas Pophale) SiO2 
 PCOD9432482
Probable space group: P C C N
;
_chemical_formula_sum "Si O2"
_cell_formula_units_Z 60
_cell_length_a 5.486174
_cell_length_b 26.269238
_cell_length_c 19.340910
_cell_angle_alpha 90.000000
_cell_angle_beta 90.000000
_cell_angle_gamma 90.000000
_cell_volume 2787.365734
_symmetry_space_group_name_H-M "P C C N"
_symmetry_group_IT_number 56
_symmetry_cell_setting 'orthorhombic'
loop_
_space_group_symop_operation_xyz
x,y,z
1/2-x,1/2-y,z
1/2+x,-y,1/2-z
-x,1/2+y,1/2-z
-x,-y,-z
1/2+x,1/2+y,-z
1/2-x,y,1/2+z
x,1/2-y,1/2+z
loop_
_atom_site_type_symbol
_atom_site_label
_atom_site_fract_x
_atom_site_fract_y
_atom_site_fract_z
Si Si1 0.649302 0.919667 0.251526
Si Si2 0.955897 0.167631 0.337806
Si Si3 0.678082 0.481885 0.169959
Si Si4 0.866078 0.193187 0.711299
Si Si5 0.060676 0.398478 0.962360
Si Si6 0.561785 0.039640 0.440210
Si Si7 0.750000 0.750000 0.222514
Si Si8 0.491961 0.602738 0.378382
O O1 0.628373 0.874586 0.197811
O O2 0.386154 0.936052 0.279148
O O3 0.808569 0.905871 0.318221
O O4 0.727731 0.970994 0.213297
O O5 0.729009 0.169456 0.284265
O O6 0.968439 0.149611 0.416557
O O7 0.056742 0.223932 0.327008
O O8 0.451301 0.505916 0.129215
O O9 0.852812 0.451763 0.117840
O O10 0.750000 0.250000 0.699120
O O11 0.143836 0.207609 0.726843
O O12 0.843655 0.152324 0.650045
O O13 0.828688 0.436251 0.949789
O O14 0.325686 0.421811 0.939704
O O15 0.082090 0.387173 0.044026
O O16 0.500000 0.000000 0.500000
#
# Coordination Sequence:
#
# PCOD9432482 Si02
#       8
#     8   8   8   8   8   8   4   8
#     4  12  24  39  66  98 138 181 239 284 335 412
#     4  11  24  44  72 101 134 184 235 294 349 426
#     4  12  25  37  64  99 139 188 235 277 334 408
#     4  10  23  44  72  99 131 173 237 294 359 417
#     4  12  29  44  71 103 145 191 236 286 355 419
#     4  12  26  45  65  97 148 198 232 277 343 421
#     4  10  22  46  72 102 126 178 234 298 360 420
#     4  12  25  44  66 101 137 183 230 290 348 411
#
# _framework density 21.525701000000002
#
# number of rings (size 3 to 8) (size 9 to 14) (size 15 to 20)
#    0.000    0.533    6.667    1.200    7.467    0.000 
#    0.000    2.667    0.000    0.000    0.000    0.000 
#    0.000    0.000    0.000    0.000    0.000    0.000 
#
# Total GULP energy -334325.450510 kJ/mol
# GULP energy per Si atom -5572.090842 kJ/mol
# Density = 2.147671 g / cm^3
# Si number density = 21.525701 Si / 1000 Ang^3
#
#
#
# Elastic Constant Matrix: (Units=GPa)
#
#
# Indices 1 2 3 4 5 6 
#
# 1 44.3873 13.3234 -6.9061 0.0000 0.0000 0.0000
# 2 13.3234 93.9260 27.7072 0.0000 0.0000 0.0000
# 3 -6.9061 27.7072 97.7036 0.0000 0.0000 0.0000
# 4 0.0000 0.0000 0.0000 36.4171 0.0000 0.0000
# 5 0.0000 0.0000 0.0000 0.0000 25.5884 0.0000
# 6 0.0000 0.0000 0.0000 0.0000 0.0000 36.3362
#
#
#
# Elastic Compliance Matrix: (Units=1/GPa)
#
#
# Indices 1 2 3 4 5 6 
#
# 1 0.024280 -0.004311 0.002939 0.000000 0.000000 0.000000
# 2 -0.004311 0.012384 -0.003817 0.000000 0.000000 0.000000
# 3 0.002939 -0.003817 0.011525 0.000000 0.000000 0.000000
# 4 0.000000 0.000000 0.000000 0.027460 0.000000 0.000000
# 5 0.000000 0.000000 0.000000 0.000000 0.039080 0.000000
# 6 0.000000 0.000000 0.000000 0.000000 0.000000 0.027521
#
#
# Mechanical properties :
#
#
# Convention : Reuss Voigt Hill
#
# Bulk Modulus (GPa) = 26.44692 33.80730 30.12711
# Shear Modulus (GPa) = 30.26054 33.12785 31.69419
#
# Velocity S-wave (km/s) = 3.75345 3.92725 3.84133
# Velocity P-wave (km/s) = 5.57650 6.02529 5.80523
#
# Compressibility (1/GPa) = 0.03781158
#
# Stress axis : x y z
#
# Youngs Moduli (GPa) = 41.18573 80.74882 86.76706
#
# Poissons Ratio (x) = 0.34811 -0.25499
# Poissons Ratio (y) = 0.17755 0.33116
# Poissons Ratio (z) = -0.12104 0.30819
#
# Static dielectric constant tensor:
#      x y z
#    x 1.953690 0.000000 0.000000 
#    y 0.000000 1.836120 0.000000 
#    z 0.000000 0.000000 1.847040 
# 
# From -- ./inp_files/14165.got.cif
#   From: 2010.05.17/outbox.cif.g08.bks.cpg/sg56_8_cif.got.tgz:14165.got - 2010.06.03 13:42:01.
