data_PCOD9432682
_publ_section_title
;
Structure prediction by ZEFSAII (Michael W. Deem and Ramdas Pophale) SiO2 
 PCOD9432682
Probable space group: P C C N
;
_chemical_formula_sum "Si O2"
_cell_formula_units_Z 40
_cell_length_a 7.418135
_cell_length_b 19.259787
_cell_length_c 11.497278
_cell_angle_alpha 90.000000
_cell_angle_beta 90.000000
_cell_angle_gamma 90.000000
_cell_volume 1642.635654
_symmetry_space_group_name_H-M "P C C N"
_symmetry_group_IT_number 56
_symmetry_cell_setting 'orthorhombic'
loop_
_space_group_symop_operation_xyz
x,y,z
1/2-x,1/2-y,z
1/2+x,-y,1/2-z
-x,1/2+y,1/2-z
-x,-y,-z
1/2+x,1/2+y,-z
1/2-x,y,1/2+z
x,1/2-y,1/2+z
loop_
_atom_site_type_symbol
_atom_site_label
_atom_site_fract_x
_atom_site_fract_y
_atom_site_fract_z
Si Si1 0.615110 0.091316 0.530329
Si Si2 0.893101 0.848022 0.345099
Si Si3 0.162848 0.457068 0.344511
Si Si4 0.030790 0.893402 0.593576
Si Si5 0.980546 0.202023 0.192878
O O1 0.438498 0.078990 0.453720
O O2 0.623929 0.167717 0.584612
O O3 0.783816 0.072682 0.448721
O O4 0.619360 0.037683 0.637967
O O5 0.907838 0.917706 0.269221
O O6 0.945286 0.860543 0.477380
O O7 0.687186 0.822805 0.330498
O O8 0.014949 0.784617 0.298701
O O9 0.375279 0.443163 0.357140
O O10 0.073037 0.834243 0.687379
#
# Coordination Sequence:
#
# PCOD9432682 Si02
#       5
#     8   8   8   8   8
#     4  11  24  43  68  99 137 173 230 285 338 409
#     4  10  23  43  71  94 140 183 224 283 339 412
#     4  10  24  45  67  98 135 180 226 283 342 403
#     4  11  24  44  68 100 134 181 228 284 346 412
#     4  10  24  44  68 101 135 185 230 277 345 413
#
# _framework density 24.351109999999998
#
# number of rings (size 3 to 8) (size 9 to 14) (size 15 to 20)
#    0.000    1.600    2.000    0.600    5.600    7.200 
#    0.000    0.000    0.000    0.000    0.000    0.000 
#    0.000    0.000    0.000    0.000    0.000    0.000 
#
# Total GULP energy -224033.349788 kJ/mol
# GULP energy per Si atom -5600.833745 kJ/mol
# Density = 2.429569 g / cm^3
# Si number density = 24.351110 Si / 1000 Ang^3
#
#
#
# Elastic Constant Matrix: (Units=GPa)
#
#
# Indices 1 2 3 4 5 6 
#
# 1 104.2501 29.6478 27.0488 0.0000 0.0000 0.0000
# 2 29.6478 67.1654 25.5307 0.0000 0.0000 0.0000
# 3 27.0488 25.5307 78.4857 0.0000 0.0000 0.0000
# 4 0.0000 0.0000 0.0000 32.9269 0.0000 0.0000
# 5 0.0000 0.0000 0.0000 0.0000 31.4956 0.0000
# 6 0.0000 0.0000 0.0000 0.0000 0.0000 20.9341
#
#
#
# Elastic Compliance Matrix: (Units=1/GPa)
#
#
# Indices 1 2 3 4 5 6 
#
# 1 0.011423 -0.004046 -0.002621 0.000000 0.000000 0.000000
# 2 -0.004046 0.018423 -0.004598 0.000000 0.000000 0.000000
# 3 -0.002621 -0.004598 0.015140 0.000000 0.000000 0.000000
# 4 0.000000 0.000000 0.000000 0.030370 0.000000 0.000000
# 5 0.000000 0.000000 0.000000 0.000000 0.031750 0.000000
# 6 0.000000 0.000000 0.000000 0.000000 0.000000 0.047769
#
#
# Mechanical properties :
#
#
# Convention : Reuss Voigt Hill
#
# Bulk Modulus (GPa) = 44.53221 46.03951 45.28586
# Shear Modulus (GPa) = 27.04307 28.24959 27.64633
#
# Velocity S-wave (km/s) = 3.33610 3.40971 3.37311
# Velocity P-wave (km/s) = 5.75905 5.86933 5.81446
#
# Compressibility (1/GPa) = 0.02245566
#
# Stress axis : x y z
#
# Youngs Moduli (GPa) = 87.54317 54.28144 66.04995
#
# Poissons Ratio (x) = 0.21963 0.17309
# Poissons Ratio (y) = 0.35421 0.30371
# Poissons Ratio (z) = 0.22941 0.24960
#
# Static dielectric constant tensor:
#      x y z
#    x 2.010330 0.000000 0.000000 
#    y 0.000000 1.914010 0.000000 
#    z 0.000000 0.000000 1.870300 
# 
# From -- ./inp_files/6157.got.cif
#   From: 2010.05.17/outbox.cif.g08.bks.cpg/sg56_4_cif.got.tgz:6157.got - 2010.06.03 13:42:01.
