data_PCOD9432931
_publ_section_title
;
Structure prediction by ZEFSAII (Michael W. Deem and Ramdas Pophale) SiO2 
 PCOD9432931
Probable space group: P C C N
;
_chemical_formula_sum "Si O2"
_cell_formula_units_Z 48
_cell_length_a 22.706857
_cell_length_b 11.052493
_cell_length_c 8.949125
_cell_angle_alpha 90.000000
_cell_angle_beta 90.000000
_cell_angle_gamma 90.000000
_cell_volume 2245.938437
_symmetry_space_group_name_H-M "P C C N"
_symmetry_group_IT_number 56
_symmetry_cell_setting 'orthorhombic'
loop_
_space_group_symop_operation_xyz
x,y,z
1/2-x,1/2-y,z
1/2+x,-y,1/2-z
-x,1/2+y,1/2-z
-x,-y,-z
1/2+x,1/2+y,-z
1/2-x,y,1/2+z
x,1/2-y,1/2+z
loop_
_atom_site_type_symbol
_atom_site_label
_atom_site_fract_x
_atom_site_fract_y
_atom_site_fract_z
Si Si1 0.250943 0.015658 0.978027
Si Si2 0.998583 0.765843 0.000109
Si Si3 0.576805 0.367425 0.740425
Si Si4 0.202108 0.649928 0.720853
Si Si5 0.083838 0.352611 0.758079
Si Si6 0.806503 0.669945 0.783769
O O1 0.303249 0.078959 0.074671
O O2 0.207302 0.952834 0.094859
O O3 0.212408 0.101440 0.868825
O O4 0.278976 0.913670 0.874049
O O5 0.959560 0.840116 0.883294
O O6 0.041753 0.681372 0.902660
O O7 0.953483 0.688281 0.098693
O O8 0.035516 0.846535 0.116013
O O9 0.637397 0.295412 0.765417
O O10 0.597245 0.506098 0.724997
O O11 0.250000 0.750000 0.683526
O O12 0.137861 0.258302 0.735756
O O13 0.750000 0.750000 0.819561
#
# Coordination Sequence:
#
# PCOD9432931 Si02
#       6
#     8   8   8   8   8   8
#     4  10  24  44  64 108 138 171 221 280 352 404
#     4  10  26  46  68 100 134 182 234 280 340 408
#     4  11  25  46  69  97 139 178 230 286 335 410
#     4  11  25  43  71 100 135 184 226 273 343 409
#     4  11  24  45  74  97 137 176 232 282 346 413
#     4  11  24  40  68 104 136 171 215 279 353 402
#
# _framework density 21.371911000000001
#
# number of rings (size 3 to 8) (size 9 to 14) (size 15 to 20)
#    0.000    1.333    0.000    4.000   14.000    0.000 
#    0.000    0.000    0.000    0.000    0.000    0.000 
#    0.000    0.000    0.000    0.000    0.000    0.000 
#
# Total GULP energy -268340.887924 kJ/mol
# GULP energy per Si atom -5590.435165 kJ/mol
# Density = 2.132327 g / cm^3
# Si number density = 21.371911 Si / 1000 Ang^3
#
#
#
# Elastic Constant Matrix: (Units=GPa)
#
#
# Indices 1 2 3 4 5 6 
#
# 1 95.7667 14.5381 7.2445 0.0000 0.0000 0.0000
# 2 14.5381 72.5241 21.9864 0.0000 0.0000 0.0000
# 3 7.2445 21.9864 107.9858 0.0000 0.0000 0.0000
# 4 0.0000 0.0000 0.0000 16.7642 0.0000 0.0000
# 5 0.0000 0.0000 0.0000 0.0000 14.0238 0.0000
# 6 0.0000 0.0000 0.0000 0.0000 0.0000 6.5870
#
#
#
# Elastic Compliance Matrix: (Units=1/GPa)
#
#
# Indices 1 2 3 4 5 6 
#
# 1 0.010779 -0.002069 -0.000302 0.000000 0.000000 0.000000
# 2 -0.002069 0.015093 -0.002934 0.000000 0.000000 0.000000
# 3 -0.000302 -0.002934 0.009878 0.000000 0.000000 0.000000
# 4 0.000000 0.000000 0.000000 0.059651 0.000000 0.000000
# 5 0.000000 0.000000 0.000000 0.000000 0.071307 0.000000
# 6 0.000000 0.000000 0.000000 0.000000 0.000000 0.151815
#
#
# Mechanical properties :
#
#
# Convention : Reuss Voigt Hill
#
# Bulk Modulus (GPa) = 39.77802 40.42386 40.10094
# Shear Modulus (GPa) = 14.81424 22.97550 18.89487
#
# Velocity S-wave (km/s) = 2.63566 3.28233 2.97661
# Velocity P-wave (km/s) = 5.28346 5.77239 5.53333
#
# Compressibility (1/GPa) = 0.02513951
#
# Stress axis : x y z
#
# Youngs Moduli (GPa) = 92.77299 66.25661 101.23367
#
# Poissons Ratio (x) = 0.13710 0.03056
# Poissons Ratio (y) = 0.19197 0.29704
# Poissons Ratio (z) = 0.02800 0.19441
#
# Static dielectric constant tensor:
#      x y z
#    x 1.755920 0.000000 0.000000 
#    y 0.000000 1.941800 0.000000 
#    z 0.000000 0.000000 1.801760 
# 
# From -- ./inp_files/4750.got.cif
#   From: 2010.05.17/outbox.cif.g08.bks.cpg/sg56_3_cif.got.tgz:4750.got - 2010.06.03 13:42:01.
