data_PCOD9432288
_publ_section_title
;
Structure prediction by ZEFSAII (Michael W. Deem and Ramdas Pophale) SiO2 
 PCOD9432288
Probable space group: P C C N
;
_chemical_formula_sum "Si O2"
_cell_formula_units_Z 16
_cell_length_a 11.335751
_cell_length_b 4.801465
_cell_length_c 9.792170
_cell_angle_alpha 90.000000
_cell_angle_beta 90.000000
_cell_angle_gamma 90.000000
_cell_volume 532.970302
_symmetry_space_group_name_H-M "P C C N"
_symmetry_group_IT_number 56
_symmetry_cell_setting 'orthorhombic'
loop_
_space_group_symop_operation_xyz
x,y,z
1/2-x,1/2-y,z
1/2+x,-y,1/2-z
-x,1/2+y,1/2-z
-x,-y,-z
1/2+x,1/2+y,-z
1/2-x,y,1/2+z
x,1/2-y,1/2+z
loop_
_atom_site_type_symbol
_atom_site_label
_atom_site_fract_x
_atom_site_fract_y
_atom_site_fract_z
Si Si1 0.750000 0.750000 0.406923
Si Si2 0.043851 0.510010 0.730905
Si Si3 0.000000 0.500000 0.000000
O O1 0.823222 0.547730 0.307326
O O2 0.651113 0.573915 0.483943
O O3 0.975343 0.250761 0.638742
O O4 0.000417 0.782942 0.642566
#
# Coordination Sequence:
#
# PCOD9432288 Si02
#       3
#     4   8   4
#     4  10  22  42  68 106 142 188 244 302 370 450
#     4  10  23  42  65  97 135 181 238 291 353 437
#     4  10  22  42  70  98 144 192 238 306 376 432
#
# _framework density 30.020433000000001
#
# number of rings (size 3 to 8) (size 9 to 14) (size 15 to 20)
#    0.000    2.000    0.000    1.500    0.000   16.000 
#    0.000   20.000    0.000    0.000    0.000    0.000 
#    0.000    0.000    0.000    0.000    0.000    0.000 
#
# Total GULP energy -89175.694667 kJ/mol
# GULP energy per Si atom -5573.480917 kJ/mol
# Density = 2.995210 g / cm^3
# Si number density = 30.020433 Si / 1000 Ang^3
#
#
#
# Elastic Constant Matrix: (Units=GPa)
#
#
# Indices 1 2 3 4 5 6 
#
# 1 279.1805 115.1115 140.6461 0.0000 0.0000 0.0000
# 2 115.1115 399.2408 79.6155 0.0000 0.0000 0.0000
# 3 140.6461 79.6155 382.2266 0.0000 0.0000 0.0000
# 4 0.0000 0.0000 0.0000 74.6229 0.0000 0.0000
# 5 0.0000 0.0000 0.0000 0.0000 87.8228 0.0000
# 6 0.0000 0.0000 0.0000 0.0000 0.0000 84.0003
#
#
#
# Elastic Compliance Matrix: (Units=1/GPa)
#
#
# Indices 1 2 3 4 5 6 
#
# 1 0.004803 -0.001077 -0.001543 0.000000 0.000000 0.000000
# 2 -0.001077 0.002855 -0.000198 0.000000 0.000000 0.000000
# 3 -0.001543 -0.000198 0.003225 0.000000 0.000000 0.000000
# 4 0.000000 0.000000 0.000000 0.013401 0.000000 0.000000
# 5 0.000000 0.000000 0.000000 0.000000 0.011387 0.000000
# 6 0.000000 0.000000 0.000000 0.000000 0.000000 0.011905
#
#
# Mechanical properties :
#
#
# Convention : Reuss Voigt Hill
#
# Bulk Modulus (GPa) = 190.60494 192.37710 191.49102
# Shear Modulus (GPa) = 90.97222 97.64085 94.30653
#
# Velocity S-wave (km/s) = 5.51083 5.70924 5.61091
# Velocity P-wave (km/s) = 10.20401 10.37698 10.29086
#
# Compressibility (1/GPa) = 0.00524645
#
# Stress axis : x y z
#
# Youngs Moduli (GPa) = 208.18235 350.27628 310.04236
#
# Poissons Ratio (x) = 0.37733 0.47844
# Poissons Ratio (y) = 0.22426 0.06147
# Poissons Ratio (z) = 0.32125 0.06945
#
# Static dielectric constant tensor:
#      x y z
#    x 1.993830 0.000000 0.000000 
#    y 0.000000 2.347410 0.000000 
#    z 0.000000 0.000000 2.579120 
# 
# From -- ./inp_files/5263.got.cif
#   From: 2010.05.17/outbox.cif.g08.bks.cpg/sg56_3_cif.got.tgz:5263.got - 2010.06.03 13:42:01.
