data_PCOD9432920
_publ_section_title
;
Structure prediction by ZEFSAII (Michael W. Deem and Ramdas Pophale) SiO2 
 PCOD9432920
Probable space group: P C C N
;
_chemical_formula_sum "Si O2"
_cell_formula_units_Z 52
_cell_length_a 26.923502
_cell_length_b 5.621428
_cell_length_c 14.063062
_cell_angle_alpha 90.000000
_cell_angle_beta 90.000000
_cell_angle_gamma 90.000000
_cell_volume 2128.423733
_symmetry_space_group_name_H-M "P C C N"
_symmetry_group_IT_number 56
_symmetry_cell_setting 'orthorhombic'
loop_
_space_group_symop_operation_xyz
x,y,z
1/2-x,1/2-y,z
1/2+x,-y,1/2-z
-x,1/2+y,1/2-z
-x,-y,-z
1/2+x,1/2+y,-z
1/2-x,y,1/2+z
x,1/2-y,1/2+z
loop_
_atom_site_type_symbol
_atom_site_label
_atom_site_fract_x
_atom_site_fract_y
_atom_site_fract_z
Si Si1 0.250000 0.250000 0.683374
Si Si2 0.198760 0.817682 0.671396
Si Si3 0.664097 0.860760 0.685525
Si Si4 0.406728 0.028612 0.912430
Si Si5 0.845084 0.361265 0.510653
Si Si6 0.473121 0.563505 0.248784
Si Si7 0.551758 0.594902 0.958270
O O1 0.277643 0.447421 0.621268
O O2 0.204235 0.297918 0.757881
O O3 0.250000 0.750000 0.724904
O O4 0.179507 0.645604 0.591952
O O5 0.157999 0.914707 0.743072
O O6 0.613915 0.729143 0.660053
O O7 0.682352 0.976319 0.587162
O O8 0.441266 0.878086 0.842942
O O9 0.356972 0.899912 0.949020
O O10 0.436699 0.141143 0.000855
O O11 0.900935 0.455069 0.498305
O O12 0.495543 0.823951 0.221576
O O13 0.447815 0.457027 0.153776
O O14 0.500000 0.500000 0.000000
#
# Coordination Sequence:
#
# PCOD9432920 Si02
#       7
#     4   8   8   8   8   8   8
#     4   8  22  42  70  94 140 174 236 290 378 434
#     4  10  24  43  70 102 140 185 236 304 370 446
#     4   9  24  44  66 100 137 185 234 299 373 446
#     4  11  26  44  71 100 143 186 244 302 370 444
#     4  11  26  42  73 106 142 190 251 300 376 458
#     4  12  28  45  77 105 147 198 248 306 379 448
#     4  11  25  48  69 107 148 190 244 309 371 452
#
# _framework density 24.431222999999999
#
# number of rings (size 3 to 8) (size 9 to 14) (size 15 to 20)
#    0.923    0.615    1.538    0.923   10.769    5.538 
#    0.000    0.000    0.000    0.000    0.000    0.000 
#    0.000    0.000    0.000    0.000    0.000    0.000 
#
# Total GULP energy -289509.174847 kJ/mol
# GULP energy per Si atom -5567.484132 kJ/mol
# Density = 2.437562 g / cm^3
# Si number density = 24.431223 Si / 1000 Ang^3
#
#
#
# Elastic Constant Matrix: (Units=GPa)
#
#
# Indices 1 2 3 4 5 6 
#
# 1 61.5822 13.3128 20.8794 0.0000 0.0000 0.0000
# 2 13.3128 47.5155 10.8830 0.0000 0.0000 0.0000
# 3 20.8794 10.8830 102.4187 0.0000 0.0000 0.0000
# 4 0.0000 0.0000 0.0000 41.5791 0.0000 0.0000
# 5 0.0000 0.0000 0.0000 0.0000 34.4301 0.0000
# 6 0.0000 0.0000 0.0000 0.0000 0.0000 31.2786
#
#
#
# Elastic Compliance Matrix: (Units=1/GPa)
#
#
# Indices 1 2 3 4 5 6 
#
# 1 0.018291 -0.004377 -0.003264 0.000000 0.000000 0.000000
# 2 -0.004377 0.022618 -0.001511 0.000000 0.000000 0.000000
# 3 -0.003264 -0.001511 0.010590 0.000000 0.000000 0.000000
# 4 0.000000 0.000000 0.000000 0.024051 0.000000 0.000000
# 5 0.000000 0.000000 0.000000 0.000000 0.029044 0.000000
# 6 0.000000 0.000000 0.000000 0.000000 0.000000 0.031971
#
#
# Mechanical properties :
#
#
# Convention : Reuss Voigt Hill
#
# Bulk Modulus (GPa) = 30.12491 33.51854 31.82173
# Shear Modulus (GPa) = 30.13240 32.55364 31.34302
#
# Velocity S-wave (km/s) = 3.51573 3.65425 3.58566
# Velocity P-wave (km/s) = 5.37008 5.61730 5.49508
#
# Compressibility (1/GPa) = 0.03319512
#
# Stress axis : x y z
#
# Youngs Moduli (GPa) = 54.67071 44.21202 94.43070
#
# Poissons Ratio (x) = 0.19353 0.30820
# Poissons Ratio (y) = 0.23931 0.14269
# Poissons Ratio (z) = 0.17843 0.06681
#
# Static dielectric constant tensor:
#      x y z
#    x 1.936480 0.000000 0.000000 
#    y 0.000000 2.339090 0.000000 
#    z 0.000000 0.000000 1.892390 
# 
# From -- ./inp_files/13472.got.cif
#   From: 2010.05.17/outbox.cif.g08.bks.cpg/sg56_7_cif.got.tgz:13472.got - 2010.06.03 13:42:01.
