data_PCOD9432039
_publ_section_title
;
Structure prediction by ZEFSAII (Michael W. Deem and Ramdas Pophale) SiO2 
 PCOD9432039
Probable space group: P C C N
;
_chemical_formula_sum "Si O2"
_cell_formula_units_Z 56
_cell_length_a 16.314885
_cell_length_b 5.225050
_cell_length_c 30.783580
_cell_angle_alpha 90.000000
_cell_angle_beta 90.000000
_cell_angle_gamma 90.000000
_cell_volume 2624.179827
_symmetry_space_group_name_H-M "P C C N"
_symmetry_group_IT_number 56
_symmetry_cell_setting 'orthorhombic'
loop_
_space_group_symop_operation_xyz
x,y,z
1/2-x,1/2-y,z
1/2+x,-y,1/2-z
-x,1/2+y,1/2-z
-x,-y,-z
1/2+x,1/2+y,-z
1/2-x,y,1/2+z
x,1/2-y,1/2+z
loop_
_atom_site_type_symbol
_atom_site_label
_atom_site_fract_x
_atom_site_fract_y
_atom_site_fract_z
Si Si1 0.341286 0.135568 0.395187
Si Si2 0.164158 0.655299 0.303628
Si Si3 0.929180 0.340830 0.525064
Si Si4 0.346105 0.786408 0.562840
Si Si5 0.463538 0.999715 0.844444
Si Si6 0.558723 0.804388 0.914064
Si Si7 0.958163 0.971059 0.262170
O O1 0.250000 0.250000 0.405515
O O2 0.414389 0.323791 0.378425
O O3 0.326470 0.970534 0.351356
O O4 0.377741 0.990207 0.437570
O O5 0.250000 0.750000 0.287554
O O6 0.123065 0.485767 0.266600
O O7 0.106943 0.897715 0.313031
O O8 0.868799 0.242163 0.487987
O O9 0.000000 0.500000 0.500000
O O10 0.988342 0.145914 0.549937
O O11 0.250000 0.750000 0.568823
O O12 0.391179 0.564629 0.589422
O O13 0.383656 0.063956 0.575022
O O14 0.534030 0.087709 0.810900
O O15 0.505767 0.769025 0.870808
O O16 0.016164 0.174482 0.236746
#
# Coordination Sequence:
#
# PCOD9432039 Si02
#       7
#     8   8   8   8   8   8   8
#     4  12  23  39  63 101 140 177 221 288 349 402
#     4  11  22  40  62 101 136 171 218 278 344 397
#     4  10  23  41  62  95 128 175 225 274 335 410
#     4  11  25  44  67  91 134 174 229 284 343 395
#     4  11  22  39  67  93 137 176 227 270 333 411
#     4  11  23  42  68  97 128 175 225 283 330 403
#     4  10  22  39  65  94 129 176 219 260 328 408
#
# _framework density 21.340001000000001
#
# number of rings (size 3 to 8) (size 9 to 14) (size 15 to 20)
#    0.000    1.143    4.286    2.571    0.000    5.143 
#    0.000    0.714    0.000    8.571    0.000    0.000 
#    0.000    0.000    0.000    0.000    0.000    0.000 
#
# Total GULP energy -311946.011839 kJ/mol
# GULP energy per Si atom -5570.464497 kJ/mol
# Density = 2.129143 g / cm^3
# Si number density = 21.340001 Si / 1000 Ang^3
#
#
#
# Elastic Constant Matrix: (Units=GPa)
#
#
# Indices 1 2 3 4 5 6 
#
# 1 94.7202 11.4675 42.1598 0.0000 0.0000 0.0000
# 2 11.4675 54.1512 8.6066 0.0000 0.0000 0.0000
# 3 42.1598 8.6066 74.8449 0.0000 0.0000 0.0000
# 4 0.0000 0.0000 0.0000 25.9508 0.0000 0.0000
# 5 0.0000 0.0000 0.0000 0.0000 27.3203 0.0000
# 6 0.0000 0.0000 0.0000 0.0000 0.0000 28.5119
#
#
#
# Elastic Compliance Matrix: (Units=1/GPa)
#
#
# Indices 1 2 3 4 5 6 
#
# 1 0.014256 -0.001775 -0.007826 0.000000 0.000000 0.000000
# 2 -0.001775 0.019032 -0.001189 0.000000 0.000000 0.000000
# 3 -0.007826 -0.001189 0.017906 0.000000 0.000000 0.000000
# 4 0.000000 0.000000 0.000000 0.038534 0.000000 0.000000
# 5 0.000000 0.000000 0.000000 0.000000 0.036603 0.000000
# 6 0.000000 0.000000 0.000000 0.000000 0.000000 0.035073
#
#
# Mechanical properties :
#
#
# Convention : Reuss Voigt Hill
#
# Bulk Modulus (GPa) = 33.76793 38.68713 36.22753
# Shear Modulus (GPa) = 25.92629 27.12208 26.52418
#
# Velocity S-wave (km/s) = 3.48934 3.56891 3.52935
# Velocity P-wave (km/s) = 5.66499 5.92883 5.79841
#
# Compressibility (1/GPa) = 0.02961389
#
# Stress axis : x y z
#
# Youngs Moduli (GPa) = 70.14755 52.54410 55.84717
#
# Poissons Ratio (x) = 0.09327 0.43706
# Poissons Ratio (y) = 0.12452 0.06638
# Poissons Ratio (z) = 0.54898 0.06246
#
# Static dielectric constant tensor:
#      x y z
#    x 1.797330 0.000000 0.000000 
#    y 0.000000 1.832880 0.000000 
#    z 0.000000 0.000000 1.846330 
# 
# From -- ./inp_files/23614.got.cif
#   From: 2010.05.17/outbox.cif.g08.bks.cpg/sg56_12_cif.got.tgz:23614.got - 2010.06.03 13:42:01.
