data_PCOD9432024
_publ_section_title
;
Structure prediction by ZEFSAII (Michael W. Deem and Ramdas Pophale) SiO2 
 PCOD9432024
Probable space group: P C C N
;
_chemical_formula_sum "Si O2"
_cell_formula_units_Z 36
_cell_length_a 5.391639
_cell_length_b 12.499486
_cell_length_c 24.921061
_cell_angle_alpha 90.000000
_cell_angle_beta 90.000000
_cell_angle_gamma 90.000000
_cell_volume 1679.497991
_symmetry_space_group_name_H-M "P C C N"
_symmetry_group_IT_number 56
_symmetry_cell_setting 'orthorhombic'
loop_
_space_group_symop_operation_xyz
x,y,z
1/2-x,1/2-y,z
1/2+x,-y,1/2-z
-x,1/2+y,1/2-z
-x,-y,-z
1/2+x,1/2+y,-z
1/2-x,y,1/2+z
x,1/2-y,1/2+z
loop_
_atom_site_type_symbol
_atom_site_label
_atom_site_fract_x
_atom_site_fract_y
_atom_site_fract_z
Si Si1 0.780400 0.503846 0.070299
Si Si2 0.776077 0.376643 0.462273
Si Si3 0.436789 0.562097 0.824791
Si Si4 0.355203 0.640897 0.223295
Si Si5 0.750000 0.750000 0.301655
O O1 0.540996 0.580513 0.059591
O O2 0.762857 0.453293 0.129202
O O3 0.040085 0.565037 0.064756
O O4 0.750857 0.414076 0.024350
O O5 0.750000 0.250000 0.456763
O O6 0.573596 0.449456 0.818244
O O7 0.335025 0.589287 0.765590
O O8 0.602916 0.664932 0.837084
O O9 0.250000 0.750000 0.198313
O O10 0.577395 0.680718 0.261792
#
# Coordination Sequence:
#
# PCOD9432024 Si02
#       5
#     8   8   8   8   4
#     4  10  24  41  70  98 129 171 225 270 339 389
#     4  10  22  46  65  97 132 171 216 284 333 404
#     4  11  22  41  65  95 131 172 221 273 321 410
#     4  10  22  39  62  90 132 171 215 267 325 387
#     4  10  22  40  60  92 126 176 214 270 326 378
#
# _framework density 21.434978000000001
#
# number of rings (size 3 to 8) (size 9 to 14) (size 15 to 20)
#    0.000    1.778    2.222    0.667    3.111    3.556 
#   12.000    0.000    0.000    0.000    0.000    0.000 
#    0.000    0.000    0.000    0.000    0.000    0.000 
#
# Total GULP energy -201170.653111 kJ/mol
# GULP energy per Si atom -5588.073698 kJ/mol
# Density = 2.138619 g / cm^3
# Si number density = 21.434978 Si / 1000 Ang^3
#
#
#
# Elastic Constant Matrix: (Units=GPa)
#
#
# Indices 1 2 3 4 5 6 
#
# 1 65.4337 11.9426 -1.7392 0.0000 0.0000 0.0000
# 2 11.9426 101.1259 30.8295 0.0000 0.0000 0.0000
# 3 -1.7392 30.8295 59.3232 0.0000 0.0000 0.0000
# 4 0.0000 0.0000 0.0000 -6.5197 0.0000 0.0000
# 5 0.0000 0.0000 0.0000 0.0000 26.2833 0.0000
# 6 0.0000 0.0000 0.0000 0.0000 0.0000 18.7283
#
#
#
# Elastic Compliance Matrix: (Units=1/GPa)
#
#
# Indices 1 2 3 4 5 6 
#
# 1 0.015762 -0.002379 0.001699 0.000000 0.000000 0.000000
# 2 -0.002379 0.012109 -0.006363 0.000000 0.000000 0.000000
# 3 0.001699 -0.006363 0.020213 0.000000 0.000000 0.000000
# 4 0.000000 0.000000 0.000000 -0.153381 0.000000 0.000000
# 5 0.000000 0.000000 0.000000 0.000000 0.038047 0.000000
# 6 0.000000 0.000000 0.000000 0.000000 0.000000 0.053395
#
#
# Mechanical properties :
#
#
# Convention : Reuss Voigt Hill
#
# Bulk Modulus (GPa) = 29.41378 34.21651 31.81514
# Shear Modulus (GPa) = 432.32455 20.02171 226.17313
#
# Velocity S-wave (km/s) = 14.21721 3.05957 10.28324
# Velocity P-wave (km/s) = 16.83025 5.33656 12.48472
#
# Compressibility (1/GPa) = 0.03399767
#
# Stress axis : x y z
#
# Youngs Moduli (GPa) = 63.44352 82.58020 49.47241
#
# Poissons Ratio (x) = 0.19648 -0.08403
# Poissons Ratio (y) = 0.15095 0.31479
# Poissons Ratio (z) = -0.10776 0.52545
#
# Static dielectric constant tensor:
#      x y z
#    x 1.840830 0.000000 0.000000 
#    y 0.000000 2.212240 0.000000 
#    z 0.000000 0.000000 1.732790 
# 
# From -- ./inp_files/19902.got.cif
#   From: 2010.05.17/outbox.cif.g08.bks.cpg/sg56_10_cif.got.tgz:19902.got - 2010.06.03 13:42:01.
