data_PCOD9432798
_publ_section_title
;
Structure prediction by ZEFSAII (Michael W. Deem and Ramdas Pophale) SiO2 
 PCOD9432798
Probable space group: P C C N
;
_chemical_formula_sum "Si O2"
_cell_formula_units_Z 32
_cell_length_a 7.702902
_cell_length_b 10.209976
_cell_length_c 14.786575
_cell_angle_alpha 90.000000
_cell_angle_beta 90.000000
_cell_angle_gamma 90.000000
_cell_volume 1162.911551
_symmetry_space_group_name_H-M "P C C N"
_symmetry_group_IT_number 56
_symmetry_cell_setting 'orthorhombic'
loop_
_space_group_symop_operation_xyz
x,y,z
1/2-x,1/2-y,z
1/2+x,-y,1/2-z
-x,1/2+y,1/2-z
-x,-y,-z
1/2+x,1/2+y,-z
1/2-x,y,1/2+z
x,1/2-y,1/2+z
loop_
_atom_site_type_symbol
_atom_site_label
_atom_site_fract_x
_atom_site_fract_y
_atom_site_fract_z
Si Si1 0.453018 0.716239 0.868476
Si Si2 0.148555 0.104173 0.487379
Si Si3 0.636576 0.047621 0.387383
Si Si4 0.477987 0.811601 0.170613
O O1 0.250000 0.750000 0.888697
O O2 0.581689 0.785849 0.940406
O O3 0.510490 0.564547 0.849889
O O4 0.487800 0.763110 0.765478
O O5 0.144929 0.131558 0.380221
O O6 0.311313 0.021649 0.519394
O O7 0.000000 0.000000 0.500000
O O8 0.818261 0.083537 0.333972
O O9 0.565397 0.192425 0.397845
#
# Coordination Sequence:
#
# PCOD9432798 Si02
#       4
#     8   8   8   8
#     4  12  26  44  76 113 152 199 249 320 392 462
#     4  10  25  47  75 105 154 199 257 317 377 467
#     4  10  23  48  71 105 152 194 262 307 382 469
#     4  10  24  47  76 110 153 198 257 327 383 457
#
# _framework density 27.517137000000002
#
# number of rings (size 3 to 8) (size 9 to 14) (size 15 to 20)
#    0.000    1.500    2.500    0.750   14.000    1.000 
#    4.500    5.000    0.000    0.000    0.000    0.000 
#    0.000    0.000    0.000    0.000    0.000    0.000 
#
# Total GULP energy -178395.738508 kJ/mol
# GULP energy per Si atom -5574.866828 kJ/mol
# Density = 2.745451 g / cm^3
# Si number density = 27.517137 Si / 1000 Ang^3
#
#
#
# Elastic Constant Matrix: (Units=GPa)
#
#
# Indices 1 2 3 4 5 6 
#
# 1 122.7462 41.5336 36.0118 0.0000 0.0000 0.0000
# 2 41.5336 149.9845 -0.2619 0.0000 0.0000 0.0000
# 3 36.0118 -0.2619 122.7760 0.0000 0.0000 0.0000
# 4 0.0000 0.0000 0.0000 38.8551 0.0000 0.0000
# 5 0.0000 0.0000 0.0000 0.0000 6.6935 0.0000
# 6 0.0000 0.0000 0.0000 0.0000 0.0000 61.4459
#
#
#
# Elastic Compliance Matrix: (Units=1/GPa)
#
#
# Indices 1 2 3 4 5 6 
#
# 1 0.009936 -0.002757 -0.002920 0.000000 0.000000 0.000000
# 2 -0.002757 0.007432 0.000824 0.000000 0.000000 0.000000
# 3 -0.002920 0.000824 0.009003 0.000000 0.000000 0.000000
# 4 0.000000 0.000000 0.000000 0.025737 0.000000 0.000000
# 5 0.000000 0.000000 0.000000 0.000000 0.149399 0.000000
# 6 0.000000 0.000000 0.000000 0.000000 0.000000 0.016274
#
#
# Mechanical properties :
#
#
# Convention : Reuss Voigt Hill
#
# Bulk Modulus (GPa) = 60.00018 61.11929 60.55974
# Shear Modulus (GPa) = 21.45527 42.61379 32.03453
#
# Velocity S-wave (km/s) = 2.79535 3.93953 3.41569
# Velocity P-wave (km/s) = 5.68073 6.55384 6.13284
#
# Compressibility (1/GPa) = 0.01666662
#
# Stress axis : x y z
#
# Youngs Moduli (GPa) = 100.63943 134.55011 111.07088
#
# Poissons Ratio (x) = 0.37091 0.32437
# Poissons Ratio (y) = 0.27743 -0.09157
# Poissons Ratio (z) = 0.29390 -0.11093
#
# Static dielectric constant tensor:
#      x y z
#    x 2.348140 0.000000 0.000000 
#    y 0.000000 2.220690 0.000000 
#    z 0.000000 0.000000 2.410970 
# 
# From -- ./inp_files/10172.got.cif
#   From: 2010.05.17/outbox.cif.g08.bks.cpg/sg56_6_cif.got.tgz:10172.got - 2010.06.03 13:42:01.
