data_PCOD9432797
_publ_section_title
;
Structure prediction by ZEFSAII (Michael W. Deem and Ramdas Pophale) SiO2 
 PCOD9432797
Probable space group: P C C N
;
_chemical_formula_sum "Si O2"
_cell_formula_units_Z 64
_cell_length_a 22.652807
_cell_length_b 9.532133
_cell_length_c 14.030194
_cell_angle_alpha 90.000000
_cell_angle_beta 90.000000
_cell_angle_gamma 90.000000
_cell_volume 3029.533745
_symmetry_space_group_name_H-M "P C C N"
_symmetry_group_IT_number 56
_symmetry_cell_setting 'orthorhombic'
loop_
_space_group_symop_operation_xyz
x,y,z
1/2-x,1/2-y,z
1/2+x,-y,1/2-z
-x,1/2+y,1/2-z
-x,-y,-z
1/2+x,1/2+y,-z
1/2-x,y,1/2+z
x,1/2-y,1/2+z
loop_
_atom_site_type_symbol
_atom_site_label
_atom_site_fract_x
_atom_site_fract_y
_atom_site_fract_z
Si Si1 0.344395 0.041691 0.807858
Si Si2 0.022542 0.187886 0.106822
Si Si3 0.615109 0.659536 0.269914
Si Si4 0.442855 0.870523 0.559360
Si Si5 0.914053 0.220877 0.738192
Si Si6 0.748522 0.918864 0.046531
Si Si7 0.740607 0.581325 0.330709
Si Si8 0.633029 0.451004 0.124555
O O1 0.365308 0.197352 0.781768
O O2 0.313606 0.034759 0.909902
O O3 0.289420 0.012154 0.736451
O O4 0.397313 0.935507 0.793137
O O5 0.075618 0.288003 0.141675
O O6 0.972434 0.223473 0.184933
O O7 0.039871 0.023143 0.102930
O O8 0.995089 0.204994 0.000769
O O9 0.671690 0.572612 0.306906
O O10 0.591967 0.560426 0.184460
O O11 0.420809 0.779212 0.648172
O O12 0.395946 0.906715 0.475853
O O13 0.863043 0.316456 0.692425
O O14 0.750000 0.750000 0.053605
O O15 0.804631 0.977705 0.102774
O O16 0.753310 0.962508 0.937772
O O17 0.750000 0.750000 0.323747
#
# Coordination Sequence:
#
# PCOD9432797 Si02
#       8
#     8   8   8   8   8   8   8   8
#     4  11  20  41  65  94 140 177 220 289 351 402
#     4  10  24  40  71  98 130 185 236 275 345 418
#     4  11  21  40  67 102 135 174 231 294 338 404
#     4  10  23  48  70  97 136 191 227 283 361 421
#     4  11  25  44  67  99 139 184 231 285 350 418
#     4  11  20  37  66 101 130 175 229 278 340 418
#     4   9  20  36  63 100 130 171 228 273 341 410
#     4  11  24  42  73 101 135 179 235 281 350 424
#
# _framework density 21.125361999999999
#
# number of rings (size 3 to 8) (size 9 to 14) (size 15 to 20)
#    0.000    1.500    3.750    1.125    8.750    0.500 
#    4.500    0.625    2.750    0.000    0.000    0.000 
#    0.000    0.000    0.000    0.000    0.000    0.000 
#
# Total GULP energy -357032.429075 kJ/mol
# GULP energy per Si atom -5578.631704 kJ/mol
# Density = 2.107728 g / cm^3
# Si number density = 21.125362 Si / 1000 Ang^3
#
#
#
# Elastic Constant Matrix: (Units=GPa)
#
#
# Indices 1 2 3 4 5 6 
#
# 1 42.2986 12.2778 25.5161 0.0000 0.0000 0.0000
# 2 12.2778 51.7761 43.4206 0.0000 0.0000 0.0000
# 3 25.5161 43.4206 125.2446 0.0000 0.0000 0.0000
# 4 0.0000 0.0000 0.0000 36.3674 0.0000 0.0000
# 5 0.0000 0.0000 0.0000 0.0000 19.8065 0.0000
# 6 0.0000 0.0000 0.0000 0.0000 0.0000 16.1863
#
#
#
# Elastic Compliance Matrix: (Units=1/GPa)
#
#
# Indices 1 2 3 4 5 6 
#
# 1 0.027189 -0.002541 -0.004658 0.000000 0.000000 0.000000
# 2 -0.002541 0.027468 -0.009005 0.000000 0.000000 0.000000
# 3 -0.004658 -0.009005 0.012055 0.000000 0.000000 0.000000
# 4 0.000000 0.000000 0.000000 0.027497 0.000000 0.000000
# 5 0.000000 0.000000 0.000000 0.000000 0.050488 0.000000
# 6 0.000000 0.000000 0.000000 0.000000 0.000000 0.061781
#
#
# Mechanical properties :
#
#
# Convention : Reuss Voigt Hill
#
# Bulk Modulus (GPa) = 29.15111 42.41647 35.78379
# Shear Modulus (GPa) = 19.97420 23.67903 21.82662
#
# Velocity S-wave (km/s) = 3.07825 3.35159 3.21782
# Velocity P-wave (km/s) = 5.14424 5.92449 5.54810
#
# Compressibility (1/GPa) = 0.03430401
#
# Stress axis : x y z
#
# Youngs Moduli (GPa) = 36.77950 36.40535 82.95009
#
# Poissons Ratio (x) = 0.09250 0.38641
# Poissons Ratio (y) = 0.09345 0.74699
# Poissons Ratio (z) = 0.17133 0.32784
#
# Static dielectric constant tensor:
#      x y z
#    x 1.825640 0.000000 0.000000 
#    y 0.000000 1.768640 0.000000 
#    z 0.000000 0.000000 1.791770 
# 
# From -- ./inp_files/13300.got.cif
#   From: 2010.05.17/outbox.cif.g08.bks.cpg/sg56_7_cif.got.tgz:13300.got - 2010.06.03 13:42:01.
