data_PCOD9432622
_publ_section_title
;
Structure prediction by ZEFSAII (Michael W. Deem and Ramdas Pophale) SiO2 
 PCOD9432622
Probable space group: P C C N
;
_chemical_formula_sum "Si O2"
_cell_formula_units_Z 24
_cell_length_a 6.641851
_cell_length_b 8.092300
_cell_length_c 16.907835
_cell_angle_alpha 90.000000
_cell_angle_beta 90.000000
_cell_angle_gamma 90.000000
_cell_volume 908.759794
_symmetry_space_group_name_H-M "P C C N"
_symmetry_group_IT_number 56
_symmetry_cell_setting 'orthorhombic'
loop_
_space_group_symop_operation_xyz
x,y,z
1/2-x,1/2-y,z
1/2+x,-y,1/2-z
-x,1/2+y,1/2-z
-x,-y,-z
1/2+x,1/2+y,-z
1/2-x,y,1/2+z
x,1/2-y,1/2+z
loop_
_atom_site_type_symbol
_atom_site_label
_atom_site_fract_x
_atom_site_fract_y
_atom_site_fract_z
Si Si1 0.769915 0.057145 0.018344
Si Si2 0.709821 0.552399 0.355746
Si Si3 0.366911 0.422988 0.819036
O O1 0.750000 0.250000 0.007347
O O2 0.748701 0.022948 0.112557
O O3 0.645526 0.971716 0.946813
O O4 0.000000 0.000000 0.000000
O O5 0.750000 0.750000 0.351438
O O6 0.608549 0.513712 0.271136
O O7 0.904181 0.432438 0.348205
O O8 0.250000 0.250000 0.818384
#
# Coordination Sequence:
#
# PCOD9432622 Si02
#       3
#     8   8   8
#     4  10  23  42  66  94 130 170 214 264 320 382
#     4  10  23  44  68  97 131 171 216 267 322 383
#     4  10  23  44  68  97 131 171 216 267 322 383
#
# _framework density 26.409617000000001
#
# number of rings (size 3 to 8) (size 9 to 14) (size 15 to 20)
#    0.000    2.000    0.000    1.000    0.000   22.667 
#    0.000   15.000    0.000    0.000    0.000    0.000 
#    0.000    0.000    0.000    0.000    0.000    0.000 
#
# Total GULP energy -133874.584556 kJ/mol
# GULP energy per Si atom -5578.107690 kJ/mol
# Density = 2.634951 g / cm^3
# Si number density = 26.409617 Si / 1000 Ang^3
#
#
#
# Elastic Constant Matrix: (Units=GPa)
#
#
# Indices 1 2 3 4 5 6 
#
# 1 53.5599 14.4288 31.0292 0.0000 0.0000 0.0000
# 2 14.4288 134.1436 42.0143 0.0000 0.0000 0.0000
# 3 31.0292 42.0143 325.3845 0.0000 0.0000 0.0000
# 4 0.0000 0.0000 0.0000 40.8720 0.0000 0.0000
# 5 0.0000 0.0000 0.0000 0.0000 75.9049 0.0000
# 6 0.0000 0.0000 0.0000 0.0000 0.0000 38.5580
#
#
#
# Elastic Compliance Matrix: (Units=1/GPa)
#
#
# Indices 1 2 3 4 5 6 
#
# 1 0.020098 -0.001627 -0.001706 0.000000 0.000000 0.000000
# 2 -0.001627 0.007901 -0.000865 0.000000 0.000000 0.000000
# 3 -0.001706 -0.000865 0.003348 0.000000 0.000000 0.000000
# 4 0.000000 0.000000 0.000000 0.024467 0.000000 0.000000
# 5 0.000000 0.000000 0.000000 0.000000 0.013174 0.000000
# 6 0.000000 0.000000 0.000000 0.000000 0.000000 0.025935
#
#
# Mechanical properties :
#
#
# Convention : Reuss Voigt Hill
#
# Bulk Modulus (GPa) = 43.57557 76.44807 60.01182
# Shear Modulus (GPa) = 45.05768 59.44138 52.24953
#
# Velocity S-wave (km/s) = 4.13499 4.74935 4.45278
# Velocity P-wave (km/s) = 6.27162 7.68668 7.01492
#
# Compressibility (1/GPa) = 0.02294864
#
# Stress axis : x y z
#
# Youngs Moduli (GPa) = 49.75699 126.57196 298.71244
#
# Poissons Ratio (x) = 0.20597 0.50973
# Poissons Ratio (y) = 0.08097 0.25838
# Poissons Ratio (z) = 0.08491 0.10948
#
# Static dielectric constant tensor:
#      x y z
#    x 1.909270 0.000000 0.000000 
#    y 0.000000 1.916670 0.000000 
#    z 0.000000 0.000000 2.167080 
# 
# From -- ./inp_files/14245.got.cif
#   From: 2010.05.17/outbox.cif.g08.bks.cpg/sg56_8_cif.got.tgz:14245.got - 2010.06.03 13:42:01.
