data_PCOD9432699
_publ_section_title
;
Structure prediction by ZEFSAII (Michael W. Deem and Ramdas Pophale) SiO2 
 PCOD9432699
Probable space group: P C C N
;
_chemical_formula_sum "Si O2"
_cell_formula_units_Z 32
_cell_length_a 11.430452
_cell_length_b 10.002005
_cell_length_c 13.801702
_cell_angle_alpha 90.000000
_cell_angle_beta 90.000000
_cell_angle_gamma 90.000000
_cell_volume 1577.913230
_symmetry_space_group_name_H-M "P C C N"
_symmetry_group_IT_number 56
_symmetry_cell_setting 'orthorhombic'
loop_
_space_group_symop_operation_xyz
x,y,z
1/2-x,1/2-y,z
1/2+x,-y,1/2-z
-x,1/2+y,1/2-z
-x,-y,-z
1/2+x,1/2+y,-z
1/2-x,y,1/2+z
x,1/2-y,1/2+z
loop_
_atom_site_type_symbol
_atom_site_label
_atom_site_fract_x
_atom_site_fract_y
_atom_site_fract_z
Si Si1 0.021440 0.206892 0.053805
Si Si2 0.850764 0.430893 0.409249
Si Si3 0.632768 0.953331 0.019892
Si Si4 0.648368 0.144854 0.186423
O O1 0.969644 0.287973 0.144834
O O2 0.915444 0.174131 0.979851
O O3 0.073642 0.066483 0.086342
O O4 0.119263 0.296133 0.000083
O O5 0.723626 0.473325 0.448738
O O6 0.850123 0.378715 0.300332
O O7 0.665292 0.007390 0.126409
O O8 0.500000 0.000000 0.000000
O O9 0.750000 0.250000 0.162319
#
# Coordination Sequence:
#
# PCOD9432699 Si02
#       4
#     8   8   8   8
#     4  10  24  45  66  97 139 170 231 280 346 404
#     4  11  24  43  68  99 134 180 222 291 336 413
#     4  10  23  44  66  94 133 179 221 278 332 404
#     4  11  24  39  70  97 133 176 227 267 351 412
#
# _framework density 20.279948999999998
#
# number of rings (size 3 to 8) (size 9 to 14) (size 15 to 20)
#    0.000    1.500    2.500    0.750   10.500    2.000 
#    0.000    2.500    0.000    0.000    0.000    0.000 
#    0.000    0.000    0.000    0.000    0.000    0.000 
#
# Total GULP energy -178686.111086 kJ/mol
# GULP energy per Si atom -5583.940971 kJ/mol
# Density = 2.023379 g / cm^3
# Si number density = 20.279949 Si / 1000 Ang^3
#
#
#
# Elastic Constant Matrix: (Units=GPa)
#
#
# Indices 1 2 3 4 5 6 
#
# 1 110.2663 30.1179 56.5112 0.0000 0.0000 0.0000
# 2 30.1179 89.6193 36.3029 0.0000 0.0000 0.0000
# 3 56.5112 36.3029 144.0081 0.0000 0.0000 0.0000
# 4 0.0000 0.0000 0.0000 33.8240 0.0000 0.0000
# 5 0.0000 0.0000 0.0000 0.0000 26.3329 0.0000
# 6 0.0000 0.0000 0.0000 0.0000 0.0000 42.8313
#
#
#
# Elastic Compliance Matrix: (Units=1/GPa)
#
#
# Indices 1 2 3 4 5 6 
#
# 1 0.011770 -0.002322 -0.004034 0.000000 0.000000 0.000000
# 2 -0.002322 0.012885 -0.002337 0.000000 0.000000 0.000000
# 3 -0.004034 -0.002337 0.009116 0.000000 0.000000 0.000000
# 4 0.000000 0.000000 0.000000 0.029565 0.000000 0.000000
# 5 0.000000 0.000000 0.000000 0.000000 0.037975 0.000000
# 6 0.000000 0.000000 0.000000 0.000000 0.000000 0.023347
#
#
# Mechanical properties :
#
#
# Convention : Reuss Voigt Hill
#
# Bulk Modulus (GPa) = 61.02479 65.52863 63.27671
# Shear Modulus (GPa) = 33.89684 35.32842 34.61263
#
# Velocity S-wave (km/s) = 4.09277 4.17830 4.13575
# Velocity P-wave (km/s) = 7.24506 7.46055 7.35359
#
# Compressibility (1/GPa) = 0.01638678
#
# Stress axis : x y z
#
# Youngs Moduli (GPa) = 84.95967 77.60789 109.69620
#
# Poissons Ratio (x) = 0.18018 0.44247
# Poissons Ratio (y) = 0.19725 0.25638
# Poissons Ratio (z) = 0.34269 0.18138
#
# Static dielectric constant tensor:
#      x y z
#    x 1.734760 0.000000 0.000000 
#    y 0.000000 1.798420 0.000000 
#    z 0.000000 0.000000 1.678580 
# 
# From -- ./inp_files/6792.got.cif
#   From: 2010.05.17/outbox.cif.g08.bks.cpg/sg56_4_cif.got.tgz:6792.got - 2010.06.03 13:42:01.
