data_PCOD9432415
_publ_section_title
;
Structure prediction by ZEFSAII (Michael W. Deem and Ramdas Pophale) SiO2 
 PCOD9432415
Probable space group: P C C N
;
_chemical_formula_sum "Si O2"
_cell_formula_units_Z 56
_cell_length_a 20.360143
_cell_length_b 12.626603
_cell_length_c 8.727716
_cell_angle_alpha 90.000000
_cell_angle_beta 90.000000
_cell_angle_gamma 90.000000
_cell_volume 2243.716365
_symmetry_space_group_name_H-M "P C C N"
_symmetry_group_IT_number 56
_symmetry_cell_setting 'orthorhombic'
loop_
_space_group_symop_operation_xyz
x,y,z
1/2-x,1/2-y,z
1/2+x,-y,1/2-z
-x,1/2+y,1/2-z
-x,-y,-z
1/2+x,1/2+y,-z
1/2-x,y,1/2+z
x,1/2-y,1/2+z
loop_
_atom_site_type_symbol
_atom_site_label
_atom_site_fract_x
_atom_site_fract_y
_atom_site_fract_z
Si Si1 0.409939 0.158615 0.488513
Si Si2 0.590553 0.109706 0.205400
Si Si3 0.324011 0.510921 0.669917
Si Si4 0.965981 0.022892 0.198482
Si Si5 0.766575 0.376014 0.112768
Si Si6 0.822310 0.715285 0.794357
Si Si7 0.535963 0.288760 0.395088
O O1 0.442678 0.043418 0.452573
O O2 0.369334 0.194515 0.636266
O O3 0.357010 0.172603 0.355815
O O4 0.466772 0.243261 0.451986
O O5 0.532793 0.026341 0.236270
O O6 0.667554 0.085976 0.202700
O O7 0.581567 0.193810 0.340613
O O8 0.570276 0.156694 0.039827
O O9 0.402502 0.509551 0.690439
O O10 0.289348 0.595175 0.558548
O O11 0.293047 0.549984 0.831085
O O12 0.311717 0.392382 0.607039
O O13 0.975757 0.146807 0.234827
O O14 0.750000 0.250000 0.128320
O O15 0.750000 0.750000 0.756855
#
# Coordination Sequence:
#
# PCOD9432415 Si02
#       7
#     8   8   8   8   8   8   8
#     4  10  23  41  67  98 136 178 229 295 348 411
#     4  11  25  42  72 101 137 189 236 295 359 422
#     4  11  26  44  72 100 138 188 232 286 362 418
#     4  10  22  44  69 101 132 183 239 288 347 428
#     4  12  27  46  70 103 143 186 236 293 353 435
#     4  11  25  43  66  97 140 179 234 286 350 431
#     4  11  21  42  68  97 135 180 234 294 355 417
#
# _framework density 24.958590999999998
#
# number of rings (size 3 to 8) (size 9 to 14) (size 15 to 20)
#    0.000    1.143    1.429    4.714   10.000    0.000 
#    0.000    6.429    0.000    0.000    0.000    0.000 
#    0.000    0.000    0.000    0.000    0.000    0.000 
#
# Total GULP energy -312588.082770 kJ/mol
# GULP energy per Si atom -5581.930049 kJ/mol
# Density = 2.490178 g / cm^3
# Si number density = 24.958591 Si / 1000 Ang^3
#
#
#
# Elastic Constant Matrix: (Units=GPa)
#
#
# Indices 1 2 3 4 5 6 
#
# 1 139.7648 51.2345 18.7192 0.0000 0.0000 0.0000
# 2 51.2345 147.0325 6.9800 0.0000 0.0000 0.0000
# 3 18.7192 6.9800 43.0246 0.0000 0.0000 0.0000
# 4 0.0000 0.0000 0.0000 -43.4698 0.0000 0.0000
# 5 0.0000 0.0000 0.0000 0.0000 18.9618 0.0000
# 6 0.0000 0.0000 0.0000 0.0000 0.0000 20.6647
#
#
#
# Elastic Compliance Matrix: (Units=1/GPa)
#
#
# Indices 1 2 3 4 5 6 
#
# 1 0.008643 -0.002855 -0.003297 0.000000 0.000000 0.000000
# 2 -0.002855 0.007797 -0.000023 0.000000 0.000000 0.000000
# 3 -0.003297 -0.000023 0.024681 0.000000 0.000000 0.000000
# 4 0.000000 0.000000 0.000000 -0.023004 0.000000 0.000000
# 5 0.000000 0.000000 0.000000 0.000000 0.052738 0.000000
# 6 0.000000 0.000000 0.000000 0.000000 0.000000 0.048392
#
#
# Mechanical properties :
#
#
# Convention : Reuss Voigt Hill
#
# Bulk Modulus (GPa) = 34.75754 53.74325 44.25039
# Shear Modulus (GPa) = 35.41412 16.09056 25.75234
#
# Velocity S-wave (km/s) = 3.77094 2.54183 3.21565
# Velocity P-wave (km/s) = 5.73727 5.49493 5.61741
#
# Compressibility (1/GPa) = 0.02877074
#
# Stress axis : x y z
#
# Youngs Moduli (GPa) = 115.69855 128.25083 40.51740
#
# Poissons Ratio (x) = 0.36619 0.13360
# Poissons Ratio (y) = 0.33035 0.00092
# Poissons Ratio (z) = 0.38149 0.00291
#
# Static dielectric constant tensor:
#      x y z
#    x 1.467180 0.000000 0.000000 
#    y 0.000000 2.129430 0.000000 
#    z 0.000000 0.000000 2.072500 
# 
# From -- ./inp_files/4473.got.cif
#   From: 2010.05.17/outbox.cif.g08.bks.cpg/sg56_3_cif.got.tgz:4473.got - 2010.06.03 13:42:01.
