data_PCOD9432114
_publ_section_title
;
Structure prediction by ZEFSAII (Michael W. Deem and Ramdas Pophale) SiO2 
 PCOD9432114
Probable space group: P C C N
;
_chemical_formula_sum "Si O2"
_cell_formula_units_Z 60
_cell_length_a 17.272491
_cell_length_b 18.763658
_cell_length_c 8.828063
_cell_angle_alpha 90.000000
_cell_angle_beta 90.000000
_cell_angle_gamma 90.000000
_cell_volume 2861.132084
_symmetry_space_group_name_H-M "P C C N"
_symmetry_group_IT_number 56
_symmetry_cell_setting 'orthorhombic'
loop_
_space_group_symop_operation_xyz
x,y,z
1/2-x,1/2-y,z
1/2+x,-y,1/2-z
-x,1/2+y,1/2-z
-x,-y,-z
1/2+x,1/2+y,-z
1/2-x,y,1/2+z
x,1/2-y,1/2+z
loop_
_atom_site_type_symbol
_atom_site_label
_atom_site_fract_x
_atom_site_fract_y
_atom_site_fract_z
Si Si1 0.003137 0.679715 0.448066
Si Si2 0.984366 0.829788 0.597980
Si Si3 0.065332 0.049410 0.921060
Si Si4 0.172425 0.654997 0.567399
Si Si5 0.525216 0.441721 0.622171
Si Si6 0.750000 0.250000 0.686807
Si Si7 0.219880 0.004979 0.055491
Si Si8 0.647270 0.552202 0.656175
O O1 0.080554 0.652954 0.534840
O O2 0.975155 0.753946 0.518253
O O3 0.016622 0.680930 0.267491
O O4 0.938129 0.621516 0.483185
O O5 0.908157 0.880539 0.619286
O O6 0.038866 0.872439 0.479076
O O7 0.039330 0.066374 0.750403
O O8 0.149366 0.015468 0.936117
O O9 0.000000 0.000000 0.000000
O O10 0.190641 0.707178 0.706911
O O11 0.208224 0.693090 0.420197
O O12 0.214333 0.579180 0.592176
O O13 0.500000 0.500000 0.500000
O O14 0.596597 0.481861 0.697577
O O15 0.201601 0.055976 0.197583
O O16 0.300270 0.029010 0.983999
#
# Coordination Sequence:
#
# PCOD9432114 Si02
#       8
#     8   8   8   8   8   4   8   8
#     4  12  23  42  72  96 130 182 236 289 351 416
#     4  11  25  44  68 102 137 181 236 295 351 427
#     4  12  21  43  70  96 131 174 237 291 339 416
#     4  11  23  40  66  98 137 184 223 277 348 432
#     4  10  22  40  65  97 135 174 230 283 339 409
#     4  10  24  42  56 102 148 172 214 274 356 430
#     4  12  25  41  72  99 137 182 237 286 359 415
#     4  11  25  44  66 104 139 181 231 295 356 420
#
# _framework density 20.970718999999999
#
# number of rings (size 3 to 8) (size 9 to 14) (size 15 to 20)
#    0.000    0.800    4.000    3.200    3.733    4.267 
#    0.000    0.667    0.000    0.000    0.000    0.000 
#    0.000    0.000    0.000    0.000    0.000    0.000 
#
# Total GULP energy -335145.126675 kJ/mol
# GULP energy per Si atom -5585.752111 kJ/mol
# Density = 2.092299 g / cm^3
# Si number density = 20.970719 Si / 1000 Ang^3
#
#
#
# Elastic Constant Matrix: (Units=GPa)
#
#
# Indices 1 2 3 4 5 6 
#
# 1 41.3367 5.6060 -16.5977 0.0000 0.0000 0.0000
# 2 5.6060 111.7390 7.2588 0.0000 0.0000 0.0000
# 3 -16.5977 7.2588 83.3767 0.0000 0.0000 0.0000
# 4 0.0000 0.0000 0.0000 34.1672 0.0000 0.0000
# 5 0.0000 0.0000 0.0000 0.0000 35.9162 0.0000
# 6 0.0000 0.0000 0.0000 0.0000 0.0000 23.8294
#
#
#
# Elastic Compliance Matrix: (Units=1/GPa)
#
#
# Indices 1 2 3 4 5 6 
#
# 1 0.026606 -0.001688 0.005443 0.000000 0.000000 0.000000
# 2 -0.001688 0.009107 -0.001129 0.000000 0.000000 0.000000
# 3 0.005443 -0.001129 0.013176 0.000000 0.000000 0.000000
# 4 0.000000 0.000000 0.000000 0.029268 0.000000 0.000000
# 5 0.000000 0.000000 0.000000 0.000000 0.027843 0.000000
# 6 0.000000 0.000000 0.000000 0.000000 0.000000 0.041965
#
#
# Mechanical properties :
#
#
# Convention : Reuss Voigt Hill
#
# Bulk Modulus (GPa) = 18.47016 25.44295 21.95656
# Shear Modulus (GPa) = 31.10229 34.79493 32.94861
#
# Velocity S-wave (km/s) = 3.85532 4.07776 3.96810
# Velocity P-wave (km/s) = 5.35207 5.85917 5.61135
#
# Compressibility (1/GPa) = 0.05414137
#
# Stress axis : x y z
#
# Youngs Moduli (GPa) = 37.58518 109.79980 75.89743
#
# Poissons Ratio (x) = 0.18539 -0.41315
# Poissons Ratio (y) = 0.06346 0.08569
# Poissons Ratio (z) = -0.20459 0.12397
#
# Static dielectric constant tensor:
#      x y z
#    x 1.799960 0.000000 0.000000 
#    y 0.000000 1.768050 0.000000 
#    z 0.000000 0.000000 1.778610 
# 
# From -- ./inp_files/4157.got.cif
#   From: 2010.05.17/outbox.cif.g08.bks.cpg/sg56_3_cif.got.tgz:4157.got - 2010.06.03 13:42:01.
