data_PCOD9432590
_publ_section_title
;
Structure prediction by ZEFSAII (Michael W. Deem and Ramdas Pophale) SiO2 
 PCOD9432590
Probable space group: P C C N
;
_chemical_formula_sum "Si O2"
_cell_formula_units_Z 48
_cell_length_a 7.607576
_cell_length_b 8.817378
_cell_length_c 31.809020
_cell_angle_alpha 90.000000
_cell_angle_beta 90.000000
_cell_angle_gamma 90.000000
_cell_volume 2133.713221
_symmetry_space_group_name_H-M "P C C N"
_symmetry_group_IT_number 56
_symmetry_cell_setting 'orthorhombic'
loop_
_space_group_symop_operation_xyz
x,y,z
1/2-x,1/2-y,z
1/2+x,-y,1/2-z
-x,1/2+y,1/2-z
-x,-y,-z
1/2+x,1/2+y,-z
1/2-x,y,1/2+z
x,1/2-y,1/2+z
loop_
_atom_site_type_symbol
_atom_site_label
_atom_site_fract_x
_atom_site_fract_y
_atom_site_fract_z
Si Si1 0.782722 0.051100 0.794595
Si Si2 0.640868 0.497650 0.071329
Si Si3 0.605726 0.437599 0.701437
Si Si4 0.250000 0.750000 0.491785
Si Si5 0.490599 0.837763 0.063890
Si Si6 0.947349 0.384239 0.663395
Si Si7 0.750000 0.250000 0.866047
O O1 0.851949 0.104266 0.749774
O O2 0.856800 0.151815 0.832930
O O3 0.572338 0.034795 0.797514
O O4 0.878014 0.898861 0.808187
O O5 0.635951 0.364984 0.036606
O O6 0.544905 0.658687 0.063461
O O7 0.844872 0.552783 0.070711
O O8 0.565858 0.427487 0.114500
O O9 0.796346 0.491191 0.685010
O O10 0.582986 0.294870 0.670592
O O11 0.375232 0.648794 0.521879
O O12 0.364808 0.854171 0.104024
#
# Coordination Sequence:
#
# PCOD9432590 Si02
#       7
#     8   8   8   4   8   8   4
#     4  12  23  41  64  92 129 174 221 273 334 389
#     4  11  22  43  67  96 134 175 217 276 335 405
#     4  11  24  41  64  93 130 171 223 277 328 394
#     4  11  22  40  71  98 136 166 219 278 332 405
#     4  10  23  41  66  97 129 175 220 264 342 409
#     4  11  23  44  65  94 130 172 227 273 330 391
#     4  11  22  40  61  88 126 166 219 270 322 401
#
# _framework density 22.495995000000001
#
# number of rings (size 3 to 8) (size 9 to 14) (size 15 to 20)
#    0.000    1.000    3.333    4.500    0.000    0.000 
#    0.000    0.000    3.667    0.000    0.000    0.000 
#    0.000    0.000    0.000    0.000    0.000    0.000 
#
# Total GULP energy -267436.856689 kJ/mol
# GULP energy per Si atom -5571.601181 kJ/mol
# Density = 2.244479 g / cm^3
# Si number density = 22.495995 Si / 1000 Ang^3
#
#
#
# Elastic Constant Matrix: (Units=GPa)
#
#
# Indices 1 2 3 4 5 6 
#
# 1 92.4310 4.5228 22.6336 0.0000 0.0000 0.0000
# 2 4.5228 47.1550 16.3920 0.0000 0.0000 0.0000
# 3 22.6336 16.3920 149.5502 0.0000 0.0000 0.0000
# 4 0.0000 0.0000 0.0000 38.5922 0.0000 0.0000
# 5 0.0000 0.0000 0.0000 0.0000 -18.4526 0.0000
# 6 0.0000 0.0000 0.0000 0.0000 0.0000 21.5200
#
#
#
# Elastic Compliance Matrix: (Units=1/GPa)
#
#
# Indices 1 2 3 4 5 6 
#
# 1 0.011247 -0.000506 -0.001647 0.000000 0.000000 0.000000
# 2 -0.000506 0.022069 -0.002342 0.000000 0.000000 0.000000
# 3 -0.001647 -0.002342 0.007193 0.000000 0.000000 0.000000
# 4 0.000000 0.000000 0.000000 0.025912 0.000000 0.000000
# 5 0.000000 0.000000 0.000000 0.000000 -0.054193 0.000000
# 6 0.000000 0.000000 0.000000 0.000000 0.000000 0.046468
#
#
# Mechanical properties :
#
#
# Convention : Reuss Voigt Hill
#
# Bulk Modulus (GPa) = 31.72758 41.80366 36.76562
# Shear Modulus (GPa) = 63.94423 24.70445 44.32434
#
# Velocity S-wave (km/s) = 5.33727 3.31746 4.44365
# Velocity P-wave (km/s) = 7.21915 5.77037 6.53503
#
# Compressibility (1/GPa) = 0.03151832
#
# Stress axis : x y z
#
# Youngs Moduli (GPa) = 88.91359 45.31146 139.03038
#
# Poissons Ratio (x) = 0.02294 0.22893
# Poissons Ratio (y) = 0.04502 0.32566
# Poissons Ratio (z) = 0.14641 0.10614
#
# Static dielectric constant tensor:
#      x y z
#    x 2.019340 0.000000 0.000000 
#    y 0.000000 3.088350 0.000000 
#    z 0.000000 0.000000 1.800850 
# 
# From -- ./inp_files/23262.got.cif
#   From: 2010.05.17/outbox.cif.g08.bks.cpg/sg56_12_cif.got.tgz:23262.got - 2010.06.03 13:42:01.
