data_PCOD9432257
_publ_section_title
;
Structure prediction by ZEFSAII (Michael W. Deem and Ramdas Pophale) SiO2 
 PCOD9432257
Probable space group: P C C N
;
_chemical_formula_sum "Si O2"
_cell_formula_units_Z 44
_cell_length_a 13.285216
_cell_length_b 5.329245
_cell_length_c 28.313363
_cell_angle_alpha 90.000000
_cell_angle_beta 90.000000
_cell_angle_gamma 90.000000
_cell_volume 2004.590940
_symmetry_space_group_name_H-M "P C C N"
_symmetry_group_IT_number 56
_symmetry_cell_setting 'orthorhombic'
loop_
_space_group_symop_operation_xyz
x,y,z
1/2-x,1/2-y,z
1/2+x,-y,1/2-z
-x,1/2+y,1/2-z
-x,-y,-z
1/2+x,1/2+y,-z
1/2-x,y,1/2+z
x,1/2-y,1/2+z
loop_
_atom_site_type_symbol
_atom_site_label
_atom_site_fract_x
_atom_site_fract_y
_atom_site_fract_z
Si Si1 0.750000 0.750000 0.324689
Si Si2 0.750000 0.250000 0.058577
Si Si3 0.970465 0.697889 0.363567
Si Si4 0.645103 0.659652 0.124491
Si Si5 0.959910 0.082388 0.726276
Si Si6 0.250000 0.750000 0.236614
Si Si7 0.444768 0.552270 0.452036
O O1 0.851921 0.672782 0.352912
O O2 0.725036 0.498602 0.294424
O O3 0.696968 0.445840 0.092903
O O4 0.839859 0.346299 0.028130
O O5 0.049052 0.472750 0.350718
O O6 0.009250 0.916179 0.328330
O O7 0.991150 0.765451 0.417926
O O8 0.750000 0.750000 0.150868
O O9 0.595676 0.846546 0.085800
O O10 0.845363 0.167259 0.732972
O O11 0.022192 0.312720 0.749967
O O12 0.500000 0.500000 0.500000
#
# Coordination Sequence:
#
# PCOD9432257 Si02
#       7
#     4   4   8   8   8   4   8
#     4  12  26  46  70 104 150 188 234 298 366 444
#     4   8  18  39  61  90 132 172 228 279 347 416
#     4  11  25  43  69 103 138 185 241 289 366 438
#     4   9  20  41  68  93 135 176 228 295 343 422
#     4  12  25  45  71 100 141 190 237 292 358 430
#     4  12  24  47  71 102 146 190 238 299 359 432
#     4  10  22  42  66 100 137 181 229 292 358 424
#
# _framework density 21.949614
#
# number of rings (size 3 to 8) (size 9 to 14) (size 15 to 20)
#    0.000    1.455    3.636    0.000    5.091    7.273 
#    9.818    0.000    0.000    0.000    0.000    0.000 
#    0.000    0.000    0.000    0.000    0.000    0.000 
#
# Total GULP energy -245108.936130 kJ/mol
# GULP energy per Si atom -5570.657639 kJ/mol
# Density = 2.189966 g / cm^3
# Si number density = 21.949614 Si / 1000 Ang^3
#
#
#
# Elastic Constant Matrix: (Units=GPa)
#
#
# Indices 1 2 3 4 5 6 
#
# 1 197.8152 29.8444 53.8857 0.0000 0.0000 0.0000
# 2 29.8444 78.2596 19.6002 0.0000 0.0000 0.0000
# 3 53.8857 19.6002 102.7218 0.0000 0.0000 0.0000
# 4 0.0000 0.0000 0.0000 -13.9053 0.0000 0.0000
# 5 0.0000 0.0000 0.0000 0.0000 42.1609 0.0000
# 6 0.0000 0.0000 0.0000 0.0000 0.0000 40.4569
#
#
#
# Elastic Compliance Matrix: (Units=1/GPa)
#
#
# Indices 1 2 3 4 5 6 
#
# 1 0.006082 -0.001597 -0.002886 0.000000 0.000000 0.000000
# 2 -0.001597 0.013838 -0.001803 0.000000 0.000000 0.000000
# 3 -0.002886 -0.001803 0.011593 0.000000 0.000000 0.000000
# 4 0.000000 0.000000 0.000000 -0.071915 0.000000 0.000000
# 5 0.000000 0.000000 0.000000 0.000000 0.023719 0.000000
# 6 0.000000 0.000000 0.000000 0.000000 0.000000 0.024718
#
#
# Mechanical properties :
#
#
# Convention : Reuss Voigt Hill
#
# Bulk Modulus (GPa) = 52.79126 65.05082 58.92104
# Shear Modulus (GPa) = 185.73333 32.10692 108.92013
#
# Velocity S-wave (km/s) = 9.20879 3.82875 7.05199
# Velocity P-wave (km/s) = 11.71206 7.01759 9.65450
#
# Compressibility (1/GPa) = 0.01894253
#
# Stress axis : x y z
#
# Youngs Moduli (GPa) = 164.41241 72.26256 86.25930
#
# Poissons Ratio (x) = 0.11538 0.24894
# Poissons Ratio (y) = 0.26252 0.15552
# Poissons Ratio (z) = 0.47449 0.13028
#
# Static dielectric constant tensor:
#      x y z
#    x 3.734820 0.000000 0.000000 
#    y 0.000000 1.963350 0.000000 
#    z 0.000000 0.000000 1.762960 
# 
# From -- ./inp_files/22406.got.cif
#   From: 2010.05.17/outbox.cif.g08.bks.cpg/sg56_12_cif.got.tgz:22406.got - 2010.06.03 13:42:01.
