data_PCOD9432254
_publ_section_title
;
Structure prediction by ZEFSAII (Michael W. Deem and Ramdas Pophale) SiO2 
 PCOD9432254
Probable space group: P C C N
;
_chemical_formula_sum "Si O2"
_cell_formula_units_Z 48
_cell_length_a 11.945895
_cell_length_b 16.023268
_cell_length_c 12.139663
_cell_angle_alpha 90.000000
_cell_angle_beta 90.000000
_cell_angle_gamma 90.000000
_cell_volume 2323.680538
_symmetry_space_group_name_H-M "P C C N"
_symmetry_group_IT_number 56
_symmetry_cell_setting 'orthorhombic'
loop_
_space_group_symop_operation_xyz
x,y,z
1/2-x,1/2-y,z
1/2+x,-y,1/2-z
-x,1/2+y,1/2-z
-x,-y,-z
1/2+x,1/2+y,-z
1/2-x,y,1/2+z
x,1/2-y,1/2+z
loop_
_atom_site_type_symbol
_atom_site_label
_atom_site_fract_x
_atom_site_fract_y
_atom_site_fract_z
Si Si1 0.665950 0.330383 0.705763
Si Si2 0.852993 0.996432 0.060418
Si Si3 0.858167 0.060903 0.287978
Si Si4 0.036827 0.633000 0.585238
Si Si5 0.951334 0.180012 0.478027
Si Si6 0.116527 0.051110 0.518444
O O1 0.750000 0.250000 0.714887
O O2 0.739966 0.405422 0.749714
O O3 0.560717 0.338157 0.788663
O O4 0.628149 0.342398 0.580810
O O5 0.908762 0.039028 0.169257
O O6 0.878963 0.062456 0.963237
O O7 0.918508 0.908909 0.056843
O O8 0.721137 0.975404 0.056386
O O9 0.910871 0.132749 0.366420
O O10 0.851776 0.977031 0.358926
O O11 0.054152 0.720840 0.525519
O O12 0.075121 0.144891 0.501938
O O13 0.000000 0.000000 0.500000
#
# Coordination Sequence:
#
# PCOD9432254 Si02
#       6
#     8   8   8   8   8   8
#     4  12  23  38  70 100 140 170 226 291 341 408
#     4  11  24  44  67  96 138 183 226 289 347 418
#     4  11  21  39  67  97 132 169 226 282 341 403
#     4  11  25  44  64 101 136 177 234 283 350 409
#     4  11  25  41  66 102 136 179 229 285 351 410
#     4  10  22  42  65  97 135 180 225 277 343 419
#
# _framework density 20.656884999999999
#
# number of rings (size 3 to 8) (size 9 to 14) (size 15 to 20)
#    0.000    1.000    3.333    4.000    2.333    2.000 
#    0.000    0.000    0.000    4.000    0.000    0.000 
#    0.000    0.000    0.000    0.000    0.000    0.000 
#
# Total GULP energy -267318.371081 kJ/mol
# GULP energy per Si atom -5569.132731 kJ/mol
# Density = 2.060987 g / cm^3
# Si number density = 20.656885 Si / 1000 Ang^3
#
#
#
# Elastic Constant Matrix: (Units=GPa)
#
#
# Indices 1 2 3 4 5 6 
#
# 1 102.9621 40.0477 27.4777 0.0000 0.0000 0.0000
# 2 40.0477 46.4227 25.2933 0.0000 0.0000 0.0000
# 3 27.4777 25.2933 108.7171 0.0000 0.0000 0.0000
# 4 0.0000 0.0000 0.0000 18.9793 0.0000 0.0000
# 5 0.0000 0.0000 0.0000 0.0000 25.6735 0.0000
# 6 0.0000 0.0000 0.0000 0.0000 0.0000 24.0300
#
#
#
# Elastic Compliance Matrix: (Units=1/GPa)
#
#
# Indices 1 2 3 4 5 6 
#
# 1 0.014689 -0.012195 -0.000875 0.000000 0.000000 0.000000
# 2 -0.012195 0.034793 -0.005012 0.000000 0.000000 0.000000
# 3 -0.000875 -0.005012 0.010586 0.000000 0.000000 0.000000
# 4 0.000000 0.000000 0.000000 0.052689 0.000000 0.000000
# 5 0.000000 0.000000 0.000000 0.000000 0.038951 0.000000
# 6 0.000000 0.000000 0.000000 0.000000 0.000000 0.041615
#
#
# Mechanical properties :
#
#
# Convention : Reuss Voigt Hill
#
# Bulk Modulus (GPa) = 41.83798 49.30435 45.57117
# Shear Modulus (GPa) = 21.05665 24.75545 22.90605
#
# Velocity S-wave (km/s) = 3.19619 3.46556 3.33360
# Velocity P-wave (km/s) = 5.82397 6.31930 6.07668
#
# Compressibility (1/GPa) = 0.02390173
#
# Stress axis : x y z
#
# Youngs Moduli (GPa) = 68.07670 28.74173 94.46826
#
# Poissons Ratio (x) = 0.35051 0.08270
# Poissons Ratio (y) = 0.83021 0.47350
# Poissons Ratio (z) = 0.05960 0.14406
#
# Static dielectric constant tensor:
#      x y z
#    x 1.783820 0.000000 0.000000 
#    y 0.000000 1.799090 0.000000 
#    z 0.000000 0.000000 1.836970 
# 
# From -- ./inp_files/7172.got.cif
#   From: 2010.05.17/outbox.cif.g08.bks.cpg/sg56_4_cif.got.tgz:7172.got - 2010.06.03 13:42:01.
