data_PCOD9432031
_publ_section_title
;
Structure prediction by ZEFSAII (Michael W. Deem and Ramdas Pophale) SiO2 
 PCOD9432031
Probable space group: P C C N
;
_chemical_formula_sum "Si O2"
_cell_formula_units_Z 36
_cell_length_a 9.449079
_cell_length_b 7.398247
_cell_length_c 22.645548
_cell_angle_alpha 90.000000
_cell_angle_beta 90.000000
_cell_angle_gamma 90.000000
_cell_volume 1583.073727
_symmetry_space_group_name_H-M "P C C N"
_symmetry_group_IT_number 56
_symmetry_cell_setting 'orthorhombic'
loop_
_space_group_symop_operation_xyz
x,y,z
1/2-x,1/2-y,z
1/2+x,-y,1/2-z
-x,1/2+y,1/2-z
-x,-y,-z
1/2+x,1/2+y,-z
1/2-x,y,1/2+z
x,1/2-y,1/2+z
loop_
_atom_site_type_symbol
_atom_site_label
_atom_site_fract_x
_atom_site_fract_y
_atom_site_fract_z
Si Si1 0.855584 0.465382 0.614572
Si Si2 0.250000 0.750000 0.776946
Si Si3 0.750000 0.750000 0.044380
Si Si4 0.250000 0.250000 0.635645
Si Si5 0.371742 0.880062 0.665040
Si Si6 0.023393 0.322805 0.040972
O O1 0.807349 0.398934 0.678417
O O2 0.729837 0.576579 0.584908
O O3 0.987118 0.601499 0.626793
O O4 0.904806 0.301358 0.572019
O O5 0.375296 0.805880 0.731913
O O6 0.882165 0.799150 0.003408
O O7 0.179216 0.412611 0.670390
O O8 0.366501 0.350370 0.594789
O O9 0.250000 0.750000 0.637312
O O10 0.000000 0.500000 0.000000
#
# Coordination Sequence:
#
# PCOD9432031 Si02
#       6
#     8   4   4   4   8   8
#     4  11  23  43  66  96 138 170 228 277 338 412
#     4  10  24  40  62 104 124 178 222 272 348 392
#     4  11  24  39  62 100 124 177 210 271 334 394
#     4   9  20  41  64  96 124 175 224 263 338 396
#     4   9  23  43  66  95 131 175 221 275 337 398
#     4  10  22  39  63  91 130 172 216 274 327 397
#
# _framework density 22.740570999999999
#
# number of rings (size 3 to 8) (size 9 to 14) (size 15 to 20)
#    0.667    1.333    0.000    2.000    3.111    6.222 
#    0.000    0.000    0.000    0.000    0.000    0.000 
#    0.000    0.000    0.000    0.000    0.000    0.000 
#
# Total GULP energy -200489.188490 kJ/mol
# GULP energy per Si atom -5569.144125 kJ/mol
# Density = 2.268881 g / cm^3
# Si number density = 22.740571 Si / 1000 Ang^3
#
#
#
# Elastic Constant Matrix: (Units=GPa)
#
#
# Indices 1 2 3 4 5 6 
#
# 1 61.9335 6.3356 15.7821 0.0000 0.0000 0.0000
# 2 6.3356 66.6615 25.9251 0.0000 0.0000 0.0000
# 3 15.7821 25.9251 105.5109 0.0000 0.0000 0.0000
# 4 0.0000 0.0000 0.0000 41.5868 0.0000 0.0000
# 5 0.0000 0.0000 0.0000 0.0000 18.5162 0.0000
# 6 0.0000 0.0000 0.0000 0.0000 0.0000 43.4809
#
#
#
# Elastic Compliance Matrix: (Units=1/GPa)
#
#
# Indices 1 2 3 4 5 6 
#
# 1 0.016814 -0.000685 -0.002347 0.000000 0.000000 0.000000
# 2 -0.000685 0.016614 -0.003980 0.000000 0.000000 0.000000
# 3 -0.002347 -0.003980 0.010807 0.000000 0.000000 0.000000
# 4 0.000000 0.000000 0.000000 0.024046 0.000000 0.000000
# 5 0.000000 0.000000 0.000000 0.000000 0.054007 0.000000
# 6 0.000000 0.000000 0.000000 0.000000 0.000000 0.022999
#
#
# Mechanical properties :
#
#
# Convention : Reuss Voigt Hill
#
# Bulk Modulus (GPa) = 33.10004 36.68796 34.89400
# Shear Modulus (GPa) = 29.51933 33.12098 31.32016
#
# Velocity S-wave (km/s) = 3.60681 3.82051 3.71520
# Velocity P-wave (km/s) = 5.65089 5.96909 5.81217
#
# Compressibility (1/GPa) = 0.03021144
#
# Stress axis : x y z
#
# Youngs Moduli (GPa) = 59.47265 60.19002 92.53639
#
# Poissons Ratio (x) = 0.04126 0.21715
# Poissons Ratio (y) = 0.04076 0.36827
# Poissons Ratio (z) = 0.13956 0.23954
#
# Static dielectric constant tensor:
#      x y z
#    x 2.021630 0.000000 0.000000 
#    y 0.000000 1.912630 0.000000 
#    z 0.000000 0.000000 1.813890 
# 
# From -- ./inp_files/20813.got.cif
#   From: 2010.05.17/outbox.cif.g08.bks.cpg/sg56_11_cif.got.tgz:20813.got - 2010.06.03 13:42:01.
