data_PCOD9432997
_publ_section_title
;
Structure prediction by ZEFSAII (Michael W. Deem and Ramdas Pophale) SiO2 
 PCOD9432997
Probable space group: P C C N
;
_chemical_formula_sum "Si O2"
_cell_formula_units_Z 48
_cell_length_a 16.027690
_cell_length_b 10.160342
_cell_length_c 11.073382
_cell_angle_alpha 90.000000
_cell_angle_beta 90.000000
_cell_angle_gamma 90.000000
_cell_volume 1803.264955
_symmetry_space_group_name_H-M "P C C N"
_symmetry_group_IT_number 56
_symmetry_cell_setting 'orthorhombic'
loop_
_space_group_symop_operation_xyz
x,y,z
1/2-x,1/2-y,z
1/2+x,-y,1/2-z
-x,1/2+y,1/2-z
-x,-y,-z
1/2+x,1/2+y,-z
1/2-x,y,1/2+z
x,1/2-y,1/2+z
loop_
_atom_site_type_symbol
_atom_site_label
_atom_site_fract_x
_atom_site_fract_y
_atom_site_fract_z
Si Si1 0.504001 0.188734 0.083930
Si Si2 0.250000 0.250000 0.237277
Si Si3 0.750000 0.250000 0.792238
Si Si4 0.411041 0.373070 0.224718
Si Si5 0.797314 0.007794 0.114815
Si Si6 0.629078 0.981519 0.024065
Si Si7 0.089283 0.871402 0.076022
O O1 0.486304 0.275959 0.199161
O O2 0.591603 0.117517 0.071959
O O3 0.432591 0.076957 0.075394
O O4 0.510893 0.287477 0.970531
O O5 0.327426 0.312017 0.163610
O O6 0.208446 0.369642 0.314263
O O7 0.728847 0.123372 0.708277
O O8 0.832697 0.213352 0.870534
O O9 0.384442 0.386847 0.361937
O O10 0.430432 0.515263 0.171589
O O11 0.726326 0.997596 0.009490
O O12 0.878712 0.053221 0.044763
#
# Coordination Sequence:
#
# PCOD9432997 Si02
#       7
#     8   4   4   8   8   8   8
#     4  11  26  43  70  98 143 184 224 292 354 419
#     4  10  24  46  68 102 134 188 226 302 344 420
#     4  12  22  46  70 102 138 178 240 290 344 416
#     4  11  26  43  68  99 137 179 232 278 353 419
#     4  11  25  45  74 100 141 176 235 295 346 410
#     4  10  24  47  66 102 136 183 230 284 354 418
#     4  12  26  41  71 105 132 184 236 285 353 420
#
# _framework density 26.618385
#
# number of rings (size 3 to 8) (size 9 to 14) (size 15 to 20)
#    0.000    1.000    3.333    3.000    9.333    4.000 
#    0.000    0.000    0.000    0.000    0.000    0.000 
#    0.000    0.000    0.000    0.000    0.000    0.000 
#
# Total GULP energy -268779.273668 kJ/mol
# GULP energy per Si atom -5599.568201 kJ/mol
# Density = 2.655780 g / cm^3
# Si number density = 26.618385 Si / 1000 Ang^3
#
#
#
# Elastic Constant Matrix: (Units=GPa)
#
#
# Indices 1 2 3 4 5 6 
#
# 1 55.4734 21.3802 -2.8312 0.0000 0.0000 0.0000
# 2 21.3802 142.0637 16.8834 0.0000 0.0000 0.0000
# 3 -2.8312 16.8834 54.7093 0.0000 0.0000 0.0000
# 4 0.0000 0.0000 0.0000 34.7708 0.0000 0.0000
# 5 0.0000 0.0000 0.0000 0.0000 37.9409 0.0000
# 6 0.0000 0.0000 0.0000 0.0000 0.0000 45.5671
#
#
#
# Elastic Compliance Matrix: (Units=1/GPa)
#
#
# Indices 1 2 3 4 5 6 
#
# 1 0.019339 -0.003145 0.001971 0.000000 0.000000 0.000000
# 2 -0.003145 0.007818 -0.002576 0.000000 0.000000 0.000000
# 3 0.001971 -0.002576 0.019175 0.000000 0.000000 0.000000
# 4 0.000000 0.000000 0.000000 0.028760 0.000000 0.000000
# 5 0.000000 0.000000 0.000000 0.000000 0.026357 0.000000
# 6 0.000000 0.000000 0.000000 0.000000 0.000000 0.021946
#
#
# Mechanical properties :
#
#
# Convention : Reuss Voigt Hill
#
# Bulk Modulus (GPa) = 25.74997 35.90123 30.82560
# Shear Modulus (GPa) = 34.76125 38.11002 36.43563
#
# Velocity S-wave (km/s) = 3.61766 3.78791 3.70376
# Velocity P-wave (km/s) = 5.21006 5.71381 5.46774
#
# Compressibility (1/GPa) = 0.03883499
#
# Stress axis : x y z
#
# Youngs Moduli (GPa) = 51.70814 127.90235 52.15057
#
# Poissons Ratio (x) = 0.40223 -0.10280
# Poissons Ratio (y) = 0.16261 0.13432
# Poissons Ratio (z) = -0.10193 0.32942
#
# Static dielectric constant tensor:
#      x y z
#    x 2.068100 0.000000 0.000000 
#    y 0.000000 2.100850 0.000000 
#    z 0.000000 0.000000 2.126310 
# 
# From -- ./inp_files/12715.got.cif
#   From: 2010.05.17/outbox.cif.g08.bks.cpg/sg56_7_cif.got.tgz:12715.got - 2010.06.03 13:42:01.
