data_PCOD9432116
_publ_section_title
;
Structure prediction by ZEFSAII (Michael W. Deem and Ramdas Pophale) SiO2 
 PCOD9432116
Probable space group: P C C N
;
_chemical_formula_sum "Si O2"
_cell_formula_units_Z 40
_cell_length_a 13.846288
_cell_length_b 9.275684
_cell_length_c 14.112309
_cell_angle_alpha 90.000000
_cell_angle_beta 90.000000
_cell_angle_gamma 90.000000
_cell_volume 1812.497360
_symmetry_space_group_name_H-M "P C C N"
_symmetry_group_IT_number 56
_symmetry_cell_setting 'orthorhombic'
loop_
_space_group_symop_operation_xyz
x,y,z
1/2-x,1/2-y,z
1/2+x,-y,1/2-z
-x,1/2+y,1/2-z
-x,-y,-z
1/2+x,1/2+y,-z
1/2-x,y,1/2+z
x,1/2-y,1/2+z
loop_
_atom_site_type_symbol
_atom_site_label
_atom_site_fract_x
_atom_site_fract_y
_atom_site_fract_z
Si Si1 0.919858 0.783388 0.289818
Si Si2 0.173292 0.940740 0.784385
Si Si3 0.353818 0.762833 0.602143
Si Si4 0.613763 0.032596 0.238675
Si Si5 0.018992 0.648633 0.446527
O O1 0.911591 0.635346 0.230795
O O2 0.019342 0.874390 0.283613
O O3 0.927444 0.723349 0.396671
O O4 0.841800 0.895378 0.251437
O O5 0.149826 0.845293 0.691228
O O6 0.285924 0.926394 0.812544
O O7 0.098092 0.894771 0.865643
O O8 0.250000 0.750000 0.553987
O O9 0.363979 0.918384 0.652978
O O10 0.435599 0.745743 0.524785
O O11 0.000000 0.500000 0.500000
#
# Coordination Sequence:
#
# PCOD9432116 Si02
#       5
#     8   8   8   8   8
#     4  12  22  42  71  99 140 181 233 288 348 413
#     4  11  25  44  71 100 140 190 230 288 357 422
#     4  10  22  40  65  98 135 182 234 283 345 417
#     4  11  22  43  69  99 138 187 230 280 356 416
#     4  12  24  41  71 101 140 178 237 296 350 408
#
# _framework density 22.068997
#
# number of rings (size 3 to 8) (size 9 to 14) (size 15 to 20)
#    0.000    0.800    6.000    0.600    2.800    0.800 
#    0.000    0.000    8.800    0.000    0.000    0.000 
#    0.000    0.000    0.000    0.000    0.000    0.000 
#
# Total GULP energy -223118.011589 kJ/mol
# GULP energy per Si atom -5577.950290 kJ/mol
# Density = 2.201877 g / cm^3
# Si number density = 22.068997 Si / 1000 Ang^3
#
#
#
# Elastic Constant Matrix: (Units=GPa)
#
#
# Indices 1 2 3 4 5 6 
#
# 1 52.6396 14.4524 16.4468 0.0000 0.0000 0.0000
# 2 14.4524 139.0027 13.4053 0.0000 0.0000 0.0000
# 3 16.4468 13.4053 66.8403 0.0000 0.0000 0.0000
# 4 0.0000 0.0000 0.0000 30.2017 0.0000 0.0000
# 5 0.0000 0.0000 0.0000 0.0000 32.9660 0.0000
# 6 0.0000 0.0000 0.0000 0.0000 0.0000 30.4548
#
#
#
# Elastic Compliance Matrix: (Units=1/GPa)
#
#
# Indices 1 2 3 4 5 6 
#
# 1 0.020973 -0.001716 -0.004817 0.000000 0.000000 0.000000
# 2 -0.001716 0.007476 -0.001077 0.000000 0.000000 0.000000
# 3 -0.004817 -0.001077 0.016362 0.000000 0.000000 0.000000
# 4 0.000000 0.000000 0.000000 0.033111 0.000000 0.000000
# 5 0.000000 0.000000 0.000000 0.000000 0.030334 0.000000
# 6 0.000000 0.000000 0.000000 0.000000 0.000000 0.032836
#
#
# Mechanical properties :
#
#
# Convention : Reuss Voigt Hill
#
# Bulk Modulus (GPa) = 33.79272 38.56575 36.17923
# Shear Modulus (GPa) = 30.08858 33.00304 31.54581
#
# Velocity S-wave (km/s) = 3.69641 3.87130 3.78487
# Velocity P-wave (km/s) = 5.79340 6.12337 5.96067
#
# Compressibility (1/GPa) = 0.02959218
#
# Stress axis : x y z
#
# Youngs Moduli (GPa) = 47.68002 133.75388 61.11637
#
# Poissons Ratio (x) = 0.22954 0.29437
# Poissons Ratio (y) = 0.08182 0.06583
# Poissons Ratio (z) = 0.22965 0.14408
#
# Static dielectric constant tensor:
#      x y z
#    x 1.908400 0.000000 0.000000 
#    y 0.000000 1.872980 0.000000 
#    z 0.000000 0.000000 1.817840 
# 
# From -- ./inp_files/12059.got.cif
#   From: 2010.05.17/outbox.cif.g08.bks.cpg/sg56_7_cif.got.tgz:12059.got - 2010.06.03 13:42:01.
