data_PCOD9432468
_publ_section_title
;
Structure prediction by ZEFSAII (Michael W. Deem and Ramdas Pophale) SiO2 
 PCOD9432468
Probable space group: P C C N
;
_chemical_formula_sum "Si O2"
_cell_formula_units_Z 32
_cell_length_a 4.875752
_cell_length_b 9.406174
_cell_length_c 28.475379
_cell_angle_alpha 90.000000
_cell_angle_beta 90.000000
_cell_angle_gamma 90.000000
_cell_volume 1305.942721
_symmetry_space_group_name_H-M "P C C N"
_symmetry_group_IT_number 56
_symmetry_cell_setting 'orthorhombic'
loop_
_space_group_symop_operation_xyz
x,y,z
1/2-x,1/2-y,z
1/2+x,-y,1/2-z
-x,1/2+y,1/2-z
-x,-y,-z
1/2+x,1/2+y,-z
1/2-x,y,1/2+z
x,1/2-y,1/2+z
loop_
_atom_site_type_symbol
_atom_site_label
_atom_site_fract_x
_atom_site_fract_y
_atom_site_fract_z
Si Si1 0.250000 0.750000 0.991461
Si Si2 0.735110 0.908188 0.239267
Si Si3 0.040122 0.617702 0.641007
Si Si4 0.750000 0.750000 0.057053
Si Si5 0.993179 0.343252 0.595954
O O1 0.496787 0.794877 0.025074
O O2 0.351581 0.628451 0.955158
O O3 0.750000 0.750000 0.261241
O O4 0.861163 0.888472 0.187560
O O5 0.431979 0.973983 0.237051
O O6 0.250000 0.750000 0.642639
O O7 0.854846 0.635629 0.594633
O O8 0.132806 0.458349 0.630138
O O9 0.750000 0.250000 0.620369
O O10 0.250000 0.250000 0.581093
#
# Coordination Sequence:
#
# PCOD9432468 Si02
#       5
#     4   8   8   4   8
#     4  10  22  46  66 108 150 196 250 296 364 422
#     4  12  28  52  80 114 151 194 247 311 383 463
#     4  12  28  48  78 110 150 191 250 305 371 436
#     4  12  24  44  74 106 144 200 238 318 352 428
#     4  10  25  46  69 104 153 194 254 297 356 438
#
# _framework density 24.503374000000001
#
# number of rings (size 3 to 8) (size 9 to 14) (size 15 to 20)
#    0.750    0.000    3.750    2.250    3.500    5.000 
#    0.000    0.000    0.000    0.000    0.000    0.000 
#    0.000    0.000    0.000    0.000    0.000    0.000 
#
# Total GULP energy -178546.000874 kJ/mol
# GULP energy per Si atom -5579.562527 kJ/mol
# Density = 2.444760 g / cm^3
# Si number density = 24.503374 Si / 1000 Ang^3
#
#
#
# Elastic Constant Matrix: (Units=GPa)
#
#
# Indices 1 2 3 4 5 6 
#
# 1 106.1517 16.4084 17.7893 0.0000 0.0000 0.0000
# 2 16.4084 63.4289 38.0437 0.0000 0.0000 0.0000
# 3 17.7893 38.0437 88.7711 0.0000 0.0000 0.0000
# 4 0.0000 0.0000 0.0000 11.6706 0.0000 0.0000
# 5 0.0000 0.0000 0.0000 0.0000 12.9099 0.0000
# 6 0.0000 0.0000 0.0000 0.0000 0.0000 34.3941
#
#
#
# Elastic Compliance Matrix: (Units=1/GPa)
#
#
# Indices 1 2 3 4 5 6 
#
# 1 0.009906 -0.001847 -0.001194 0.000000 0.000000 0.000000
# 2 -0.001847 0.021564 -0.008872 0.000000 0.000000 0.000000
# 3 -0.001194 -0.008872 0.015306 0.000000 0.000000 0.000000
# 4 0.000000 0.000000 0.000000 0.085686 0.000000 0.000000
# 5 0.000000 0.000000 0.000000 0.000000 0.077460 0.000000
# 6 0.000000 0.000000 0.000000 0.000000 0.000000 0.029075
#
#
# Mechanical properties :
#
#
# Convention : Reuss Voigt Hill
#
# Bulk Modulus (GPa) = 43.56785 44.75941 44.16363
# Shear Modulus (GPa) = 18.48624 24.20228 21.34426
#
# Velocity S-wave (km/s) = 2.74968 3.14620 2.95460
# Velocity P-wave (km/s) = 5.28204 5.61288 5.44997
#
# Compressibility (1/GPa) = 0.02295270
#
# Stress axis : x y z
#
# Youngs Moduli (GPa) = 100.94927 46.37273 65.33329
#
# Poissons Ratio (x) = 0.08563 0.07799
# Poissons Ratio (y) = 0.18641 0.57961
# Poissons Ratio (z) = 0.12051 0.41140
#
# Static dielectric constant tensor:
#      x y z
#    x 1.920680 0.000000 0.000000 
#    y 0.000000 3.030260 0.000000 
#    z 0.000000 0.000000 1.950470 
# 
# From -- ./inp_files/22729.got.cif
#   From: 2010.05.17/outbox.cif.g08.bks.cpg/sg56_12_cif.got.tgz:22729.got - 2010.06.03 13:42:01.
