data_PCOD9432605
_publ_section_title
;
Structure prediction by ZEFSAII (Michael W. Deem and Ramdas Pophale) SiO2 
 PCOD9432605
Probable space group: P C C N
;
_chemical_formula_sum "Si O2"
_cell_formula_units_Z 60
_cell_length_a 26.490902
_cell_length_b 11.891965
_cell_length_c 8.635571
_cell_angle_alpha 90.000000
_cell_angle_beta 90.000000
_cell_angle_gamma 90.000000
_cell_volume 2720.454255
_symmetry_space_group_name_H-M "P C C N"
_symmetry_group_IT_number 56
_symmetry_cell_setting 'orthorhombic'
loop_
_space_group_symop_operation_xyz
x,y,z
1/2-x,1/2-y,z
1/2+x,-y,1/2-z
-x,1/2+y,1/2-z
-x,-y,-z
1/2+x,1/2+y,-z
1/2-x,y,1/2+z
x,1/2-y,1/2+z
loop_
_atom_site_type_symbol
_atom_site_label
_atom_site_fract_x
_atom_site_fract_y
_atom_site_fract_z
Si Si1 0.293291 0.330904 0.675469
Si Si2 0.120818 0.413575 0.602354
Si Si3 0.456105 0.908871 0.481412
Si Si4 0.635683 0.799336 0.091622
Si Si5 0.219123 0.518885 0.710487
Si Si6 0.750000 0.250000 0.944328
Si Si7 0.579283 0.289425 0.318509
Si Si8 0.347884 0.659244 0.415773
O O1 0.250000 0.250000 0.606136
O O2 0.335585 0.359775 0.549060
O O3 0.321164 0.258463 0.804421
O O4 0.265140 0.437458 0.744859
O O5 0.092188 0.521840 0.540651
O O6 0.109004 0.306625 0.492483
O O7 0.107509 0.374728 0.779347
O O8 0.179729 0.451139 0.601829
O O9 0.448893 0.867407 0.305297
O O10 0.456880 0.796395 0.587468
O O11 0.500000 0.000000 0.500000
O O12 0.242704 0.634535 0.648681
O O13 0.182952 0.553922 0.851205
O O14 0.802266 0.258415 0.037033
O O15 0.618808 0.214710 0.219163
O O16 0.613801 0.355781 0.442222
#
# Coordination Sequence:
#
# PCOD9432605 Si02
#       8
#     8   8   8   8   8   4   8   8
#     4  11  22  36  61  88 127 187 238 282 337 392
#     4  11  24  44  65  94 132 178 225 295 361 425
#     4  11  25  49  79 107 135 176 228 292 382 447
#     4  10  23  42  60  93 135 180 239 290 343 406
#     4  12  24  37  60  88 136 181 244 284 334 410
#     4  12  26  36  56 100 138 190 250 290 316 410
#     4  10  23  48  73 100 149 179 224 300 366 432
#     4  11  22  42  61  97 141 194 231 286 346 401
#
# _framework density 22.055139
#
# number of rings (size 3 to 8) (size 9 to 14) (size 15 to 20)
#    0.000    1.067    5.333    1.600    3.733    2.133 
#    2.400    2.667    0.000    0.000    0.000    0.000 
#    0.000    0.000    0.000    0.000    0.000    0.000 
#
# Total GULP energy -335065.526357 kJ/mol
# GULP energy per Si atom -5584.425439 kJ/mol
# Density = 2.200494 g / cm^3
# Si number density = 22.055139 Si / 1000 Ang^3
#
#
#
# Elastic Constant Matrix: (Units=GPa)
#
#
# Indices 1 2 3 4 5 6 
#
# 1 50.4909 15.8404 20.1382 0.0000 0.0000 0.0000
# 2 15.8404 89.6800 24.5776 0.0000 0.0000 0.0000
# 3 20.1382 24.5776 103.6253 0.0000 0.0000 0.0000
# 4 0.0000 0.0000 0.0000 29.8879 0.0000 0.0000
# 5 0.0000 0.0000 0.0000 0.0000 11.9298 0.0000
# 6 0.0000 0.0000 0.0000 0.0000 0.0000 43.1214
#
#
#
# Elastic Compliance Matrix: (Units=1/GPa)
#
#
# Indices 1 2 3 4 5 6 
#
# 1 0.022164 -0.002925 -0.003614 0.000000 0.000000 0.000000
# 2 -0.002925 0.012312 -0.002352 0.000000 0.000000 0.000000
# 3 -0.003614 -0.002352 0.010910 0.000000 0.000000 0.000000
# 4 0.000000 0.000000 0.000000 0.033458 0.000000 0.000000
# 5 0.000000 0.000000 0.000000 0.000000 0.083824 0.000000
# 6 0.000000 0.000000 0.000000 0.000000 0.000000 0.023190
#
#
# Mechanical properties :
#
#
# Convention : Reuss Voigt Hill
#
# Bulk Modulus (GPa) = 36.22348 40.54540 38.38444
# Shear Modulus (GPa) = 23.49167 29.20380 26.34774
#
# Velocity S-wave (km/s) = 3.26718 3.64280 3.46009
# Velocity P-wave (km/s) = 5.54007 6.00973 5.77967
#
# Compressibility (1/GPa) = 0.02760640
#
# Stress axis : x y z
#
# Youngs Moduli (GPa) = 45.11738 81.22260 91.65732
#
# Poissons Ratio (x) = 0.23754 0.33122
# Poissons Ratio (y) = 0.13195 0.21555
# Poissons Ratio (z) = 0.16304 0.19101
#
# Static dielectric constant tensor:
#      x y z
#    x 1.819220 0.000000 0.000000 
#    y 0.000000 1.758290 0.000000 
#    z 0.000000 0.000000 1.883800 
# 
# From -- ./inp_files/5187.got.cif
#   From: 2010.05.17/outbox.cif.g08.bks.cpg/sg56_3_cif.got.tgz:5187.got - 2010.06.03 13:42:01.
