data_PCOD9432134
_publ_section_title
;
Structure prediction by ZEFSAII (Michael W. Deem and Ramdas Pophale) SiO2 
 PCOD9432134
Probable space group: P C C N
;
_chemical_formula_sum "Si O2"
_cell_formula_units_Z 40
_cell_length_a 23.721888
_cell_length_b 5.067030
_cell_length_c 14.065792
_cell_angle_alpha 90.000000
_cell_angle_beta 90.000000
_cell_angle_gamma 90.000000
_cell_volume 1690.701421
_symmetry_space_group_name_H-M "P C C N"
_symmetry_group_IT_number 56
_symmetry_cell_setting 'orthorhombic'
loop_
_space_group_symop_operation_xyz
x,y,z
1/2-x,1/2-y,z
1/2+x,-y,1/2-z
-x,1/2+y,1/2-z
-x,-y,-z
1/2+x,1/2+y,-z
1/2-x,y,1/2+z
x,1/2-y,1/2+z
loop_
_atom_site_type_symbol
_atom_site_label
_atom_site_fract_x
_atom_site_fract_y
_atom_site_fract_z
Si Si1 0.750000 0.250000 0.041600
Si Si2 0.750000 0.750000 0.675426
Si Si3 0.126570 0.883998 0.983629
Si Si4 0.425415 0.396737 0.578707
Si Si5 0.627886 0.650992 0.221126
Si Si6 0.977280 0.978874 0.697838
O O1 0.763492 0.500548 0.108210
O O2 0.692531 0.337329 0.989732
O O3 0.806349 0.705040 0.734125
O O4 0.096385 0.115434 0.042680
O O5 0.095642 0.614832 0.006656
O O6 0.123871 0.970926 0.873156
O O7 0.396166 0.457061 0.680518
O O8 0.491347 0.413112 0.604587
O O9 0.588222 0.904270 0.199595
O O10 0.006502 0.697756 0.723869
#
# Coordination Sequence:
#
# PCOD9432134 Si02
#       6
#     4   4   8   8   8   8
#     4  10  22  42  62  94 136 166 214 284 326 378
#     4  10  22  40  68  94 122 178 222 254 338 402
#     4  11  24  41  66  95 129 171 218 268 326 393
#     4  11  24  41  65  99 127 171 224 261 332 402
#     4  10  24  44  67  94 135 171 215 280 327 390
#     4  10  22  41  65  95 136 174 215 279 335 386
#
# _framework density 23.658819000000001
#
# number of rings (size 3 to 8) (size 9 to 14) (size 15 to 20)
#    0.000    1.600    0.000    4.800    0.000   17.600 
#    0.000    1.000    0.000    0.000    0.000    0.000 
#    0.000    0.000    0.000    0.000    0.000    0.000 
#
# Total GULP energy -223783.121369 kJ/mol
# GULP energy per Si atom -5594.578034 kJ/mol
# Density = 2.360497 g / cm^3
# Si number density = 23.658819 Si / 1000 Ang^3
#
#
#
# Elastic Constant Matrix: (Units=GPa)
#
#
# Indices 1 2 3 4 5 6 
#
# 1 174.8758 25.2633 41.6264 0.0000 0.0000 0.0000
# 2 25.2633 109.8416 2.1106 0.0000 0.0000 0.0000
# 3 41.6264 2.1106 83.8476 0.0000 0.0000 0.0000
# 4 0.0000 0.0000 0.0000 27.0832 0.0000 0.0000
# 5 0.0000 0.0000 0.0000 0.0000 53.9623 0.0000
# 6 0.0000 0.0000 0.0000 0.0000 0.0000 35.8531
#
#
#
# Elastic Compliance Matrix: (Units=1/GPa)
#
#
# Indices 1 2 3 4 5 6 
#
# 1 0.006717 -0.001482 -0.003298 0.000000 0.000000 0.000000
# 2 -0.001482 0.009435 0.000498 0.000000 0.000000 0.000000
# 3 -0.003298 0.000498 0.013551 0.000000 0.000000 0.000000
# 4 0.000000 0.000000 0.000000 0.036923 0.000000 0.000000
# 5 0.000000 0.000000 0.000000 0.000000 0.018531 0.000000
# 6 0.000000 0.000000 0.000000 0.000000 0.000000 0.027892
#
#
# Mechanical properties :
#
#
# Convention : Reuss Voigt Hill
#
# Bulk Modulus (GPa) = 47.30085 56.28507 51.79296
# Shear Modulus (GPa) = 38.86239 43.35069 41.10654
#
# Velocity S-wave (km/s) = 4.05732 4.28521 4.17282
# Velocity P-wave (km/s) = 6.47962 6.95169 6.71980
#
# Compressibility (1/GPa) = 0.02114127
#
# Stress axis : x y z
#
# Youngs Moduli (GPa) = 148.86922 105.98597 73.79566
#
# Poissons Ratio (x) = 0.15703 0.24334
# Poissons Ratio (y) = 0.22056 -0.03675
# Poissons Ratio (z) = 0.49090 -0.05279
#
# Static dielectric constant tensor:
#      x y z
#    x 1.945210 0.000000 0.000000 
#    y 0.000000 1.862450 0.000000 
#    z 0.000000 0.000000 1.913500 
# 
# From -- ./inp_files/13185.got.cif
#   From: 2010.05.17/outbox.cif.g08.bks.cpg/sg56_7_cif.got.tgz:13185.got - 2010.06.03 13:42:01.
