data_PCOD9432897
_publ_section_title
;
Structure prediction by ZEFSAII (Michael W. Deem and Ramdas Pophale) SiO2 
 PCOD9432897
Probable space group: P C C N
;
_chemical_formula_sum "Si O2"
_cell_formula_units_Z 32
_cell_length_a 5.348328
_cell_length_b 8.919482
_cell_length_c 27.529091
_cell_angle_alpha 90.000000
_cell_angle_beta 90.000000
_cell_angle_gamma 90.000000
_cell_volume 1313.256438
_symmetry_space_group_name_H-M "P C C N"
_symmetry_group_IT_number 56
_symmetry_cell_setting 'orthorhombic'
loop_
_space_group_symop_operation_xyz
x,y,z
1/2-x,1/2-y,z
1/2+x,-y,1/2-z
-x,1/2+y,1/2-z
-x,-y,-z
1/2+x,1/2+y,-z
1/2-x,y,1/2+z
x,1/2-y,1/2+z
loop_
_atom_site_type_symbol
_atom_site_label
_atom_site_fract_x
_atom_site_fract_y
_atom_site_fract_z
Si Si1 0.750000 0.250000 0.887980
Si Si2 0.323025 0.425505 0.270887
Si Si3 0.959328 0.996015 0.557089
Si Si4 0.750000 0.750000 0.383809
Si Si5 0.594894 0.493643 0.136621
O O1 0.595975 0.369746 0.857344
O O2 0.937544 0.340338 0.922364
O O3 0.250000 0.250000 0.265052
O O4 0.588616 0.477300 0.249663
O O5 0.322420 0.469466 0.328148
O O6 0.114803 0.128734 0.582427
O O7 0.684414 0.012886 0.580539
O O8 0.000000 0.000000 0.500000
O O9 0.953829 0.660507 0.352830
#
# Coordination Sequence:
#
# PCOD9432897 Si02
#       5
#     4   8   8   4   8
#     4  10  24  42  72 100 144 194 242 304 384 450
#     4  12  30  51  85 120 160 208 267 331 403 477
#     4  11  25  41  71 102 146 191 249 308 378 454
#     4  10  26  42  72 104 146 194 246 310 382 446
#     4  11  26  49  73 108 150 199 253 314 387 464
#
# _framework density 24.366907999999999
#
# number of rings (size 3 to 8) (size 9 to 14) (size 15 to 20)
#    0.000    1.000    0.000    3.750   19.250    4.000 
#    0.000    0.000    0.000    0.000    0.000    0.000 
#    0.000    0.000    0.000    0.000    0.000    0.000 
#
# Total GULP energy -179327.848026 kJ/mol
# GULP energy per Si atom -5603.995251 kJ/mol
# Density = 2.431145 g / cm^3
# Si number density = 24.366908 Si / 1000 Ang^3
#
#
#
# Elastic Constant Matrix: (Units=GPa)
#
#
# Indices 1 2 3 4 5 6 
#
# 1 100.0772 28.0417 19.1987 0.0000 0.0000 0.0000
# 2 28.0417 136.0411 12.6776 0.0000 0.0000 0.0000
# 3 19.1987 12.6776 111.8258 0.0000 0.0000 0.0000
# 4 0.0000 0.0000 0.0000 7.1397 0.0000 0.0000
# 5 0.0000 0.0000 0.0000 0.0000 23.9760 0.0000
# 6 0.0000 0.0000 0.0000 0.0000 0.0000 49.6500
#
#
#
# Elastic Compliance Matrix: (Units=1/GPa)
#
#
# Indices 1 2 3 4 5 6 
#
# 1 0.010892 -0.002093 -0.001633 0.000000 0.000000 0.000000
# 2 -0.002093 0.007831 -0.000529 0.000000 0.000000 0.000000
# 3 -0.001633 -0.000529 0.009283 0.000000 0.000000 0.000000
# 4 0.000000 0.000000 0.000000 0.140062 0.000000 0.000000
# 5 0.000000 0.000000 0.000000 0.000000 0.041708 0.000000
# 6 0.000000 0.000000 0.000000 0.000000 0.000000 0.020141
#
#
# Mechanical properties :
#
#
# Convention : Reuss Voigt Hill
#
# Bulk Modulus (GPa) = 51.28811 51.97556 51.63184
# Shear Modulus (GPa) = 20.41443 35.35489 27.88466
#
# Velocity S-wave (km/s) = 2.89761 3.81325 3.38652
# Velocity P-wave (km/s) = 5.68232 6.38471 6.04373
#
# Compressibility (1/GPa) = 0.01949770
#
# Stress axis : x y z
#
# Youngs Moduli (GPa) = 91.81096 127.69128 107.72719
#
# Poissons Ratio (x) = 0.26725 0.17589
# Poissons Ratio (y) = 0.19216 0.05693
# Poissons Ratio (z) = 0.14990 0.06749
#
# Static dielectric constant tensor:
#      x y z
#    x 1.972970 0.000000 0.000000 
#    y 0.000000 1.902820 0.000000 
#    z 0.000000 0.000000 1.933500 
# 
# From -- ./inp_files/22667.got.cif
#   From: 2010.05.17/outbox.cif.g08.bks.cpg/sg56_12_cif.got.tgz:22667.got - 2010.06.03 13:42:01.
