data_PCOD9432349
_publ_section_title
;
Structure prediction by ZEFSAII (Michael W. Deem and Ramdas Pophale) SiO2 
 PCOD9432349
Probable space group: P C C N
;
_chemical_formula_sum "Si O2"
_cell_formula_units_Z 40
_cell_length_a 10.599431
_cell_length_b 6.919483
_cell_length_c 22.813961
_cell_angle_alpha 90.000000
_cell_angle_beta 90.000000
_cell_angle_gamma 90.000000
_cell_volume 1673.234819
_symmetry_space_group_name_H-M "P C C N"
_symmetry_group_IT_number 56
_symmetry_cell_setting 'orthorhombic'
loop_
_space_group_symop_operation_xyz
x,y,z
1/2-x,1/2-y,z
1/2+x,-y,1/2-z
-x,1/2+y,1/2-z
-x,-y,-z
1/2+x,1/2+y,-z
1/2-x,y,1/2+z
x,1/2-y,1/2+z
loop_
_atom_site_type_symbol
_atom_site_label
_atom_site_fract_x
_atom_site_fract_y
_atom_site_fract_z
Si Si1 0.583367 0.508769 0.310435
Si Si2 0.895470 0.720386 0.627967
Si Si3 0.657606 0.572341 0.435011
Si Si4 0.022257 0.731249 0.508224
Si Si5 0.118345 0.842692 0.812471
O O1 0.486569 0.344246 0.331463
O O2 0.675532 0.533698 0.366087
O O3 0.645285 0.449617 0.249469
O O4 0.494775 0.694328 0.302472
O O5 0.750000 0.750000 0.642157
O O6 0.924572 0.772225 0.561247
O O7 0.924984 0.498745 0.640515
O O8 0.750000 0.750000 0.452682
O O9 0.522342 0.669728 0.448457
O O10 0.641136 0.365737 0.469141
O O11 0.000000 0.500000 0.500000
O O12 0.250000 0.750000 0.832120
#
# Coordination Sequence:
#
# PCOD9432349 Si02
#       5
#     8   8   8   8   8
#     4  11  24  42  64  96 137 171 224 279 330 412
#     4  11  22  41  67  95 128 170 223 277 335 399
#     4  10  23  43  64  94 134 177 217 277 347 407
#     4  10  22  43  66  95 131 171 226 281 337 412
#     4  12  24  41  67  96 129 178 221 274 340 393
#
# _framework density 23.905792000000002
#
# number of rings (size 3 to 8) (size 9 to 14) (size 15 to 20)
#    0.000    1.200    4.000    1.800    0.000    3.200 
#   10.800    0.000    0.000    0.000    0.000    0.000 
#    0.000    0.000    0.000    0.000    0.000    0.000 
#
# Total GULP energy -223122.742409 kJ/mol
# GULP energy per Si atom -5578.068560 kJ/mol
# Density = 2.385138 g / cm^3
# Si number density = 23.905792 Si / 1000 Ang^3
#
#
#
# Elastic Constant Matrix: (Units=GPa)
#
#
# Indices 1 2 3 4 5 6 
#
# 1 47.8677 41.3182 -2.0605 0.0000 0.0000 0.0000
# 2 41.3182 177.4524 14.8977 0.0000 0.0000 0.0000
# 3 -2.0605 14.8977 77.7742 0.0000 0.0000 0.0000
# 4 0.0000 0.0000 0.0000 40.3711 0.0000 0.0000
# 5 0.0000 0.0000 0.0000 0.0000 -5.2784 0.0000
# 6 0.0000 0.0000 0.0000 0.0000 0.0000 50.7245
#
#
#
# Elastic Compliance Matrix: (Units=1/GPa)
#
#
# Indices 1 2 3 4 5 6 
#
# 1 0.026422 -0.006312 0.001909 0.000000 0.000000 0.000000
# 2 -0.006312 0.007235 -0.001553 0.000000 0.000000 0.000000
# 3 0.001909 -0.001553 0.013206 0.000000 0.000000 0.000000
# 4 0.000000 0.000000 0.000000 0.024770 0.000000 0.000000
# 5 0.000000 0.000000 0.000000 0.000000 -0.189453 0.000000
# 6 0.000000 0.000000 0.000000 0.000000 0.000000 0.019714
#
#
# Mechanical properties :
#
#
# Convention : Reuss Voigt Hill
#
# Bulk Modulus (GPa) = 28.61210 45.71167 37.16189
# Shear Modulus (GPa) = -67.07621 33.75938 -16.65841
#
# Velocity S-wave (km/s) = -5.30278 3.76198 -2.64263
# Velocity P-wave (km/s) = 5.04955 6.16710 2.50351
#
# Compressibility (1/GPa) = 0.03495025
#
# Stress axis : x y z
#
# Youngs Moduli (GPa) = 37.84763 138.20773 75.72408
#
# Poissons Ratio (x) = 0.87241 -0.14457
# Poissons Ratio (y) = 0.23891 0.11761
# Poissons Ratio (z) = -0.07226 0.21466
#
# Static dielectric constant tensor:
#      x y z
#    x 1.911690 0.000000 0.000000 
#    y 0.000000 1.978670 0.000000 
#    z 0.000000 0.000000 1.882090 
# 
# From -- ./inp_files/21503.got.cif
#   From: 2010.05.17/outbox.cif.g08.bks.cpg/sg56_11_cif.got.tgz:21503.got - 2010.06.03 13:42:01.
