data_PCOD9432842
_publ_section_title
;
Structure prediction by ZEFSAII (Michael W. Deem and Ramdas Pophale) SiO2 
 PCOD9432842
Probable space group: P C C N
;
_chemical_formula_sum "Si O2"
_cell_formula_units_Z 52
_cell_length_a 8.732350
_cell_length_b 21.938827
_cell_length_c 13.535112
_cell_angle_alpha 90.000000
_cell_angle_beta 90.000000
_cell_angle_gamma 90.000000
_cell_volume 2593.023135
_symmetry_space_group_name_H-M "P C C N"
_symmetry_group_IT_number 56
_symmetry_cell_setting 'orthorhombic'
loop_
_space_group_symop_operation_xyz
x,y,z
1/2-x,1/2-y,z
1/2+x,-y,1/2-z
-x,1/2+y,1/2-z
-x,-y,-z
1/2+x,1/2+y,-z
1/2-x,y,1/2+z
x,1/2-y,1/2+z
loop_
_atom_site_type_symbol
_atom_site_label
_atom_site_fract_x
_atom_site_fract_y
_atom_site_fract_z
Si Si1 0.500368 0.958921 0.235117
Si Si2 0.931477 0.150703 0.821222
Si Si3 0.250000 0.250000 0.579328
Si Si4 0.486768 0.222794 0.909384
Si Si5 0.196698 0.570188 0.832708
Si Si6 0.321851 0.897498 0.056512
Si Si7 0.274817 0.152577 0.751945
O O1 0.366366 0.955285 0.315188
O O2 0.415472 0.938536 0.133946
O O3 0.628166 0.908713 0.260774
O O4 0.579767 0.023184 0.217789
O O5 0.828224 0.133828 0.725795
O O6 0.852618 0.110524 0.906723
O O7 0.933219 0.220480 0.856046
O O8 0.107175 0.137887 0.794067
O O9 0.104694 0.244544 0.506525
O O10 0.260090 0.191665 0.651649
O O11 0.603407 0.169475 0.937079
O O12 0.365724 0.193479 0.832197
O O13 0.164927 0.577725 0.947128
#
# Coordination Sequence:
#
# PCOD9432842 Si02
#       7
#     8   8   4   8   8   8   8
#     4  10  24  43  66  96 130 166 222 279 318 398
#     4  11  21  42  60  93 134 163 213 273 315 384
#     4  12  20  36  68  90 130 172 218 244 328 394
#     4  11  22  39  58  95 132 165 218 267 313 392
#     4  11  23  44  67  93 128 176 216 265 344 389
#     4  10  24  40  66  94 128 168 220 270 331 383
#     4  11  22  40  64  92 132 170 214 270 326 381
#
# _framework density 20.053811
#
# number of rings (size 3 to 8) (size 9 to 14) (size 15 to 20)
#    0.000    1.231    3.077    2.769    2.154    0.000 
#    0.000   11.538    0.000    0.000    0.000    0.000 
#    0.000    0.000    0.000    0.000    0.000    0.000 
#
# Total GULP energy -290635.163681 kJ/mol
# GULP energy per Si atom -5589.137763 kJ/mol
# Density = 2.000817 g / cm^3
# Si number density = 20.053811 Si / 1000 Ang^3
#
#
#
# Elastic Constant Matrix: (Units=GPa)
#
#
# Indices 1 2 3 4 5 6 
#
# 1 92.8943 30.6724 10.0340 0.0000 0.0000 0.0000
# 2 30.6724 84.5467 30.3769 0.0000 0.0000 0.0000
# 3 10.0340 30.3769 67.9951 0.0000 0.0000 0.0000
# 4 0.0000 0.0000 0.0000 15.3610 0.0000 0.0000
# 5 0.0000 0.0000 0.0000 0.0000 19.1491 0.0000
# 6 0.0000 0.0000 0.0000 0.0000 0.0000 30.9174
#
#
#
# Elastic Compliance Matrix: (Units=1/GPa)
#
#
# Indices 1 2 3 4 5 6 
#
# 1 0.012232 -0.004514 0.000211 0.000000 0.000000 0.000000
# 2 -0.004514 0.015755 -0.006372 0.000000 0.000000 0.000000
# 3 0.000211 -0.006372 0.017523 0.000000 0.000000 0.000000
# 4 0.000000 0.000000 0.000000 0.065100 0.000000 0.000000
# 5 0.000000 0.000000 0.000000 0.000000 0.052222 0.000000
# 6 0.000000 0.000000 0.000000 0.000000 0.000000 0.032344
#
#
# Mechanical properties :
#
#
# Convention : Reuss Voigt Hill
#
# Bulk Modulus (GPa) = 41.39001 43.06698 42.22850
# Shear Modulus (GPa) = 22.26389 24.70902 23.48646
#
# Velocity S-wave (km/s) = 3.33559 3.51399 3.42595
# Velocity P-wave (km/s) = 5.95980 6.16332 6.06241
#
# Compressibility (1/GPa) = 0.02416042
#
# Stress axis : x y z
#
# Youngs Moduli (GPa) = 81.74969 63.47253 57.06904
#
# Poissons Ratio (x) = 0.28650 -0.01206
# Poissons Ratio (y) = 0.36899 0.36367
# Poissons Ratio (z) = -0.01728 0.40447
#
# Static dielectric constant tensor:
#      x y z
#    x 1.715760 0.000000 0.000000 
#    y 0.000000 1.712460 0.000000 
#    z 0.000000 0.000000 1.675940 
# 
# From -- ./inp_files/10823.got.cif
#   From: 2010.05.17/outbox.cif.g08.bks.cpg/sg56_6_cif.got.tgz:10823.got - 2010.06.03 13:42:01.
