data_PCOD9432964
_publ_section_title
;
Structure prediction by ZEFSAII (Michael W. Deem and Ramdas Pophale) SiO2 
 PCOD9432964
Probable space group: P C C N
;
_chemical_formula_sum "Si O2"
_cell_formula_units_Z 56
_cell_length_a 21.004304
_cell_length_b 8.625000
_cell_length_c 14.713926
_cell_angle_alpha 90.000000
_cell_angle_beta 90.000000
_cell_angle_gamma 90.000000
_cell_volume 2665.606057
_symmetry_space_group_name_H-M "P C C N"
_symmetry_group_IT_number 56
_symmetry_cell_setting 'orthorhombic'
loop_
_space_group_symop_operation_xyz
x,y,z
1/2-x,1/2-y,z
1/2+x,-y,1/2-z
-x,1/2+y,1/2-z
-x,-y,-z
1/2+x,1/2+y,-z
1/2-x,y,1/2+z
x,1/2-y,1/2+z
loop_
_atom_site_type_symbol
_atom_site_label
_atom_site_fract_x
_atom_site_fract_y
_atom_site_fract_z
Si Si1 0.985605 0.177627 0.480934
Si Si2 0.116878 0.360886 0.515613
Si Si3 0.883236 0.341934 0.610589
Si Si4 0.086866 0.424746 0.720401
Si Si5 0.775786 0.587734 0.211377
Si Si6 0.250000 0.250000 0.464639
Si Si7 0.535944 0.236159 0.771542
Si Si8 0.250000 0.750000 0.313349
O O1 0.932616 0.241941 0.550350
O O2 0.961702 0.199292 0.377894
O O3 0.052500 0.267910 0.492899
O O4 0.000000 0.000000 0.500000
O O5 0.122676 0.496699 0.441834
O O6 0.107376 0.429304 0.615815
O O7 0.183271 0.266949 0.515584
O O8 0.916298 0.362533 0.708939
O O9 0.814927 0.263309 0.628485
O O10 0.148824 0.401935 0.780381
O O11 0.054781 0.586911 0.744164
O O12 0.035072 0.293815 0.737030
O O13 0.750000 0.750000 0.254740
O O14 0.756219 0.606897 0.106112
O O15 0.754528 0.414861 0.240920
#
# Coordination Sequence:
#
# PCOD9432964 Si02
#       8
#     8   8   8   8   8   4   8   4
#     4  12  27  45  69 109 146 184 247 305 369 449
#     4  12  25  47  70 101 147 189 242 304 373 431
#     4  12  24  48  73 105 141 190 245 299 375 439
#     4  12  25  46  70 108 141 190 249 300 375 451
#     4  10  24  46  70 106 144 193 249 297 364 441
#     4  10  24  44  72  98 140 202 234 304 366 434
#     4  12  25  43  75 101 141 188 240 305 370 440
#     4  12  24  46  80 102 150 202 240 312 364 450
#
# _framework density 21.008353
#
# number of rings (size 3 to 8) (size 9 to 14) (size 15 to 20)
#    0.429    0.000    5.714    3.000    3.000    1.143 
#    0.000    2.857    0.000    0.000    0.000    0.000 
#    0.000    0.000    0.000    0.000    0.000    0.000 
#
# Total GULP energy -312896.058681 kJ/mol
# GULP energy per Si atom -5587.429619 kJ/mol
# Density = 2.096054 g / cm^3
# Si number density = 21.008353 Si / 1000 Ang^3
#
#
#
# Elastic Constant Matrix: (Units=GPa)
#
#
# Indices 1 2 3 4 5 6 
#
# 1 172.5351 48.1316 46.6720 0.0000 0.0000 0.0000
# 2 48.1316 113.2100 1.9454 0.0000 0.0000 0.0000
# 3 46.6720 1.9454 74.5298 0.0000 0.0000 0.0000
# 4 0.0000 0.0000 0.0000 17.4288 0.0000 0.0000
# 5 0.0000 0.0000 0.0000 0.0000 24.6325 0.0000
# 6 0.0000 0.0000 0.0000 0.0000 0.0000 38.5672
#
#
#
# Elastic Compliance Matrix: (Units=1/GPa)
#
#
# Indices 1 2 3 4 5 6 
#
# 1 0.008074 -0.003347 -0.004969 0.000000 0.000000 0.000000
# 2 -0.003347 0.010225 0.001829 0.000000 0.000000 0.000000
# 3 -0.004969 0.001829 0.016481 0.000000 0.000000 0.000000
# 4 0.000000 0.000000 0.000000 0.057376 0.000000 0.000000
# 5 0.000000 0.000000 0.000000 0.000000 0.040597 0.000000
# 6 0.000000 0.000000 0.000000 0.000000 0.000000 0.025929
#
#
# Mechanical properties :
#
#
# Convention : Reuss Voigt Hill
#
# Bulk Modulus (GPa) = 45.85787 61.53032 53.69410
# Shear Modulus (GPa) = 27.94491 33.69408 30.81950
#
# Velocity S-wave (km/s) = 3.65112 4.00914 3.83431
# Velocity P-wave (km/s) = 6.29683 7.12622 6.72433
#
# Compressibility (1/GPa) = 0.02180651
#
# Stress axis : x y z
#
# Youngs Moduli (GPa) = 123.85886 97.80167 60.67549
#
# Poissons Ratio (x) = 0.32736 0.30147
# Poissons Ratio (y) = 0.41458 -0.11099
# Poissons Ratio (z) = 0.61540 -0.17890
#
# Static dielectric constant tensor:
#      x y z
#    x 1.762500 0.000000 0.000000 
#    y 0.000000 1.794610 0.000000 
#    z 0.000000 0.000000 1.739020 
# 
# From -- ./inp_files/13108.got.cif
#   From: 2010.05.17/outbox.cif.g08.bks.cpg/sg56_7_cif.got.tgz:13108.got - 2010.06.03 13:42:01.
