data_PCOD9432537
_publ_section_title
;
Structure prediction by ZEFSAII (Michael W. Deem and Ramdas Pophale) SiO2 
 PCOD9432537
Probable space group: P C C N
;
_chemical_formula_sum "Si O2"
_cell_formula_units_Z 64
_cell_length_a 16.724902
_cell_length_b 22.861673
_cell_length_c 8.690856
_cell_angle_alpha 90.000000
_cell_angle_beta 90.000000
_cell_angle_gamma 90.000000
_cell_volume 3323.029099
_symmetry_space_group_name_H-M "P C C N"
_symmetry_group_IT_number 56
_symmetry_cell_setting 'orthorhombic'
loop_
_space_group_symop_operation_xyz
x,y,z
1/2-x,1/2-y,z
1/2+x,-y,1/2-z
-x,1/2+y,1/2-z
-x,-y,-z
1/2+x,1/2+y,-z
1/2-x,y,1/2+z
x,1/2-y,1/2+z
loop_
_atom_site_type_symbol
_atom_site_label
_atom_site_fract_x
_atom_site_fract_y
_atom_site_fract_z
Si Si1 0.000389 0.412557 0.600375
Si Si2 0.998900 0.828706 0.404243
Si Si3 0.293962 0.000905 0.170299
Si Si4 0.515430 0.789156 0.550797
Si Si5 0.134794 0.500694 0.511932
Si Si6 0.196020 0.301981 0.418843
Si Si7 0.449888 0.942790 0.054476
Si Si8 0.677592 0.632741 0.383338
O O1 0.995257 0.344855 0.554837
O O2 0.084727 0.442095 0.551854
O O3 0.931879 0.449003 0.510144
O O4 0.986689 0.422781 0.781358
O O5 0.023863 0.772311 0.504032
O O6 0.999863 0.807924 0.226885
O O7 0.907914 0.847486 0.446096
O O8 0.045415 0.888617 0.437420
O O9 0.319320 0.003910 0.348887
O O10 0.358362 0.959570 0.088188
O O11 0.307857 0.064742 0.097340
O O12 0.201848 0.985927 0.139087
O O13 0.610619 0.779206 0.527112
O O14 0.250000 0.250000 0.350225
O O15 0.177132 0.351423 0.295398
O O16 0.250389 0.330686 0.547111
O O17 0.500000 0.000000 0.000000
#
# Coordination Sequence:
#
# PCOD9432537 Si02
#       8
#     8   8   8   8   8   8   8   8
#     4  10  23  42  63  89 129 169 211 260 321 381
#     4  11  23  38  58  85 115 163 208 257 312 378
#     4  11  22  39  59  92 122 161 209 262 317 381
#     4  11  23  39  60  84 121 162 214 254 316 380
#     4  10  23  39  62  92 125 164 207 260 322 373
#     4  11  22  34  50  78 118 162 202 248 293 369
#     4  11  24  40  63  89 125 168 218 263 321 377
#     4  11  21  33  51  77 117 156 203 239 307 360
#
# _framework density 19.259536000000001
#
# number of rings (size 3 to 8) (size 9 to 14) (size 15 to 20)
#    0.000    1.250    2.500    4.125    7.000    2.000 
#    0.000    0.000    0.000    0.750    0.000    5.250 
#    0.000    0.000    0.000    0.000    0.000    0.000 
#
# Total GULP energy -357534.590289 kJ/mol
# GULP energy per Si atom -5586.477973 kJ/mol
# Density = 1.921570 g / cm^3
# Si number density = 19.259536 Si / 1000 Ang^3
#
#
#
# Elastic Constant Matrix: (Units=GPa)
#
#
# Indices 1 2 3 4 5 6 
#
# 1 76.6157 21.0595 28.2978 0.0000 0.0000 0.0000
# 2 21.0595 115.0292 30.6289 0.0000 0.0000 0.0000
# 3 28.2978 30.6289 45.7508 0.0000 0.0000 0.0000
# 4 0.0000 0.0000 0.0000 32.2291 0.0000 0.0000
# 5 0.0000 0.0000 0.0000 0.0000 27.3311 0.0000
# 6 0.0000 0.0000 0.0000 0.0000 0.0000 17.6986
#
#
#
# Elastic Compliance Matrix: (Units=1/GPa)
#
#
# Indices 1 2 3 4 5 6 
#
# 1 0.016930 -0.000379 -0.010218 0.000000 0.000000 0.000000
# 2 -0.000379 0.010588 -0.006854 0.000000 0.000000 0.000000
# 3 -0.010218 -0.006854 0.032766 0.000000 0.000000 0.000000
# 4 0.000000 0.000000 0.000000 0.031028 0.000000 0.000000
# 5 0.000000 0.000000 0.000000 0.000000 0.036588 0.000000
# 6 0.000000 0.000000 0.000000 0.000000 0.000000 0.056502
#
#
# Mechanical properties :
#
#
# Convention : Reuss Voigt Hill
#
# Bulk Modulus (GPa) = 39.39717 44.15200 41.77459
# Shear Modulus (GPa) = 21.95246 25.94572 23.94909
#
# Velocity S-wave (km/s) = 3.37979 3.67435 3.53014
# Velocity P-wave (km/s) = 5.97754 6.40122 6.19301
#
# Compressibility (1/GPa) = 0.02538253
#
# Stress axis : x y z
#
# Youngs Moduli (GPa) = 59.06553 94.44842 30.51924
#
# Poissons Ratio (x) = 0.03578 0.31185
# Poissons Ratio (y) = 0.02237 0.20918
# Poissons Ratio (z) = 0.60354 0.64734
#
# Static dielectric constant tensor:
#      x y z
#    x 1.686570 0.000000 0.000000 
#    y 0.000000 1.672290 0.000000 
#    z 0.000000 0.000000 1.704640 
# 
# From -- ./inp_files/4266.got.cif
#   From: 2010.05.17/outbox.cif.g08.bks.cpg/sg56_3_cif.got.tgz:4266.got - 2010.06.03 13:42:01.
