data_PCOD9432148
_publ_section_title
;
Structure prediction by ZEFSAII (Michael W. Deem and Ramdas Pophale) SiO2 
 PCOD9432148
Probable space group: P C C N
;
_chemical_formula_sum "Si O2"
_cell_formula_units_Z 60
_cell_length_a 29.905755
_cell_length_b 5.334334
_cell_length_c 16.855226
_cell_angle_alpha 90.000000
_cell_angle_beta 90.000000
_cell_angle_gamma 90.000000
_cell_volume 2688.868454
_symmetry_space_group_name_H-M "P C C N"
_symmetry_group_IT_number 56
_symmetry_cell_setting 'orthorhombic'
loop_
_space_group_symop_operation_xyz
x,y,z
1/2-x,1/2-y,z
1/2+x,-y,1/2-z
-x,1/2+y,1/2-z
-x,-y,-z
1/2+x,1/2+y,-z
1/2-x,y,1/2+z
x,1/2-y,1/2+z
loop_
_atom_site_type_symbol
_atom_site_label
_atom_site_fract_x
_atom_site_fract_y
_atom_site_fract_z
Si Si1 0.915836 0.670373 0.829376
Si Si2 0.124053 0.342789 0.524097
Si Si3 0.509752 0.052095 0.128653
Si Si4 0.093960 0.845505 0.265253
Si Si5 0.250000 0.250000 0.387426
Si Si6 0.961736 0.190091 0.974566
Si Si7 0.707141 0.138118 0.488648
Si Si8 0.661459 0.518146 0.608013
O O1 0.892843 0.631664 0.914931
O O2 0.909348 0.429020 0.773650
O O3 0.968232 0.725452 0.845993
O O4 0.895547 0.924980 0.793761
O O5 0.085107 0.549770 0.525429
O O6 0.170599 0.464419 0.552615
O O7 0.132748 0.234282 0.436123
O O8 0.547018 0.072063 0.194912
O O9 0.480506 0.807042 0.106759
O O10 0.535704 0.110731 0.046567
O O11 0.131296 0.857174 0.333651
O O12 0.229604 0.465193 0.443686
O O13 0.294456 0.367778 0.348660
O O14 0.000000 0.000000 0.000000
O O15 0.750000 0.250000 0.442934
O O16 0.679876 0.352458 0.534942
#
# Coordination Sequence:
#
# PCOD9432148 Si02
#       8
#     8   8   8   8   4   8   8   8
#     4  12  28  44  63  98 143 189 224 277 351 413
#     4  11  23  40  69 101 139 180 231 294 347 425
#     4  11  25  42  63  95 136 185 232 287 334 404
#     4  12  28  44  67  98 140 189 234 278 338 422
#     4   8  18  38  68 108 126 164 222 298 346 398
#     4  11  22  38  68 100 128 172 237 291 339 390
#     4   9  19  38  70 106 129 165 226 297 352 409
#     4  10  22  40  72 104 132 175 235 291 345 417
#
# _framework density 22.314216999999999
#
# number of rings (size 3 to 8) (size 9 to 14) (size 15 to 20)
#    0.000    1.333    1.333    3.200   13.067    0.000 
#    0.000    0.000    0.000    7.200    0.000    0.000 
#    0.000    0.000    0.000    0.000    0.000    0.000 
#
# Total GULP energy -334987.064778 kJ/mol
# GULP energy per Si atom -5583.117746 kJ/mol
# Density = 2.226343 g / cm^3
# Si number density = 22.314217 Si / 1000 Ang^3
#
#
#
# Elastic Constant Matrix: (Units=GPa)
#
#
# Indices 1 2 3 4 5 6 
#
# 1 155.6020 29.9845 43.0033 0.0000 0.0000 0.0000
# 2 29.9845 86.9542 22.2491 0.0000 0.0000 0.0000
# 3 43.0033 22.2491 67.9646 0.0000 0.0000 0.0000
# 4 0.0000 0.0000 0.0000 32.3764 0.0000 0.0000
# 5 0.0000 0.0000 0.0000 0.0000 14.0341 0.0000
# 6 0.0000 0.0000 0.0000 0.0000 0.0000 44.2906
#
#
#
# Elastic Compliance Matrix: (Units=1/GPa)
#
#
# Indices 1 2 3 4 5 6 
#
# 1 0.007986 -0.001594 -0.004531 0.000000 0.000000 0.000000
# 2 -0.001594 0.012870 -0.003204 0.000000 0.000000 0.000000
# 3 -0.004531 -0.003204 0.018630 0.000000 0.000000 0.000000
# 4 0.000000 0.000000 0.000000 0.030887 0.000000 0.000000
# 5 0.000000 0.000000 0.000000 0.000000 0.071255 0.000000
# 6 0.000000 0.000000 0.000000 0.000000 0.000000 0.022578
#
#
# Mechanical properties :
#
#
# Convention : Reuss Voigt Hill
#
# Bulk Modulus (GPa) = 48.01716 55.66606 51.84161
# Shear Modulus (GPa) = 26.34249 32.49246 29.41747
#
# Velocity S-wave (km/s) = 3.43960 3.82007 3.63482
# Velocity P-wave (km/s) = 6.11063 6.66767 6.39522
#
# Compressibility (1/GPa) = 0.02082589
#
# Stress axis : x y z
#
# Youngs Moduli (GPa) = 125.21655 77.69988 53.67830
#
# Poissons Ratio (x) = 0.12389 0.24322
# Poissons Ratio (y) = 0.19966 0.17200
# Poissons Ratio (z) = 0.56737 0.24897
#
# Static dielectric constant tensor:
#      x y z
#    x 1.857840 0.000000 0.000000 
#    y 0.000000 1.957310 0.000000 
#    z 0.000000 0.000000 1.874870 
# 
# From -- ./inp_files/17052.got.cif
#   From: 2010.05.17/outbox.cif.g08.bks.cpg/sg56_9_cif.got.tgz:17052.got - 2010.06.03 13:42:01.
