data_PCOD9432474
_publ_section_title
;
Structure prediction by ZEFSAII (Michael W. Deem and Ramdas Pophale) SiO2 
 PCOD9432474
Probable space group: P C C N
;
_chemical_formula_sum "Si O2"
_cell_formula_units_Z 48
_cell_length_a 15.055789
_cell_length_b 9.424361
_cell_length_c 16.553231
_cell_angle_alpha 90.000000
_cell_angle_beta 90.000000
_cell_angle_gamma 90.000000
_cell_volume 2348.757656
_symmetry_space_group_name_H-M "P C C N"
_symmetry_group_IT_number 56
_symmetry_cell_setting 'orthorhombic'
loop_
_space_group_symop_operation_xyz
x,y,z
1/2-x,1/2-y,z
1/2+x,-y,1/2-z
-x,1/2+y,1/2-z
-x,-y,-z
1/2+x,1/2+y,-z
1/2-x,y,1/2+z
x,1/2-y,1/2+z
loop_
_atom_site_type_symbol
_atom_site_label
_atom_site_fract_x
_atom_site_fract_y
_atom_site_fract_z
Si Si1 0.061795 0.068590 0.067557
Si Si2 0.571712 0.111705 0.268818
Si Si3 0.070694 0.168440 0.317346
Si Si4 0.437199 0.363016 0.501191
Si Si5 0.750000 0.750000 0.272381
Si Si6 0.233675 0.469953 0.084039
Si Si7 0.250000 0.750000 0.170804
O O1 0.166873 0.046757 0.049924
O O2 0.052043 0.988513 0.152886
O O3 0.041689 0.236662 0.064210
O O4 0.000000 0.000000 0.000000
O O5 0.503706 0.241244 0.270922
O O6 0.670592 0.176742 0.279164
O O7 0.561868 0.000712 0.196202
O O8 0.061397 0.201354 0.411592
O O9 0.165455 0.212887 0.281432
O O10 0.500000 0.500000 0.500000
O O11 0.338590 0.413854 0.522619
O O12 0.730253 0.621525 0.333634
O O13 0.212183 0.628698 0.112103
#
# Coordination Sequence:
#
# PCOD9432474 Si02
#       7
#     8   8   8   8   4   8   4
#     4  11  22  45  67  97 128 181 223 277 337 399
#     4  11  25  44  69  97 138 174 227 281 341 406
#     4  12  27  41  68 105 134 180 227 282 345 410
#     4  12  26  42  70 101 138 176 234 279 339 410
#     4  12  24  44  70  96 130 184 222 278 346 404
#     4  11  23  45  71  91 134 182 224 275 341 409
#     4  10  22  46  68  96 128 184 226 264 346 402
#
# _framework density 20.436336000000001
#
# number of rings (size 3 to 8) (size 9 to 14) (size 15 to 20)
#    0.000    0.667    6.667    1.000   11.667    0.000 
#    0.000    0.833    0.000    0.000    0.000    0.000 
#    0.000    0.000    0.000    0.000    0.000    0.000 
#
# Total GULP energy -268301.861794 kJ/mol
# GULP energy per Si atom -5589.622121 kJ/mol
# Density = 2.038982 g / cm^3
# Si number density = 20.436336 Si / 1000 Ang^3
#
#
#
# Elastic Constant Matrix: (Units=GPa)
#
#
# Indices 1 2 3 4 5 6 
#
# 1 85.1128 25.6053 18.2382 0.0000 0.0000 0.0000
# 2 25.6053 131.0746 13.3562 0.0000 0.0000 0.0000
# 3 18.2382 13.3562 56.7783 0.0000 0.0000 0.0000
# 4 0.0000 0.0000 0.0000 38.2556 0.0000 0.0000
# 5 0.0000 0.0000 0.0000 0.0000 9.6896 0.0000
# 6 0.0000 0.0000 0.0000 0.0000 0.0000 38.3237
#
#
#
# Elastic Compliance Matrix: (Units=1/GPa)
#
#
# Indices 1 2 3 4 5 6 
#
# 1 0.013210 -0.002201 -0.003725 0.000000 0.000000 0.000000
# 2 -0.002201 0.008183 -0.001218 0.000000 0.000000 0.000000
# 3 -0.003725 -0.001218 0.019096 0.000000 0.000000 0.000000
# 4 0.000000 0.000000 0.000000 0.026140 0.000000 0.000000
# 5 0.000000 0.000000 0.000000 0.000000 0.103204 0.000000
# 6 0.000000 0.000000 0.000000 0.000000 0.000000 0.026094
#
#
# Mechanical properties :
#
#
# Convention : Reuss Voigt Hill
#
# Bulk Modulus (GPa) = 38.16830 43.04056 40.60443
# Shear Modulus (GPa) = 22.83651 31.63816 27.23734
#
# Velocity S-wave (km/s) = 3.34645 3.93890 3.65470
# Velocity P-wave (km/s) = 5.80076 6.46476 6.14174
#
# Compressibility (1/GPa) = 0.02619975
#
# Stress axis : x y z
#
# Youngs Moduli (GPa) = 75.70304 122.20021 52.36817
#
# Poissons Ratio (x) = 0.26894 0.19509
# Poissons Ratio (y) = 0.16661 0.06379
# Poissons Ratio (z) = 0.28203 0.14884
#
# Static dielectric constant tensor:
#      x y z
#    x 1.706460 0.000000 0.000000 
#    y 0.000000 1.677490 0.000000 
#    z 0.000000 0.000000 1.698270 
# 
# From -- ./inp_files/14883.got.cif
#   From: 2010.05.17/outbox.cif.g08.bks.cpg/sg56_8_cif.got.tgz:14883.got - 2010.06.03 13:42:01.
