data_PCOD9432615
_publ_section_title
;
Structure prediction by ZEFSAII (Michael W. Deem and Ramdas Pophale) SiO2 
 PCOD9432615
Probable space group: P C C N
;
_chemical_formula_sum "Si O2"
_cell_formula_units_Z 44
_cell_length_a 8.807308
_cell_length_b 24.908396
_cell_length_c 8.760640
_cell_angle_alpha 90.000000
_cell_angle_beta 90.000000
_cell_angle_gamma 90.000000
_cell_volume 1921.873419
_symmetry_space_group_name_H-M "P C C N"
_symmetry_group_IT_number 56
_symmetry_cell_setting 'orthorhombic'
loop_
_space_group_symop_operation_xyz
x,y,z
1/2-x,1/2-y,z
1/2+x,-y,1/2-z
-x,1/2+y,1/2-z
-x,-y,-z
1/2+x,1/2+y,-z
1/2-x,y,1/2+z
x,1/2-y,1/2+z
loop_
_atom_site_type_symbol
_atom_site_label
_atom_site_fract_x
_atom_site_fract_y
_atom_site_fract_z
Si Si1 0.463281 0.035054 0.723506
Si Si2 0.250000 0.250000 0.065629
Si Si3 0.461718 0.845449 0.655541
Si Si4 0.174431 0.865938 0.820203
Si Si5 0.337628 0.441333 0.887360
Si Si6 0.534390 0.719971 0.684421
O O1 0.594753 0.079551 0.733228
O O2 0.334356 0.043527 0.849121
O O3 0.377861 0.045551 0.562340
O O4 0.547391 0.978341 0.711400
O O5 0.138094 0.285993 0.964181
O O6 0.354193 0.286466 0.171859
O O7 0.352630 0.865884 0.790155
O O8 0.374697 0.855677 0.494779
O O9 0.614996 0.880193 0.647399
O O10 0.488403 0.782459 0.677699
O O11 0.105223 0.818370 0.715349
#
# Coordination Sequence:
#
# PCOD9432615 Si02
#       6
#     8   4   8   8   8   8
#     4  10  23  42  65  92 123 158 203 252 304 362
#     4  10  24  38  62  90 128 154 210 254 304 356
#     4  11  25  41  62  91 126 163 206 253 304 364
#     4  11  25  41  62  91 126 163 206 253 304 364
#     4  10  23  42  65  92 123 158 203 252 304 362
#     4  11  23  40  62  90 126 162 204 252 306 366
#
# _framework density 22.894328000000002
#
# number of rings (size 3 to 8) (size 9 to 14) (size 15 to 20)
#    0.000    1.455    1.818    1.636    7.636    3.636 
#    0.000    0.000    0.000    0.000    0.000    0.000 
#    0.000    0.000    0.000    0.000    0.000    0.000 
#
# Total GULP energy -246277.547507 kJ/mol
# GULP energy per Si atom -5597.216989 kJ/mol
# Density = 2.284222 g / cm^3
# Si number density = 22.894328 Si / 1000 Ang^3
#
#
#
# Elastic Constant Matrix: (Units=GPa)
#
#
# Indices 1 2 3 4 5 6 
#
# 1 47.0135 0.3946 2.3471 0.0000 0.0000 0.0000
# 2 0.3946 98.1556 1.2824 0.0000 0.0000 0.0000
# 3 2.3471 1.2824 43.6465 0.0000 0.0000 0.0000
# 4 0.0000 0.0000 0.0000 15.1563 0.0000 0.0000
# 5 0.0000 0.0000 0.0000 0.0000 32.4297 0.0000
# 6 0.0000 0.0000 0.0000 0.0000 0.0000 39.5440
#
#
#
# Elastic Compliance Matrix: (Units=1/GPa)
#
#
# Indices 1 2 3 4 5 6 
#
# 1 0.021328 -0.000071 -0.001145 0.000000 0.000000 0.000000
# 2 -0.000071 0.010192 -0.000296 0.000000 0.000000 0.000000
# 3 -0.001145 -0.000296 0.022982 0.000000 0.000000 0.000000
# 4 0.000000 0.000000 0.000000 0.065979 0.000000 0.000000
# 5 0.000000 0.000000 0.000000 0.000000 0.030836 0.000000
# 6 0.000000 0.000000 0.000000 0.000000 0.000000 0.025288
#
#
# Mechanical properties :
#
#
# Convention : Reuss Voigt Hill
#
# Bulk Modulus (GPa) = 19.42529 21.87376 20.64953
# Shear Modulus (GPa) = 25.40811 29.74543 27.57677
#
# Velocity S-wave (km/s) = 3.33498 3.60842 3.47439
# Velocity P-wave (km/s) = 4.83039 5.18998 5.01341
#
# Compressibility (1/GPa) = 0.05147928
#
# Stress axis : x y z
#
# Youngs Moduli (GPa) = 46.88624 98.11565 43.51304
#
# Poissons Ratio (x) = 0.00694 0.04982
# Poissons Ratio (y) = 0.00332 0.01287
# Poissons Ratio (z) = 0.05368 0.02901
#
# Static dielectric constant tensor:
#      x y z
#    x 1.844630 0.000000 0.000000 
#    y 0.000000 1.839570 0.000000 
#    z 0.000000 0.000000 1.865910 
# 
# From -- ./inp_files/2184.got.cif
#   From: 2010.05.17/outbox.cif.g08.bks.cpg/sg56_2_cif.got.tgz:2184.got - 2010.06.03 13:42:01.
