data_PCOD9432494
_publ_section_title
;
Structure prediction by ZEFSAII (Michael W. Deem and Ramdas Pophale) SiO2 
 PCOD9432494
Probable space group: P C C N
;
_chemical_formula_sum "Si O2"
_cell_formula_units_Z 28
_cell_length_a 5.063022
_cell_length_b 11.921625
_cell_length_c 18.999031
_cell_angle_alpha 90.000000
_cell_angle_beta 90.000000
_cell_angle_gamma 90.000000
_cell_volume 1146.771055
_symmetry_space_group_name_H-M "P C C N"
_symmetry_group_IT_number 56
_symmetry_cell_setting 'orthorhombic'
loop_
_space_group_symop_operation_xyz
x,y,z
1/2-x,1/2-y,z
1/2+x,-y,1/2-z
-x,1/2+y,1/2-z
-x,-y,-z
1/2+x,1/2+y,-z
1/2-x,y,1/2+z
x,1/2-y,1/2+z
loop_
_atom_site_type_symbol
_atom_site_label
_atom_site_fract_x
_atom_site_fract_y
_atom_site_fract_z
Si Si1 0.909988 0.064386 0.569593
Si Si2 0.445127 0.154098 0.857462
Si Si3 0.250000 0.750000 0.512889
Si Si4 0.750000 0.750000 0.856811
Si Si5 0.250000 0.750000 0.254179
O O1 0.143783 0.143978 0.598200
O O2 0.687420 0.148011 0.539503
O O3 0.000000 0.000000 0.500000
O O4 0.837260 0.969579 0.626469
O O5 0.250000 0.250000 0.829071
O O6 0.533793 0.206263 0.932429
O O7 0.692056 0.150743 0.803311
O O8 0.496336 0.735654 0.806166
#
# Coordination Sequence:
#
# PCOD9432494 Si02
#       5
#     8   8   4   4   4
#     4  10  24  45  74 111 154 198 257 322 398 465
#     4  10  22  46  76 111 155 210 257 326 389 468
#     4   9  21  42  68 112 153 201 252 320 386 465
#     4  12  26  50  72 110 148 200 262 326 382 472
#     4  11  25  50  74 108 151 201 268 310 390 461
#
# _framework density 24.416383
#
# number of rings (size 3 to 8) (size 9 to 14) (size 15 to 20)
#    0.000    1.714    1.429    0.857    8.000    3.429 
#   25.714    0.000    0.000    0.000    0.000    0.000 
#    0.000    0.000    0.000    0.000    0.000    0.000 
#
# Total GULP energy -155908.460584 kJ/mol
# GULP energy per Si atom -5568.159307 kJ/mol
# Density = 2.436081 g / cm^3
# Si number density = 24.416383 Si / 1000 Ang^3
#
#
#
# Elastic Constant Matrix: (Units=GPa)
#
#
# Indices 1 2 3 4 5 6 
#
# 1 90.6516 29.5076 46.5366 0.0000 0.0000 0.0000
# 2 29.5076 143.0294 63.5548 0.0000 0.0000 0.0000
# 3 46.5366 63.5548 155.0154 0.0000 0.0000 0.0000
# 4 0.0000 0.0000 0.0000 -5.6334 0.0000 0.0000
# 5 0.0000 0.0000 0.0000 0.0000 11.2875 0.0000
# 6 0.0000 0.0000 0.0000 0.0000 0.0000 39.0186
#
#
#
# Elastic Compliance Matrix: (Units=1/GPa)
#
#
# Indices 1 2 3 4 5 6 
#
# 1 0.013201 -0.001177 -0.003481 0.000000 0.000000 0.000000
# 2 -0.001177 0.008654 -0.003195 0.000000 0.000000 0.000000
# 3 -0.003481 -0.003195 0.008806 0.000000 0.000000 0.000000
# 4 0.000000 0.000000 0.000000 -0.177512 0.000000 0.000000
# 5 0.000000 0.000000 0.000000 0.000000 0.088594 0.000000
# 6 0.000000 0.000000 0.000000 0.000000 0.000000 0.025629
#
#
# Mechanical properties :
#
#
# Convention : Reuss Voigt Hill
#
# Bulk Modulus (GPa) = 66.86101 74.21049 70.53575
# Shear Modulus (GPa) = -418.78157 25.54103 -196.62027
#
# Velocity S-wave (km/s) = -13.11064 3.23780 -8.98348
# Velocity P-wave (km/s) = 14.20360 6.66614 8.86862
#
# Compressibility (1/GPa) = 0.01495640
#
# Stress axis : x y z
#
# Youngs Moduli (GPa) = 75.75140 115.55436 113.56332
#
# Poissons Ratio (x) = 0.13599 0.39526
# Poissons Ratio (y) = 0.08915 0.36280
# Poissons Ratio (z) = 0.26366 0.36916
#
# Static dielectric constant tensor:
#      x y z
#    x 2.013130 0.000000 0.000000 
#    y 0.000000 1.983550 0.000000 
#    z 0.000000 0.000000 1.976170 
# 
# From -- ./inp_files/17167.got.cif
#   From: 2010.05.17/outbox.cif.g08.bks.cpg/sg56_9_cif.got.tgz:17167.got - 2010.06.03 13:42:01.
