data_PCOD9432317
_publ_section_title
;
Structure prediction by ZEFSAII (Michael W. Deem and Ramdas Pophale) SiO2 
 PCOD9432317
Probable space group: P C C N
;
_chemical_formula_sum "Si O2"
_cell_formula_units_Z 40
_cell_length_a 8.059749
_cell_length_b 13.693210
_cell_length_c 16.494698
_cell_angle_alpha 90.000000
_cell_angle_beta 90.000000
_cell_angle_gamma 90.000000
_cell_volume 1820.418138
_symmetry_space_group_name_H-M "P C C N"
_symmetry_group_IT_number 56
_symmetry_cell_setting 'orthorhombic'
loop_
_space_group_symop_operation_xyz
x,y,z
1/2-x,1/2-y,z
1/2+x,-y,1/2-z
-x,1/2+y,1/2-z
-x,-y,-z
1/2+x,1/2+y,-z
1/2-x,y,1/2+z
x,1/2-y,1/2+z
loop_
_atom_site_type_symbol
_atom_site_label
_atom_site_fract_x
_atom_site_fract_y
_atom_site_fract_z
Si Si1 0.277432 0.363371 0.203595
Si Si2 0.326952 0.935847 0.147675
Si Si3 0.313478 0.530341 0.982408
Si Si4 0.313212 0.356978 0.386586
Si Si5 0.676512 0.358385 0.183429
O O1 0.250000 0.250000 0.182278
O O2 0.175248 0.445621 0.155024
O O3 0.227895 0.377227 0.298671
O O4 0.476348 0.374668 0.190705
O O5 0.496746 0.876555 0.137028
O O6 0.249919 0.904317 0.233698
O O7 0.236731 0.915050 0.063831
O O8 0.221846 0.429908 0.959841
O O9 0.281816 0.591973 0.901571
O O10 0.500000 0.500000 0.000000
O O11 0.250000 0.250000 0.409163
O O12 0.750000 0.250000 0.181454
#
# Coordination Sequence:
#
# PCOD9432317 Si02
#       5
#     8   8   8   8   8
#     4  10  22  42  72 103 135 189 238 290 362 437
#     4  11  24  46  73 101 141 192 237 299 364 435
#     4  12  25  44  71 104 143 182 239 299 365 434
#     4  10  24  45  70 103 141 187 241 296 362 436
#     4  11  26  44  70 103 142 188 238 300 363 430
#
# _framework density 21.972971999999999
#
# number of rings (size 3 to 8) (size 9 to 14) (size 15 to 20)
#    0.000    1.200    4.000    0.600    2.800    8.000 
#    0.000    0.000    0.000    0.000    0.000    0.000 
#    0.000    0.000    0.000    0.000    0.000    0.000 
#
# Total GULP energy -223051.599810 kJ/mol
# GULP energy per Si atom -5576.289995 kJ/mol
# Density = 2.192296 g / cm^3
# Si number density = 21.972972 Si / 1000 Ang^3
#
#
#
# Elastic Constant Matrix: (Units=GPa)
#
#
# Indices 1 2 3 4 5 6 
#
# 1 37.5109 16.8721 26.2852 0.0000 0.0000 0.0000
# 2 16.8721 116.9854 62.8211 0.0000 0.0000 0.0000
# 3 26.2852 62.8211 181.8515 0.0000 0.0000 0.0000
# 4 0.0000 0.0000 0.0000 8.3486 0.0000 0.0000
# 5 0.0000 0.0000 0.0000 0.0000 23.3383 0.0000
# 6 0.0000 0.0000 0.0000 0.0000 0.0000 36.3616
#
#
#
# Elastic Compliance Matrix: (Units=1/GPa)
#
#
# Indices 1 2 3 4 5 6 
#
# 1 0.030235 -0.002472 -0.003516 0.000000 0.000000 0.000000
# 2 -0.002472 0.010697 -0.003338 0.000000 0.000000 0.000000
# 3 -0.003516 -0.003338 0.007160 0.000000 0.000000 0.000000
# 4 0.000000 0.000000 0.000000 0.119780 0.000000 0.000000
# 5 0.000000 0.000000 0.000000 0.000000 0.042848 0.000000
# 6 0.000000 0.000000 0.000000 0.000000 0.000000 0.027502
#
#
# Mechanical properties :
#
#
# Convention : Reuss Voigt Hill
#
# Bulk Modulus (GPa) = 33.96822 60.92273 47.44547
# Shear Modulus (GPa) = 18.74846 28.96765 23.85806
#
# Velocity S-wave (km/s) = 2.92422 3.63482 3.29871
# Velocity P-wave (km/s) = 5.18595 6.73812 6.01233
#
# Compressibility (1/GPa) = 0.02943929
#
# Stress axis : x y z
#
# Youngs Moduli (GPa) = 33.07441 93.48278 139.65824
#
# Poissons Ratio (x) = 0.23113 0.49105
# Poissons Ratio (y) = 0.08177 0.46618
# Poissons Ratio (z) = 0.11629 0.31204
#
# Static dielectric constant tensor:
#      x y z
#    x 1.844510 0.000000 0.000000 
#    y 0.000000 1.834000 0.000000 
#    z 0.000000 0.000000 1.851830 
# 
# From -- ./inp_files/14444.got.cif
#   From: 2010.05.17/outbox.cif.g08.bks.cpg/sg56_8_cif.got.tgz:14444.got - 2010.06.03 13:42:01.
