data_PCOD9432955
_publ_section_title
;
Structure prediction by ZEFSAII (Michael W. Deem and Ramdas Pophale) SiO2 
 PCOD9432955
Probable space group: P C C N
;
_chemical_formula_sum "Si O2"
_cell_formula_units_Z 60
_cell_length_a 11.237463
_cell_length_b 26.032776
_cell_length_c 8.806160
_cell_angle_alpha 90.000000
_cell_angle_beta 90.000000
_cell_angle_gamma 90.000000
_cell_volume 2576.174803
_symmetry_space_group_name_H-M "P C C N"
_symmetry_group_IT_number 56
_symmetry_cell_setting 'orthorhombic'
loop_
_space_group_symop_operation_xyz
x,y,z
1/2-x,1/2-y,z
1/2+x,-y,1/2-z
-x,1/2+y,1/2-z
-x,-y,-z
1/2+x,1/2+y,-z
1/2-x,y,1/2+z
x,1/2-y,1/2+z
loop_
_atom_site_type_symbol
_atom_site_label
_atom_site_fract_x
_atom_site_fract_y
_atom_site_fract_z
Si Si1 0.631817 0.210992 0.399170
Si Si2 0.112128 0.429678 0.324735
Si Si3 0.839767 0.341992 0.084952
Si Si4 0.750000 0.750000 0.536079
Si Si5 0.742219 0.517090 0.426048
Si Si6 0.092655 0.336306 0.553802
Si Si7 0.860119 0.046892 0.669448
Si Si8 0.517732 0.806217 0.147555
O O1 0.646947 0.173932 0.257678
O O2 0.742820 0.195260 0.506619
O O3 0.518676 0.197343 0.498911
O O4 0.590056 0.265145 0.321812
O O5 0.203316 0.435671 0.182858
O O6 0.151800 0.469344 0.457439
O O7 0.111895 0.377594 0.421938
O O8 0.985925 0.440987 0.247509
O O9 0.808713 0.401949 0.089708
O O10 0.965809 0.333858 0.000795
O O11 0.795359 0.701398 0.441288
O O12 0.636380 0.727576 0.625060
O O13 0.640372 0.496631 0.539192
O O14 0.778662 0.473618 0.306343
O O15 0.050477 0.348295 0.724625
#
# Coordination Sequence:
#
# PCOD9432955 Si02
#       8
#     8   8   8   4   8   8   8   8
#     4  11  23  43  65 101 139 182 232 286 348 422
#     4  11  24  46  73 106 141 187 246 293 368 440
#     4  12  24  42  72  99 137 183 236 289 353 428
#     4  10  24  44  70  98 138 182 232 288 348 408
#     4  10  25  46  74 104 141 188 238 310 370 430
#     4  11  24  44  68 101 141 184 236 285 349 425
#     4  11  23  47  71 105 143 183 239 302 372 432
#     4  11  25  43  67  99 138 187 229 289 349 418
#
# _framework density 23.290344000000001
#
# number of rings (size 3 to 8) (size 9 to 14) (size 15 to 20)
#    0.000    1.067    1.333    4.800    1.867    3.200 
#    7.200    0.000    0.000    0.000    0.000    0.000 
#    0.000    0.000    0.000    0.000    0.000    0.000 
#
# Total GULP energy -334597.428127 kJ/mol
# GULP energy per Si atom -5576.623802 kJ/mol
# Density = 2.323733 g / cm^3
# Si number density = 23.290344 Si / 1000 Ang^3
#
#
#
# Elastic Constant Matrix: (Units=GPa)
#
#
# Indices 1 2 3 4 5 6 
#
# 1 97.6735 24.7269 30.5366 0.0000 0.0000 0.0000
# 2 24.7269 65.8272 18.4190 0.0000 0.0000 0.0000
# 3 30.5366 18.4190 100.7029 0.0000 0.0000 0.0000
# 4 0.0000 0.0000 0.0000 18.7815 0.0000 0.0000
# 5 0.0000 0.0000 0.0000 0.0000 -10.8198 0.0000
# 6 0.0000 0.0000 0.0000 0.0000 0.0000 16.8233
#
#
#
# Elastic Compliance Matrix: (Units=1/GPa)
#
#
# Indices 1 2 3 4 5 6 
#
# 1 0.012114 -0.003713 -0.002994 0.000000 0.000000 0.000000
# 2 -0.003713 0.017149 -0.002011 0.000000 0.000000 0.000000
# 3 -0.002994 -0.002011 0.011206 0.000000 0.000000 0.000000
# 4 0.000000 0.000000 0.000000 0.053244 0.000000 0.000000
# 5 0.000000 0.000000 0.000000 0.000000 -0.092423 0.000000
# 6 0.000000 0.000000 0.000000 0.000000 0.000000 0.059441
#
#
# Mechanical properties :
#
#
# Convention : Reuss Voigt Hill
#
# Bulk Modulus (GPa) = 43.41568 45.72986 44.57277
# Shear Modulus (GPa) = 58.24485 17.65839 37.95162
#
# Velocity S-wave (km/s) = 5.00624 2.75650 4.04109
# Velocity P-wave (km/s) = 7.21790 5.45971 6.39947
#
# Compressibility (1/GPa) = 0.02303315
#
# Stress axis : x y z
#
# Youngs Moduli (GPa) = 82.54740 58.31405 89.23808
#
# Poissons Ratio (x) = 0.21650 0.26721
# Poissons Ratio (y) = 0.30647 0.17943
# Poissons Ratio (z) = 0.24718 0.11725
#
# Static dielectric constant tensor:
#      x y z
#    x 1.953270 0.000000 0.000000 
#    y 0.000000 1.956350 0.000000 
#    z 0.000000 0.000000 1.853570 
# 
# From -- ./inp_files/2892.got.cif
#   From: 2010.05.17/outbox.cif.g08.bks.cpg/sg56_2_cif.got.tgz:2892.got - 2010.06.03 13:42:01.
