data_PCOD9432844
_publ_section_title
;
Structure prediction by ZEFSAII (Michael W. Deem and Ramdas Pophale) SiO2 
 PCOD9432844
Probable space group: P C C N
;
_chemical_formula_sum "Si O2"
_cell_formula_units_Z 60
_cell_length_a 18.249638
_cell_length_b 16.142870
_cell_length_c 8.787387
_cell_angle_alpha 90.000000
_cell_angle_beta 90.000000
_cell_angle_gamma 90.000000
_cell_volume 2588.777688
_symmetry_space_group_name_H-M "P C C N"
_symmetry_group_IT_number 56
_symmetry_cell_setting 'orthorhombic'
loop_
_space_group_symop_operation_xyz
x,y,z
1/2-x,1/2-y,z
1/2+x,-y,1/2-z
-x,1/2+y,1/2-z
-x,-y,-z
1/2+x,1/2+y,-z
1/2-x,y,1/2+z
x,1/2-y,1/2+z
loop_
_atom_site_type_symbol
_atom_site_label
_atom_site_fract_x
_atom_site_fract_y
_atom_site_fract_z
Si Si1 0.219977 0.081341 0.002784
Si Si2 0.309391 0.977978 0.227679
Si Si3 0.250000 0.750000 0.054538
Si Si4 0.820565 0.145822 0.706129
Si Si5 0.490106 0.639160 0.270089
Si Si6 0.039820 0.206910 0.404934
Si Si7 0.029266 0.536866 0.161621
Si Si8 0.691776 0.687627 0.739664
O O1 0.168887 0.126210 0.124817
O O2 0.287051 0.045045 0.101574
O O3 0.258104 0.140852 0.882193
O O4 0.181055 0.013876 0.897381
O O5 0.235589 0.924305 0.240110
O O6 0.385066 0.939810 0.171570
O O7 0.187662 0.784607 0.164524
O O8 0.285609 0.818358 0.946969
O O9 0.904798 0.124408 0.690573
O O10 0.497939 0.708774 0.139754
O O11 0.529326 0.680826 0.418514
O O12 0.520610 0.546869 0.237022
O O13 0.122777 0.222214 0.350265
O O14 0.012755 0.123544 0.316533
O O15 0.000000 0.500000 0.000000
O O16 0.750000 0.750000 0.813608
#
# Coordination Sequence:
#
# PCOD9432844 Si02
#       8
#     8   8   4   8   8   8   8   8
#     4  10  24  41  70 103 141 176 257 289 362 414
#     4  11  24  43  73 104 139 192 243 299 356 445
#     4  10  24  40  68 102 140 178 248 290 354 414
#     4  11  24  42  71 101 141 187 242 293 358 432
#     4  11  26  46  72 101 145 189 232 296 367 427
#     4  11  27  46  73 102 146 187 240 293 370 426
#     4  10  25  46  73  99 147 191 236 290 375 429
#     4  11  25  43  72 102 142 191 239 299 358 440
#
# _framework density 23.176960999999999
#
# number of rings (size 3 to 8) (size 9 to 14) (size 15 to 20)
#    0.000    1.333    0.000    3.600   22.400    0.000 
#    2.400    1.333    0.000    0.000    0.000    0.000 
#    0.000    0.000    0.000    0.000    0.000    0.000 
#
# Total GULP energy -335174.870708 kJ/mol
# GULP energy per Si atom -5586.247845 kJ/mol
# Density = 2.312421 g / cm^3
# Si number density = 23.176961 Si / 1000 Ang^3
#
#
#
# Elastic Constant Matrix: (Units=GPa)
#
#
# Indices 1 2 3 4 5 6 
#
# 1 115.5051 -2.4244 -0.1038 0.0000 0.0000 0.0000
# 2 -2.4244 81.2524 -1.2885 0.0000 0.0000 0.0000
# 3 -0.1038 -1.2885 71.7577 0.0000 0.0000 0.0000
# 4 0.0000 0.0000 0.0000 2.8939 0.0000 0.0000
# 5 0.0000 0.0000 0.0000 0.0000 15.5701 0.0000
# 6 0.0000 0.0000 0.0000 0.0000 0.0000 31.4541
#
#
#
# Elastic Compliance Matrix: (Units=1/GPa)
#
#
# Indices 1 2 3 4 5 6 
#
# 1 0.008663 0.000259 0.000017 0.000000 0.000000 0.000000
# 2 0.000259 0.012319 0.000222 0.000000 0.000000 0.000000
# 3 0.000017 0.000222 0.013940 0.000000 0.000000 0.000000
# 4 0.000000 0.000000 0.000000 0.345557 0.000000 0.000000
# 5 0.000000 0.000000 0.000000 0.000000 0.064226 0.000000
# 6 0.000000 0.000000 0.000000 0.000000 0.000000 0.031792
#
#
# Mechanical properties :
#
#
# Convention : Reuss Voigt Hill
#
# Bulk Modulus (GPa) = 27.84240 28.98686 28.41463
# Shear Modulus (GPa) = 10.25695 28.13907 19.19801
#
# Velocity S-wave (km/s) = 2.10597 3.48817 2.88118
# Velocity P-wave (km/s) = 4.23704 5.36256 4.83268
#
# Compressibility (1/GPa) = 0.03591645
#
# Stress axis : x y z
#
# Youngs Moduli (GPa) = 115.43248 81.17832 71.73710
#
# Poissons Ratio (x) = -0.02101 -0.00123
# Poissons Ratio (y) = -0.02987 -0.01589
# Poissons Ratio (z) = -0.00198 -0.01799
#
# Static dielectric constant tensor:
#      x y z
#    x 1.863990 0.000000 0.000000 
#    y 0.000000 1.790730 0.000000 
#    z 0.000000 0.000000 1.863450 
# 
# From -- ./inp_files/4147.got.cif
#   From: 2010.05.17/outbox.cif.g08.bks.cpg/sg56_3_cif.got.tgz:4147.got - 2010.06.03 13:42:01.
