data_PCOD9432686
_publ_section_title
;
Structure prediction by ZEFSAII (Michael W. Deem and Ramdas Pophale) SiO2 
 PCOD9432686
Probable space group: P C C N
;
_chemical_formula_sum "Si O2"
_cell_formula_units_Z 32
_cell_length_a 10.642948
_cell_length_b 12.291385
_cell_length_c 9.370783
_cell_angle_alpha 90.000000
_cell_angle_beta 90.000000
_cell_angle_gamma 90.000000
_cell_volume 1225.853703
_symmetry_space_group_name_H-M "P C C N"
_symmetry_group_IT_number 56
_symmetry_cell_setting 'orthorhombic'
loop_
_space_group_symop_operation_xyz
x,y,z
1/2-x,1/2-y,z
1/2+x,-y,1/2-z
-x,1/2+y,1/2-z
-x,-y,-z
1/2+x,1/2+y,-z
1/2-x,y,1/2+z
x,1/2-y,1/2+z
loop_
_atom_site_type_symbol
_atom_site_label
_atom_site_fract_x
_atom_site_fract_y
_atom_site_fract_z
Si Si1 0.862804 0.969013 0.057948
Si Si2 0.517650 0.125426 0.958259
Si Si3 0.263115 0.913708 0.682423
Si Si4 0.028838 0.209789 0.755098
O O1 0.876096 0.861792 0.151903
O O2 0.805236 0.055782 0.170377
O O3 0.785502 0.977476 0.912032
O O4 0.000000 0.000000 0.000000
O O5 0.663203 0.145511 0.920370
O O6 0.457244 0.168023 0.812187
O O7 0.465069 0.197374 0.086464
O O8 0.500000 0.000000 0.000000
O O9 0.391303 0.848028 0.712619
#
# Coordination Sequence:
#
# PCOD9432686 Si02
#       4
#     8   8   8   8
#     4  10  23  43  72 110 151 192 253 322 386 456
#     4  12  26  45  73 109 152 197 255 322 385 458
#     4  11  22  44  76 109 146 198 259 321 378 468
#     4  11  26  43  73 108 150 196 252 315 389 456
#
# _framework density 26.104254999999998
#
# number of rings (size 3 to 8) (size 9 to 14) (size 15 to 20)
#    0.000    1.000    5.000    0.750    7.000    2.000 
#    0.000    1.250    5.500    0.000    0.000    0.000 
#    0.000    0.000    0.000    0.000    0.000    0.000 
#
# Total GULP energy -178791.881618 kJ/mol
# GULP energy per Si atom -5587.246301 kJ/mol
# Density = 2.604484 g / cm^3
# Si number density = 26.104255 Si / 1000 Ang^3
#
#
#
# Elastic Constant Matrix: (Units=GPa)
#
#
# Indices 1 2 3 4 5 6 
#
# 1 65.7487 9.0581 30.5331 0.0000 0.0000 0.0000
# 2 9.0581 94.4177 55.0547 0.0000 0.0000 0.0000
# 3 30.5331 55.0547 192.4843 0.0000 0.0000 0.0000
# 4 0.0000 0.0000 0.0000 42.9916 0.0000 0.0000
# 5 0.0000 0.0000 0.0000 0.0000 47.3039 0.0000
# 6 0.0000 0.0000 0.0000 0.0000 0.0000 22.1245
#
#
#
# Elastic Compliance Matrix: (Units=1/GPa)
#
#
# Indices 1 2 3 4 5 6 
#
# 1 0.016419 -0.000068 -0.002585 0.000000 0.000000 0.000000
# 2 -0.000068 0.012711 -0.003625 0.000000 0.000000 0.000000
# 3 -0.002585 -0.003625 0.006642 0.000000 0.000000 0.000000
# 4 0.000000 0.000000 0.000000 0.023260 0.000000 0.000000
# 5 0.000000 0.000000 0.000000 0.000000 0.021140 0.000000
# 6 0.000000 0.000000 0.000000 0.000000 0.000000 0.045199
#
#
# Mechanical properties :
#
#
# Convention : Reuss Voigt Hill
#
# Bulk Modulus (GPa) = 43.07197 60.21586 51.64392
# Shear Modulus (GPa) = 34.32490 39.68431 37.00461
#
# Velocity S-wave (km/s) = 3.63011 3.90323 3.76915
# Velocity P-wave (km/s) = 5.84004 6.59023 6.22645
#
# Compressibility (1/GPa) = 0.02321695
#
# Stress axis : x y z
#
# Youngs Moduli (GPa) = 60.90402 78.66906 150.55415
#
# Poissons Ratio (x) = 0.00534 0.38920
# Poissons Ratio (y) = 0.00413 0.54576
# Poissons Ratio (z) = 0.15744 0.28518
#
# Static dielectric constant tensor:
#      x y z
#    x 2.143950 0.000000 0.000000 
#    y 0.000000 2.118720 0.000000 
#    z 0.000000 0.000000 2.379610 
# 
# From -- ./inp_files/2488.got.cif
#   From: 2010.05.17/outbox.cif.g08.bks.cpg/sg56_2_cif.got.tgz:2488.got - 2010.06.03 13:42:01.
