data_PCOD9432763
_publ_section_title
;
Structure prediction by ZEFSAII (Michael W. Deem and Ramdas Pophale) SiO2 
 PCOD9432763
Probable space group: P C C N
;
_chemical_formula_sum "Si O2"
_cell_formula_units_Z 36
_cell_length_a 7.762786
_cell_length_b 8.490880
_cell_length_c 21.943705
_cell_angle_alpha 90.000000
_cell_angle_beta 90.000000
_cell_angle_gamma 90.000000
_cell_volume 1446.372891
_symmetry_space_group_name_H-M "P C C N"
_symmetry_group_IT_number 56
_symmetry_cell_setting 'orthorhombic'
loop_
_space_group_symop_operation_xyz
x,y,z
1/2-x,1/2-y,z
1/2+x,-y,1/2-z
-x,1/2+y,1/2-z
-x,-y,-z
1/2+x,1/2+y,-z
1/2-x,y,1/2+z
x,1/2-y,1/2+z
loop_
_atom_site_type_symbol
_atom_site_label
_atom_site_fract_x
_atom_site_fract_y
_atom_site_fract_z
Si Si1 0.250000 0.250000 0.459280
Si Si2 0.808168 0.418537 0.840645
Si Si3 0.664990 0.920611 0.230546
Si Si4 0.660333 0.037757 0.611775
Si Si5 0.979540 0.835901 0.429687
O O1 0.140362 0.364700 0.415794
O O2 0.108784 0.178257 0.505168
O O3 0.750000 0.250000 0.865649
O O4 0.667032 0.485100 0.793570
O O5 0.862918 0.548577 0.889442
O O6 0.979088 0.397868 0.799248
O O7 0.750000 0.750000 0.240276
O O8 0.773833 0.020163 0.180637
O O9 0.510101 0.161743 0.599055
O O10 0.828173 0.096102 0.573925
#
# Coordination Sequence:
#
# PCOD9432763 Si02
#       5
#     4   8   8   8   8
#     4  12  22  44  70 102 130 188 236 294 340 430
#     4  11  26  45  69 103 139 183 235 291 361 435
#     4  11  24  42  71 100 141 181 228 292 357 434
#     4  10  23  46  68 100 141 184 229 290 362 410
#     4  10  25  44  69  99 139 180 233 290 350 422
#
# _framework density 24.889845999999999
#
# number of rings (size 3 to 8) (size 9 to 14) (size 15 to 20)
#    0.000    1.333    1.111    2.667   10.889    1.778 
#   12.000    0.000    0.000    0.000    0.000    0.000 
#    0.000    0.000    0.000    0.000    0.000    0.000 
#
# Total GULP energy -201686.012128 kJ/mol
# GULP energy per Si atom -5602.389226 kJ/mol
# Density = 2.483320 g / cm^3
# Si number density = 24.889846 Si / 1000 Ang^3
#
#
#
# Elastic Constant Matrix: (Units=GPa)
#
#
# Indices 1 2 3 4 5 6 
#
# 1 110.1962 27.4465 -1.1318 0.0000 0.0000 0.0000
# 2 27.4465 157.9732 52.9913 0.0000 0.0000 0.0000
# 3 -1.1318 52.9913 87.5372 0.0000 0.0000 0.0000
# 4 0.0000 0.0000 0.0000 15.3966 0.0000 0.0000
# 5 0.0000 0.0000 0.0000 0.0000 513.8225 0.0000
# 6 0.0000 0.0000 0.0000 0.0000 0.0000 55.7961
#
#
#
# Elastic Compliance Matrix: (Units=1/GPa)
#
#
# Indices 1 2 3 4 5 6 
#
# 1 0.009625 -0.002151 0.001426 0.000000 0.000000 0.000000
# 2 -0.002151 0.008424 -0.005127 0.000000 0.000000 0.000000
# 3 0.001426 -0.005127 0.014546 0.000000 0.000000 0.000000
# 4 0.000000 0.000000 0.000000 0.064949 0.000000 0.000000
# 5 0.000000 0.000000 0.000000 0.000000 0.001946 0.000000
# 6 0.000000 0.000000 0.000000 0.000000 0.000000 0.017922
#
#
# Mechanical properties :
#
#
# Convention : Reuss Voigt Hill
#
# Bulk Modulus (GPa) = 47.86590 57.14651 52.50621
# Shear Modulus (GPa) = 36.74320 135.42975 86.08648
#
# Velocity S-wave (km/s) = 3.84635 7.38443 5.88745
# Velocity P-wave (km/s) = 6.24489 9.78345 8.20715
#
# Compressibility (1/GPa) = 0.02089170
#
# Stress axis : x y z
#
# Youngs Moduli (GPa) = 103.89543 118.71201 68.74776
#
# Poissons Ratio (x) = 0.25532 -0.09806
# Poissons Ratio (y) = 0.22345 0.35248
# Poissons Ratio (z) = -0.14820 0.60866
#
# Static dielectric constant tensor:
#      x y z
#    x 1.992740 0.000000 0.000000 
#    y 0.000000 2.044280 0.000000 
#    z 0.000000 0.000000 1.891180 
# 
# From -- ./inp_files/17864.got.cif
#   From: 2010.05.17/outbox.cif.g08.bks.cpg/sg56_9_cif.got.tgz:17864.got - 2010.06.03 13:42:01.
