data_PCOD9432286
_publ_section_title
;
Structure prediction by ZEFSAII (Michael W. Deem and Ramdas Pophale) SiO2 
 PCOD9432286
Probable space group: P C C N
;
_chemical_formula_sum "Si O2"
_cell_formula_units_Z 60
_cell_length_a 6.908446
_cell_length_b 28.283950
_cell_length_c 11.827168
_cell_angle_alpha 90.000000
_cell_angle_beta 90.000000
_cell_angle_gamma 90.000000
_cell_volume 2311.006643
_symmetry_space_group_name_H-M "P C C N"
_symmetry_group_IT_number 56
_symmetry_cell_setting 'orthorhombic'
loop_
_space_group_symop_operation_xyz
x,y,z
1/2-x,1/2-y,z
1/2+x,-y,1/2-z
-x,1/2+y,1/2-z
-x,-y,-z
1/2+x,1/2+y,-z
1/2-x,y,1/2+z
x,1/2-y,1/2+z
loop_
_atom_site_type_symbol
_atom_site_label
_atom_site_fract_x
_atom_site_fract_y
_atom_site_fract_z
Si Si1 0.750114 0.806566 0.598136
Si Si2 0.104766 0.843973 0.998163
Si Si3 0.410458 0.509793 0.121802
Si Si4 0.615075 0.089841 0.896580
Si Si5 0.883093 0.831203 0.342931
Si Si6 0.239612 0.426840 0.264720
Si Si7 0.250000 0.750000 0.105618
Si Si8 0.679845 0.326217 0.230659
O O1 0.750000 0.750000 0.579378
O O2 0.576320 0.846297 0.580203
O O3 0.860801 0.819914 0.477816
O O4 0.740284 0.808880 0.737092
O O5 0.273015 0.883169 0.001025
O O6 0.163129 0.790337 0.029183
O O7 0.394426 0.815923 0.815035
O O8 0.210030 0.538708 0.110038
O O9 0.370332 0.461917 0.188859
O O10 0.562249 0.543225 0.185941
O O11 0.500000 0.500000 0.000000
O O12 0.388344 0.088690 0.866127
O O13 0.693007 0.126608 0.803133
O O14 0.845027 0.886505 0.317053
O O15 0.459778 0.839089 0.370524
O O16 0.122177 0.716987 0.188025
#
# Coordination Sequence:
#
# PCOD9432286 Si02
#       8
#     8   8   8   8   8   8   4   8
#     4  12  28  49  75 113 162 211 270 333 388 476
#     4  11  25  44  71 106 150 205 263 318 393 464
#     4  12  28  49  79 113 153 197 263 326 397 485
#     4  11  25  49  73 109 154 200 257 322 392 473
#     4  12  28  49  78 115 159 209 265 330 399 473
#     4  12  27  51  79 113 156 201 261 327 407 472
#     4  10  22  42  68 102 146 194 258 318 382 448
#     4  11  24  43  76 103 153 202 258 322 391 468
#
# _framework density 25.962710000000001
#
# number of rings (size 3 to 8) (size 9 to 14) (size 15 to 20)
#    0.000    0.533    5.333    1.600   11.200    2.667 
#    0.000    0.000    0.000    0.000    0.000    0.000 
#    0.000    0.000    0.000    0.000    0.000    0.000 
#
# Total GULP energy -334534.646015 kJ/mol
# GULP energy per Si atom -5575.577434 kJ/mol
# Density = 2.590362 g / cm^3
# Si number density = 25.962710 Si / 1000 Ang^3
#
#
#
# Elastic Constant Matrix: (Units=GPa)
#
#
# Indices 1 2 3 4 5 6 
#
# 1 105.5221 29.9655 16.6908 0.0000 0.0000 0.0000
# 2 29.9655 127.8511 37.1185 0.0000 0.0000 0.0000
# 3 16.6908 37.1185 112.7258 0.0000 0.0000 0.0000
# 4 0.0000 0.0000 0.0000 -17.0066 0.0000 0.0000
# 5 0.0000 0.0000 0.0000 0.0000 20.8262 0.0000
# 6 0.0000 0.0000 0.0000 0.0000 0.0000 45.9214
#
#
#
# Elastic Compliance Matrix: (Units=1/GPa)
#
#
# Indices 1 2 3 4 5 6 
#
# 1 0.010217 -0.002162 -0.000801 0.000000 0.000000 0.000000
# 2 -0.002162 0.009106 -0.002678 0.000000 0.000000 0.000000
# 3 -0.000801 -0.002678 0.009872 0.000000 0.000000 0.000000
# 4 0.000000 0.000000 0.000000 -0.058801 0.000000 0.000000
# 5 0.000000 0.000000 0.000000 0.000000 0.048017 0.000000
# 6 0.000000 0.000000 0.000000 0.000000 0.000000 0.021776
#
#
# Mechanical properties :
#
#
# Convention : Reuss Voigt Hill
#
# Bulk Modulus (GPa) = 55.82790 57.07207 56.44998
# Shear Modulus (GPa) = 87.04680 27.43648 57.24164
#
# Velocity S-wave (km/s) = 5.79659 3.25432 4.70059
# Velocity P-wave (km/s) = 8.14557 6.01256 7.15895
#
# Compressibility (1/GPa) = 0.01791219
#
# Stress axis : x y z
#
# Youngs Moduli (GPa) = 97.87253 109.81839 101.30101
#
# Poissons Ratio (x) = 0.23745 0.08113
# Poissons Ratio (y) = 0.21162 0.27131
# Poissons Ratio (z) = 0.07838 0.29412
#
# Static dielectric constant tensor:
#      x y z
#    x 1.919290 0.000000 0.000000 
#    y 0.000000 1.987560 0.000000 
#    z 0.000000 0.000000 2.108180 
# 
# From -- ./inp_files/6548.got.cif
#   From: 2010.05.17/outbox.cif.g08.bks.cpg/sg56_4_cif.got.tgz:6548.got - 2010.06.03 13:42:01.
