data_PCOD9432989
_publ_section_title
;
Structure prediction by ZEFSAII (Michael W. Deem and Ramdas Pophale) SiO2 
 PCOD9432989
Probable space group: P C C N
;
_chemical_formula_sum "Si O2"
_cell_formula_units_Z 40
_cell_length_a 17.248698
_cell_length_b 10.824386
_cell_length_c 7.648777
_cell_angle_alpha 90.000000
_cell_angle_beta 90.000000
_cell_angle_gamma 90.000000
_cell_volume 1428.076881
_symmetry_space_group_name_H-M "P C C N"
_symmetry_group_IT_number 56
_symmetry_cell_setting 'orthorhombic'
loop_
_space_group_symop_operation_xyz
x,y,z
1/2-x,1/2-y,z
1/2+x,-y,1/2-z
-x,1/2+y,1/2-z
-x,-y,-z
1/2+x,1/2+y,-z
1/2-x,y,1/2+z
x,1/2-y,1/2+z
loop_
_atom_site_type_symbol
_atom_site_label
_atom_site_fract_x
_atom_site_fract_y
_atom_site_fract_z
Si Si1 0.571097 0.193639 0.023949
Si Si2 0.108162 0.931354 0.108288
Si Si3 0.681790 0.645623 0.332724
Si Si4 0.221706 0.879278 0.700539
Si Si5 0.586747 0.655554 0.672900
O O1 0.572006 0.343381 0.038116
O O2 0.647155 0.156571 0.914033
O O3 0.494838 0.150517 0.923526
O O4 0.578328 0.132445 0.211851
O O5 0.199898 0.911490 0.095817
O O6 0.091686 0.072257 0.153132
O O7 0.750000 0.750000 0.337470
O O8 0.702041 0.518290 0.236703
O O9 0.651578 0.617721 0.528862
O O10 0.610227 0.708485 0.233410
O O11 0.250000 0.750000 0.792178
#
# Coordination Sequence:
#
# PCOD9432989 Si02
#       5
#     8   8   8   8   8
#     4  11  25  45  73 101 150 195 244 315 371 432
#     4  11  24  47  69 107 145 196 254 303 376 445
#     4  12  25  48  75 105 147 197 246 308 372 457
#     4  10  24  45  74 101 139 191 244 296 366 435
#     4  12  26  46  74 107 150 195 250 309 382 436
#
# _framework density 28.009696999999999
#
# number of rings (size 3 to 8) (size 9 to 14) (size 15 to 20)
#    0.000    0.800    4.000    2.400    2.800    7.200 
#    7.200    2.000    0.000    0.000    0.000    0.000 
#    0.000    0.000    0.000    0.000    0.000    0.000 
#
# Total GULP energy -224152.328352 kJ/mol
# GULP energy per Si atom -5603.808209 kJ/mol
# Density = 2.794595 g / cm^3
# Si number density = 28.009697 Si / 1000 Ang^3
#
#
#
# Elastic Constant Matrix: (Units=GPa)
#
#
# Indices 1 2 3 4 5 6 
#
# 1 173.8980 47.0937 30.3662 0.0000 0.0000 0.0000
# 2 47.0937 224.1156 47.9434 0.0000 0.0000 0.0000
# 3 30.3662 47.9434 84.4460 0.0000 0.0000 0.0000
# 4 0.0000 0.0000 0.0000 36.0683 0.0000 0.0000
# 5 0.0000 0.0000 0.0000 0.0000 30.2383 0.0000
# 6 0.0000 0.0000 0.0000 0.0000 0.0000 24.7669
#
#
#
# Elastic Compliance Matrix: (Units=1/GPa)
#
#
# Indices 1 2 3 4 5 6 
#
# 1 0.006311 -0.000957 -0.001726 0.000000 0.000000 0.000000
# 2 -0.000957 0.005224 -0.002622 0.000000 0.000000 0.000000
# 3 -0.001726 -0.002622 0.013951 0.000000 0.000000 0.000000
# 4 0.000000 0.000000 0.000000 0.027725 0.000000 0.000000
# 5 0.000000 0.000000 0.000000 0.000000 0.033071 0.000000
# 6 0.000000 0.000000 0.000000 0.000000 0.000000 0.040377
#
#
# Mechanical properties :
#
#
# Convention : Reuss Voigt Hill
#
# Bulk Modulus (GPa) = 67.22017 81.47402 74.34709
# Shear Modulus (GPa) = 35.15513 42.01844 38.58678
#
# Velocity S-wave (km/s) = 3.54659 3.87736 3.71566
# Velocity P-wave (km/s) = 6.38921 7.01400 6.70889
#
# Compressibility (1/GPa) = 0.01487649
#
# Stress axis : x y z
#
# Youngs Moduli (GPa) = 158.45205 191.42774 71.67910
#
# Poissons Ratio (x) = 0.18317 0.12373
# Poissons Ratio (y) = 0.15162 0.18792
# Poissons Ratio (z) = 0.27351 0.50187
#
# Static dielectric constant tensor:
#      x y z
#    x 2.128930 0.000000 0.000000 
#    y 0.000000 2.234440 0.000000 
#    z 0.000000 0.000000 2.261760 
# 
# From -- ./inp_files/3873.got.cif
#   From: 2010.05.17/outbox.cif.g08.bks.cpg/sg56_2_cif.got.tgz:3873.got - 2010.06.03 13:42:01.
