data_PCOD9432645
_publ_section_title
;
Structure prediction by ZEFSAII (Michael W. Deem and Ramdas Pophale) SiO2 
 PCOD9432645
Probable space group: P C C N
;
_chemical_formula_sum "Si O2"
_cell_formula_units_Z 60
_cell_length_a 9.847099
_cell_length_b 14.449657
_cell_length_c 19.389647
_cell_angle_alpha 90.000000
_cell_angle_beta 90.000000
_cell_angle_gamma 90.000000
_cell_volume 2758.898639
_symmetry_space_group_name_H-M "P C C N"
_symmetry_group_IT_number 56
_symmetry_cell_setting 'orthorhombic'
loop_
_space_group_symop_operation_xyz
x,y,z
1/2-x,1/2-y,z
1/2+x,-y,1/2-z
-x,1/2+y,1/2-z
-x,-y,-z
1/2+x,1/2+y,-z
1/2-x,y,1/2+z
x,1/2-y,1/2+z
loop_
_atom_site_type_symbol
_atom_site_label
_atom_site_fract_x
_atom_site_fract_y
_atom_site_fract_z
Si Si1 0.566501 0.857141 0.030235
Si Si2 0.250000 0.750000 0.178325
Si Si3 0.804717 0.145955 0.063553
Si Si4 0.714339 0.852543 0.635159
Si Si5 0.476052 0.550723 0.408079
Si Si6 0.377226 0.001661 0.772893
Si Si7 0.618129 0.121219 0.721181
Si Si8 0.437597 0.837793 0.574923
O O1 0.716563 0.854727 0.060053
O O2 0.492197 0.764780 0.054197
O O3 0.495754 0.946726 0.065838
O O4 0.565835 0.876467 0.949281
O O5 0.369198 0.790274 0.227798
O O6 0.189199 0.825121 0.125383
O O7 0.750000 0.250000 0.049332
O O8 0.676213 0.078105 0.068349
O O9 0.865727 0.146575 0.140622
O O10 0.897295 0.118404 0.998380
O O11 0.750000 0.750000 0.662237
O O12 0.795259 0.923602 0.681540
O O13 0.559034 0.877792 0.621575
O O14 0.473957 0.554247 0.326239
O O15 0.482307 0.060279 0.727804
O O16 0.253607 0.934493 0.753252
#
# Coordination Sequence:
#
# PCOD9432645 Si02
#       8
#     8   4   8   8   8   8   8   8
#     4   9  16  32  55  85 118 154 195 246 318 370
#     4  12  22  36  68  94 122 174 222 258 330 398
#     4  11  20  39  60  93 129 163 205 270 323 383
#     4   9  19  36  61  89 124 160 209 271 321 375
#     4   9  17  32  58  81 119 161 195 247 313 374
#     4  10  23  43  61  88 127 168 217 268 317 386
#     4  11  25  43  66  93 131 175 218 265 327 394
#     4  11  21  36  66  93 123 160 219 270 318 391
#
# _framework density 21.747809
#
# number of rings (size 3 to 8) (size 9 to 14) (size 15 to 20)
#    0.000    1.867    2.667    2.400    1.867    1.067 
#    2.400    6.000    0.000    0.000    0.000    0.000 
#    0.000    0.000    0.000    0.000    0.000    0.000 
#
# Total GULP energy -334585.520443 kJ/mol
# GULP energy per Si atom -5576.425341 kJ/mol
# Density = 2.169831 g / cm^3
# Si number density = 21.747809 Si / 1000 Ang^3
#
#
#
# Elastic Constant Matrix: (Units=GPa)
#
#
# Indices 1 2 3 4 5 6 
#
# 1 46.6759 -14.0650 29.0515 0.0000 0.0000 0.0000
# 2 -14.0650 44.4658 4.7127 0.0000 0.0000 0.0000
# 3 29.0515 4.7127 83.1032 0.0000 0.0000 0.0000
# 4 0.0000 0.0000 0.0000 24.5088 0.0000 0.0000
# 5 0.0000 0.0000 0.0000 0.0000 28.2916 0.0000
# 6 0.0000 0.0000 0.0000 0.0000 0.0000 34.3534
#
#
#
# Elastic Compliance Matrix: (Units=1/GPa)
#
#
# Indices 1 2 3 4 5 6 
#
# 1 0.032327 0.011492 -0.011953 0.000000 0.000000 0.000000
# 2 0.011492 0.026711 -0.005532 0.000000 0.000000 0.000000
# 3 -0.011953 -0.005532 0.016525 0.000000 0.000000 0.000000
# 4 0.000000 0.000000 0.000000 0.040802 0.000000 0.000000
# 5 0.000000 0.000000 0.000000 0.000000 0.035346 0.000000
# 6 0.000000 0.000000 0.000000 0.000000 0.000000 0.029109
#
#
# Mechanical properties :
#
#
# Convention : Reuss Voigt Hill
#
# Bulk Modulus (GPa) = 15.72889 23.73814 19.73352
# Shear Modulus (GPa) = 23.36477 27.73382 25.54929
#
# Velocity S-wave (km/s) = 3.28128 3.57493 3.43125
# Velocity P-wave (km/s) = 4.64800 5.28953 4.97910
#
# Compressibility (1/GPa) = 0.06357726
#
# Stress axis : x y z
#
# Youngs Moduli (GPa) = 30.93421 37.43835 60.51297
#
# Poissons Ratio (x) = -0.43024 0.72329
# Poissons Ratio (y) = -0.35550 0.33477
# Poissons Ratio (z) = 0.36974 0.20711
#
# Static dielectric constant tensor:
#      x y z
#    x 1.806520 0.000000 0.000000 
#    y 0.000000 1.913690 0.000000 
#    z 0.000000 0.000000 1.828320 
# 
# From -- ./inp_files/15133.got.cif
#   From: 2010.05.17/outbox.cif.g08.bks.cpg/sg56_8_cif.got.tgz:15133.got - 2010.06.03 13:42:01.
