data_PCOD9432007
_publ_section_title
;
Structure prediction by ZEFSAII (Michael W. Deem and Ramdas Pophale) SiO2 
 PCOD9432007
Probable space group: P C C N
;
_chemical_formula_sum "Si O2"
_cell_formula_units_Z 64
_cell_length_a 15.146675
_cell_length_b 18.044415
_cell_length_c 11.373357
_cell_angle_alpha 90.000000
_cell_angle_beta 90.000000
_cell_angle_gamma 90.000000
_cell_volume 3108.485066
_symmetry_space_group_name_H-M "P C C N"
_symmetry_group_IT_number 56
_symmetry_cell_setting 'orthorhombic'
loop_
_space_group_symop_operation_xyz
x,y,z
1/2-x,1/2-y,z
1/2+x,-y,1/2-z
-x,1/2+y,1/2-z
-x,-y,-z
1/2+x,1/2+y,-z
1/2-x,y,1/2+z
x,1/2-y,1/2+z
loop_
_atom_site_type_symbol
_atom_site_label
_atom_site_fract_x
_atom_site_fract_y
_atom_site_fract_z
Si Si1 0.835726 0.384461 0.521219
Si Si2 0.489112 0.095913 0.383422
Si Si3 0.072550 0.452142 0.723712
Si Si4 0.562183 0.180620 0.720139
Si Si5 0.817529 0.944017 0.988003
Si Si6 0.381219 0.049882 0.992614
Si Si7 0.008982 0.660338 0.868760
Si Si8 0.142376 0.881182 0.549735
O O1 0.853179 0.344790 0.643963
O O2 0.826308 0.472804 0.538638
O O3 0.746432 0.364957 0.453239
O O4 0.925618 0.371453 0.448960
O O5 0.398869 0.100096 0.455351
O O6 0.480666 0.132178 0.257901
O O7 0.516950 0.012132 0.350441
O O8 0.163712 0.447041 0.651715
O O9 0.087086 0.469456 0.860438
O O10 0.016308 0.378487 0.714336
O O11 0.522304 0.253061 0.658172
O O12 0.594520 0.171772 0.855476
O O13 0.718540 0.919865 0.012788
O O14 0.442555 0.115029 0.044849
O O15 0.376764 0.970739 0.064348
O O16 0.103407 0.636412 0.921300
#
# Coordination Sequence:
#
# PCOD9432007 Si02
#       8
#     8   8   8   8   8   8   8   8
#     4  10  23  40  67 100 132 171 226 276 345 410
#     4  11  21  42  67  99 132 173 227 283 342 406
#     4  11  20  43  70  93 133 176 223 287 340 406
#     4  12  25  43  66  90 143 181 217 276 354 420
#     4  10  22  38  73 104 126 171 232 295 350 394
#     4  11  24  43  72 102 131 174 239 290 337 407
#     4  12  27  41  64  97 135 181 223 277 342 417
#     4  11  25  44  68 102 132 180 229 284 343 413
#
# _framework density 20.588806999999999
#
# number of rings (size 3 to 8) (size 9 to 14) (size 15 to 20)
#    0.000    1.000    5.000    1.875    5.250    2.500 
#    0.000    0.625    0.000    0.000    0.000    0.000 
#    0.000    0.000    0.000    0.000    0.000    0.000 
#
# Total GULP energy -356880.025999 kJ/mol
# GULP energy per Si atom -5576.250406 kJ/mol
# Density = 2.054195 g / cm^3
# Si number density = 20.588807 Si / 1000 Ang^3
#
#
#
# Elastic Constant Matrix: (Units=GPa)
#
#
# Indices 1 2 3 4 5 6 
#
# 1 114.6342 17.3147 18.8800 0.0000 0.0000 0.0000
# 2 17.3147 71.0982 18.4974 0.0000 0.0000 0.0000
# 3 18.8800 18.4974 77.2100 0.0000 0.0000 0.0000
# 4 0.0000 0.0000 0.0000 21.6519 0.0000 0.0000
# 5 0.0000 0.0000 0.0000 0.0000 20.6143 0.0000
# 6 0.0000 0.0000 0.0000 0.0000 0.0000 -8.8600
#
#
#
# Elastic Compliance Matrix: (Units=1/GPa)
#
#
# Indices 1 2 3 4 5 6 
#
# 1 0.009297 -0.001784 -0.001846 0.000000 0.000000 0.000000
# 2 -0.001784 0.015342 -0.003239 0.000000 0.000000 0.000000
# 3 -0.001846 -0.003239 0.014179 0.000000 0.000000 0.000000
# 4 0.000000 0.000000 0.000000 0.046185 0.000000 0.000000
# 5 0.000000 0.000000 0.000000 0.000000 0.048510 0.000000
# 6 0.000000 0.000000 0.000000 0.000000 0.000000 -0.112867
#
#
# Mechanical properties :
#
#
# Convention : Reuss Voigt Hill
#
# Bulk Modulus (GPa) = 39.87262 41.36963 40.62112
# Shear Modulus (GPa) = 116.97359 20.56461 68.76910
#
# Velocity S-wave (km/s) = 7.54569 3.16385 5.78565
# Velocity P-wave (km/s) = 9.76345 5.78649 8.02522
#
# Compressibility (1/GPa) = 0.02507987
#
# Stress axis : x y z
#
# Youngs Moduli (GPa) = 107.56316 65.17943 70.52606
#
# Poissons Ratio (x) = 0.11627 0.13019
# Poissons Ratio (y) = 0.19187 0.22846
# Poissons Ratio (z) = 0.19856 0.21114
#
# Static dielectric constant tensor:
#      x y z
#    x 1.733270 0.000000 0.000000 
#    y 0.000000 1.559140 0.000000 
#    z 0.000000 0.000000 1.774180 
# 
# From -- ./inp_files/8049.got.cif
#   From: 2010.05.17/outbox.cif.g08.bks.cpg/sg56_5_cif.got.tgz:8049.got - 2010.06.03 13:42:01.
