data_PCOD9432557
_publ_section_title
;
Structure prediction by ZEFSAII (Michael W. Deem and Ramdas Pophale) SiO2 
 PCOD9432557
Probable space group: P C C N
;
_chemical_formula_sum "Si O2"
_cell_formula_units_Z 64
_cell_length_a 21.684326
_cell_length_b 15.095808
_cell_length_c 9.125098
_cell_angle_alpha 90.000000
_cell_angle_beta 90.000000
_cell_angle_gamma 90.000000
_cell_volume 2987.031679
_symmetry_space_group_name_H-M "P C C N"
_symmetry_group_IT_number 56
_symmetry_cell_setting 'orthorhombic'
loop_
_space_group_symop_operation_xyz
x,y,z
1/2-x,1/2-y,z
1/2+x,-y,1/2-z
-x,1/2+y,1/2-z
-x,-y,-z
1/2+x,1/2+y,-z
1/2-x,y,1/2+z
x,1/2-y,1/2+z
loop_
_atom_site_type_symbol
_atom_site_label
_atom_site_fract_x
_atom_site_fract_y
_atom_site_fract_z
Si Si1 0.507035 0.469537 0.830584
Si Si2 0.744816 0.355604 0.559631
Si Si3 0.879129 0.349279 0.236931
Si Si4 0.178719 0.563932 0.205672
Si Si5 0.626280 0.878393 0.720266
Si Si6 0.468685 0.162350 0.778375
Si Si7 0.894601 0.751429 0.973978
Si Si8 0.590871 0.299902 0.423272
O O1 0.571252 0.417670 0.801999
O O2 0.445937 0.412473 0.786295
O O3 0.513984 0.559927 0.737955
O O4 0.500000 0.500000 0.000000
O O5 0.750000 0.250000 0.541050
O O6 0.685410 0.377683 0.663808
O O7 0.730665 0.409197 0.412254
O O8 0.804808 0.387945 0.643683
O O9 0.865833 0.277084 0.361382
O O10 0.911575 0.303149 0.096490
O O11 0.167357 0.462771 0.242889
O O12 0.118278 0.607909 0.134892
O O13 0.636793 0.807393 0.849204
O O14 0.638200 0.829466 0.565562
O O15 0.447998 0.200179 0.621512
O O16 0.526100 0.213933 0.846858
O O17 0.417117 0.183594 0.900079
#
# Coordination Sequence:
#
# PCOD9432557 Si02
#       8
#     8   8   8   8   8   8   8   8
#     4  12  25  38  62 103 141 176 230 278 344 427
#     4  11  24  46  67 102 139 184 228 282 351 421
#     4  11  26  39  65  96 138 185 229 275 347 414
#     4  11  25  42  68  96 134 178 227 289 337 420
#     4  11  23  45  66 100 131 177 229 282 354 412
#     4  11  21  38  59  92 135 177 216 272 325 408
#     4  10  23  40  64  88 134 175 218 274 346 402
#     4  11  22  38  62  94 133 181 223 273 334 414
#
# _framework density 21.425954999999998
#
# number of rings (size 3 to 8) (size 9 to 14) (size 15 to 20)
#    0.000    1.000    3.750    3.375    7.000    2.000 
#    0.000    0.000    0.000    2.250    0.000    0.000 
#    0.000    0.000    0.000    0.000    0.000    0.000 
#
# Total GULP energy -357328.880296 kJ/mol
# GULP energy per Si atom -5583.263755 kJ/mol
# Density = 2.137719 g / cm^3
# Si number density = 21.425955 Si / 1000 Ang^3
#
#
#
# Elastic Constant Matrix: (Units=GPa)
#
#
# Indices 1 2 3 4 5 6 
#
# 1 30.8242 23.0302 36.5809 0.0000 0.0000 0.0000
# 2 23.0302 111.5016 56.9680 0.0000 0.0000 0.0000
# 3 36.5809 56.9680 148.8341 0.0000 0.0000 0.0000
# 4 0.0000 0.0000 0.0000 36.0193 0.0000 0.0000
# 5 0.0000 0.0000 0.0000 0.0000 23.0442 0.0000
# 6 0.0000 0.0000 0.0000 0.0000 0.0000 30.6941
#
#
#
# Elastic Compliance Matrix: (Units=1/GPa)
#
#
# Indices 1 2 3 4 5 6 
#
# 1 0.047791 -0.004810 -0.009905 0.000000 0.000000 0.000000
# 2 -0.004810 0.011633 -0.003270 0.000000 0.000000 0.000000
# 3 -0.009905 -0.003270 0.010405 0.000000 0.000000 0.000000
# 4 0.000000 0.000000 0.000000 0.027763 0.000000 0.000000
# 5 0.000000 0.000000 0.000000 0.000000 0.043395 0.000000
# 6 0.000000 0.000000 0.000000 0.000000 0.000000 0.032580
#
#
# Mechanical properties :
#
#
# Convention : Reuss Voigt Hill
#
# Bulk Modulus (GPa) = 29.53550 58.25756 43.89653
# Shear Modulus (GPa) = 22.64252 29.59022 26.11637
#
# Velocity S-wave (km/s) = 3.25434 3.72027 3.49508
# Velocity P-wave (km/s) = 5.28544 6.76041 6.06791
#
# Compressibility (1/GPa) = 0.03385756
#
# Stress axis : x y z
#
# Youngs Moduli (GPa) = 20.92451 85.96301 96.10653
#
# Poissons Ratio (x) = 0.41351 0.95193
# Poissons Ratio (y) = 0.10065 0.31430
# Poissons Ratio (z) = 0.20726 0.28113
#
# Static dielectric constant tensor:
#      x y z
#    x 1.815060 0.000000 0.000000 
#    y 0.000000 1.784890 0.000000 
#    z 0.000000 0.000000 1.800320 
# 
# From -- ./inp_files/4828.got.cif
#   From: 2010.05.17/outbox.cif.g08.bks.cpg/sg56_3_cif.got.tgz:4828.got - 2010.06.03 13:42:01.
