data_PCOD9432875
_publ_section_title
;
Structure prediction by ZEFSAII (Michael W. Deem and Ramdas Pophale) SiO2 
 PCOD9432875
Probable space group: P C C N
;
_chemical_formula_sum "Si O2"
_cell_formula_units_Z 44
_cell_length_a 12.657822
_cell_length_b 16.370185
_cell_length_c 9.175744
_cell_angle_alpha 90.000000
_cell_angle_beta 90.000000
_cell_angle_gamma 90.000000
_cell_volume 1901.314061
_symmetry_space_group_name_H-M "P C C N"
_symmetry_group_IT_number 56
_symmetry_cell_setting 'orthorhombic'
loop_
_space_group_symop_operation_xyz
x,y,z
1/2-x,1/2-y,z
1/2+x,-y,1/2-z
-x,1/2+y,1/2-z
-x,-y,-z
1/2+x,1/2+y,-z
1/2-x,y,1/2+z
x,1/2-y,1/2+z
loop_
_atom_site_type_symbol
_atom_site_label
_atom_site_fract_x
_atom_site_fract_y
_atom_site_fract_z
Si Si1 0.885989 0.974651 0.570293
Si Si2 0.250000 0.750000 0.481052
Si Si3 0.444144 0.294873 0.474043
Si Si4 0.145316 0.831840 0.720919
Si Si5 0.157585 0.184274 0.767644
Si Si6 0.726765 0.499507 0.284915
O O1 0.885469 0.877019 0.580478
O O2 0.794813 0.999166 0.456900
O O3 0.844914 0.012125 0.721710
O O4 0.000000 0.000000 0.500000
O O5 0.238275 0.822060 0.599612
O O6 0.338736 0.777051 0.364021
O O7 0.551142 0.303793 0.383374
O O8 0.434202 0.302893 0.646775
O O9 0.386018 0.213581 0.422297
O O10 0.150931 0.925871 0.767581
O O11 0.250000 0.250000 0.730127
O O12 0.189985 0.090095 0.762549
#
# Coordination Sequence:
#
# PCOD9432875 Si02
#       6
#     8   4   8   8   8   8
#     4  11  23  44  68 100 140 184 226 294 347 414
#     4  10  24  42  66  90 132 178 226 280 338 392
#     4  11  23  40  65  92 136 172 226 271 349 410
#     4  11  22  44  66  96 129 181 229 284 336 414
#     4  11  23  40  65  99 135 179 214 284 344 416
#     4  11  24  41  73  99 139 183 234 283 354 419
#
# _framework density 23.14189
#
# number of rings (size 3 to 8) (size 9 to 14) (size 15 to 20)
#    0.000    1.091    3.636    2.727    2.545    0.000 
#    3.273    0.909    0.000    0.000    0.000    0.000 
#    0.000    0.000    0.000    0.000    0.000    0.000 
#
# Total GULP energy -245079.601846 kJ/mol
# GULP energy per Si atom -5569.990951 kJ/mol
# Density = 2.308922 g / cm^3
# Si number density = 23.141890 Si / 1000 Ang^3
#
#
#
# Elastic Constant Matrix: (Units=GPa)
#
#
# Indices 1 2 3 4 5 6 
#
# 1 62.9331 13.2047 38.5635 0.0000 0.0000 0.0000
# 2 13.2047 128.0041 18.4646 0.0000 0.0000 0.0000
# 3 38.5635 18.4646 111.1693 0.0000 0.0000 0.0000
# 4 0.0000 0.0000 0.0000 25.2948 0.0000 0.0000
# 5 0.0000 0.0000 0.0000 0.0000 24.0551 0.0000
# 6 0.0000 0.0000 0.0000 0.0000 0.0000 21.2628
#
#
#
# Elastic Compliance Matrix: (Units=1/GPa)
#
#
# Indices 1 2 3 4 5 6 
#
# 1 0.020331 -0.001106 -0.006869 0.000000 0.000000 0.000000
# 2 -0.001106 0.008064 -0.000956 0.000000 0.000000 0.000000
# 3 -0.006869 -0.000956 0.011537 0.000000 0.000000 0.000000
# 4 0.000000 0.000000 0.000000 0.039534 0.000000 0.000000
# 5 0.000000 0.000000 0.000000 0.000000 0.041571 0.000000
# 6 0.000000 0.000000 0.000000 0.000000 0.000000 0.047031
#
#
# Mechanical properties :
#
#
# Convention : Reuss Voigt Hill
#
# Bulk Modulus (GPa) = 45.31001 49.17466 47.24233
# Shear Modulus (GPa) = 25.86835 29.58077 27.72456
#
# Velocity S-wave (km/s) = 3.34700 3.57912 3.46500
# Velocity P-wave (km/s) = 5.87863 6.19479 6.03878
#
# Compressibility (1/GPa) = 0.02207018
#
# Stress axis : x y z
#
# Youngs Moduli (GPa) = 49.18576 124.00429 86.67955
#
# Poissons Ratio (x) = 0.13721 0.59539
# Poissons Ratio (y) = 0.05442 0.08283
# Poissons Ratio (z) = 0.33785 0.11850
#
# Static dielectric constant tensor:
#      x y z
#    x 2.067440 0.000000 0.000000 
#    y 0.000000 1.926810 0.000000 
#    z 0.000000 0.000000 1.867720 
# 
# From -- ./inp_files/3316.got.cif
#   From: 2010.05.17/outbox.cif.g08.bks.cpg/sg56_2_cif.got.tgz:3316.got - 2010.06.03 13:42:01.
