data_PCOD9432913
_publ_section_title
;
Structure prediction by ZEFSAII (Michael W. Deem and Ramdas Pophale) SiO2 
 PCOD9432913
Probable space group: P C C N
;
_chemical_formula_sum "Si O2"
_cell_formula_units_Z 56
_cell_length_a 14.893063
_cell_length_b 15.954258
_cell_length_c 10.065726
_cell_angle_alpha 90.000000
_cell_angle_beta 90.000000
_cell_angle_gamma 90.000000
_cell_volume 2391.694703
_symmetry_space_group_name_H-M "P C C N"
_symmetry_group_IT_number 56
_symmetry_cell_setting 'orthorhombic'
loop_
_space_group_symop_operation_xyz
x,y,z
1/2-x,1/2-y,z
1/2+x,-y,1/2-z
-x,1/2+y,1/2-z
-x,-y,-z
1/2+x,1/2+y,-z
1/2-x,y,1/2+z
x,1/2-y,1/2+z
loop_
_atom_site_type_symbol
_atom_site_label
_atom_site_fract_x
_atom_site_fract_y
_atom_site_fract_z
Si Si1 0.007817 0.921090 0.402412
Si Si2 0.342257 0.788336 0.615226
Si Si3 0.053468 0.755589 0.870056
Si Si4 0.668195 0.458537 0.765765
Si Si5 0.551082 0.577120 0.928531
Si Si6 0.727775 0.845932 0.549488
Si Si7 0.819597 0.927517 0.305014
O O1 0.926612 0.935764 0.298299
O O2 0.994392 0.821522 0.429765
O O3 0.111858 0.922210 0.356011
O O4 0.000000 0.000000 0.500000
O O5 0.250000 0.750000 0.665836
O O6 0.420631 0.763032 0.718181
O O7 0.361996 0.758182 0.468197
O O8 0.336165 0.888245 0.621467
O O9 0.010804 0.847038 0.881759
O O10 0.607235 0.536549 0.808790
O O11 0.769833 0.488286 0.755932
O O12 0.500000 0.500000 0.000000
O O13 0.627915 0.622257 0.015095
O O14 0.750000 0.750000 0.518704
O O15 0.792320 0.904034 0.457079
O O16 0.727161 0.859988 0.708007
#
# Coordination Sequence:
#
# PCOD9432913 Si02
#       7
#     8   8   8   8   8   8   8
#     4  11  25  45  70 109 145 190 247 304 372 434
#     4  11  25  46  68 101 138 184 239 295 363 431
#     4  11  26  44  72 102 140 187 239 299 366 434
#     4  10  24  43  67 102 139 189 241 290 364 434
#     4  11  22  43  70  98 139 191 248 293 365 442
#     4  11  24  42  68 101 144 191 244 303 374 442
#     4  11  24  44  69 104 145 190 241 310 366 442
#
# _framework density 23.414361
#
# number of rings (size 3 to 8) (size 9 to 14) (size 15 to 20)
#    0.000    1.143    1.429    3.429    6.000    2.286 
#    2.571    0.000    0.000    0.000    0.000    0.000 
#    0.000    0.000    0.000    0.000    0.000    0.000 
#
# Total GULP energy -312478.351627 kJ/mol
# GULP energy per Si atom -5579.970565 kJ/mol
# Density = 2.336107 g / cm^3
# Si number density = 23.414361 Si / 1000 Ang^3
#
#
#
# Elastic Constant Matrix: (Units=GPa)
#
#
# Indices 1 2 3 4 5 6 
#
# 1 79.9372 42.3245 -9.1730 0.0000 0.0000 0.0000
# 2 42.3245 140.7941 11.5253 0.0000 0.0000 0.0000
# 3 -9.1730 11.5253 39.1100 0.0000 0.0000 0.0000
# 4 0.0000 0.0000 0.0000 27.1699 0.0000 0.0000
# 5 0.0000 0.0000 0.0000 0.0000 23.9012 0.0000
# 6 0.0000 0.0000 0.0000 0.0000 0.0000 26.0661
#
#
#
# Elastic Compliance Matrix: (Units=1/GPa)
#
#
# Indices 1 2 3 4 5 6 
#
# 1 0.015866 -0.005199 0.005253 0.000000 0.000000 0.000000
# 2 -0.005199 0.008982 -0.003866 0.000000 0.000000 0.000000
# 3 0.005253 -0.003866 0.027940 0.000000 0.000000 0.000000
# 4 0.000000 0.000000 0.000000 0.036805 0.000000 0.000000
# 5 0.000000 0.000000 0.000000 0.000000 0.041839 0.000000
# 6 0.000000 0.000000 0.000000 0.000000 0.000000 0.038364
#
#
# Mechanical properties :
#
#
# Convention : Reuss Voigt Hill
#
# Bulk Modulus (GPa) = 22.14192 38.79943 30.47067
# Shear Modulus (GPa) = 25.97729 29.77175 27.87452
#
# Velocity S-wave (km/s) = 3.33447 3.56970 3.45409
# Velocity P-wave (km/s) = 4.92971 5.79630 5.38048
#
# Compressibility (1/GPa) = 0.04516321
#
# Stress axis : x y z
#
# Youngs Moduli (GPa) = 63.02937 111.33259 35.79042
#
# Poissons Ratio (x) = 0.57887 -0.18802
# Poissons Ratio (y) = 0.32772 0.13838
# Poissons Ratio (z) = -0.33112 0.43046
#
# Static dielectric constant tensor:
#      x y z
#    x 1.936470 0.000000 0.000000 
#    y 0.000000 1.952920 0.000000 
#    z 0.000000 0.000000 1.928040 
# 
# From -- ./inp_files/7888.got.cif
#   From: 2010.05.17/outbox.cif.g08.bks.cpg/sg56_4_cif.got.tgz:7888.got - 2010.06.03 13:42:01.
