data_PCOD9432599
_publ_section_title
;
Structure prediction by ZEFSAII (Michael W. Deem and Ramdas Pophale) SiO2 
 PCOD9432599
Probable space group: P C C N
;
_chemical_formula_sum "Si O2"
_cell_formula_units_Z 40
_cell_length_a 13.892327
_cell_length_b 8.033856
_cell_length_c 14.654185
_cell_angle_alpha 90.000000
_cell_angle_beta 90.000000
_cell_angle_gamma 90.000000
_cell_volume 1635.538269
_symmetry_space_group_name_H-M "P C C N"
_symmetry_group_IT_number 56
_symmetry_cell_setting 'orthorhombic'
loop_
_space_group_symop_operation_xyz
x,y,z
1/2-x,1/2-y,z
1/2+x,-y,1/2-z
-x,1/2+y,1/2-z
-x,-y,-z
1/2+x,1/2+y,-z
1/2-x,y,1/2+z
x,1/2-y,1/2+z
loop_
_atom_site_type_symbol
_atom_site_label
_atom_site_fract_x
_atom_site_fract_y
_atom_site_fract_z
Si Si1 0.088234 0.642053 0.357335
Si Si2 0.924434 0.521932 0.080902
Si Si3 0.905628 0.830309 0.756921
Si Si4 0.231470 0.554596 0.499359
Si Si5 0.287540 0.005311 0.207245
O O1 0.078468 0.837130 0.377030
O O2 0.133276 0.535909 0.441224
O O3 0.159603 0.626611 0.270785
O O4 0.981630 0.589817 0.325970
O O5 0.952485 0.658659 0.156429
O O6 0.818214 0.554653 0.041087
O O7 0.000000 0.500000 0.000000
O O8 0.807888 0.932043 0.742911
O O9 0.133871 0.155016 0.705981
O O10 0.250000 0.750000 0.481034
O O11 0.246519 0.534976 0.607411
#
# Coordination Sequence:
#
# PCOD9432599 Si02
#       5
#     8   8   8   8   8
#     4  11  23  45  71 104 138 191 242 289 363 434
#     4  11  23  46  71 103 142 189 242 296 360 432
#     4  11  24  44  71 101 149 189 232 302 366 420
#     4  10  23  41  70 101 137 185 245 301 348 434
#     4  11  25  47  68 105 147 188 237 302 363 428
#
# _framework density 24.456779999999998
#
# number of rings (size 3 to 8) (size 9 to 14) (size 15 to 20)
#    0.000    1.200    2.000    3.600    2.800    0.800 
#   18.000    0.000    0.000    0.000    0.000    0.000 
#    0.000    0.000    0.000    0.000    0.000    0.000 
#
# Total GULP energy -223440.823394 kJ/mol
# GULP energy per Si atom -5586.020585 kJ/mol
# Density = 2.440112 g / cm^3
# Si number density = 24.456780 Si / 1000 Ang^3
#
#
#
# Elastic Constant Matrix: (Units=GPa)
#
#
# Indices 1 2 3 4 5 6 
#
# 1 140.3044 40.4616 62.6785 0.0000 0.0000 0.0000
# 2 40.4616 49.4825 30.2867 0.0000 0.0000 0.0000
# 3 62.6785 30.2867 164.4727 0.0000 0.0000 0.0000
# 4 0.0000 0.0000 0.0000 29.2791 0.0000 0.0000
# 5 0.0000 0.0000 0.0000 0.0000 46.9338 0.0000
# 6 0.0000 0.0000 0.0000 0.0000 0.0000 25.5207
#
#
#
# Elastic Compliance Matrix: (Units=1/GPa)
#
#
# Indices 1 2 3 4 5 6 
#
# 1 0.010270 -0.006765 -0.002668 0.000000 0.000000 0.000000
# 2 -0.006765 0.027232 -0.002437 0.000000 0.000000 0.000000
# 3 -0.002668 -0.002437 0.007546 0.000000 0.000000 0.000000
# 4 0.000000 0.000000 0.000000 0.034154 0.000000 0.000000
# 5 0.000000 0.000000 0.000000 0.000000 0.021307 0.000000
# 6 0.000000 0.000000 0.000000 0.000000 0.000000 0.039184
#
#
# Mechanical properties :
#
#
# Convention : Reuss Voigt Hill
#
# Bulk Modulus (GPa) = 46.92935 69.01256 57.97096
# Shear Modulus (GPa) = 29.31962 35.06891 32.19427
#
# Velocity S-wave (km/s) = 3.46617 3.79081 3.63212
# Velocity P-wave (km/s) = 5.93713 6.88765 6.42998
#
# Compressibility (1/GPa) = 0.02130863
#
# Stress axis : x y z
#
# Youngs Moduli (GPa) = 97.36955 36.72141 132.52886
#
# Poissons Ratio (x) = 0.24841 0.35360
# Poissons Ratio (y) = 0.65868 0.32293
# Poissons Ratio (z) = 0.25979 0.08948
#
# Static dielectric constant tensor:
#      x y z
#    x 1.964740 0.000000 0.000000 
#    y 0.000000 0.979190 0.000000 
#    z 0.000000 0.000000 2.113600 
# 
# From -- ./inp_files/11479.got.cif
#   From: 2010.05.17/outbox.cif.g08.bks.cpg/sg56_6_cif.got.tgz:11479.got - 2010.06.03 13:42:01.
