data_PCOD9432287
_publ_section_title
;
Structure prediction by ZEFSAII (Michael W. Deem and Ramdas Pophale) SiO2 
 PCOD9432287
Probable space group: P C C N
;
_chemical_formula_sum "Si O2"
_cell_formula_units_Z 60
_cell_length_a 8.253887
_cell_length_b 11.064722
_cell_length_c 31.715456
_cell_angle_alpha 90.000000
_cell_angle_beta 90.000000
_cell_angle_gamma 90.000000
_cell_volume 2896.476342
_symmetry_space_group_name_H-M "P C C N"
_symmetry_group_IT_number 56
_symmetry_cell_setting 'orthorhombic'
loop_
_space_group_symop_operation_xyz
x,y,z
1/2-x,1/2-y,z
1/2+x,-y,1/2-z
-x,1/2+y,1/2-z
-x,-y,-z
1/2+x,1/2+y,-z
1/2-x,y,1/2+z
x,1/2-y,1/2+z
loop_
_atom_site_type_symbol
_atom_site_label
_atom_site_fract_x
_atom_site_fract_y
_atom_site_fract_z
Si Si1 0.074829 0.686743 0.024128
Si Si2 0.290768 0.890617 0.851302
Si Si3 0.312738 0.884487 0.704663
Si Si4 0.750000 0.750000 0.336899
Si Si5 0.933723 0.976512 0.873021
Si Si6 0.964518 0.922128 0.281881
Si Si7 0.435370 0.064605 0.458483
Si Si8 0.078752 0.539894 0.940038
O O1 0.250000 0.750000 0.027173
O O2 0.950211 0.791965 0.036257
O O3 0.049152 0.568448 0.053211
O O4 0.049711 0.640083 0.976115
O O5 0.250000 0.750000 0.843317
O O6 0.384932 0.950499 0.812621
O O7 0.118085 0.951406 0.858929
O O8 0.401384 0.905304 0.893409
O O9 0.250000 0.750000 0.706726
O O10 0.463837 0.898119 0.736102
O O11 0.360129 0.923465 0.657722
O O12 0.169987 0.974560 0.718920
O O13 0.669609 0.855101 0.364826
O O14 0.882502 0.808509 0.305668
O O15 0.950557 0.020395 0.920469
O O16 0.253364 0.019872 0.450326
O O17 0.500000 0.000000 0.500000
#
# Coordination Sequence:
#
# PCOD9432287 Si02
#       8
#     8   8   8   4   8   8   8   8
#     4  11  22  41  62  89 132 168 218 280 333 397
#     4  11  21  41  70  94 129 172 220 276 323 389
#     4  11  26  45  66 103 137 175 216 268 334 399
#     4  10  22  42  68 106 128 174 222 282 324 404
#     4  10  24  44  65  96 135 171 227 273 336 396
#     4  11  24  41  72  99 134 170 220 265 330 391
#     4  11  23  42  64  94 130 177 221 279 335 398
#     4  10  24  41  63  96 124 177 224 267 342 403
#
# _framework density 20.714825999999999
#
# number of rings (size 3 to 8) (size 9 to 14) (size 15 to 20)
#    0.000    1.333    2.667    2.000    5.600    3.733 
#    2.400    1.333    0.000    0.000    0.000    0.000 
#    0.000    0.000    0.000    0.000    0.000    0.000 
#
# Total GULP energy -335585.426607 kJ/mol
# GULP energy per Si atom -5593.090443 kJ/mol
# Density = 2.066768 g / cm^3
# Si number density = 20.714826 Si / 1000 Ang^3
#
#
#
# Elastic Constant Matrix: (Units=GPa)
#
#
# Indices 1 2 3 4 5 6 
#
# 1 67.5219 27.7062 38.3242 0.0000 0.0000 0.0000
# 2 27.7062 94.1227 41.1758 0.0000 0.0000 0.0000
# 3 38.3242 41.1758 118.2293 0.0000 0.0000 0.0000
# 4 0.0000 0.0000 0.0000 15.6276 0.0000 0.0000
# 5 0.0000 0.0000 0.0000 0.0000 33.5996 0.0000
# 6 0.0000 0.0000 0.0000 0.0000 0.0000 25.1793
#
#
#
# Elastic Compliance Matrix: (Units=1/GPa)
#
#
# Indices 1 2 3 4 5 6 
#
# 1 0.019042 -0.003427 -0.004979 0.000000 0.000000 0.000000
# 2 -0.003427 0.013151 -0.003469 0.000000 0.000000 0.000000
# 3 -0.004979 -0.003469 0.011280 0.000000 0.000000 0.000000
# 4 0.000000 0.000000 0.000000 0.063989 0.000000 0.000000
# 5 0.000000 0.000000 0.000000 0.000000 0.029762 0.000000
# 6 0.000000 0.000000 0.000000 0.000000 0.000000 0.039715
#
#
# Mechanical properties :
#
#
# Convention : Reuss Voigt Hill
#
# Bulk Modulus (GPa) = 50.70268 54.92070 52.81169
# Shear Modulus (GPa) = 24.12369 26.39248 25.25809
#
# Velocity S-wave (km/s) = 3.41627 3.57331 3.49567
# Velocity P-wave (km/s) = 6.33173 6.60265 6.46861
#
# Compressibility (1/GPa) = 0.01972282
#
# Stress axis : x y z
#
# Youngs Moduli (GPa) = 52.51481 76.04042 88.65023
#
# Poissons Ratio (x) = 0.26060 0.44139
# Poissons Ratio (y) = 0.17998 0.30754
# Poissons Ratio (z) = 0.26147 0.26380
#
# Static dielectric constant tensor:
#      x y z
#    x 1.773840 0.000000 0.000000 
#    y 0.000000 1.475430 0.000000 
#    z 0.000000 0.000000 1.726760 
# 
# From -- ./inp_files/23344.got.cif
#   From: 2010.05.17/outbox.cif.g08.bks.cpg/sg56_12_cif.got.tgz:23344.got - 2010.06.03 13:42:01.
