data_PCOD9432967
_publ_section_title
;
Structure prediction by ZEFSAII (Michael W. Deem and Ramdas Pophale) SiO2 
 PCOD9432967
Probable space group: P C C N
;
_chemical_formula_sum "Si O2"
_cell_formula_units_Z 48
_cell_length_a 7.930181
_cell_length_b 17.574228
_cell_length_c 14.407577
_cell_angle_alpha 90.000000
_cell_angle_beta 90.000000
_cell_angle_gamma 90.000000
_cell_volume 2007.938032
_symmetry_space_group_name_H-M "P C C N"
_symmetry_group_IT_number 56
_symmetry_cell_setting 'orthorhombic'
loop_
_space_group_symop_operation_xyz
x,y,z
1/2-x,1/2-y,z
1/2+x,-y,1/2-z
-x,1/2+y,1/2-z
-x,-y,-z
1/2+x,1/2+y,-z
1/2-x,y,1/2+z
x,1/2-y,1/2+z
loop_
_atom_site_type_symbol
_atom_site_label
_atom_site_fract_x
_atom_site_fract_y
_atom_site_fract_z
Si Si1 0.866049 0.848785 0.174878
Si Si2 0.375150 0.430735 0.016802
Si Si3 0.144140 0.543556 0.126530
Si Si4 0.612861 0.061920 0.198228
Si Si5 0.482780 0.805759 0.179149
Si Si6 0.150299 0.675182 0.386828
O O1 0.677603 0.825717 0.200968
O O2 0.992759 0.780252 0.145188
O O3 0.959194 0.889405 0.259618
O O4 0.841208 0.898430 0.084045
O O5 0.217683 0.475837 0.062436
O O6 0.480413 0.363448 0.070213
O O7 0.500000 0.500000 0.000000
O O8 0.268788 0.544513 0.214604
O O9 0.964312 0.514346 0.159734
O O10 0.108798 0.633878 0.110624
O O11 0.713786 0.107415 0.120555
O O12 0.392348 0.806716 0.278836
O O13 0.250000 0.750000 0.424409
#
# Coordination Sequence:
#
# PCOD9432967 Si02
#       6
#     8   8   8   8   8   8
#     4  11  23  45  67 101 143 173 230 297 351 408
#     4  12  27  44  64 104 147 178 225 297 354 421
#     4  11  23  41  70  98 137 181 237 284 348 414
#     4  11  21  42  73  96 128 180 237 282 322 423
#     4  10  24  44  73  99 128 188 242 281 345 425
#     4  11  24  47  71 100 134 185 237 283 346 418
#
# _framework density 23.905118000000002
#
# number of rings (size 3 to 8) (size 9 to 14) (size 15 to 20)
#    0.000    1.000    3.333    4.000    2.333    2.000 
#    6.000    0.000    0.000    0.000    0.000    0.000 
#    0.000    0.000    0.000    0.000    0.000    0.000 
#
# Total GULP energy -267995.162476 kJ/mol
# GULP energy per Si atom -5583.232552 kJ/mol
# Density = 2.385071 g / cm^3
# Si number density = 23.905118 Si / 1000 Ang^3
#
#
#
# Elastic Constant Matrix: (Units=GPa)
#
#
# Indices 1 2 3 4 5 6 
#
# 1 62.0317 20.7252 12.1321 0.0000 0.0000 0.0000
# 2 20.7252 112.8118 12.1240 0.0000 0.0000 0.0000
# 3 12.1321 12.1240 36.9441 0.0000 0.0000 0.0000
# 4 0.0000 0.0000 0.0000 33.3723 0.0000 0.0000
# 5 0.0000 0.0000 0.0000 0.0000 13.2035 0.0000
# 6 0.0000 0.0000 0.0000 0.0000 0.0000 55.4693
#
#
#
# Elastic Compliance Matrix: (Units=1/GPa)
#
#
# Indices 1 2 3 4 5 6 
#
# 1 0.018027 -0.002773 -0.005010 0.000000 0.000000 0.000000
# 2 -0.002773 0.009615 -0.002245 0.000000 0.000000 0.000000
# 3 -0.005010 -0.002245 0.029450 0.000000 0.000000 0.000000
# 4 0.000000 0.000000 0.000000 0.029965 0.000000 0.000000
# 5 0.000000 0.000000 0.000000 0.000000 0.075737 0.000000
# 6 0.000000 0.000000 0.000000 0.000000 0.000000 0.018028
#
#
# Mechanical properties :
#
#
# Convention : Reuss Voigt Hill
#
# Bulk Modulus (GPa) = 27.00057 33.52779 30.26418
# Shear Modulus (GPa) = 23.44959 31.52945 27.48952
#
# Velocity S-wave (km/s) = 3.13540 3.63566 3.39476
# Velocity P-wave (km/s) = 4.94237 5.62849 5.29655
#
# Compressibility (1/GPa) = 0.03703626
#
# Stress axis : x y z
#
# Youngs Moduli (GPa) = 55.47166 104.00327 33.95623
#
# Poissons Ratio (x) = 0.28845 0.17011
# Poissons Ratio (y) = 0.15385 0.07622
# Poissons Ratio (z) = 0.27790 0.23345
#
# Static dielectric constant tensor:
#      x y z
#    x 1.915120 0.000000 0.000000 
#    y 0.000000 2.088390 0.000000 
#    z 0.000000 0.000000 1.902020 
# 
# From -- ./inp_files/10637.got.cif
#   From: 2010.05.17/outbox.cif.g08.bks.cpg/sg56_6_cif.got.tgz:10637.got - 2010.06.03 13:42:01.
