data_PCOD9432526
_publ_section_title
;
Structure prediction by ZEFSAII (Michael W. Deem and Ramdas Pophale) SiO2 
 PCOD9432526
Probable space group: P C C N
;
_chemical_formula_sum "Si O2"
_cell_formula_units_Z 56
_cell_length_a 19.193071
_cell_length_b 14.511752
_cell_length_c 9.650388
_cell_angle_alpha 90.000000
_cell_angle_beta 90.000000
_cell_angle_gamma 90.000000
_cell_volume 2687.875152
_symmetry_space_group_name_H-M "P C C N"
_symmetry_group_IT_number 56
_symmetry_cell_setting 'orthorhombic'
loop_
_space_group_symop_operation_xyz
x,y,z
1/2-x,1/2-y,z
1/2+x,-y,1/2-z
-x,1/2+y,1/2-z
-x,-y,-z
1/2+x,1/2+y,-z
1/2-x,y,1/2+z
x,1/2-y,1/2+z
loop_
_atom_site_type_symbol
_atom_site_label
_atom_site_fract_x
_atom_site_fract_y
_atom_site_fract_z
Si Si1 0.594164 0.999858 0.884306
Si Si2 0.323379 0.241919 0.715631
Si Si3 0.968585 0.684932 0.902966
Si Si4 0.315803 0.426571 0.859228
Si Si5 0.431643 0.031298 0.588809
Si Si6 0.338399 0.467465 0.323499
Si Si7 0.513713 0.170801 0.788907
O O1 0.532637 0.923812 0.867599
O O2 0.654722 0.966018 0.784341
O O3 0.574054 0.102254 0.839438
O O4 0.616696 0.986494 0.041277
O O5 0.250000 0.250000 0.634198
O O6 0.391946 0.276621 0.636389
O O7 0.311514 0.316944 0.836531
O O8 0.334214 0.138934 0.770350
O O9 0.023074 0.739786 0.807049
O O10 0.979434 0.700571 0.065798
O O11 0.241897 0.477823 0.874026
O O12 0.374842 0.440199 0.974124
O O13 0.378851 0.979887 0.698255
O O14 0.467164 0.105864 0.690346
O O15 0.500000 0.000000 0.500000
#
# Coordination Sequence:
#
# PCOD9432526 Si02
#       7
#     8   8   8   8   8   8   8
#     4  11  23  42  63  93 138 172 221 277 332 400
#     4   9  20  36  59  90 134 181 217 254 316 410
#     4  11  23  40  62  92 131 179 213 276 327 400
#     4  10  23  38  64  95 135 181 224 267 332 412
#     4  12  24  39  61  93 132 175 223 278 326 386
#     4  11  22  40  63  96 136 182 224 268 335 409
#     4  12  26  42  62  94 133 173 227 270 336 389
#
# _framework density 20.834302000000001
#
# number of rings (size 3 to 8) (size 9 to 14) (size 15 to 20)
#    0.000    1.143    4.286    1.286    6.000    0.000 
#    0.000    5.000    0.000    0.000    0.000    3.000 
#    0.000    0.000    0.000    0.000    0.000    0.000 
#
# Total GULP energy -312010.043364 kJ/mol
# GULP energy per Si atom -5571.607917 kJ/mol
# Density = 2.078688 g / cm^3
# Si number density = 20.834302 Si / 1000 Ang^3
#
#
#
# Elastic Constant Matrix: (Units=GPa)
#
#
# Indices 1 2 3 4 5 6 
#
# 1 105.4069 38.6340 41.7329 0.0000 0.0000 0.0000
# 2 38.6340 53.9097 47.6463 0.0000 0.0000 0.0000
# 3 41.7329 47.6463 101.7666 0.0000 0.0000 0.0000
# 4 0.0000 0.0000 0.0000 22.6058 0.0000 0.0000
# 5 0.0000 0.0000 0.0000 0.0000 28.5523 0.0000
# 6 0.0000 0.0000 0.0000 0.0000 0.0000 30.0863
#
#
#
# Elastic Compliance Matrix: (Units=1/GPa)
#
#
# Indices 1 2 3 4 5 6 
#
# 1 0.013028 -0.007872 -0.001657 0.000000 0.000000 0.000000
# 2 -0.007872 0.036400 -0.013814 0.000000 0.000000 0.000000
# 3 -0.001657 -0.013814 0.016974 0.000000 0.000000 0.000000
# 4 0.000000 0.000000 0.000000 0.044236 0.000000 0.000000
# 5 0.000000 0.000000 0.000000 0.000000 0.035023 0.000000
# 6 0.000000 0.000000 0.000000 0.000000 0.000000 0.033238
#
#
# Mechanical properties :
#
#
# Convention : Reuss Voigt Hill
#
# Bulk Modulus (GPa) = 50.72121 57.45662 54.08891
# Shear Modulus (GPa) = 21.53706 25.12023 23.32865
#
# Velocity S-wave (km/s) = 3.21866 3.47611 3.34986
# Velocity P-wave (km/s) = 6.18150 6.61429 6.40155
#
# Compressibility (1/GPa) = 0.01971562
#
# Stress axis : x y z
#
# Youngs Moduli (GPa) = 76.75514 27.47246 58.91531
#
# Poissons Ratio (x) = 0.21627 0.09763
# Poissons Ratio (y) = 0.60423 0.81385
# Poissons Ratio (z) = 0.12719 0.37950
#
# Static dielectric constant tensor:
#      x y z
#    x 1.849020 0.000000 0.000000 
#    y 0.000000 1.818240 0.000000 
#    z 0.000000 0.000000 1.786890 
# 
# From -- ./inp_files/4496.got.cif
#   From: 2010.05.17/outbox.cif.g08.bks.cpg/sg56_3_cif.got.tgz:4496.got - 2010.06.03 13:42:01.
