data_PCOD9432814
_publ_section_title
;
Structure prediction by ZEFSAII (Michael W. Deem and Ramdas Pophale) SiO2 
 PCOD9432814
Probable space group: P C C N
;
_chemical_formula_sum "Si O2"
_cell_formula_units_Z 44
_cell_length_a 13.407936
_cell_length_b 18.769454
_cell_length_c 8.712786
_cell_angle_alpha 90.000000
_cell_angle_beta 90.000000
_cell_angle_gamma 90.000000
_cell_volume 2192.656571
_symmetry_space_group_name_H-M "P C C N"
_symmetry_group_IT_number 56
_symmetry_cell_setting 'orthorhombic'
loop_
_space_group_symop_operation_xyz
x,y,z
1/2-x,1/2-y,z
1/2+x,-y,1/2-z
-x,1/2+y,1/2-z
-x,-y,-z
1/2+x,1/2+y,-z
1/2-x,y,1/2+z
x,1/2-y,1/2+z
loop_
_atom_site_type_symbol
_atom_site_label
_atom_site_fract_x
_atom_site_fract_y
_atom_site_fract_z
Si Si1 0.305796 0.483209 0.922508
Si Si2 0.392640 0.719181 0.311762
Si Si3 0.250000 0.750000 0.566015
Si Si4 0.105362 0.023354 0.265804
Si Si5 0.527278 0.890205 0.693697
Si Si6 0.560492 0.383111 0.150789
O O1 0.188879 0.477466 0.894940
O O2 0.361945 0.420303 0.827949
O O3 0.352373 0.557670 0.860009
O O4 0.338517 0.477379 0.100047
O O5 0.326776 0.705644 0.462034
O O6 0.496613 0.679626 0.288205
O O7 0.405389 0.804334 0.307845
O O8 0.318821 0.700692 0.171654
O O9 0.026411 0.087712 0.261917
O O10 0.038657 0.952650 0.268018
O O11 0.488103 0.880749 0.519182
#
# Coordination Sequence:
#
# PCOD9432814 Si02
#       6
#     8   8   4   8   8   8
#     4   9  19  36  56  76 103 139 177 213 259 306
#     4  11  20  36  51  80 108 134 177 208 265 306
#     4  10  24  30  52  82 106 142 164 212 264 318
#     4   9  19  36  56  76 103 139 177 213 259 306
#     4   9  19  36  55  76 107 141 170 213 261 312
#     4   9  19  36  55  76 107 141 170 213 261 312
#
# _framework density 20.066980999999998
#
# number of rings (size 3 to 8) (size 9 to 14) (size 15 to 20)
#    0.000    2.545    1.818    2.182    5.091    0.000 
#    3.273    2.727    0.000    4.364    0.000    0.000 
#    0.000    0.000    0.000    0.000    0.000    0.000 
#
# Total GULP energy -245438.619176 kJ/mol
# GULP energy per Si atom -5578.150436 kJ/mol
# Density = 2.002131 g / cm^3
# Si number density = 20.066981 Si / 1000 Ang^3
#
#
#
# Elastic Constant Matrix: (Units=GPa)
#
#
# Indices 1 2 3 4 5 6 
#
# 1 29.7332 6.8551 -10.0335 0.0000 0.0000 0.0000
# 2 6.8551 80.6657 0.2752 0.0000 0.0000 0.0000
# 3 -10.0335 0.2752 23.8134 0.0000 0.0000 0.0000
# 4 0.0000 0.0000 0.0000 10.0215 0.0000 0.0000
# 5 0.0000 0.0000 0.0000 0.0000 29.2870 0.0000
# 6 0.0000 0.0000 0.0000 0.0000 0.0000 18.9102
#
#
#
# Elastic Compliance Matrix: (Units=1/GPa)
#
#
# Indices 1 2 3 4 5 6 
#
# 1 0.040155 -0.003470 0.016959 0.000000 0.000000 0.000000
# 2 -0.003470 0.012697 -0.001609 0.000000 0.000000 0.000000
# 3 0.016959 -0.001609 0.049157 0.000000 0.000000 0.000000
# 4 0.000000 0.000000 0.000000 0.099785 0.000000 0.000000
# 5 0.000000 0.000000 0.000000 0.000000 0.034145 0.000000
# 6 0.000000 0.000000 0.000000 0.000000 0.000000 0.052881
#
#
# Mechanical properties :
#
#
# Convention : Reuss Voigt Hill
#
# Bulk Modulus (GPa) = 7.95104 14.26733 11.10918
# Shear Modulus (GPa) = 16.28742 20.78477 18.53610
#
# Velocity S-wave (km/s) = 2.85204 3.22183 3.04256
# Velocity P-wave (km/s) = 3.84921 4.57881 4.22977
#
# Compressibility (1/GPa) = 0.12576977
#
# Stress axis : x y z
#
# Youngs Moduli (GPa) = 24.90322 78.75716 20.34283
#
# Poissons Ratio (x) = 0.27332 -0.34500
# Poissons Ratio (y) = 0.08642 0.03273
# Poissons Ratio (z) = -0.42234 0.12672
#
# Static dielectric constant tensor:
#      x y z
#    x 1.713720 0.000000 0.000000 
#    y 0.000000 1.729180 0.000000 
#    z 0.000000 0.000000 1.767660 
# 
# From -- ./inp_files/3324.got.cif
#   From: 2010.05.17/outbox.cif.g08.bks.cpg/sg56_2_cif.got.tgz:3324.got - 2010.06.03 13:42:01.
