data_PCOD9432812
_publ_section_title
;
Structure prediction by ZEFSAII (Michael W. Deem and Ramdas Pophale) SiO2 
 PCOD9432812
Probable space group: P C C N
;
_chemical_formula_sum "Si O2"
_cell_formula_units_Z 60
_cell_length_a 16.107383
_cell_length_b 25.550444
_cell_length_c 8.108359
_cell_angle_alpha 90.000000
_cell_angle_beta 90.000000
_cell_angle_gamma 90.000000
_cell_volume 3337.001530
_symmetry_space_group_name_H-M "P C C N"
_symmetry_group_IT_number 56
_symmetry_cell_setting 'orthorhombic'
loop_
_space_group_symop_operation_xyz
x,y,z
1/2-x,1/2-y,z
1/2+x,-y,1/2-z
-x,1/2+y,1/2-z
-x,-y,-z
1/2+x,1/2+y,-z
1/2-x,y,1/2+z
x,1/2-y,1/2+z
loop_
_atom_site_type_symbol
_atom_site_label
_atom_site_fract_x
_atom_site_fract_y
_atom_site_fract_z
Si Si1 0.674603 0.909912 0.497108
Si Si2 0.275674 0.529095 0.944954
Si Si3 0.577268 0.060048 0.362717
Si Si4 0.433530 0.091178 0.165411
Si Si5 0.823800 0.672074 0.983654
Si Si6 0.117389 0.527939 0.109518
Si Si7 0.250000 0.250000 0.768374
Si Si8 0.029397 0.060074 0.198080
O O1 0.623306 0.903686 0.667610
O O2 0.747073 0.868367 0.487244
O O3 0.612172 0.906959 0.339969
O O4 0.713154 0.968251 0.501891
O O5 0.322040 0.532262 0.769833
O O6 0.328820 0.563542 0.074728
O O7 0.178237 0.541309 0.958655
O O8 0.528212 0.093696 0.228191
O O9 0.525322 0.067112 0.532866
O O10 0.559787 0.000069 0.309422
O O11 0.404113 0.136412 0.043156
O O12 0.411745 0.032653 0.100675
O O13 0.808263 0.711133 0.832644
O O14 0.811334 0.711586 0.133444
O O15 0.036096 0.562383 0.152091
#
# Coordination Sequence:
#
# PCOD9432812 Si02
#       8
#     8   8   8   8   8   8   4   8
#     4   9  15  25  43  57  72 105 142 163 188 238
#     4   9  15  23  38  59  81 105 134 164 189 221
#     4   7  12  22  36  56  76  99 135 167 183 215
#     4   9  15  25  43  57  72 105 142 163 188 238
#     4  11  18  32  42  58  76 106 132 170 202 245
#     4   9  15  23  38  59  81 105 134 164 189 221
#     4  10  24  30  40  58  80  94 134 178 220 222
#     4   7  12  22  36  56  76  99 135 167 183 215
#
# _framework density 17.980212999999999
#
# number of rings (size 3 to 8) (size 9 to 14) (size 15 to 20)
#    0.000    3.200    2.667    3.200    0.000    0.000 
#    0.000    0.000    2.933    2.400    0.000    0.000 
#    0.000    0.000    0.000    7.200    0.000    0.000 
#
# Total GULP energy -334389.575315 kJ/mol
# GULP energy per Si atom -5573.159589 kJ/mol
# Density = 1.793929 g / cm^3
# Si number density = 17.980213 Si / 1000 Ang^3
#
#
#
# Elastic Constant Matrix: (Units=GPa)
#
#
# Indices 1 2 3 4 5 6 
#
# 1 79.4998 18.1397 17.4795 0.0000 0.0000 0.0000
# 2 18.1397 43.4014 8.4365 0.0000 0.0000 0.0000
# 3 17.4795 8.4365 53.6072 0.0000 0.0000 0.0000
# 4 0.0000 0.0000 0.0000 17.8089 0.0000 0.0000
# 5 0.0000 0.0000 0.0000 0.0000 -424.4267 0.0000
# 6 0.0000 0.0000 0.0000 0.0000 0.0000 17.9379
#
#
#
# Elastic Compliance Matrix: (Units=1/GPa)
#
#
# Indices 1 2 3 4 5 6 
#
# 1 0.014669 -0.005365 -0.003939 0.000000 0.000000 0.000000
# 2 -0.005365 0.025730 -0.002300 0.000000 0.000000 0.000000
# 3 -0.003939 -0.002300 0.020300 0.000000 0.000000 0.000000
# 4 0.000000 0.000000 0.000000 0.056152 0.000000 0.000000
# 5 0.000000 0.000000 0.000000 0.000000 -0.002356 0.000000
# 6 0.000000 0.000000 0.000000 0.000000 0.000000 0.055748
#
#
# Mechanical properties :
#
#
# Convention : Reuss Voigt Hill
#
# Bulk Modulus (GPa) = 26.67247 29.40222 28.03734
# Shear Modulus (GPa) = 24.27799 -68.90579 -22.31390
#
# Velocity S-wave (km/s) = 3.67858 -6.19728 -3.52664
# Velocity P-wave (km/s) = 5.73665 5.90088 0.97756
#
# Compressibility (1/GPa) = 0.03749184
#
# Stress axis : x y z
#
# Youngs Moduli (GPa) = 68.17172 38.86479 49.26008
#
# Poissons Ratio (x) = 0.20852 0.19402
# Poissons Ratio (y) = 0.36576 0.11329
# Poissons Ratio (z) = 0.26850 0.08939
#
# Static dielectric constant tensor:
#      x y z
#    x 1.677350 0.000000 0.000000 
#    y 0.000000 1.550050 0.000000 
#    z 0.000000 0.000000 1.758250 
# 
# From -- ./inp_files/3751.got.cif
#   From: 2010.05.17/outbox.cif.g08.bks.cpg/sg56_2_cif.got.tgz:3751.got - 2010.06.03 13:42:01.
