data_PCOD9432316
_publ_section_title
;
Structure prediction by ZEFSAII (Michael W. Deem and Ramdas Pophale) SiO2 
 PCOD9432316
Probable space group: P C C N
;
_chemical_formula_sum "Si O2"
_cell_formula_units_Z 28
_cell_length_a 11.111718
_cell_length_b 6.802963
_cell_length_c 17.548570
_cell_angle_alpha 90.000000
_cell_angle_beta 90.000000
_cell_angle_gamma 90.000000
_cell_volume 1326.542145
_symmetry_space_group_name_H-M "P C C N"
_symmetry_group_IT_number 56
_symmetry_cell_setting 'orthorhombic'
loop_
_space_group_symop_operation_xyz
x,y,z
1/2-x,1/2-y,z
1/2+x,-y,1/2-z
-x,1/2+y,1/2-z
-x,-y,-z
1/2+x,1/2+y,-z
1/2-x,y,1/2+z
x,1/2-y,1/2+z
loop_
_atom_site_type_symbol
_atom_site_label
_atom_site_fract_x
_atom_site_fract_y
_atom_site_fract_z
Si Si1 0.480457 0.411477 0.917384
Si Si2 0.075910 0.196775 0.211304
Si Si3 0.123906 0.639603 0.170355
Si Si4 0.250000 0.250000 0.339943
O O1 0.548808 0.553977 0.857961
O O2 0.546765 0.203568 0.903498
O O3 0.342401 0.378101 0.890263
O O4 0.500000 0.500000 0.000000
O O5 0.164698 0.132887 0.280290
O O6 0.950176 0.217199 0.256252
O O7 0.375826 0.094939 0.180343
O O8 0.250000 0.750000 0.166284
#
# Coordination Sequence:
#
# PCOD9432316 Si02
#       4
#     8   8   8   4
#     4  11  26  44  68 108 148 183 236 307 374 426
#     4  11  22  41  70 102 134 186 248 292 354 432
#     4  11  23  40  71 101 134 188 243 289 353 434
#     4  10  22  42  72 102 136 192 242 290 346 440
#
# _framework density 21.107510000000001
#
# number of rings (size 3 to 8) (size 9 to 14) (size 15 to 20)
#    0.000    1.143    5.714    1.714    4.000    4.571 
#    0.000    4.286    0.000    0.000    0.000    0.000 
#    0.000    0.000    0.000    0.000    0.000    0.000 
#
# Total GULP energy -156221.659860 kJ/mol
# GULP energy per Si atom -5579.344995 kJ/mol
# Density = 2.105947 g / cm^3
# Si number density = 21.107510 Si / 1000 Ang^3
#
#
#
# Elastic Constant Matrix: (Units=GPa)
#
#
# Indices 1 2 3 4 5 6 
#
# 1 146.4268 40.9940 56.8455 0.0000 0.0000 0.0000
# 2 40.9940 95.3097 41.7086 0.0000 0.0000 0.0000
# 3 56.8455 41.7086 164.5125 0.0000 0.0000 0.0000
# 4 0.0000 0.0000 0.0000 29.0462 0.0000 0.0000
# 5 0.0000 0.0000 0.0000 0.0000 23.7454 0.0000
# 6 0.0000 0.0000 0.0000 0.0000 0.0000 22.0068
#
#
#
# Elastic Compliance Matrix: (Units=1/GPa)
#
#
# Indices 1 2 3 4 5 6 
#
# 1 0.008443 -0.002649 -0.002246 0.000000 0.000000 0.000000
# 2 -0.002649 0.012632 -0.002287 0.000000 0.000000 0.000000
# 3 -0.002246 -0.002287 0.007435 0.000000 0.000000 0.000000
# 4 0.000000 0.000000 0.000000 0.034428 0.000000 0.000000
# 5 0.000000 0.000000 0.000000 0.000000 0.042113 0.000000
# 6 0.000000 0.000000 0.000000 0.000000 0.000000 0.045440
#
#
# Mechanical properties :
#
#
# Convention : Reuss Voigt Hill
#
# Bulk Modulus (GPa) = 70.69188 76.14946 73.42067
# Shear Modulus (GPa) = 29.48631 32.73974 31.11302
#
# Velocity S-wave (km/s) = 3.74165 3.94267 3.84347
# Velocity P-wave (km/s) = 7.22707 7.54198 7.38620
#
# Compressibility (1/GPa) = 0.01414590
#
# Stress axis : x y z
#
# Youngs Moduli (GPa) = 118.44549 79.16213 134.50765
#
# Poissons Ratio (x) = 0.20966 0.30208
# Poissons Ratio (y) = 0.31371 0.30768
# Poissons Ratio (z) = 0.26601 0.18108
#
# Static dielectric constant tensor:
#      x y z
#    x 1.842770 0.000000 0.000000 
#    y 0.000000 1.882160 0.000000 
#    z 0.000000 0.000000 1.738540 
# 
# From -- ./inp_files/11173.got.cif
#   From: 2010.05.17/outbox.cif.g08.bks.cpg/sg56_6_cif.got.tgz:11173.got - 2010.06.03 13:42:01.
