data_PCOD9432708
_publ_section_title
;
Structure prediction by ZEFSAII (Michael W. Deem and Ramdas Pophale) SiO2 
 PCOD9432708
Probable space group: P C C N
;
_chemical_formula_sum "Si O2"
_cell_formula_units_Z 60
_cell_length_a 22.801808
_cell_length_b 5.584221
_cell_length_c 19.516865
_cell_angle_alpha 90.000000
_cell_angle_beta 90.000000
_cell_angle_gamma 90.000000
_cell_volume 2485.088960
_symmetry_space_group_name_H-M "P C C N"
_symmetry_group_IT_number 56
_symmetry_cell_setting 'orthorhombic'
loop_
_space_group_symop_operation_xyz
x,y,z
1/2-x,1/2-y,z
1/2+x,-y,1/2-z
-x,1/2+y,1/2-z
-x,-y,-z
1/2+x,1/2+y,-z
1/2-x,y,1/2+z
x,1/2-y,1/2+z
loop_
_atom_site_type_symbol
_atom_site_label
_atom_site_fract_x
_atom_site_fract_y
_atom_site_fract_z
Si Si1 0.750000 0.250000 0.131673
Si Si2 0.960328 0.206657 0.531275
Si Si3 0.838752 0.972392 0.541983
Si Si4 0.903252 0.697652 0.156585
Si Si5 0.693000 0.569307 0.241873
Si Si6 0.962738 0.365773 0.251088
Si Si7 0.523926 0.058552 0.391026
Si Si8 0.285628 0.999027 0.103157
O O1 0.717850 0.068060 0.080974
O O2 0.705659 0.370908 0.184741
O O3 0.895476 0.138127 0.551650
O O4 0.998496 0.297174 0.595004
O O5 0.952399 0.379674 0.465868
O O6 0.000000 0.000000 0.500000
O O7 0.828513 0.958072 0.461412
O O8 0.860772 0.759969 0.590993
O O9 0.868427 0.817827 0.219023
O O10 0.918435 0.440622 0.191522
O O11 0.965222 0.794111 0.128915
O O12 0.750000 0.750000 0.237738
O O13 0.689729 0.478343 0.319824
O O14 0.992038 0.100547 0.246531
O O15 0.934596 0.392609 0.327139
O O16 0.250000 0.750000 0.089822
O O17 0.250000 0.250000 0.103750
#
# Coordination Sequence:
#
# PCOD9432708 Si02
#       8
#     4   8   8   8   8   8   8   8
#     4  12  24  44  78  98 140 188 250 312 358 438
#     4  11  23  43  68 101 144 187 239 296 364 437
#     4  12  25  44  75 107 142 196 248 301 371 445
#     4  11  23  44  73 108 139 192 247 305 363 443
#     4  11  24  46  69 102 143 187 239 307 368 426
#     4  10  23  44  69 102 143 184 238 301 357 428
#     4  10  23  44  69 100 146 188 241 298 363 438
#     4  11  27  51  71 104 149 189 240 303 373 442
#
# _framework density 24.144005
#
# number of rings (size 3 to 8) (size 9 to 14) (size 15 to 20)
#    0.000    1.067    4.000    1.600    3.733    3.200 
#   12.000    0.000    0.000    0.000    0.000    0.000 
#    0.000    0.000    0.000    0.000    0.000    0.000 
#
# Total GULP energy -334501.145634 kJ/mol
# GULP energy per Si atom -5575.019094 kJ/mol
# Density = 2.408905 g / cm^3
# Si number density = 24.144005 Si / 1000 Ang^3
#
#
#
# Elastic Constant Matrix: (Units=GPa)
#
#
# Indices 1 2 3 4 5 6 
#
# 1 58.4604 9.1734 25.3298 0.0000 0.0000 0.0000
# 2 9.1734 58.3870 -4.4593 0.0000 0.0000 0.0000
# 3 25.3298 -4.4593 150.2696 0.0000 0.0000 0.0000
# 4 0.0000 0.0000 0.0000 39.4227 0.0000 0.0000
# 5 0.0000 0.0000 0.0000 0.0000 29.4073 0.0000
# 6 0.0000 0.0000 0.0000 0.0000 0.0000 34.6470
#
#
#
# Elastic Compliance Matrix: (Units=1/GPa)
#
#
# Indices 1 2 3 4 5 6 
#
# 1 0.019048 -0.003245 -0.003307 0.000000 0.000000 0.000000
# 2 -0.003245 0.017719 0.001073 0.000000 0.000000 0.000000
# 3 -0.003307 0.001073 0.007244 0.000000 0.000000 0.000000
# 4 0.000000 0.000000 0.000000 0.025366 0.000000 0.000000
# 5 0.000000 0.000000 0.000000 0.000000 0.034005 0.000000
# 6 0.000000 0.000000 0.000000 0.000000 0.000000 0.028863
#
#
# Mechanical properties :
#
#
# Convention : Reuss Voigt Hill
#
# Bulk Modulus (GPa) = 30.25561 36.35611 33.30586
# Shear Modulus (GPa) = 32.42112 36.50028 34.46070
#
# Velocity S-wave (km/s) = 3.66843 3.89237 3.78206
# Velocity P-wave (km/s) = 5.52283 5.94066 5.73555
#
# Compressibility (1/GPa) = 0.03305172
#
# Stress axis : x y z
#
# Youngs Moduli (GPa) = 52.49982 56.43693 138.04561
#
# Poissons Ratio (x) = 0.18315 0.45652
# Poissons Ratio (y) = 0.17037 -0.14810
# Poissons Ratio (z) = 0.17362 -0.06055
#
# Static dielectric constant tensor:
#      x y z
#    x 1.942590 0.000000 0.000000 
#    y 0.000000 2.095030 0.000000 
#    z 0.000000 0.000000 1.856120 
# 
# From -- ./inp_files/17057.got.cif
#   From: 2010.05.17/outbox.cif.g08.bks.cpg/sg56_9_cif.got.tgz:17057.got - 2010.06.03 13:42:01.
