data_PCOD9432623
_publ_section_title
;
Structure prediction by ZEFSAII (Michael W. Deem and Ramdas Pophale) SiO2 
 PCOD9432623
Probable space group: P C C N
;
_chemical_formula_sum "Si O2"
_cell_formula_units_Z 40
_cell_length_a 11.723727
_cell_length_b 17.550064
_cell_length_c 9.126611
_cell_angle_alpha 90.000000
_cell_angle_beta 90.000000
_cell_angle_gamma 90.000000
_cell_volume 1877.819919
_symmetry_space_group_name_H-M "P C C N"
_symmetry_group_IT_number 56
_symmetry_cell_setting 'orthorhombic'
loop_
_space_group_symop_operation_xyz
x,y,z
1/2-x,1/2-y,z
1/2+x,-y,1/2-z
-x,1/2+y,1/2-z
-x,-y,-z
1/2+x,1/2+y,-z
1/2-x,y,1/2+z
x,1/2-y,1/2+z
loop_
_atom_site_type_symbol
_atom_site_label
_atom_site_fract_x
_atom_site_fract_y
_atom_site_fract_z
Si Si1 0.044430 0.424360 0.658988
Si Si2 0.440567 0.152740 0.169211
Si Si3 0.898203 0.033328 0.600922
Si Si4 0.376775 0.217199 0.856396
Si Si5 0.154383 0.025286 0.870040
O O1 0.092212 0.500122 0.735819
O O2 0.088710 0.354554 0.755119
O O3 0.089640 0.427094 0.495656
O O4 0.910842 0.445685 0.662955
O O5 0.562628 0.119938 0.116491
O O6 0.454095 0.214011 0.297783
O O7 0.360696 0.083321 0.232098
O O8 0.387278 0.192099 0.025041
O O9 0.775142 0.000509 0.563396
O O10 0.000000 0.000000 0.500000
O O11 0.250000 0.250000 0.830438
#
# Coordination Sequence:
#
# PCOD9432623 Si02
#       5
#     8   8   8   8   8
#     4  10  23  42  67 100 132 177 225 280 344 405
#     4  11  25  41  65 101 135 181 221 279 349 403
#     4  11  23  39  68  99 135 180 231 278 340 405
#     4  12  24  39  65  97 141 173 220 279 346 404
#     4  10  24  43  69  98 135 174 234 283 338 412
#
# _framework density 21.301296000000001
#
# number of rings (size 3 to 8) (size 9 to 14) (size 15 to 20)
#    0.000    1.200    2.000    3.000    8.400    0.000 
#    0.000    2.000    0.000    2.400    0.000    0.000 
#    0.000    0.000    0.000    0.000    0.000    0.000 
#
# Total GULP energy -222937.926011 kJ/mol
# GULP energy per Si atom -5573.448150 kJ/mol
# Density = 2.125281 g / cm^3
# Si number density = 21.301296 Si / 1000 Ang^3
#
#
#
# Elastic Constant Matrix: (Units=GPa)
#
#
# Indices 1 2 3 4 5 6 
#
# 1 88.3991 56.4300 36.6049 0.0000 0.0000 0.0000
# 2 56.4300 102.3095 57.1297 0.0000 0.0000 0.0000
# 3 36.6049 57.1297 128.9721 0.0000 0.0000 0.0000
# 4 0.0000 0.0000 0.0000 45.7613 0.0000 0.0000
# 5 0.0000 0.0000 0.0000 0.0000 26.7687 0.0000
# 6 0.0000 0.0000 0.0000 0.0000 0.0000 36.3441
#
#
#
# Elastic Compliance Matrix: (Units=1/GPa)
#
#
# Indices 1 2 3 4 5 6 
#
# 1 0.017542 -0.009161 -0.000921 0.000000 0.000000 0.000000
# 2 -0.009161 0.017771 -0.005272 0.000000 0.000000 0.000000
# 3 -0.000921 -0.005272 0.010350 0.000000 0.000000 0.000000
# 4 0.000000 0.000000 0.000000 0.021853 0.000000 0.000000
# 5 0.000000 0.000000 0.000000 0.000000 0.037357 0.000000
# 6 0.000000 0.000000 0.000000 0.000000 0.000000 0.027515
#
#
# Mechanical properties :
#
#
# Convention : Reuss Voigt Hill
#
# Bulk Modulus (GPa) = 66.86463 68.89000 67.87731
# Shear Modulus (GPa) = 29.74783 33.07588 31.41185
#
# Velocity S-wave (km/s) = 3.74107 3.94479 3.84428
# Velocity P-wave (km/s) = 7.07947 7.29105 7.18604
#
# Compressibility (1/GPa) = 0.01495559
#
# Stress axis : x y z
#
# Youngs Moduli (GPa) = 57.00711 56.27148 96.61774
#
# Poissons Ratio (x) = 0.51552 0.08895
# Poissons Ratio (y) = 0.52226 0.50934
# Poissons Ratio (z) = 0.05248 0.29665
#
# Static dielectric constant tensor:
#      x y z
#    x 1.982250 0.000000 0.000000 
#    y 0.000000 1.828780 0.000000 
#    z 0.000000 0.000000 1.803050 
# 
# From -- ./inp_files/2596.got.cif
#   From: 2010.05.17/outbox.cif.g08.bks.cpg/sg56_2_cif.got.tgz:2596.got - 2010.06.03 13:42:01.
