data_PCOD9432991
_publ_section_title
;
Structure prediction by ZEFSAII (Michael W. Deem and Ramdas Pophale) SiO2 
 PCOD9432991
Probable space group: P C C N
;
_chemical_formula_sum "Si O2"
_cell_formula_units_Z 36
_cell_length_a 7.512939
_cell_length_b 18.235408
_cell_length_c 9.756253
_cell_angle_alpha 90.000000
_cell_angle_beta 90.000000
_cell_angle_gamma 90.000000
_cell_volume 1336.621373
_symmetry_space_group_name_H-M "P C C N"
_symmetry_group_IT_number 56
_symmetry_cell_setting 'orthorhombic'
loop_
_space_group_symop_operation_xyz
x,y,z
1/2-x,1/2-y,z
1/2+x,-y,1/2-z
-x,1/2+y,1/2-z
-x,-y,-z
1/2+x,1/2+y,-z
1/2-x,y,1/2+z
x,1/2-y,1/2+z
loop_
_atom_site_type_symbol
_atom_site_label
_atom_site_fract_x
_atom_site_fract_y
_atom_site_fract_z
Si Si1 0.442141 0.157909 0.577945
Si Si2 0.250000 0.750000 0.311977
Si Si3 0.770110 0.953249 0.728170
Si Si4 0.779107 0.108132 0.874920
Si Si5 0.086200 0.393308 0.033492
O O1 0.571652 0.225892 0.607246
O O2 0.414250 0.105353 0.710391
O O3 0.788927 0.179891 0.780943
O O4 0.240024 0.169219 0.526148
O O5 0.451555 0.891201 0.529450
O O6 0.818110 0.953017 0.568186
O O7 0.768240 0.033649 0.790298
O O8 0.599587 0.918832 0.808700
O O9 0.608275 0.118702 0.975701
#
# Coordination Sequence:
#
# PCOD9432991 Si02
#       5
#     8   4   8   8   8
#     4  10  26  47  74 113 158 205 263 334 398 486
#     4  12  26  50  74 112 166 216 268 326 414 482
#     4  10  24  45  81 119 154 202 270 338 400 477
#     4  12  24  46  78 111 165 210 265 331 412 484
#     4  10  24  47  76 124 151 206 267 335 400 484
#
# _framework density 26.933582000000001
#
# number of rings (size 3 to 8) (size 9 to 14) (size 15 to 20)
#    1.333    0.000    2.222    2.000    6.222    1.778 
#    0.000    6.667    0.000    0.000    0.000    0.000 
#    0.000    0.000    0.000    0.000    0.000    0.000 
#
# Total GULP energy -201343.963066 kJ/mol
# GULP energy per Si atom -5592.887863 kJ/mol
# Density = 2.687228 g / cm^3
# Si number density = 26.933582 Si / 1000 Ang^3
#
#
#
# Elastic Constant Matrix: (Units=GPa)
#
#
# Indices 1 2 3 4 5 6 
#
# 1 193.2405 39.4694 26.5080 0.0000 0.0000 0.0000
# 2 39.4694 137.4660 6.8293 0.0000 0.0000 0.0000
# 3 26.5080 6.8293 106.1057 0.0000 0.0000 0.0000
# 4 0.0000 0.0000 0.0000 45.9260 0.0000 0.0000
# 5 0.0000 0.0000 0.0000 0.0000 64.8013 0.0000
# 6 0.0000 0.0000 0.0000 0.0000 0.0000 17.4514
#
#
#
# Elastic Compliance Matrix: (Units=1/GPa)
#
#
# Indices 1 2 3 4 5 6 
#
# 1 0.005675 -0.001564 -0.001317 0.000000 0.000000 0.000000
# 2 -0.001564 0.007729 -0.000107 0.000000 0.000000 0.000000
# 3 -0.001317 -0.000107 0.009760 0.000000 0.000000 0.000000
# 4 0.000000 0.000000 0.000000 0.021774 0.000000 0.000000
# 5 0.000000 0.000000 0.000000 0.000000 0.015432 0.000000
# 6 0.000000 0.000000 0.000000 0.000000 0.000000 0.057302
#
#
# Mechanical properties :
#
#
# Convention : Reuss Voigt Hill
#
# Bulk Modulus (GPa) = 58.17760 64.71395 61.44577
# Shear Modulus (GPa) = 38.64656 49.90276 44.27466
#
# Velocity S-wave (km/s) = 3.79210 4.30910 4.05884
# Velocity P-wave (km/s) = 6.38910 6.98836 6.69544
#
# Compressibility (1/GPa) = 0.01718875
#
# Stress axis : x y z
#
# Youngs Moduli (GPa) = 176.21084 129.38478 102.45392
#
# Poissons Ratio (x) = 0.20236 0.13494
# Poissons Ratio (y) = 0.27559 0.01093
# Poissons Ratio (z) = 0.23209 0.01381
#
# Static dielectric constant tensor:
#      x y z
#    x 2.187250 0.000000 0.000000 
#    y 0.000000 2.121940 0.000000 
#    z 0.000000 0.000000 2.103200 
# 
# From -- ./inp_files/6265.got.cif
#   From: 2010.05.17/outbox.cif.g08.bks.cpg/sg56_4_cif.got.tgz:6265.got - 2010.06.03 13:42:01.
