data_PCOD9432591
_publ_section_title
;
Structure prediction by ZEFSAII (Michael W. Deem and Ramdas Pophale) SiO2 
 PCOD9432591
Probable space group: P C C N
;
_chemical_formula_sum "Si O2"
_cell_formula_units_Z 28
_cell_length_a 9.014561
_cell_length_b 12.357929
_cell_length_c 13.114507
_cell_angle_alpha 90.000000
_cell_angle_beta 90.000000
_cell_angle_gamma 90.000000
_cell_volume 1460.973192
_symmetry_space_group_name_H-M "P C C N"
_symmetry_group_IT_number 56
_symmetry_cell_setting 'orthorhombic'
loop_
_space_group_symop_operation_xyz
x,y,z
1/2-x,1/2-y,z
1/2+x,-y,1/2-z
-x,1/2+y,1/2-z
-x,-y,-z
1/2+x,1/2+y,-z
1/2-x,y,1/2+z
x,1/2-y,1/2+z
loop_
_atom_site_type_symbol
_atom_site_label
_atom_site_fract_x
_atom_site_fract_y
_atom_site_fract_z
Si Si1 0.201959 0.864697 0.788234
Si Si2 0.395917 0.434259 0.274939
Si Si3 0.250000 0.250000 0.913337
Si Si4 0.537190 0.613231 0.945502
O O1 0.250000 0.750000 0.744585
O O2 0.073785 0.921579 0.720756
O O3 0.115247 0.844074 0.894755
O O4 0.335751 0.947625 0.801034
O O5 0.318116 0.344628 0.343802
O O6 0.364496 0.410913 0.155285
O O7 0.377838 0.304844 0.981675
O O8 0.500000 0.500000 0.000000
#
# Coordination Sequence:
#
# PCOD9432591 Si02
#       4
#     8   8   4   8
#     4  10  24  44  67 100 137 175 226 280 341 407
#     4  10  24  41  69  94 139 176 227 275 349 389
#     4  12  20  44  68 100 134 188 220 294 330 414
#     4  10  23  41  66  98 139 171 232 274 340 410
#
# _framework density 19.165306999999999
#
# number of rings (size 3 to 8) (size 9 to 14) (size 15 to 20)
#    1.714    0.000    2.857    0.857    8.000    0.000 
#    5.143    2.857    0.000    0.000    0.000    0.000 
#    0.000    0.000    0.000    0.000    0.000    0.000 
#
# Total GULP energy -155955.389867 kJ/mol
# GULP energy per Si atom -5569.835352 kJ/mol
# Density = 1.912169 g / cm^3
# Si number density = 19.165307 Si / 1000 Ang^3
#
#
#
# Elastic Constant Matrix: (Units=GPa)
#
#
# Indices 1 2 3 4 5 6 
#
# 1 103.4923 68.4503 22.8706 0.0000 0.0000 0.0000
# 2 68.4503 144.9743 34.2366 0.0000 0.0000 0.0000
# 3 22.8706 34.2366 90.3176 0.0000 0.0000 0.0000
# 4 0.0000 0.0000 0.0000 8.9712 0.0000 0.0000
# 5 0.0000 0.0000 0.0000 0.0000 -7.3324 0.0000
# 6 0.0000 0.0000 0.0000 0.0000 0.0000 41.6183
#
#
#
# Elastic Compliance Matrix: (Units=1/GPa)
#
#
# Indices 1 2 3 4 5 6 
#
# 1 0.014159 -0.006413 -0.001155 0.000000 0.000000 0.000000
# 2 -0.006413 0.010480 -0.002349 0.000000 0.000000 0.000000
# 3 -0.001155 -0.002349 0.012255 0.000000 0.000000 0.000000
# 4 0.000000 0.000000 0.000000 0.111468 0.000000 0.000000
# 5 0.000000 0.000000 0.000000 0.000000 -0.136381 0.000000
# 6 0.000000 0.000000 0.000000 0.000000 0.000000 0.024028
#
#
# Mechanical properties :
#
#
# Convention : Reuss Voigt Hill
#
# Bulk Modulus (GPa) = 58.61018 65.54434 62.07726
# Shear Modulus (GPa) = 81.26396 22.86655 52.06525
#
# Velocity S-wave (km/s) = 6.51871 3.45791 5.21779
# Velocity P-wave (km/s) = 9.34377 7.08636 8.29224
#
# Compressibility (1/GPa) = 0.01706188
#
# Stress axis : x y z
#
# Youngs Moduli (GPa) = 70.62640 95.41789 81.60064
#
# Poissons Ratio (x) = 0.61188 0.09422
# Poissons Ratio (y) = 0.45290 0.19167
# Poissons Ratio (z) = 0.08154 0.22413
#
# Static dielectric constant tensor:
#      x y z
#    x 1.659980 0.000000 0.000000 
#    y 0.000000 1.640290 0.000000 
#    z 0.000000 0.000000 1.690490 
# 
# From -- ./inp_files/9986.got.cif
#   From: 2010.05.17/outbox.cif.g08.bks.cpg/sg56_5_cif.got.tgz:9986.got - 2010.06.03 13:42:01.
