data_PCOD9432746
_publ_section_title
;
Structure prediction by ZEFSAII (Michael W. Deem and Ramdas Pophale) SiO2 
 PCOD9432746
Probable space group: P C C N
;
_chemical_formula_sum "Si O2"
_cell_formula_units_Z 56
_cell_length_a 14.474582
_cell_length_b 18.483409
_cell_length_c 9.162673
_cell_angle_alpha 90.000000
_cell_angle_beta 90.000000
_cell_angle_gamma 90.000000
_cell_volume 2451.378045
_symmetry_space_group_name_H-M "P C C N"
_symmetry_group_IT_number 56
_symmetry_cell_setting 'orthorhombic'
loop_
_space_group_symop_operation_xyz
x,y,z
1/2-x,1/2-y,z
1/2+x,-y,1/2-z
-x,1/2+y,1/2-z
-x,-y,-z
1/2+x,1/2+y,-z
1/2-x,y,1/2+z
x,1/2-y,1/2+z
loop_
_atom_site_type_symbol
_atom_site_label
_atom_site_fract_x
_atom_site_fract_y
_atom_site_fract_z
Si Si1 0.436299 0.229350 0.533391
Si Si2 0.688489 0.035471 0.717915
Si Si3 0.639744 0.622263 0.179678
Si Si4 0.250000 0.750000 0.095259
Si Si5 0.550136 0.613337 0.500374
Si Si6 0.125355 0.817369 0.847084
Si Si7 0.362160 0.532611 0.450456
Si Si8 0.750000 0.750000 0.281359
O O1 0.431140 0.160118 0.428981
O O2 0.442891 0.304918 0.444333
O O3 0.528270 0.222198 0.629263
O O4 0.340788 0.232438 0.623597
O O5 0.616176 0.096498 0.670599
O O6 0.789480 0.059485 0.666768
O O7 0.669530 0.958482 0.642247
O O8 0.684919 0.026552 0.891232
O O9 0.597390 0.617252 0.341180
O O10 0.724009 0.679230 0.188286
O O11 0.320438 0.791156 0.202767
O O12 0.189612 0.799715 0.986967
O O13 0.446343 0.587322 0.472026
O O14 0.597883 0.547349 0.586554
#
# Coordination Sequence:
#
# PCOD9432746 Si02
#       8
#     8   8   8   4   8   8   8   4
#     4  11  25  42  72 101 140 186 239 294 348 428
#     4  11  25  42  69 105 139 185 230 293 362 420
#     4  10  24  42  66 101 141 183 238 287 360 417
#     4  10  26  48  70 104 140 188 236 290 360 420
#     4   9  23  44  65  98 134 188 229 286 357 426
#     4  11  26  45  73 104 142 184 236 296 355 433
#     4  10  23  45  70  98 140 181 235 288 357 428
#     4  10  24  44  66 104 140 192 240 298 352 418
#
# _framework density 22.844294000000001
#
# number of rings (size 3 to 8) (size 9 to 14) (size 15 to 20)
#    0.000    1.714    0.000    1.286   18.000    1.714 
#    5.143    0.000    0.000    0.000    0.000    0.000 
#    0.000    0.000    0.000    0.000    0.000    0.000 
#
# Total GULP energy -313323.608141 kJ/mol
# GULP energy per Si atom -5595.064431 kJ/mol
# Density = 2.279230 g / cm^3
# Si number density = 22.844294 Si / 1000 Ang^3
#
#
#
# Elastic Constant Matrix: (Units=GPa)
#
#
# Indices 1 2 3 4 5 6 
#
# 1 102.3059 22.1432 26.3642 0.0000 0.0000 0.0000
# 2 22.1432 116.5930 26.6385 0.0000 0.0000 0.0000
# 3 26.3642 26.6385 57.4353 0.0000 0.0000 0.0000
# 4 0.0000 0.0000 0.0000 12.9448 0.0000 0.0000
# 5 0.0000 0.0000 0.0000 0.0000 23.8027 0.0000
# 6 0.0000 0.0000 0.0000 0.0000 0.0000 27.0290
#
#
#
# Elastic Compliance Matrix: (Units=1/GPa)
#
#
# Indices 1 2 3 4 5 6 
#
# 1 0.011203 -0.001066 -0.004648 0.000000 0.000000 0.000000
# 2 -0.001066 0.009695 -0.004007 0.000000 0.000000 0.000000
# 3 -0.004648 -0.004007 0.021403 0.000000 0.000000 0.000000
# 4 0.000000 0.000000 0.000000 0.077251 0.000000 0.000000
# 5 0.000000 0.000000 0.000000 0.000000 0.042012 0.000000
# 6 0.000000 0.000000 0.000000 0.000000 0.000000 0.036997
#
#
# Mechanical properties :
#
#
# Convention : Reuss Voigt Hill
#
# Bulk Modulus (GPa) = 43.74711 47.40288 45.57499
# Shear Modulus (GPa) = 22.16080 26.16785 24.16433
#
# Velocity S-wave (km/s) = 3.11799 3.38818 3.25589
# Velocity P-wave (km/s) = 5.67047 6.00848 5.84192
#
# Compressibility (1/GPa) = 0.02285865
#
# Stress axis : x y z
#
# Youngs Moduli (GPa) = 89.26096 103.14816 46.72219
#
# Poissons Ratio (x) = 0.10992 0.21718
# Poissons Ratio (y) = 0.09512 0.18723
# Poissons Ratio (z) = 0.41491 0.41334
#
# Static dielectric constant tensor:
#      x y z
#    x 1.848170 0.000000 0.000000 
#    y 0.000000 1.906780 0.000000 
#    z 0.000000 0.000000 1.836390 
# 
# From -- ./inp_files/3616.got.cif
#   From: 2010.05.17/outbox.cif.g08.bks.cpg/sg56_2_cif.got.tgz:3616.got - 2010.06.03 13:42:01.
