data_PCOD9432766
_publ_section_title
;
Structure prediction by ZEFSAII (Michael W. Deem and Ramdas Pophale) SiO2 
 PCOD9432766
Probable space group: P C C N
;
_chemical_formula_sum "Si O2"
_cell_formula_units_Z 64
_cell_length_a 16.887509
_cell_length_b 12.926234
_cell_length_c 12.898754
_cell_angle_alpha 90.000000
_cell_angle_beta 90.000000
_cell_angle_gamma 90.000000
_cell_volume 2815.693428
_symmetry_space_group_name_H-M "P C C N"
_symmetry_group_IT_number 56
_symmetry_cell_setting 'orthorhombic'
loop_
_space_group_symop_operation_xyz
x,y,z
1/2-x,1/2-y,z
1/2+x,-y,1/2-z
-x,1/2+y,1/2-z
-x,-y,-z
1/2+x,1/2+y,-z
1/2-x,y,1/2+z
x,1/2-y,1/2+z
loop_
_atom_site_type_symbol
_atom_site_label
_atom_site_fract_x
_atom_site_fract_y
_atom_site_fract_z
Si Si1 0.553444 0.559402 0.771770
Si Si2 0.446293 0.773256 0.055805
Si Si3 0.721766 0.916704 0.606695
Si Si4 0.408763 0.898330 0.891555
Si Si5 0.751059 0.095424 0.238351
Si Si6 0.622932 0.707687 0.615387
Si Si7 0.415156 0.691572 0.795506
Si Si8 0.654803 0.426741 0.934705
O O1 0.547609 0.489038 0.668088
O O2 0.597974 0.661346 0.728159
O O3 0.468337 0.591272 0.813041
O O4 0.600575 0.496656 0.858270
O O5 0.542053 0.779776 0.050218
O O6 0.431194 0.772174 0.178789
O O7 0.397304 0.669466 0.023623
O O8 0.410280 0.882185 0.013447
O O9 0.665105 0.818296 0.616768
O O10 0.809611 0.873787 0.577982
O O11 0.725598 0.976438 0.716483
O O12 0.690238 0.999560 0.523111
O O13 0.322995 0.893309 0.839423
O O14 0.445226 0.786285 0.864378
O O15 0.822973 0.165853 0.202501
O O16 0.722507 0.113640 0.355324
#
# Coordination Sequence:
#
# PCOD9432766 Si02
#       8
#     8   8   8   8   8   8   8   8
#     4  10  23  46  68  96 140 174 227 283 339 412
#     4  11  25  43  72  99 134 180 227 286 338 418
#     4  11  24  45  68  98 138 178 221 286 342 411
#     4  11  23  44  64  97 140 168 224 284 336 400
#     4  11  24  44  64  99 137 174 226 282 342 406
#     4  10  24  47  66 101 137 175 232 278 345 405
#     4  11  24  40  69 100 130 180 224 278 347 407
#     4  11  24  44  69 100 134 179 234 278 339 417
#
# _framework density 22.729749000000002
#
# number of rings (size 3 to 8) (size 9 to 14) (size 15 to 20)
#    0.000    1.250    5.000    1.125    5.250    3.500 
#    4.500    0.000    0.000    0.000    0.000    0.000 
#    0.000    0.000    0.000    0.000    0.000    0.000 
#
# Total GULP energy -357337.001249 kJ/mol
# GULP energy per Si atom -5583.390645 kJ/mol
# Density = 2.267801 g / cm^3
# Si number density = 22.729749 Si / 1000 Ang^3
#
#
#
# Elastic Constant Matrix: (Units=GPa)
#
#
# Indices 1 2 3 4 5 6 
#
# 1 85.1618 18.4704 17.6397 0.0000 0.0000 0.0000
# 2 18.4704 76.0336 24.4290 0.0000 0.0000 0.0000
# 3 17.6397 24.4290 38.5698 0.0000 0.0000 0.0000
# 4 0.0000 0.0000 0.0000 35.8303 0.0000 0.0000
# 5 0.0000 0.0000 0.0000 0.0000 27.0197 0.0000
# 6 0.0000 0.0000 0.0000 0.0000 0.0000 26.3092
#
#
#
# Elastic Compliance Matrix: (Units=1/GPa)
#
#
# Indices 1 2 3 4 5 6 
#
# 1 0.013121 -0.001581 -0.004999 0.000000 0.000000 0.000000
# 2 -0.001581 0.016703 -0.009856 0.000000 0.000000 0.000000
# 3 -0.004999 -0.009856 0.034456 0.000000 0.000000 0.000000
# 4 0.000000 0.000000 0.000000 0.027909 0.000000 0.000000
# 5 0.000000 0.000000 0.000000 0.000000 0.037010 0.000000
# 6 0.000000 0.000000 0.000000 0.000000 0.000000 0.038010
#
#
# Mechanical properties :
#
#
# Convention : Reuss Voigt Hill
#
# Bulk Modulus (GPa) = 31.84031 35.64929 33.74480
# Shear Modulus (GPa) = 23.74733 27.11358 25.43046
#
# Velocity S-wave (km/s) = 3.23579 3.45754 3.34850
# Velocity P-wave (km/s) = 5.29142 5.62650 5.46153
#
# Compressibility (1/GPa) = 0.03140673
#
# Stress axis : x y z
#
# Youngs Moduli (GPa) = 76.21491 59.87010 29.02263
#
# Poissons Ratio (x) = 0.09466 0.14509
# Poissons Ratio (y) = 0.12051 0.28605
# Poissons Ratio (z) = 0.38102 0.59008
#
# Static dielectric constant tensor:
#      x y z
#    x 1.881950 0.000000 0.000000 
#    y 0.000000 1.945630 0.000000 
#    z 0.000000 0.000000 1.910540 
# 
# From -- ./inp_files/12850.got.cif
#   From: 2010.05.17/outbox.cif.g08.bks.cpg/sg56_7_cif.got.tgz:12850.got - 2010.06.03 13:42:01.
