data_PCOD9432237
_publ_section_title
;
Structure prediction by ZEFSAII (Michael W. Deem and Ramdas Pophale) SiO2 
 PCOD9432237
Probable space group: P C C N
;
_chemical_formula_sum "Si O2"
_cell_formula_units_Z 40
_cell_length_a 8.926027
_cell_length_b 11.009348
_cell_length_c 19.586658
_cell_angle_alpha 90.000000
_cell_angle_beta 90.000000
_cell_angle_gamma 90.000000
_cell_volume 1924.775740
_symmetry_space_group_name_H-M "P C C N"
_symmetry_group_IT_number 56
_symmetry_cell_setting 'orthorhombic'
loop_
_space_group_symop_operation_xyz
x,y,z
1/2-x,1/2-y,z
1/2+x,-y,1/2-z
-x,1/2+y,1/2-z
-x,-y,-z
1/2+x,1/2+y,-z
1/2-x,y,1/2+z
x,1/2-y,1/2+z
loop_
_atom_site_type_symbol
_atom_site_label
_atom_site_fract_x
_atom_site_fract_y
_atom_site_fract_z
Si Si1 0.587079 0.778196 0.429462
Si Si2 0.429968 0.262555 0.335064
Si Si3 0.899434 0.585823 0.045980
Si Si4 0.591106 0.201715 0.695710
Si Si5 0.424926 0.014043 0.398839
O O1 0.750000 0.750000 0.398352
O O2 0.595168 0.709162 0.500875
O O3 0.465994 0.732341 0.373938
O O4 0.539306 0.919841 0.435727
O O5 0.250000 0.250000 0.338437
O O6 0.468873 0.378866 0.381230
O O7 0.480556 0.279307 0.258099
O O8 0.490010 0.141500 0.372731
O O9 0.731879 0.536066 0.061237
O O10 0.000000 0.500000 0.000000
O O11 0.750000 0.250000 0.717501
O O12 0.607245 0.063194 0.670358
#
# Coordination Sequence:
#
# PCOD9432237 Si02
#       5
#     8   8   8   8   8
#     4  10  22  42  67  94 129 184 225 278 355 408
#     4  10  22  43  67  97 133 180 235 285 352 425
#     4  11  23  41  67  99 137 177 226 291 354 415
#     4  10  22  42  62  98 137 177 226 287 347 415
#     4   9  23  42  66  95 135 175 233 286 338 430
#
# _framework density 20.781642000000002
#
# number of rings (size 3 to 8) (size 9 to 14) (size 15 to 20)
#    1.200    0.800    0.000    3.600    0.000    8.000 
#    7.200    0.000    0.000    0.000    0.000    0.000 
#    0.000    0.000    0.000    0.000    0.000    0.000 
#
# Total GULP energy -222726.230316 kJ/mol
# GULP energy per Si atom -5568.155758 kJ/mol
# Density = 2.073434 g / cm^3
# Si number density = 20.781642 Si / 1000 Ang^3
#
#
#
# Elastic Constant Matrix: (Units=GPa)
#
#
# Indices 1 2 3 4 5 6 
#
# 1 49.0148 33.6214 31.2754 0.0000 0.0000 0.0000
# 2 33.6214 103.5158 37.2520 0.0000 0.0000 0.0000
# 3 31.2754 37.2520 96.7509 0.0000 0.0000 0.0000
# 4 0.0000 0.0000 0.0000 20.1353 0.0000 0.0000
# 5 0.0000 0.0000 0.0000 0.0000 41.9665 0.0000
# 6 0.0000 0.0000 0.0000 0.0000 0.0000 36.3599
#
#
#
# Elastic Compliance Matrix: (Units=1/GPa)
#
#
# Indices 1 2 3 4 5 6 
#
# 1 0.029689 -0.007185 -0.006831 0.000000 0.000000 0.000000
# 2 -0.007185 0.012953 -0.002665 0.000000 0.000000 0.000000
# 3 -0.006831 -0.002665 0.013570 0.000000 0.000000 0.000000
# 4 0.000000 0.000000 0.000000 0.049664 0.000000 0.000000
# 5 0.000000 0.000000 0.000000 0.000000 0.023829 0.000000
# 6 0.000000 0.000000 0.000000 0.000000 0.000000 0.027503
#
#
# Mechanical properties :
#
#
# Convention : Reuss Voigt Hill
#
# Bulk Modulus (GPa) = 43.76125 50.39766 47.07945
# Shear Modulus (GPa) = 25.22901 29.50118 27.36510
#
# Velocity S-wave (km/s) = 3.48804 3.77182 3.63270
# Velocity P-wave (km/s) = 6.10944 6.57818 6.34814
#
# Compressibility (1/GPa) = 0.02285127
#
# Stress axis : x y z
#
# Youngs Moduli (GPa) = 33.68264 77.20310 73.69224
#
# Poissons Ratio (x) = 0.55467 0.50338
# Poissons Ratio (y) = 0.24200 0.19637
# Poissons Ratio (z) = 0.23008 0.20573
#
# Static dielectric constant tensor:
#      x y z
#    x 1.759560 0.000000 0.000000 
#    y 0.000000 1.834020 0.000000 
#    z 0.000000 0.000000 1.741160 
# 
# From -- ./inp_files/14463.got.cif
#   From: 2010.05.17/outbox.cif.g08.bks.cpg/sg56_8_cif.got.tgz:14463.got - 2010.06.03 13:42:01.
