data_PCOD9432553
_publ_section_title
;
Structure prediction by ZEFSAII (Michael W. Deem and Ramdas Pophale) SiO2 
 PCOD9432553
Probable space group: P C C N
;
_chemical_formula_sum "Si O2"
_cell_formula_units_Z 40
_cell_length_a 5.371744
_cell_length_b 28.164762
_cell_length_c 9.034938
_cell_angle_alpha 90.000000
_cell_angle_beta 90.000000
_cell_angle_gamma 90.000000
_cell_volume 1366.930928
_symmetry_space_group_name_H-M "P C C N"
_symmetry_group_IT_number 56
_symmetry_cell_setting 'orthorhombic'
loop_
_space_group_symop_operation_xyz
x,y,z
1/2-x,1/2-y,z
1/2+x,-y,1/2-z
-x,1/2+y,1/2-z
-x,-y,-z
1/2+x,1/2+y,-z
1/2-x,y,1/2+z
x,1/2-y,1/2+z
loop_
_atom_site_type_symbol
_atom_site_label
_atom_site_fract_x
_atom_site_fract_y
_atom_site_fract_z
Si Si1 0.727046 0.048090 0.930579
Si Si2 0.250000 0.750000 0.591491
Si Si3 0.800788 0.149833 0.914506
Si Si4 0.750000 0.750000 0.393161
Si Si5 0.910037 0.550349 0.296541
Si Si6 0.297512 0.148600 0.103605
O O1 0.786478 0.097745 0.845756
O O2 0.437131 0.046339 0.883660
O O3 0.854847 0.053427 0.087820
O O4 0.807970 0.000270 0.849085
O O5 0.253652 0.800933 0.672098
O O6 0.499011 0.749844 0.491696
O O7 0.569808 0.147942 0.030208
O O8 0.072678 0.151855 0.985783
O O9 0.762608 0.800877 0.311563
O O10 0.758489 0.598714 0.319306
#
# Coordination Sequence:
#
# PCOD9432553 Si02
#       6
#     8   4   8   4   8   8
#     4  10  23  41  63  92 128 168 216 269 326 388
#     4   8  14  28  54  86 120 158 200 248 306 368
#     4   9  18  34  59  90 124 163 206 257 313 377
#     4   8  14  28  54  86 120 158 200 250 306 368
#     4  10  23  40  63  94 129 171 218 271 328 390
#     4   9  18  34  59  90 125 163 208 258 315 377
#
# _framework density 29.262636000000001
#
# number of rings (size 3 to 8) (size 9 to 14) (size 15 to 20)
#    0.000    2.800    0.000    0.000    0.000    9.600 
#    0.000    0.000    0.000   25.200    0.000    0.000 
#    0.000   20.800    0.000    0.000    0.000   23.600 
#
# Total GULP energy -223384.364882 kJ/mol
# GULP energy per Si atom -5584.609122 kJ/mol
# Density = 2.919603 g / cm^3
# Si number density = 29.262636 Si / 1000 Ang^3
#
#
#
# Elastic Constant Matrix: (Units=GPa)
#
#
# Indices 1 2 3 4 5 6 
#
# 1 180.6321 24.4859 80.0350 0.0000 0.0000 0.0000
# 2 24.4859 314.3742 56.7141 0.0000 0.0000 0.0000
# 3 80.0350 56.7141 95.7199 0.0000 0.0000 0.0000
# 4 0.0000 0.0000 0.0000 -25.4801 0.0000 0.0000
# 5 0.0000 0.0000 0.0000 0.0000 66.8415 0.0000
# 6 0.0000 0.0000 0.0000 0.0000 0.0000 32.1523
#
#
#
# Elastic Compliance Matrix: (Units=1/GPa)
#
#
# Indices 1 2 3 4 5 6 
#
# 1 0.008941 0.000730 -0.007909 0.000000 0.000000 0.000000
# 2 0.000730 0.003621 -0.002756 0.000000 0.000000 0.000000
# 3 -0.007909 -0.002756 0.018693 0.000000 0.000000 0.000000
# 4 0.000000 0.000000 0.000000 -0.039246 0.000000 0.000000
# 5 0.000000 0.000000 0.000000 0.000000 0.014961 0.000000
# 6 0.000000 0.000000 0.000000 0.000000 0.000000 0.031102
#
#
# Mechanical properties :
#
#
# Convention : Reuss Voigt Hill
#
# Bulk Modulus (GPa) = 87.82631 101.46625 94.64628
# Shear Modulus (GPa) = 80.98767 43.33549 62.16158
#
# Velocity S-wave (km/s) = 5.26652 3.85244 4.61397
# Velocity P-wave (km/s) = 8.18901 7.38499 7.79737
#
# Compressibility (1/GPa) = 0.01138611
#
# Stress axis : x y z
#
# Youngs Moduli (GPa) = 111.83849 276.14518 53.49507
#
# Poissons Ratio (x) = -0.20169 0.42309
# Poissons Ratio (y) = -0.08169 0.14745
# Poissons Ratio (z) = 0.88454 0.76114
#
# Static dielectric constant tensor:
#      x y z
#    x 2.358470 0.000000 0.000000 
#    y 0.000000 2.307670 0.000000 
#    z 0.000000 0.000000 2.186140 
# 
# From -- ./inp_files/5659.got.cif
#   From: 2010.05.17/outbox.cif.g08.bks.cpg/sg56_3_cif.got.tgz:5659.got - 2010.06.03 13:42:01.
