data_PCOD9432506
_publ_section_title
;
Structure prediction by ZEFSAII (Michael W. Deem and Ramdas Pophale) SiO2 
 PCOD9432506
Probable space group: P C C N
;
_chemical_formula_sum "Si O2"
_cell_formula_units_Z 60
_cell_length_a 15.282174
_cell_length_b 6.762750
_cell_length_c 23.913420
_cell_angle_alpha 90.000000
_cell_angle_beta 90.000000
_cell_angle_gamma 90.000000
_cell_volume 2471.440532
_symmetry_space_group_name_H-M "P C C N"
_symmetry_group_IT_number 56
_symmetry_cell_setting 'orthorhombic'
loop_
_space_group_symop_operation_xyz
x,y,z
1/2-x,1/2-y,z
1/2+x,-y,1/2-z
-x,1/2+y,1/2-z
-x,-y,-z
1/2+x,1/2+y,-z
1/2-x,y,1/2+z
x,1/2-y,1/2+z
loop_
_atom_site_type_symbol
_atom_site_label
_atom_site_fract_x
_atom_site_fract_y
_atom_site_fract_z
Si Si1 0.653590 0.225763 0.331841
Si Si2 0.421560 0.727905 0.317829
Si Si3 0.658696 0.659994 0.672558
Si Si4 0.250000 0.750000 0.556716
Si Si5 0.471080 0.217643 0.930307
Si Si6 0.938245 0.911544 0.889903
Si Si7 0.873431 0.586293 0.963487
Si Si8 0.910162 0.924180 0.261057
O O1 0.675883 0.201583 0.397676
O O2 0.517272 0.069355 0.431175
O O3 0.612600 0.434685 0.314007
O O4 0.594386 0.028408 0.333451
O O5 0.343846 0.576700 0.326207
O O6 0.480055 0.775353 0.371118
O O7 0.393244 0.930202 0.290526
O O8 0.422326 0.295426 0.369982
O O9 0.750000 0.750000 0.652808
O O10 0.641224 0.737060 0.736003
O O11 0.289616 0.556951 0.527872
O O12 0.508864 0.361180 0.726588
O O13 0.545538 0.053771 0.943533
O O14 0.400161 0.186084 0.978453
O O15 0.868447 0.762348 0.917668
O O16 0.750000 0.250000 0.304686
#
# Coordination Sequence:
#
# PCOD9432506 Si02
#       8
#     8   8   8   4   8   8   8   8
#     4  10  24  41  65 104 149 179 237 301 373 434
#     4  12  24  42  72 102 139 195 248 299 372 444
#     4  12  28  46  68 104 154 195 250 317 376 446
#     4  10  22  48  62 112 152 174 242 328 368 446
#     4  11  23  50  69 107 141 198 252 304 378 470
#     4  12  22  45  76 105 144 193 245 311 372 457
#     4  11  24  44  82 103 147 193 252 311 386 456
#     4  12  24  44  68  98 142 195 246 301 360 460
#
# _framework density 24.277339000000001
#
# number of rings (size 3 to 8) (size 9 to 14) (size 15 to 20)
#    0.400    0.267    5.333    2.800    1.867    0.533 
#    2.400    1.333    0.000    0.000    0.000    0.000 
#    0.000    0.000    0.000    0.000    0.000    0.000 
#
# Total GULP energy -334351.001128 kJ/mol
# GULP energy per Si atom -5572.516685 kJ/mol
# Density = 2.422208 g / cm^3
# Si number density = 24.277339 Si / 1000 Ang^3
#
#
#
# Elastic Constant Matrix: (Units=GPa)
#
#
# Indices 1 2 3 4 5 6 
#
# 1 62.4290 24.1287 29.6820 0.0000 0.0000 0.0000
# 2 24.1287 125.8356 48.1346 0.0000 0.0000 0.0000
# 3 29.6820 48.1346 83.9160 0.0000 0.0000 0.0000
# 4 0.0000 0.0000 0.0000 37.0656 0.0000 0.0000
# 5 0.0000 0.0000 0.0000 0.0000 18.0818 0.0000
# 6 0.0000 0.0000 0.0000 0.0000 0.0000 35.9413
#
#
#
# Elastic Compliance Matrix: (Units=1/GPa)
#
#
# Indices 1 2 3 4 5 6 
#
# 1 0.019449 -0.001406 -0.006073 0.000000 0.000000 0.000000
# 2 -0.001406 0.010282 -0.005401 0.000000 0.000000 0.000000
# 3 -0.006073 -0.005401 0.017162 0.000000 0.000000 0.000000
# 4 0.000000 0.000000 0.000000 0.026979 0.000000 0.000000
# 5 0.000000 0.000000 0.000000 0.000000 0.055304 0.000000
# 6 0.000000 0.000000 0.000000 0.000000 0.000000 0.027823
#
#
# Mechanical properties :
#
#
# Convention : Reuss Voigt Hill
#
# Bulk Modulus (GPa) = 47.31567 52.89679 50.10623
# Shear Modulus (GPa) = 26.34292 29.56677 27.95485
#
# Velocity S-wave (km/s) = 3.29763 3.49359 3.39703
# Velocity P-wave (km/s) = 5.83362 6.17328 6.00585
#
# Compressibility (1/GPa) = 0.02113465
#
# Stress axis : x y z
#
# Youngs Moduli (GPa) = 51.41652 97.25386 58.26685
#
# Poissons Ratio (x) = 0.13678 0.35383
# Poissons Ratio (y) = 0.07231 0.31467
# Poissons Ratio (z) = 0.31223 0.52522
#
# Static dielectric constant tensor:
#      x y z
#    x 2.013200 0.000000 0.000000 
#    y 0.000000 2.190840 0.000000 
#    z 0.000000 0.000000 1.987560 
# 
# From -- ./inp_files/22526.got.cif
#   From: 2010.05.17/outbox.cif.g08.bks.cpg/sg56_12_cif.got.tgz:22526.got - 2010.06.03 13:42:01.
