data_PCOD9432687
_publ_section_title
;
Structure prediction by ZEFSAII (Michael W. Deem and Ramdas Pophale) SiO2 
 PCOD9432687
Probable space group: P C C N
;
_chemical_formula_sum "Si O2"
_cell_formula_units_Z 64
_cell_length_a 24.449332
_cell_length_b 12.045854
_cell_length_c 8.941365
_cell_angle_alpha 90.000000
_cell_angle_beta 90.000000
_cell_angle_gamma 90.000000
_cell_volume 2633.348978
_symmetry_space_group_name_H-M "P C C N"
_symmetry_group_IT_number 56
_symmetry_cell_setting 'orthorhombic'
loop_
_space_group_symop_operation_xyz
x,y,z
1/2-x,1/2-y,z
1/2+x,-y,1/2-z
-x,1/2+y,1/2-z
-x,-y,-z
1/2+x,1/2+y,-z
1/2-x,y,1/2+z
x,1/2-y,1/2+z
loop_
_atom_site_type_symbol
_atom_site_label
_atom_site_fract_x
_atom_site_fract_y
_atom_site_fract_z
Si Si1 0.796092 0.178357 0.202976
Si Si2 0.974310 0.212743 0.094582
Si Si3 0.201939 0.177788 0.054707
Si Si4 0.866927 0.830653 0.230739
Si Si5 0.400654 0.757848 0.643468
Si Si6 0.376973 0.988243 0.014577
Si Si7 0.456683 0.346430 0.345515
Si Si8 0.746551 0.458809 0.475257
O O1 0.750000 0.250000 0.124234
O O2 0.844991 0.255126 0.260654
O O3 0.768905 0.127754 0.348857
O O4 0.796041 0.079283 0.083401
O O5 0.945826 0.277719 0.230199
O O6 0.008320 0.125115 0.195674
O O7 0.923116 0.169208 0.994304
O O8 0.009025 0.293529 0.985287
O O9 0.250000 0.250000 0.980178
O O10 0.175084 0.251164 0.181858
O O11 0.231712 0.067637 0.107586
O O12 0.156503 0.149783 0.932936
O O13 0.874732 0.937647 0.334220
O O14 0.920773 0.757152 0.210801
O O15 0.396352 0.633822 0.568134
O O16 0.314053 0.983267 0.954456
O O17 0.418339 0.054084 0.905552
#
# Coordination Sequence:
#
# PCOD9432687 Si02
#       8
#     8   8   8   8   8   8   8   8
#     4  11  26  46  73  97 143 181 236 293 350 408
#     4  10  23  43  72  95 127 179 235 292 349 406
#     4  12  23  35  62  95 147 182 226 271 340 421
#     4  12  22  39  64  96 142 188 214 277 348 409
#     4  10  25  45  71  99 133 179 238 287 354 413
#     4  11  23  42  70  99 139 182 228 285 346 427
#     4  11  21  44  69  96 134 178 229 280 355 410
#     4  11  25  42  65 108 135 188 234 275 350 433
#
# _framework density 24.303654999999999
#
# number of rings (size 3 to 8) (size 9 to 14) (size 15 to 20)
#    0.000    1.000    3.750    2.250    8.750    2.000 
#    0.000    0.625    5.500    0.000    0.000    0.000 
#    0.000    0.000    0.000    0.000    0.000    0.000 
#
# Total GULP energy -356971.065269 kJ/mol
# GULP energy per Si atom -5577.672895 kJ/mol
# Density = 2.424834 g / cm^3
# Si number density = 24.303655 Si / 1000 Ang^3
#
#
#
# Elastic Constant Matrix: (Units=GPa)
#
#
# Indices 1 2 3 4 5 6 
#
# 1 88.2162 15.2031 26.0648 0.0000 0.0000 0.0000
# 2 15.2031 45.3286 1.6031 0.0000 0.0000 0.0000
# 3 26.0648 1.6031 98.8983 0.0000 0.0000 0.0000
# 4 0.0000 0.0000 0.0000 5.3355 0.0000 0.0000
# 5 0.0000 0.0000 0.0000 0.0000 46.6151 0.0000
# 6 0.0000 0.0000 0.0000 0.0000 0.0000 25.2407
#
#
#
# Elastic Compliance Matrix: (Units=1/GPa)
#
#
# Indices 1 2 3 4 5 6 
#
# 1 0.013068 -0.004264 -0.003375 0.000000 0.000000 0.000000
# 2 -0.004264 0.023465 0.000743 0.000000 0.000000 0.000000
# 3 -0.003375 0.000743 0.010989 0.000000 0.000000 0.000000
# 4 0.000000 0.000000 0.000000 0.187423 0.000000 0.000000
# 5 0.000000 0.000000 0.000000 0.000000 0.021452 0.000000
# 6 0.000000 0.000000 0.000000 0.000000 0.000000 0.039619
#
#
# Mechanical properties :
#
#
# Convention : Reuss Voigt Hill
#
# Bulk Modulus (GPa) = 29.64621 35.35388 32.50005
# Shear Modulus (GPa) = 15.57395 28.07641 21.82518
#
# Velocity S-wave (km/s) = 2.53416 3.40256 2.99995
# Velocity P-wave (km/s) = 4.55932 5.47858 5.03995
#
# Compressibility (1/GPa) = 0.03373112
#
# Stress axis : x y z
#
# Youngs Moduli (GPa) = 76.52444 42.61696 91.00169
#
# Poissons Ratio (x) = 0.18170 0.30712
# Poissons Ratio (y) = 0.32626 -0.06764
# Poissons Ratio (z) = 0.25826 -0.03168
#
# Static dielectric constant tensor:
#      x y z
#    x 2.094110 0.000000 0.000000 
#    y 0.000000 2.089180 0.000000 
#    z 0.000000 0.000000 1.936700 
# 
# From -- ./inp_files/4817.got.cif
#   From: 2010.05.17/outbox.cif.g08.bks.cpg/sg56_3_cif.got.tgz:4817.got - 2010.06.03 13:42:01.
