data_PCOD9432180
_publ_section_title
;
Structure prediction by ZEFSAII (Michael W. Deem and Ramdas Pophale) SiO2 
 PCOD9432180
Probable space group: P C C N
;
_chemical_formula_sum "Si O2"
_cell_formula_units_Z 56
_cell_length_a 15.227612
_cell_length_b 11.516972
_cell_length_c 15.759878
_cell_angle_alpha 90.000000
_cell_angle_beta 90.000000
_cell_angle_gamma 90.000000
_cell_volume 2763.904065
_symmetry_space_group_name_H-M "P C C N"
_symmetry_group_IT_number 56
_symmetry_cell_setting 'orthorhombic'
loop_
_space_group_symop_operation_xyz
x,y,z
1/2-x,1/2-y,z
1/2+x,-y,1/2-z
-x,1/2+y,1/2-z
-x,-y,-z
1/2+x,1/2+y,-z
1/2-x,y,1/2+z
x,1/2-y,1/2+z
loop_
_atom_site_type_symbol
_atom_site_label
_atom_site_fract_x
_atom_site_fract_y
_atom_site_fract_z
Si Si1 0.056732 0.500756 0.877563
Si Si2 0.864451 0.560218 0.950066
Si Si3 0.976095 0.369039 0.469214
Si Si4 0.163913 0.687093 0.776834
Si Si5 0.406696 0.212571 0.617459
Si Si6 0.688051 0.461020 0.888125
Si Si7 0.509653 0.767832 0.205357
O O1 0.107376 0.610556 0.841078
O O2 0.958580 0.527867 0.909509
O O3 0.043103 0.396188 0.813232
O O4 0.116997 0.449972 0.951375
O O5 0.844006 0.690592 0.921908
O O6 0.784512 0.479938 0.923618
O O7 0.872976 0.380665 0.448499
O O8 0.014846 0.315875 0.379155
O O9 0.000000 0.500000 0.500000
O O10 0.012867 0.295598 0.548613
O O11 0.250000 0.750000 0.811549
O O12 0.193702 0.600279 0.702418
O O13 0.092356 0.770845 0.732837
O O14 0.361841 0.085670 0.621568
O O15 0.436828 0.261545 0.709054
#
# Coordination Sequence:
#
# PCOD9432180 Si02
#       7
#     8   8   8   8   8   8   8
#     4  11  23  42  64  93 134 177 224 273 343 413
#     4  11  23  40  63  94 130 177 217 276 346 404
#     4   9  21  39  65  95 127 173 225 273 340 406
#     4  11  23  41  65  99 133 176 233 284 334 408
#     4  11  20  39  69  91 130 175 223 279 345 402
#     4  10  22  41  64  95 131 172 228 286 336 404
#     4  11  21  40  67  93 130 177 222 275 343 406
#
# _framework density 20.261195000000001
#
# number of rings (size 3 to 8) (size 9 to 14) (size 15 to 20)
#    0.000    1.429    4.286    1.286    0.000    1.143 
#    0.000    2.857    0.000    0.000    0.000    0.000 
#    0.000    0.000    0.000    0.000    0.000    0.000 
#
# Total GULP energy -312102.344536 kJ/mol
# GULP energy per Si atom -5573.256152 kJ/mol
# Density = 2.021508 g / cm^3
# Si number density = 20.261195 Si / 1000 Ang^3
#
#
#
# Elastic Constant Matrix: (Units=GPa)
#
#
# Indices 1 2 3 4 5 6 
#
# 1 104.1140 32.9492 32.8897 0.0000 0.0000 0.0000
# 2 32.9492 44.6177 35.7530 0.0000 0.0000 0.0000
# 3 32.8897 35.7530 83.9667 0.0000 0.0000 0.0000
# 4 0.0000 0.0000 0.0000 30.3580 0.0000 0.0000
# 5 0.0000 0.0000 0.0000 0.0000 11.9808 0.0000
# 6 0.0000 0.0000 0.0000 0.0000 0.0000 36.6694
#
#
#
# Elastic Compliance Matrix: (Units=1/GPa)
#
#
# Indices 1 2 3 4 5 6 
#
# 1 0.012655 -0.008156 -0.001484 0.000000 0.000000 0.000000
# 2 -0.008156 0.039277 -0.013529 0.000000 0.000000 0.000000
# 3 -0.001484 -0.013529 0.018252 0.000000 0.000000 0.000000
# 4 0.000000 0.000000 0.000000 0.032940 0.000000 0.000000
# 5 0.000000 0.000000 0.000000 0.000000 0.083467 0.000000
# 6 0.000000 0.000000 0.000000 0.000000 0.000000 0.027271
#
#
# Mechanical properties :
#
#
# Convention : Reuss Voigt Hill
#
# Bulk Modulus (GPa) = 41.93861 48.43135 45.18498
# Shear Modulus (GPa) = 18.64637 24.54208 21.59422
#
# Velocity S-wave (km/s) = 3.03693 3.48413 3.26819
# Velocity P-wave (km/s) = 5.74815 6.33569 6.04906
#
# Compressibility (1/GPa) = 0.02384438
#
# Stress axis : x y z
#
# Youngs Moduli (GPa) = 79.02104 25.46009 54.78967
#
# Poissons Ratio (x) = 0.20766 0.08131
# Poissons Ratio (y) = 0.64451 0.74127
# Poissons Ratio (z) = 0.11727 0.34446
#
# Static dielectric constant tensor:
#      x y z
#    x 1.704940 0.000000 0.000000 
#    y 0.000000 1.773170 0.000000 
#    z 0.000000 0.000000 1.743260 
# 
# From -- ./inp_files/12283.got.cif
#   From: 2010.05.17/outbox.cif.g08.bks.cpg/sg56_7_cif.got.tgz:12283.got - 2010.06.03 13:42:01.
