data_PCOD9432139
_publ_section_title
;
Structure prediction by ZEFSAII (Michael W. Deem and Ramdas Pophale) SiO2 
 PCOD9432139
Probable space group: P C C N
;
_chemical_formula_sum "Si O2"
_cell_formula_units_Z 60
_cell_length_a 5.650120
_cell_length_b 18.205936
_cell_length_c 26.554487
_cell_angle_alpha 90.000000
_cell_angle_beta 90.000000
_cell_angle_gamma 90.000000
_cell_volume 2731.546507
_symmetry_space_group_name_H-M "P C C N"
_symmetry_group_IT_number 56
_symmetry_cell_setting 'orthorhombic'
loop_
_space_group_symop_operation_xyz
x,y,z
1/2-x,1/2-y,z
1/2+x,-y,1/2-z
-x,1/2+y,1/2-z
-x,-y,-z
1/2+x,1/2+y,-z
1/2-x,y,1/2+z
x,1/2-y,1/2+z
loop_
_atom_site_type_symbol
_atom_site_label
_atom_site_fract_x
_atom_site_fract_y
_atom_site_fract_z
Si Si1 0.457856 0.877306 0.879424
Si Si2 0.858005 0.319679 0.712023
Si Si3 0.566981 0.544751 0.620348
Si Si4 0.216726 0.673164 0.072421
Si Si5 0.750000 0.750000 0.854514
Si Si6 0.109561 0.428206 0.475184
Si Si7 0.905052 0.540715 0.236223
Si Si8 0.072438 0.317805 0.027063
O O1 0.306839 0.863964 0.828586
O O2 0.692268 0.828040 0.878335
O O3 0.367925 0.839697 0.931826
O O4 0.522866 0.961584 0.883352
O O5 0.750000 0.250000 0.743869
O O6 0.012385 0.381388 0.740067
O O7 0.024177 0.270095 0.677496
O O8 0.385381 0.609389 0.607670
O O9 0.758552 0.549882 0.576180
O O10 0.651811 0.552328 0.677468
O O11 0.250000 0.750000 0.100934
O O12 0.430226 0.634540 0.042986
O O13 0.039823 0.696348 0.027551
O O14 0.282975 0.392087 0.515920
O O15 0.000000 0.500000 0.500000
O O16 0.154259 0.492175 0.241319
O O17 0.250000 0.250000 0.037936
#
# Coordination Sequence:
#
# PCOD9432139 Si02
#       8
#     8   8   8   8   4   8   8   8
#     4  11  21  41  63 106 140 189 243 306 384 453
#     4  10  24  43  69 104 146 189 245 323 388 454
#     4  11  26  43  73 106 145 195 256 303 379 457
#     4  11  24  43  68  98 148 190 248 303 362 447
#     4  10  22  40  68  98 146 180 236 320 382 456
#     4  11  24  44  68 104 143 192 241 314 371 449
#     4  12  27  51  80 110 150 206 257 322 388 462
#     4  11  22  40  66  99 139 191 240 299 372 455
#
# _framework density 21.965579000000002
#
# number of rings (size 3 to 8) (size 9 to 14) (size 15 to 20)
#    0.000    1.067    3.333    2.400    3.733    7.467 
#    2.400    1.333    0.000    0.000    0.000    0.000 
#    0.000    0.000    0.000    0.000    0.000    0.000 
#
# Total GULP energy -334038.532292 kJ/mol
# GULP energy per Si atom -5567.308872 kJ/mol
# Density = 2.191558 g / cm^3
# Si number density = 21.965579 Si / 1000 Ang^3
#
#
#
# Elastic Constant Matrix: (Units=GPa)
#
#
# Indices 1 2 3 4 5 6 
#
# 1 50.8705 36.1807 4.0240 0.0000 0.0000 0.0000
# 2 36.1807 190.0291 32.2415 0.0000 0.0000 0.0000
# 3 4.0240 32.2415 90.5250 0.0000 0.0000 0.0000
# 4 0.0000 0.0000 0.0000 39.0037 0.0000 0.0000
# 5 0.0000 0.0000 0.0000 0.0000 -23.0778 0.0000
# 6 0.0000 0.0000 0.0000 0.0000 0.0000 28.3436
#
#
#
# Elastic Compliance Matrix: (Units=1/GPa)
#
#
# Indices 1 2 3 4 5 6 
#
# 1 0.022764 -0.004430 0.000566 0.000000 0.000000 0.000000
# 2 -0.004430 0.006463 -0.002105 0.000000 0.000000 0.000000
# 3 0.000566 -0.002105 0.011771 0.000000 0.000000 0.000000
# 4 0.000000 0.000000 0.000000 0.025639 0.000000 0.000000
# 5 0.000000 0.000000 0.000000 0.000000 -0.043332 0.000000
# 6 0.000000 0.000000 0.000000 0.000000 0.000000 0.035281
#
#
# Mechanical properties :
#
#
# Convention : Reuss Voigt Hill
#
# Bulk Modulus (GPa) = 34.41182 52.92410 43.66796
# Shear Modulus (GPa) = 62.33546 26.11913 44.22730
#
# Velocity S-wave (km/s) = 5.33295 3.45206 4.49205
# Velocity P-wave (km/s) = 7.32261 6.32735 6.84310
#
# Compressibility (1/GPa) = 0.02905978
#
# Stress axis : x y z
#
# Youngs Moduli (GPa) = 43.92924 154.72756 84.95307
#
# Poissons Ratio (x) = 0.68547 -0.04808
# Poissons Ratio (y) = 0.19461 0.17882
# Poissons Ratio (z) = -0.02486 0.32569
#
# Static dielectric constant tensor:
#      x y z
#    x 1.954590 0.000000 0.000000 
#    y 0.000000 1.871820 0.000000 
#    z 0.000000 0.000000 1.982650 
# 
# From -- ./inp_files/21787.got.cif
#   From: 2010.05.17/outbox.cif.g08.bks.cpg/sg56_11_cif.got.tgz:21787.got - 2010.06.03 13:42:01.
