data_PCOD9432584
_publ_section_title
;
Structure prediction by ZEFSAII (Michael W. Deem and Ramdas Pophale) SiO2 
 PCOD9432584
Probable space group: P C C N
;
_chemical_formula_sum "Si O2"
_cell_formula_units_Z 60
_cell_length_a 15.150780
_cell_length_b 12.766980
_cell_length_c 14.136398
_cell_angle_alpha 90.000000
_cell_angle_beta 90.000000
_cell_angle_gamma 90.000000
_cell_volume 2734.399298
_symmetry_space_group_name_H-M "P C C N"
_symmetry_group_IT_number 56
_symmetry_cell_setting 'orthorhombic'
loop_
_space_group_symop_operation_xyz
x,y,z
1/2-x,1/2-y,z
1/2+x,-y,1/2-z
-x,1/2+y,1/2-z
-x,-y,-z
1/2+x,1/2+y,-z
1/2-x,y,1/2+z
x,1/2-y,1/2+z
loop_
_atom_site_type_symbol
_atom_site_label
_atom_site_fract_x
_atom_site_fract_y
_atom_site_fract_z
Si Si1 0.340249 0.623364 0.719113
Si Si2 0.538888 0.969096 0.896508
Si Si3 0.071753 0.285493 0.359860
Si Si4 0.534233 0.274276 0.684676
Si Si5 0.316646 0.346815 0.502927
Si Si6 0.750000 0.250000 0.929653
Si Si7 0.318131 0.484734 0.897179
Si Si8 0.424061 0.843992 0.496680
O O1 0.421553 0.562399 0.667427
O O2 0.378826 0.730391 0.763814
O O3 0.271746 0.652168 0.637817
O O4 0.302180 0.559565 0.807761
O O5 0.468664 0.896473 0.841774
O O6 0.622601 0.892339 0.914649
O O7 0.500000 0.000000 0.000000
O O8 0.116738 0.197479 0.423507
O O9 0.139331 0.380503 0.354987
O O10 0.044020 0.250371 0.256998
O O11 0.984613 0.330749 0.412053
O O12 0.523654 0.206770 0.590155
O O13 0.250000 0.250000 0.526249
O O14 0.263018 0.444242 0.458988
O O15 0.836039 0.224964 0.989650
O O16 0.388791 0.542951 0.965178
#
# Coordination Sequence:
#
# PCOD9432584 Si02
#       8
#     8   8   8   8   8   4   8   8
#     4  11  24  41  64 102 136 177 228 281 345 416
#     4  12  23  43  71 101 135 181 238 278 348 419
#     4  11  20  45  68  98 132 181 227 286 338 411
#     4  11  23  42  69 100 133 178 231 292 333 411
#     4  10  23  44  68  99 141 182 229 294 344 406
#     4  12  24  42  66  92 140 172 222 280 340 406
#     4  10  23  41  65  99 140 171 231 276 350 408
#     4  11  23  42  68  97 134 182 218 284 343 409
#
# _framework density 21.942661999999999
#
# number of rings (size 3 to 8) (size 9 to 14) (size 15 to 20)
#    0.000    1.067    4.000    2.800    0.000    3.200 
#    2.400    1.333    0.000    0.000    0.000    0.000 
#    0.000    0.000    0.000    0.000    0.000    0.000 
#
# Total GULP energy -335392.433074 kJ/mol
# GULP energy per Si atom -5589.873885 kJ/mol
# Density = 2.189272 g / cm^3
# Si number density = 21.942662 Si / 1000 Ang^3
#
#
#
# Elastic Constant Matrix: (Units=GPa)
#
#
# Indices 1 2 3 4 5 6 
#
# 1 52.4020 25.1068 25.1040 0.0000 0.0000 0.0000
# 2 25.1068 85.5583 35.3472 0.0000 0.0000 0.0000
# 3 25.1040 35.3472 88.6931 0.0000 0.0000 0.0000
# 4 0.0000 0.0000 0.0000 36.0695 0.0000 0.0000
# 5 0.0000 0.0000 0.0000 0.0000 20.3270 0.0000
# 6 0.0000 0.0000 0.0000 0.0000 0.0000 41.4735
#
#
#
# Elastic Compliance Matrix: (Units=1/GPa)
#
#
# Indices 1 2 3 4 5 6 
#
# 1 0.023750 -0.005018 -0.004722 0.000000 0.000000 0.000000
# 2 -0.005018 0.015052 -0.004578 0.000000 0.000000 0.000000
# 3 -0.004722 -0.004578 0.014436 0.000000 0.000000 0.000000
# 4 0.000000 0.000000 0.000000 0.027724 0.000000 0.000000
# 5 0.000000 0.000000 0.000000 0.000000 0.049196 0.000000
# 6 0.000000 0.000000 0.000000 0.000000 0.000000 0.024112
#
#
# Mechanical properties :
#
#
# Convention : Reuss Voigt Hill
#
# Bulk Modulus (GPa) = 40.65033 44.19662 42.42348
# Shear Modulus (GPa) = 26.16326 28.98035 27.57181
#
# Velocity S-wave (km/s) = 3.45678 3.63813 3.54861
# Velocity P-wave (km/s) = 5.87353 6.15090 6.01382
#
# Compressibility (1/GPa) = 0.02460004
#
# Stress axis : x y z
#
# Youngs Moduli (GPa) = 42.10542 66.43615 69.27099
#
# Poissons Ratio (x) = 0.33340 0.32712
# Poissons Ratio (y) = 0.21130 0.31715
# Poissons Ratio (z) = 0.19883 0.30417
#
# Static dielectric constant tensor:
#      x y z
#    x 1.795700 0.000000 0.000000 
#    y 0.000000 1.834870 0.000000 
#    z 0.000000 0.000000 1.795340 
# 
# From -- ./inp_files/12417.got.cif
#   From: 2010.05.17/outbox.cif.g08.bks.cpg/sg56_7_cif.got.tgz:12417.got - 2010.06.03 13:42:01.
