data_PCOD9432741
_publ_section_title
;
Structure prediction by ZEFSAII (Michael W. Deem and Ramdas Pophale) SiO2 
 PCOD9432741
Probable space group: P C C N
;
_chemical_formula_sum "Si O2"
_cell_formula_units_Z 24
_cell_length_a 10.705243
_cell_length_b 9.119941
_cell_length_c 8.937954
_cell_angle_alpha 90.000000
_cell_angle_beta 90.000000
_cell_angle_gamma 90.000000
_cell_volume 872.623036
_symmetry_space_group_name_H-M "P C C N"
_symmetry_group_IT_number 56
_symmetry_cell_setting 'orthorhombic'
loop_
_space_group_symop_operation_xyz
x,y,z
1/2-x,1/2-y,z
1/2+x,-y,1/2-z
-x,1/2+y,1/2-z
-x,-y,-z
1/2+x,1/2+y,-z
1/2-x,y,1/2+z
x,1/2-y,1/2+z
loop_
_atom_site_type_symbol
_atom_site_label
_atom_site_fract_x
_atom_site_fract_y
_atom_site_fract_z
Si Si1 0.663114 0.873195 0.754144
Si Si2 0.681825 0.061670 0.497012
Si Si3 0.059705 0.655141 0.949121
O O1 0.750000 0.750000 0.680480
O O2 0.549214 0.794450 0.839347
O O3 0.607308 0.973791 0.623602
O O4 0.751199 0.962252 0.871611
O O5 0.605773 0.206968 0.450039
O O6 0.802596 0.107233 0.599375
O O7 0.000000 0.500000 0.000000
#
# Coordination Sequence:
#
# PCOD9432741 Si02
#       3
#     8   8   8
#     4  11  24  43  68 105 141 187 243 289 362 430
#     4  10  23  45  68 102 142 183 238 303 352 427
#     4   9  22  43  69  99 138 184 237 295 363 418
#
# _framework density 27.503284000000001
#
# number of rings (size 3 to 8) (size 9 to 14) (size 15 to 20)
#    0.000    2.000    0.000    1.000    4.667   12.000 
#   12.000    0.000    0.000    0.000    0.000    0.000 
#    0.000    0.000    0.000    0.000    0.000    0.000 
#
# Total GULP energy -133735.117110 kJ/mol
# GULP energy per Si atom -5572.296546 kJ/mol
# Density = 2.744069 g / cm^3
# Si number density = 27.503284 Si / 1000 Ang^3
#
#
#
# Elastic Constant Matrix: (Units=GPa)
#
#
# Indices 1 2 3 4 5 6 
#
# 1 114.8121 70.7680 21.5912 0.0000 0.0000 0.0000
# 2 70.7680 131.4965 47.0991 0.0000 0.0000 0.0000
# 3 21.5912 47.0991 84.0128 0.0000 0.0000 0.0000
# 4 0.0000 0.0000 0.0000 28.0379 0.0000 0.0000
# 5 0.0000 0.0000 0.0000 0.0000 33.7196 0.0000
# 6 0.0000 0.0000 0.0000 0.0000 0.0000 83.0023
#
#
#
# Elastic Compliance Matrix: (Units=1/GPa)
#
#
# Indices 1 2 3 4 5 6 
#
# 1 0.013069 -0.007295 0.000731 0.000000 0.000000 0.000000
# 2 -0.007295 0.013588 -0.005743 0.000000 0.000000 0.000000
# 3 0.000731 -0.005743 0.014934 0.000000 0.000000 0.000000
# 4 0.000000 0.000000 0.000000 0.035666 0.000000 0.000000
# 5 0.000000 0.000000 0.000000 0.000000 0.029656 0.000000
# 6 0.000000 0.000000 0.000000 0.000000 0.000000 0.012048
#
#
# Mechanical properties :
#
#
# Convention : Reuss Voigt Hill
#
# Bulk Modulus (GPa) = 58.90088 67.69313 63.29701
# Shear Modulus (GPa) = 33.50432 41.67618 37.59025
#
# Velocity S-wave (km/s) = 3.49405 3.89693 3.70098
# Velocity P-wave (km/s) = 6.14331 6.70181 6.42863
#
# Compressibility (1/GPa) = 0.01697768
#
# Stress axis : x y z
#
# Youngs Moduli (GPa) = 76.51647 73.59533 66.95906
#
# Poissons Ratio (x) = 0.53690 -0.04896
# Poissons Ratio (y) = 0.55821 0.38452
# Poissons Ratio (z) = -0.05594 0.42263
#
# Static dielectric constant tensor:
#      x y z
#    x 2.246830 0.000000 0.000000 
#    y 0.000000 2.426440 0.000000 
#    z 0.000000 0.000000 2.189110 
# 
# From -- ./inp_files/5826.got.cif
#   From: 2010.05.17/outbox.cif.g08.bks.cpg/sg56_3_cif.got.tgz:5826.got - 2010.06.03 13:42:01.
