data_PCOD9432163
_publ_section_title
;
Structure prediction by ZEFSAII (Michael W. Deem and Ramdas Pophale) SiO2 
 PCOD9432163
Probable space group: P C C N
;
_chemical_formula_sum "Si O2"
_cell_formula_units_Z 56
_cell_length_a 5.090727
_cell_length_b 29.552309
_cell_length_c 14.589363
_cell_angle_alpha 90.000000
_cell_angle_beta 90.000000
_cell_angle_gamma 90.000000
_cell_volume 2194.863706
_symmetry_space_group_name_H-M "P C C N"
_symmetry_group_IT_number 56
_symmetry_cell_setting 'orthorhombic'
loop_
_space_group_symop_operation_xyz
x,y,z
1/2-x,1/2-y,z
1/2+x,-y,1/2-z
-x,1/2+y,1/2-z
-x,-y,-z
1/2+x,1/2+y,-z
1/2-x,y,1/2+z
x,1/2-y,1/2+z
loop_
_atom_site_type_symbol
_atom_site_label
_atom_site_fract_x
_atom_site_fract_y
_atom_site_fract_z
Si Si1 0.252940 0.048436 0.482146
Si Si2 0.307468 0.876190 0.066355
Si Si3 0.507735 0.995181 0.849655
Si Si4 0.706982 0.423042 0.759330
Si Si5 0.330636 0.203071 0.162987
Si Si6 0.339220 0.796757 0.205705
Si Si7 0.998758 0.124091 0.097585
O O1 0.462439 0.078993 0.535401
O O2 0.026699 0.086123 0.458374
O O3 0.181183 0.012053 0.560355
O O4 0.258450 0.017506 0.391075
O O5 0.122355 0.901274 0.144412
O O6 0.387561 0.834882 0.130752
O O7 0.199663 0.853397 0.974189
O O8 0.507873 0.945436 0.805732
O O9 0.626306 0.032360 0.783565
O O10 0.878209 0.390442 0.694702
O O11 0.250000 0.250000 0.110185
O O12 0.611786 0.198146 0.214251
O O13 0.113092 0.206621 0.242743
O O14 0.245064 0.156955 0.111575
O O15 0.250000 0.750000 0.159780
#
# Coordination Sequence:
#
# PCOD9432163 Si02
#       7
#     8   8   8   8   8   8   8
#     4  10  24  42  61  96 138 175 243 294 356 424
#     4  11  25  43  66 105 138 181 241 298 361 432
#     4  10  22  41  60  93 133 180 236 296 349 429
#     4  11  23  41  68  94 138 190 242 289 376 418
#     4  10  24  47  75 108 142 192 237 289 361 443
#     4  10  23  47  75 103 146 188 237 292 362 440
#     4  12  25  41  71 101 138 189 231 306 354 442
#
# _framework density 25.514112000000001
#
# number of rings (size 3 to 8) (size 9 to 14) (size 15 to 20)
#    0.000    1.429    2.857    0.857    8.000    0.571 
#    2.571    0.000    0.000    0.000    0.000    0.000 
#    0.000    0.000    0.000    0.000    0.000    0.000 
#
# Total GULP energy -312396.655570 kJ/mol
# GULP energy per Si atom -5578.511707 kJ/mol
# Density = 2.545604 g / cm^3
# Si number density = 25.514112 Si / 1000 Ang^3
#
#
#
# Elastic Constant Matrix: (Units=GPa)
#
#
# Indices 1 2 3 4 5 6 
#
# 1 61.5692 -0.6008 12.2601 0.0000 0.0000 0.0000
# 2 -0.6008 105.5853 23.8660 0.0000 0.0000 0.0000
# 3 12.2601 23.8660 123.8315 0.0000 0.0000 0.0000
# 4 0.0000 0.0000 0.0000 38.1475 0.0000 0.0000
# 5 0.0000 0.0000 0.0000 0.0000 12.5379 0.0000
# 6 0.0000 0.0000 0.0000 0.0000 0.0000 40.8618
#
#
#
# Elastic Compliance Matrix: (Units=1/GPa)
#
#
# Indices 1 2 3 4 5 6 
#
# 1 0.016592 0.000487 -0.001737 0.000000 0.000000 0.000000
# 2 0.000487 0.009917 -0.001959 0.000000 0.000000 0.000000
# 3 -0.001737 -0.001959 0.008625 0.000000 0.000000 0.000000
# 4 0.000000 0.000000 0.000000 0.026214 0.000000 0.000000
# 5 0.000000 0.000000 0.000000 0.000000 0.079758 0.000000
# 6 0.000000 0.000000 0.000000 0.000000 0.000000 0.024473
#
#
# Mechanical properties :
#
#
# Convention : Reuss Voigt Hill
#
# Bulk Modulus (GPa) = 34.82383 40.22630 37.52506
# Shear Modulus (GPa) = 27.53767 35.34015 31.43891
#
# Velocity S-wave (km/s) = 3.28885 3.72576 3.51410
# Velocity P-wave (km/s) = 5.30099 5.85738 5.58612
#
# Compressibility (1/GPa) = 0.02871597
#
# Stress axis : x y z
#
# Youngs Moduli (GPa) = 60.26844 100.84005 115.94113
#
# Poissons Ratio (x) = -0.04910 0.20134
# Poissons Ratio (y) = -0.02935 0.22718
# Poissons Ratio (z) = 0.10466 0.19759
#
# Static dielectric constant tensor:
#      x y z
#    x 2.301910 0.000000 0.000000 
#    y 0.000000 2.217310 0.000000 
#    z 0.000000 0.000000 2.068610 
# 
# From -- ./inp_files/9826.got.cif
#   From: 2010.05.17/outbox.cif.g08.bks.cpg/sg56_5_cif.got.tgz:9826.got - 2010.06.03 13:42:01.
