data_PCOD9432589
_publ_section_title
;
Structure prediction by ZEFSAII (Michael W. Deem and Ramdas Pophale) SiO2 
 PCOD9432589
Probable space group: P C C N
;
_chemical_formula_sum "Si O2"
_cell_formula_units_Z 64
_cell_length_a 8.583993
_cell_length_b 19.521321
_cell_length_c 15.698869
_cell_angle_alpha 90.000000
_cell_angle_beta 90.000000
_cell_angle_gamma 90.000000
_cell_volume 2630.673338
_symmetry_space_group_name_H-M "P C C N"
_symmetry_group_IT_number 56
_symmetry_cell_setting 'orthorhombic'
loop_
_space_group_symop_operation_xyz
x,y,z
1/2-x,1/2-y,z
1/2+x,-y,1/2-z
-x,1/2+y,1/2-z
-x,-y,-z
1/2+x,1/2+y,-z
1/2-x,y,1/2+z
x,1/2-y,1/2+z
loop_
_atom_site_type_symbol
_atom_site_label
_atom_site_fract_x
_atom_site_fract_y
_atom_site_fract_z
Si Si1 0.371787 0.562487 0.996821
Si Si2 0.168590 0.177450 0.369582
Si Si3 0.585047 0.498894 0.409226
Si Si4 0.139653 0.692069 0.235692
Si Si5 0.351442 0.437879 0.265702
Si Si6 0.487988 0.202363 0.578257
Si Si7 0.645555 0.848077 0.941994
Si Si8 0.333919 0.559345 0.807503
O O1 0.439693 0.641919 0.984664
O O2 0.287355 0.555234 0.905080
O O3 0.500000 0.500000 0.000000
O O4 0.244808 0.544214 0.069691
O O5 0.250000 0.250000 0.379678
O O6 0.236677 0.130060 0.295346
O O7 0.177020 0.138043 0.458161
O O8 0.995697 0.185432 0.332859
O O9 0.500000 0.500000 0.500000
O O10 0.469999 0.463035 0.341273
O O11 0.608759 0.581048 0.394793
O O12 0.250000 0.750000 0.204885
O O13 0.231286 0.622786 0.255190
O O14 0.073345 0.706355 0.330654
O O15 0.478034 0.432179 0.191624
O O16 0.222420 0.494127 0.257247
O O17 0.309700 0.179780 0.591998
O O18 0.474440 0.283227 0.552307
#
# Coordination Sequence:
#
# PCOD9432589 Si02
#       8
#     8   8   8   8   8   8   8   8
#     4  11  22  41  66  99 134 175 218 271 332 394
#     4  11  23  44  67  93 131 171 223 274 322 406
#     4  12  23  41  70  95 135 174 215 279 337 392
#     4  10  25  45  63  96 133 175 220 274 335 388
#     4  11  25  43  66  97 130 176 220 273 337 402
#     4  10  23  41  66  96 135 170 224 272 323 404
#     4  11  22  41  65 103 129 171 227 271 330 399
#     4  10  24  43  63  96 133 165 226 272 322 399
#
# _framework density 24.328371000000001
#
# number of rings (size 3 to 8) (size 9 to 14) (size 15 to 20)
#    0.000    1.250    5.000    0.000    5.250    2.000 
#    4.500    0.000    0.000    0.000    0.000    0.000 
#    0.000    0.000    0.000    0.000    0.000    0.000 
#
# Total GULP energy -357064.495704 kJ/mol
# GULP energy per Si atom -5579.132745 kJ/mol
# Density = 2.427300 g / cm^3
# Si number density = 24.328371 Si / 1000 Ang^3
#
#
#
# Elastic Constant Matrix: (Units=GPa)
#
#
# Indices 1 2 3 4 5 6 
#
# 1 31.5712 23.0879 4.1605 0.0000 0.0000 0.0000
# 2 23.0879 149.4804 7.8624 0.0000 0.0000 0.0000
# 3 4.1605 7.8624 74.2404 0.0000 0.0000 0.0000
# 4 0.0000 0.0000 0.0000 51.3393 0.0000 0.0000
# 5 0.0000 0.0000 0.0000 0.0000 36.6367 0.0000
# 6 0.0000 0.0000 0.0000 0.0000 0.0000 49.7172
#
#
#
# Elastic Compliance Matrix: (Units=1/GPa)
#
#
# Indices 1 2 3 4 5 6 
#
# 1 0.035858 -0.005463 -0.001431 0.000000 0.000000 0.000000
# 2 -0.005463 0.007560 -0.000494 0.000000 0.000000 0.000000
# 3 -0.001431 -0.000494 0.013602 0.000000 0.000000 0.000000
# 4 0.000000 0.000000 0.000000 0.019478 0.000000 0.000000
# 5 0.000000 0.000000 0.000000 0.000000 0.027295 0.000000
# 6 0.000000 0.000000 0.000000 0.000000 0.000000 0.020114
#
#
# Mechanical properties :
#
#
# Convention : Reuss Voigt Hill
#
# Bulk Modulus (GPa) = 23.67258 36.16817 29.92037
# Shear Modulus (GPa) = 32.72994 42.21739 37.47366
#
# Velocity S-wave (km/s) = 3.67187 4.17023 3.92896
# Velocity P-wave (km/s) = 5.26577 6.17144 5.73651
#
# Compressibility (1/GPa) = 0.04224297
#
# Stress axis : x y z
#
# Youngs Moduli (GPa) = 27.88765 132.28106 73.51690
#
# Poissons Ratio (x) = 0.72268 0.10520
# Poissons Ratio (y) = 0.15236 0.03635
# Poissons Ratio (z) = 0.03991 0.06540
#
# Static dielectric constant tensor:
#      x y z
#    x 1.955900 0.000000 0.000000 
#    y 0.000000 2.071920 0.000000 
#    z 0.000000 0.000000 1.962370 
# 
# From -- ./inp_files/15245.got.cif
#   From: 2010.05.17/outbox.cif.g08.bks.cpg/sg56_8_cif.got.tgz:15245.got - 2010.06.03 13:42:01.
