data_PCOD9432337
_publ_section_title
;
Structure prediction by ZEFSAII (Michael W. Deem and Ramdas Pophale) SiO2 
 PCOD9432337
Probable space group: P C C N
;
_chemical_formula_sum "Si O2"
_cell_formula_units_Z 56
_cell_length_a 13.194582
_cell_length_b 12.307558
_cell_length_c 15.794077
_cell_angle_alpha 90.000000
_cell_angle_beta 90.000000
_cell_angle_gamma 90.000000
_cell_volume 2564.848861
_symmetry_space_group_name_H-M "P C C N"
_symmetry_group_IT_number 56
_symmetry_cell_setting 'orthorhombic'
loop_
_space_group_symop_operation_xyz
x,y,z
1/2-x,1/2-y,z
1/2+x,-y,1/2-z
-x,1/2+y,1/2-z
-x,-y,-z
1/2+x,1/2+y,-z
1/2-x,y,1/2+z
x,1/2-y,1/2+z
loop_
_atom_site_type_symbol
_atom_site_label
_atom_site_fract_x
_atom_site_fract_y
_atom_site_fract_z
Si Si1 0.534350 0.603541 0.924411
Si Si2 0.638279 0.571025 0.074953
Si Si3 0.100506 0.090158 0.254520
Si Si4 0.933561 0.327358 0.038749
Si Si5 0.775689 0.458812 0.736669
Si Si6 0.250000 0.250000 0.338542
Si Si7 0.067175 0.983254 0.618289
Si Si8 0.750000 0.250000 0.656480
O O1 0.467776 0.493418 0.916027
O O2 0.550618 0.637241 0.828570
O O3 0.479413 0.704847 0.971646
O O4 0.639239 0.576741 0.973249
O O5 0.707535 0.505399 0.140858
O O6 0.664023 0.691676 0.105666
O O7 0.191916 0.166800 0.280146
O O8 0.024013 0.073199 0.330352
O O9 0.159192 0.976937 0.237566
O O10 0.835419 0.306778 0.098118
O O11 0.019917 0.405574 0.080160
O O12 0.902423 0.397881 0.955669
O O13 0.847766 0.504357 0.810180
O O14 0.802038 0.334918 0.719305
#
# Coordination Sequence:
#
# PCOD9432337 Si02
#       8
#     8   8   8   8   8   4   8   4
#     4  11  23  42  67  97 129 184 223 277 349 415
#     4  10  22  43  64  93 134 169 223 275 341 409
#     4  11  23  42  68  99 135 176 228 285 342 414
#     4  11  25  43  71  96 140 185 225 289 349 421
#     4  11  24  45  69 101 132 180 229 289 341 418
#     4  10  24  40  66 100 132 176 222 288 336 406
#     4  11  24  47  67  99 138 180 232 282 352 416
#     4  12  22  46  68 104 138 182 232 286 350 410
#
# _framework density 21.833646999999999
#
# number of rings (size 3 to 8) (size 9 to 14) (size 15 to 20)
#    0.000    1.143    4.286    0.857    4.000    2.286 
#   12.857    0.000    0.000    0.000    0.000    0.000 
#    0.000    0.000    0.000    0.000    0.000    0.000 
#
# Total GULP energy -311752.076711 kJ/mol
# GULP energy per Si atom -5567.001370 kJ/mol
# Density = 2.178395 g / cm^3
# Si number density = 21.833647 Si / 1000 Ang^3
#
#
#
# Elastic Constant Matrix: (Units=GPa)
#
#
# Indices 1 2 3 4 5 6 
#
# 1 42.3811 18.1265 2.9080 0.0000 0.0000 0.0000
# 2 18.1265 91.6136 29.5146 0.0000 0.0000 0.0000
# 3 2.9080 29.5146 43.9961 0.0000 0.0000 0.0000
# 4 0.0000 0.0000 0.0000 24.0346 0.0000 0.0000
# 5 0.0000 0.0000 0.0000 0.0000 16.2248 0.0000
# 6 0.0000 0.0000 0.0000 0.0000 0.0000 28.6753
#
#
#
# Elastic Compliance Matrix: (Units=1/GPa)
#
#
# Indices 1 2 3 4 5 6 
#
# 1 0.025943 -0.005844 0.002205 0.000000 0.000000 0.000000
# 2 -0.005844 0.015241 -0.009838 0.000000 0.000000 0.000000
# 3 0.002205 -0.009838 0.029183 0.000000 0.000000 0.000000
# 4 0.000000 0.000000 0.000000 0.041607 0.000000 0.000000
# 5 0.000000 0.000000 0.000000 0.000000 0.061634 0.000000
# 6 0.000000 0.000000 0.000000 0.000000 0.000000 0.034873
#
#
# Mechanical properties :
#
#
# Convention : Reuss Voigt Hill
#
# Bulk Modulus (GPa) = 23.03344 31.00989 27.02167
# Shear Modulus (GPa) = 20.00747 22.28305 21.14526
#
# Velocity S-wave (km/s) = 3.03043 3.19812 3.11540
# Velocity P-wave (km/s) = 4.77672 5.27929 5.03428
#
# Compressibility (1/GPa) = 0.04341514
#
# Stress axis : x y z
#
# Youngs Moduli (GPa) = 38.54537 65.61189 34.26597
#
# Poissons Ratio (x) = 0.38341 -0.07557
# Poissons Ratio (y) = 0.22524 0.33712
# Poissons Ratio (z) = -0.08501 0.64550
#
# Static dielectric constant tensor:
#      x y z
#    x 1.854280 0.000000 0.000000 
#    y 0.000000 1.991200 0.000000 
#    z 0.000000 0.000000 1.869150 
# 
# From -- ./inp_files/12306.got.cif
#   From: 2010.05.17/outbox.cif.g08.bks.cpg/sg56_7_cif.got.tgz:12306.got - 2010.06.03 13:42:01.
