data_PCOD9432823
_publ_section_title
;
Structure prediction by ZEFSAII (Michael W. Deem and Ramdas Pophale) SiO2 
 PCOD9432823
Probable space group: P C C N
;
_chemical_formula_sum "Si O2"
_cell_formula_units_Z 60
_cell_length_a 18.071323
_cell_length_b 16.083263
_cell_length_c 9.755462
_cell_angle_alpha 90.000000
_cell_angle_beta 90.000000
_cell_angle_gamma 90.000000
_cell_volume 2835.384453
_symmetry_space_group_name_H-M "P C C N"
_symmetry_group_IT_number 56
_symmetry_cell_setting 'orthorhombic'
loop_
_space_group_symop_operation_xyz
x,y,z
1/2-x,1/2-y,z
1/2+x,-y,1/2-z
-x,1/2+y,1/2-z
-x,-y,-z
1/2+x,1/2+y,-z
1/2-x,y,1/2+z
x,1/2-y,1/2+z
loop_
_atom_site_type_symbol
_atom_site_label
_atom_site_fract_x
_atom_site_fract_y
_atom_site_fract_z
Si Si1 0.061963 0.963645 0.401488
Si Si2 0.183481 0.107622 0.356013
Si Si3 0.420227 0.247704 0.458426
Si Si4 0.958612 0.979228 0.864902
Si Si5 0.822333 0.596820 0.455985
Si Si6 0.149102 0.797360 0.414954
Si Si7 0.510401 0.290806 0.204594
Si Si8 0.750000 0.250000 0.826133
O O1 0.101281 0.879512 0.441829
O O2 0.124365 0.033652 0.375326
O O3 0.026115 0.954221 0.251972
O O4 0.000000 0.000000 0.500000
O O5 0.142505 0.187590 0.416867
O O6 0.201446 0.126985 0.196548
O O7 0.254611 0.084451 0.444239
O O8 0.379063 0.159584 0.469404
O O9 0.489150 0.259742 0.355494
O O10 0.453836 0.260075 0.608238
O O11 0.873019 0.980288 0.912373
O O12 0.985778 0.887889 0.811095
O O13 0.000000 0.000000 0.000000
O O14 0.091864 0.728006 0.354565
O O15 0.188645 0.778630 0.560770
O O16 0.207795 0.808582 0.287573
#
# Coordination Sequence:
#
# PCOD9432823 Si02
#       8
#     8   8   8   8   8   8   8   4
#     4  11  25  44  68 101 133 174 225 286 343 405
#     4  11  23  43  57  96 135 167 225 266 335 403
#     4  11  20  39  61  96 131 168 218 268 328 400
#     4  10  24  45  63  99 131 170 226 274 345 397
#     4  10  24  38  62  90 129 180 208 273 327 405
#     4  11  25  44  74  97 137 180 234 287 346 410
#     4  11  23  40  70  96 131 173 221 282 326 408
#     4  10  26  48  66 104 130 186 238 282 346 408
#
# _framework density 21.161151
#
# number of rings (size 3 to 8) (size 9 to 14) (size 15 to 20)
#    0.000    1.333    4.000    2.000    9.333    4.267 
#    2.400    0.000    0.000    0.000    0.000    0.000 
#    0.000    0.000    0.000    0.000    0.000    0.000 
#
# Total GULP energy -334455.557465 kJ/mol
# GULP energy per Si atom -5574.259291 kJ/mol
# Density = 2.111299 g / cm^3
# Si number density = 21.161151 Si / 1000 Ang^3
#
#
#
# Elastic Constant Matrix: (Units=GPa)
#
#
# Indices 1 2 3 4 5 6 
#
# 1 94.5907 12.7884 36.2188 0.0000 0.0000 0.0000
# 2 12.7884 37.2600 16.8315 0.0000 0.0000 0.0000
# 3 36.2188 16.8315 113.2589 0.0000 0.0000 0.0000
# 4 0.0000 0.0000 0.0000 23.4638 0.0000 0.0000
# 5 0.0000 0.0000 0.0000 0.0000 50.0583 0.0000
# 6 0.0000 0.0000 0.0000 0.0000 0.0000 22.0143
#
#
#
# Elastic Compliance Matrix: (Units=1/GPa)
#
#
# Indices 1 2 3 4 5 6 
#
# 1 0.012280 -0.002617 -0.003538 0.000000 0.000000 0.000000
# 2 -0.002617 0.029327 -0.003522 0.000000 0.000000 0.000000
# 3 -0.003538 -0.003522 0.010484 0.000000 0.000000 0.000000
# 4 0.000000 0.000000 0.000000 0.042619 0.000000 0.000000
# 5 0.000000 0.000000 0.000000 0.000000 0.019977 0.000000
# 6 0.000000 0.000000 0.000000 0.000000 0.000000 0.045425
#
#
# Mechanical properties :
#
#
# Convention : Reuss Voigt Hill
#
# Bulk Modulus (GPa) = 30.54457 41.86524 36.20490
# Shear Modulus (GPa) = 26.26346 31.05864 28.66105
#
# Velocity S-wave (km/s) = 3.52677 3.83524 3.68423
# Velocity P-wave (km/s) = 5.57223 6.28005 5.93670
#
# Compressibility (1/GPa) = 0.03273904
#
# Stress axis : x y z
#
# Youngs Moduli (GPa) = 81.43039 34.09786 95.38177
#
# Poissons Ratio (x) = 0.08922 0.33749
# Poissons Ratio (y) = 0.21307 0.33590
# Poissons Ratio (z) = 0.28812 0.12008
#
# Static dielectric constant tensor:
#      x y z
#    x 1.942010 0.000000 0.000000 
#    y 0.000000 1.788580 0.000000 
#    z 0.000000 0.000000 1.783940 
# 
# From -- ./inp_files/4141.got.cif
#   From: 2010.05.17/outbox.cif.g08.bks.cpg/sg56_3_cif.got.tgz:4141.got - 2010.06.03 13:42:01.
