data_PCOD9432359
_publ_section_title
;
Structure prediction by ZEFSAII (Michael W. Deem and Ramdas Pophale) SiO2 
 PCOD9432359
Probable space group: P C C N
;
_chemical_formula_sum "Si O2"
_cell_formula_units_Z 48
_cell_length_a 14.683366
_cell_length_b 14.425854
_cell_length_c 9.830943
_cell_angle_alpha 90.000000
_cell_angle_beta 90.000000
_cell_angle_gamma 90.000000
_cell_volume 2082.391272
_symmetry_space_group_name_H-M "P C C N"
_symmetry_group_IT_number 56
_symmetry_cell_setting 'orthorhombic'
loop_
_space_group_symop_operation_xyz
x,y,z
1/2-x,1/2-y,z
1/2+x,-y,1/2-z
-x,1/2+y,1/2-z
-x,-y,-z
1/2+x,1/2+y,-z
1/2-x,y,1/2+z
x,1/2-y,1/2+z
loop_
_atom_site_type_symbol
_atom_site_label
_atom_site_fract_x
_atom_site_fract_y
_atom_site_fract_z
Si Si1 0.954928 0.909028 0.700069
Si Si2 0.691632 0.024388 0.073383
Si Si3 0.854309 0.095535 0.198328
Si Si4 0.481729 0.203482 0.362106
Si Si5 0.869824 0.547574 0.487788
Si Si6 0.602412 0.289884 0.606229
O O1 0.936427 0.799538 0.687852
O O2 0.585742 0.940583 0.343350
O O3 0.063427 0.923869 0.699887
O O4 0.899674 0.967935 0.592792
O O5 0.757173 0.045065 0.206510
O O6 0.664781 0.130425 0.040672
O O7 0.760322 0.960800 0.986939
O O8 0.845835 0.204710 0.178337
O O9 0.891732 0.051373 0.056526
O O10 0.410863 0.127048 0.414522
O O11 0.541715 0.241613 0.489324
O O12 0.541252 0.169920 0.231514
#
# Coordination Sequence:
#
# PCOD9432359 Si02
#       6
#     8   8   8   8   8   8
#     4  11  22  44  70  97 142 188 239 294 358 422
#     4  10  25  39  68 106 138 181 240 293 352 427
#     4   9  21  41  69  98 140 183 233 279 371 412
#     4  11  23  43  72 101 138 191 236 286 362 425
#     4  10  22  43  67  98 136 190 232 292 358 429
#     4  11  23  42  71 106 141 180 237 299 352 424
#
# _framework density 23.050422000000001
#
# number of rings (size 3 to 8) (size 9 to 14) (size 15 to 20)
#    1.000    0.667    3.333    2.000    2.333    4.000 
#    3.000    5.000    0.000    0.000    0.000    0.000 
#    0.000    0.000    0.000    0.000    0.000    0.000 
#
# Total GULP energy -267585.696007 kJ/mol
# GULP energy per Si atom -5574.702000 kJ/mol
# Density = 2.299796 g / cm^3
# Si number density = 23.050422 Si / 1000 Ang^3
#
#
#
# Elastic Constant Matrix: (Units=GPa)
#
#
# Indices 1 2 3 4 5 6 
#
# 1 112.8282 41.7813 31.8535 0.0000 0.0000 0.0000
# 2 41.7813 79.9292 2.7659 0.0000 0.0000 0.0000
# 3 31.8535 2.7659 77.5525 0.0000 0.0000 0.0000
# 4 0.0000 0.0000 0.0000 33.3380 0.0000 0.0000
# 5 0.0000 0.0000 0.0000 0.0000 15.6940 0.0000
# 6 0.0000 0.0000 0.0000 0.0000 0.0000 51.9080
#
#
#
# Elastic Compliance Matrix: (Units=1/GPa)
#
#
# Indices 1 2 3 4 5 6 
#
# 1 0.012650 -0.006441 -0.004966 0.000000 0.000000 0.000000
# 2 -0.006441 0.015806 0.002082 0.000000 0.000000 0.000000
# 3 -0.004966 0.002082 0.014860 0.000000 0.000000 0.000000
# 4 0.000000 0.000000 0.000000 0.029996 0.000000 0.000000
# 5 0.000000 0.000000 0.000000 0.000000 0.063719 0.000000
# 6 0.000000 0.000000 0.000000 0.000000 0.000000 0.019265
#
#
# Mechanical properties :
#
#
# Convention : Reuss Voigt Hill
#
# Bulk Modulus (GPa) = 40.54225 47.01237 43.77731
# Shear Modulus (GPa) = 27.29742 33.11527 30.20635
#
# Velocity S-wave (km/s) = 3.44502 3.79442 3.62394
# Velocity P-wave (km/s) = 5.78368 6.29576 6.04514
#
# Compressibility (1/GPa) = 0.02466562
#
# Stress axis : x y z
#
# Youngs Moduli (GPa) = 79.05064 63.26797 67.29475
#
# Poissons Ratio (x) = 0.40749 0.33419
# Poissons Ratio (y) = 0.50914 -0.14009
# Poissons Ratio (z) = 0.39258 -0.13171
#
# Static dielectric constant tensor:
#      x y z
#    x 1.930760 0.000000 0.000000 
#    y 0.000000 1.832640 0.000000 
#    z 0.000000 0.000000 1.914050 
# 
# From -- ./inp_files/7803.got.cif
#   From: 2010.05.17/outbox.cif.g08.bks.cpg/sg56_4_cif.got.tgz:7803.got - 2010.06.03 13:42:01.
