data_PCOD9432021
_publ_section_title
;
Structure prediction by ZEFSAII (Michael W. Deem and Ramdas Pophale) SiO2 
 PCOD9432021
Probable space group: P C C N
;
_chemical_formula_sum "Si O2"
_cell_formula_units_Z 44
_cell_length_a 31.965151
_cell_length_b 7.418236
_cell_length_c 8.757873
_cell_angle_alpha 90.000000
_cell_angle_beta 90.000000
_cell_angle_gamma 90.000000
_cell_volume 2076.710932
_symmetry_space_group_name_H-M "P C C N"
_symmetry_group_IT_number 56
_symmetry_cell_setting 'orthorhombic'
loop_
_space_group_symop_operation_xyz
x,y,z
1/2-x,1/2-y,z
1/2+x,-y,1/2-z
-x,1/2+y,1/2-z
-x,-y,-z
1/2+x,1/2+y,-z
1/2-x,y,1/2+z
x,1/2-y,1/2+z
loop_
_atom_site_type_symbol
_atom_site_label
_atom_site_fract_x
_atom_site_fract_y
_atom_site_fract_z
Si Si1 0.190132 0.631584 0.805278
Si Si2 0.370352 0.358687 0.165209
Si Si3 0.250000 0.750000 0.557107
Si Si4 0.043471 0.983806 0.793503
Si Si5 0.537175 0.714216 0.907973
Si Si6 0.637367 0.010042 0.672931
O O1 0.154035 0.485296 0.783841
O O2 0.221697 0.624253 0.663238
O O3 0.169339 0.829473 0.802625
O O4 0.219155 0.630739 0.953654
O O5 0.420937 0.370341 0.168568
O O6 0.359575 0.152491 0.206093
O O7 0.358297 0.422745 0.995165
O O8 0.040036 0.074169 0.627529
O O9 0.090178 0.910999 0.814334
O O10 0.039093 0.145869 0.918487
O O11 0.005969 0.853192 0.835024
#
# Coordination Sequence:
#
# PCOD9432021 Si02
#       6
#     8   8   4   8   8   8
#     4  11  22  44  64  88 122 158 196 254 310 361
#     4  10  22  39  62  90 122 164 203 244 300 362
#     4  10  24  42  66  90 120 148 204 258 302 374
#     4   9  19  35  53  82 120 154 200 241 281 344
#     4   9  19  35  53  82 120 154 200 241 281 344
#     4  10  22  39  62  90 122 164 203 244 300 362
#
# _framework density 21.187349000000001
#
# number of rings (size 3 to 8) (size 9 to 14) (size 15 to 20)
#    0.000    2.182    1.818    0.000    5.091    0.727 
#    0.000    5.455    0.000    0.000    0.000    0.000 
#    0.000    0.000    0.000    0.000    0.000    0.000 
#
# Total GULP energy -245622.070558 kJ/mol
# GULP energy per Si atom -5582.319785 kJ/mol
# Density = 2.113913 g / cm^3
# Si number density = 21.187349 Si / 1000 Ang^3
#
#
#
# Elastic Constant Matrix: (Units=GPa)
#
#
# Indices 1 2 3 4 5 6 
#
# 1 97.3056 42.5812 39.2533 0.0000 0.0000 0.0000
# 2 42.5812 55.1057 11.8843 0.0000 0.0000 0.0000
# 3 39.2533 11.8843 45.4657 0.0000 0.0000 0.0000
# 4 0.0000 0.0000 0.0000 19.2105 0.0000 0.0000
# 5 0.0000 0.0000 0.0000 0.0000 24.1752 0.0000
# 6 0.0000 0.0000 0.0000 0.0000 0.0000 20.0886
#
#
#
# Elastic Compliance Matrix: (Units=1/GPa)
#
#
# Indices 1 2 3 4 5 6 
#
# 1 0.023081 -0.014346 -0.016177 0.000000 0.000000 0.000000
# 2 -0.014346 0.028148 0.005028 0.000000 0.000000 0.000000
# 3 -0.016177 0.005028 0.034647 0.000000 0.000000 0.000000
# 4 0.000000 0.000000 0.000000 0.052055 0.000000 0.000000
# 5 0.000000 0.000000 0.000000 0.000000 0.041365 0.000000
# 6 0.000000 0.000000 0.000000 0.000000 0.000000 0.049779
#
#
# Mechanical properties :
#
#
# Convention : Reuss Voigt Hill
#
# Bulk Modulus (GPa) = 28.66496 42.81276 35.73886
# Shear Modulus (GPa) = 17.14134 19.63876 18.39005
#
# Velocity S-wave (km/s) = 2.84744 3.04782 2.94933
# Velocity P-wave (km/s) = 4.93652 5.71281 5.33880
#
# Compressibility (1/GPa) = 0.03488580
#
# Stress axis : x y z
#
# Youngs Moduli (GPa) = 43.32645 35.52656 28.86264
#
# Poissons Ratio (x) = 0.50966 0.46691
# Poissons Ratio (y) = 0.62156 -0.14513
# Poissons Ratio (z) = 0.70089 -0.17863
#
# Static dielectric constant tensor:
#      x y z
#    x 1.761270 0.000000 0.000000 
#    y 0.000000 1.724700 0.000000 
#    z 0.000000 0.000000 1.791550 
# 
# From -- ./inp_files/2177.got.cif
#   From: 2010.05.17/outbox.cif.g08.bks.cpg/sg56_2_cif.got.tgz:2177.got - 2010.06.03 13:42:01.
