data_PCOD9432380
_publ_section_title
;
Structure prediction by ZEFSAII (Michael W. Deem and Ramdas Pophale) SiO2 
 PCOD9432380
Probable space group: P C C N
;
_chemical_formula_sum "Si O2"
_cell_formula_units_Z 32
_cell_length_a 12.867945
_cell_length_b 11.365554
_cell_length_c 8.917863
_cell_angle_alpha 90.000000
_cell_angle_beta 90.000000
_cell_angle_gamma 90.000000
_cell_volume 1304.249269
_symmetry_space_group_name_H-M "P C C N"
_symmetry_group_IT_number 56
_symmetry_cell_setting 'orthorhombic'
loop_
_space_group_symop_operation_xyz
x,y,z
1/2-x,1/2-y,z
1/2+x,-y,1/2-z
-x,1/2+y,1/2-z
-x,-y,-z
1/2+x,1/2+y,-z
1/2-x,y,1/2+z
x,1/2-y,1/2+z
loop_
_atom_site_type_symbol
_atom_site_label
_atom_site_fract_x
_atom_site_fract_y
_atom_site_fract_z
Si Si1 0.995203 0.171997 0.832450
Si Si2 0.825547 0.984259 0.299250
Si Si3 0.168743 0.355895 0.895015
Si Si4 0.641925 0.205948 0.610056
O O1 0.923325 0.191379 0.688448
O O2 0.081491 0.076828 0.793494
O O3 0.927122 0.149360 0.979250
O O4 0.060770 0.292633 0.858483
O O5 0.839684 0.948720 0.470852
O O6 0.829678 0.116989 0.244605
O O7 0.719292 0.922060 0.245396
O O8 0.250000 0.250000 0.936980
O O9 0.750000 0.250000 0.544581
#
# Coordination Sequence:
#
# PCOD9432380 Si02
#       4
#     8   8   8   8
#     4  11  24  48  67  96 136 178 225 270 329 405
#     4  11  25  43  72  99 132 177 220 276 342 385
#     4  10  22  43  71 100 129 173 228 277 323 404
#     4  12  28  44  66  99 142 173 224 278 328 396
#
# _framework density 24.535187000000001
#
# number of rings (size 3 to 8) (size 9 to 14) (size 15 to 20)
#    0.000    1.000    2.500    3.750   10.500    3.000 
#    0.000    0.000    0.000    0.000    0.000    0.000 
#    0.000    0.000    0.000    0.000    0.000    0.000 
#
# Total GULP energy -179408.863233 kJ/mol
# GULP energy per Si atom -5606.526976 kJ/mol
# Density = 2.447934 g / cm^3
# Si number density = 24.535187 Si / 1000 Ang^3
#
#
#
# Elastic Constant Matrix: (Units=GPa)
#
#
# Indices 1 2 3 4 5 6 
#
# 1 106.5407 11.1625 27.4919 0.0000 0.0000 0.0000
# 2 11.1625 51.6034 -1.1524 0.0000 0.0000 0.0000
# 3 27.4919 -1.1524 85.1339 0.0000 0.0000 0.0000
# 4 0.0000 0.0000 0.0000 26.4936 0.0000 0.0000
# 5 0.0000 0.0000 0.0000 0.0000 25.1947 0.0000
# 6 0.0000 0.0000 0.0000 0.0000 0.0000 7.5843
#
#
#
# Elastic Compliance Matrix: (Units=1/GPa)
#
#
# Indices 1 2 3 4 5 6 
#
# 1 0.010517 -0.002352 -0.003428 0.000000 0.000000 0.000000
# 2 -0.002352 0.019910 0.001029 0.000000 0.000000 0.000000
# 3 -0.003428 0.001029 0.012867 0.000000 0.000000 0.000000
# 4 0.000000 0.000000 0.000000 0.037745 0.000000 0.000000
# 5 0.000000 0.000000 0.000000 0.000000 0.039691 0.000000
# 6 0.000000 0.000000 0.000000 0.000000 0.000000 0.131852
#
#
# Mechanical properties :
#
#
# Convention : Reuss Voigt Hill
#
# Bulk Modulus (GPa) = 29.59194 35.36466 32.47830
# Shear Modulus (GPa) = 18.29173 25.57292 21.93232
#
# Velocity S-wave (km/s) = 2.73340 3.23196 2.99308
# Velocity P-wave (km/s) = 4.69566 5.32659 5.02104
#
# Compressibility (1/GPa) = 0.03379299
#
# Stress axis : x y z
#
# Youngs Moduli (GPa) = 95.08382 50.22546 77.71741
#
# Poissons Ratio (x) = 0.11811 0.26642
# Poissons Ratio (y) = 0.22359 -0.07996
# Poissons Ratio (z) = 0.32595 -0.05168
#
# Static dielectric constant tensor:
#      x y z
#    x 1.922560 0.000000 0.000000 
#    y 0.000000 1.980180 0.000000 
#    z 0.000000 0.000000 1.873840 
# 
# From -- ./inp_files/2415.got.cif
#   From: 2010.05.17/outbox.cif.g08.bks.cpg/sg56_2_cif.got.tgz:2415.got - 2010.06.03 13:42:01.
