data_PCOD9432619
_publ_section_title
;
Structure prediction by ZEFSAII (Michael W. Deem and Ramdas Pophale) SiO2 
 PCOD9432619
Probable space group: P C C N
;
_chemical_formula_sum "Si O2"
_cell_formula_units_Z 32
_cell_length_a 10.922503
_cell_length_b 11.183476
_cell_length_c 12.654533
_cell_angle_alpha 90.000000
_cell_angle_beta 90.000000
_cell_angle_gamma 90.000000
_cell_volume 1545.770823
_symmetry_space_group_name_H-M "P C C N"
_symmetry_group_IT_number 56
_symmetry_cell_setting 'orthorhombic'
loop_
_space_group_symop_operation_xyz
x,y,z
1/2-x,1/2-y,z
1/2+x,-y,1/2-z
-x,1/2+y,1/2-z
-x,-y,-z
1/2+x,1/2+y,-z
1/2-x,y,1/2+z
x,1/2-y,1/2+z
loop_
_atom_site_type_symbol
_atom_site_label
_atom_site_fract_x
_atom_site_fract_y
_atom_site_fract_z
Si Si1 0.190920 0.595434 0.142784
Si Si2 0.706278 0.616188 0.207050
Si Si3 0.891144 0.052642 0.573716
Si Si4 0.947103 0.194659 0.777896
O O1 0.191579 0.461091 0.186626
O O2 0.077361 0.664662 0.200132
O O3 0.321435 0.643300 0.178013
O O4 0.187371 0.612254 0.018227
O O5 0.750000 0.750000 0.229144
O O6 0.803114 0.544051 0.133267
O O7 0.567032 0.639392 0.167401
O O8 0.942200 0.149117 0.656945
O O9 0.000000 0.000000 0.500000
#
# Coordination Sequence:
#
# PCOD9432619 Si02
#       4
#     8   8   8   8
#     4  10  23  42  66 100 136 179 222 287 342 407
#     4  11  24  41  67  98 133 182 229 282 344 407
#     4  11  22  44  70  98 140 180 220 287 346 403
#     4  10  23  43  68  96 138 173 229 285 340 415
#
# _framework density 20.701647000000001
#
# number of rings (size 3 to 8) (size 9 to 14) (size 15 to 20)
#    0.000    1.500    2.500    1.500    3.500   10.000 
#    4.500    0.000    0.000    0.000    0.000    0.000 
#    0.000    0.000    0.000    0.000    0.000    0.000 
#
# Total GULP energy -178150.770332 kJ/mol
# GULP energy per Si atom -5567.211573 kJ/mol
# Density = 2.065453 g / cm^3
# Si number density = 20.701647 Si / 1000 Ang^3
#
#
#
# Elastic Constant Matrix: (Units=GPa)
#
#
# Indices 1 2 3 4 5 6 
#
# 1 108.2404 27.2312 24.7655 0.0000 0.0000 0.0000
# 2 27.2312 121.5938 52.4717 0.0000 0.0000 0.0000
# 3 24.7655 52.4717 112.6688 0.0000 0.0000 0.0000
# 4 0.0000 0.0000 0.0000 12.7391 0.0000 0.0000
# 5 0.0000 0.0000 0.0000 0.0000 35.5669 0.0000
# 6 0.0000 0.0000 0.0000 0.0000 0.0000 16.6791
#
#
#
# Elastic Compliance Matrix: (Units=1/GPa)
#
#
# Indices 1 2 3 4 5 6 
#
# 1 0.009974 -0.001611 -0.001442 0.000000 0.000000 0.000000
# 2 -0.001611 0.010553 -0.004560 0.000000 0.000000 0.000000
# 3 -0.001442 -0.004560 0.011316 0.000000 0.000000 0.000000
# 4 0.000000 0.000000 0.000000 0.078499 0.000000 0.000000
# 5 0.000000 0.000000 0.000000 0.000000 0.028116 0.000000
# 6 0.000000 0.000000 0.000000 0.000000 0.000000 0.059955
#
#
# Mechanical properties :
#
#
# Convention : Reuss Voigt Hill
#
# Bulk Modulus (GPa) = 60.18398 61.27111 60.72754
# Shear Modulus (GPa) = 22.81233 28.86598 25.83915
#
# Velocity S-wave (km/s) = 3.32318 3.73819 3.53678
# Velocity P-wave (km/s) = 6.62268 6.94936 6.78798
#
# Compressibility (1/GPa) = 0.01661572
#
# Stress axis : x y z
#
# Youngs Moduli (GPa) = 100.26051 94.75978 88.36727
#
# Poissons Ratio (x) = 0.15270 0.12741
# Poissons Ratio (y) = 0.16157 0.40300
# Poissons Ratio (z) = 0.14456 0.43215
#
# Static dielectric constant tensor:
#      x y z
#    x 1.861060 0.000000 0.000000 
#    y 0.000000 1.904250 0.000000 
#    z 0.000000 0.000000 1.775620 
# 
# From -- ./inp_files/6775.got.cif
#   From: 2010.05.17/outbox.cif.g08.bks.cpg/sg56_4_cif.got.tgz:6775.got - 2010.06.03 13:42:01.
