data_PCOD9432600
_publ_section_title
;
Structure prediction by ZEFSAII (Michael W. Deem and Ramdas Pophale) SiO2 
 PCOD9432600
Probable space group: P C C N
;
_chemical_formula_sum "Si O2"
_cell_formula_units_Z 36
_cell_length_a 15.156894
_cell_length_b 5.326947
_cell_length_c 18.706294
_cell_angle_alpha 90.000000
_cell_angle_beta 90.000000
_cell_angle_gamma 90.000000
_cell_volume 1510.345636
_symmetry_space_group_name_H-M "P C C N"
_symmetry_group_IT_number 56
_symmetry_cell_setting 'orthorhombic'
loop_
_space_group_symop_operation_xyz
x,y,z
1/2-x,1/2-y,z
1/2+x,-y,1/2-z
-x,1/2+y,1/2-z
-x,-y,-z
1/2+x,1/2+y,-z
1/2-x,y,1/2+z
x,1/2-y,1/2+z
loop_
_atom_site_type_symbol
_atom_site_label
_atom_site_fract_x
_atom_site_fract_y
_atom_site_fract_z
Si Si1 0.159087 0.108961 0.254617
Si Si2 0.605147 0.980826 0.509484
Si Si3 0.091118 0.977628 0.407714
Si Si4 0.250000 0.750000 0.645808
Si Si5 0.390209 0.354201 0.616108
O O1 0.250000 0.250000 0.774697
O O2 0.105058 0.290869 0.200711
O O3 0.114677 0.999207 0.324577
O O4 0.185855 0.890524 0.201099
O O5 0.623163 0.736029 0.557309
O O6 0.634074 0.892631 0.430606
O O7 0.500000 0.000000 0.500000
O O8 0.630366 0.235512 0.550821
O O9 0.984228 0.955971 0.410937
O O10 0.313029 0.555298 0.605381
#
# Coordination Sequence:
#
# PCOD9432600 Si02
#       5
#     8   8   8   4   8
#     4  10  25  44  67 102 144 184 235 292 350 420
#     4  10  23  43  69 106 140 177 233 297 344 419
#     4  11  25  42  76 102 141 183 238 291 354 417
#     4  10  24  42  68  96 150 176 238 292 348 426
#     4  10  23  41  72 103 139 190 237 288 357 423
#
# _framework density 23.835604
#
# number of rings (size 3 to 8) (size 9 to 14) (size 15 to 20)
#    0.000    1.778    0.000    2.667   18.667    0.000 
#    0.000    4.444    0.000    0.000    0.000    0.000 
#    0.000    0.000    0.000    0.000    0.000    0.000 
#
# Total GULP energy -201249.815356 kJ/mol
# GULP energy per Si atom -5590.272649 kJ/mol
# Density = 2.378135 g / cm^3
# Si number density = 23.835604 Si / 1000 Ang^3
#
#
#
# Elastic Constant Matrix: (Units=GPa)
#
#
# Indices 1 2 3 4 5 6 
#
# 1 58.9296 30.7087 52.0075 0.0000 0.0000 0.0000
# 2 30.7087 169.2970 80.9744 0.0000 0.0000 0.0000
# 3 52.0075 80.9744 176.6907 0.0000 0.0000 0.0000
# 4 0.0000 0.0000 0.0000 32.4324 0.0000 0.0000
# 5 0.0000 0.0000 0.0000 0.0000 -11.5616 0.0000
# 6 0.0000 0.0000 0.0000 0.0000 0.0000 26.9896
#
#
#
# Elastic Compliance Matrix: (Units=1/GPa)
#
#
# Indices 1 2 3 4 5 6 
#
# 1 0.023114 -0.001202 -0.006253 0.000000 0.000000 0.000000
# 2 -0.001202 0.007628 -0.003142 0.000000 0.000000 0.000000
# 3 -0.006253 -0.003142 0.008940 0.000000 0.000000 0.000000
# 4 0.000000 0.000000 0.000000 0.030833 0.000000 0.000000
# 5 0.000000 0.000000 0.000000 0.000000 -0.086494 0.000000
# 6 0.000000 0.000000 0.000000 0.000000 0.000000 0.037051
#
#
# Mechanical properties :
#
#
# Convention : Reuss Voigt Hill
#
# Bulk Modulus (GPa) = 54.08749 81.36652 67.72701
# Shear Modulus (GPa) = 103.24640 25.65385 64.45013
#
# Velocity S-wave (km/s) = 6.58863 3.28423 5.20559
# Velocity P-wave (km/s) = 8.97893 6.97081 8.03783
#
# Compressibility (1/GPa) = 0.01848856
#
# Stress axis : x y z
#
# Youngs Moduli (GPa) = 43.26405 131.10432 111.85937
#
# Poissons Ratio (x) = 0.15759 0.69940
# Poissons Ratio (y) = 0.05201 0.35143
# Poissons Ratio (z) = 0.27051 0.41190
#
# Static dielectric constant tensor:
#      x y z
#    x 1.925890 0.000000 0.000000 
#    y 0.000000 1.997430 0.000000 
#    z 0.000000 0.000000 1.919330 
# 
# From -- ./inp_files/16438.got.cif
#   From: 2010.05.17/outbox.cif.g08.bks.cpg/sg56_9_cif.got.tgz:16438.got - 2010.06.03 13:42:01.
