data_PCOD9432770
_publ_section_title
;
Structure prediction by ZEFSAII (Michael W. Deem and Ramdas Pophale) SiO2 
 PCOD9432770
Probable space group: P C C N
;
_chemical_formula_sum "Si O2"
_cell_formula_units_Z 40
_cell_length_a 23.515525
_cell_length_b 7.184164
_cell_length_c 9.321939
_cell_angle_alpha 90.000000
_cell_angle_beta 90.000000
_cell_angle_gamma 90.000000
_cell_volume 1574.842671
_symmetry_space_group_name_H-M "P C C N"
_symmetry_group_IT_number 56
_symmetry_cell_setting 'orthorhombic'
loop_
_space_group_symop_operation_xyz
x,y,z
1/2-x,1/2-y,z
1/2+x,-y,1/2-z
-x,1/2+y,1/2-z
-x,-y,-z
1/2+x,1/2+y,-z
1/2-x,y,1/2+z
x,1/2-y,1/2+z
loop_
_atom_site_type_symbol
_atom_site_label
_atom_site_fract_x
_atom_site_fract_y
_atom_site_fract_z
Si Si1 0.033043 0.870426 0.794545
Si Si2 0.543730 0.746937 0.051814
Si Si3 0.880176 0.091063 0.583270
Si Si4 0.198378 0.619712 0.489208
Si Si5 0.233174 0.045033 0.259777
O O1 0.006984 0.854442 0.636458
O O2 0.075428 0.697982 0.815642
O O3 0.980867 0.834187 0.904754
O O4 0.058506 0.068590 0.846520
O O5 0.407639 0.399802 0.471235
O O6 0.858676 0.263749 0.485185
O O7 0.821294 0.031818 0.656094
O O8 0.250000 0.750000 0.039742
O O9 0.212527 0.569024 0.324240
O O10 0.210133 0.451937 0.596828
O O11 0.250000 0.250000 0.299857
#
# Coordination Sequence:
#
# PCOD9432770 Si02
#       5
#     8   8   8   8   8
#     4  11  25  45  69 103 151 181 246 291 358 424
#     4  11  25  45  68 108 143 190 238 302 346 438
#     4  11  25  43  75 101 141 194 234 290 371 418
#     4  10  23  46  70  98 143 180 235 296 354 424
#     4  11  25  47  70 108 141 182 239 299 358 434
#
# _framework density 25.399363000000001
#
# number of rings (size 3 to 8) (size 9 to 14) (size 15 to 20)
#    0.000    1.200    2.000    3.000    5.600    0.000 
#    7.200    0.000    0.000    0.000    0.000    0.000 
#    0.000    0.000    0.000    0.000    0.000    0.000 
#
# Total GULP energy -223415.741623 kJ/mol
# GULP energy per Si atom -5585.393541 kJ/mol
# Density = 2.534155 g / cm^3
# Si number density = 25.399363 Si / 1000 Ang^3
#
#
#
# Elastic Constant Matrix: (Units=GPa)
#
#
# Indices 1 2 3 4 5 6 
#
# 1 70.1402 41.0526 -0.6854 0.0000 0.0000 0.0000
# 2 41.0526 152.6706 15.1542 0.0000 0.0000 0.0000
# 3 -0.6854 15.1542 97.9815 0.0000 0.0000 0.0000
# 4 0.0000 0.0000 0.0000 24.3939 0.0000 0.0000
# 5 0.0000 0.0000 0.0000 0.0000 17.1773 0.0000
# 6 0.0000 0.0000 0.0000 0.0000 0.0000 53.3384
#
#
#
# Elastic Compliance Matrix: (Units=1/GPa)
#
#
# Indices 1 2 3 4 5 6 
#
# 1 0.016988 -0.004651 0.000838 0.000000 0.000000 0.000000
# 2 -0.004651 0.007926 -0.001258 0.000000 0.000000 0.000000
# 3 0.000838 -0.001258 0.010406 0.000000 0.000000 0.000000
# 4 0.000000 0.000000 0.000000 0.040994 0.000000 0.000000
# 5 0.000000 0.000000 0.000000 0.000000 0.058216 0.000000
# 6 0.000000 0.000000 0.000000 0.000000 0.000000 0.018748
#
#
# Mechanical properties :
#
#
# Convention : Reuss Voigt Hill
#
# Bulk Modulus (GPa) = 39.71846 47.98166 43.85006
# Shear Modulus (GPa) = 29.10137 36.66664 32.88401
#
# Velocity S-wave (km/s) = 3.38857 3.80360 3.60207
# Velocity P-wave (km/s) = 5.56609 6.18237 5.88231
#
# Compressibility (1/GPa) = 0.02517721
#
# Stress axis : x y z
#
# Youngs Moduli (GPa) = 58.86645 126.17316 96.09386
#
# Poissons Ratio (x) = 0.58684 -0.08054
# Poissons Ratio (y) = 0.27379 0.12092
# Poissons Ratio (z) = -0.04934 0.15877
#
# Static dielectric constant tensor:
#      x y z
#    x 2.009940 0.000000 0.000000 
#    y 0.000000 2.046450 0.000000 
#    z 0.000000 0.000000 2.048150 
# 
# From -- ./inp_files/4909.got.cif
#   From: 2010.05.17/outbox.cif.g08.bks.cpg/sg56_3_cif.got.tgz:4909.got - 2010.06.03 13:42:01.
