data_PCOD9432901
_publ_section_title
;
Structure prediction by ZEFSAII (Michael W. Deem and Ramdas Pophale) SiO2 
 PCOD9432901
Probable space group: P C C N
;
_chemical_formula_sum "Si O2"
_cell_formula_units_Z 36
_cell_length_a 12.696149
_cell_length_b 6.911670
_cell_length_c 17.036995
_cell_angle_alpha 90.000000
_cell_angle_beta 90.000000
_cell_angle_gamma 90.000000
_cell_volume 1495.023437
_symmetry_space_group_name_H-M "P C C N"
_symmetry_group_IT_number 56
_symmetry_cell_setting 'orthorhombic'
loop_
_space_group_symop_operation_xyz
x,y,z
1/2-x,1/2-y,z
1/2+x,-y,1/2-z
-x,1/2+y,1/2-z
-x,-y,-z
1/2+x,1/2+y,-z
1/2-x,y,1/2+z
x,1/2-y,1/2+z
loop_
_atom_site_type_symbol
_atom_site_label
_atom_site_fract_x
_atom_site_fract_y
_atom_site_fract_z
Si Si1 0.750000 0.750000 0.178508
Si Si2 0.355612 0.839228 0.132488
Si Si3 0.009775 0.134852 0.576217
Si Si4 0.038837 0.052038 0.877343
Si Si5 0.104901 0.569119 0.764864
O O1 0.842161 0.864394 0.129196
O O2 0.808982 0.597270 0.233749
O O3 0.250000 0.750000 0.096403
O O4 0.457166 0.721405 0.101341
O O5 0.356260 0.762744 0.222152
O O6 0.379223 0.061482 0.113996
O O7 0.989828 0.363942 0.571434
O O8 0.926388 0.087084 0.645040
O O9 0.000000 0.000000 0.500000
O O10 0.993832 0.006668 0.789177
#
# Coordination Sequence:
#
# PCOD9432901 Si02
#       5
#     4   8   8   8   8
#     4  12  22  44  76 114 138 198 252 322 378 432
#     4  10  25  45  71 107 143 193 258 302 375 437
#     4  12  25  47  69 109 153 196 244 308 387 454
#     4  10  25  43  77 102 148 185 257 307 367 447
#     4  10  24  42  73 105 142 191 251 308 362 446
#
# _framework density 24.079889999999999
#
# number of rings (size 3 to 8) (size 9 to 14) (size 15 to 20)
#    1.333    0.000    2.222    2.667    9.333    1.778 
#    4.000    0.000    0.000    1.333    0.000    0.000 
#    0.000    0.000    0.000    0.000    0.000    0.000 
#
# Total GULP energy -200432.084648 kJ/mol
# GULP energy per Si atom -5567.557907 kJ/mol
# Density = 2.402508 g / cm^3
# Si number density = 24.079890 Si / 1000 Ang^3
#
#
#
# Elastic Constant Matrix: (Units=GPa)
#
#
# Indices 1 2 3 4 5 6 
#
# 1 166.1677 71.6308 20.3453 0.0000 0.0000 0.0000
# 2 71.6308 148.3984 57.9791 0.0000 0.0000 0.0000
# 3 20.3453 57.9791 117.7995 0.0000 0.0000 0.0000
# 4 0.0000 0.0000 0.0000 -36.4049 0.0000 0.0000
# 5 0.0000 0.0000 0.0000 0.0000 -15.8271 0.0000
# 6 0.0000 0.0000 0.0000 0.0000 0.0000 61.0525
#
#
#
# Elastic Compliance Matrix: (Units=1/GPa)
#
#
# Indices 1 2 3 4 5 6 
#
# 1 0.007635 -0.003925 0.000613 0.000000 0.000000 0.000000
# 2 -0.003925 0.010361 -0.004421 0.000000 0.000000 0.000000
# 3 0.000613 -0.004421 0.010559 0.000000 0.000000 0.000000
# 4 0.000000 0.000000 0.000000 -0.027469 0.000000 0.000000
# 5 0.000000 0.000000 0.000000 0.000000 -0.063183 0.000000
# 6 0.000000 0.000000 0.000000 0.000000 0.000000 0.016379
#
#
# Mechanical properties :
#
#
# Convention : Reuss Voigt Hill
#
# Bulk Modulus (GPa) = 76.40372 81.36398 78.88385
# Shear Modulus (GPa) = -193.13489 20.59148 -86.27171
#
# Velocity S-wave (km/s) = -8.96549 2.92744 -5.99208
# Velocity P-wave (km/s) = 8.68189 6.72971 3.87854
#
# Compressibility (1/GPa) = 0.01308837
#
# Stress axis : x y z
#
# Youngs Moduli (GPa) = 130.97846 96.51995 94.70348
#
# Poissons Ratio (x) = 0.37882 -0.05806
# Poissons Ratio (y) = 0.51407 0.41873
# Poissons Ratio (z) = -0.08030 0.42676
#
# Static dielectric constant tensor:
#      x y z
#    x 2.004000 0.000000 0.000000 
#    y 0.000000 1.846640 0.000000 
#    z 0.000000 0.000000 2.026200 
# 
# From -- ./inp_files/12036.got.cif
#   From: 2010.05.17/outbox.cif.g08.bks.cpg/sg56_7_cif.got.tgz:12036.got - 2010.06.03 13:42:01.
