data_PCOD9432521
_publ_section_title
;
Structure prediction by ZEFSAII (Michael W. Deem and Ramdas Pophale) SiO2 
 PCOD9432521
Probable space group: P C C N
;
_chemical_formula_sum "Si O2"
_cell_formula_units_Z 52
_cell_length_a 20.427631
_cell_length_b 5.791819
_cell_length_c 14.125380
_cell_angle_alpha 90.000000
_cell_angle_beta 90.000000
_cell_angle_gamma 90.000000
_cell_volume 1671.218081
_symmetry_space_group_name_H-M "P C C N"
_symmetry_group_IT_number 56
_symmetry_cell_setting 'orthorhombic'
loop_
_space_group_symop_operation_xyz
x,y,z
1/2-x,1/2-y,z
1/2+x,-y,1/2-z
-x,1/2+y,1/2-z
-x,-y,-z
1/2+x,1/2+y,-z
1/2-x,y,1/2+z
x,1/2-y,1/2+z
loop_
_atom_site_type_symbol
_atom_site_label
_atom_site_fract_x
_atom_site_fract_y
_atom_site_fract_z
Si Si1 0.007920 0.002930 0.113738
Si Si2 0.367546 0.456155 0.330848
Si Si3 0.987232 0.500932 0.886295
Si Si4 0.356922 0.025822 0.383432
Si Si5 0.170492 0.737165 0.562594
Si Si6 0.670656 0.735486 0.350989
Si Si7 0.750000 0.250000 0.675155
O O1 0.933181 0.000644 0.150987
O O2 0.041509 0.247252 0.137287
O O3 0.038424 0.754469 0.137923
O O4 0.000000 0.000000 0.000000
O O5 0.443287 0.509370 0.331582
O O6 0.349071 0.239971 0.260537
O O7 0.320213 0.655381 0.288954
O O8 0.357500 0.292159 0.423442
O O9 0.000000 0.500000 0.000000
O O10 0.359355 0.797762 0.457905
O O11 0.278256 0.980996 0.368266
O O12 0.250000 0.750000 0.558739
O O13 0.153314 0.485606 0.605363
O O14 0.152660 0.982481 0.609114
O O15 0.750000 0.750000 0.352685
#
# Coordination Sequence:
#
# PCOD9432521 Si02
#       7
#     8   8   8   8   8   8   4
#     4   9  18  33  54  84 117 150 200 257 310 362
#     4  11  24  36  59  93 132 167 213 267 325 380
#     4   9  18  34  55  84 116 155 201 254 307 360
#     4  11  22  36  58  90 125 163 213 267 322 375
#     4  10  23  38  57  79 123 174 209 252 309 388
#     4  10  23  39  55  81 125 175 212 244 314 392
#     4  12  22  32  58  92 134 156 216 264 332 374
#
# _framework density 31.115030999999998
#
# number of rings (size 3 to 8) (size 9 to 14) (size 15 to 20)
#    0.000    1.846    2.308    1.385    7.538    1.231 
#    0.000    0.000    0.000    0.000    0.000   38.769 
#    0.000    0.000    0.000    0.000    0.000    0.000 
#
# Total GULP energy -290064.382959 kJ/mol
# GULP energy per Si atom -5578.161211 kJ/mol
# Density = 3.104421 g / cm^3
# Si number density = 31.115031 Si / 1000 Ang^3
#
#
#
# Elastic Constant Matrix: (Units=GPa)
#
#
# Indices 1 2 3 4 5 6 
#
# 1 121.7586 98.2800 -2.2749 0.0000 0.0000 0.0000
# 2 98.2800 238.3252 -23.3105 0.0000 0.0000 0.0000
# 3 -2.2749 -23.3105 29.6592 0.0000 0.0000 0.0000
# 4 0.0000 0.0000 0.0000 34.5572 0.0000 0.0000
# 5 0.0000 0.0000 0.0000 0.0000 37.4478 0.0000
# 6 0.0000 0.0000 0.0000 0.0000 0.0000 192.7393
#
#
#
# Elastic Compliance Matrix: (Units=1/GPa)
#
#
# Indices 1 2 3 4 5 6 
#
# 1 0.012616 -0.005533 -0.003381 0.000000 0.000000 0.000000
# 2 -0.005533 0.006972 0.005055 0.000000 0.000000 0.000000
# 3 -0.003381 0.005055 0.037430 0.000000 0.000000 0.000000
# 4 0.000000 0.000000 0.000000 0.028938 0.000000 0.000000
# 5 0.000000 0.000000 0.000000 0.000000 0.026704 0.000000
# 6 0.000000 0.000000 0.000000 0.000000 0.000000 0.005188
#
#
# Mechanical properties :
#
#
# Convention : Reuss Voigt Hill
#
# Bulk Modulus (GPa) = 20.28384 59.45913 39.87148
# Shear Modulus (GPa) = 35.21122 74.08540 54.64831
#
# Velocity S-wave (km/s) = 3.36765 4.88486 4.19541
# Velocity P-wave (km/s) = 4.65344 7.13910 6.02583
#
# Compressibility (1/GPa) = 0.04930033
#
# Stress axis : x y z
#
# Youngs Moduli (GPa) = 79.26358 143.42612 26.71634
#
# Poissons Ratio (x) = 0.79362 0.09033
# Poissons Ratio (y) = 0.43859 -0.13506
# Poissons Ratio (z) = 0.26801 -0.72507
#
# Static dielectric constant tensor:
#      x y z
#    x 2.450830 0.000000 0.000000 
#    y 0.000000 8.468710 0.000000 
#    z 0.000000 0.000000 3.287660 
# 
# From -- ./inp_files/17008.got.cif
#   From: 2010.05.17/outbox.cif.g08.bks.cpg/sg56_9_cif.got.tgz:17008.got - 2010.06.03 13:42:01.
