data_PCOD9432131
_publ_section_title
;
Structure prediction by ZEFSAII (Michael W. Deem and Ramdas Pophale) SiO2 
 PCOD9432131
Probable space group: P C C N
;
_chemical_formula_sum "Si O2"
_cell_formula_units_Z 56
_cell_length_a 20.536766
_cell_length_b 9.129813
_cell_length_c 13.705428
_cell_angle_alpha 90.000000
_cell_angle_beta 90.000000
_cell_angle_gamma 90.000000
_cell_volume 2569.724348
_symmetry_space_group_name_H-M "P C C N"
_symmetry_group_IT_number 56
_symmetry_cell_setting 'orthorhombic'
loop_
_space_group_symop_operation_xyz
x,y,z
1/2-x,1/2-y,z
1/2+x,-y,1/2-z
-x,1/2+y,1/2-z
-x,-y,-z
1/2+x,1/2+y,-z
1/2-x,y,1/2+z
x,1/2-y,1/2+z
loop_
_atom_site_type_symbol
_atom_site_label
_atom_site_fract_x
_atom_site_fract_y
_atom_site_fract_z
Si Si1 0.785254 0.387615 0.468538
Si Si2 0.455491 0.951567 0.857916
Si Si3 0.883068 0.201204 0.805916
Si Si4 0.096684 0.461502 0.230709
Si Si5 0.193976 0.345357 0.075470
Si Si6 0.996199 0.259406 0.961879
Si Si7 0.122484 0.117659 0.945119
O O1 0.750000 0.250000 0.516529
O O2 0.818521 0.338755 0.366489
O O3 0.728736 0.506309 0.455101
O O4 0.843043 0.466673 0.525926
O O5 0.398498 0.909437 0.782939
O O6 0.520779 0.948254 0.792844
O O7 0.461188 0.108780 0.911367
O O8 0.461794 0.831678 0.944280
O O9 0.882739 0.368052 0.767025
O O10 0.942714 0.205104 0.884619
O O11 0.134123 0.384174 0.143037
O O12 0.114101 0.382623 0.330163
O O13 0.250000 0.250000 0.127915
O O14 0.168314 0.245021 0.987675
O O15 0.050421 0.140072 0.989226
#
# Coordination Sequence:
#
# PCOD9432131 Si02
#       7
#     8   8   8   8   8   8   8
#     4  11  25  47  68  96 141 187 231 290 352 407
#     4  10  22  40  68 104 144 181 223 285 357 422
#     4  11  24  42  70 104 143 181 228 293 348 422
#     4  11  22  43  69 103 140 178 236 280 350 422
#     4  10  23  45  70  94 138 183 231 288 342 413
#     4  10  22  41  69 104 143 182 223 290 360 417
#     4  11  24  43  73 104 133 185 234 290 346 426
#
# _framework density 21.79222
#
# number of rings (size 3 to 8) (size 9 to 14) (size 15 to 20)
#    0.000    1.429    4.286    0.000    2.000    6.857 
#    2.571    0.000    0.000    0.000    0.000    0.000 
#    0.000    0.000    0.000    0.000    0.000    0.000 
#
# Total GULP energy -313030.767488 kJ/mol
# GULP energy per Si atom -5589.835134 kJ/mol
# Density = 2.174262 g / cm^3
# Si number density = 21.792220 Si / 1000 Ang^3
#
#
#
# Elastic Constant Matrix: (Units=GPa)
#
#
# Indices 1 2 3 4 5 6 
#
# 1 66.5884 31.3627 12.6397 0.0000 0.0000 0.0000
# 2 31.3627 85.2862 20.3702 0.0000 0.0000 0.0000
# 3 12.6397 20.3702 79.2868 0.0000 0.0000 0.0000
# 4 0.0000 0.0000 0.0000 16.4812 0.0000 0.0000
# 5 0.0000 0.0000 0.0000 0.0000 -49.7944 0.0000
# 6 0.0000 0.0000 0.0000 0.0000 0.0000 33.5825
#
#
#
# Elastic Compliance Matrix: (Units=1/GPa)
#
#
# Indices 1 2 3 4 5 6 
#
# 1 0.018282 -0.006421 -0.001265 0.000000 0.000000 0.000000
# 2 -0.006421 0.014747 -0.002765 0.000000 0.000000 0.000000
# 3 -0.001265 -0.002765 0.013524 0.000000 0.000000 0.000000
# 4 0.000000 0.000000 0.000000 0.060675 0.000000 0.000000
# 5 0.000000 0.000000 0.000000 0.000000 -0.020083 0.000000
# 6 0.000000 0.000000 0.000000 0.000000 0.000000 0.029777
#
#
# Mechanical properties :
#
#
# Convention : Reuss Voigt Hill
#
# Bulk Modulus (GPa) = 38.98380 39.98960 39.48670
# Shear Modulus (GPa) = 34.15879 11.17311 22.66595
#
# Velocity S-wave (km/s) = 3.96343 2.26677 3.22855
# Velocity P-wave (km/s) = 6.23480 5.02406 5.66189
#
# Compressibility (1/GPa) = 0.02565168
#
# Stress axis : x y z
#
# Youngs Moduli (GPa) = 54.69900 67.81125 73.93991
#
# Poissons Ratio (x) = 0.43540 0.09352
# Poissons Ratio (y) = 0.35121 0.20445
# Poissons Ratio (z) = 0.06919 0.18751
#
# Static dielectric constant tensor:
#      x y z
#    x 1.713760 0.000000 0.000000 
#    y 0.000000 3.274830 0.000000 
#    z 0.000000 0.000000 1.755440 
# 
# From -- ./inp_files/13069.got.cif
#   From: 2010.05.17/outbox.cif.g08.bks.cpg/sg56_7_cif.got.tgz:13069.got - 2010.06.03 13:42:01.
