data_PCOD9432809
_publ_section_title
;
Structure prediction by ZEFSAII (Michael W. Deem and Ramdas Pophale) SiO2 
 PCOD9432809
Probable space group: P C C N
;
_chemical_formula_sum "Si O2"
_cell_formula_units_Z 40
_cell_length_a 10.571890
_cell_length_b 14.519016
_cell_length_c 9.352936
_cell_angle_alpha 90.000000
_cell_angle_beta 90.000000
_cell_angle_gamma 90.000000
_cell_volume 1435.614321
_symmetry_space_group_name_H-M "P C C N"
_symmetry_group_IT_number 56
_symmetry_cell_setting 'orthorhombic'
loop_
_space_group_symop_operation_xyz
x,y,z
1/2-x,1/2-y,z
1/2+x,-y,1/2-z
-x,1/2+y,1/2-z
-x,-y,-z
1/2+x,1/2+y,-z
1/2-x,y,1/2+z
x,1/2-y,1/2+z
loop_
_atom_site_type_symbol
_atom_site_label
_atom_site_fract_x
_atom_site_fract_y
_atom_site_fract_z
Si Si1 0.513477 0.095237 0.085586
Si Si2 0.274976 0.608920 0.027923
Si Si3 0.681396 0.982958 0.718836
Si Si4 0.641808 0.825405 0.326542
Si Si5 0.486074 0.268673 0.915087
O O1 0.656985 0.129274 0.077867
O O2 0.445858 0.175614 0.000704
O O3 0.443508 0.073421 0.232833
O O4 0.500000 0.000000 0.000000
O O5 0.208586 0.565408 0.167452
O O6 0.124443 0.812547 0.063571
O O7 0.337869 0.528042 0.934371
O O8 0.606852 0.836104 0.493524
O O9 0.801934 0.916334 0.750063
O O10 0.750000 0.750000 0.306133
O O11 0.526629 0.775566 0.242558
#
# Coordination Sequence:
#
# PCOD9432809 Si02
#       5
#     8   8   8   8   8
#     4  10  23  49  75 109 157 206 252 325 391 474
#     4  11  28  47  79 116 158 209 264 330 401 481
#     4  11  26  49  80 114 162 210 269 325 409 478
#     4  12  27  48  78 112 156 207 267 333 396 479
#     4  12  28  48  78 113 158 203 271 325 405 467
#
# _framework density 27.862635999999998
#
# number of rings (size 3 to 8) (size 9 to 14) (size 15 to 20)
#    0.000    0.800    2.000    3.600   14.000    0.800 
#    0.000    0.000    0.000    0.000    0.000    0.000 
#    0.000    0.000    0.000    0.000    0.000    0.000 
#
# Total GULP energy -223706.327038 kJ/mol
# GULP energy per Si atom -5592.658176 kJ/mol
# Density = 2.779922 g / cm^3
# Si number density = 27.862636 Si / 1000 Ang^3
#
#
#
# Elastic Constant Matrix: (Units=GPa)
#
#
# Indices 1 2 3 4 5 6 
#
# 1 123.4397 39.1844 7.2451 0.0000 0.0000 0.0000
# 2 39.1844 112.9063 22.8634 0.0000 0.0000 0.0000
# 3 7.2451 22.8634 124.3504 0.0000 0.0000 0.0000
# 4 0.0000 0.0000 0.0000 24.9473 0.0000 0.0000
# 5 0.0000 0.0000 0.0000 0.0000 35.8527 0.0000
# 6 0.0000 0.0000 0.0000 0.0000 0.0000 60.3557
#
#
#
# Elastic Compliance Matrix: (Units=1/GPa)
#
#
# Indices 1 2 3 4 5 6 
#
# 1 0.009104 -0.003170 0.000052 0.000000 0.000000 0.000000
# 2 -0.003170 0.010303 -0.001710 0.000000 0.000000 0.000000
# 3 0.000052 -0.001710 0.008353 0.000000 0.000000 0.000000
# 4 0.000000 0.000000 0.000000 0.040084 0.000000 0.000000
# 5 0.000000 0.000000 0.000000 0.000000 0.027892 0.000000
# 6 0.000000 0.000000 0.000000 0.000000 0.000000 0.016568
#
#
# Mechanical properties :
#
#
# Convention : Reuss Voigt Hill
#
# Bulk Modulus (GPa) = 55.23111 55.47581 55.35346
# Shear Modulus (GPa) = 39.06368 43.65804 41.36086
#
# Velocity S-wave (km/s) = 3.74840 3.96271 3.85704
# Velocity P-wave (km/s) = 6.21287 6.39461 6.30440
#
# Compressibility (1/GPa) = 0.01810574
#
# Stress axis : x y z
#
# Youngs Moduli (GPa) = 109.83674 97.05552 119.71621
#
# Poissons Ratio (x) = 0.30770 -0.00628
# Poissons Ratio (y) = 0.34822 0.20468
# Poissons Ratio (z) = -0.00576 0.16594
#
# Static dielectric constant tensor:
#      x y z
#    x 2.287620 0.000000 0.000000 
#    y 0.000000 2.263770 0.000000 
#    z 0.000000 0.000000 2.306620 
# 
# From -- ./inp_files/3226.got.cif
#   From: 2010.05.17/outbox.cif.g08.bks.cpg/sg56_2_cif.got.tgz:3226.got - 2010.06.03 13:42:01.
