data_PCOD9432839
_publ_section_title
;
Structure prediction by ZEFSAII (Michael W. Deem and Ramdas Pophale) SiO2 
 PCOD9432839
Probable space group: P C C N
;
_chemical_formula_sum "Si O2"
_cell_formula_units_Z 60
_cell_length_a 15.495934
_cell_length_b 9.130698
_cell_length_c 21.029135
_cell_angle_alpha 90.000000
_cell_angle_beta 90.000000
_cell_angle_gamma 90.000000
_cell_volume 2975.384838
_symmetry_space_group_name_H-M "P C C N"
_symmetry_group_IT_number 56
_symmetry_cell_setting 'orthorhombic'
loop_
_space_group_symop_operation_xyz
x,y,z
1/2-x,1/2-y,z
1/2+x,-y,1/2-z
-x,1/2+y,1/2-z
-x,-y,-z
1/2+x,1/2+y,-z
1/2-x,y,1/2+z
x,1/2-y,1/2+z
loop_
_atom_site_type_symbol
_atom_site_label
_atom_site_fract_x
_atom_site_fract_y
_atom_site_fract_z
Si Si1 0.285486 0.413157 0.364266
Si Si2 0.189065 0.868538 0.771424
Si Si3 0.068377 0.918993 0.544453
Si Si4 0.241824 0.004157 0.005522
Si Si5 0.576439 0.333593 0.639119
Si Si6 0.096849 0.081297 0.675642
Si Si7 0.250000 0.250000 0.112255
Si Si8 0.559503 0.358284 0.009641
O O1 0.250000 0.250000 0.345938
O O2 0.242243 0.512692 0.310702
O O3 0.251189 0.424924 0.436260
O O4 0.378896 0.503814 0.369535
O O5 0.250000 0.750000 0.735469
O O6 0.142964 0.771105 0.824794
O O7 0.128003 0.962462 0.726000
O O8 0.037504 0.753181 0.546855
O O9 0.166222 0.927264 0.517949
O O10 0.074518 0.996755 0.610954
O O11 0.000000 0.000000 0.500000
O O12 0.158468 0.903861 0.998856
O O13 0.227314 0.118055 0.063448
O O14 0.494530 0.342200 0.686568
O O15 0.551978 0.241305 0.574356
O O16 0.171890 0.195235 0.656493
O O17 0.500000 0.500000 0.000000
#
# Coordination Sequence:
#
# PCOD9432839 Si02
#       8
#     8   8   8   8   8   8   4   8
#     4  11  22  39  73  99 127 177 236 280 334 407
#     4  10  25  46  68  96 135 181 228 278 342 409
#     4  11  23  41  67  94 134 178 219 282 348 401
#     4  11  21  37  66  95 135 170 224 271 347 396
#     4  11  23  46  67  97 141 179 226 295 337 408
#     4  11  24  45  67  94 143 175 226 281 350 405
#     4  10  24  40  66 102 134 180 220 286 344 420
#     4  12  24  38  65 101 135 176 223 283 346 411
#
# _framework density 20.165458999999998
#
# number of rings (size 3 to 8) (size 9 to 14) (size 15 to 20)
#    0.000    1.067    4.667    1.200    2.800    4.267 
#    4.800    0.000    0.000    0.000    0.000    0.000 
#    0.000    0.000    0.000    0.000    0.000    0.000 
#
# Total GULP energy -334009.041990 kJ/mol
# GULP energy per Si atom -5566.817366 kJ/mol
# Density = 2.011956 g / cm^3
# Si number density = 20.165459 Si / 1000 Ang^3
#
#
#
# Elastic Constant Matrix: (Units=GPa)
#
#
# Indices 1 2 3 4 5 6 
#
# 1 81.0388 48.2479 7.0256 0.0000 0.0000 0.0000
# 2 48.2479 138.8900 8.9936 0.0000 0.0000 0.0000
# 3 7.0256 8.9936 28.8507 0.0000 0.0000 0.0000
# 4 0.0000 0.0000 0.0000 27.8767 0.0000 0.0000
# 5 0.0000 0.0000 0.0000 0.0000 27.8985 0.0000
# 6 0.0000 0.0000 0.0000 0.0000 0.0000 28.3476
#
#
#
# Elastic Compliance Matrix: (Units=1/GPa)
#
#
# Indices 1 2 3 4 5 6 
#
# 1 0.015689 -0.005310 -0.002165 0.000000 0.000000 0.000000
# 2 -0.005310 0.009145 -0.001558 0.000000 0.000000 0.000000
# 3 -0.002165 -0.001558 0.035674 0.000000 0.000000 0.000000
# 4 0.000000 0.000000 0.000000 0.035872 0.000000 0.000000
# 5 0.000000 0.000000 0.000000 0.000000 0.035844 0.000000
# 6 0.000000 0.000000 0.000000 0.000000 0.000000 0.035276
#
#
# Mechanical properties :
#
#
# Convention : Reuss Voigt Hill
#
# Bulk Modulus (GPa) = 23.56137 41.92378 32.74257
# Shear Modulus (GPa) = 25.03577 29.12538 27.08058
#
# Velocity S-wave (km/s) = 3.52734 3.80454 3.66856
# Velocity P-wave (km/s) = 5.31967 6.33517 5.84950
#
# Compressibility (1/GPa) = 0.04244236
#
# Stress axis : x y z
#
# Youngs Moduli (GPa) = 63.73992 109.34524 28.03157
#
# Poissons Ratio (x) = 0.58060 0.06070
# Poissons Ratio (y) = 0.33845 0.04367
# Poissons Ratio (z) = 0.13801 0.17034
#
# Static dielectric constant tensor:
#      x y z
#    x 1.762080 0.000000 0.000000 
#    y 0.000000 1.750210 0.000000 
#    z 0.000000 0.000000 1.694660 
# 
# From -- ./inp_files/21136.got.cif
#   From: 2010.05.17/outbox.cif.g08.bks.cpg/sg56_11_cif.got.tgz:21136.got - 2010.06.03 13:42:01.
