data_PCOD9432183
_publ_section_title
;
Structure prediction by ZEFSAII (Michael W. Deem and Ramdas Pophale) SiO2 
 PCOD9432183
Probable space group: P C C N
;
_chemical_formula_sum "Si O2"
_cell_formula_units_Z 52
_cell_length_a 9.665973
_cell_length_b 14.568713
_cell_length_c 20.754663
_cell_angle_alpha 90.000000
_cell_angle_beta 90.000000
_cell_angle_gamma 90.000000
_cell_volume 2922.687967
_symmetry_space_group_name_H-M "P C C N"
_symmetry_group_IT_number 56
_symmetry_cell_setting 'orthorhombic'
loop_
_space_group_symop_operation_xyz
x,y,z
1/2-x,1/2-y,z
1/2+x,-y,1/2-z
-x,1/2+y,1/2-z
-x,-y,-z
1/2+x,1/2+y,-z
1/2-x,y,1/2+z
x,1/2-y,1/2+z
loop_
_atom_site_type_symbol
_atom_site_label
_atom_site_fract_x
_atom_site_fract_y
_atom_site_fract_z
Si Si1 0.750000 0.750000 0.729397
Si Si2 0.817122 0.093276 0.020044
Si Si3 0.250000 0.250000 0.476918
Si Si4 0.613421 0.911004 0.440984
Si Si5 0.465123 0.968899 0.925846
Si Si6 0.250000 0.750000 0.583068
Si Si7 0.963313 0.672598 0.126308
Si Si8 0.691873 0.850381 0.851039
O O1 0.630497 0.703238 0.686693
O O2 0.679694 0.827916 0.775512
O O3 0.787197 0.168590 0.966199
O O4 0.855928 0.003545 0.979017
O O5 0.686838 0.073450 0.065308
O O6 0.953610 0.114936 0.060686
O O7 0.308145 0.164931 0.516687
O O8 0.376094 0.287196 0.433825
O O9 0.681529 0.915958 0.370786
O O10 0.565310 0.893573 0.891709
O O11 0.471109 0.062811 0.884559
O O12 0.500000 0.000000 0.000000
O O13 0.383947 0.717228 0.623366
O O14 0.750000 0.750000 0.872179
#
# Coordination Sequence:
#
# PCOD9432183 Si02
#       8
#     4   8   4   8   8   4   8   8
#     4   9  25  44  64  82 113 191 230 244 314 397
#     4  11  24  32  56 102 132 152 198 253 343 397
#     4  11  17  34  60  86 121 167 200 250 332 389
#     4  11  20  36  57  93 128 160 199 257 325 389
#     4  12  21  40  65 102 129 162 206 276 345 386
#     4  12  22  34  56  92 128 156 194 278 316 382
#     4  11  22  39  63  87 127 170 217 260 319 388
#     4  10  22  41  65  84 123 174 216 258 309 400
#
# _framework density 17.791840000000001
#
# number of rings (size 3 to 8) (size 9 to 14) (size 15 to 20)
#    0.462    0.615    6.923    0.000    2.154    0.000 
#    0.000    6.154    0.000    0.000    0.000    0.000 
#    0.000    0.000    0.000    0.000    0.000    0.000 
#
# Total GULP energy -289475.787491 kJ/mol
# GULP energy per Si atom -5566.842067 kJ/mol
# Density = 1.775135 g / cm^3
# Si number density = 17.791840 Si / 1000 Ang^3
#
#
#
# Elastic Constant Matrix: (Units=GPa)
#
#
# Indices 1 2 3 4 5 6 
#
# 1 152.5830 40.5656 58.1657 0.0000 0.0000 0.0000
# 2 40.5656 96.2634 42.8048 0.0000 0.0000 0.0000
# 3 58.1657 42.8048 89.9187 0.0000 0.0000 0.0000
# 4 0.0000 0.0000 0.0000 25.3072 0.0000 0.0000
# 5 0.0000 0.0000 0.0000 0.0000 16.7096 0.0000
# 6 0.0000 0.0000 0.0000 0.0000 0.0000 32.5867
#
#
#
# Elastic Compliance Matrix: (Units=1/GPa)
#
#
# Indices 1 2 3 4 5 6 
#
# 1 0.008867 -0.001505 -0.005020 0.000000 0.000000 0.000000
# 2 -0.001505 0.013433 -0.005421 0.000000 0.000000 0.000000
# 3 -0.005020 -0.005421 0.016949 0.000000 0.000000 0.000000
# 4 0.000000 0.000000 0.000000 0.039514 0.000000 0.000000
# 5 0.000000 0.000000 0.000000 0.000000 0.059846 0.000000
# 6 0.000000 0.000000 0.000000 0.000000 0.000000 0.030687
#
#
# Mechanical properties :
#
#
# Convention : Reuss Voigt Hill
#
# Bulk Modulus (GPa) = 65.11294 69.09304 67.10299
# Shear Modulus (GPa) = 25.21334 28.06930 26.64132
#
# Velocity S-wave (km/s) = 3.76856 3.97627 3.87381
# Velocity P-wave (km/s) = 7.45739 7.74593 7.60303
#
# Compressibility (1/GPa) = 0.01535793
#
# Stress axis : x y z
#
# Youngs Moduli (GPa) = 112.77249 74.44430 59.00034
#
# Poissons Ratio (x) = 0.11201 0.29617
# Poissons Ratio (y) = 0.16968 0.31986
# Poissons Ratio (z) = 0.56610 0.40358
#
# Static dielectric constant tensor:
#      x y z
#    x 1.654360 0.000000 0.000000 
#    y 0.000000 2.641320 0.000000 
#    z 0.000000 0.000000 1.628040 
# 
# From -- ./inp_files/20595.got.cif
#   From: 2010.05.17/outbox.cif.g08.bks.cpg/sg56_11_cif.got.tgz:20595.got - 2010.06.03 13:42:01.
