data_PCOD9432679
_publ_section_title
;
Structure prediction by ZEFSAII (Michael W. Deem and Ramdas Pophale) SiO2 
 PCOD9432679
Probable space group: P C C N
;
_chemical_formula_sum "Si O2"
_cell_formula_units_Z 48
_cell_length_a 17.124981
_cell_length_b 8.039690
_cell_length_c 13.411444
_cell_angle_alpha 90.000000
_cell_angle_beta 90.000000
_cell_angle_gamma 90.000000
_cell_volume 1846.481420
_symmetry_space_group_name_H-M "P C C N"
_symmetry_group_IT_number 56
_symmetry_cell_setting 'orthorhombic'
loop_
_space_group_symop_operation_xyz
x,y,z
1/2-x,1/2-y,z
1/2+x,-y,1/2-z
-x,1/2+y,1/2-z
-x,-y,-z
1/2+x,1/2+y,-z
1/2-x,y,1/2+z
x,1/2-y,1/2+z
loop_
_atom_site_type_symbol
_atom_site_label
_atom_site_fract_x
_atom_site_fract_y
_atom_site_fract_z
Si Si1 0.267886 0.054956 0.028166
Si Si2 0.528518 0.217803 0.513973
Si Si3 0.924410 0.959623 0.382651
Si Si4 0.216173 0.065676 0.311198
Si Si5 0.621355 0.376546 0.210756
Si Si6 0.378500 0.562433 0.141367
O O1 0.250000 0.250000 0.026335
O O2 0.310182 0.019574 0.923036
O O3 0.331737 0.030918 0.111282
O O4 0.191971 0.951985 0.060204
O O5 0.546332 0.385142 0.448627
O O6 0.451176 0.284560 0.570797
O O7 0.586872 0.181493 0.605450
O O8 0.544941 0.077496 0.428736
O O9 0.938052 0.992504 0.265446
O O10 0.250000 0.250000 0.312686
O O11 0.291438 0.946208 0.301682
O O12 0.149582 0.066026 0.226734
O O13 0.623998 0.224023 0.287921
#
# Coordination Sequence:
#
# PCOD9432679 Si02
#       6
#     8   8   8   8   8   8
#     4  11  23  42  69 104 146 184 236 304 364 419
#     4  10  23  45  67 100 141 190 240 290 369 433
#     4  10  23  43  70  98 147 187 233 306 363 432
#     4  11  23  40  69 107 146 182 235 310 367 413
#     4  11  22  41  69 105 137 189 245 295 353 438
#     4  11  22  40  71 101 140 182 245 299 349 433
#
# _framework density 25.995386
#
# number of rings (size 3 to 8) (size 9 to 14) (size 15 to 20)
#    0.000    1.333    3.333    2.000    2.333    0.000 
#    3.000   10.833    0.000    0.000    0.000    0.000 
#    0.000    0.000    0.000    0.000    0.000    0.000 
#
# Total GULP energy -267909.410604 kJ/mol
# GULP energy per Si atom -5581.446054 kJ/mol
# Density = 2.593622 g / cm^3
# Si number density = 25.995386 Si / 1000 Ang^3
#
#
#
# Elastic Constant Matrix: (Units=GPa)
#
#
# Indices 1 2 3 4 5 6 
#
# 1 50.0730 2.6857 16.1390 0.0000 0.0000 0.0000
# 2 2.6857 55.8482 36.9465 0.0000 0.0000 0.0000
# 3 16.1390 36.9465 171.1419 0.0000 0.0000 0.0000
# 4 0.0000 0.0000 0.0000 9.0435 0.0000 0.0000
# 5 0.0000 0.0000 0.0000 0.0000 35.5944 0.0000
# 6 0.0000 0.0000 0.0000 0.0000 0.0000 35.2035
#
#
#
# Elastic Compliance Matrix: (Units=1/GPa)
#
#
# Indices 1 2 3 4 5 6 
#
# 1 0.020603 0.000344 -0.002017 0.000000 0.000000 0.000000
# 2 0.000344 0.020895 -0.004543 0.000000 0.000000 0.000000
# 3 -0.002017 -0.004543 0.007014 0.000000 0.000000 0.000000
# 4 0.000000 0.000000 0.000000 0.110577 0.000000 0.000000
# 5 0.000000 0.000000 0.000000 0.000000 0.028094 0.000000
# 6 0.000000 0.000000 0.000000 0.000000 0.000000 0.028406
#
#
# Mechanical properties :
#
#
# Convention : Reuss Voigt Hill
#
# Bulk Modulus (GPa) = 27.71768 43.17839 35.44804
# Shear Modulus (GPa) = 20.82917 30.72107 25.77512
#
# Velocity S-wave (km/s) = 2.83373 3.44145 3.15227
# Velocity P-wave (km/s) = 4.62519 5.69539 5.18796
#
# Compressibility (1/GPa) = 0.03607805
#
# Stress axis : x y z
#
# Youngs Moduli (GPa) = 48.53780 47.85901 142.56982
#
# Poissons Ratio (x) = -0.01644 0.28757
# Poissons Ratio (y) = -0.01668 0.64772
# Poissons Ratio (z) = 0.09790 0.21743
#
# Static dielectric constant tensor:
#      x y z
#    x 2.031910 0.000000 0.000000 
#    y 0.000000 2.403050 0.000000 
#    z 0.000000 0.000000 2.107900 
# 
# From -- ./inp_files/12704.got.cif
#   From: 2010.05.17/outbox.cif.g08.bks.cpg/sg56_7_cif.got.tgz:12704.got - 2010.06.03 13:42:01.
