data_PCOD9432910
_publ_section_title
;
Structure prediction by ZEFSAII (Michael W. Deem and Ramdas Pophale) SiO2 
 PCOD9432910
Probable space group: P C C N
;
_chemical_formula_sum "Si O2"
_cell_formula_units_Z 40
_cell_length_a 15.056931
_cell_length_b 10.827213
_cell_length_c 9.670928
_cell_angle_alpha 90.000000
_cell_angle_beta 90.000000
_cell_angle_gamma 90.000000
_cell_volume 1576.599160
_symmetry_space_group_name_H-M "P C C N"
_symmetry_group_IT_number 56
_symmetry_cell_setting 'orthorhombic'
loop_
_space_group_symop_operation_xyz
x,y,z
1/2-x,1/2-y,z
1/2+x,-y,1/2-z
-x,1/2+y,1/2-z
-x,-y,-z
1/2+x,1/2+y,-z
1/2-x,y,1/2+z
x,1/2-y,1/2+z
loop_
_atom_site_type_symbol
_atom_site_label
_atom_site_fract_x
_atom_site_fract_y
_atom_site_fract_z
Si Si1 0.398258 0.491459 0.469597
Si Si2 0.931024 0.891546 0.114349
Si Si3 0.838383 0.383777 0.784626
Si Si4 0.126490 0.886549 0.202104
Si Si5 0.852251 0.748107 0.863400
O O1 0.500000 0.500000 0.500000
O O2 0.365628 0.608605 0.555080
O O3 0.387828 0.503862 0.309518
O O4 0.356502 0.372343 0.537518
O O5 0.885835 0.854620 0.968416
O O6 0.911634 0.784754 0.230049
O O7 0.038939 0.896858 0.104517
O O8 0.882129 0.009653 0.188144
O O9 0.874177 0.252177 0.734189
O O10 0.733026 0.397274 0.811533
O O11 0.750000 0.750000 0.816864
#
# Coordination Sequence:
#
# PCOD9432910 Si02
#       5
#     8   8   8   8   8
#     4  11  21  45  67  90 139 185 215 283 365 401
#     4  11  24  45  71 101 139 184 227 292 346 412
#     4  10  24  43  66 101 130 182 232 274 347 416
#     4  11  23  41  70  95 135 178 230 279 337 420
#     4  11  23  42  71 102 137 178 234 285 350 408
#
# _framework density 25.371065000000002
#
# number of rings (size 3 to 8) (size 9 to 14) (size 15 to 20)
#    0.000    1.200    4.000    3.000    0.000    4.800 
#    0.000    3.000    0.000    0.000    0.000    0.000 
#    0.000    0.000    0.000    0.000    0.000    0.000 
#
# Total GULP energy -223164.394847 kJ/mol
# GULP energy per Si atom -5579.109871 kJ/mol
# Density = 2.531332 g / cm^3
# Si number density = 25.371065 Si / 1000 Ang^3
#
#
#
# Elastic Constant Matrix: (Units=GPa)
#
#
# Indices 1 2 3 4 5 6 
#
# 1 195.6564 25.2492 12.4257 0.0000 0.0000 0.0000
# 2 25.2492 83.2629 15.6443 0.0000 0.0000 0.0000
# 3 12.4257 15.6443 89.7351 0.0000 0.0000 0.0000
# 4 0.0000 0.0000 0.0000 32.5163 0.0000 0.0000
# 5 0.0000 0.0000 0.0000 0.0000 21.4350 0.0000
# 6 0.0000 0.0000 0.0000 0.0000 0.0000 29.3325
#
#
#
# Elastic Compliance Matrix: (Units=1/GPa)
#
#
# Indices 1 2 3 4 5 6 
#
# 1 0.005338 -0.001530 -0.000472 0.000000 0.000000 0.000000
# 2 -0.001530 0.012855 -0.002029 0.000000 0.000000 0.000000
# 3 -0.000472 -0.002029 0.011563 0.000000 0.000000 0.000000
# 4 0.000000 0.000000 0.000000 0.030754 0.000000 0.000000
# 5 0.000000 0.000000 0.000000 0.000000 0.046653 0.000000
# 6 0.000000 0.000000 0.000000 0.000000 0.000000 0.034092
#
#
# Mechanical properties :
#
#
# Convention : Reuss Voigt Hill
#
# Bulk Modulus (GPa) = 46.09730 52.81031 49.45380
# Shear Modulus (GPa) = 31.93863 37.67911 34.80887
#
# Velocity S-wave (km/s) = 3.55189 3.85791 3.70806
# Velocity P-wave (km/s) = 5.91861 6.38004 6.15365
#
# Compressibility (1/GPa) = 0.02169325
#
# Stress axis : x y z
#
# Youngs Moduli (GPa) = 187.31978 77.78811 86.48185
#
# Poissons Ratio (x) = 0.11902 0.04086
# Poissons Ratio (y) = 0.28662 0.17550
# Poissons Ratio (z) = 0.08850 0.15786
#
# Static dielectric constant tensor:
#      x y z
#    x 2.318110 0.000000 0.000000 
#    y 0.000000 2.105820 0.000000 
#    z 0.000000 0.000000 1.945960 
# 
# From -- ./inp_files/7001.got.cif
#   From: 2010.05.17/outbox.cif.g08.bks.cpg/sg56_4_cif.got.tgz:7001.got - 2010.06.03 13:42:01.
