data_PCOD9432529
_publ_section_title
;
Structure prediction by ZEFSAII (Michael W. Deem and Ramdas Pophale) SiO2 
 PCOD9432529
Probable space group: P C C N
;
_chemical_formula_sum "Si O2"
_cell_formula_units_Z 56
_cell_length_a 7.411469
_cell_length_b 21.651333
_cell_length_c 16.177342
_cell_angle_alpha 90.000000
_cell_angle_beta 90.000000
_cell_angle_gamma 90.000000
_cell_volume 2595.948682
_symmetry_space_group_name_H-M "P C C N"
_symmetry_group_IT_number 56
_symmetry_cell_setting 'orthorhombic'
loop_
_space_group_symop_operation_xyz
x,y,z
1/2-x,1/2-y,z
1/2+x,-y,1/2-z
-x,1/2+y,1/2-z
-x,-y,-z
1/2+x,1/2+y,-z
1/2-x,y,1/2+z
x,1/2-y,1/2+z
loop_
_atom_site_type_symbol
_atom_site_label
_atom_site_fract_x
_atom_site_fract_y
_atom_site_fract_z
Si Si1 0.854362 0.308979 0.563006
Si Si2 0.532147 0.955795 0.715262
Si Si3 0.450233 0.417769 0.284308
Si Si4 0.039249 0.870760 0.363175
Si Si5 0.947833 0.931499 0.529335
Si Si6 0.016232 0.429030 0.467113
Si Si7 0.163695 0.191955 0.184672
O O1 0.750000 0.250000 0.520976
O O2 0.712741 0.327367 0.635562
O O3 0.916966 0.371691 0.513346
O O4 0.039923 0.288241 0.607637
O O5 0.738811 0.935145 0.712791
O O6 0.441922 0.925295 0.795999
O O7 0.453223 0.933451 0.628306
O O8 0.530544 0.029219 0.726340
O O9 0.516880 0.420922 0.378006
O O10 0.453860 0.351402 0.243020
O O11 0.033303 0.890576 0.458380
O O12 0.841221 0.844166 0.345332
O O13 0.732790 0.919198 0.528832
O O14 0.000000 0.000000 0.500000
O O15 0.000000 0.500000 0.500000
O O16 0.250000 0.250000 0.230805
#
# Coordination Sequence:
#
# PCOD9432529 Si02
#       7
#     8   8   8   8   8   8   8
#     4  12  25  44  72 100 132 184 237 280 355 428
#     4  10  23  39  63  98 135 174 229 286 350 410
#     4  10  23  38  66  99 135 181 224 288 356 405
#     4  11  23  43  68  95 134 181 229 278 344 416
#     4  11  21  40  65 102 140 179 226 286 354 420
#     4  11  24  41  65 103 144 177 231 297 352 416
#     4  11  23  46  68  92 137 181 231 288 344 420
#
# _framework density 21.572074000000001
#
# number of rings (size 3 to 8) (size 9 to 14) (size 15 to 20)
#    0.000    1.143    4.286    1.714    6.000    1.143 
#    0.000    5.714    0.000    0.000    0.000    0.000 
#    0.000    0.000    0.000    0.000    0.000    0.000 
#
# Total GULP energy -312322.834485 kJ/mol
# GULP energy per Si atom -5577.193473 kJ/mol
# Density = 2.152298 g / cm^3
# Si number density = 21.572074 Si / 1000 Ang^3
#
#
#
# Elastic Constant Matrix: (Units=GPa)
#
#
# Indices 1 2 3 4 5 6 
#
# 1 110.2682 26.9296 27.2922 0.0000 0.0000 0.0000
# 2 26.9296 122.9058 51.4360 0.0000 0.0000 0.0000
# 3 27.2922 51.4360 106.5998 0.0000 0.0000 0.0000
# 4 0.0000 0.0000 0.0000 23.8041 0.0000 0.0000
# 5 0.0000 0.0000 0.0000 0.0000 15.3662 0.0000
# 6 0.0000 0.0000 0.0000 0.0000 0.0000 43.9888
#
#
#
# Elastic Compliance Matrix: (Units=1/GPa)
#
#
# Indices 1 2 3 4 5 6 
#
# 1 0.009867 -0.001384 -0.001858 0.000000 0.000000 0.000000
# 2 -0.001384 0.010389 -0.004659 0.000000 0.000000 0.000000
# 3 -0.001858 -0.004659 0.012104 0.000000 0.000000 0.000000
# 4 0.000000 0.000000 0.000000 0.042010 0.000000 0.000000
# 5 0.000000 0.000000 0.000000 0.000000 0.065078 0.000000
# 6 0.000000 0.000000 0.000000 0.000000 0.000000 0.022733
#
#
# Mechanical properties :
#
#
# Convention : Reuss Voigt Hill
#
# Bulk Modulus (GPa) = 60.39221 61.23217 60.81219
# Shear Modulus (GPa) = 27.24757 32.23954 29.74356
#
# Velocity S-wave (km/s) = 3.55786 3.87007 3.71725
# Velocity P-wave (km/s) = 6.70329 6.95820 6.83193
#
# Compressibility (1/GPa) = 0.01655843
#
# Stress axis : x y z
#
# Youngs Moduli (GPa) = 101.35018 96.25370 82.61418
#
# Poissons Ratio (x) = 0.13324 0.15352
# Poissons Ratio (y) = 0.14029 0.38486
# Poissons Ratio (z) = 0.18833 0.44840
#
# Static dielectric constant tensor:
#      x y z
#    x 1.754120 0.000000 0.000000 
#    y 0.000000 2.576460 0.000000 
#    z 0.000000 0.000000 0.371010 
# 
# From -- ./inp_files/10894.got.cif
#   From: 2010.05.17/outbox.cif.g08.bks.cpg/sg56_6_cif.got.tgz:10894.got - 2010.06.03 13:42:01.
