data_PCOD9432242
_publ_section_title
;
Structure prediction by ZEFSAII (Michael W. Deem and Ramdas Pophale) SiO2 
 PCOD9432242
Probable space group: P C C N
;
_chemical_formula_sum "Si O2"
_cell_formula_units_Z 40
_cell_length_a 6.912537
_cell_length_b 14.242200
_cell_length_c 19.882741
_cell_angle_alpha 90.000000
_cell_angle_beta 90.000000
_cell_angle_gamma 90.000000
_cell_volume 1957.450572
_symmetry_space_group_name_H-M "P C C N"
_symmetry_group_IT_number 56
_symmetry_cell_setting 'orthorhombic'
loop_
_space_group_symop_operation_xyz
x,y,z
1/2-x,1/2-y,z
1/2+x,-y,1/2-z
-x,1/2+y,1/2-z
-x,-y,-z
1/2+x,1/2+y,-z
1/2-x,y,1/2+z
x,1/2-y,1/2+z
loop_
_atom_site_type_symbol
_atom_site_label
_atom_site_fract_x
_atom_site_fract_y
_atom_site_fract_z
Si Si1 0.322762 0.504782 0.417597
Si Si2 0.496338 0.589995 0.818685
Si Si3 0.250000 0.750000 0.587156
Si Si4 0.250000 0.250000 0.120607
Si Si5 0.177830 0.567211 0.173749
Si Si6 0.455343 0.349210 0.500427
O O1 0.502852 0.480436 0.368330
O O2 0.298078 0.404917 0.455585
O O3 0.380931 0.576411 0.476965
O O4 0.154914 0.552146 0.374274
O O5 0.600571 0.686982 0.838084
O O6 0.659665 0.510360 0.815154
O O7 0.397364 0.599021 0.746374
O O8 0.243088 0.656627 0.632596
O O9 0.437941 0.732358 0.540597
O O10 0.133658 0.316138 0.069828
#
# Coordination Sequence:
#
# PCOD9432242 Si02
#       6
#     8   8   4   4   8   8
#     4  10  22  44  69  92 139 174 216 281 332 398
#     4  12  25  43  70  95 136 175 231 278 332 405
#     4  10  24  42  66  96 136 174 220 280 332 396
#     4  12  26  40  70 106 130 178 224 272 346 398
#     4  11  24  45  65 100 129 182 227 275 339 392
#     4  10  22  42  64 103 136 170 223 270 341 404
#
# _framework density 20.434742
#
# number of rings (size 3 to 8) (size 9 to 14) (size 15 to 20)
#    0.000    1.200    4.000    1.200    2.800    4.000 
#    0.000    0.000    0.000    0.000    0.000    0.000 
#    0.000    0.000    0.000    0.000    0.000    0.000 
#
# Total GULP energy -223451.676183 kJ/mol
# GULP energy per Si atom -5586.291905 kJ/mol
# Density = 2.038823 g / cm^3
# Si number density = 20.434742 Si / 1000 Ang^3
#
#
#
# Elastic Constant Matrix: (Units=GPa)
#
#
# Indices 1 2 3 4 5 6 
#
# 1 71.5915 53.9755 49.2392 0.0000 0.0000 0.0000
# 2 53.9755 89.8357 50.9340 0.0000 0.0000 0.0000
# 3 49.2392 50.9340 129.2971 0.0000 0.0000 0.0000
# 4 0.0000 0.0000 0.0000 42.7389 0.0000 0.0000
# 5 0.0000 0.0000 0.0000 0.0000 251.3889 0.0000
# 6 0.0000 0.0000 0.0000 0.0000 0.0000 37.9118
#
#
#
# Elastic Compliance Matrix: (Units=1/GPa)
#
#
# Indices 1 2 3 4 5 6 
#
# 1 0.028009 -0.013881 -0.005198 0.000000 0.000000 0.000000
# 2 -0.013881 0.021212 -0.003070 0.000000 0.000000 0.000000
# 3 -0.005198 -0.003070 0.010923 0.000000 0.000000 0.000000
# 4 0.000000 0.000000 0.000000 0.023398 0.000000 0.000000
# 5 0.000000 0.000000 0.000000 0.000000 0.003978 0.000000
# 6 0.000000 0.000000 0.000000 0.000000 0.000000 0.026377
#
#
# Mechanical properties :
#
#
# Convention : Reuss Voigt Hill
#
# Bulk Modulus (GPa) = 63.10911 66.55797 64.83354
# Shear Modulus (GPa) = 30.58530 75.51296 53.04913
#
# Velocity S-wave (km/s) = 3.87296 6.08551 5.10065
# Velocity P-wave (km/s) = 7.13793 9.05647 8.15382
#
# Compressibility (1/GPa) = 0.01584557
#
# Stress axis : x y z
#
# Youngs Moduli (GPa) = 35.70286 47.14285 91.55000
#
# Poissons Ratio (x) = 0.65440 0.47589
# Poissons Ratio (y) = 0.49560 0.28104
# Poissons Ratio (z) = 0.18559 0.14472
#
# Static dielectric constant tensor:
#      x y z
#    x 1.640500 0.000000 0.000000 
#    y 0.000000 1.792190 0.000000 
#    z 0.000000 0.000000 1.706210 
# 
# From -- ./inp_files/20013.got.cif
#   From: 2010.05.17/outbox.cif.g08.bks.cpg/sg56_11_cif.got.tgz:20013.got - 2010.06.03 13:42:01.
