data_PCOD9432847
_publ_section_title
;
Structure prediction by ZEFSAII (Michael W. Deem and Ramdas Pophale) SiO2 
 PCOD9432847
Probable space group: P C C N
;
_chemical_formula_sum "Si O2"
_cell_formula_units_Z 60
_cell_length_a 5.763816
_cell_length_b 18.412997
_cell_length_c 22.837758
_cell_angle_alpha 90.000000
_cell_angle_beta 90.000000
_cell_angle_gamma 90.000000
_cell_volume 2423.751313
_symmetry_space_group_name_H-M "P C C N"
_symmetry_group_IT_number 56
_symmetry_cell_setting 'orthorhombic'
loop_
_space_group_symop_operation_xyz
x,y,z
1/2-x,1/2-y,z
1/2+x,-y,1/2-z
-x,1/2+y,1/2-z
-x,-y,-z
1/2+x,1/2+y,-z
1/2-x,y,1/2+z
x,1/2-y,1/2+z
loop_
_atom_site_type_symbol
_atom_site_label
_atom_site_fract_x
_atom_site_fract_y
_atom_site_fract_z
Si Si1 0.050354 0.583994 0.512142
Si Si2 0.234968 0.173016 0.562311
Si Si3 0.923559 0.179702 0.450248
Si Si4 0.900142 0.323157 0.815196
Si Si5 0.250000 0.250000 0.231551
Si Si6 0.390759 0.466560 0.634967
Si Si7 0.985770 0.889336 0.248541
Si Si8 0.376620 0.453731 0.872657
O O1 0.308073 0.604501 0.528306
O O2 0.000000 0.500000 0.500000
O O3 0.973074 0.636414 0.459948
O O4 0.914388 0.600211 0.572569
O O5 0.250000 0.250000 0.595968
O O6 0.121203 0.108416 0.598604
O O7 0.101712 0.192116 0.502432
O O8 0.750000 0.250000 0.451491
O O9 0.978043 0.165563 0.382034
O O10 0.750000 0.250000 0.820330
O O11 0.740486 0.380389 0.780838
O O12 0.098926 0.302474 0.771477
O O13 0.434706 0.186397 0.215438
O O14 0.435851 0.449382 0.703058
O O15 0.635110 0.504101 0.616085
O O16 0.129460 0.502627 0.628537
O O17 0.853869 0.914306 0.189372
#
# Coordination Sequence:
#
# PCOD9432847 Si02
#       8
#     8   8   8   8   4   8   8   8
#     4  12  25  46  72 107 154 195 254 318 388 461
#     4  12  28  46  75 112 151 211 254 319 394 483
#     4  11  23  42  72 109 149 192 255 320 388 459
#     4   9  21  39  65 107 142 187 245 317 381 441
#     4  10  24  40  70 112 150 198 250 326 390 450
#     4  12  30  51  76 109 156 208 261 313 388 475
#     4  11  25  46  76 108 153 200 265 318 389 460
#     4  12  28  50  77 112 151 206 259 330 385 457
#
# _framework density 24.755013999999999
#
# number of rings (size 3 to 8) (size 9 to 14) (size 15 to 20)
#    0.000    0.800    4.000    1.600    9.333    1.067 
#    0.000    2.000    0.000    0.000    0.000    0.000 
#    0.000    0.000    0.000    0.000    0.000    0.000 
#
# Total GULP energy -334434.020733 kJ/mol
# GULP energy per Si atom -5573.900346 kJ/mol
# Density = 2.469867 g / cm^3
# Si number density = 24.755014 Si / 1000 Ang^3
#
#
#
# Elastic Constant Matrix: (Units=GPa)
#
#
# Indices 1 2 3 4 5 6 
#
# 1 78.1177 38.1204 -2.3069 0.0000 0.0000 0.0000
# 2 38.1204 114.6140 -7.1824 0.0000 0.0000 0.0000
# 3 -2.3069 -7.1824 61.4888 0.0000 0.0000 0.0000
# 4 0.0000 0.0000 0.0000 43.7129 0.0000 0.0000
# 5 0.0000 0.0000 0.0000 0.0000 -7.0171 0.0000
# 6 0.0000 0.0000 0.0000 0.0000 0.0000 49.4835
#
#
#
# Elastic Compliance Matrix: (Units=1/GPa)
#
#
# Indices 1 2 3 4 5 6 
#
# 1 0.015281 -0.005084 -0.000021 0.000000 0.000000 0.000000
# 2 -0.005084 0.010481 0.001033 0.000000 0.000000 0.000000
# 3 -0.000021 0.001033 0.016383 0.000000 0.000000 0.000000
# 4 0.000000 0.000000 0.000000 0.022877 0.000000 0.000000
# 5 0.000000 0.000000 0.000000 0.000000 -0.142509 0.000000
# 6 0.000000 0.000000 0.000000 0.000000 0.000000 0.020209
#
#
# Mechanical properties :
#
#
# Convention : Reuss Voigt Hill
#
# Bulk Modulus (GPa) = 29.40889 34.60918 32.00904
# Shear Modulus (GPa) = -132.26619 32.27516 -49.99552
#
# Velocity S-wave (km/s) = -7.31752 3.61471 -4.49888
# Velocity P-wave (km/s) = 7.71291 5.60647 3.74543
#
# Compressibility (1/GPa) = 0.03400332
#
# Stress axis : x y z
#
# Youngs Moduli (GPa) = 65.43881 95.41456 61.03855
#
# Poissons Ratio (x) = 0.48507 0.00125
# Poissons Ratio (y) = 0.33268 -0.06308
# Poissons Ratio (z) = 0.00134 -0.09861
#
# Static dielectric constant tensor:
#      x y z
#    x -1.245830 0.000000 0.000000 
#    y 0.000000 1.998930 0.000000 
#    z 0.000000 0.000000 1.954350 
# 
# From -- ./inp_files/21802.got.cif
#   From: 2010.05.17/outbox.cif.g08.bks.cpg/sg56_11_cif.got.tgz:21802.got - 2010.06.03 13:42:01.
