data_PCOD9432759
_publ_section_title
;
Structure prediction by ZEFSAII (Michael W. Deem and Ramdas Pophale) SiO2 
 PCOD9432759
Probable space group: P C C N
;
_chemical_formula_sum "Si O2"
_cell_formula_units_Z 28
_cell_length_a 9.626253
_cell_length_b 7.330582
_cell_length_c 17.240059
_cell_angle_alpha 90.000000
_cell_angle_beta 90.000000
_cell_angle_gamma 90.000000
_cell_volume 1216.562641
_symmetry_space_group_name_H-M "P C C N"
_symmetry_group_IT_number 56
_symmetry_cell_setting 'orthorhombic'
loop_
_space_group_symop_operation_xyz
x,y,z
1/2-x,1/2-y,z
1/2+x,-y,1/2-z
-x,1/2+y,1/2-z
-x,-y,-z
1/2+x,1/2+y,-z
1/2-x,y,1/2+z
x,1/2-y,1/2+z
loop_
_atom_site_type_symbol
_atom_site_label
_atom_site_fract_x
_atom_site_fract_y
_atom_site_fract_z
Si Si1 0.891269 0.336552 0.334953
Si Si2 0.602180 0.500406 0.667393
Si Si3 0.905385 0.791567 0.912027
Si Si4 0.750000 0.750000 0.562811
O O1 0.750000 0.250000 0.367642
O O2 0.858269 0.423401 0.250888
O O3 0.937855 0.503028 0.388554
O O4 0.003852 0.178177 0.323687
O O5 0.515691 0.347547 0.622111
O O6 0.729138 0.574367 0.616454
O O7 0.750000 0.750000 0.877992
O O8 0.879280 0.761987 0.003387
#
# Coordination Sequence:
#
# PCOD9432759 Si02
#       4
#     8   8   8   4
#     4  12  25  42  71 100 138 180 232 290 344 413
#     4  12  25  43  71 105 136 185 235 287 349 418
#     4  10  23  46  65  98 141 181 227 287 341 416
#     4  10  26  42  72  98 146 184 230 282 360 422
#
# _framework density 23.015666
#
# number of rings (size 3 to 8) (size 9 to 14) (size 15 to 20)
#    0.857    0.000    5.714    0.857    6.000    1.143 
#    0.000    7.143    0.000    0.000    0.000    0.000 
#    0.000    0.000    0.000    0.000    0.000    0.000 
#
# Total GULP energy -156719.198464 kJ/mol
# GULP energy per Si atom -5597.114231 kJ/mol
# Density = 2.296328 g / cm^3
# Si number density = 23.015666 Si / 1000 Ang^3
#
#
#
# Elastic Constant Matrix: (Units=GPa)
#
#
# Indices 1 2 3 4 5 6 
#
# 1 52.5607 24.0219 -10.7253 0.0000 0.0000 0.0000
# 2 24.0219 148.2685 22.2423 0.0000 0.0000 0.0000
# 3 -10.7253 22.2423 74.1946 0.0000 0.0000 0.0000
# 4 0.0000 0.0000 0.0000 12.3771 0.0000 0.0000
# 5 0.0000 0.0000 0.0000 0.0000 27.3332 0.0000
# 6 0.0000 0.0000 0.0000 0.0000 0.0000 56.9139
#
#
#
# Elastic Compliance Matrix: (Units=1/GPa)
#
#
# Indices 1 2 3 4 5 6 
#
# 1 0.021848 -0.004202 0.004418 0.000000 0.000000 0.000000
# 2 -0.004202 0.007870 -0.002967 0.000000 0.000000 0.000000
# 3 0.004418 -0.002967 0.015006 0.000000 0.000000 0.000000
# 4 0.000000 0.000000 0.000000 0.080794 0.000000 0.000000
# 5 0.000000 0.000000 0.000000 0.000000 0.036586 0.000000
# 6 0.000000 0.000000 0.000000 0.000000 0.000000 0.017570
#
#
# Mechanical properties :
#
#
# Convention : Reuss Voigt Hill
#
# Bulk Modulus (GPa) = 25.49601 38.45573 31.97587
# Shear Modulus (GPa) = 25.22049 35.29049 30.25549
#
# Velocity S-wave (km/s) = 3.31387 3.92002 3.62962
# Velocity P-wave (km/s) = 5.07386 6.10192 5.61149
#
# Compressibility (1/GPa) = 0.03922182
#
# Stress axis : x y z
#
# Youngs Moduli (GPa) = 45.77112 127.05721 66.63927
#
# Poissons Ratio (x) = 0.53395 -0.29442
# Poissons Ratio (y) = 0.19235 0.19771
# Poissons Ratio (z) = -0.20222 0.37697
#
# Static dielectric constant tensor:
#      x y z
#    x 1.885740 0.000000 0.000000 
#    y 0.000000 1.812640 0.000000 
#    z 0.000000 0.000000 1.835970 
# 
# From -- ./inp_files/15325.got.cif
#   From: 2010.05.17/outbox.cif.g08.bks.cpg/sg56_8_cif.got.tgz:15325.got - 2010.06.03 13:42:01.
