data_PCOD9432691
_publ_section_title
;
Structure prediction by ZEFSAII (Michael W. Deem and Ramdas Pophale) SiO2 
 PCOD9432691
Probable space group: P C C N
;
_chemical_formula_sum "Si O2"
_cell_formula_units_Z 64
_cell_length_a 5.390646
_cell_length_b 18.535154
_cell_length_c 28.599866
_cell_angle_alpha 90.000000
_cell_angle_beta 90.000000
_cell_angle_gamma 90.000000
_cell_volume 2857.597189
_symmetry_space_group_name_H-M "P C C N"
_symmetry_group_IT_number 56
_symmetry_cell_setting 'orthorhombic'
loop_
_space_group_symop_operation_xyz
x,y,z
1/2-x,1/2-y,z
1/2+x,-y,1/2-z
-x,1/2+y,1/2-z
-x,-y,-z
1/2+x,1/2+y,-z
1/2-x,y,1/2+z
x,1/2-y,1/2+z
loop_
_atom_site_type_symbol
_atom_site_label
_atom_site_fract_x
_atom_site_fract_y
_atom_site_fract_z
Si Si1 0.012626 0.707451 0.117377
Si Si2 0.231303 0.829650 0.911237
Si Si3 0.571838 0.938292 0.860829
Si Si4 0.423880 0.320526 0.282272
Si Si5 0.458220 0.554844 0.571425
Si Si6 0.584004 0.822310 0.318714
Si Si7 0.293938 0.017633 0.779009
Si Si8 0.810202 0.449617 0.524929
O O1 0.250000 0.750000 0.097342
O O2 0.980225 0.630799 0.093206
O O3 0.750000 0.750000 0.115508
O O4 0.080534 0.689064 0.171225
O O5 0.250000 0.750000 0.931586
O O6 0.475087 0.875232 0.896306
O O7 0.093181 0.880219 0.948241
O O8 0.094135 0.820267 0.862451
O O9 0.751294 0.893820 0.826402
O O10 0.691604 0.003717 0.891519
O O11 0.362657 0.974467 0.827023
O O12 0.250000 0.250000 0.280365
O O13 0.549995 0.324458 0.231479
O O14 0.281045 0.396348 0.288434
O O15 0.686243 0.501429 0.563012
O O16 0.364257 0.570295 0.518816
O O17 0.750000 0.750000 0.320178
O O18 0.537584 0.005200 0.745943
O O19 0.000000 0.500000 0.500000
#
# Coordination Sequence:
#
# PCOD9432691 Si02
#       8
#     8   8   8   8   8   8   8   8
#     4  11  26  47  71 103 144 192 242 291 351 420
#     4  11  23  40  66 101 133 174 230 284 358 430
#     4  11  22  41  66  95 132 176 226 290 343 427
#     4  10  23  44  64 102 144 192 240 290 348 425
#     4  10  23  45  69  99 132 178 235 293 359 428
#     4  11  21  40  64  96 138 181 223 280 357 410
#     4  12  25  43  66 103 141 186 242 289 347 420
#     4  10  23  44  71 100 135 179 229 295 371 427
#
# _framework density 22.396439999999998
#
# number of rings (size 3 to 8) (size 9 to 14) (size 15 to 20)
#    0.000    1.250    3.750    1.500    1.750    3.000 
#    2.250    0.000    0.000    0.000    0.000    0.000 
#    0.000    0.000    0.000    0.000    0.000    0.000 
#
# Total GULP energy -357114.068614 kJ/mol
# GULP energy per Si atom -5579.907322 kJ/mol
# Density = 2.234546 g / cm^3
# Si number density = 22.396440 Si / 1000 Ang^3
#
#
#
# Elastic Constant Matrix: (Units=GPa)
#
#
# Indices 1 2 3 4 5 6 
#
# 1 52.8438 35.2433 17.3704 0.0000 0.0000 0.0000
# 2 35.2433 191.7537 65.1617 0.0000 0.0000 0.0000
# 3 17.3704 65.1617 95.2903 0.0000 0.0000 0.0000
# 4 0.0000 0.0000 0.0000 134.2632 0.0000 0.0000
# 5 0.0000 0.0000 0.0000 0.0000 -19.7498 0.0000
# 6 0.0000 0.0000 0.0000 0.0000 0.0000 21.8235
#
#
#
# Elastic Compliance Matrix: (Units=1/GPa)
#
#
# Indices 1 2 3 4 5 6 
#
# 1 0.021754 -0.003453 -0.001604 0.000000 0.000000 0.000000
# 2 -0.003453 0.007342 -0.004391 0.000000 0.000000 0.000000
# 3 -0.001604 -0.004391 0.013789 0.000000 0.000000 0.000000
# 4 0.000000 0.000000 0.000000 0.007448 0.000000 0.000000
# 5 0.000000 0.000000 0.000000 0.000000 -0.050633 0.000000
# 6 0.000000 0.000000 0.000000 0.000000 0.000000 0.045822
#
#
# Mechanical properties :
#
#
# Convention : Reuss Voigt Hill
#
# Bulk Modulus (GPa) = 41.68668 63.93761 52.81215
# Shear Modulus (GPa) = 69.04660 42.07488 55.56074
#
# Velocity S-wave (km/s) = 5.55844 4.33903 4.98615
# Velocity P-wave (km/s) = 7.73618 7.32892 7.53530
#
# Compressibility (1/GPa) = 0.02398848
#
# Stress axis : x y z
#
# Youngs Moduli (GPa) = 45.96856 136.20525 72.51953
#
# Poissons Ratio (x) = 0.47033 0.11634
# Poissons Ratio (y) = 0.15874 0.31844
# Poissons Ratio (z) = 0.07374 0.59809
#
# Static dielectric constant tensor:
#      x y z
#    x 1.926380 0.000000 0.000000 
#    y 0.000000 1.873130 0.000000 
#    z 0.000000 0.000000 1.941710 
# 
# From -- ./inp_files/22994.got.cif
#   From: 2010.05.17/outbox.cif.g08.bks.cpg/sg56_12_cif.got.tgz:22994.got - 2010.06.03 13:42:01.
