data_PCOD9432993
_publ_section_title
;
Structure prediction by ZEFSAII (Michael W. Deem and Ramdas Pophale) SiO2 
 PCOD9432993
Probable space group: P C C N
;
_chemical_formula_sum "Si O2"
_cell_formula_units_Z 60
_cell_length_a 10.759413
_cell_length_b 23.828027
_cell_length_c 10.716057
_cell_angle_alpha 90.000000
_cell_angle_beta 90.000000
_cell_angle_gamma 90.000000
_cell_volume 2747.335366
_symmetry_space_group_name_H-M "P C C N"
_symmetry_group_IT_number 56
_symmetry_cell_setting 'orthorhombic'
loop_
_space_group_symop_operation_xyz
x,y,z
1/2-x,1/2-y,z
1/2+x,-y,1/2-z
-x,1/2+y,1/2-z
-x,-y,-z
1/2+x,1/2+y,-z
1/2-x,y,1/2+z
x,1/2-y,1/2+z
loop_
_atom_site_type_symbol
_atom_site_label
_atom_site_fract_x
_atom_site_fract_y
_atom_site_fract_z
Si Si1 0.238852 0.438193 0.076496
Si Si2 0.250000 0.250000 0.835381
Si Si3 0.530727 0.083102 0.564742
Si Si4 0.265603 0.507966 0.830640
Si Si5 0.142066 0.609410 0.697584
Si Si6 0.906109 0.835772 0.524177
Si Si7 0.600969 0.333496 0.269307
Si Si8 0.496195 0.716394 0.295822
O O1 0.382960 0.419854 0.066749
O O2 0.224675 0.468439 0.209551
O O3 0.146783 0.385876 0.058919
O O4 0.218330 0.477746 0.955652
O O5 0.367752 0.267164 0.753514
O O6 0.290344 0.198110 0.920455
O O7 0.586862 0.082716 0.426847
O O8 0.576227 0.138952 0.634900
O O9 0.597974 0.032805 0.638779
O O10 0.176964 0.560180 0.794162
O O11 0.271571 0.642474 0.676650
O O12 0.049211 0.657085 0.744292
O O13 0.989458 0.792894 0.443398
O O14 0.990484 0.854009 0.640085
O O15 0.591433 0.266904 0.249335
#
# Coordination Sequence:
#
# PCOD9432993 Si02
#       8
#     8   4   8   8   8   8   8   8
#     4  12  26  46  75 107 145 195 244 303 372 430
#     4  10  24  46  66 110 144 178 238 296 364 450
#     4  11  25  46  75 100 147 192 239 302 369 439
#     4  11  26  46  70 107 141 189 249 297 355 441
#     4  11  25  47  71 103 143 193 239 299 365 430
#     4  11  26  42  73 104 139 187 236 299 366 430
#     4  10  26  46  68 110 142 183 246 297 361 451
#     4  11  25  43  74 103 144 187 233 301 369 433
#
# _framework density 21.839345000000002
#
# number of rings (size 3 to 8) (size 9 to 14) (size 15 to 20)
#    0.000    1.067    1.333    2.800   16.800    0.000 
#    0.000    2.667    0.000    0.000    0.000    0.000 
#    0.000    0.000    0.000    0.000    0.000    0.000 
#
# Total GULP energy -335738.486972 kJ/mol
# GULP energy per Si atom -5595.641450 kJ/mol
# Density = 2.178964 g / cm^3
# Si number density = 21.839345 Si / 1000 Ang^3
#
#
#
# Elastic Constant Matrix: (Units=GPa)
#
#
# Indices 1 2 3 4 5 6 
#
# 1 85.4782 25.1424 12.2871 0.0000 0.0000 0.0000
# 2 25.1424 69.9008 14.5761 0.0000 0.0000 0.0000
# 3 12.2871 14.5761 73.9768 0.0000 0.0000 0.0000
# 4 0.0000 0.0000 0.0000 34.2202 0.0000 0.0000
# 5 0.0000 0.0000 0.0000 0.0000 13.0367 0.0000
# 6 0.0000 0.0000 0.0000 0.0000 0.0000 35.6473
#
#
#
# Elastic Compliance Matrix: (Units=1/GPa)
#
#
# Indices 1 2 3 4 5 6 
#
# 1 0.013204 -0.004476 -0.001311 0.000000 0.000000 0.000000
# 2 -0.004476 0.016436 -0.002495 0.000000 0.000000 0.000000
# 3 -0.001311 -0.002495 0.014227 0.000000 0.000000 0.000000
# 4 0.000000 0.000000 0.000000 0.029223 0.000000 0.000000
# 5 0.000000 0.000000 0.000000 0.000000 0.076706 0.000000
# 6 0.000000 0.000000 0.000000 0.000000 0.000000 0.028053
#
#
# Mechanical properties :
#
#
# Convention : Reuss Voigt Hill
#
# Bulk Modulus (GPa) = 36.62610 37.04080 36.83345
# Shear Modulus (GPa) = 24.56835 28.40419 26.48627
#
# Velocity S-wave (km/s) = 3.35768 3.61029 3.48627
# Velocity P-wave (km/s) = 5.64262 5.86313 5.75393
#
# Compressibility (1/GPa) = 0.02730293
#
# Stress axis : x y z
#
# Youngs Moduli (GPa) = 75.73530 60.84131 70.28813
#
# Poissons Ratio (x) = 0.27232 0.09216
# Poissons Ratio (y) = 0.33898 0.17538
# Poissons Ratio (z) = 0.09930 0.15181
#
# Static dielectric constant tensor:
#      x y z
#    x 1.949790 0.000000 0.000000 
#    y 0.000000 1.810380 0.000000 
#    z 0.000000 0.000000 1.790590 
# 
# From -- ./inp_files/7350.got.cif
#   From: 2010.05.17/outbox.cif.g08.bks.cpg/sg56_4_cif.got.tgz:7350.got - 2010.06.03 13:42:01.
