data_PCOD9432878
_publ_section_title
;
Structure prediction by ZEFSAII (Michael W. Deem and Ramdas Pophale) SiO2 
 PCOD9432878
Probable space group: P C C N
;
_chemical_formula_sum "Si O2"
_cell_formula_units_Z 40
_cell_length_a 10.656738
_cell_length_b 8.696696
_cell_length_c 22.181234
_cell_angle_alpha 90.000000
_cell_angle_beta 90.000000
_cell_angle_gamma 90.000000
_cell_volume 2055.721515
_symmetry_space_group_name_H-M "P C C N"
_symmetry_group_IT_number 56
_symmetry_cell_setting 'orthorhombic'
loop_
_space_group_symop_operation_xyz
x,y,z
1/2-x,1/2-y,z
1/2+x,-y,1/2-z
-x,1/2+y,1/2-z
-x,-y,-z
1/2+x,1/2+y,-z
1/2-x,y,1/2+z
x,1/2-y,1/2+z
loop_
_atom_site_type_symbol
_atom_site_label
_atom_site_fract_x
_atom_site_fract_y
_atom_site_fract_z
Si Si1 0.503024 0.544102 0.165382
Si Si2 0.130028 0.582408 0.988167
Si Si3 0.386659 0.926669 0.537454
Si Si4 0.385432 0.172048 0.764095
Si Si5 0.724149 0.079505 0.147386
O O1 0.413456 0.566437 0.108325
O O2 0.528158 0.698157 0.204522
O O3 0.450840 0.407703 0.207273
O O4 0.639684 0.497780 0.140163
O O5 0.158833 0.595712 0.917267
O O6 0.118228 0.750666 0.016437
O O7 0.251780 0.504194 0.018813
O O8 0.000000 0.500000 0.000000
O O9 0.500000 0.000000 0.500000
O O10 0.250000 0.250000 0.749570
O O11 0.355190 0.033400 0.810407
O O12 0.750000 0.250000 0.172897
#
# Coordination Sequence:
#
# PCOD9432878 Si02
#       5
#     8   8   8   8   8
#     4  11  22  44  66  92 134 171 223 274 327 401
#     4  11  23  41  63  99 130 170 215 264 333 393
#     4  11  22  43  64  96 130 170 218 269 332 392
#     4  10  24  42  66  98 126 176 221 272 336 388
#     4  11  20  42  68  91 132 169 217 272 330 393
#
# _framework density 19.457886999999999
#
# number of rings (size 3 to 8) (size 9 to 14) (size 15 to 20)
#    0.000    1.200    4.000    2.400    0.000    0.800 
#   32.400    0.000    0.000    0.000    0.000    0.000 
#    0.000    0.000    0.000    0.000    0.000    0.000 
#
# Total GULP energy -223472.046426 kJ/mol
# GULP energy per Si atom -5586.801161 kJ/mol
# Density = 1.941360 g / cm^3
# Si number density = 19.457887 Si / 1000 Ang^3
#
#
#
# Elastic Constant Matrix: (Units=GPa)
#
#
# Indices 1 2 3 4 5 6 
#
# 1 128.4208 40.0520 48.9507 0.0000 0.0000 0.0000
# 2 40.0520 98.5508 44.2226 0.0000 0.0000 0.0000
# 3 48.9507 44.2226 109.4866 0.0000 0.0000 0.0000
# 4 0.0000 0.0000 0.0000 25.5167 0.0000 0.0000
# 5 0.0000 0.0000 0.0000 0.0000 18.0847 0.0000
# 6 0.0000 0.0000 0.0000 0.0000 0.0000 36.1529
#
#
#
# Elastic Compliance Matrix: (Units=1/GPa)
#
#
# Indices 1 2 3 4 5 6 
#
# 1 0.009858 -0.002478 -0.003407 0.000000 0.000000 0.000000
# 2 -0.002478 0.013016 -0.004150 0.000000 0.000000 0.000000
# 3 -0.003407 -0.004150 0.012333 0.000000 0.000000 0.000000
# 4 0.000000 0.000000 0.000000 0.039190 0.000000 0.000000
# 5 0.000000 0.000000 0.000000 0.000000 0.055295 0.000000
# 6 0.000000 0.000000 0.000000 0.000000 0.000000 0.027660
#
#
# Mechanical properties :
#
#
# Convention : Reuss Voigt Hill
#
# Bulk Modulus (GPa) = 66.05492 66.98987 66.52239
# Shear Modulus (GPa) = 27.40220 29.49970 28.45095
#
# Velocity S-wave (km/s) = 3.75678 3.89791 3.82800
# Velocity P-wave (km/s) = 7.26906 7.40008 7.33486
#
# Compressibility (1/GPa) = 0.01513892
#
# Stress axis : x y z
#
# Youngs Moduli (GPa) = 101.43800 76.82821 81.08528
#
# Poissons Ratio (x) = 0.19036 0.27624
# Poissons Ratio (y) = 0.25134 0.33646
# Poissons Ratio (z) = 0.34557 0.31880
#
# Static dielectric constant tensor:
#      x y z
#    x 1.713440 0.000000 0.000000 
#    y 0.000000 1.672720 0.000000 
#    z 0.000000 0.000000 1.657970 
# 
# From -- ./inp_files/18576.got.cif
#   From: 2010.05.17/outbox.cif.g08.bks.cpg/sg56_10_cif.got.tgz:18576.got - 2010.06.03 13:42:01.
