data_PCOD9432968
_publ_section_title
;
Structure prediction by ZEFSAII (Michael W. Deem and Ramdas Pophale) SiO2 
 PCOD9432968
Probable space group: P C C N
;
_chemical_formula_sum "Si O2"
_cell_formula_units_Z 36
_cell_length_a 5.298170
_cell_length_b 14.477578
_cell_length_c 17.884616
_cell_angle_alpha 90.000000
_cell_angle_beta 90.000000
_cell_angle_gamma 90.000000
_cell_volume 1371.833558
_symmetry_space_group_name_H-M "P C C N"
_symmetry_group_IT_number 56
_symmetry_cell_setting 'orthorhombic'
loop_
_space_group_symop_operation_xyz
x,y,z
1/2-x,1/2-y,z
1/2+x,-y,1/2-z
-x,1/2+y,1/2-z
-x,-y,-z
1/2+x,1/2+y,-z
1/2-x,y,1/2+z
x,1/2-y,1/2+z
loop_
_atom_site_type_symbol
_atom_site_label
_atom_site_fract_x
_atom_site_fract_y
_atom_site_fract_z
Si Si1 0.534480 0.100951 0.841905
Si Si2 0.788414 0.862282 0.499632
Si Si3 0.284917 0.640730 0.919404
Si Si4 0.750000 0.750000 0.246337
Si Si5 0.610213 0.092945 0.227413
O O1 0.407638 0.103688 0.922509
O O2 0.444429 0.195997 0.805535
O O3 0.828208 0.098798 0.816131
O O4 0.444968 0.011126 0.796232
O O5 0.750000 0.750000 0.503152
O O6 0.514889 0.894531 0.470185
O O7 0.007935 0.894252 0.442657
O O8 0.250000 0.750000 0.931098
O O9 0.327495 0.621895 0.831965
O O10 0.601377 0.669845 0.289003
#
# Coordination Sequence:
#
# PCOD9432968 Si02
#       5
#     8   8   8   4   8
#     4  12  26  47  77 113 152 208 268 323 398 472
#     4  10  24  44  75 109 152 209 258 320 396 467
#     4  10  24  45  73 110 155 208 260 320 394 467
#     4  12  26  48  76 108 158 208 258 342 386 464
#     4  12  28  46  78 114 157 208 269 326 398 477
#
# _framework density 26.242249999999999
#
# number of rings (size 3 to 8) (size 9 to 14) (size 15 to 20)
#    0.000    0.889    3.333    2.000   10.889    3.556 
#    0.000    0.000    0.000    0.000    0.000    0.000 
#    0.000    0.000    0.000    0.000    0.000    0.000 
#
# Total GULP energy -201138.398894 kJ/mol
# GULP energy per Si atom -5587.177747 kJ/mol
# Density = 2.618252 g / cm^3
# Si number density = 26.242250 Si / 1000 Ang^3
#
#
#
# Elastic Constant Matrix: (Units=GPa)
#
#
# Indices 1 2 3 4 5 6 
#
# 1 127.6344 30.9408 55.5141 0.0000 0.0000 0.0000
# 2 30.9408 118.4124 3.8604 0.0000 0.0000 0.0000
# 3 55.5141 3.8604 127.7982 0.0000 0.0000 0.0000
# 4 0.0000 0.0000 0.0000 27.0982 0.0000 0.0000
# 5 0.0000 0.0000 0.0000 0.0000 32.1574 0.0000
# 6 0.0000 0.0000 0.0000 0.0000 0.0000 20.0870
#
#
#
# Elastic Compliance Matrix: (Units=1/GPa)
#
#
# Indices 1 2 3 4 5 6 
#
# 1 0.010386 -0.002569 -0.004434 0.000000 0.000000 0.000000
# 2 -0.002569 0.009089 0.000842 0.000000 0.000000 0.000000
# 3 -0.004434 0.000842 0.009726 0.000000 0.000000 0.000000
# 4 0.000000 0.000000 0.000000 0.036903 0.000000 0.000000
# 5 0.000000 0.000000 0.000000 0.000000 0.031097 0.000000
# 6 0.000000 0.000000 0.000000 0.000000 0.000000 0.049783
#
#
# Mechanical properties :
#
#
# Convention : Reuss Voigt Hill
#
# Bulk Modulus (GPa) = 59.25204 61.60838 60.43021
# Shear Modulus (GPa) = 30.31522 34.77050 32.54286
#
# Velocity S-wave (km/s) = 3.40252 3.64398 3.52532
# Velocity P-wave (km/s) = 6.16961 6.42126 6.29669
#
# Compressibility (1/GPa) = 0.01687706
#
# Stress axis : x y z
#
# Youngs Moduli (GPa) = 96.28049 110.02327 102.82215
#
# Poissons Ratio (x) = 0.28269 0.45592
# Poissons Ratio (y) = 0.24738 -0.08653
# Poissons Ratio (z) = 0.42692 -0.09259
#
# Static dielectric constant tensor:
#      x y z
#    x 2.208160 0.000000 0.000000 
#    y 0.000000 2.016920 0.000000 
#    z 0.000000 0.000000 2.075020 
# 
# From -- ./inp_files/17366.got.cif
#   From: 2010.05.17/outbox.cif.g08.bks.cpg/sg56_9_cif.got.tgz:17366.got - 2010.06.03 13:42:01.
