data_PCOD9432647
_publ_section_title
;
Structure prediction by ZEFSAII (Michael W. Deem and Ramdas Pophale) SiO2 
 PCOD9432647
Probable space group: P C C N
;
_chemical_formula_sum "Si O2"
_cell_formula_units_Z 60
_cell_length_a 16.584519
_cell_length_b 18.711656
_cell_length_c 9.159149
_cell_angle_alpha 90.000000
_cell_angle_beta 90.000000
_cell_angle_gamma 90.000000
_cell_volume 2842.302055
_symmetry_space_group_name_H-M "P C C N"
_symmetry_group_IT_number 56
_symmetry_cell_setting 'orthorhombic'
loop_
_space_group_symop_operation_xyz
x,y,z
1/2-x,1/2-y,z
1/2+x,-y,1/2-z
-x,1/2+y,1/2-z
-x,-y,-z
1/2+x,1/2+y,-z
1/2-x,y,1/2+z
x,1/2-y,1/2+z
loop_
_atom_site_type_symbol
_atom_site_label
_atom_site_fract_x
_atom_site_fract_y
_atom_site_fract_z
Si Si1 0.032103 0.186480 0.408570
Si Si2 0.500794 0.437319 0.195300
Si Si3 0.055023 0.167644 0.742124
Si Si4 0.154961 0.826844 0.520046
Si Si5 0.250000 0.750000 0.771435
Si Si6 0.653446 0.529725 0.248582
Si Si7 0.079991 0.583136 0.608207
Si Si8 0.747858 0.462191 0.980893
O O1 0.041451 0.118758 0.301183
O O2 0.936461 0.188488 0.440200
O O3 0.068158 0.177449 0.569593
O O4 0.059984 0.258290 0.328152
O O5 0.575419 0.478553 0.271770
O O6 0.442593 0.500793 0.142876
O O7 0.539671 0.401001 0.050680
O O8 0.118033 0.106735 0.790499
O O9 0.966584 0.133611 0.778376
O O10 0.205080 0.804348 0.664017
O O11 0.184276 0.781866 0.381656
O O12 0.180387 0.907595 0.484151
O O13 0.703721 0.495258 0.118392
O O14 0.712486 0.524141 0.385043
O O15 0.176104 0.583427 0.596963
#
# Coordination Sequence:
#
# PCOD9432647 Si02
#       8
#     8   8   8   8   4   8   8   8
#     4  12  24  40  66  91 133 175 230 274 334 405
#     4   9  19  41  61  92 129 170 220 270 322 405
#     4  11  26  42  65  96 132 177 227 277 335 408
#     4  11  23  37  59  92 128 180 211 266 330 401
#     4  10  24  36  50  84 140 172 206 256 328 416
#     4  10  23  43  64  99 130 172 222 279 338 401
#     4   9  21  37  63  90 129 173 214 269 336 389
#     4  11  22  38  67  92 132 167 223 277 334 396
#
# _framework density 21.109649999999998
#
# number of rings (size 3 to 8) (size 9 to 14) (size 15 to 20)
#    0.000    1.600    1.333    3.200    9.333    3.200 
#    0.000    0.000    0.000    6.400    0.000    0.000 
#    0.000    0.000    0.000    0.000    0.000    0.000 
#
# Total GULP energy -335424.938428 kJ/mol
# GULP energy per Si atom -5590.415640 kJ/mol
# Density = 2.106160 g / cm^3
# Si number density = 21.109650 Si / 1000 Ang^3
#
#
#
# Elastic Constant Matrix: (Units=GPa)
#
#
# Indices 1 2 3 4 5 6 
#
# 1 19.5269 -0.1295 -0.5286 0.0000 0.0000 0.0000
# 2 -0.1295 89.9149 48.1578 0.0000 0.0000 0.0000
# 3 -0.5286 48.1578 82.2764 0.0000 0.0000 0.0000
# 4 0.0000 0.0000 0.0000 25.6188 0.0000 0.0000
# 5 0.0000 0.0000 0.0000 0.0000 0.8619 0.0000
# 6 0.0000 0.0000 0.0000 0.0000 0.0000 25.3427
#
#
#
# Elastic Compliance Matrix: (Units=1/GPa)
#
#
# Indices 1 2 3 4 5 6 
#
# 1 0.051222 -0.000149 0.000416 0.000000 0.000000 0.000000
# 2 -0.000149 0.016201 -0.009484 0.000000 0.000000 0.000000
# 3 0.000416 -0.009484 0.017708 0.000000 0.000000 0.000000
# 4 0.000000 0.000000 0.000000 0.039034 0.000000 0.000000
# 5 0.000000 0.000000 0.000000 0.000000 1.160255 0.000000
# 6 0.000000 0.000000 0.000000 0.000000 0.000000 0.039459
#
#
# Mechanical properties :
#
#
# Convention : Reuss Voigt Hill
#
# Bulk Modulus (GPa) = 14.99307 31.85753 23.42530
# Shear Modulus (GPa) = 3.66423 19.97924 11.82173
#
# Velocity S-wave (km/s) = 1.31893 3.07978 2.36903
# Velocity P-wave (km/s) = 3.07202 5.26981 4.31325
#
# Compressibility (1/GPa) = 0.06669749
#
# Stress axis : x y z
#
# Youngs Moduli (GPa) = 19.52293 61.72563 56.47257
#
# Poissons Ratio (x) = 0.00922 -0.02352
# Poissons Ratio (y) = 0.00291 0.53556
# Poissons Ratio (z) = -0.00813 0.58538
#
# Static dielectric constant tensor:
#      x y z
#    x 1.744590 0.000000 0.000000 
#    y 0.000000 1.768120 0.000000 
#    z 0.000000 0.000000 1.807840 
# 
# From -- ./inp_files/4123.got.cif
#   From: 2010.05.17/outbox.cif.g08.bks.cpg/sg56_3_cif.got.tgz:4123.got - 2010.06.03 13:42:01.
