data_PCOD9432629
_publ_section_title
;
Structure prediction by ZEFSAII (Michael W. Deem and Ramdas Pophale) SiO2 
 PCOD9432629
Probable space group: P C C N
;
_chemical_formula_sum "Si O2"
_cell_formula_units_Z 36
_cell_length_a 8.211489
_cell_length_b 10.881547
_cell_length_c 18.203019
_cell_angle_alpha 90.000000
_cell_angle_beta 90.000000
_cell_angle_gamma 90.000000
_cell_volume 1626.507162
_symmetry_space_group_name_H-M "P C C N"
_symmetry_group_IT_number 56
_symmetry_cell_setting 'orthorhombic'
loop_
_space_group_symop_operation_xyz
x,y,z
1/2-x,1/2-y,z
1/2+x,-y,1/2-z
-x,1/2+y,1/2-z
-x,-y,-z
1/2+x,1/2+y,-z
1/2-x,y,1/2+z
x,1/2-y,1/2+z
loop_
_atom_site_type_symbol
_atom_site_label
_atom_site_fract_x
_atom_site_fract_y
_atom_site_fract_z
Si Si1 0.914170 0.394103 0.206090
Si Si2 0.306639 0.991747 0.503331
Si Si3 0.189909 0.938635 0.663470
Si Si4 0.152006 0.132130 0.377007
Si Si5 0.750000 0.250000 0.091897
O O1 0.826140 0.381948 0.283876
O O2 0.814995 0.506380 0.167108
O O3 0.894462 0.279456 0.150782
O O4 0.094243 0.450313 0.204908
O O5 0.260349 0.989210 0.588077
O O6 0.263799 0.865359 0.461667
O O7 0.500000 0.000000 0.500000
O O8 0.208724 0.097779 0.459411
O O9 0.040657 0.851164 0.636765
O O10 0.250000 0.250000 0.351551
#
# Coordination Sequence:
#
# PCOD9432629 Si02
#       5
#     8   8   8   8   4
#     4   9  23  41  66  91 140 171 222 277 345 401
#     4  11  25  40  72  98 133 177 228 281 344 403
#     4  10  23  42  67  97 135 175 229 276 341 416
#     4   9  22  42  63  93 131 171 229 273 341 394
#     4  10  24  44  64 100 136 168 226 280 346 394
#
# _framework density 22.133319
#
# number of rings (size 3 to 8) (size 9 to 14) (size 15 to 20)
#    1.333    0.889    0.000    0.667    9.333    2.667 
#    0.000    1.111    0.000    0.000    0.000    0.000 
#    0.000    0.000    0.000    0.000    0.000    0.000 
#
# Total GULP energy -200578.892227 kJ/mol
# GULP energy per Si atom -5571.635895 kJ/mol
# Density = 2.208294 g / cm^3
# Si number density = 22.133319 Si / 1000 Ang^3
#
#
#
# Elastic Constant Matrix: (Units=GPa)
#
#
# Indices 1 2 3 4 5 6 
#
# 1 102.6750 1.1140 60.1881 0.0000 0.0000 0.0000
# 2 1.1140 57.0983 8.7972 0.0000 0.0000 0.0000
# 3 60.1881 8.7972 140.7120 0.0000 0.0000 0.0000
# 4 0.0000 0.0000 0.0000 6.5215 0.0000 0.0000
# 5 0.0000 0.0000 0.0000 0.0000 36.1031 0.0000
# 6 0.0000 0.0000 0.0000 0.0000 0.0000 14.5166
#
#
#
# Elastic Compliance Matrix: (Units=1/GPa)
#
#
# Indices 1 2 3 4 5 6 
#
# 1 0.013020 0.000610 -0.005607 0.000000 0.000000 0.000000
# 2 0.000610 0.017713 -0.001368 0.000000 0.000000 0.000000
# 3 -0.005607 -0.001368 0.009591 0.000000 0.000000 0.000000
# 4 0.000000 0.000000 0.000000 0.153338 0.000000 0.000000
# 5 0.000000 0.000000 0.000000 0.000000 0.027698 0.000000
# 6 0.000000 0.000000 0.000000 0.000000 0.000000 0.068887
#
#
# Mechanical properties :
#
#
# Convention : Reuss Voigt Hill
#
# Bulk Modulus (GPa) = 36.24253 48.96489 42.60371
# Shear Modulus (GPa) = 16.01670 26.78733 21.40201
#
# Velocity S-wave (km/s) = 2.69299 3.48267 3.11297
# Velocity P-wave (km/s) = 5.10683 6.19215 5.67549
#
# Compressibility (1/GPa) = 0.02759189
#
# Stress axis : x y z
#
# Youngs Moduli (GPa) = 76.80611 56.45712 104.26784
#
# Poissons Ratio (x) = -0.03443 0.58465
# Poissons Ratio (y) = -0.04684 0.14267
# Poissons Ratio (z) = 0.43067 0.07725
#
# Static dielectric constant tensor:
#      x y z
#    x 1.836920 0.000000 0.000000 
#    y 0.000000 1.851890 0.000000 
#    z 0.000000 0.000000 1.819710 
# 
# From -- ./inp_files/17955.got.cif
#   From: 2010.05.17/outbox.cif.g08.bks.cpg/sg56_9_cif.got.tgz:17955.got - 2010.06.03 13:42:01.
