data_PCOD9432154
_publ_section_title
;
Structure prediction by ZEFSAII (Michael W. Deem and Ramdas Pophale) SiO2 
 PCOD9432154
Probable space group: P C C N
;
_chemical_formula_sum "Si O2"
_cell_formula_units_Z 48
_cell_length_a 16.934499
_cell_length_b 9.789972
_cell_length_c 12.969052
_cell_angle_alpha 90.000000
_cell_angle_beta 90.000000
_cell_angle_gamma 90.000000
_cell_volume 2150.116708
_symmetry_space_group_name_H-M "P C C N"
_symmetry_group_IT_number 56
_symmetry_cell_setting 'orthorhombic'
loop_
_space_group_symop_operation_xyz
x,y,z
1/2-x,1/2-y,z
1/2+x,-y,1/2-z
-x,1/2+y,1/2-z
-x,-y,-z
1/2+x,1/2+y,-z
1/2-x,y,1/2+z
x,1/2-y,1/2+z
loop_
_atom_site_type_symbol
_atom_site_label
_atom_site_fract_x
_atom_site_fract_y
_atom_site_fract_z
Si Si1 0.250000 0.250000 0.189157
Si Si2 0.089658 0.653211 0.955476
Si Si3 0.957274 0.847740 0.604914
Si Si4 0.250000 0.750000 0.368779
Si Si5 0.332245 0.489906 0.817476
Si Si6 0.869856 0.882698 0.971946
Si Si7 0.497011 0.612291 0.827040
O O1 0.206348 0.362882 0.259438
O O2 0.188872 0.175432 0.113039
O O3 0.073746 0.498048 0.922680
O O4 0.179839 0.691512 0.939329
O O5 0.042267 0.756799 0.881143
O O6 0.047542 0.668043 0.065797
O O7 0.905890 0.739804 0.541416
O O8 0.956404 0.837807 0.727077
O O9 0.215225 0.628993 0.297964
O O10 0.425367 0.512623 0.795777
O O11 0.328714 0.474305 0.942017
O O12 0.942028 0.950876 0.909322
#
# Coordination Sequence:
#
# PCOD9432154 Si02
#       7
#     4   8   8   4   8   8   8
#     4  12  28  44  72 106 142 192 238 294 370 420
#     4   9  22  41  64 100 134 182 227 289 350 424
#     4  10  22  40  73  96 135 178 240 288 343 427
#     4  10  24  46  66  96 144 178 222 290 364 412
#     4  11  26  47  69 101 141 181 237 293 353 434
#     4  11  25  43  70 105 135 183 235 297 351 429
#     4  10  23  43  69 101 134 182 233 285 359 417
#
# _framework density 22.324368
#
# number of rings (size 3 to 8) (size 9 to 14) (size 15 to 20)
#    0.000    1.667    0.000    2.000   16.333    0.000 
#    0.000    4.167    0.000    0.000    0.000    0.000 
#    0.000    0.000    0.000    0.000    0.000    0.000 
#
# Total GULP energy -268493.745445 kJ/mol
# GULP energy per Si atom -5593.619697 kJ/mol
# Density = 2.227356 g / cm^3
# Si number density = 22.324368 Si / 1000 Ang^3
#
#
#
# Elastic Constant Matrix: (Units=GPa)
#
#
# Indices 1 2 3 4 5 6 
#
# 1 107.4914 34.3818 40.4793 0.0000 0.0000 0.0000
# 2 34.3818 81.5912 12.6417 0.0000 0.0000 0.0000
# 3 40.4793 12.6417 110.6270 0.0000 0.0000 0.0000
# 4 0.0000 0.0000 0.0000 15.6339 0.0000 0.0000
# 5 0.0000 0.0000 0.0000 0.0000 19.1870 0.0000
# 6 0.0000 0.0000 0.0000 0.0000 0.0000 31.5358
#
#
#
# Elastic Compliance Matrix: (Units=1/GPa)
#
#
# Indices 1 2 3 4 5 6 
#
# 1 0.012250 -0.004548 -0.003963 0.000000 0.000000 0.000000
# 2 -0.004548 0.014166 0.000045 0.000000 0.000000 0.000000
# 3 -0.003963 0.000045 0.010484 0.000000 0.000000 0.000000
# 4 0.000000 0.000000 0.000000 0.063964 0.000000 0.000000
# 5 0.000000 0.000000 0.000000 0.000000 0.052118 0.000000
# 6 0.000000 0.000000 0.000000 0.000000 0.000000 0.031710
#
#
# Mechanical properties :
#
#
# Convention : Reuss Voigt Hill
#
# Bulk Modulus (GPa) = 50.07695 52.74613 51.41154
# Shear Modulus (GPa) = 24.00623 27.41846 25.71235
#
# Velocity S-wave (km/s) = 3.28279 3.50835 3.39744
# Velocity P-wave (km/s) = 6.07035 6.33165 6.20238
#
# Compressibility (1/GPa) = 0.01996927
#
# Stress axis : x y z
#
# Youngs Moduli (GPa) = 81.63216 70.59299 95.38189
#
# Poissons Ratio (x) = 0.32106 0.37797
# Poissons Ratio (y) = 0.37127 -0.00433
# Poissons Ratio (z) = 0.32348 -0.00321
#
# Static dielectric constant tensor:
#      x y z
#    x 1.858070 0.000000 0.000000 
#    y 0.000000 1.824700 0.000000 
#    z 0.000000 0.000000 1.789570 
# 
# From -- ./inp_files/8325.got.cif
#   From: 2010.05.17/outbox.cif.g08.bks.cpg/sg56_5_cif.got.tgz:8325.got - 2010.06.03 13:42:01.
