data_PCOD9432263
_publ_section_title
;
Structure prediction by ZEFSAII (Michael W. Deem and Ramdas Pophale) SiO2 
 PCOD9432263
Probable space group: P C C N
;
_chemical_formula_sum "Si O2"
_cell_formula_units_Z 48
_cell_length_a 8.104107
_cell_length_b 14.627096
_cell_length_c 18.584164
_cell_angle_alpha 90.000000
_cell_angle_beta 90.000000
_cell_angle_gamma 90.000000
_cell_volume 2202.958458
_symmetry_space_group_name_H-M "P C C N"
_symmetry_group_IT_number 56
_symmetry_cell_setting 'orthorhombic'
loop_
_space_group_symop_operation_xyz
x,y,z
1/2-x,1/2-y,z
1/2+x,-y,1/2-z
-x,1/2+y,1/2-z
-x,-y,-z
1/2+x,1/2+y,-z
1/2-x,y,1/2+z
x,1/2-y,1/2+z
loop_
_atom_site_type_symbol
_atom_site_label
_atom_site_fract_x
_atom_site_fract_y
_atom_site_fract_z
Si Si1 0.250000 0.250000 0.682556
Si Si2 0.259072 0.424155 0.978000
Si Si3 0.094736 0.976658 0.357817
Si Si4 0.247397 0.458538 0.718061
Si Si5 0.750000 0.250000 0.948462
Si Si6 0.891383 0.431671 0.407247
Si Si7 0.486473 0.302322 0.564829
O O1 0.246760 0.347573 0.723059
O O2 0.411017 0.245965 0.630826
O O3 0.119955 0.451527 0.921129
O O4 0.424339 0.404855 0.932581
O O5 0.309965 0.508386 0.029032
O O6 0.174226 0.349616 0.028601
O O7 0.918735 0.982938 0.320017
O O8 0.099549 0.879494 0.397525
O O9 0.224006 0.995689 0.295106
O O10 0.115717 0.504265 0.663082
O O11 0.715735 0.339597 0.901194
O O12 0.594367 0.242234 0.002688
#
# Coordination Sequence:
#
# PCOD9432263 Si02
#       7
#     4   8   8   8   4   8   8
#     4  10  22  42  66  92 128 174 224 270 332 400
#     4  11  21  42  69  93 129 173 221 272 333 388
#     4  11  22  41  66  89 131 174 218 269 335 388
#     4  11  24  43  67  95 134 180 219 275 335 399
#     4  12  24  36  66 102 134 170 222 280 320 396
#     4  11  23  40  67  99 130 173 220 271 333 391
#     4  11  22  40  64  98 129 172 220 278 330 390
#
# _framework density 21.788881
#
# number of rings (size 3 to 8) (size 9 to 14) (size 15 to 20)
#    0.000    1.000    5.000    3.500    2.333    1.333 
#    0.000   11.667    0.000    0.000    0.000    0.000 
#    0.000    0.000    0.000    0.000    0.000    0.000 
#
# Total GULP energy -268143.525401 kJ/mol
# GULP energy per Si atom -5586.323446 kJ/mol
# Density = 2.173929 g / cm^3
# Si number density = 21.788881 Si / 1000 Ang^3
#
#
#
# Elastic Constant Matrix: (Units=GPa)
#
#
# Indices 1 2 3 4 5 6 
#
# 1 63.2384 19.4634 -3.1897 0.0000 0.0000 0.0000
# 2 19.4634 81.9570 18.4888 0.0000 0.0000 0.0000
# 3 -3.1897 18.4888 75.8958 0.0000 0.0000 0.0000
# 4 0.0000 0.0000 0.0000 0.0249 0.0000 0.0000
# 5 0.0000 0.0000 0.0000 0.0000 35.4542 0.0000
# 6 0.0000 0.0000 0.0000 0.0000 0.0000 24.2574
#
#
#
# Elastic Compliance Matrix: (Units=1/GPa)
#
#
# Indices 1 2 3 4 5 6 
#
# 1 0.017297 -0.004520 0.001828 0.000000 0.000000 0.000000
# 2 -0.004520 0.014092 -0.003623 0.000000 0.000000 0.000000
# 3 0.001828 -0.003623 0.014135 0.000000 0.000000 0.000000
# 4 0.000000 0.000000 0.000000 40.235940 0.000000 0.000000
# 5 0.000000 0.000000 0.000000 0.000000 0.028205 0.000000
# 6 0.000000 0.000000 0.000000 0.000000 0.000000 0.041225
#
#
# Mechanical properties :
#
#
# Convention : Reuss Voigt Hill
#
# Bulk Modulus (GPa) = 30.40040 32.29069 31.34554
# Shear Modulus (GPa) = 0.12384 24.36919 12.24651
#
# Velocity S-wave (km/s) = 0.23866 3.34791 2.37334
# Velocity P-wave (km/s) = 3.74947 5.45863 4.68269
#
# Compressibility (1/GPa) = 0.03289431
#
# Stress axis : x y z
#
# Youngs Moduli (GPa) = 57.81497 70.96095 70.74450
#
# Poissons Ratio (x) = 0.32075 -0.12932
# Poissons Ratio (y) = 0.26133 0.25630
# Poissons Ratio (z) = -0.10569 0.25709
#
# Static dielectric constant tensor:
#      x y z
#    x 1.842980 0.000000 0.000000 
#    y 0.000000 1.808040 0.000000 
#    z 0.000000 0.000000 1.784390 
# 
# From -- ./inp_files/14891.got.cif
#   From: 2010.05.17/outbox.cif.g08.bks.cpg/sg56_8_cif.got.tgz:14891.got - 2010.06.03 13:42:01.
