data_PCOD9432665
_publ_section_title
;
Structure prediction by ZEFSAII (Michael W. Deem and Ramdas Pophale) SiO2 
 PCOD9432665
Probable space group: P C C N
;
_chemical_formula_sum "Si O2"
_cell_formula_units_Z 64
_cell_length_a 18.563373
_cell_length_b 11.155116
_cell_length_c 13.991617
_cell_angle_alpha 90.000000
_cell_angle_beta 90.000000
_cell_angle_gamma 90.000000
_cell_volume 2897.336185
_symmetry_space_group_name_H-M "P C C N"
_symmetry_group_IT_number 56
_symmetry_cell_setting 'orthorhombic'
loop_
_space_group_symop_operation_xyz
x,y,z
1/2-x,1/2-y,z
1/2+x,-y,1/2-z
-x,1/2+y,1/2-z
-x,-y,-z
1/2+x,1/2+y,-z
1/2-x,y,1/2+z
x,1/2-y,1/2+z
loop_
_atom_site_type_symbol
_atom_site_label
_atom_site_fract_x
_atom_site_fract_y
_atom_site_fract_z
Si Si1 0.101958 0.422753 0.266494
Si Si2 0.101107 0.822316 0.837111
Si Si3 0.399788 0.075362 0.757223
Si Si4 0.550666 0.728462 0.388833
Si Si5 0.867248 0.325352 0.327211
Si Si6 0.213011 0.877574 0.989938
Si Si7 0.752453 0.611068 0.126376
Si Si8 0.484309 0.271570 0.391446
O O1 0.077027 0.555719 0.287648
O O2 0.089493 0.385683 0.157253
O O3 0.183367 0.407815 0.304551
O O4 0.055068 0.331608 0.330007
O O5 0.154022 0.756712 0.762821
O O6 0.138023 0.865908 0.933427
O O7 0.032587 0.739783 0.856416
O O8 0.410378 0.161246 0.665185
O O9 0.323636 0.097357 0.809603
O O10 0.457779 0.109183 0.838178
O O11 0.402466 0.942553 0.718270
O O12 0.546983 0.732959 0.502204
O O13 0.805187 0.370146 0.397995
O O14 0.930394 0.252815 0.383045
O O15 0.250000 0.750000 0.966528
O O16 0.248629 0.001097 0.951002
O O17 0.750000 0.750000 0.089217
#
# Coordination Sequence:
#
# PCOD9432665 Si02
#       8
#     8   8   8   8   8   8   8   8
#     4  10  23  43  68 102 140 188 230 299 363 423
#     4  11  23  44  69  99 143 184 238 305 348 430
#     4  11  25  43  72 104 145 189 232 308 361 427
#     4  11  22  40  70 105 138 184 230 291 373 426
#     4  12  25  45  71 102 142 193 240 293 369 438
#     4  11  27  48  76 105 139 201 250 296 362 446
#     4  11  22  49  71 103 149 183 238 306 359 429
#     4  11  23  42  69 107 141 175 244 293 362 430
#
# _framework density 22.089255000000001
#
# number of rings (size 3 to 8) (size 9 to 14) (size 15 to 20)
#    0.000    1.000    6.250    1.500    3.500    3.500 
#    6.750    3.125    0.000    0.000    0.000    0.000 
#    0.000    0.000    0.000    0.000    0.000    0.000 
#
# Total GULP energy -357475.357419 kJ/mol
# GULP energy per Si atom -5585.552460 kJ/mol
# Density = 2.203898 g / cm^3
# Si number density = 22.089255 Si / 1000 Ang^3
#
#
#
# Elastic Constant Matrix: (Units=GPa)
#
#
# Indices 1 2 3 4 5 6 
#
# 1 59.4581 -3.3422 1.6577 0.0000 0.0000 0.0000
# 2 -3.3422 76.5261 34.4997 0.0000 0.0000 0.0000
# 3 1.6577 34.4997 114.5406 0.0000 0.0000 0.0000
# 4 0.0000 0.0000 0.0000 7.0308 0.0000 0.0000
# 5 0.0000 0.0000 0.0000 0.0000 22.7343 0.0000
# 6 0.0000 0.0000 0.0000 0.0000 0.0000 26.7527
#
#
#
# Elastic Compliance Matrix: (Units=1/GPa)
#
#
# Indices 1 2 3 4 5 6 
#
# 1 0.016889 0.000981 -0.000540 0.000000 0.000000 0.000000
# 2 0.000981 0.015178 -0.004586 0.000000 0.000000 0.000000
# 3 -0.000540 -0.004586 0.010120 0.000000 0.000000 0.000000
# 4 0.000000 0.000000 0.000000 0.142232 0.000000 0.000000
# 5 0.000000 0.000000 0.000000 0.000000 0.043986 0.000000
# 6 0.000000 0.000000 0.000000 0.000000 0.000000 0.037379
#
#
# Mechanical properties :
#
#
# Convention : Reuss Voigt Hill
#
# Bulk Modulus (GPa) = 29.50138 35.12835 32.31487
# Shear Modulus (GPa) = 17.52103 25.81754 21.66928
#
# Velocity S-wave (km/s) = 2.81942 3.42246 3.13547
# Velocity P-wave (km/s) = 4.89728 5.61739 5.26965
#
# Compressibility (1/GPa) = 0.03389672
#
# Stress axis : x y z
#
# Youngs Moduli (GPa) = 59.21100 65.88651 98.81852
#
# Poissons Ratio (x) = -0.06463 0.05335
# Poissons Ratio (y) = -0.05809 0.45315
# Poissons Ratio (z) = 0.03197 0.30214
#
# Static dielectric constant tensor:
#      x y z
#    x 1.890270 0.000000 0.000000 
#    y 0.000000 1.835810 0.000000 
#    z 0.000000 0.000000 1.802160 
# 
# From -- ./inp_files/12846.got.cif
#   From: 2010.05.17/outbox.cif.g08.bks.cpg/sg56_7_cif.got.tgz:12846.got - 2010.06.03 13:42:01.
