data_PCOD9432969
_publ_section_title
;
Structure prediction by ZEFSAII (Michael W. Deem and Ramdas Pophale) SiO2 
 PCOD9432969
Probable space group: P C C N
;
_chemical_formula_sum "Si O2"
_cell_formula_units_Z 40
_cell_length_a 9.161461
_cell_length_b 20.020799
_cell_length_c 9.080048
_cell_angle_alpha 90.000000
_cell_angle_beta 90.000000
_cell_angle_gamma 90.000000
_cell_volume 1665.460309
_symmetry_space_group_name_H-M "P C C N"
_symmetry_group_IT_number 56
_symmetry_cell_setting 'orthorhombic'
loop_
_space_group_symop_operation_xyz
x,y,z
1/2-x,1/2-y,z
1/2+x,-y,1/2-z
-x,1/2+y,1/2-z
-x,-y,-z
1/2+x,1/2+y,-z
1/2-x,y,1/2+z
x,1/2-y,1/2+z
loop_
_atom_site_type_symbol
_atom_site_label
_atom_site_fract_x
_atom_site_fract_y
_atom_site_fract_z
Si Si1 0.586580 0.980115 0.297559
Si Si2 0.130653 0.308983 0.186040
Si Si3 0.804283 0.091598 0.281216
Si Si4 0.279759 0.099728 0.441009
Si Si5 0.674952 0.185117 0.048245
O O1 0.419539 0.966004 0.258960
O O2 0.675343 0.941249 0.168788
O O3 0.624333 0.947442 0.454595
O O4 0.648835 0.054796 0.298378
O O5 0.250000 0.250000 0.198204
O O6 0.131650 0.349038 0.339004
O O7 0.967563 0.290948 0.137328
O O8 0.186876 0.357400 0.056865
O O9 0.785429 0.147091 0.156854
O O10 0.857839 0.130001 0.425241
O O11 0.750000 0.250000 0.979891
#
# Coordination Sequence:
#
# PCOD9432969 Si02
#       5
#     8   8   8   8   8
#     4  11  26  48  77 111 146 200 247 314 382 447
#     4  11  25  46  77 106 145 199 254 305 365 453
#     4  12  29  50  78 112 154 200 258 313 382 452
#     4  10  24  44  76 107 147 185 253 308 376 436
#     4  12  30  50  75 111 156 199 250 312 382 454
#
# _framework density 24.017384
#
# number of rings (size 3 to 8) (size 9 to 14) (size 15 to 20)
#    0.000    0.800    2.000    2.400   14.000    6.400 
#    0.000    0.000    0.000    0.000    0.000    0.000 
#    0.000    0.000    0.000    0.000    0.000    0.000 
#
# Total GULP energy -224198.221193 kJ/mol
# GULP energy per Si atom -5604.955530 kJ/mol
# Density = 2.396272 g / cm^3
# Si number density = 24.017384 Si / 1000 Ang^3
#
#
#
# Elastic Constant Matrix: (Units=GPa)
#
#
# Indices 1 2 3 4 5 6 
#
# 1 83.5409 27.7197 6.7174 0.0000 0.0000 0.0000
# 2 27.7197 100.7204 20.8344 0.0000 0.0000 0.0000
# 3 6.7174 20.8344 126.5497 0.0000 0.0000 0.0000
# 4 0.0000 0.0000 0.0000 31.2058 0.0000 0.0000
# 5 0.0000 0.0000 0.0000 0.0000 17.3601 0.0000
# 6 0.0000 0.0000 0.0000 0.0000 0.0000 44.7051
#
#
#
# Elastic Compliance Matrix: (Units=1/GPa)
#
#
# Indices 1 2 3 4 5 6 
#
# 1 0.013175 -0.003604 -0.000106 0.000000 0.000000 0.000000
# 2 -0.003604 0.011264 -0.001663 0.000000 0.000000 0.000000
# 3 -0.000106 -0.001663 0.008181 0.000000 0.000000 0.000000
# 4 0.000000 0.000000 0.000000 0.032045 0.000000 0.000000
# 5 0.000000 0.000000 0.000000 0.000000 0.057603 0.000000
# 6 0.000000 0.000000 0.000000 0.000000 0.000000 0.022369
#
#
# Mechanical properties :
#
#
# Convention : Reuss Voigt Hill
#
# Bulk Modulus (GPa) = 45.71601 46.81713 46.26657
# Shear Modulus (GPa) = 30.73607 35.69017 33.21312
#
# Velocity S-wave (km/s) = 3.58123 3.85907 3.72274
# Velocity P-wave (km/s) = 6.01466 6.27629 6.14687
#
# Compressibility (1/GPa) = 0.02187417
#
# Stress axis : x y z
#
# Youngs Moduli (GPa) = 75.90411 88.77553 122.22732
#
# Poissons Ratio (x) = 0.31994 0.01296
# Poissons Ratio (y) = 0.27355 0.20329
# Poissons Ratio (z) = 0.00805 0.14765
#
# Static dielectric constant tensor:
#      x y z
#    x 1.930090 0.000000 0.000000 
#    y 0.000000 1.922760 0.000000 
#    z 0.000000 0.000000 1.880820 
# 
# From -- ./inp_files/2055.got.cif
#   From: 2010.05.17/outbox.cif.g08.bks.cpg/sg56_2_cif.got.tgz:2055.got - 2010.06.03 13:42:01.
