data_PCOD9432715
_publ_section_title
;
Structure prediction by ZEFSAII (Michael W. Deem and Ramdas Pophale) SiO2 
 PCOD9432715
Probable space group: P C C N
;
_chemical_formula_sum "Si O2"
_cell_formula_units_Z 24
_cell_length_a 7.479062
_cell_length_b 12.366664
_cell_length_c 9.278282
_cell_angle_alpha 90.000000
_cell_angle_beta 90.000000
_cell_angle_gamma 90.000000
_cell_volume 858.158015
_symmetry_space_group_name_H-M "P C C N"
_symmetry_group_IT_number 56
_symmetry_cell_setting 'orthorhombic'
loop_
_space_group_symop_operation_xyz
x,y,z
1/2-x,1/2-y,z
1/2+x,-y,1/2-z
-x,1/2+y,1/2-z
-x,-y,-z
1/2+x,1/2+y,-z
1/2-x,y,1/2+z
x,1/2-y,1/2+z
loop_
_atom_site_type_symbol
_atom_site_label
_atom_site_fract_x
_atom_site_fract_y
_atom_site_fract_z
Si Si1 0.597051 0.382334 0.484956
Si Si2 0.559104 0.079456 0.662172
Si Si3 0.826045 0.855436 0.287472
O O1 0.500000 0.500000 0.500000
O O2 0.795151 0.383428 0.548027
O O3 0.599020 0.362152 0.315695
O O4 0.469416 0.317231 0.593820
O O5 0.406041 0.048607 0.307615
O O6 0.349241 0.093473 0.637195
O O7 0.750000 0.750000 0.207493
#
# Coordination Sequence:
#
# PCOD9432715 Si02
#       3
#     8   8   8
#     4  10  23  44  70 102 137 190 227 290 360 403
#     4  11  23  47  72 100 146 181 235 299 348 419
#     4  11  24  43  70 104 141 189 235 287 359 420
#
# _framework density 27.966878000000001
#
# number of rings (size 3 to 8) (size 9 to 14) (size 15 to 20)
#    0.000    1.333    6.667    0.000    0.000   10.667 
#    0.000    3.333    0.000    0.000    0.000    0.000 
#    0.000    0.000    0.000    0.000    0.000    0.000 
#
# Total GULP energy -134622.866480 kJ/mol
# GULP energy per Si atom -5609.286103 kJ/mol
# Density = 2.790322 g / cm^3
# Si number density = 27.966878 Si / 1000 Ang^3
#
#
#
# Elastic Constant Matrix: (Units=GPa)
#
#
# Indices 1 2 3 4 5 6 
#
# 1 230.0593 31.8823 51.2887 0.0000 0.0000 0.0000
# 2 31.8823 103.9425 -18.1176 0.0000 0.0000 0.0000
# 3 51.2887 -18.1176 148.2686 0.0000 0.0000 0.0000
# 4 0.0000 0.0000 0.0000 22.2764 0.0000 0.0000
# 5 0.0000 0.0000 0.0000 0.0000 56.8186 0.0000
# 6 0.0000 0.0000 0.0000 0.0000 0.0000 51.4600
#
#
#
# Elastic Compliance Matrix: (Units=1/GPa)
#
#
# Indices 1 2 3 4 5 6 
#
# 1 0.005050 -0.001894 -0.001978 0.000000 0.000000 0.000000
# 2 -0.001894 0.010540 0.001943 0.000000 0.000000 0.000000
# 3 -0.001978 0.001943 0.007666 0.000000 0.000000 0.000000
# 4 0.000000 0.000000 0.000000 0.044891 0.000000 0.000000
# 5 0.000000 0.000000 0.000000 0.000000 0.017600 0.000000
# 6 0.000000 0.000000 0.000000 0.000000 0.000000 0.019433
#
#
# Mechanical properties :
#
#
# Convention : Reuss Voigt Hill
#
# Bulk Modulus (GPa) = 51.55044 68.04192 59.79618
# Shear Modulus (GPa) = 43.28839 53.92545 48.60692
#
# Velocity S-wave (km/s) = 3.93853 4.39588 4.17348
# Velocity P-wave (km/s) = 6.25743 7.08148 6.68217
#
# Compressibility (1/GPa) = 0.01939848
#
# Stress axis : x y z
#
# Youngs Moduli (GPa) = 198.01111 94.87384 130.44091
#
# Poissons Ratio (x) = 0.17968 0.25806
# Poissons Ratio (y) = 0.37501 -0.25346
# Poissons Ratio (z) = 0.39174 -0.18435
#
# Static dielectric constant tensor:
#      x y z
#    x 2.101820 0.000000 0.000000 
#    y 0.000000 2.344530 0.000000 
#    z 0.000000 0.000000 2.215490 
# 
# From -- ./inp_files/1825.got.cif
#   From: 2010.05.17/outbox.cif.g08.bks.cpg/sg56_1_cif.got.tgz:1825.got - 2010.06.03 13:42:01.
