data_PCOD9432936
_publ_section_title
;
Structure prediction by ZEFSAII (Michael W. Deem and Ramdas Pophale) SiO2 
 PCOD9432936
Probable space group: P C C N
;
_chemical_formula_sum "Si O2"
_cell_formula_units_Z 60
_cell_length_a 5.400274
_cell_length_b 20.196847
_cell_length_c 22.310776
_cell_angle_alpha 90.000000
_cell_angle_beta 90.000000
_cell_angle_gamma 90.000000
_cell_volume 2433.403045
_symmetry_space_group_name_H-M "P C C N"
_symmetry_group_IT_number 56
_symmetry_cell_setting 'orthorhombic'
loop_
_space_group_symop_operation_xyz
x,y,z
1/2-x,1/2-y,z
1/2+x,-y,1/2-z
-x,1/2+y,1/2-z
-x,-y,-z
1/2+x,1/2+y,-z
1/2-x,y,1/2+z
x,1/2-y,1/2+z
loop_
_atom_site_type_symbol
_atom_site_label
_atom_site_fract_x
_atom_site_fract_y
_atom_site_fract_z
Si Si1 0.121611 0.078598 0.694157
Si Si2 0.750994 0.327190 0.252507
Si Si3 0.467903 0.338312 0.011281
Si Si4 0.586877 0.942143 0.192015
Si Si5 0.436772 0.128582 0.915286
Si Si6 0.099138 0.187758 0.140690
Si Si7 0.251510 0.541603 0.510591
Si Si8 0.250000 0.750000 0.582521
O O1 0.298530 0.044585 0.742786
O O2 0.251638 0.118730 0.641533
O O3 0.007061 0.137334 0.735346
O O4 0.967236 0.016958 0.670418
O O5 0.750000 0.250000 0.274657
O O6 0.614489 0.384678 0.291036
O O7 0.620131 0.322980 0.187275
O O8 0.451813 0.297632 0.071976
O O9 0.669327 0.394634 0.027786
O O10 0.216509 0.363244 0.977656
O O11 0.582418 0.294735 0.959569
O O12 0.724671 0.906279 0.136513
O O13 0.550248 0.197813 0.892309
O O14 0.668675 0.078585 0.927442
O O15 0.250000 0.250000 0.165160
O O16 0.500000 0.500000 0.500000
O O17 0.000000 0.500000 0.500000
#
# Coordination Sequence:
#
# PCOD9432936 Si02
#       8
#     8   8   8   8   8   8   8   4
#     4  11  24  47  70 105 147 186 250 312 394 451
#     4  11  24  46  70 104 142 190 255 310 384 458
#     4  11  25  46  73 106 154 197 253 315 393 465
#     4  11  26  45  73 104 143 194 249 321 386 462
#     4  11  25  45  72 105 148 202 250 314 389 468
#     4  11  24  42  74 108 144 192 248 317 383 473
#     4  11  24  47  71 107 149 192 254 306 370 460
#     4  10  24  44  66 104 150 194 252 310 376 466
#
# _framework density 24.656825999999999
#
# number of rings (size 3 to 8) (size 9 to 14) (size 15 to 20)
#    0.000    1.067    4.000    1.200    3.733    5.333 
#    2.400    0.000    0.000    0.000    0.000    0.000 
#    0.000    0.000    0.000    0.000    0.000    0.000 
#
# Total GULP energy -334017.494849 kJ/mol
# GULP energy per Si atom -5566.958247 kJ/mol
# Density = 2.460071 g / cm^3
# Si number density = 24.656826 Si / 1000 Ang^3
#
#
#
# Elastic Constant Matrix: (Units=GPa)
#
#
# Indices 1 2 3 4 5 6 
#
# 1 68.1072 25.4530 -0.8382 0.0000 0.0000 0.0000
# 2 25.4530 149.7706 -3.4978 0.0000 0.0000 0.0000
# 3 -0.8382 -3.4978 44.9160 0.0000 0.0000 0.0000
# 4 0.0000 0.0000 0.0000 18.9416 0.0000 0.0000
# 5 0.0000 0.0000 0.0000 0.0000 -1.0403 0.0000
# 6 0.0000 0.0000 0.0000 0.0000 0.0000 44.6304
#
#
#
# Elastic Compliance Matrix: (Units=1/GPa)
#
#
# Indices 1 2 3 4 5 6 
#
# 1 0.015679 -0.002663 0.000085 0.000000 0.000000 0.000000
# 2 -0.002663 0.007141 0.000506 0.000000 0.000000 0.000000
# 3 0.000085 0.000506 0.022305 0.000000 0.000000 0.000000
# 4 0.000000 0.000000 0.000000 0.052794 0.000000 0.000000
# 5 0.000000 0.000000 0.000000 0.000000 -0.961296 0.000000
# 6 0.000000 0.000000 0.000000 0.000000 0.000000 0.022406
#
#
# Mechanical properties :
#
#
# Convention : Reuss Voigt Hill
#
# Bulk Modulus (GPa) = 24.40032 33.89196 29.14614
# Shear Modulus (GPa) = -6.07409 28.61813 11.27202
#
# Velocity S-wave (km/s) = -1.57124 3.41054 2.14044
# Velocity P-wave (km/s) = 2.57405 5.41150 4.23734
#
# Compressibility (1/GPa) = 0.04098307
#
# Stress axis : x y z
#
# Youngs Moduli (GPa) = 63.78018 140.03252 44.83342
#
# Poissons Ratio (x) = 0.37285 -0.00382
# Poissons Ratio (y) = 0.16982 -0.02270
# Poissons Ratio (z) = -0.00544 -0.07092
#
# Static dielectric constant tensor:
#      x y z
#    x 2.413000 0.000000 0.000000 
#    y 0.000000 1.969980 0.000000 
#    z 0.000000 0.000000 1.983100 
# 
# From -- ./inp_files/20151.got.cif
#   From: 2010.05.17/outbox.cif.g08.bks.cpg/sg56_11_cif.got.tgz:20151.got - 2010.06.03 13:42:01.
