data_PCOD9432382
_publ_section_title
;
Structure prediction by ZEFSAII (Michael W. Deem and Ramdas Pophale) SiO2 
 PCOD9432382
Probable space group: P C C N
;
_chemical_formula_sum "Si O2"
_cell_formula_units_Z 40
_cell_length_a 9.105409
_cell_length_b 8.678279
_cell_length_c 17.654262
_cell_angle_alpha 90.000000
_cell_angle_beta 90.000000
_cell_angle_gamma 90.000000
_cell_volume 1395.027067
_symmetry_space_group_name_H-M "P C C N"
_symmetry_group_IT_number 56
_symmetry_cell_setting 'orthorhombic'
loop_
_space_group_symop_operation_xyz
x,y,z
1/2-x,1/2-y,z
1/2+x,-y,1/2-z
-x,1/2+y,1/2-z
-x,-y,-z
1/2+x,1/2+y,-z
1/2-x,y,1/2+z
x,1/2-y,1/2+z
loop_
_atom_site_type_symbol
_atom_site_label
_atom_site_fract_x
_atom_site_fract_y
_atom_site_fract_z
Si Si1 0.721103 0.920458 0.838999
Si Si2 0.143455 0.479010 0.945027
Si Si3 0.750000 0.250000 0.162319
Si Si4 0.060561 0.159394 0.928852
Si Si5 0.250000 0.750000 0.573806
Si Si6 0.982401 0.469730 0.724138
O O1 0.750000 0.750000 0.875858
O O2 0.848446 0.927514 0.775842
O O3 0.721414 0.086530 0.882770
O O4 0.571059 0.926976 0.792841
O O5 0.178256 0.624199 0.893805
O O6 0.105920 0.326410 0.898047
O O7 0.305194 0.417442 0.975613
O O8 0.000000 0.500000 0.000000
O O9 0.630737 0.329952 0.215991
O O10 0.903450 0.202152 0.966811
O O11 0.033366 0.052766 0.857295
#
# Coordination Sequence:
#
# PCOD9432382 Si02
#       6
#     8   8   4   8   4   8
#     4  11  26  38  66 102 143 191 243 284 325 418
#     4  10  22  43  71  98 124 170 233 293 367 443
#     4  10  23  41  70  96 134 178 230 285 355 438
#     4   9  22  44  67  94 136 183 215 297 362 419
#     4  10  23  45  64 102 148 188 236 285 353 416
#     4  10  24  41  63 100 137 188 227 278 345 406
#
# _framework density 28.673280999999999
#
# number of rings (size 3 to 8) (size 9 to 14) (size 15 to 20)
#    0.000    2.000    0.000    0.600   16.800    0.800 
#    0.000   22.000    0.000    0.000    0.000    0.000 
#    0.000    0.000    0.000    0.000    0.000    0.000 
#
# Total GULP energy -223388.956044 kJ/mol
# GULP energy per Si atom -5584.723901 kJ/mol
# Density = 2.860802 g / cm^3
# Si number density = 28.673281 Si / 1000 Ang^3
#
#
#
# Elastic Constant Matrix: (Units=GPa)
#
#
# Indices 1 2 3 4 5 6 
#
# 1 245.7932 70.9887 48.7831 0.0000 0.0000 0.0000
# 2 70.9887 205.6312 44.2404 0.0000 0.0000 0.0000
# 3 48.7831 44.2404 57.4668 0.0000 0.0000 0.0000
# 4 0.0000 0.0000 0.0000 12.5916 0.0000 0.0000
# 5 0.0000 0.0000 0.0000 0.0000 34.0815 0.0000
# 6 0.0000 0.0000 0.0000 0.0000 0.0000 69.8171
#
#
#
# Elastic Compliance Matrix: (Units=1/GPa)
#
#
# Indices 1 2 3 4 5 6 
#
# 1 0.005054 -0.000985 -0.003532 0.000000 0.000000 0.000000
# 2 -0.000985 0.006020 -0.003799 0.000000 0.000000 0.000000
# 3 -0.003532 -0.003799 0.023324 0.000000 0.000000 0.000000
# 4 0.000000 0.000000 0.000000 0.079418 0.000000 0.000000
# 5 0.000000 0.000000 0.000000 0.000000 0.029341 0.000000
# 6 0.000000 0.000000 0.000000 0.000000 0.000000 0.014323
#
#
# Mechanical properties :
#
#
# Convention : Reuss Voigt Hill
#
# Bulk Modulus (GPa) = 56.28360 92.99063 74.63711
# Shear Modulus (GPa) = 27.77242 46.28995 37.03118
#
# Velocity S-wave (km/s) = 3.11558 4.02231 3.59763
# Velocity P-wave (km/s) = 5.71090 7.35347 6.58361
#
# Compressibility (1/GPa) = 0.01776717
#
# Stress axis : x y z
#
# Youngs Moduli (GPa) = 197.86666 166.10384 42.87410
#
# Poissons Ratio (x) = 0.16358 0.15143
# Poissons Ratio (y) = 0.19486 0.16287
# Poissons Ratio (z) = 0.69888 0.63098
#
# Static dielectric constant tensor:
#      x y z
#    x 2.446120 0.000000 0.000000 
#    y 0.000000 2.230340 0.000000 
#    z 0.000000 0.000000 2.184890 
# 
# From -- ./inp_files/20382.got.cif
#   From: 2010.05.17/outbox.cif.g08.bks.cpg/sg56_11_cif.got.tgz:20382.got - 2010.06.03 13:42:01.
