data_PCOD9432175
_publ_section_title
;
Structure prediction by ZEFSAII (Michael W. Deem and Ramdas Pophale) SiO2 
 PCOD9432175
Probable space group: P C C N
;
_chemical_formula_sum "Si O2"
_cell_formula_units_Z 48
_cell_length_a 5.002084
_cell_length_b 14.133850
_cell_length_c 33.264239
_cell_angle_alpha 90.000000
_cell_angle_beta 90.000000
_cell_angle_gamma 90.000000
_cell_volume 2351.738618
_symmetry_space_group_name_H-M "P C C N"
_symmetry_group_IT_number 56
_symmetry_cell_setting 'orthorhombic'
loop_
_space_group_symop_operation_xyz
x,y,z
1/2-x,1/2-y,z
1/2+x,-y,1/2-z
-x,1/2+y,1/2-z
-x,-y,-z
1/2+x,1/2+y,-z
1/2-x,y,1/2+z
x,1/2-y,1/2+z
loop_
_atom_site_type_symbol
_atom_site_label
_atom_site_fract_x
_atom_site_fract_y
_atom_site_fract_z
Si Si1 0.720676 0.860836 0.655362
Si Si2 0.418815 0.996963 0.776924
Si Si3 0.755721 0.990788 0.470304
Si Si4 0.490802 0.816283 0.829721
Si Si5 0.279811 0.861049 0.100964
Si Si6 0.999029 0.184007 0.579809
O O1 0.750000 0.750000 0.666074
O O2 0.428259 0.879683 0.637207
O O3 0.926443 0.877665 0.618680
O O4 0.801976 0.925503 0.692468
O O5 0.518440 0.907251 0.802231
O O6 0.672626 0.032348 0.751672
O O7 0.859849 0.897406 0.446427
O O8 0.500000 0.000000 0.500000
O O9 0.727379 0.072087 0.436765
O O10 0.000000 0.000000 0.500000
O O11 0.250000 0.750000 0.815711
O O12 0.418577 0.849835 0.875392
O O13 0.750000 0.750000 0.829001
O O14 0.250000 0.750000 0.090092
O O15 0.250000 0.250000 0.587013
O O16 0.750000 0.250000 0.564103
#
# Coordination Sequence:
#
# PCOD9432175 Si02
#       6
#     8   8   8   8   8   8
#     4  10  22  42  66  89 119 165 215 258 304 370
#     4  12  25  39  62  95 129 163 200 259 326 376
#     4  12  25  39  62  96 130 163 201 259 325 378
#     4  10  22  41  64  89 122 168 215 256 304 375
#     4  10  22  42  66  89 120 166 215 259 305 370
#     4  10  22  41  64  88 119 163 210 253 301 369
#
# _framework density 20.410433000000001
#
# number of rings (size 3 to 8) (size 9 to 14) (size 15 to 20)
#    0.000    1.333    0.000    5.000    0.000    8.000 
#    0.000    0.000    0.000    0.000    0.000    0.000 
#    0.000    0.000    0.000    0.000    0.000    0.000 
#
# Total GULP energy -267856.172968 kJ/mol
# GULP energy per Si atom -5580.336937 kJ/mol
# Density = 2.036398 g / cm^3
# Si number density = 20.410433 Si / 1000 Ang^3
#
#
#
# Elastic Constant Matrix: (Units=GPa)
#
#
# Indices 1 2 3 4 5 6 
#
# 1 110.0494 30.6374 13.5200 0.0000 0.0000 0.0000
# 2 30.6374 105.5168 77.0809 0.0000 0.0000 0.0000
# 3 13.5200 77.0809 95.8785 0.0000 0.0000 0.0000
# 4 0.0000 0.0000 0.0000 6364.0735 0.0000 0.0000
# 5 0.0000 0.0000 0.0000 0.0000 26.8305 0.0000
# 6 0.0000 0.0000 0.0000 0.0000 0.0000 28.5536
#
#
#
# Elastic Compliance Matrix: (Units=1/GPa)
#
#
# Indices 1 2 3 4 5 6 
#
# 1 0.010084 -0.004577 0.002258 0.000000 0.000000 0.000000
# 2 -0.004577 0.025041 -0.019486 0.000000 0.000000 0.000000
# 3 0.002258 -0.019486 0.025777 0.000000 0.000000 0.000000
# 4 0.000000 0.000000 0.000000 0.000157 0.000000 0.000000
# 5 0.000000 0.000000 0.000000 0.000000 0.037271 0.000000
# 6 0.000000 0.000000 0.000000 0.000000 0.000000 0.035022
#
#
# Mechanical properties :
#
#
# Convention : Reuss Voigt Hill
#
# Bulk Modulus (GPa) = 57.83345 61.54683 59.69014
# Shear Modulus (GPa) = 27.36331 1296.57195 661.96763
#
# Velocity S-wave (km/s) = 3.66546 25.23150 18.02865
# Velocity P-wave (km/s) = 6.80521 29.64892 21.51010
#
# Compressibility (1/GPa) = 0.01729103
#
# Stress axis : x y z
#
# Youngs Moduli (GPa) = 99.16951 39.93455 38.79402
#
# Poissons Ratio (x) = 0.18280 -0.08760
# Poissons Ratio (y) = 0.45394 0.75594
# Poissons Ratio (z) = -0.22393 0.77817
#
# Static dielectric constant tensor:
#      x y z
#    x 1.686240 0.000000 0.000000 
#    y 0.000000 1.604610 0.000000 
#    z 0.000000 0.000000 1.693100 
# 
# From -- ./inp_files/21661.got.cif
#   From: 2010.05.17/outbox.cif.g08.bks.cpg/sg56_11_cif.got.tgz:21661.got - 2010.06.03 13:42:01.
