data_PCOD9432438
_publ_section_title
;
Structure prediction by ZEFSAII (Michael W. Deem and Ramdas Pophale) SiO2 
 PCOD9432438
Probable space group: P C C N
;
_chemical_formula_sum "Si O2"
_cell_formula_units_Z 60
_cell_length_a 5.573241
_cell_length_b 18.470721
_cell_length_c 24.196050
_cell_angle_alpha 90.000000
_cell_angle_beta 90.000000
_cell_angle_gamma 90.000000
_cell_volume 2490.784446
_symmetry_space_group_name_H-M "P C C N"
_symmetry_group_IT_number 56
_symmetry_cell_setting 'orthorhombic'
loop_
_space_group_symop_operation_xyz
x,y,z
1/2-x,1/2-y,z
1/2+x,-y,1/2-z
-x,1/2+y,1/2-z
-x,-y,-z
1/2+x,1/2+y,-z
1/2-x,y,1/2+z
x,1/2-y,1/2+z
loop_
_atom_site_type_symbol
_atom_site_label
_atom_site_fract_x
_atom_site_fract_y
_atom_site_fract_z
Si Si1 0.250000 0.250000 0.695753
Si Si2 0.943699 0.191828 0.105438
Si Si3 0.414387 0.523687 0.886501
Si Si4 0.095245 0.187578 0.985314
Si Si5 0.800393 0.974804 0.721506
Si Si6 0.403861 0.183459 0.299777
Si Si7 0.875051 0.561881 0.033744
Si Si8 0.718001 0.110270 0.389453
O O1 0.353681 0.192619 0.652811
O O2 0.056714 0.215625 0.738186
O O3 0.750000 0.250000 0.125843
O O4 0.896596 0.107250 0.100205
O O5 0.995633 0.216920 0.042788
O O6 0.224615 0.511168 0.838091
O O7 0.344465 0.480522 0.940698
O O8 0.642581 0.472562 0.871933
O O9 0.250000 0.250000 0.957384
O O10 0.280661 0.125480 0.004042
O O11 0.917476 0.151405 0.940963
O O12 0.756842 0.888702 0.711306
O O13 0.559316 0.005199 0.752784
O O14 0.250000 0.250000 0.326026
O O15 0.629564 0.158037 0.336799
O O16 0.020748 0.598954 0.084043
O O17 0.000000 0.500000 0.000000
#
# Coordination Sequence:
#
# PCOD9432438 Si02
#       8
#     4   8   8   8   8   8   8   8
#     4  10  24  46  66 100 146 184 248 300 376 444
#     4  12  26  42  69 103 142 195 235 303 375 459
#     4  10  25  42  67 101 140 180 248 296 371 447
#     4  11  25  42  65 105 141 175 239 295 372 453
#     4  11  25  45  75 107 147 198 254 315 378 457
#     4   9  22  46  73 103 147 192 254 316 388 460
#     4  11  24  43  73 101 139 188 235 305 379 458
#     4  10  22  44  73 101 138 189 240 307 378 458
#
# _framework density 24.088795000000001
#
# number of rings (size 3 to 8) (size 9 to 14) (size 15 to 20)
#    0.400    1.067    0.667    2.800    9.333    3.200 
#    0.000    0.667    0.000    0.000    0.000    0.000 
#    0.000    0.000    0.000    0.000    0.000    0.000 
#
# Total GULP energy -334294.123775 kJ/mol
# GULP energy per Si atom -5571.568730 kJ/mol
# Density = 2.403397 g / cm^3
# Si number density = 24.088795 Si / 1000 Ang^3
#
#
#
# Elastic Constant Matrix: (Units=GPa)
#
#
# Indices 1 2 3 4 5 6 
#
# 1 50.8787 27.9211 24.6214 0.0000 0.0000 0.0000
# 2 27.9211 120.4616 6.9342 0.0000 0.0000 0.0000
# 3 24.6214 6.9342 120.5231 0.0000 0.0000 0.0000
# 4 0.0000 0.0000 0.0000 21.1975 0.0000 0.0000
# 5 0.0000 0.0000 0.0000 0.0000 21.4751 0.0000
# 6 0.0000 0.0000 0.0000 0.0000 0.0000 26.5108
#
#
#
# Elastic Compliance Matrix: (Units=1/GPa)
#
#
# Indices 1 2 3 4 5 6 
#
# 1 0.025001 -0.005519 -0.004790 0.000000 0.000000 0.000000
# 2 -0.005519 0.009547 0.000578 0.000000 0.000000 0.000000
# 3 -0.004790 0.000578 0.009242 0.000000 0.000000 0.000000
# 4 0.000000 0.000000 0.000000 0.047175 0.000000 0.000000
# 5 0.000000 0.000000 0.000000 0.000000 0.046565 0.000000
# 6 0.000000 0.000000 0.000000 0.000000 0.000000 0.037720
#
#
# Mechanical properties :
#
#
# Convention : Reuss Voigt Hill
#
# Bulk Modulus (GPa) = 41.10267 45.64632 43.37449
# Shear Modulus (GPa) = 24.65190 29.32914 26.99052
#
# Velocity S-wave (km/s) = 3.20250 3.49312 3.35096
# Velocity P-wave (km/s) = 5.54749 5.93797 5.74605
#
# Compressibility (1/GPa) = 0.02432932
#
# Stress axis : x y z
#
# Youngs Moduli (GPa) = 39.99777 104.74078 108.19670
#
# Poissons Ratio (x) = 0.57809 0.51826
# Poissons Ratio (y) = 0.22076 -0.06256
# Poissons Ratio (z) = 0.19159 -0.06056
#
# Static dielectric constant tensor:
#      x y z
#    x 3.963210 0.000000 0.000000 
#    y 0.000000 1.586910 0.000000 
#    z 0.000000 0.000000 0.754850 
# 
# From -- ./inp_files/21793.got.cif
#   From: 2010.05.17/outbox.cif.g08.bks.cpg/sg56_11_cif.got.tgz:21793.got - 2010.06.03 13:42:01.
