data_PCOD9432398
_publ_section_title
;
Structure prediction by ZEFSAII (Michael W. Deem and Ramdas Pophale) SiO2 
 PCOD9432398
Probable space group: P C C N
;
_chemical_formula_sum "Si O2"
_cell_formula_units_Z 60
_cell_length_a 12.845977
_cell_length_b 26.722658
_cell_length_c 9.576116
_cell_angle_alpha 90.000000
_cell_angle_beta 90.000000
_cell_angle_gamma 90.000000
_cell_volume 3287.276173
_symmetry_space_group_name_H-M "P C C N"
_symmetry_group_IT_number 56
_symmetry_cell_setting 'orthorhombic'
loop_
_space_group_symop_operation_xyz
x,y,z
1/2-x,1/2-y,z
1/2+x,-y,1/2-z
-x,1/2+y,1/2-z
-x,-y,-z
1/2+x,1/2+y,-z
1/2-x,y,1/2+z
x,1/2-y,1/2+z
loop_
_atom_site_type_symbol
_atom_site_label
_atom_site_fract_x
_atom_site_fract_y
_atom_site_fract_z
Si Si1 0.667530 0.062719 0.923831
Si Si2 0.782740 0.592680 0.250115
Si Si3 0.250000 0.250000 0.883983
Si Si4 0.836220 0.545527 0.979315
Si Si5 0.588405 0.057949 0.372215
Si Si6 0.999882 0.552728 0.320458
Si Si7 0.342513 0.311111 0.641665
Si Si8 0.022294 0.615188 0.892958
O O1 0.787572 0.064101 0.881790
O O2 0.592892 0.056094 0.790292
O O3 0.654368 0.012223 0.017387
O O4 0.625442 0.109422 0.013968
O O5 0.724723 0.549065 0.334727
O O6 0.729494 0.643058 0.303195
O O7 0.905091 0.589383 0.280820
O O8 0.771209 0.578337 0.088981
O O9 0.333216 0.272727 0.772423
O O10 0.201029 0.289385 0.994993
O O11 0.945001 0.573183 0.958662
O O12 0.541956 0.064389 0.526376
O O13 0.544690 0.097882 0.263550
O O14 0.549587 0.002969 0.323612
O O15 0.455991 0.334123 0.611705
#
# Coordination Sequence:
#
# PCOD9432398 Si02
#       8
#     8   8   4   8   8   8   8   8
#     4  12  22  37  52  78 123 169 212 245 276 321
#     4  11  22  35  56  87 115 162 196 239 284 356
#     4  10  22  44  64  96 118 138 170 252 320 380
#     4  11  22  32  54  79 121 164 210 241 272 331
#     4  11  24  34  53  81 119 164 209 250 272 326
#     4  11  23  36  52  80 118 165 213 243 283 319
#     4  10  23  39  67  91 122 140 187 236 315 383
#     4  11  22  37  55  83 115 160 195 240 298 343
#
# _framework density 18.252193999999999
#
# number of rings (size 3 to 8) (size 9 to 14) (size 15 to 20)
#    0.000    1.067    4.000    3.600    7.467    0.000 
#    0.000    0.000    0.000    0.000    0.000    2.800 
#    0.000    0.000    0.000    0.000    0.000    0.000 
#
# Total GULP energy -334952.682920 kJ/mol
# GULP energy per Si atom -5582.544715 kJ/mol
# Density = 1.821065 g / cm^3
# Si number density = 18.252194 Si / 1000 Ang^3
#
#
#
# Elastic Constant Matrix: (Units=GPa)
#
#
# Indices 1 2 3 4 5 6 
#
# 1 58.6150 5.4646 13.2847 0.0000 0.0000 0.0000
# 2 5.4646 48.1215 14.9984 0.0000 0.0000 0.0000
# 3 13.2847 14.9984 101.1362 0.0000 0.0000 0.0000
# 4 0.0000 0.0000 0.0000 18.0300 0.0000 0.0000
# 5 0.0000 0.0000 0.0000 0.0000 29.6307 0.0000
# 6 0.0000 0.0000 0.0000 0.0000 0.0000 22.5359
#
#
#
# Elastic Compliance Matrix: (Units=1/GPa)
#
#
# Indices 1 2 3 4 5 6 
#
# 1 0.017667 -0.001345 -0.002121 0.000000 0.000000 0.000000
# 2 -0.001345 0.021890 -0.003070 0.000000 0.000000 0.000000
# 3 -0.002121 -0.003070 0.010621 0.000000 0.000000 0.000000
# 4 0.000000 0.000000 0.000000 0.055463 0.000000 0.000000
# 5 0.000000 0.000000 0.000000 0.000000 0.033749 0.000000
# 6 0.000000 0.000000 0.000000 0.000000 0.000000 0.044374
#
#
# Mechanical properties :
#
#
# Convention : Reuss Voigt Hill
#
# Bulk Modulus (GPa) = 26.94932 30.59645 28.77288
# Shear Modulus (GPa) = 23.90006 25.64765 24.77386
#
# Velocity S-wave (km/s) = 3.62254 3.75264 3.68816
# Velocity P-wave (km/s) = 5.68279 5.96456 5.82538
#
# Compressibility (1/GPa) = 0.03710669
#
# Stress axis : x y z
#
# Youngs Moduli (GPa) = 56.60398 45.68249 94.14870
#
# Poissons Ratio (x) = 0.06145 0.19970
# Poissons Ratio (y) = 0.07614 0.28900
# Poissons Ratio (z) = 0.12006 0.14023
#
# Static dielectric constant tensor:
#      x y z
#    x 1.648340 0.000000 0.000000 
#    y 0.000000 1.651010 0.000000 
#    z 0.000000 0.000000 1.665660 
# 
# From -- ./inp_files/2909.got.cif
#   From: 2010.05.17/outbox.cif.g08.bks.cpg/sg56_2_cif.got.tgz:2909.got - 2010.06.03 13:42:01.
