data_PCOD9432559
_publ_section_title
;
Structure prediction by ZEFSAII (Michael W. Deem and Ramdas Pophale) SiO2 
 PCOD9432559
Probable space group: P C C N
;
_chemical_formula_sum "Si O2"
_cell_formula_units_Z 56
_cell_length_a 15.894650
_cell_length_b 12.925975
_cell_length_c 13.734327
_cell_angle_alpha 90.000000
_cell_angle_beta 90.000000
_cell_angle_gamma 90.000000
_cell_volume 2821.770339
_symmetry_space_group_name_H-M "P C C N"
_symmetry_group_IT_number 56
_symmetry_cell_setting 'orthorhombic'
loop_
_space_group_symop_operation_xyz
x,y,z
1/2-x,1/2-y,z
1/2+x,-y,1/2-z
-x,1/2+y,1/2-z
-x,-y,-z
1/2+x,1/2+y,-z
1/2-x,y,1/2+z
x,1/2-y,1/2+z
loop_
_atom_site_type_symbol
_atom_site_label
_atom_site_fract_x
_atom_site_fract_y
_atom_site_fract_z
Si Si1 0.638425 0.669157 0.258721
Si Si2 0.668885 0.186964 0.322103
Si Si3 0.544309 0.109751 0.174279
Si Si4 0.731859 0.991338 0.887496
Si Si5 0.918062 0.352022 0.946137
Si Si6 0.737585 0.864846 0.563331
Si Si7 0.589729 0.879647 0.175042
O O1 0.551591 0.623808 0.296463
O O2 0.706738 0.609819 0.324944
O O3 0.668949 0.642951 0.148885
O O4 0.618587 0.792225 0.252345
O O5 0.750000 0.250000 0.288719
O O6 0.599784 0.186947 0.238383
O O7 0.630848 0.246256 0.416480
O O8 0.705387 0.073113 0.339749
O O9 0.568938 0.994689 0.207918
O O10 0.561176 0.128678 0.059706
O O11 0.646188 0.056269 0.912568
O O12 0.777969 0.949749 0.983196
O O13 0.006280 0.349298 0.886895
O O14 0.750000 0.750000 0.520516
O O15 0.828567 0.890446 0.607553
#
# Coordination Sequence:
#
# PCOD9432559 Si02
#       7
#     8   8   8   8   8   8   8
#     4  11  24  41  67 102 136 178 232 282 348 421
#     4  10  25  43  65 103 137 171 234 289 343 418
#     4  12  22  42  73  94 139 182 225 289 356 409
#     4  11  22  43  67  98 138 181 229 280 350 409
#     4  11  22  42  69 102 129 180 233 283 343 415
#     4  10  23  40  64  92 135 174 227 280 334 414
#     4  11  21  42  67  99 130 171 235 275 336 428
#
# _framework density 19.845697000000001
#
# number of rings (size 3 to 8) (size 9 to 14) (size 15 to 20)
#    0.000    1.143    4.286    2.143    0.000    4.571 
#    5.143    0.714    0.000    0.000    0.000    0.000 
#    0.000    0.000    0.000    0.000    0.000    0.000 
#
# Total GULP energy -312242.068482 kJ/mol
# GULP energy per Si atom -5575.751223 kJ/mol
# Density = 1.980053 g / cm^3
# Si number density = 19.845697 Si / 1000 Ang^3
#
#
#
# Elastic Constant Matrix: (Units=GPa)
#
#
# Indices 1 2 3 4 5 6 
#
# 1 100.0621 29.1985 47.6773 0.0000 0.0000 0.0000
# 2 29.1985 88.3685 51.4133 0.0000 0.0000 0.0000
# 3 47.6773 51.4133 76.9019 0.0000 0.0000 0.0000
# 4 0.0000 0.0000 0.0000 96.1078 0.0000 0.0000
# 5 0.0000 0.0000 0.0000 0.0000 3.2157 0.0000
# 6 0.0000 0.0000 0.0000 0.0000 0.0000 29.9376
#
#
#
# Elastic Compliance Matrix: (Units=1/GPa)
#
#
# Indices 1 2 3 4 5 6 
#
# 1 0.014210 0.000704 -0.009281 0.000000 0.000000 0.000000
# 2 0.000704 0.018555 -0.012842 0.000000 0.000000 0.000000
# 3 -0.009281 -0.012842 0.027343 0.000000 0.000000 0.000000
# 4 0.000000 0.000000 0.000000 0.010405 0.000000 0.000000
# 5 0.000000 0.000000 0.000000 0.000000 0.310977 0.000000
# 6 0.000000 0.000000 0.000000 0.000000 0.000000 0.033403
#
#
# Mechanical properties :
#
#
# Convention : Reuss Voigt Hill
#
# Bulk Modulus (GPa) = 57.89845 57.99007 57.94426
# Shear Modulus (GPa) = 10.78778 34.98845 22.88812
#
# Velocity S-wave (km/s) = 2.33402 4.20339 3.39972
# Velocity P-wave (km/s) = 6.04162 7.26925 6.68368
#
# Compressibility (1/GPa) = 0.01727162
#
# Stress axis : x y z
#
# Youngs Moduli (GPa) = 70.37073 53.89410 36.57240
#
# Poissons Ratio (x) = -0.03796 0.33943
# Poissons Ratio (y) = -0.04957 0.46965
# Poissons Ratio (z) = 0.65311 0.69209
#
# Static dielectric constant tensor:
#      x y z
#    x 1.700900 0.000000 0.000000 
#    y 0.000000 1.757820 0.000000 
#    z 0.000000 0.000000 1.684060 
# 
# From -- ./inp_files/12260.got.cif
#   From: 2010.05.17/outbox.cif.g08.bks.cpg/sg56_7_cif.got.tgz:12260.got - 2010.06.03 13:42:01.
