data_PCOD9432594
_publ_section_title
;
Structure prediction by ZEFSAII (Michael W. Deem and Ramdas Pophale) SiO2 
 PCOD9432594
Probable space group: P C C N
;
_chemical_formula_sum "Si O2"
_cell_formula_units_Z 32
_cell_length_a 11.874478
_cell_length_b 8.147651
_cell_length_c 14.252104
_cell_angle_alpha 90.000000
_cell_angle_beta 90.000000
_cell_angle_gamma 90.000000
_cell_volume 1378.878271
_symmetry_space_group_name_H-M "P C C N"
_symmetry_group_IT_number 56
_symmetry_cell_setting 'orthorhombic'
loop_
_space_group_symop_operation_xyz
x,y,z
1/2-x,1/2-y,z
1/2+x,-y,1/2-z
-x,1/2+y,1/2-z
-x,-y,-z
1/2+x,1/2+y,-z
1/2-x,y,1/2+z
x,1/2-y,1/2+z
loop_
_atom_site_type_symbol
_atom_site_label
_atom_site_fract_x
_atom_site_fract_y
_atom_site_fract_z
Si Si1 0.202166 0.923490 0.126356
Si Si2 0.966985 0.655468 0.607912
Si Si3 0.973369 0.859755 0.790558
Si Si4 0.909279 0.620647 0.953802
O O1 0.250000 0.750000 0.160094
O O2 0.090445 0.884591 0.063944
O O3 0.144009 0.037481 0.205015
O O4 0.298765 0.022018 0.074468
O O5 0.991537 0.790930 0.687989
O O6 0.890061 0.735069 0.529858
O O7 0.938147 0.489989 0.665473
O O8 0.958576 0.709096 0.861727
O O9 0.000000 0.500000 0.000000
#
# Coordination Sequence:
#
# PCOD9432594 Si02
#       4
#     8   8   8   8
#     4  10  23  41  67 104 139 185 246 298 358 449
#     4  10  23  41  71  97 146 192 234 304 368 422
#     4  10  23  44  68 100 142 194 240 299 364 434
#     4  12  21  42  73 101 145 186 232 307 362 436
#
# _framework density 23.207272
#
# number of rings (size 3 to 8) (size 9 to 14) (size 15 to 20)
#    1.500    0.000    2.500    3.000    0.000    0.000 
#    0.000    8.750    0.000    0.000    0.000    0.000 
#    0.000    0.000    0.000    0.000    0.000    0.000 
#
# Total GULP energy -178652.980644 kJ/mol
# GULP energy per Si atom -5582.905645 kJ/mol
# Density = 2.315445 g / cm^3
# Si number density = 23.207272 Si / 1000 Ang^3
#
#
#
# Elastic Constant Matrix: (Units=GPa)
#
#
# Indices 1 2 3 4 5 6 
#
# 1 90.0791 50.8152 25.5658 0.0000 0.0000 0.0000
# 2 50.8152 147.6755 45.5435 0.0000 0.0000 0.0000
# 3 25.5658 45.5435 106.9898 0.0000 0.0000 0.0000
# 4 0.0000 0.0000 0.0000 31.6246 0.0000 0.0000
# 5 0.0000 0.0000 0.0000 0.0000 24.4906 0.0000
# 6 0.0000 0.0000 0.0000 0.0000 0.0000 52.9263
#
#
#
# Elastic Compliance Matrix: (Units=1/GPa)
#
#
# Indices 1 2 3 4 5 6 
#
# 1 0.013978 -0.004351 -0.001488 0.000000 0.000000 0.000000
# 2 -0.004351 0.009149 -0.002855 0.000000 0.000000 0.000000
# 3 -0.001488 -0.002855 0.010918 0.000000 0.000000 0.000000
# 4 0.000000 0.000000 0.000000 0.031621 0.000000 0.000000
# 5 0.000000 0.000000 0.000000 0.000000 0.040832 0.000000
# 6 0.000000 0.000000 0.000000 0.000000 0.000000 0.018894
#
#
# Mechanical properties :
#
#
# Convention : Reuss Voigt Hill
#
# Bulk Modulus (GPa) = 60.03477 65.39927 62.71702
# Shear Modulus (GPa) = 33.70807 36.66296 35.18552
#
# Velocity S-wave (km/s) = 3.81527 3.97899 3.89799
# Velocity P-wave (km/s) = 6.73302 7.02506 6.88059
#
# Compressibility (1/GPa) = 0.01665701
#
# Stress axis : x y z
#
# Youngs Moduli (GPa) = 71.54031 109.29854 91.59546
#
# Poissons Ratio (x) = 0.47555 0.13630
# Poissons Ratio (y) = 0.31127 0.26150
# Poissons Ratio (z) = 0.10645 0.31204
#
# Static dielectric constant tensor:
#      x y z
#    x 1.900160 0.000000 0.000000 
#    y 0.000000 1.959860 0.000000 
#    z 0.000000 0.000000 1.828660 
# 
# From -- ./inp_files/11988.got.cif
#   From: 2010.05.17/outbox.cif.g08.bks.cpg/sg56_6_cif.got.tgz:11988.got - 2010.06.03 13:42:01.
