data_PCOD9432818
_publ_section_title
;
Structure prediction by ZEFSAII (Michael W. Deem and Ramdas Pophale) SiO2 
 PCOD9432818
Probable space group: P C C N
;
_chemical_formula_sum "Si O2"
_cell_formula_units_Z 48
_cell_length_a 13.738445
_cell_length_b 9.619434
_cell_length_c 18.158733
_cell_angle_alpha 90.000000
_cell_angle_beta 90.000000
_cell_angle_gamma 90.000000
_cell_volume 2399.786698
_symmetry_space_group_name_H-M "P C C N"
_symmetry_group_IT_number 56
_symmetry_cell_setting 'orthorhombic'
loop_
_space_group_symop_operation_xyz
x,y,z
1/2-x,1/2-y,z
1/2+x,-y,1/2-z
-x,1/2+y,1/2-z
-x,-y,-z
1/2+x,1/2+y,-z
1/2-x,y,1/2+z
x,1/2-y,1/2+z
loop_
_atom_site_type_symbol
_atom_site_label
_atom_site_fract_x
_atom_site_fract_y
_atom_site_fract_z
Si Si1 0.781797 0.050850 0.271641
Si Si2 0.560876 0.119515 0.896263
Si Si3 0.750000 0.250000 0.652446
Si Si4 0.250000 0.250000 0.708503
Si Si5 0.417689 0.882794 0.931483
Si Si6 0.035040 0.300950 0.668382
Si Si7 0.055073 0.880157 0.198043
O O1 0.855569 0.066381 0.339921
O O2 0.812298 0.149494 0.204953
O O3 0.672229 0.101847 0.291728
O O4 0.772463 0.891055 0.248144
O O5 0.538943 0.275745 0.870099
O O6 0.467061 0.019064 0.895664
O O7 0.592306 0.109483 0.981109
O O8 0.815430 0.150132 0.604545
O O9 0.151895 0.281603 0.663560
O O10 0.486416 0.755123 0.906012
O O11 0.017871 0.462784 0.687247
O O12 0.995589 0.198720 0.733278
#
# Coordination Sequence:
#
# PCOD9432818 Si02
#       7
#     8   8   4   4   8   8   8
#     4  11  21  41  66  96 124 172 222 273 331 400
#     4  11  23  44  65  93 131 181 217 270 342 403
#     4  12  24  40  66 104 122 174 224 278 332 390
#     4  10  24  36  68  92 134 170 218 274 342 386
#     4  11  25  41  67  93 138 171 222 276 333 406
#     4  11  22  42  62 101 129 174 223 279 328 398
#     4  11  23  37  68  94 131 170 221 277 331 392
#
# _framework density 20.001778999999999
#
# number of rings (size 3 to 8) (size 9 to 14) (size 15 to 20)
#    0.000    1.000    5.000    1.000    7.000    0.667 
#    0.000    0.000    0.000    2.000    0.000    0.000 
#    0.000    0.000    0.000    0.000    0.000    0.000 
#
# Total GULP energy -268021.043878 kJ/mol
# GULP energy per Si atom -5583.771747 kJ/mol
# Density = 1.995625 g / cm^3
# Si number density = 20.001779 Si / 1000 Ang^3
#
#
#
# Elastic Constant Matrix: (Units=GPa)
#
#
# Indices 1 2 3 4 5 6 
#
# 1 111.4935 37.1480 40.9202 0.0000 0.0000 0.0000
# 2 37.1480 175.4859 40.9358 0.0000 0.0000 0.0000
# 3 40.9202 40.9358 62.6920 0.0000 0.0000 0.0000
# 4 0.0000 0.0000 0.0000 21.6078 0.0000 0.0000
# 5 0.0000 0.0000 0.0000 0.0000 19.5057 0.0000
# 6 0.0000 0.0000 0.0000 0.0000 0.0000 40.9220
#
#
#
# Elastic Compliance Matrix: (Units=1/GPa)
#
#
# Indices 1 2 3 4 5 6 
#
# 1 0.011897 -0.000834 -0.007221 0.000000 0.000000 0.000000
# 2 -0.000834 0.006781 -0.003883 0.000000 0.000000 0.000000
# 3 -0.007221 -0.003883 0.023200 0.000000 0.000000 0.000000
# 4 0.000000 0.000000 0.000000 0.046279 0.000000 0.000000
# 5 0.000000 0.000000 0.000000 0.000000 0.051267 0.000000
# 6 0.000000 0.000000 0.000000 0.000000 0.000000 0.024437
#
#
# Mechanical properties :
#
#
# Convention : Reuss Voigt Hill
#
# Bulk Modulus (GPa) = 55.55105 65.29773 60.42439
# Shear Modulus (GPa) = 25.80801 31.78494 28.79647
#
# Velocity S-wave (km/s) = 3.59595 3.99068 3.79845
# Velocity P-wave (km/s) = 6.71376 7.34513 7.03653
#
# Compressibility (1/GPa) = 0.01800146
#
# Stress axis : x y z
#
# Youngs Moduli (GPa) = 84.05306 147.47342 43.10362
#
# Poissons Ratio (x) = 0.12300 0.31125
# Poissons Ratio (y) = 0.07010 0.16738
# Poissons Ratio (z) = 0.60694 0.57268
#
# Static dielectric constant tensor:
#      x y z
#    x 1.771860 0.000000 0.000000 
#    y 0.000000 1.735650 0.000000 
#    z 0.000000 0.000000 1.690320 
# 
# From -- ./inp_files/16207.got.cif
#   From: 2010.05.17/outbox.cif.g08.bks.cpg/sg56_9_cif.got.tgz:16207.got - 2010.06.03 13:42:01.
