data_PCOD9432534
_publ_section_title
;
Structure prediction by ZEFSAII (Michael W. Deem and Ramdas Pophale) SiO2 
 PCOD9432534
Probable space group: P C C N
;
_chemical_formula_sum "Si O2"
_cell_formula_units_Z 48
_cell_length_a 8.632573
_cell_length_b 7.056990
_cell_length_c 32.556569
_cell_angle_alpha 90.000000
_cell_angle_beta 90.000000
_cell_angle_gamma 90.000000
_cell_volume 1983.345576
_symmetry_space_group_name_H-M "P C C N"
_symmetry_group_IT_number 56
_symmetry_cell_setting 'orthorhombic'
loop_
_space_group_symop_operation_xyz
x,y,z
1/2-x,1/2-y,z
1/2+x,-y,1/2-z
-x,1/2+y,1/2-z
-x,-y,-z
1/2+x,1/2+y,-z
1/2-x,y,1/2+z
x,1/2-y,1/2+z
loop_
_atom_site_type_symbol
_atom_site_label
_atom_site_fract_x
_atom_site_fract_y
_atom_site_fract_z
Si Si1 0.429248 0.328177 0.856953
Si Si2 0.539408 0.908213 0.798720
Si Si3 0.622528 0.030357 0.283993
Si Si4 0.565838 0.267626 0.031374
Si Si5 0.932793 0.790215 0.053263
Si Si6 0.067030 0.731409 0.881381
O O1 0.250000 0.250000 0.852072
O O2 0.516833 0.333460 0.812970
O O3 0.489775 0.243850 0.900650
O O4 0.461502 0.551515 0.868087
O O5 0.694272 0.030136 0.792006
O O6 0.580108 0.687578 0.792698
O O7 0.478371 0.912003 0.845258
O O8 0.412573 0.943051 0.763969
O O9 0.750000 0.250000 0.026868
O O10 0.537166 0.488376 0.042843
O O11 0.507287 0.172354 0.073663
O O12 0.494185 0.200332 0.988713
O O13 0.750000 0.750000 0.055213
O O14 0.250000 0.750000 0.886027
#
# Coordination Sequence:
#
# PCOD9432534 Si02
#       6
#     8   8   8   8   8   8
#     4   9  19  36  62  83 116 157 197 245 303 359
#     4  10  23  39  60  89 120 157 201 249 306 366
#     4  10  23  39  61  89 120 156 201 251 306 365
#     4   9  18  35  57  84 115 151 194 243 295 351
#     4   9  18  35  57  85 114 153 193 240 299 353
#     4   9  19  36  59  86 116 154 200 246 299 361
#
# _framework density 24.201532
#
# number of rings (size 3 to 8) (size 9 to 14) (size 15 to 20)
#    0.000    2.667    0.000    0.000    7.000    0.667 
#   12.000    0.000    3.667    0.000    0.000    0.000 
#    0.000    0.000    0.000    0.000    0.000    0.000 
#
# Total GULP energy -267579.769424 kJ/mol
# GULP energy per Si atom -5574.578530 kJ/mol
# Density = 2.414645 g / cm^3
# Si number density = 24.201532 Si / 1000 Ang^3
#
#
#
# Elastic Constant Matrix: (Units=GPa)
#
#
# Indices 1 2 3 4 5 6 
#
# 1 61.4992 25.6102 70.9746 0.0000 0.0000 0.0000
# 2 25.6102 72.9034 59.4252 0.0000 0.0000 0.0000
# 3 70.9746 59.4252 260.6596 0.0000 0.0000 0.0000
# 4 0.0000 0.0000 0.0000 41.5086 0.0000 0.0000
# 5 0.0000 0.0000 0.0000 0.0000 48.5696 0.0000
# 6 0.0000 0.0000 0.0000 0.0000 0.0000 41.1876
#
#
#
# Elastic Compliance Matrix: (Units=1/GPa)
#
#
# Indices 1 2 3 4 5 6 
#
# 1 0.024585 -0.003906 -0.005804 0.000000 0.000000 0.000000
# 2 -0.003906 0.017468 -0.002919 0.000000 0.000000 0.000000
# 3 -0.005804 -0.002919 0.006082 0.000000 0.000000 0.000000
# 4 0.000000 0.000000 0.000000 0.024091 0.000000 0.000000
# 5 0.000000 0.000000 0.000000 0.000000 0.020589 0.000000
# 6 0.000000 0.000000 0.000000 0.000000 0.000000 0.024279
#
#
# Mechanical properties :
#
#
# Convention : Reuss Voigt Hill
#
# Bulk Modulus (GPa) = 43.70931 78.56467 61.13699
# Shear Modulus (GPa) = 33.33844 42.19000 37.76422
#
# Velocity S-wave (km/s) = 3.71554 4.17979 3.95448
# Velocity P-wave (km/s) = 6.04208 7.47177 6.79463
#
# Compressibility (1/GPa) = 0.02287842
#
# Stress axis : x y z
#
# Youngs Moduli (GPa) = 40.67570 57.24743 164.41519
#
# Poissons Ratio (x) = 0.22359 0.95422
# Poissons Ratio (y) = 0.15886 0.47991
# Poissons Ratio (z) = 0.23607 0.16710
#
# Static dielectric constant tensor:
#      x y z
#    x 1.853130 0.000000 0.000000 
#    y 0.000000 2.061800 0.000000 
#    z 0.000000 0.000000 2.009360 
# 
# From -- ./inp_files/23250.got.cif
#   From: 2010.05.17/outbox.cif.g08.bks.cpg/sg56_12_cif.got.tgz:23250.got - 2010.06.03 13:42:01.
