data_PCOD9432904
_publ_section_title
;
Structure prediction by ZEFSAII (Michael W. Deem and Ramdas Pophale) SiO2 
 PCOD9432904
Probable space group: P C C N
;
_chemical_formula_sum "Si O2"
_cell_formula_units_Z 40
_cell_length_a 12.173171
_cell_length_b 8.599560
_cell_length_c 15.198141
_cell_angle_alpha 90.000000
_cell_angle_beta 90.000000
_cell_angle_gamma 90.000000
_cell_volume 1591.000892
_symmetry_space_group_name_H-M "P C C N"
_symmetry_group_IT_number 56
_symmetry_cell_setting 'orthorhombic'
loop_
_space_group_symop_operation_xyz
x,y,z
1/2-x,1/2-y,z
1/2+x,-y,1/2-z
-x,1/2+y,1/2-z
-x,-y,-z
1/2+x,1/2+y,-z
1/2-x,y,1/2+z
x,1/2-y,1/2+z
loop_
_atom_site_type_symbol
_atom_site_label
_atom_site_fract_x
_atom_site_fract_y
_atom_site_fract_z
Si Si1 0.139780 0.301864 0.277093
Si Si2 0.750000 0.250000 0.813461
Si Si3 0.232341 0.054983 0.592868
Si Si4 0.000000 0.500000 0.000000
Si Si5 0.048771 0.628325 0.300545
Si Si6 0.958976 0.671852 0.480424
O O1 0.250000 0.250000 0.326581
O O2 0.183645 0.372297 0.183683
O O3 0.075079 0.447563 0.317227
O O4 0.061396 0.157692 0.255258
O O5 0.715699 0.393470 0.873876
O O6 0.850058 0.299558 0.751194
O O7 0.127016 0.014095 0.534545
O O8 0.331859 0.146917 0.546471
O O9 0.013816 0.318258 0.959232
O O10 0.025817 0.719117 0.391066
O O11 0.000000 0.500000 0.500000
#
# Coordination Sequence:
#
# PCOD9432904 Si02
#       6
#     8   4   8   4   8   8
#     4  11  22  44  74  99 141 188 241 306 375 438
#     4  10  24  42  76 108 146 200 246 322 384 446
#     4  11  22  47  70 101 149 193 249 310 373 441
#     4  12  24  42  78 102 144 214 248 292 380 462
#     4  11  24  43  72 106 141 190 248 306 379 444
#     4  12  26  47  70 107 150 196 247 311 367 459
#
# _framework density 25.141406
#
# number of rings (size 3 to 8) (size 9 to 14) (size 15 to 20)
#    0.000    0.800    4.000    3.000    2.800    3.200 
#    0.000    2.000    0.000    0.000    0.000    0.000 
#    0.000    0.000    0.000    0.000    0.000    0.000 
#
# Total GULP energy -222781.366684 kJ/mol
# GULP energy per Si atom -5569.534167 kJ/mol
# Density = 2.508418 g / cm^3
# Si number density = 25.141406 Si / 1000 Ang^3
#
#
#
# Elastic Constant Matrix: (Units=GPa)
#
#
# Indices 1 2 3 4 5 6 
#
# 1 172.9902 57.4870 21.8400 0.0000 0.0000 0.0000
# 2 57.4870 135.4878 -5.0906 0.0000 0.0000 0.0000
# 3 21.8400 -5.0906 41.4658 0.0000 0.0000 0.0000
# 4 0.0000 0.0000 0.0000 22.6097 0.0000 0.0000
# 5 0.0000 0.0000 0.0000 0.0000 32.9258 0.0000
# 6 0.0000 0.0000 0.0000 0.0000 0.0000 61.1810
#
#
#
# Elastic Compliance Matrix: (Units=1/GPa)
#
#
# Indices 1 2 3 4 5 6 
#
# 1 0.007427 -0.003314 -0.004319 0.000000 0.000000 0.000000
# 2 -0.003314 0.008893 0.002837 0.000000 0.000000 0.000000
# 3 -0.004319 0.002837 0.026739 0.000000 0.000000 0.000000
# 4 0.000000 0.000000 0.000000 0.044229 0.000000 0.000000
# 5 0.000000 0.000000 0.000000 0.000000 0.030371 0.000000
# 6 0.000000 0.000000 0.000000 0.000000 0.000000 0.016345
#
#
# Mechanical properties :
#
#
# Convention : Reuss Voigt Hill
#
# Bulk Modulus (GPa) = 29.87819 55.37962 42.62890
# Shear Modulus (GPa) = 32.30994 41.72379 37.01687
#
# Velocity S-wave (km/s) = 3.58876 4.07820 3.84128
# Velocity P-wave (km/s) = 5.39278 6.65212 6.05528
#
# Compressibility (1/GPa) = 0.03346923
#
# Stress axis : x y z
#
# Youngs Moduli (GPa) = 134.64346 112.44489 37.39835
#
# Poissons Ratio (x) = 0.37259 0.16151
# Poissons Ratio (y) = 0.44614 -0.10610
# Poissons Ratio (z) = 0.58147 -0.31901
#
# Static dielectric constant tensor:
#      x y z
#    x 1.727490 0.000000 0.000000 
#    y 0.000000 2.140670 0.000000 
#    z 0.000000 0.000000 2.116350 
# 
# From -- ./inp_files/15432.got.cif
#   From: 2010.05.17/outbox.cif.g08.bks.cpg/sg56_8_cif.got.tgz:15432.got - 2010.06.03 13:42:01.
