data_PCOD9432835
_publ_section_title
;
Structure prediction by ZEFSAII (Michael W. Deem and Ramdas Pophale) SiO2 
 PCOD9432835
Probable space group: P C C N
;
_chemical_formula_sum "Si O2"
_cell_formula_units_Z 64
_cell_length_a 18.547868
_cell_length_b 8.826948
_cell_length_c 18.673900
_cell_angle_alpha 90.000000
_cell_angle_beta 90.000000
_cell_angle_gamma 90.000000
_cell_volume 3057.310821
_symmetry_space_group_name_H-M "P C C N"
_symmetry_group_IT_number 56
_symmetry_cell_setting 'orthorhombic'
loop_
_space_group_symop_operation_xyz
x,y,z
1/2-x,1/2-y,z
1/2+x,-y,1/2-z
-x,1/2+y,1/2-z
-x,-y,-z
1/2+x,1/2+y,-z
1/2-x,y,1/2+z
x,1/2-y,1/2+z
loop_
_atom_site_type_symbol
_atom_site_label
_atom_site_fract_x
_atom_site_fract_y
_atom_site_fract_z
Si Si1 0.734319 0.426262 0.242986
Si Si2 0.404291 0.395582 0.736474
Si Si3 0.183793 0.145528 0.150431
Si Si4 0.401840 0.659483 0.488688
Si Si5 0.137194 0.006677 0.006041
Si Si6 0.982247 0.509423 0.898793
Si Si7 0.408534 0.231028 0.394058
Si Si8 0.781955 0.532911 0.086730
O O1 0.750000 0.250000 0.244002
O O2 0.651983 0.466129 0.260617
O O3 0.782922 0.514228 0.300507
O O4 0.751037 0.492996 0.164594
O O5 0.364110 0.253983 0.699660
O O6 0.466899 0.440625 0.681801
O O7 0.419283 0.346806 0.817296
O O8 0.250000 0.250000 0.123540
O O9 0.141015 0.077721 0.084341
O O10 0.412074 0.546743 0.556985
O O11 0.475388 0.637331 0.443293
O O12 0.337966 0.594911 0.439594
O O13 0.385117 0.831387 0.508285
O O14 0.085854 0.105067 0.955043
O O15 0.216495 0.026391 0.969611
O O16 0.033697 0.363755 0.900261
O O17 0.330685 0.315346 0.404166
#
# Coordination Sequence:
#
# PCOD9432835 Si02
#       8
#     8   8   8   8   8   8   8   8
#     4  11  23  40  68 102 136 169 215 282 342 406
#     4  11  24  46  67  93 137 184 221 272 335 404
#     4  10  24  40  63 101 135 171 214 279 347 402
#     4  10  25  45  67  99 134 180 223 284 332 399
#     4  12  24  39  72 104 127 169 229 283 344 400
#     4  10  26  48  66  89 142 185 228 273 331 394
#     4  11  24  45  70  97 131 185 223 277 330 404
#     4  11  22  43  69  99 138 170 220 275 353 399
#
# _framework density 20.933430000000001
#
# number of rings (size 3 to 8) (size 9 to 14) (size 15 to 20)
#    0.000    1.250    2.500    2.250   10.500    1.500 
#    4.500    0.000    0.000    0.000    0.000    0.000 
#    0.000    0.000    0.000    0.000    0.000    0.000 
#
# Total GULP energy -357962.479851 kJ/mol
# GULP energy per Si atom -5593.163748 kJ/mol
# Density = 2.088578 g / cm^3
# Si number density = 20.933430 Si / 1000 Ang^3
#
#
#
# Elastic Constant Matrix: (Units=GPa)
#
#
# Indices 1 2 3 4 5 6 
#
# 1 26.9579 -14.2634 -1.4200 0.0000 0.0000 0.0000
# 2 -14.2634 55.9234 -4.4702 0.0000 0.0000 0.0000
# 3 -1.4200 -4.4702 82.9182 0.0000 0.0000 0.0000
# 4 0.0000 0.0000 0.0000 25.3499 0.0000 0.0000
# 5 0.0000 0.0000 0.0000 0.0000 11.7042 0.0000
# 6 0.0000 0.0000 0.0000 0.0000 0.0000 17.9600
#
#
#
# Elastic Compliance Matrix: (Units=1/GPa)
#
#
# Indices 1 2 3 4 5 6 
#
# 1 0.043028 0.011081 0.001334 0.000000 0.000000 0.000000
# 2 0.011081 0.020813 0.001312 0.000000 0.000000 0.000000
# 3 0.001334 0.001312 0.012154 0.000000 0.000000 0.000000
# 4 0.000000 0.000000 0.000000 0.039448 0.000000 0.000000
# 5 0.000000 0.000000 0.000000 0.000000 0.085439 0.000000
# 6 0.000000 0.000000 0.000000 0.000000 0.000000 0.055679
#
#
# Mechanical properties :
#
#
# Convention : Reuss Voigt Hill
#
# Bulk Modulus (GPa) = 9.66662 13.94359 11.80510
# Shear Modulus (GPa) = 18.96886 23.39969 21.18428
#
# Velocity S-wave (km/s) = 3.01350 3.34700 3.18462
# Velocity P-wave (km/s) = 4.09097 4.64886 4.37881
#
# Compressibility (1/GPa) = 0.10344879
#
# Stress axis : x y z
#
# Youngs Moduli (GPa) = 23.24060 48.04754 82.27979
#
# Poissons Ratio (x) = -0.53242 -0.10978
# Poissons Ratio (y) = -0.25753 -0.10794
# Poissons Ratio (z) = -0.03101 -0.06303
#
# Static dielectric constant tensor:
#      x y z
#    x 1.791080 0.000000 0.000000 
#    y 0.000000 1.720320 0.000000 
#    z 0.000000 0.000000 1.719090 
# 
# From -- ./inp_files/16845.got.cif
#   From: 2010.05.17/outbox.cif.g08.bks.cpg/sg56_9_cif.got.tgz:16845.got - 2010.06.03 13:42:01.
