data_PCOD9432192
_publ_section_title
;
Structure prediction by ZEFSAII (Michael W. Deem and Ramdas Pophale) SiO2 
 PCOD9432192
Probable space group: P C C N
;
_chemical_formula_sum "Si O2"
_cell_formula_units_Z 36
_cell_length_a 9.954654
_cell_length_b 7.291338
_cell_length_c 21.892362
_cell_angle_alpha 90.000000
_cell_angle_beta 90.000000
_cell_angle_gamma 90.000000
_cell_volume 1589.007772
_symmetry_space_group_name_H-M "P C C N"
_symmetry_group_IT_number 56
_symmetry_cell_setting 'orthorhombic'
loop_
_space_group_symop_operation_xyz
x,y,z
1/2-x,1/2-y,z
1/2+x,-y,1/2-z
-x,1/2+y,1/2-z
-x,-y,-z
1/2+x,1/2+y,-z
1/2-x,y,1/2+z
x,1/2-y,1/2+z
loop_
_atom_site_type_symbol
_atom_site_label
_atom_site_fract_x
_atom_site_fract_y
_atom_site_fract_z
Si Si1 0.087001 0.073951 0.407243
Si Si2 0.201413 0.956681 0.528544
Si Si3 0.250000 0.250000 0.121413
Si Si4 0.966269 0.228681 0.689711
Si Si5 0.386961 0.359196 0.808744
O O1 0.085264 0.269429 0.374454
O O2 0.945394 0.043177 0.440478
O O3 0.193046 0.040523 0.460910
O O4 0.100642 0.927705 0.352084
O O5 0.250000 0.750000 0.524570
O O6 0.282276 0.082083 0.575602
O O7 0.382588 0.233402 0.162078
O O8 0.993416 0.182558 0.760644
O O9 0.889323 0.421350 0.686857
O O10 0.250000 0.250000 0.789632
#
# Coordination Sequence:
#
# PCOD9432192 Si02
#       5
#     8   8   4   8   8
#     4  10  24  42  62  98 130 168 223 272 332 402
#     4  10  22  41  66  92 128 172 218 273 331 394
#     4  10  22  42  66  92 126 176 218 276 332 406
#     4  11  23  43  64  95 134 169 225 268 341 401
#     4  12  25  41  66  97 132 175 216 279 333 403
#
# _framework density 22.655646000000001
#
# number of rings (size 3 to 8) (size 9 to 14) (size 15 to 20)
#    0.000    1.333    3.333    1.333    4.667    0.000 
#    0.000    8.889    0.000    0.000    0.000    0.000 
#    0.000    0.000    0.000    0.000    0.000    0.000 
#
# Total GULP energy -201129.075396 kJ/mol
# GULP energy per Si atom -5586.918761 kJ/mol
# Density = 2.260408 g / cm^3
# Si number density = 22.655646 Si / 1000 Ang^3
#
#
#
# Elastic Constant Matrix: (Units=GPa)
#
#
# Indices 1 2 3 4 5 6 
#
# 1 50.1341 11.2747 16.9060 0.0000 0.0000 0.0000
# 2 11.2747 111.4711 28.9827 0.0000 0.0000 0.0000
# 3 16.9060 28.9827 122.1992 0.0000 0.0000 0.0000
# 4 0.0000 0.0000 0.0000 55.1824 0.0000 0.0000
# 5 0.0000 0.0000 0.0000 0.0000 16.3097 0.0000
# 6 0.0000 0.0000 0.0000 0.0000 0.0000 23.8684
#
#
#
# Elastic Compliance Matrix: (Units=1/GPa)
#
#
# Indices 1 2 3 4 5 6 
#
# 1 0.021146 -0.001469 -0.002577 0.000000 0.000000 0.000000
# 2 -0.001469 0.009663 -0.002089 0.000000 0.000000 0.000000
# 3 -0.002577 -0.002089 0.009035 0.000000 0.000000 0.000000
# 4 0.000000 0.000000 0.000000 0.018122 0.000000 0.000000
# 5 0.000000 0.000000 0.000000 0.000000 0.061313 0.000000
# 6 0.000000 0.000000 0.000000 0.000000 0.000000 0.041896
#
#
# Mechanical properties :
#
#
# Convention : Reuss Voigt Hill
#
# Bulk Modulus (GPa) = 36.26493 44.23677 40.25085
# Shear Modulus (GPa) = 27.37695 34.18150 30.77923
#
# Velocity S-wave (km/s) = 3.47997 3.88847 3.68987
# Velocity P-wave (km/s) = 5.67351 6.30304 5.99654
#
# Compressibility (1/GPa) = 0.02757485
#
# Stress axis : x y z
#
# Youngs Moduli (GPa) = 47.29063 103.49283 110.67769
#
# Poissons Ratio (x) = 0.15200 0.28523
# Poissons Ratio (y) = 0.06946 0.23115
# Poissons Ratio (z) = 0.12187 0.21615
#
# Static dielectric constant tensor:
#      x y z
#    x 1.864860 0.000000 0.000000 
#    y 0.000000 1.843780 0.000000 
#    z 0.000000 0.000000 1.825340 
# 
# From -- ./inp_files/19870.got.cif
#   From: 2010.05.17/outbox.cif.g08.bks.cpg/sg56_10_cif.got.tgz:19870.got - 2010.06.03 13:42:01.
