data_PCOD9432362
_publ_section_title
;
Structure prediction by ZEFSAII (Michael W. Deem and Ramdas Pophale) SiO2 
 PCOD9432362
Probable space group: P C C N
;
_chemical_formula_sum "Si O2"
_cell_formula_units_Z 64
_cell_length_a 21.641301
_cell_length_b 9.149277
_cell_length_c 14.177579
_cell_angle_alpha 90.000000
_cell_angle_beta 90.000000
_cell_angle_gamma 90.000000
_cell_volume 2807.192648
_symmetry_space_group_name_H-M "P C C N"
_symmetry_group_IT_number 56
_symmetry_cell_setting 'orthorhombic'
loop_
_space_group_symop_operation_xyz
x,y,z
1/2-x,1/2-y,z
1/2+x,-y,1/2-z
-x,1/2+y,1/2-z
-x,-y,-z
1/2+x,1/2+y,-z
1/2-x,y,1/2+z
x,1/2-y,1/2+z
loop_
_atom_site_type_symbol
_atom_site_label
_atom_site_fract_x
_atom_site_fract_y
_atom_site_fract_z
Si Si1 0.496102 0.239139 0.822024
Si Si2 0.096291 0.224999 0.990457
Si Si3 0.489582 0.076921 0.637879
Si Si4 0.435138 0.970882 0.052864
Si Si5 0.786853 0.400017 0.438874
Si Si6 0.205128 0.614385 0.770507
Si Si7 0.725588 0.903820 0.582863
Si Si8 0.617609 0.228899 0.584936
O O1 0.441734 0.228770 0.897958
O O2 0.472240 0.188255 0.721355
O O3 0.516346 0.408690 0.829406
O O4 0.547964 0.118827 0.852235
O O5 0.157600 0.148927 0.953063
O O6 0.099742 0.374086 0.052790
O O7 0.053861 0.112622 0.049461
O O8 0.559730 0.127939 0.613516
O O9 0.402350 0.852853 0.987859
O O10 0.500000 0.000000 0.000000
O O11 0.750000 0.250000 0.432509
O O12 0.811770 0.439710 0.335211
O O13 0.746734 0.528374 0.485694
O O14 0.833362 0.365598 0.525707
O O15 0.250000 0.750000 0.755485
O O16 0.247482 0.508460 0.834681
O O17 0.147737 0.682719 0.828091
O O18 0.750000 0.750000 0.615576
#
# Coordination Sequence:
#
# PCOD9432362 Si02
#       8
#     8   8   8   8   8   8   8   8
#     4  11  25  44  68 106 150 188 248 299 373 462
#     4  11  25  47  70 100 151 189 243 309 374 453
#     4  12  26  41  71 111 145 199 247 309 386 460
#     4  10  22  43  67  99 143 189 234 300 370 443
#     4  11  25  48  73 107 140 191 257 300 371 445
#     4  11  25  46  74 105 139 192 248 305 364 445
#     4  12  25  49  73 104 147 188 241 312 376 436
#     4  12  22  43  76  99 145 191 250 306 378 446
#
# _framework density 22.798577999999999
#
# number of rings (size 3 to 8) (size 9 to 14) (size 15 to 20)
#    0.000    0.750    5.000    2.625    5.250    0.500 
#    4.500    0.000    0.000    0.000    0.000    0.000 
#    0.000    0.000    0.000    0.000    0.000    0.000 
#
# Total GULP energy -357056.023561 kJ/mol
# GULP energy per Si atom -5579.000368 kJ/mol
# Density = 2.274669 g / cm^3
# Si number density = 22.798578 Si / 1000 Ang^3
#
#
#
# Elastic Constant Matrix: (Units=GPa)
#
#
# Indices 1 2 3 4 5 6 
#
# 1 48.0101 34.7080 20.4250 0.0000 0.0000 0.0000
# 2 34.7080 147.7760 30.8461 0.0000 0.0000 0.0000
# 3 20.4250 30.8461 137.1498 0.0000 0.0000 0.0000
# 4 0.0000 0.0000 0.0000 -0.1204 0.0000 0.0000
# 5 0.0000 0.0000 0.0000 0.0000 6.3708 0.0000
# 6 0.0000 0.0000 0.0000 0.0000 0.0000 7.1890
#
#
#
# Elastic Compliance Matrix: (Units=1/GPa)
#
#
# Indices 1 2 3 4 5 6 
#
# 1 0.025954 -0.005550 -0.002617 0.000000 0.000000 0.000000
# 2 -0.005550 0.008287 -0.001037 0.000000 0.000000 0.000000
# 3 -0.002617 -0.001037 0.007914 0.000000 0.000000 0.000000
# 4 0.000000 0.000000 0.000000 -8.302832 0.000000 0.000000
# 5 0.000000 0.000000 0.000000 0.000000 0.156965 0.000000
# 6 0.000000 0.000000 0.000000 0.000000 0.000000 0.139102
#
#
# Mechanical properties :
#
#
# Convention : Reuss Voigt Hill
#
# Bulk Modulus (GPa) = 42.10952 56.09935 49.10443
# Shear Modulus (GPa) = -0.62986 19.15167 9.26091
#
# Velocity S-wave (km/s) = -0.52619 2.90149 2.01764
# Velocity P-wave (km/s) = 4.25925 5.99039 5.19740
#
# Compressibility (1/GPa) = 0.02374760
#
# Stress axis : x y z
#
# Youngs Moduli (GPa) = 38.52927 120.67170 126.35274
#
# Poissons Ratio (x) = 0.66968 0.33068
# Poissons Ratio (y) = 0.21382 0.13107
# Poissons Ratio (z) = 0.10083 0.12518
#
# Static dielectric constant tensor:
#      x y z
#    x 1.748110 0.000000 0.000000 
#    y 0.000000 0.918670 0.000000 
#    z 0.000000 0.000000 1.854120 
# 
# From -- ./inp_files/13267.got.cif
#   From: 2010.05.17/outbox.cif.g08.bks.cpg/sg56_7_cif.got.tgz:13267.got - 2010.06.03 13:42:01.
