data_PCOD9432212
_publ_section_title
;
Structure prediction by ZEFSAII (Michael W. Deem and Ramdas Pophale) SiO2 
 PCOD9432212
Probable space group: P C C N
;
_chemical_formula_sum "Si O2"
_cell_formula_units_Z 48
_cell_length_a 5.195939
_cell_length_b 14.602065
_cell_length_c 26.666802
_cell_angle_alpha 90.000000
_cell_angle_beta 90.000000
_cell_angle_gamma 90.000000
_cell_volume 2023.248642
_symmetry_space_group_name_H-M "P C C N"
_symmetry_group_IT_number 56
_symmetry_cell_setting 'orthorhombic'
loop_
_space_group_symop_operation_xyz
x,y,z
1/2-x,1/2-y,z
1/2+x,-y,1/2-z
-x,1/2+y,1/2-z
-x,-y,-z
1/2+x,1/2+y,-z
1/2-x,y,1/2+z
x,1/2-y,1/2+z
loop_
_atom_site_type_symbol
_atom_site_label
_atom_site_fract_x
_atom_site_fract_y
_atom_site_fract_z
Si Si1 0.294997 0.439665 0.746579
Si Si2 0.546583 0.848702 0.171579
Si Si3 0.250000 0.750000 0.587808
Si Si4 0.750000 0.250000 0.745234
Si Si5 0.601797 0.668229 0.340359
Si Si6 0.623763 0.452536 0.950735
Si Si7 0.885101 0.487562 0.101649
O O1 0.569993 0.487892 0.741851
O O2 0.217118 0.399296 0.691857
O O3 0.298650 0.368168 0.794068
O O4 0.480975 0.777436 0.126640
O O5 0.362221 0.824462 0.217268
O O6 0.506412 0.942758 0.142939
O O7 0.328672 0.841633 0.556001
O O8 0.543849 0.289096 0.706906
O O9 0.750000 0.750000 0.367119
O O10 0.414638 0.613512 0.376600
O O11 0.902347 0.498434 0.941695
O O12 0.402981 0.480914 0.910668
O O13 0.500000 0.500000 0.000000
#
# Coordination Sequence:
#
# PCOD9432212 Si02
#       7
#     8   8   4   4   8   8   8
#     4  12  25  41  64  96 143 202 250 297 350 418
#     4  10  22  41  69 100 143 195 256 294 358 410
#     4   9  24  48  79 114 140 192 247 326 368 471
#     4  11  24  44  61 102 156 200 255 298 342 431
#     4  12  27  41  64 102 152 204 251 296 361 435
#     4  11  26  53  80 109 143 181 243 319 408 467
#     4  11  27  44  75 105 144 191 247 311 374 463
#
# _framework density 23.724222000000001
#
# number of rings (size 3 to 8) (size 9 to 14) (size 15 to 20)
#    0.000    1.000    3.333    1.500    4.667    6.667 
#    3.000    0.000    0.000    0.000    0.000    0.000 
#    0.000    0.000    0.000    0.000    0.000    0.000 
#
# Total GULP energy -267688.894821 kJ/mol
# GULP energy per Si atom -5576.851975 kJ/mol
# Density = 2.367022 g / cm^3
# Si number density = 23.724222 Si / 1000 Ang^3
#
#
#
# Elastic Constant Matrix: (Units=GPa)
#
#
# Indices 1 2 3 4 5 6 
#
# 1 89.2546 33.8237 24.8967 0.0000 0.0000 0.0000
# 2 33.8237 102.7541 41.2216 0.0000 0.0000 0.0000
# 3 24.8967 41.2216 84.8984 0.0000 0.0000 0.0000
# 4 0.0000 0.0000 0.0000 28.2782 0.0000 0.0000
# 5 0.0000 0.0000 0.0000 0.0000 -4.7049 0.0000
# 6 0.0000 0.0000 0.0000 0.0000 0.0000 41.7134
#
#
#
# Elastic Compliance Matrix: (Units=1/GPa)
#
#
# Indices 1 2 3 4 5 6 
#
# 1 0.013116 -0.003445 -0.002173 0.000000 0.000000 0.000000
# 2 -0.003445 0.012991 -0.005297 0.000000 0.000000 0.000000
# 3 -0.002173 -0.005297 0.014988 0.000000 0.000000 0.000000
# 4 0.000000 0.000000 0.000000 0.035363 0.000000 0.000000
# 5 0.000000 0.000000 0.000000 0.000000 -0.212546 0.000000
# 6 0.000000 0.000000 0.000000 0.000000 0.000000 0.023973
#
#
# Mechanical properties :
#
#
# Convention : Reuss Voigt Hill
#
# Bulk Modulus (GPa) = 51.91327 52.97680 52.44504
# Shear Modulus (GPa) = -59.62215 24.85502 -17.38357
#
# Velocity S-wave (km/s) = -5.01856 3.24028 -2.70984
# Velocity P-wave (km/s) = 3.41346 6.03141 3.51612
#
# Compressibility (1/GPa) = 0.01926290
#
# Stress axis : x y z
#
# Youngs Moduli (GPa) = 76.24381 76.97481 66.71910
#
# Poissons Ratio (x) = 0.26522 0.14500
# Poissons Ratio (y) = 0.26270 0.35344
# Poissons Ratio (z) = 0.16570 0.40777
#
# Static dielectric constant tensor:
#      x y z
#    x 1.988350 0.000000 0.000000 
#    y 0.000000 2.070610 0.000000 
#    z 0.000000 0.000000 1.924100 
# 
# From -- ./inp_files/22837.got.cif
#   From: 2010.05.17/outbox.cif.g08.bks.cpg/sg56_12_cif.got.tgz:22837.got - 2010.06.03 13:42:01.
