data_PCOD9432518
_publ_section_title
;
Structure prediction by ZEFSAII (Michael W. Deem and Ramdas Pophale) SiO2 
 PCOD9432518
Probable space group: P C C N
;
_chemical_formula_sum "Si O2"
_cell_formula_units_Z 56
_cell_length_a 13.601551
_cell_length_b 16.507485
_cell_length_c 10.967021
_cell_angle_alpha 90.000000
_cell_angle_beta 90.000000
_cell_angle_gamma 90.000000
_cell_volume 2462.396701
_symmetry_space_group_name_H-M "P C C N"
_symmetry_group_IT_number 56
_symmetry_cell_setting 'orthorhombic'
loop_
_space_group_symop_operation_xyz
x,y,z
1/2-x,1/2-y,z
1/2+x,-y,1/2-z
-x,1/2+y,1/2-z
-x,-y,-z
1/2+x,1/2+y,-z
1/2-x,y,1/2+z
x,1/2-y,1/2+z
loop_
_atom_site_type_symbol
_atom_site_label
_atom_site_fract_x
_atom_site_fract_y
_atom_site_fract_z
Si Si1 0.858920 0.978468 0.641320
Si Si2 0.918142 0.319559 0.396427
Si Si3 0.828424 0.625126 0.354954
Si Si4 0.823348 0.458781 0.510992
Si Si5 0.121242 0.113006 0.597855
Si Si6 0.018099 0.742180 0.349073
Si Si7 0.961078 0.533711 0.690477
O O1 0.774973 0.038895 0.592220
O O2 0.943782 0.011206 0.729302
O O3 0.812681 0.904658 0.717020
O O4 0.901224 0.937487 0.521334
O O5 0.829948 0.384436 0.416848
O O6 0.925698 0.258588 0.280362
O O7 0.921998 0.277492 0.528411
O O8 0.010034 0.382757 0.378253
O O9 0.832512 0.543350 0.437451
O O10 0.724948 0.659752 0.403506
O O11 0.926766 0.678483 0.347962
O O12 0.917901 0.465524 0.601049
O O13 0.033973 0.173188 0.623810
O O14 0.122105 0.051164 0.710370
#
# Coordination Sequence:
#
# PCOD9432518 Si02
#       7
#     8   8   8   8   8   8   8
#     4  11  22  37  66  97 134 177 232 290 343 399
#     4  11  23  41  66  95 135 178 227 278 354 416
#     4  11  20  39  63 100 136 180 221 278 350 427
#     4  11  22  40  68  97 131 180 233 288 342 410
#     4  10  23  36  57  98 142 172 221 276 346 424
#     4  11  23  38  65  98 140 188 212 275 359 440
#     4  11  20  40  64  95 131 179 227 285 338 412
#
# _framework density 22.742070999999999
#
# number of rings (size 3 to 8) (size 9 to 14) (size 15 to 20)
#    0.000    1.143    4.286    3.000    0.000    0.000 
#    0.000    2.857    0.000    6.857    0.000    0.000 
#    0.000    0.000    0.000    0.000    0.000    0.000 
#
# Total GULP energy -312078.514739 kJ/mol
# GULP energy per Si atom -5572.830620 kJ/mol
# Density = 2.269031 g / cm^3
# Si number density = 22.742071 Si / 1000 Ang^3
#
#
#
# Elastic Constant Matrix: (Units=GPa)
#
#
# Indices 1 2 3 4 5 6 
#
# 1 59.4079 7.3333 25.3858 0.0000 0.0000 0.0000
# 2 7.3333 36.0287 31.8578 0.0000 0.0000 0.0000
# 3 25.3858 31.8578 131.0980 0.0000 0.0000 0.0000
# 4 0.0000 0.0000 0.0000 40.5947 0.0000 0.0000
# 5 0.0000 0.0000 0.0000 0.0000 30.6594 0.0000
# 6 0.0000 0.0000 0.0000 0.0000 0.0000 24.8716
#
#
#
# Elastic Compliance Matrix: (Units=1/GPa)
#
#
# Indices 1 2 3 4 5 6 
#
# 1 0.018367 -0.000756 -0.003373 0.000000 0.000000 0.000000
# 2 -0.000756 0.035383 -0.008452 0.000000 0.000000 0.000000
# 3 -0.003373 -0.008452 0.010335 0.000000 0.000000 0.000000
# 4 0.000000 0.000000 0.000000 0.024634 0.000000 0.000000
# 5 0.000000 0.000000 0.000000 0.000000 0.032616 0.000000
# 6 0.000000 0.000000 0.000000 0.000000 0.000000 0.040206
#
#
# Mechanical properties :
#
#
# Convention : Reuss Voigt Hill
#
# Bulk Modulus (GPa) = 25.69141 39.52093 32.60617
# Shear Modulus (GPa) = 25.04027 30.02233 27.53130
#
# Velocity S-wave (km/s) = 3.32181 3.63729 3.48313
# Velocity P-wave (km/s) = 5.10235 5.92077 5.52673
#
# Compressibility (1/GPa) = 0.03892351
#
# Stress axis : x y z
#
# Youngs Moduli (GPa) = 54.44430 28.26209 96.75956
#
# Poissons Ratio (x) = 0.02137 0.32636
# Poissons Ratio (y) = 0.04116 0.81781
# Poissons Ratio (z) = 0.18364 0.23887
#
# Static dielectric constant tensor:
#      x y z
#    x 1.914530 0.000000 0.000000 
#    y 0.000000 1.908290 0.000000 
#    z 0.000000 0.000000 1.903150 
# 
# From -- ./inp_files/7885.got.cif
#   From: 2010.05.17/outbox.cif.g08.bks.cpg/sg56_4_cif.got.tgz:7885.got - 2010.06.03 13:42:01.
