data_PCOD9432259
_publ_section_title
;
Structure prediction by ZEFSAII (Michael W. Deem and Ramdas Pophale) SiO2 
 PCOD9432259
Probable space group: P C C N
;
_chemical_formula_sum "Si O2"
_cell_formula_units_Z 28
_cell_length_a 7.558026
_cell_length_b 16.962164
_cell_length_c 8.310565
_cell_angle_alpha 90.000000
_cell_angle_beta 90.000000
_cell_angle_gamma 90.000000
_cell_volume 1065.418393
_symmetry_space_group_name_H-M "P C C N"
_symmetry_group_IT_number 56
_symmetry_cell_setting 'orthorhombic'
loop_
_space_group_symop_operation_xyz
x,y,z
1/2-x,1/2-y,z
1/2+x,-y,1/2-z
-x,1/2+y,1/2-z
-x,-y,-z
1/2+x,1/2+y,-z
1/2-x,y,1/2+z
x,1/2-y,1/2+z
loop_
_atom_site_type_symbol
_atom_site_label
_atom_site_fract_x
_atom_site_fract_y
_atom_site_fract_z
Si Si1 0.147058 0.414829 0.591017
Si Si2 0.250000 0.750000 0.658054
Si Si3 0.526027 0.853211 0.757185
Si Si4 0.694788 0.077912 0.819950
O O1 0.298353 0.354235 0.642330
O O2 0.079373 0.386847 0.418701
O O3 0.255087 0.497573 0.590258
O O4 0.985836 0.422810 0.717913
O O5 0.429704 0.769041 0.753674
O O6 0.210397 0.836747 0.588577
O O7 0.364496 0.911491 0.799564
#
# Coordination Sequence:
#
# PCOD9432259 Si02
#       4
#     8   4   8   8
#     4  12  23  43  76 101 145 183 245 274 366 401
#     4   8  22  46  62  98 144 180 234 284 352 398
#     4  10  25  45  69 107 135 191 229 299 337 433
#     4  10  22  42  66 103 141 188 228 298 328 429
#
# _framework density 26.280757999999999
#
# number of rings (size 3 to 8) (size 9 to 14) (size 15 to 20)
#    1.714    0.000    2.857    0.857    0.000    5.714 
#    0.000    2.857    0.000    1.714    0.000    0.000 
#    0.000    0.000    0.000    0.000    0.000    0.000 
#
# Total GULP energy -156153.752617 kJ/mol
# GULP energy per Si atom -5576.919736 kJ/mol
# Density = 2.622094 g / cm^3
# Si number density = 26.280758 Si / 1000 Ang^3
#
#
#
# Elastic Constant Matrix: (Units=GPa)
#
#
# Indices 1 2 3 4 5 6 
#
# 1 189.8699 63.6414 55.6139 0.0000 0.0000 0.0000
# 2 63.6414 150.4280 50.6188 0.0000 0.0000 0.0000
# 3 55.6139 50.6188 84.1417 0.0000 0.0000 0.0000
# 4 0.0000 0.0000 0.0000 13.0051 0.0000 0.0000
# 5 0.0000 0.0000 0.0000 0.0000 -61.7484 0.0000
# 6 0.0000 0.0000 0.0000 0.0000 0.0000 72.9515
#
#
#
# Elastic Compliance Matrix: (Units=1/GPa)
#
#
# Indices 1 2 3 4 5 6 
#
# 1 0.006872 -0.001729 -0.003502 0.000000 0.000000 0.000000
# 2 -0.001729 0.008770 -0.004133 0.000000 0.000000 0.000000
# 3 -0.003502 -0.004133 0.016686 0.000000 0.000000 0.000000
# 4 0.000000 0.000000 0.000000 0.076893 0.000000 0.000000
# 5 0.000000 0.000000 0.000000 0.000000 -0.016195 0.000000
# 6 0.000000 0.000000 0.000000 0.000000 0.000000 0.013708
#
#
# Mechanical properties :
#
#
# Convention : Reuss Voigt Hill
#
# Bulk Modulus (GPa) = 73.53136 84.90975 79.22055
# Shear Modulus (GPa) = 38.46292 21.81266 30.13779
#
# Velocity S-wave (km/s) = 3.82977 2.88407 3.39006
# Velocity P-wave (km/s) = 6.89899 6.59313 6.74780
#
# Compressibility (1/GPa) = 0.01359964
#
# Stress axis : x y z
#
# Youngs Moduli (GPa) = 145.51755 114.02558 59.93100
#
# Poissons Ratio (x) = 0.19714 0.20988
# Poissons Ratio (y) = 0.25159 0.24771
# Poissons Ratio (z) = 0.50960 0.47129
#
# Static dielectric constant tensor:
#      x y z
#    x 2.099850 0.000000 0.000000 
#    y 0.000000 2.136130 0.000000 
#    z 0.000000 0.000000 2.115750 
# 
# From -- ./inp_files/1858.got.cif
#   From: 2010.05.17/outbox.cif.g08.bks.cpg/sg56_1_cif.got.tgz:1858.got - 2010.06.03 13:42:01.
