data_PCOD9432303
_publ_section_title
;
Structure prediction by ZEFSAII (Michael W. Deem and Ramdas Pophale) SiO2 
 PCOD9432303
Probable space group: P C C N
;
_chemical_formula_sum "Si O2"
_cell_formula_units_Z 20
_cell_length_a 4.210854
_cell_length_b 8.185169
_cell_length_c 19.638878
_cell_angle_alpha 90.000000
_cell_angle_beta 90.000000
_cell_angle_gamma 90.000000
_cell_volume 676.884402
_symmetry_space_group_name_H-M "P C C N"
_symmetry_group_IT_number 56
_symmetry_cell_setting 'orthorhombic'
loop_
_space_group_symop_operation_xyz
x,y,z
1/2-x,1/2-y,z
1/2+x,-y,1/2-z
-x,1/2+y,1/2-z
-x,-y,-z
1/2+x,1/2+y,-z
1/2-x,y,1/2+z
x,1/2-y,1/2+z
loop_
_atom_site_type_symbol
_atom_site_label
_atom_site_fract_x
_atom_site_fract_y
_atom_site_fract_z
Si Si1 0.750000 0.750000 0.301431
Si Si2 0.250000 0.750000 0.198374
Si Si3 0.250000 0.750000 0.989373
Si Si4 0.709990 0.995796 0.405565
O O1 0.496517 0.828572 0.251021
O O2 0.598604 0.618491 0.353172
O O3 0.069264 0.875580 0.148556
O O4 0.484305 0.630881 0.946750
O O5 0.392610 0.883694 0.042422
#
# Coordination Sequence:
#
# PCOD9432303 Si02
#       4
#     4   4   4   8
#     4  12  24  42  70 102 140 190 248 312 378 446
#     4  11  25  44  70 102 143 193 248 312 378 447
#     4   9  21  44  70 106 147 201 254 316 384 455
#     4  10  22  42  70 103 148 194 253 314 378 455
#
# _framework density 29.547145
#
# number of rings (size 3 to 8) (size 9 to 14) (size 15 to 20)
#    0.000    1.600    0.000    3.600    0.000    4.800 
#    0.000   14.000    0.000    0.000    0.000    0.000 
#    0.000    0.000    0.000    0.000    0.000    0.000 
#
# Total GULP energy -111466.442415 kJ/mol
# GULP energy per Si atom -5573.322121 kJ/mol
# Density = 2.947989 g / cm^3
# Si number density = 29.547145 Si / 1000 Ang^3
#
#
#
# Elastic Constant Matrix: (Units=GPa)
#
#
# Indices 1 2 3 4 5 6 
#
# 1 68.4624 54.3160 74.0744 0.0000 0.0000 0.0000
# 2 54.3160 207.8121 145.9636 0.0000 0.0000 0.0000
# 3 74.0744 145.9636 208.0839 0.0000 0.0000 0.0000
# 4 0.0000 0.0000 0.0000 122.4127 0.0000 0.0000
# 5 0.0000 0.0000 0.0000 0.0000 40.3700 0.0000
# 6 0.0000 0.0000 0.0000 0.0000 0.0000 64.1292
#
#
#
# Elastic Compliance Matrix: (Units=1/GPa)
#
#
# Indices 1 2 3 4 5 6 
#
# 1 0.023787 -0.000531 -0.008095 0.000000 0.000000 0.000000
# 2 -0.000531 0.009497 -0.006473 0.000000 0.000000 0.000000
# 3 -0.008095 -0.006473 0.012228 0.000000 0.000000 0.000000
# 4 0.000000 0.000000 0.000000 0.008169 0.000000 0.000000
# 5 0.000000 0.000000 0.000000 0.000000 0.024771 0.000000
# 6 0.000000 0.000000 0.000000 0.000000 0.000000 0.015594
#
#
# Mechanical properties :
#
#
# Convention : Reuss Voigt Hill
#
# Bulk Modulus (GPa) = 65.30189 114.78515 90.04352
# Shear Modulus (GPa) = 38.65534 59.38267 49.01901
#
# Velocity S-wave (km/s) = 3.62091 4.48790 4.07751
# Velocity P-wave (km/s) = 6.29525 8.11095 7.26009
#
# Compressibility (1/GPa) = 0.01531349
#
# Stress axis : x y z
#
# Youngs Moduli (GPa) = 42.04054 105.29189 81.78021
#
# Poissons Ratio (x) = 0.05596 0.66200
# Poissons Ratio (y) = 0.02234 0.52936
# Poissons Ratio (z) = 0.34031 0.68155
#
# Static dielectric constant tensor:
#      x y z
#    x 2.435540 0.000000 0.000000 
#    y 0.000000 2.354070 0.000000 
#    z 0.000000 0.000000 2.192300 
# 
# From -- ./inp_files/13526.got.cif
#   From: 2010.05.17/outbox.cif.g08.bks.cpg/sg56_7_cif.got.tgz:13526.got - 2010.06.03 13:42:01.
