data_PCOD9432225
_publ_section_title
;
Structure prediction by ZEFSAII (Michael W. Deem and Ramdas Pophale) SiO2 
 PCOD9432225
Probable space group: P C C N
;
_chemical_formula_sum "Si O2"
_cell_formula_units_Z 60
_cell_length_a 17.913399
_cell_length_b 7.528329
_cell_length_c 18.017890
_cell_angle_alpha 90.000000
_cell_angle_beta 90.000000
_cell_angle_gamma 90.000000
_cell_volume 2429.855910
_symmetry_space_group_name_H-M "P C C N"
_symmetry_group_IT_number 56
_symmetry_cell_setting 'orthorhombic'
loop_
_space_group_symop_operation_xyz
x,y,z
1/2-x,1/2-y,z
1/2+x,-y,1/2-z
-x,1/2+y,1/2-z
-x,-y,-z
1/2+x,1/2+y,-z
1/2-x,y,1/2+z
x,1/2-y,1/2+z
loop_
_atom_site_type_symbol
_atom_site_label
_atom_site_fract_x
_atom_site_fract_y
_atom_site_fract_z
Si Si1 0.337837 0.473228 0.680038
Si Si2 0.077749 0.808725 0.253760
Si Si3 0.250000 0.250000 0.430788
Si Si4 0.830448 0.178858 0.472107
Si Si5 0.094693 0.129708 0.472955
Si Si6 0.039714 0.256136 0.118744
Si Si7 0.471389 0.626816 0.093909
Si Si8 0.772846 0.456427 0.192772
O O1 0.390478 0.621608 0.720916
O O2 0.313583 0.556440 0.600807
O O3 0.383083 0.293426 0.663056
O O4 0.270427 0.463574 0.736554
O O5 0.037517 0.888531 0.182524
O O6 0.141934 0.939028 0.282554
O O7 0.023500 0.785302 0.322106
O O8 0.172388 0.243522 0.476366
O O9 0.252677 0.419292 0.376123
O O10 0.750000 0.250000 0.495810
O O11 0.893087 0.312436 0.441882
O O12 0.871579 0.067026 0.536751
O O13 0.051229 0.108183 0.551026
O O14 0.038528 0.236762 0.420975
O O15 0.020463 0.078446 0.073722
O O16 0.750000 0.250000 0.181274
#
# Coordination Sequence:
#
# PCOD9432225 Si02
#       8
#     8   8   4   8   8   8   8   8
#     4   9  20  42  67 104 147 183 248 317 387 464
#     4  10  22  41  74 111 141 192 251 313 392 459
#     4  12  30  46  72 106 150 206 266 314 404 476
#     4  10  22  45  73 103 145 201 257 320 401 477
#     4  11  28  48  66 104 157 200 259 329 389 483
#     4  11  24  42  74 105 149 198 253 319 386 482
#     4  11  24  43  76 110 148 197 258 322 395 474
#     4  10  24  46  72 106 153 192 247 324 391 462
#
# _framework density 24.692823000000001
#
# number of rings (size 3 to 8) (size 9 to 14) (size 15 to 20)
#    0.000    1.600    0.000    3.600    9.333    4.800 
#    0.000    0.000    0.000    0.000    0.000    0.000 
#    0.000    0.000    0.000    0.000    0.000    0.000 
#
# Total GULP energy -335400.115629 kJ/mol
# GULP energy per Si atom -5590.001927 kJ/mol
# Density = 2.463662 g / cm^3
# Si number density = 24.692823 Si / 1000 Ang^3
#
#
#
# Elastic Constant Matrix: (Units=GPa)
#
#
# Indices 1 2 3 4 5 6 
#
# 1 141.4538 47.6644 32.3244 0.0000 0.0000 0.0000
# 2 47.6644 92.3495 26.5888 0.0000 0.0000 0.0000
# 3 32.3244 26.5888 74.9446 0.0000 0.0000 0.0000
# 4 0.0000 0.0000 0.0000 29.5653 0.0000 0.0000
# 5 0.0000 0.0000 0.0000 0.0000 49.7365 0.0000
# 6 0.0000 0.0000 0.0000 0.0000 0.0000 37.1959
#
#
#
# Elastic Compliance Matrix: (Units=1/GPa)
#
#
# Indices 1 2 3 4 5 6 
#
# 1 0.008952 -0.003908 -0.002475 0.000000 0.000000 0.000000
# 2 -0.003908 0.013766 -0.003199 0.000000 0.000000 0.000000
# 3 -0.002475 -0.003199 0.015545 0.000000 0.000000 0.000000
# 4 0.000000 0.000000 0.000000 0.033823 0.000000 0.000000
# 5 0.000000 0.000000 0.000000 0.000000 0.020106 0.000000
# 6 0.000000 0.000000 0.000000 0.000000 0.000000 0.026885
#
#
# Mechanical properties :
#
#
# Convention : Reuss Voigt Hill
#
# Bulk Modulus (GPa) = 52.35193 57.98924 55.17059
# Shear Modulus (GPa) = 34.57667 36.77756 35.67711
#
# Velocity S-wave (km/s) = 3.74608 3.86346 3.80523
# Velocity P-wave (km/s) = 6.32124 6.59068 6.45737
#
# Compressibility (1/GPa) = 0.01910149
#
# Stress axis : x y z
#
# Youngs Moduli (GPa) = 111.71077 72.64139 64.32830
#
# Poissons Ratio (x) = 0.28387 0.15918
# Poissons Ratio (y) = 0.43654 0.20576
# Poissons Ratio (z) = 0.27643 0.23235
#
# Static dielectric constant tensor:
#      x y z
#    x 2.173180 0.000000 0.000000 
#    y 0.000000 2.057500 0.000000 
#    z 0.000000 0.000000 1.976210 
# 
# From -- ./inp_files/16663.got.cif
#   From: 2010.05.17/outbox.cif.g08.bks.cpg/sg56_9_cif.got.tgz:16663.got - 2010.06.03 13:42:01.
