data_PCOD9432625
_publ_section_title
;
Structure prediction by ZEFSAII (Michael W. Deem and Ramdas Pophale) SiO2 
 PCOD9432625
Probable space group: P C C N
;
_chemical_formula_sum "Si O2"
_cell_formula_units_Z 36
_cell_length_a 5.270680
_cell_length_b 27.409174
_cell_length_c 9.246359
_cell_angle_alpha 90.000000
_cell_angle_beta 90.000000
_cell_angle_gamma 90.000000
_cell_volume 1335.775116
_symmetry_space_group_name_H-M "P C C N"
_symmetry_group_IT_number 56
_symmetry_cell_setting 'orthorhombic'
loop_
_space_group_symop_operation_xyz
x,y,z
1/2-x,1/2-y,z
1/2+x,-y,1/2-z
-x,1/2+y,1/2-z
-x,-y,-z
1/2+x,1/2+y,-z
1/2-x,y,1/2+z
x,1/2-y,1/2+z
loop_
_atom_site_type_symbol
_atom_site_label
_atom_site_fract_x
_atom_site_fract_y
_atom_site_fract_z
Si Si1 0.585401 0.908081 0.462638
Si Si2 0.928013 0.531544 0.751800
Si Si3 0.437717 0.171267 0.027897
Si Si4 0.250000 0.750000 0.377672
Si Si5 0.770526 0.351070 0.759236
O O1 0.510403 0.936949 0.607080
O O2 0.815598 0.938275 0.387688
O O3 0.398724 0.894762 0.330532
O O4 0.680943 0.854324 0.511374
O O5 0.684198 0.497734 0.711932
O O6 0.521000 0.227210 0.029606
O O7 0.644406 0.146076 0.922926
O O8 0.491070 0.154984 0.193304
O O9 0.139138 0.703966 0.289877
#
# Coordination Sequence:
#
# PCOD9432625 Si02
#       5
#     8   8   8   4   8
#     4  12  26  43  73 104 142 194 237 303 372 438
#     4  12  30  50  76 107 144 187 248 312 378 444
#     4  10  23  42  67 101 144 187 241 291 351 435
#     4   8  22  38  72 100 144 192 236 298 350 414
#     4  10  23  42  67 101 144 187 241 291 351 435
#
# _framework density 26.950641999999998
#
# number of rings (size 3 to 8) (size 9 to 14) (size 15 to 20)
#    1.333    0.000    2.222    2.000    9.333    0.889 
#    0.000    2.222    0.000    0.000    0.000    0.000 
#    0.000    0.000    0.000    0.000    0.000    0.000 
#
# Total GULP energy -200842.859186 kJ/mol
# GULP energy per Si atom -5578.968311 kJ/mol
# Density = 2.688930 g / cm^3
# Si number density = 26.950642 Si / 1000 Ang^3
#
#
#
# Elastic Constant Matrix: (Units=GPa)
#
#
# Indices 1 2 3 4 5 6 
#
# 1 74.0697 26.7575 2.6327 0.0000 0.0000 0.0000
# 2 26.7575 110.4694 25.8810 0.0000 0.0000 0.0000
# 3 2.6327 25.8810 149.1060 0.0000 0.0000 0.0000
# 4 0.0000 0.0000 0.0000 38.3154 0.0000 0.0000
# 5 0.0000 0.0000 0.0000 0.0000 24.5029 0.0000
# 6 0.0000 0.0000 0.0000 0.0000 0.0000 51.0111
#
#
#
# Elastic Compliance Matrix: (Units=1/GPa)
#
#
# Indices 1 2 3 4 5 6 
#
# 1 0.014816 -0.003677 0.000377 0.000000 0.000000 0.000000
# 2 -0.003677 0.010348 -0.001731 0.000000 0.000000 0.000000
# 3 0.000377 -0.001731 0.007000 0.000000 0.000000 0.000000
# 4 0.000000 0.000000 0.000000 0.026099 0.000000 0.000000
# 5 0.000000 0.000000 0.000000 0.000000 0.040812 0.000000
# 6 0.000000 0.000000 0.000000 0.000000 0.000000 0.019604
#
#
# Mechanical properties :
#
#
# Convention : Reuss Voigt Hill
#
# Bulk Modulus (GPa) = 45.24561 49.35415 47.29988
# Shear Modulus (GPa) = 36.73522 41.32414 39.02968
#
# Velocity S-wave (km/s) = 3.69596 3.92002 3.80964
# Velocity P-wave (km/s) = 5.91932 6.23228 6.07781
#
# Compressibility (1/GPa) = 0.02210159
#
# Stress axis : x y z
#
# Youngs Moduli (GPa) = 67.49613 96.63253 142.84698
#
# Poissons Ratio (x) = 0.35530 -0.05380
# Poissons Ratio (y) = 0.24817 0.24731
# Poissons Ratio (z) = -0.02542 0.16730
#
# Static dielectric constant tensor:
#      x y z
#    x 2.171260 0.000000 0.000000 
#    y 0.000000 2.215700 0.000000 
#    z 0.000000 0.000000 2.032710 
# 
# From -- ./inp_files/5673.got.cif
#   From: 2010.05.17/outbox.cif.g08.bks.cpg/sg56_3_cif.got.tgz:5673.got - 2010.06.03 13:42:01.
