data_PCOD9432923
_publ_section_title
;
Structure prediction by ZEFSAII (Michael W. Deem and Ramdas Pophale) SiO2 
 PCOD9432923
Probable space group: P C C N
;
_chemical_formula_sum "Si O2"
_cell_formula_units_Z 32
_cell_length_a 9.567947
_cell_length_b 14.917555
_cell_length_c 10.209104
_cell_angle_alpha 90.000000
_cell_angle_beta 90.000000
_cell_angle_gamma 90.000000
_cell_volume 1457.149249
_symmetry_space_group_name_H-M "P C C N"
_symmetry_group_IT_number 56
_symmetry_cell_setting 'orthorhombic'
loop_
_space_group_symop_operation_xyz
x,y,z
1/2-x,1/2-y,z
1/2+x,-y,1/2-z
-x,1/2+y,1/2-z
-x,-y,-z
1/2+x,1/2+y,-z
1/2-x,y,1/2+z
x,1/2-y,1/2+z
loop_
_atom_site_type_symbol
_atom_site_label
_atom_site_fract_x
_atom_site_fract_y
_atom_site_fract_z
Si Si1 0.910878 0.772013 0.273165
Si Si2 0.985217 0.848805 0.015713
Si Si3 0.666809 0.018567 0.618859
Si Si4 0.512875 0.034446 0.146714
O O1 0.750000 0.750000 0.242631
O O2 0.992562 0.779383 0.135581
O O3 0.956046 0.701251 0.381441
O O4 0.939564 0.869164 0.337374
O O5 0.120752 0.909954 0.990720
O O6 0.863651 0.920267 0.056216
O O7 0.821445 0.035118 0.669430
O O8 0.561836 0.024249 0.741986
O O9 0.500000 0.000000 0.000000
#
# Coordination Sequence:
#
# PCOD9432923 Si02
#       4
#     8   8   8   8
#     4  11  24  42  69 105 137 186 238 299 367 428
#     4  10  24  43  71  98 149 180 243 301 361 440
#     4  10  25  46  70 106 144 194 245 300 365 444
#     4  11  26  43  76 103 144 196 245 300 371 433
#
# _framework density 21.960688000000001
#
# number of rings (size 3 to 8) (size 9 to 14) (size 15 to 20)
#    0.000    1.500    0.000    2.250   21.000    1.000 
#    0.000    5.000    0.000    0.000    0.000    0.000 
#    0.000    0.000    0.000    0.000    0.000    0.000 
#
# Total GULP energy -178831.785675 kJ/mol
# GULP energy per Si atom -5588.493302 kJ/mol
# Density = 2.191070 g / cm^3
# Si number density = 21.960688 Si / 1000 Ang^3
#
#
#
# Elastic Constant Matrix: (Units=GPa)
#
#
# Indices 1 2 3 4 5 6 
#
# 1 130.3932 28.4980 58.7440 0.0000 0.0000 0.0000
# 2 28.4980 71.1903 77.9211 0.0000 0.0000 0.0000
# 3 58.7440 77.9211 163.9627 0.0000 0.0000 0.0000
# 4 0.0000 0.0000 0.0000 51.5502 0.0000 0.0000
# 5 0.0000 0.0000 0.0000 0.0000 35.5636 0.0000
# 6 0.0000 0.0000 0.0000 0.0000 0.0000 27.2819
#
#
#
# Elastic Compliance Matrix: (Units=1/GPa)
#
#
# Indices 1 2 3 4 5 6 
#
# 1 0.009146 -0.000155 -0.003203 0.000000 0.000000 0.000000
# 2 -0.000155 0.029277 -0.013858 0.000000 0.000000 0.000000
# 3 -0.003203 -0.013858 0.013832 0.000000 0.000000 0.000000
# 4 0.000000 0.000000 0.000000 0.019399 0.000000 0.000000
# 5 0.000000 0.000000 0.000000 0.000000 0.028119 0.000000
# 6 0.000000 0.000000 0.000000 0.000000 0.000000 0.036654
#
#
# Mechanical properties :
#
#
# Convention : Reuss Voigt Hill
#
# Bulk Modulus (GPa) = 56.10756 77.31916 66.71336
# Shear Modulus (GPa) = 28.28043 36.23801 32.25922
#
# Velocity S-wave (km/s) = 3.59245 4.06659 3.83685
# Velocity P-wave (km/s) = 6.54310 7.57192 7.07623
#
# Compressibility (1/GPa) = 0.01782291
#
# Stress axis : x y z
#
# Youngs Moduli (GPa) = 109.33674 34.15624 72.29468
#
# Poissons Ratio (x) = 0.00531 0.23155
# Poissons Ratio (y) = 0.01700 1.00185
# Poissons Ratio (z) = 0.35020 0.47333
#
# Static dielectric constant tensor:
#      x y z
#    x 1.810750 0.000000 0.000000 
#    y 0.000000 1.846850 0.000000 
#    z 0.000000 0.000000 1.813440 
# 
# From -- ./inp_files/2493.got.cif
#   From: 2010.05.17/outbox.cif.g08.bks.cpg/sg56_2_cif.got.tgz:2493.got - 2010.06.03 13:42:01.
