data_PCOD9432449
_publ_section_title
;
Structure prediction by ZEFSAII (Michael W. Deem and Ramdas Pophale) SiO2 
 PCOD9432449
Probable space group: P C C N
;
_chemical_formula_sum "Si O2"
_cell_formula_units_Z 32
_cell_length_a 12.065479
_cell_length_b 9.304064
_cell_length_c 12.220105
_cell_angle_alpha 90.000000
_cell_angle_beta 90.000000
_cell_angle_gamma 90.000000
_cell_volume 1371.804410
_symmetry_space_group_name_H-M "P C C N"
_symmetry_group_IT_number 56
_symmetry_cell_setting 'orthorhombic'
loop_
_space_group_symop_operation_xyz
x,y,z
1/2-x,1/2-y,z
1/2+x,-y,1/2-z
-x,1/2+y,1/2-z
-x,-y,-z
1/2+x,1/2+y,-z
1/2-x,y,1/2+z
x,1/2-y,1/2+z
loop_
_atom_site_type_symbol
_atom_site_label
_atom_site_fract_x
_atom_site_fract_y
_atom_site_fract_z
Si Si1 0.953356 0.797249 0.111035
Si Si2 0.669844 0.861982 0.925180
Si Si3 0.500324 0.492952 0.272092
Si Si4 0.323424 0.614086 0.118865
O O1 0.942951 0.576296 0.872505
O O2 0.867712 0.726290 0.030694
O O3 0.922153 0.943793 0.174000
O O4 0.068557 0.837229 0.050918
O O5 0.750000 0.750000 0.859858
O O6 0.510615 0.826332 0.198501
O O7 0.747100 0.999614 0.940830
O O8 0.381385 0.545495 0.226755
O O9 0.250000 0.750000 0.147836
#
# Coordination Sequence:
#
# PCOD9432449 Si02
#       4
#     8   8   8   8
#     4  10  24  45  65 106 139 186 246 293 354 438
#     4  12  24  43  72 102 144 186 239 301 367 426
#     4  10  22  45  67  99 148 181 241 301 343 451
#     4  10  23  44  67 100 139 187 235 287 373 414
#
# _framework density 23.326941000000001
#
# number of rings (size 3 to 8) (size 9 to 14) (size 15 to 20)
#    1.500    0.000    2.500    2.250    0.000    4.000 
#    4.500    0.000    0.000    0.000    0.000    0.000 
#    0.000    0.000    0.000    0.000    0.000    0.000 
#
# Total GULP energy -178164.330729 kJ/mol
# GULP energy per Si atom -5567.635335 kJ/mol
# Density = 2.327385 g / cm^3
# Si number density = 23.326941 Si / 1000 Ang^3
#
#
#
# Elastic Constant Matrix: (Units=GPa)
#
#
# Indices 1 2 3 4 5 6 
#
# 1 107.7323 32.9144 40.4371 0.0000 0.0000 0.0000
# 2 32.9144 87.3718 35.2218 0.0000 0.0000 0.0000
# 3 40.4371 35.2218 53.4872 0.0000 0.0000 0.0000
# 4 0.0000 0.0000 0.0000 36.3614 0.0000 0.0000
# 5 0.0000 0.0000 0.0000 0.0000 1.2508 0.0000
# 6 0.0000 0.0000 0.0000 0.0000 0.0000 45.7807
#
#
#
# Elastic Compliance Matrix: (Units=1/GPa)
#
#
# Indices 1 2 3 4 5 6 
#
# 1 0.013064 -0.001280 -0.009034 0.000000 0.000000 0.000000
# 2 -0.001280 0.015707 -0.009376 0.000000 0.000000 0.000000
# 3 -0.009034 -0.009376 0.031700 0.000000 0.000000 0.000000
# 4 0.000000 0.000000 0.000000 0.027502 0.000000 0.000000
# 5 0.000000 0.000000 0.000000 0.000000 0.799481 0.000000
# 6 0.000000 0.000000 0.000000 0.000000 0.000000 0.021843
#
#
# Mechanical properties :
#
#
# Convention : Reuss Voigt Hill
#
# Bulk Modulus (GPa) = 47.41083 51.74864 49.57974
# Shear Modulus (GPa) = 5.23173 26.01312 15.62243
#
# Velocity S-wave (km/s) = 1.49922 3.34301 2.59069
# Velocity P-wave (km/s) = 4.83379 6.09370 5.49994
#
# Compressibility (1/GPa) = 0.02109223
#
# Stress axis : x y z
#
# Youngs Moduli (GPa) = 76.54539 63.66581 31.54573
#
# Poissons Ratio (x) = 0.08147 0.28499
# Poissons Ratio (y) = 0.09795 0.29577
# Poissons Ratio (z) = 0.69152 0.59692
#
# Static dielectric constant tensor:
#      x y z
#    x 1.933850 0.000000 0.000000 
#    y 0.000000 1.879010 0.000000 
#    z 0.000000 0.000000 1.942730 
# 
# From -- ./inp_files/3060.got.cif
#   From: 2010.05.17/outbox.cif.g08.bks.cpg/sg56_2_cif.got.tgz:3060.got - 2010.06.03 13:42:01.
