data_PCOD9432775
_publ_section_title
;
Structure prediction by ZEFSAII (Michael W. Deem and Ramdas Pophale) SiO2 
 PCOD9432775
Probable space group: P C C N
;
_chemical_formula_sum "Si O2"
_cell_formula_units_Z 56
_cell_length_a 29.519869
_cell_length_b 5.525682
_cell_length_c 13.896799
_cell_angle_alpha 90.000000
_cell_angle_beta 90.000000
_cell_angle_gamma 90.000000
_cell_volume 2266.809843
_symmetry_space_group_name_H-M "P C C N"
_symmetry_group_IT_number 56
_symmetry_cell_setting 'orthorhombic'
loop_
_space_group_symop_operation_xyz
x,y,z
1/2-x,1/2-y,z
1/2+x,-y,1/2-z
-x,1/2+y,1/2-z
-x,-y,-z
1/2+x,1/2+y,-z
1/2-x,y,1/2+z
x,1/2-y,1/2+z
loop_
_atom_site_type_symbol
_atom_site_label
_atom_site_fract_x
_atom_site_fract_y
_atom_site_fract_z
Si Si1 0.554514 0.023371 0.297692
Si Si2 0.794982 0.342605 0.520612
Si Si3 0.125180 0.665594 0.091031
Si Si4 0.041439 0.470346 0.392620
Si Si5 0.563710 0.469106 0.566147
Si Si6 0.704468 0.659554 0.643200
Si Si7 0.379358 0.154232 0.250439
O O1 0.581084 0.225239 0.356241
O O2 0.501724 0.015518 0.322188
O O3 0.562754 0.045309 0.182990
O O4 0.582816 0.780483 0.317269
O O5 0.750000 0.250000 0.465180
O O6 0.838378 0.344978 0.452284
O O7 0.794986 0.610918 0.567487
O O8 0.795705 0.112852 0.597495
O O9 0.146746 0.521826 0.179165
O O10 0.108919 0.519864 0.996713
O O11 0.043659 0.706956 0.456637
O O12 0.089524 0.456849 0.335307
O O13 0.039257 0.221375 0.450642
O O14 0.750000 0.750000 0.699436
O O15 0.658334 0.676837 0.703342
#
# Coordination Sequence:
#
# PCOD9432775 Si02
#       7
#     8   8   8   8   8   8   8
#     4  11  26  45  66  99 140 186 239 288 351 415
#     4  10  23  46  73 104 140 178 224 294 359 426
#     4  12  27  42  70 105 137 186 236 291 354 423
#     4  11  24  46  69  92 140 188 233 293 346 412
#     4  11  24  44  68  94 137 180 231 291 348 407
#     4  10  23  48  79 104 137 186 233 286 363 422
#     4  11  25  43  69 102 140 185 236 294 341 424
#
# _framework density 24.704321
#
# number of rings (size 3 to 8) (size 9 to 14) (size 15 to 20)
#    0.000    1.143    1.429    4.286    8.000    1.143 
#    2.571    0.000    0.000    0.000    0.000    0.000 
#    0.000    0.000    0.000    0.000    0.000    0.000 
#
# Total GULP energy -312252.076833 kJ/mol
# GULP energy per Si atom -5575.929943 kJ/mol
# Density = 2.464809 g / cm^3
# Si number density = 24.704321 Si / 1000 Ang^3
#
#
#
# Elastic Constant Matrix: (Units=GPa)
#
#
# Indices 1 2 3 4 5 6 
#
# 1 103.4146 -1.5391 15.1804 0.0000 0.0000 0.0000
# 2 -1.5391 151.0082 1.2818 0.0000 0.0000 0.0000
# 3 15.1804 1.2818 57.4173 0.0000 0.0000 0.0000
# 4 0.0000 0.0000 0.0000 61.2906 0.0000 0.0000
# 5 0.0000 0.0000 0.0000 0.0000 92.0991 0.0000
# 6 0.0000 0.0000 0.0000 0.0000 0.0000 -25.3443
#
#
#
# Elastic Compliance Matrix: (Units=1/GPa)
#
#
# Indices 1 2 3 4 5 6 
#
# 1 0.010063 0.000125 -0.002663 0.000000 0.000000 0.000000
# 2 0.000125 0.006625 -0.000181 0.000000 0.000000 0.000000
# 3 -0.002663 -0.000181 0.018125 0.000000 0.000000 0.000000
# 4 0.000000 0.000000 0.000000 0.016316 0.000000 0.000000
# 5 0.000000 0.000000 0.000000 0.000000 0.010858 0.000000
# 6 0.000000 0.000000 0.000000 0.000000 0.000000 -0.039457
#
#
# Mechanical properties :
#
#
# Convention : Reuss Voigt Hill
#
# Bulk Modulus (GPa) = 34.04367 37.96512 36.00439
# Shear Modulus (GPa) = 132.42061 45.40356 88.91209
#
# Velocity S-wave (km/s) = 7.32930 4.29170 6.00572
# Velocity P-wave (km/s) = 9.24311 6.32135 7.91816
#
# Compressibility (1/GPa) = 0.02937404
#
# Stress axis : x y z
#
# Youngs Moduli (GPa) = 99.37775 150.94413 55.17386
#
# Poissons Ratio (x) = -0.01889 0.14694
# Poissons Ratio (y) = -0.01244 0.00999
# Poissons Ratio (z) = 0.26466 0.02732
#
# Static dielectric constant tensor:
#      x y z
#    x 4.053350 0.000000 0.000000 
#    y 0.000000 2.159990 0.000000 
#    z 0.000000 0.000000 1.951040 
# 
# From -- ./inp_files/13465.got.cif
#   From: 2010.05.17/outbox.cif.g08.bks.cpg/sg56_7_cif.got.tgz:13465.got - 2010.06.03 13:42:01.
