data_PCOD9432918
_publ_section_title
;
Structure prediction by ZEFSAII (Michael W. Deem and Ramdas Pophale) SiO2 
 PCOD9432918
Probable space group: P C C N
;
_chemical_formula_sum "Si O2"
_cell_formula_units_Z 24
_cell_length_a 5.613173
_cell_length_b 16.624040
_cell_length_c 9.120973
_cell_angle_alpha 90.000000
_cell_angle_beta 90.000000
_cell_angle_gamma 90.000000
_cell_volume 851.110940
_symmetry_space_group_name_H-M "P C C N"
_symmetry_group_IT_number 56
_symmetry_cell_setting 'orthorhombic'
loop_
_space_group_symop_operation_xyz
x,y,z
1/2-x,1/2-y,z
1/2+x,-y,1/2-z
-x,1/2+y,1/2-z
-x,-y,-z
1/2+x,1/2+y,-z
1/2-x,y,1/2+z
x,1/2-y,1/2+z
loop_
_atom_site_type_symbol
_atom_site_label
_atom_site_fract_x
_atom_site_fract_y
_atom_site_fract_z
Si Si1 0.750000 0.250000 0.061303
Si Si2 0.750000 0.750000 0.108560
Si Si3 0.271079 0.577585 0.938695
Si Si4 0.431450 0.417504 0.292284
O O1 0.499474 0.260752 0.977270
O O2 0.784577 0.335697 0.138694
O O3 0.790028 0.665515 0.190742
O O4 0.543109 0.569897 0.883874
O O5 0.170551 0.499794 0.857513
O O6 0.162533 0.589227 0.098260
#
# Coordination Sequence:
#
# PCOD9432918 Si02
#       4
#     4   4   8   8
#     4  10  24  46  72 104 140 188 238 294 358 428
#     4  10  24  46  74 104 144 188 238 296 360 424
#     4  10  24  43  69 103 143 188 240 294 358 424
#     4  10  24  44  70 105 145 191 240 298 359 428
#
# _framework density 28.198440999999999
#
# number of rings (size 3 to 8) (size 9 to 14) (size 15 to 20)
#    0.000    2.000    0.000    0.000    0.000   25.333 
#    0.000    0.000    0.000    8.000    0.000    0.000 
#    0.000    0.000    0.000    0.000    0.000    0.000 
#
# Total GULP energy -133860.060597 kJ/mol
# GULP energy per Si atom -5577.502525 kJ/mol
# Density = 2.813426 g / cm^3
# Si number density = 28.198441 Si / 1000 Ang^3
#
#
#
# Elastic Constant Matrix: (Units=GPa)
#
#
# Indices 1 2 3 4 5 6 
#
# 1 141.5837 55.9066 64.0645 0.0000 0.0000 0.0000
# 2 55.9066 225.2685 69.4700 0.0000 0.0000 0.0000
# 3 64.0645 69.4700 115.4764 0.0000 0.0000 0.0000
# 4 0.0000 0.0000 0.0000 11.3534 0.0000 0.0000
# 5 0.0000 0.0000 0.0000 0.0000 50.8028 0.0000
# 6 0.0000 0.0000 0.0000 0.0000 0.0000 59.2787
#
#
#
# Elastic Compliance Matrix: (Units=1/GPa)
#
#
# Indices 1 2 3 4 5 6 
#
# 1 0.009579 -0.000907 -0.004769 0.000000 0.000000 0.000000
# 2 -0.000907 0.005536 -0.002828 0.000000 0.000000 0.000000
# 3 -0.004769 -0.002828 0.013006 0.000000 0.000000 0.000000
# 4 0.000000 0.000000 0.000000 0.088079 0.000000 0.000000
# 5 0.000000 0.000000 0.000000 0.000000 0.019684 0.000000
# 6 0.000000 0.000000 0.000000 0.000000 0.000000 0.016869
#
#
# Mechanical properties :
#
#
# Convention : Reuss Voigt Hill
#
# Bulk Modulus (GPa) = 89.96406 95.69008 92.82707
# Shear Modulus (GPa) = 28.82433 43.81281 36.31857
#
# Velocity S-wave (km/s) = 3.20065 3.94602 3.59271
# Velocity P-wave (km/s) = 6.75515 7.40065 7.08525
#
# Compressibility (1/GPa) = 0.01111555
#
# Stress axis : x y z
#
# Youngs Moduli (GPa) = 104.39815 180.63181 76.88523
#
# Poissons Ratio (x) = 0.16376 0.36664
# Poissons Ratio (y) = 0.09465 0.21740
# Poissons Ratio (z) = 0.49784 0.51074
#
# Static dielectric constant tensor:
#      x y z
#    x 2.261170 0.000000 0.000000 
#    y 0.000000 2.265920 0.000000 
#    z 0.000000 0.000000 2.215680 
# 
# From -- ./inp_files/5353.got.cif
#   From: 2010.05.17/outbox.cif.g08.bks.cpg/sg56_3_cif.got.tgz:5353.got - 2010.06.03 13:42:01.
