data_PCOD9432010
_publ_section_title
;
Structure prediction by ZEFSAII (Michael W. Deem and Ramdas Pophale) SiO2 
 PCOD9432010
Probable space group: P C C N
;
_chemical_formula_sum "Si O2"
_cell_formula_units_Z 48
_cell_length_a 17.475064
_cell_length_b 5.222060
_cell_length_c 24.966273
_cell_angle_alpha 90.000000
_cell_angle_beta 90.000000
_cell_angle_gamma 90.000000
_cell_volume 2278.318032
_symmetry_space_group_name_H-M "P C C N"
_symmetry_group_IT_number 56
_symmetry_cell_setting 'orthorhombic'
loop_
_space_group_symop_operation_xyz
x,y,z
1/2-x,1/2-y,z
1/2+x,-y,1/2-z
-x,1/2+y,1/2-z
-x,-y,-z
1/2+x,1/2+y,-z
1/2-x,y,1/2+z
x,1/2-y,1/2+z
loop_
_atom_site_type_symbol
_atom_site_label
_atom_site_fract_x
_atom_site_fract_y
_atom_site_fract_z
Si Si1 0.035688 0.249172 0.028199
Si Si2 0.969384 0.171780 0.278903
Si Si3 0.830666 0.110917 0.145105
Si Si4 0.199908 0.012012 0.744020
Si Si5 0.840810 0.728867 0.548971
Si Si6 0.046585 0.953049 0.375746
O O1 0.013485 0.287608 0.089699
O O2 0.123686 0.231973 0.009942
O O3 0.000000 0.500000 0.000000
O O4 0.000000 0.000000 0.000000
O O5 0.985372 0.456275 0.256365
O O6 0.881587 0.069323 0.280867
O O7 0.003289 0.156159 0.339254
O O8 0.750000 0.250000 0.139125
O O9 0.900506 0.285961 0.163118
O O10 0.819479 0.914302 0.193667
O O11 0.854035 0.015881 0.086554
O O12 0.250000 0.250000 0.721900
O O13 0.250000 0.750000 0.744881
O O14 0.750000 0.750000 0.548497
O O15 0.890000 0.931184 0.583617
#
# Coordination Sequence:
#
# PCOD9432010 Si02
#       6
#     8   8   8   8   8   8
#     4  10  22  39  59  85 123 158 193 242 306 371
#     4  12  25  41  64  95 128 170 218 263 319 381
#     4  11  20  33  60  91 122 153 198 260 320 361
#     4  11  24  41  60  89 130 167 209 259 318 374
#     4  11  21  36  61  91 122 154 200 256 318 372
#     4  11  23  39  60  91 126 162 206 259 313 371
#
# _framework density 21.068172000000001
#
# number of rings (size 3 to 8) (size 9 to 14) (size 15 to 20)
#    0.000    1.000    5.000    2.500    4.667    0.000 
#    0.000    0.833    0.000    0.000    0.000    0.000 
#    0.000    0.000    0.000    0.000    0.000    0.000 
#
# Total GULP energy -267554.439940 kJ/mol
# GULP energy per Si atom -5574.050832 kJ/mol
# Density = 2.102022 g / cm^3
# Si number density = 21.068172 Si / 1000 Ang^3
#
#
#
# Elastic Constant Matrix: (Units=GPa)
#
#
# Indices 1 2 3 4 5 6 
#
# 1 121.9660 9.1832 32.3129 0.0000 0.0000 0.0000
# 2 9.1832 85.5936 1.6308 0.0000 0.0000 0.0000
# 3 32.3129 1.6308 47.3039 0.0000 0.0000 0.0000
# 4 0.0000 0.0000 0.0000 21.0838 0.0000 0.0000
# 5 0.0000 0.0000 0.0000 0.0000 23.3923 0.0000
# 6 0.0000 0.0000 0.0000 0.0000 0.0000 30.2167
#
#
#
# Elastic Compliance Matrix: (Units=1/GPa)
#
#
# Indices 1 2 3 4 5 6 
#
# 1 0.010088 -0.000952 -0.006858 0.000000 0.000000 0.000000
# 2 -0.000952 0.011781 0.000244 0.000000 0.000000 0.000000
# 3 -0.006858 0.000244 0.025816 0.000000 0.000000 0.000000
# 4 0.000000 0.000000 0.000000 0.047430 0.000000 0.000000
# 5 0.000000 0.000000 0.000000 0.000000 0.042749 0.000000
# 6 0.000000 0.000000 0.000000 0.000000 0.000000 0.033094
#
#
# Mechanical properties :
#
#
# Convention : Reuss Voigt Hill
#
# Bulk Modulus (GPa) = 30.71921 37.90193 34.31057
# Shear Modulus (GPa) = 25.38850 29.05433 27.22142
#
# Velocity S-wave (km/s) = 3.47517 3.71760 3.59843
# Velocity P-wave (km/s) = 5.54210 6.03793 5.79532
#
# Compressibility (1/GPa) = 0.03255293
#
# Stress axis : x y z
#
# Youngs Moduli (GPa) = 99.13224 84.88560 38.73559
#
# Poissons Ratio (x) = 0.08078 0.26564
# Poissons Ratio (y) = 0.09433 -0.00945
# Poissons Ratio (z) = 0.67984 -0.02070
#
# Static dielectric constant tensor:
#      x y z
#    x 1.809370 0.000000 0.000000 
#    y 0.000000 1.867440 0.000000 
#    z 0.000000 0.000000 1.793660 
# 
# From -- ./inp_files/20049.got.cif
#   From: 2010.05.17/outbox.cif.g08.bks.cpg/sg56_11_cif.got.tgz:20049.got - 2010.06.03 13:42:01.
