data_PCOD9432502
_publ_section_title
;
Structure prediction by ZEFSAII (Michael W. Deem and Ramdas Pophale) SiO2 
 PCOD9432502
Probable space group: P C C N
;
_chemical_formula_sum "Si O2"
_cell_formula_units_Z 36
_cell_length_a 11.035191
_cell_length_b 5.868232
_cell_length_c 23.166337
_cell_angle_alpha 90.000000
_cell_angle_beta 90.000000
_cell_angle_gamma 90.000000
_cell_volume 1500.183897
_symmetry_space_group_name_H-M "P C C N"
_symmetry_group_IT_number 56
_symmetry_cell_setting 'orthorhombic'
loop_
_space_group_symop_operation_xyz
x,y,z
1/2-x,1/2-y,z
1/2+x,-y,1/2-z
-x,1/2+y,1/2-z
-x,-y,-z
1/2+x,1/2+y,-z
1/2-x,y,1/2+z
x,1/2-y,1/2+z
loop_
_atom_site_type_symbol
_atom_site_label
_atom_site_fract_x
_atom_site_fract_y
_atom_site_fract_z
Si Si1 0.388929 0.421608 0.576526
Si Si2 0.750000 0.250000 0.352845
Si Si3 0.439071 0.720249 0.748555
Si Si4 0.436992 0.303438 0.963009
Si Si5 0.624234 0.353795 0.123905
O O1 0.271958 0.514195 0.611396
O O2 0.456952 0.655365 0.563465
O O3 0.365810 0.333540 0.511846
O O4 0.495414 0.268664 0.606509
O O5 0.637194 0.237937 0.309291
O O6 0.510010 0.477717 0.737915
O O7 0.371361 0.648815 0.807327
O O8 0.373952 0.404596 0.907350
O O9 0.500000 0.500000 0.000000
O O10 0.750000 0.250000 0.101427
#
# Coordination Sequence:
#
# PCOD9432502 Si02
#       5
#     8   4   8   8   8
#     4  10  22  47  71 107 149 199 266 327 400 479
#     4  12  24  48  80 116 158 216 270 350 406 506
#     4  12  27  50  77 114 160 209 269 333 413 491
#     4   9  21  46  71 100 148 194 260 326 390 480
#     4  11  23  44  72 107 149 205 256 325 407 489
#
# _framework density 23.997057999999999
#
# number of rings (size 3 to 8) (size 9 to 14) (size 15 to 20)
#    0.000    1.333    3.333    1.333    0.000    1.778 
#   30.000    0.000    0.000    0.000    0.000    0.000 
#    0.000    0.000    0.000    0.000    0.000    0.000 
#
# Total GULP energy -200615.372302 kJ/mol
# GULP energy per Si atom -5572.649231 kJ/mol
# Density = 2.394244 g / cm^3
# Si number density = 23.997058 Si / 1000 Ang^3
#
#
#
# Elastic Constant Matrix: (Units=GPa)
#
#
# Indices 1 2 3 4 5 6 
#
# 1 76.7873 39.5865 33.3950 0.0000 0.0000 0.0000
# 2 39.5865 115.6719 48.5380 0.0000 0.0000 0.0000
# 3 33.3950 48.5380 138.7138 0.0000 0.0000 0.0000
# 4 0.0000 0.0000 0.0000 57.7215 0.0000 0.0000
# 5 0.0000 0.0000 0.0000 0.0000 21.6893 0.0000
# 6 0.0000 0.0000 0.0000 0.0000 0.0000 35.8708
#
#
#
# Elastic Compliance Matrix: (Units=1/GPa)
#
#
# Indices 1 2 3 4 5 6 
#
# 1 0.016431 -0.004645 -0.002330 0.000000 0.000000 0.000000
# 2 -0.004645 0.011446 -0.002887 0.000000 0.000000 0.000000
# 3 -0.002330 -0.002887 0.008780 0.000000 0.000000 0.000000
# 4 0.000000 0.000000 0.000000 0.017325 0.000000 0.000000
# 5 0.000000 0.000000 0.000000 0.000000 0.046106 0.000000
# 6 0.000000 0.000000 0.000000 0.000000 0.000000 0.027878
#
#
# Mechanical properties :
#
#
# Convention : Reuss Voigt Hill
#
# Bulk Modulus (GPa) = 59.05733 63.80132 61.42933
# Shear Modulus (GPa) = 32.60824 37.03323 34.82073
#
# Velocity S-wave (km/s) = 3.69025 3.93267 3.81339
# Velocity P-wave (km/s) = 6.54377 6.87503 6.71144
#
# Compressibility (1/GPa) = 0.01693270
#
# Stress axis : x y z
#
# Youngs Moduli (GPa) = 60.85935 87.36410 113.89195
#
# Poissons Ratio (x) = 0.40585 0.26540
# Poissons Ratio (y) = 0.28272 0.32879
# Poissons Ratio (z) = 0.14182 0.25221
#
# Static dielectric constant tensor:
#      x y z
#    x 1.561880 0.000000 0.000000 
#    y 0.000000 1.993620 0.000000 
#    z 0.000000 0.000000 1.882650 
# 
# From -- ./inp_files/20796.got.cif
#   From: 2010.05.17/outbox.cif.g08.bks.cpg/sg56_11_cif.got.tgz:20796.got - 2010.06.03 13:42:01.
