data_PCOD9432898
_publ_section_title
;
Structure prediction by ZEFSAII (Michael W. Deem and Ramdas Pophale) SiO2 
 PCOD9432898
Probable space group: P C C N
;
_chemical_formula_sum "Si O2"
_cell_formula_units_Z 40
_cell_length_a 22.124640
_cell_length_b 8.443983
_cell_length_c 9.118184
_cell_angle_alpha 90.000000
_cell_angle_beta 90.000000
_cell_angle_gamma 90.000000
_cell_volume 1703.459901
_symmetry_space_group_name_H-M "P C C N"
_symmetry_group_IT_number 56
_symmetry_cell_setting 'orthorhombic'
loop_
_space_group_symop_operation_xyz
x,y,z
1/2-x,1/2-y,z
1/2+x,-y,1/2-z
-x,1/2+y,1/2-z
-x,-y,-z
1/2+x,1/2+y,-z
1/2-x,y,1/2+z
x,1/2-y,1/2+z
loop_
_atom_site_type_symbol
_atom_site_label
_atom_site_fract_x
_atom_site_fract_y
_atom_site_fract_z
Si Si1 0.750000 0.750000 0.748895
Si Si2 0.332899 0.791985 0.500545
Si Si3 0.250000 0.750000 0.245494
Si Si4 0.828839 0.589733 0.999814
Si Si5 0.958627 0.604980 0.106881
Si Si6 0.540712 0.400976 0.890327
O O1 0.796904 0.660343 0.856114
O O2 0.711371 0.640177 0.638976
O O3 0.297854 0.834384 0.352289
O O4 0.291513 0.850235 0.635140
O O5 0.333514 0.600726 0.507858
O O6 0.399782 0.850893 0.521780
O O7 0.896980 0.653249 0.024880
O O8 0.941640 0.500353 0.247611
O O9 0.000342 0.750821 0.155669
O O10 0.000000 0.500000 0.000000
O O11 0.500000 0.500000 0.000000
#
# Coordination Sequence:
#
# PCOD9432898 Si02
#       6
#     4   8   4   8   8   8
#     4  10  26  46  72 118 150 208 244 314 390 462
#     4  11  23  46  74 109 147 192 251 315 376 458
#     4  10  24  42  72 112 138 186 240 310 380 446
#     4  11  24  46  74 105 155 191 255 305 381 461
#     4  12  27  49  75 110 149 202 256 317 385 459
#     4  12  29  48  77 109 150 203 260 320 388 459
#
# _framework density 23.481622000000002
#
# number of rings (size 3 to 8) (size 9 to 14) (size 15 to 20)
#    0.000    0.800    2.000    3.600    8.400    1.600 
#    7.200    0.000    0.000    0.000    0.000    0.000 
#    0.000    0.000    0.000    0.000    0.000    0.000 
#
# Total GULP energy -224240.809877 kJ/mol
# GULP energy per Si atom -5606.020247 kJ/mol
# Density = 2.342818 g / cm^3
# Si number density = 23.481622 Si / 1000 Ang^3
#
#
#
# Elastic Constant Matrix: (Units=GPa)
#
#
# Indices 1 2 3 4 5 6 
#
# 1 202.3107 38.7609 57.8392 0.0000 0.0000 0.0000
# 2 38.7609 80.8624 31.4422 0.0000 0.0000 0.0000
# 3 57.8392 31.4422 151.1102 0.0000 0.0000 0.0000
# 4 0.0000 0.0000 0.0000 30.8157 0.0000 0.0000
# 5 0.0000 0.0000 0.0000 0.0000 34.4109 0.0000
# 6 0.0000 0.0000 0.0000 0.0000 0.0000 46.7508
#
#
#
# Elastic Compliance Matrix: (Units=1/GPa)
#
#
# Indices 1 2 3 4 5 6 
#
# 1 0.005863 -0.002108 -0.001805 0.000000 0.000000 0.000000
# 2 -0.002108 0.014214 -0.002150 0.000000 0.000000 0.000000
# 3 -0.001805 -0.002150 0.007756 0.000000 0.000000 0.000000
# 4 0.000000 0.000000 0.000000 0.032451 0.000000 0.000000
# 5 0.000000 0.000000 0.000000 0.000000 0.029061 0.000000
# 6 0.000000 0.000000 0.000000 0.000000 0.000000 0.021390
#
#
# Mechanical properties :
#
#
# Convention : Reuss Voigt Hill
#
# Bulk Modulus (GPa) = 63.67745 76.70756 70.19251
# Shear Modulus (GPa) = 39.03278 42.81156 40.92217
#
# Velocity S-wave (km/s) = 4.08152 4.27452 4.17913
# Velocity P-wave (km/s) = 7.02770 7.55645 7.29687
#
# Compressibility (1/GPa) = 0.01570415
#
# Stress axis : x y z
#
# Youngs Moduli (GPa) = 170.56124 70.35564 128.92922
#
# Poissons Ratio (x) = 0.14834 0.23277
# Poissons Ratio (y) = 0.35961 0.27726
# Poissons Ratio (z) = 0.30794 0.15130
#
# Static dielectric constant tensor:
#      x y z
#    x 1.865770 0.000000 0.000000 
#    y 0.000000 1.944190 0.000000 
#    z 0.000000 0.000000 1.862580 
# 
# From -- ./inp_files/4693.got.cif
#   From: 2010.05.17/outbox.cif.g08.bks.cpg/sg56_3_cif.got.tgz:4693.got - 2010.06.03 13:42:01.
