data_PCOD9432933
_publ_section_title
;
Structure prediction by ZEFSAII (Michael W. Deem and Ramdas Pophale) SiO2 
 PCOD9432933
Probable space group: P C C N
;
_chemical_formula_sum "Si O2"
_cell_formula_units_Z 48
_cell_length_a 11.848454
_cell_length_b 21.459829
_cell_length_c 8.644537
_cell_angle_alpha 90.000000
_cell_angle_beta 90.000000
_cell_angle_gamma 90.000000
_cell_volume 2198.010088
_symmetry_space_group_name_H-M "P C C N"
_symmetry_group_IT_number 56
_symmetry_cell_setting 'orthorhombic'
loop_
_space_group_symop_operation_xyz
x,y,z
1/2-x,1/2-y,z
1/2+x,-y,1/2-z
-x,1/2+y,1/2-z
-x,-y,-z
1/2+x,1/2+y,-z
1/2-x,y,1/2+z
x,1/2-y,1/2+z
loop_
_atom_site_type_symbol
_atom_site_label
_atom_site_fract_x
_atom_site_fract_y
_atom_site_fract_z
Si Si1 0.526706 0.832124 0.162950
Si Si2 0.321706 0.596947 0.774117
Si Si3 0.917559 0.794378 0.008988
Si Si4 0.910637 0.392695 0.373273
Si Si5 0.779431 0.610470 0.007552
Si Si6 0.875573 0.957680 0.218111
O O1 0.400860 0.857990 0.172162
O O2 0.557920 0.776931 0.046666
O O3 0.552967 0.806611 0.332000
O O4 0.614349 0.886546 0.122054
O O5 0.192361 0.613851 0.744128
O O6 0.345528 0.526039 0.724202
O O7 0.360067 0.599927 0.953716
O O8 0.793520 0.825633 0.023810
O O9 0.003955 0.834363 0.114109
O O10 0.992912 0.448288 0.319064
O O11 0.692479 0.557506 0.061405
O O12 0.829937 0.593060 0.841437
#
# Coordination Sequence:
#
# PCOD9432933 Si02
#       6
#     8   8   8   8   8   8
#     4  11  25  41  68  97 135 179 230 282 347 410
#     4  11  25  44  68 100 140 187 237 285 352 423
#     4  10  24  44  64  99 135 176 228 291 340 416
#     4  10  25  44  66  98 138 188 235 286 352 415
#     4  11  23  41  68 102 134 182 228 288 362 403
#     4  11  24  42  70 100 146 178 233 294 355 422
#
# _framework density 21.837935000000002
#
# number of rings (size 3 to 8) (size 9 to 14) (size 15 to 20)
#    0.000    1.333    1.667    2.000    9.333    2.667 
#    0.000    3.333    0.000    0.000    0.000    0.000 
#    0.000    0.000    0.000    0.000    0.000    0.000 
#
# Total GULP energy -268224.539672 kJ/mol
# GULP energy per Si atom -5588.011243 kJ/mol
# Density = 2.178823 g / cm^3
# Si number density = 21.837935 Si / 1000 Ang^3
#
#
#
# Elastic Constant Matrix: (Units=GPa)
#
#
# Indices 1 2 3 4 5 6 
#
# 1 136.9782 7.6502 53.1210 0.0000 0.0000 0.0000
# 2 7.6502 43.4379 13.0994 0.0000 0.0000 0.0000
# 3 53.1210 13.0994 69.2383 0.0000 0.0000 0.0000
# 4 0.0000 0.0000 0.0000 14.6162 0.0000 0.0000
# 5 0.0000 0.0000 0.0000 0.0000 33.4459 0.0000
# 6 0.0000 0.0000 0.0000 0.0000 0.0000 14.0167
#
#
#
# Elastic Compliance Matrix: (Units=1/GPa)
#
#
# Indices 1 2 3 4 5 6 
#
# 1 0.010408 0.000610 -0.008100 0.000000 0.000000 0.000000
# 2 0.000610 0.024450 -0.005094 0.000000 0.000000 0.000000
# 3 -0.008100 -0.005094 0.021621 0.000000 0.000000 0.000000
# 4 0.000000 0.000000 0.000000 0.068417 0.000000 0.000000
# 5 0.000000 0.000000 0.000000 0.000000 0.029899 0.000000
# 6 0.000000 0.000000 0.000000 0.000000 0.000000 0.071343
#
#
# Mechanical properties :
#
#
# Convention : Reuss Voigt Hill
#
# Bulk Modulus (GPa) = 31.93799 44.15507 38.04653
# Shear Modulus (GPa) = 19.10262 24.13468 21.61865
#
# Velocity S-wave (km/s) = 2.96082 3.32802 3.14977
# Velocity P-wave (km/s) = 5.13277 5.91869 5.53969
#
# Compressibility (1/GPa) = 0.03131068
#
# Stress axis : x y z
#
# Youngs Moduli (GPa) = 96.08216 40.89972 46.25057
#
# Poissons Ratio (x) = -0.02494 0.37465
# Poissons Ratio (y) = -0.05859 0.23558
# Poissons Ratio (z) = 0.77831 0.20833
#
# Static dielectric constant tensor:
#      x y z
#    x 1.782980 0.000000 0.000000 
#    y 0.000000 1.820490 0.000000 
#    z 0.000000 0.000000 1.803180 
# 
# From -- ./inp_files/2777.got.cif
#   From: 2010.05.17/outbox.cif.g08.bks.cpg/sg56_2_cif.got.tgz:2777.got - 2010.06.03 13:42:01.
