data_PCOD9432310
_publ_section_title
;
Structure prediction by ZEFSAII (Michael W. Deem and Ramdas Pophale) SiO2 
 PCOD9432310
Probable space group: P C C N
;
_chemical_formula_sum "Si O2"
_cell_formula_units_Z 64
_cell_length_a 17.431767
_cell_length_b 8.444595
_cell_length_c 19.290212
_cell_angle_alpha 90.000000
_cell_angle_beta 90.000000
_cell_angle_gamma 90.000000
_cell_volume 2839.600465
_symmetry_space_group_name_H-M "P C C N"
_symmetry_group_IT_number 56
_symmetry_cell_setting 'orthorhombic'
loop_
_space_group_symop_operation_xyz
x,y,z
1/2-x,1/2-y,z
1/2+x,-y,1/2-z
-x,1/2+y,1/2-z
-x,-y,-z
1/2+x,1/2+y,-z
1/2-x,y,1/2+z
x,1/2-y,1/2+z
loop_
_atom_site_type_symbol
_atom_site_label
_atom_site_fract_x
_atom_site_fract_y
_atom_site_fract_z
Si Si1 0.067742 0.758736 0.340934
Si Si2 0.821552 0.364688 0.264555
Si Si3 0.187211 0.385689 0.625193
Si Si4 0.444921 0.793218 0.135257
Si Si5 0.911735 0.862415 0.313247
Si Si6 0.169623 0.156419 0.978687
Si Si7 0.900506 0.606699 0.667006
Si Si8 0.002103 0.806197 0.991575
O O1 0.142102 0.852300 0.312524
O O2 0.070767 0.573260 0.322042
O O3 0.041652 0.756036 0.421124
O O4 0.000658 0.838798 0.297111
O O5 0.750000 0.250000 0.263819
O O6 0.793861 0.517089 0.306485
O O7 0.887621 0.308902 0.318170
O O8 0.250000 0.250000 0.618057
O O9 0.110400 0.289821 0.642386
O O10 0.179965 0.455783 0.547245
O O11 0.532049 0.735926 0.154089
O O12 0.413968 0.970438 0.148390
O O13 0.446198 0.757433 0.054089
O O14 0.865102 0.855571 0.241730
O O15 0.250000 0.250000 0.973475
O O16 0.151852 0.094937 0.901384
O O17 0.087722 0.243260 0.996925
O O18 0.000000 0.000000 0.000000
#
# Coordination Sequence:
#
# PCOD9432310 Si02
#       8
#     8   8   8   8   8   8   8   8
#     4  12  24  42  72 103 144 184 251 290 359 444
#     4  12  26  46  67 101 142 186 243 303 368 448
#     4  11  25  45  71  98 137 191 235 297 372 448
#     4  11  23  40  72 102 139 186 241 287 357 441
#     4  12  23  40  67 106 139 185 233 295 356 437
#     4  10  22  42  71 107 142 182 241 300 371 435
#     4  11  22  42  69 102 139 187 231 300 354 434
#     4  11  21  44  76 106 142 195 244 300 366 442
#
# _framework density 22.538381000000001
#
# number of rings (size 3 to 8) (size 9 to 14) (size 15 to 20)
#    0.000    0.750    6.250    2.250    1.750    1.000 
#    0.000    0.625    2.750    0.000    0.000    0.000 
#    0.000    0.000    0.000    0.000    0.000    0.000 
#
# Total GULP energy -356349.656220 kJ/mol
# GULP energy per Si atom -5567.963378 kJ/mol
# Density = 2.248708 g / cm^3
# Si number density = 22.538381 Si / 1000 Ang^3
#
#
#
# Elastic Constant Matrix: (Units=GPa)
#
#
# Indices 1 2 3 4 5 6 
#
# 1 89.9409 -6.3392 33.6419 0.0000 0.0000 0.0000
# 2 -6.3392 19.4310 30.6593 0.0000 0.0000 0.0000
# 3 33.6419 30.6593 200.5978 0.0000 0.0000 0.0000
# 4 0.0000 0.0000 0.0000 32.7942 0.0000 0.0000
# 5 0.0000 0.0000 0.0000 0.0000 21.7153 0.0000
# 6 0.0000 0.0000 0.0000 0.0000 0.0000 23.5713
#
#
#
# Elastic Compliance Matrix: (Units=1/GPa)
#
#
# Indices 1 2 3 4 5 6 
#
# 1 0.013270 0.010332 -0.003805 0.000000 0.000000 0.000000
# 2 0.010332 0.075865 -0.013328 0.000000 0.000000 0.000000
# 3 -0.003805 -0.013328 0.007660 0.000000 0.000000 0.000000
# 4 0.000000 0.000000 0.000000 0.030493 0.000000 0.000000
# 5 0.000000 0.000000 0.000000 0.000000 0.046051 0.000000
# 6 0.000000 0.000000 0.000000 0.000000 0.000000 0.042424
#
#
# Mechanical properties :
#
#
# Convention : Reuss Voigt Hill
#
# Bulk Modulus (GPa) = 12.02006 47.32149 29.67078
# Shear Modulus (GPa) = 19.44809 32.41668 25.93239
#
# Velocity S-wave (km/s) = 2.94068 3.79659 3.39571
# Velocity P-wave (km/s) = 4.10790 6.34510 5.34487
#
# Compressibility (1/GPa) = 0.08319426
#
# Stress axis : x y z
#
# Youngs Moduli (GPa) = 75.35929 13.18136 130.54480
#
# Poissons Ratio (x) = -0.13619 0.49668
# Poissons Ratio (y) = -0.77864 1.73989
# Poissons Ratio (z) = 0.28672 0.17568
#
# Static dielectric constant tensor:
#      x y z
#    x 1.782820 0.000000 0.000000 
#    y 0.000000 1.872730 0.000000 
#    z 0.000000 0.000000 2.007370 
# 
# From -- ./inp_files/19328.got.cif
#   From: 2010.05.17/outbox.cif.g08.bks.cpg/sg56_10_cif.got.tgz:19328.got - 2010.06.03 13:42:01.
