data_PCOD9432744
_publ_section_title
;
Structure prediction by ZEFSAII (Michael W. Deem and Ramdas Pophale) SiO2 
 PCOD9432744
Probable space group: P C C N
;
_chemical_formula_sum "Si O2"
_cell_formula_units_Z 48
_cell_length_a 7.339306
_cell_length_b 21.574047
_cell_length_c 13.027194
_cell_angle_alpha 90.000000
_cell_angle_beta 90.000000
_cell_angle_gamma 90.000000
_cell_volume 2062.706782
_symmetry_space_group_name_H-M "P C C N"
_symmetry_group_IT_number 56
_symmetry_cell_setting 'orthorhombic'
loop_
_space_group_symop_operation_xyz
x,y,z
1/2-x,1/2-y,z
1/2+x,-y,1/2-z
-x,1/2+y,1/2-z
-x,-y,-z
1/2+x,1/2+y,-z
1/2-x,y,1/2+z
x,1/2-y,1/2+z
loop_
_atom_site_type_symbol
_atom_site_label
_atom_site_fract_x
_atom_site_fract_y
_atom_site_fract_z
Si Si1 0.099332 0.800572 0.710783
Si Si2 0.880112 0.386359 0.378124
Si Si3 0.403309 0.019711 0.896162
Si Si4 0.013089 0.520045 0.331857
Si Si5 0.259550 0.159543 0.901378
Si Si6 0.023525 0.152233 0.083161
O O1 0.250000 0.750000 0.684722
O O2 0.208154 0.863876 0.685071
O O3 0.045100 0.802553 0.829421
O O4 0.912943 0.797282 0.646766
O O5 0.873040 0.362406 0.495474
O O6 0.911171 0.459734 0.376665
O O7 0.069728 0.353669 0.340015
O O8 0.216084 0.983034 0.876227
O O9 0.347889 0.091423 0.906148
O O10 0.513575 0.011079 0.790583
O O11 0.500000 0.000000 0.000000
O O12 0.929175 0.586026 0.364010
O O13 0.192001 0.175716 0.015332
#
# Coordination Sequence:
#
# PCOD9432744 Si02
#       6
#     8   8   8   8   8   8
#     4  12  25  48  79 103 142 203 257 308 371 442
#     4   9  24  44  68 107 151 192 242 313 362 451
#     4  11  25  36  67 103 151 201 236 300 371 447
#     4  11  22  41  69 105 153 194 244 296 377 459
#     4   9  24  44  67 102 148 184 247 310 369 432
#     4  10  23  45  70 108 149 189 248 305 378 440
#
# _framework density 23.270394
#
# number of rings (size 3 to 8) (size 9 to 14) (size 15 to 20)
#    1.000    0.667    1.667    1.500    4.667    1.333 
#    3.000    0.000    3.667    0.000    0.000    1.167 
#    0.000    0.000    0.000    0.000    0.000    0.000 
#
# Total GULP energy -268333.793157 kJ/mol
# GULP energy per Si atom -5590.287357 kJ/mol
# Density = 2.321743 g / cm^3
# Si number density = 23.270394 Si / 1000 Ang^3
#
#
#
# Elastic Constant Matrix: (Units=GPa)
#
#
# Indices 1 2 3 4 5 6 
#
# 1 131.2964 19.9464 51.9292 0.0000 0.0000 0.0000
# 2 19.9464 48.4870 -6.6331 0.0000 0.0000 0.0000
# 3 51.9292 -6.6331 150.2886 0.0000 0.0000 0.0000
# 4 0.0000 0.0000 0.0000 14.8406 0.0000 0.0000
# 5 0.0000 0.0000 0.0000 0.0000 48.4417 0.0000
# 6 0.0000 0.0000 0.0000 0.0000 0.0000 36.0291
#
#
#
# Elastic Compliance Matrix: (Units=1/GPa)
#
#
# Indices 1 2 3 4 5 6 
#
# 1 0.009700 -0.004476 -0.003549 0.000000 0.000000 0.000000
# 2 -0.004476 0.022815 0.002554 0.000000 0.000000 0.000000
# 3 -0.003549 0.002554 0.007993 0.000000 0.000000 0.000000
# 4 0.000000 0.000000 0.000000 0.067383 0.000000 0.000000
# 5 0.000000 0.000000 0.000000 0.000000 0.020643 0.000000
# 6 0.000000 0.000000 0.000000 0.000000 0.000000 0.027755
#
#
# Mechanical properties :
#
#
# Convention : Reuss Voigt Hill
#
# Bulk Modulus (GPa) = 33.82440 51.17300 42.49870
# Shear Modulus (GPa) = 28.23468 37.51757 32.87613
#
# Velocity S-wave (km/s) = 3.48707 4.01963 3.76278
# Velocity P-wave (km/s) = 5.54795 6.60164 6.09760
#
# Compressibility (1/GPa) = 0.02956446
#
# Stress axis : x y z
#
# Youngs Moduli (GPa) = 103.09181 43.83137 125.11059
#
# Poissons Ratio (x) = 0.19619 0.44405
# Poissons Ratio (y) = 0.46143 -0.31947
# Poissons Ratio (z) = 0.36590 -0.11192
#
# Static dielectric constant tensor:
#      x y z
#    x 1.896410 0.000000 0.000000 
#    y 0.000000 1.945850 0.000000 
#    z 0.000000 0.000000 1.850190 
# 
# From -- ./inp_files/6408.got.cif
#   From: 2010.05.17/outbox.cif.g08.bks.cpg/sg56_4_cif.got.tgz:6408.got - 2010.06.03 13:42:01.
