data_PCOD9432379
_publ_section_title
;
Structure prediction by ZEFSAII (Michael W. Deem and Ramdas Pophale) SiO2 
 PCOD9432379
Probable space group: P C C N
;
_chemical_formula_sum "Si O2"
_cell_formula_units_Z 48
_cell_length_a 14.059376
_cell_length_b 15.877072
_cell_length_c 9.130917
_cell_angle_alpha 90.000000
_cell_angle_beta 90.000000
_cell_angle_gamma 90.000000
_cell_volume 2038.219044
_symmetry_space_group_name_H-M "P C C N"
_symmetry_group_IT_number 56
_symmetry_cell_setting 'orthorhombic'
loop_
_space_group_symop_operation_xyz
x,y,z
1/2-x,1/2-y,z
1/2+x,-y,1/2-z
-x,1/2+y,1/2-z
-x,-y,-z
1/2+x,1/2+y,-z
1/2-x,y,1/2+z
x,1/2-y,1/2+z
loop_
_atom_site_type_symbol
_atom_site_label
_atom_site_fract_x
_atom_site_fract_y
_atom_site_fract_z
Si Si1 0.179854 0.171623 0.155332
Si Si2 0.357982 0.739343 0.604133
Si Si3 0.464782 0.840663 0.378745
Si Si4 0.553714 0.983060 0.771012
Si Si5 0.628111 0.071986 0.068878
Si Si6 0.765694 0.568442 0.613350
O O1 0.250000 0.250000 0.141340
O O2 0.189522 0.133035 0.317449
O O3 0.072732 0.191848 0.110724
O O4 0.214608 0.096633 0.050514
O O5 0.250000 0.750000 0.653387
O O6 0.405134 0.818654 0.523121
O O7 0.418838 0.705176 0.738723
O O8 0.356142 0.666605 0.480225
O O9 0.466508 0.939456 0.338766
O O10 0.456745 0.937329 0.815327
O O11 0.635119 0.926060 0.699660
O O12 0.595272 0.022015 0.922064
O O13 0.722153 0.024596 0.124294
#
# Coordination Sequence:
#
# PCOD9432379 Si02
#       6
#     8   8   8   8   8   8
#     4  12  29  44  70 105 146 188 238 293 359 429
#     4  11  25  45  73 102 143 186 237 298 361 424
#     4  11  26  46  70 109 142 185 240 291 360 428
#     4  10  22  43  71 100 138 187 233 291 353 425
#     4  10  22  43  70  99 142 183 234 292 359 414
#     4  12  24  47  72 101 138 190 239 291 357 425
#
# _framework density 23.549969999999998
#
# number of rings (size 3 to 8) (size 9 to 14) (size 15 to 20)
#    0.000    1.000    3.333    2.000    7.000    2.000 
#    3.000    0.000    0.000    0.000    0.000    0.000 
#    0.000    0.000    0.000    0.000    0.000    0.000 
#
# Total GULP energy -268973.815178 kJ/mol
# GULP energy per Si atom -5603.621150 kJ/mol
# Density = 2.349637 g / cm^3
# Si number density = 23.549970 Si / 1000 Ang^3
#
#
#
# Elastic Constant Matrix: (Units=GPa)
#
#
# Indices 1 2 3 4 5 6 
#
# 1 115.9727 12.4063 11.0164 0.0000 0.0000 0.0000
# 2 12.4063 43.7804 7.6207 0.0000 0.0000 0.0000
# 3 11.0164 7.6207 55.1811 0.0000 0.0000 0.0000
# 4 0.0000 0.0000 0.0000 -70.2801 0.0000 0.0000
# 5 0.0000 0.0000 0.0000 0.0000 21.1610 0.0000
# 6 0.0000 0.0000 0.0000 0.0000 0.0000 32.8088
#
#
#
# Elastic Compliance Matrix: (Units=1/GPa)
#
#
# Indices 1 2 3 4 5 6 
#
# 1 0.009009 -0.002295 -0.001482 0.000000 0.000000 0.000000
# 2 -0.002295 0.023989 -0.002855 0.000000 0.000000 0.000000
# 3 -0.001482 -0.002855 0.018812 0.000000 0.000000 0.000000
# 4 0.000000 0.000000 0.000000 -0.014229 0.000000 0.000000
# 5 0.000000 0.000000 0.000000 0.000000 0.047257 0.000000
# 6 0.000000 0.000000 0.000000 0.000000 0.000000 0.030480
#
#
# Mechanical properties :
#
#
# Convention : Reuss Voigt Hill
#
# Bulk Modulus (GPa) = 25.94238 30.78013 28.36125
# Shear Modulus (GPa) = 35.35341 8.99732 22.17537
#
# Velocity S-wave (km/s) = 3.87875 1.95674 3.07193
# Velocity P-wave (km/s) = 5.57668 4.26657 4.96503
#
# Compressibility (1/GPa) = 0.03854696
#
# Stress axis : x y z
#
# Youngs Moduli (GPa) = 111.00043 41.68660 53.15701
#
# Poissons Ratio (x) = 0.09567 0.07876
# Poissons Ratio (y) = 0.25475 0.15175
# Poissons Ratio (z) = 0.16446 0.11900
#
# Static dielectric constant tensor:
#      x y z
#    x 1.859790 0.000000 0.000000 
#    y 0.000000 1.884850 0.000000 
#    z 0.000000 0.000000 1.864020 
# 
# From -- ./inp_files/3406.got.cif
#   From: 2010.05.17/outbox.cif.g08.bks.cpg/sg56_2_cif.got.tgz:3406.got - 2010.06.03 13:42:01.
