data_PCOD9432700
_publ_section_title
;
Structure prediction by ZEFSAII (Michael W. Deem and Ramdas Pophale) SiO2 
 PCOD9432700
Probable space group: P C C N
;
_chemical_formula_sum "Si O2"
_cell_formula_units_Z 48
_cell_length_a 8.914003
_cell_length_b 16.673724
_cell_length_c 14.703627
_cell_angle_alpha 90.000000
_cell_angle_beta 90.000000
_cell_angle_gamma 90.000000
_cell_volume 2185.394578
_symmetry_space_group_name_H-M "P C C N"
_symmetry_group_IT_number 56
_symmetry_cell_setting 'orthorhombic'
loop_
_space_group_symop_operation_xyz
x,y,z
1/2-x,1/2-y,z
1/2+x,-y,1/2-z
-x,1/2+y,1/2-z
-x,-y,-z
1/2+x,1/2+y,-z
1/2-x,y,1/2+z
x,1/2-y,1/2+z
loop_
_atom_site_type_symbol
_atom_site_label
_atom_site_fract_x
_atom_site_fract_y
_atom_site_fract_z
Si Si1 0.711684 0.012490 0.622731
Si Si2 0.017289 0.061960 0.721526
Si Si3 0.422259 0.271437 0.429039
Si Si4 0.378173 0.066947 0.027781
Si Si5 0.885589 0.313536 0.560908
Si Si6 0.069701 0.746291 0.752073
O O1 0.864802 0.022811 0.681710
O O2 0.676326 0.098659 0.579295
O O3 0.585462 0.982907 0.692148
O O4 0.739667 0.953199 0.537968
O O5 0.980941 0.154024 0.746037
O O6 0.133622 0.062347 0.636272
O O7 0.250000 0.250000 0.416502
O O8 0.436193 0.345997 0.497629
O O9 0.510856 0.197893 0.474052
O O10 0.495897 0.290702 0.332667
O O11 0.500000 0.000000 0.000000
O O12 0.750000 0.250000 0.549937
O O13 0.971189 0.287025 0.652547
O O14 0.250000 0.750000 0.744055
#
# Coordination Sequence:
#
# PCOD9432700 Si02
#       6
#     8   8   8   8   8   8
#     4  11  24  41  69 104 135 179 230 283 338 408
#     4  11  23  44  68  99 140 179 226 280 345 402
#     4  12  26  43  69 103 137 177 226 287 349 396
#     4  10  23  44  66  96 137 179 219 280 343 403
#     4  11  22  47  69  98 137 185 234 274 333 414
#     4  11  23  43  70  95 132 181 233 269 334 418
#
# _framework density 21.963996000000002
#
# number of rings (size 3 to 8) (size 9 to 14) (size 15 to 20)
#    0.000    1.000    5.000    2.500    4.667    3.333 
#    0.000    2.500    0.000    0.000    0.000    0.000 
#    0.000    0.000    0.000    0.000    0.000    0.000 
#
# Total GULP energy -268554.304874 kJ/mol
# GULP energy per Si atom -5594.881352 kJ/mol
# Density = 2.191401 g / cm^3
# Si number density = 21.963996 Si / 1000 Ang^3
#
#
#
# Elastic Constant Matrix: (Units=GPa)
#
#
# Indices 1 2 3 4 5 6 
#
# 1 53.8118 16.4340 29.2955 0.0000 0.0000 0.0000
# 2 16.4340 83.7062 12.3234 0.0000 0.0000 0.0000
# 3 29.2955 12.3234 85.5908 0.0000 0.0000 0.0000
# 4 0.0000 0.0000 0.0000 21.6413 0.0000 0.0000
# 5 0.0000 0.0000 0.0000 0.0000 9.3532 0.0000
# 6 0.0000 0.0000 0.0000 0.0000 0.0000 23.4498
#
#
#
# Elastic Compliance Matrix: (Units=1/GPa)
#
#
# Indices 1 2 3 4 5 6 
#
# 1 0.023830 -0.003553 -0.007645 0.000000 0.000000 0.000000
# 2 -0.003553 0.012735 -0.000617 0.000000 0.000000 0.000000
# 3 -0.007645 -0.000617 0.014389 0.000000 0.000000 0.000000
# 4 0.000000 0.000000 0.000000 0.046208 0.000000 0.000000
# 5 0.000000 0.000000 0.000000 0.000000 0.106915 0.000000
# 6 0.000000 0.000000 0.000000 0.000000 0.000000 0.042644
#
#
# Mechanical properties :
#
#
# Convention : Reuss Voigt Hill
#
# Bulk Modulus (GPa) = 36.59858 37.69051 37.14454
# Shear Modulus (GPa) = 17.89164 21.89261 19.89213
#
# Velocity S-wave (km/s) = 2.85720 3.16056 3.01270
# Velocity P-wave (km/s) = 5.25204 5.52415 5.38981
#
# Compressibility (1/GPa) = 0.02732347
#
# Stress axis : x y z
#
# Youngs Moduli (GPa) = 41.96330 78.52364 69.49731
#
# Poissons Ratio (x) = 0.27900 0.53130
# Poissons Ratio (y) = 0.14910 0.04291
# Poissons Ratio (z) = 0.32081 0.04849
#
# Static dielectric constant tensor:
#      x y z
#    x 1.818270 0.000000 0.000000 
#    y 0.000000 1.788580 0.000000 
#    z 0.000000 0.000000 1.790790 
# 
# From -- ./inp_files/10624.got.cif
#   From: 2010.05.17/outbox.cif.g08.bks.cpg/sg56_6_cif.got.tgz:10624.got - 2010.06.03 13:42:01.
