data_PCOD9432444
_publ_section_title
;
Structure prediction by ZEFSAII (Michael W. Deem and Ramdas Pophale) SiO2 
 PCOD9432444
Probable space group: P C C N
;
_chemical_formula_sum "Si O2"
_cell_formula_units_Z 44
_cell_length_a 17.269590
_cell_length_b 5.086722
_cell_length_c 23.679146
_cell_angle_alpha 90.000000
_cell_angle_beta 90.000000
_cell_angle_gamma 90.000000
_cell_volume 2080.108868
_symmetry_space_group_name_H-M "P C C N"
_symmetry_group_IT_number 56
_symmetry_cell_setting 'orthorhombic'
loop_
_space_group_symop_operation_xyz
x,y,z
1/2-x,1/2-y,z
1/2+x,-y,1/2-z
-x,1/2+y,1/2-z
-x,-y,-z
1/2+x,1/2+y,-z
1/2-x,y,1/2+z
x,1/2-y,1/2+z
loop_
_atom_site_type_symbol
_atom_site_label
_atom_site_fract_x
_atom_site_fract_y
_atom_site_fract_z
Si Si1 0.830538 0.158818 0.481345
Si Si2 0.250000 0.250000 0.836904
Si Si3 0.482873 0.860192 0.560136
Si Si4 0.497603 0.116586 0.675217
Si Si5 0.405846 0.112989 0.784753
Si Si6 0.848046 0.662929 0.558646
O O1 0.750000 0.250000 0.452549
O O2 0.908780 0.170801 0.444499
O O3 0.846480 0.388531 0.526548
O O4 0.819570 0.890528 0.515908
O O5 0.314946 0.103426 0.800107
O O6 0.302887 0.396444 0.883556
O O7 0.565947 0.732401 0.572638
O O8 0.500000 0.000000 0.500000
O O9 0.472208 0.064978 0.611082
O O10 0.425235 0.100810 0.718130
O O11 0.545233 0.382252 0.685548
O O12 0.555516 0.885022 0.695005
#
# Coordination Sequence:
#
# PCOD9432444 Si02
#       6
#     8   4   8   8   8   8
#     4  11  22  39  56  91 129 170 206 265 320 384
#     4  12  22  38  70  96 124 162 224 278 320 370
#     4  10  23  38  67  91 129 173 214 255 336 394
#     4  10  22  45  60  93 129 168 212 265 324 401
#     4  10  24  39  69  89 126 166 211 275 330 370
#     4  11  23  36  59  93 128 154 214 274 316 373
#
# _framework density 21.152740000000001
#
# number of rings (size 3 to 8) (size 9 to 14) (size 15 to 20)
#    0.000    1.455    3.636    0.545    5.091    5.091 
#    0.000    0.000   20.000    0.000    0.000    0.000 
#    0.000    0.000    0.000    0.000    0.000    0.000 
#
# Total GULP energy -245253.071194 kJ/mol
# GULP energy per Si atom -5573.933436 kJ/mol
# Density = 2.110460 g / cm^3
# Si number density = 21.152740 Si / 1000 Ang^3
#
#
#
# Elastic Constant Matrix: (Units=GPa)
#
#
# Indices 1 2 3 4 5 6 
#
# 1 165.2735 18.1376 36.3636 0.0000 0.0000 0.0000
# 2 18.1376 100.9261 14.8565 0.0000 0.0000 0.0000
# 3 36.3636 14.8565 114.4974 0.0000 0.0000 0.0000
# 4 0.0000 0.0000 0.0000 -7.9038 0.0000 0.0000
# 5 0.0000 0.0000 0.0000 0.0000 41.5248 0.0000
# 6 0.0000 0.0000 0.0000 0.0000 0.0000 21.7518
#
#
#
# Elastic Compliance Matrix: (Units=1/GPa)
#
#
# Indices 1 2 3 4 5 6 
#
# 1 0.006583 -0.000892 -0.001975 0.000000 0.000000 0.000000
# 2 -0.000892 0.010222 -0.001043 0.000000 0.000000 0.000000
# 3 -0.001975 -0.001043 0.009496 0.000000 0.000000 0.000000
# 4 0.000000 0.000000 0.000000 -0.126522 0.000000 0.000000
# 5 0.000000 0.000000 0.000000 0.000000 0.024082 0.000000
# 6 0.000000 0.000000 0.000000 0.000000 0.000000 0.045973
#
#
# Mechanical properties :
#
#
# Convention : Reuss Voigt Hill
#
# Bulk Modulus (GPa) = 54.10943 57.71249 55.91096
# Shear Modulus (GPa) = -308.94069 31.83051 -138.55509
#
# Velocity S-wave (km/s) = -12.09832 3.88338 -8.10212
# Velocity P-wave (km/s) = 13.02011 6.88843 7.81258
#
# Compressibility (1/GPa) = 0.01848107
#
# Stress axis : x y z
#
# Youngs Moduli (GPa) = 151.90571 97.82699 105.30326
#
# Poissons Ratio (x) = 0.08729 0.20797
# Poissons Ratio (y) = 0.13555 0.10983
# Poissons Ratio (z) = 0.30001 0.10203
#
# Static dielectric constant tensor:
#      x y z
#    x 1.950090 0.000000 0.000000 
#    y 0.000000 1.757530 0.000000 
#    z 0.000000 0.000000 1.831000 
# 
# From -- ./inp_files/21215.got.cif
#   From: 2010.05.17/outbox.cif.g08.bks.cpg/sg56_11_cif.got.tgz:21215.got - 2010.06.03 13:42:01.
