data_PCOD9432657
_publ_section_title
;
Structure prediction by ZEFSAII (Michael W. Deem and Ramdas Pophale) SiO2 
 PCOD9432657
Probable space group: P C C N
;
_chemical_formula_sum "Si O2"
_cell_formula_units_Z 40
_cell_length_a 22.967094
_cell_length_b 4.849663
_cell_length_c 13.758142
_cell_angle_alpha 90.000000
_cell_angle_beta 90.000000
_cell_angle_gamma 90.000000
_cell_volume 1532.418535
_symmetry_space_group_name_H-M "P C C N"
_symmetry_group_IT_number 56
_symmetry_cell_setting 'orthorhombic'
loop_
_space_group_symop_operation_xyz
x,y,z
1/2-x,1/2-y,z
1/2+x,-y,1/2-z
-x,1/2+y,1/2-z
-x,-y,-z
1/2+x,1/2+y,-z
1/2-x,y,1/2+z
x,1/2-y,1/2+z
loop_
_atom_site_type_symbol
_atom_site_label
_atom_site_fract_x
_atom_site_fract_y
_atom_site_fract_z
Si Si1 0.628556 0.360634 0.487965
Si Si2 0.814628 0.647472 0.801781
Si Si3 0.525980 0.021550 0.868327
Si Si4 0.815298 0.846303 0.084664
Si Si5 0.073905 0.482811 0.733951
O O1 0.661739 0.472062 0.391715
O O2 0.559254 0.379306 0.465072
O O3 0.647935 0.568222 0.572116
O O4 0.653593 0.064459 0.514880
O O5 0.750000 0.750000 0.823585
O O6 0.812763 0.524217 0.692639
O O7 0.860476 0.894479 0.783955
O O8 0.460959 0.085091 0.832875
O O9 0.562509 0.198246 0.787547
O O10 0.540188 0.702224 0.848022
O O11 0.750000 0.750000 0.059601
#
# Coordination Sequence:
#
# PCOD9432657 Si02
#       5
#     8   8   8   8   8
#     4  11  22  41  65  91 123 166 206 250 308 366
#     4  10  23  43  67  93 124 166 206 249 308 369
#     4   9  18  34  59  88 118 158 204 251 303 357
#     4  11  25  41  61  93 129 158 205 260 303 361
#     4   9  18  35  59  87 120 158 203 252 301 357
#
# _framework density 26.102530000000002
#
# number of rings (size 3 to 8) (size 9 to 14) (size 15 to 20)
#    0.000    2.000    0.000    3.600    0.000    6.400 
#    0.000   13.000    0.000    1.200    0.000    0.000 
#    0.000    0.000    0.000    0.000    0.000    0.000 
#
# Total GULP energy -223627.838794 kJ/mol
# GULP energy per Si atom -5590.695970 kJ/mol
# Density = 2.604312 g / cm^3
# Si number density = 26.102530 Si / 1000 Ang^3
#
#
#
# Elastic Constant Matrix: (Units=GPa)
#
#
# Indices 1 2 3 4 5 6 
#
# 1 133.7337 -4.4355 -11.2645 0.0000 0.0000 0.0000
# 2 -4.4355 79.4133 -4.4297 0.0000 0.0000 0.0000
# 3 -11.2645 -4.4297 81.7192 0.0000 0.0000 0.0000
# 4 0.0000 0.0000 0.0000 8.3956 0.0000 0.0000
# 5 0.0000 0.0000 0.0000 0.0000 45.4059 0.0000
# 6 0.0000 0.0000 0.0000 0.0000 0.0000 24.0162
#
#
#
# Elastic Compliance Matrix: (Units=1/GPa)
#
#
# Indices 1 2 3 4 5 6 
#
# 1 0.007584 0.000483 0.001072 0.000000 0.000000 0.000000
# 2 0.000483 0.012661 0.000753 0.000000 0.000000 0.000000
# 3 0.001072 0.000753 0.012426 0.000000 0.000000 0.000000
# 4 0.000000 0.000000 0.000000 0.119110 0.000000 0.000000
# 5 0.000000 0.000000 0.000000 0.000000 0.022024 0.000000
# 6 0.000000 0.000000 0.000000 0.000000 0.000000 0.041639
#
#
# Mechanical properties :
#
#
# Convention : Reuss Voigt Hill
#
# Bulk Modulus (GPa) = 26.81931 28.28962 27.55447
# Shear Modulus (GPa) = 22.39585 36.56329 29.47957
#
# Velocity S-wave (km/s) = 2.93233 3.74673 3.36426
# Velocity P-wave (km/s) = 4.66494 5.43863 5.06658
#
# Compressibility (1/GPa) = 0.03728656
#
# Stress axis : x y z
#
# Youngs Moduli (GPa) = 131.85935 78.98056 80.47930
#
# Poissons Ratio (x) = -0.03818 -0.08624
# Poissons Ratio (y) = -0.06374 -0.06060
# Poissons Ratio (z) = -0.14130 -0.05947
#
# Static dielectric constant tensor:
#      x y z
#    x 2.078320 0.000000 0.000000 
#    y 0.000000 1.964440 0.000000 
#    z 0.000000 0.000000 2.153910 
# 
# From -- ./inp_files/13177.got.cif
#   From: 2010.05.17/outbox.cif.g08.bks.cpg/sg56_7_cif.got.tgz:13177.got - 2010.06.03 13:42:01.
