data_PCOD9432047
_publ_section_title
;
Structure prediction by ZEFSAII (Michael W. Deem and Ramdas Pophale) SiO2 
 PCOD9432047
Probable space group: P C C N
;
_chemical_formula_sum "Si O2"
_cell_formula_units_Z 56
_cell_length_a 13.280154
_cell_length_b 15.582192
_cell_length_c 9.568053
_cell_angle_alpha 90.000000
_cell_angle_beta 90.000000
_cell_angle_gamma 90.000000
_cell_volume 1979.954613
_symmetry_space_group_name_H-M "P C C N"
_symmetry_group_IT_number 56
_symmetry_cell_setting 'orthorhombic'
loop_
_space_group_symop_operation_xyz
x,y,z
1/2-x,1/2-y,z
1/2+x,-y,1/2-z
-x,1/2+y,1/2-z
-x,-y,-z
1/2+x,1/2+y,-z
1/2-x,y,1/2+z
x,1/2-y,1/2+z
loop_
_atom_site_type_symbol
_atom_site_label
_atom_site_fract_x
_atom_site_fract_y
_atom_site_fract_z
Si Si1 0.752246 0.368965 0.909021
Si Si2 0.184120 0.174505 0.953211
Si Si3 0.227928 0.443529 0.658412
Si Si4 0.611500 0.153536 0.643362
Si Si5 0.038156 0.593023 0.948556
Si Si6 0.565825 0.549691 0.174412
Si Si7 0.073091 0.185791 0.301690
O O1 0.701754 0.458936 0.866140
O O2 0.806254 0.337036 0.768510
O O3 0.666962 0.321776 0.999889
O O4 0.845111 0.392402 0.013223
O O5 0.250000 0.250000 0.031886
O O6 0.080425 0.114370 0.955432
O O7 0.354216 0.264565 0.830097
O O8 0.253026 0.096896 0.007864
O O9 0.327778 0.436951 0.747463
O O10 0.143196 0.387226 0.733645
O O11 0.516177 0.207353 0.694737
O O12 0.573197 0.052786 0.646273
O O13 0.014144 0.585897 0.784605
O O14 0.000000 0.500000 0.000000
O O15 0.977289 0.657035 0.052107
#
# Coordination Sequence:
#
# PCOD9432047 Si02
#       7
#     8   8   8   8   8   8   8
#     4  10  22  39  67  90 127 165 220 267 327 371
#     4  12  25  37  59  92 137 172 199 257 335 405
#     4  11  23  37  60  93 133 167 206 265 327 408
#     4  10  22  42  63  96 125 169 217 277 312 389
#     4  11  21  38  63  88 125 173 210 266 316 394
#     4  11  22  36  60  92 127 169 211 249 328 391
#     4  11  25  39  60  93 135 166 213 263 325 390
#
# _framework density 28.283476
#
# number of rings (size 3 to 8) (size 9 to 14) (size 15 to 20)
#    0.000    1.143    7.143    0.857    8.000    0.571 
#    2.571    0.000    0.000    0.857    0.000    0.000 
#    0.000    0.000    0.000    0.000    0.000    0.000 
#
# Total GULP energy -312628.395811 kJ/mol
# GULP energy per Si atom -5582.649925 kJ/mol
# Density = 2.821910 g / cm^3
# Si number density = 28.283476 Si / 1000 Ang^3
#
#
#
# Elastic Constant Matrix: (Units=GPa)
#
#
# Indices 1 2 3 4 5 6 
#
# 1 138.6711 47.3421 65.7146 0.0000 0.0000 0.0000
# 2 47.3421 106.1206 37.9426 0.0000 0.0000 0.0000
# 3 65.7146 37.9426 151.2907 0.0000 0.0000 0.0000
# 4 0.0000 0.0000 0.0000 5.6789 0.0000 0.0000
# 5 0.0000 0.0000 0.0000 0.0000 62.4001 0.0000
# 6 0.0000 0.0000 0.0000 0.0000 0.0000 28.9894
#
#
#
# Elastic Compliance Matrix: (Units=1/GPa)
#
#
# Indices 1 2 3 4 5 6 
#
# 1 0.009973 -0.003186 -0.003533 0.000000 0.000000 0.000000
# 2 -0.003186 0.011369 -0.001467 0.000000 0.000000 0.000000
# 3 -0.003533 -0.001467 0.008512 0.000000 0.000000 0.000000
# 4 0.000000 0.000000 0.000000 0.176091 0.000000 0.000000
# 5 0.000000 0.000000 0.000000 0.000000 0.016026 0.000000
# 6 0.000000 0.000000 0.000000 0.000000 0.000000 0.034495
#
#
# Mechanical properties :
#
#
# Convention : Reuss Voigt Hill
#
# Bulk Modulus (GPa) = 74.17274 77.56453 75.86863
# Shear Modulus (GPa) = 18.02885 35.75255 26.89070
#
# Velocity S-wave (km/s) = 2.52748 3.55925 3.08678
# Velocity P-wave (km/s) = 5.89909 6.66142 6.29181
#
# Compressibility (1/GPa) = 0.01348204
#
# Stress axis : x y z
#
# Youngs Moduli (GPa) = 100.26838 87.95649 117.47598
#
# Poissons Ratio (x) = 0.28023 0.41503
# Poissons Ratio (y) = 0.31946 0.17239
# Poissons Ratio (z) = 0.35424 0.12907
#
# Static dielectric constant tensor:
#      x y z
#    x 2.255670 0.000000 0.000000 
#    y 0.000000 2.471890 0.000000 
#    z 0.000000 0.000000 2.918960 
# 
# From -- ./inp_files/7278.got.cif
#   From: 2010.05.17/outbox.cif.g08.bks.cpg/sg56_4_cif.got.tgz:7278.got - 2010.06.03 13:42:01.
