data_PCOD9432072
_publ_section_title
;
Structure prediction by ZEFSAII (Michael W. Deem and Ramdas Pophale) SiO2 
 PCOD9432072
Probable space group: P C C N
;
_chemical_formula_sum "Si O2"
_cell_formula_units_Z 48
_cell_length_a 9.526097
_cell_length_b 8.541838
_cell_length_c 29.563088
_cell_angle_alpha 90.000000
_cell_angle_beta 90.000000
_cell_angle_gamma 90.000000
_cell_volume 2405.559626
_symmetry_space_group_name_H-M "P C C N"
_symmetry_group_IT_number 56
_symmetry_cell_setting 'orthorhombic'
loop_
_space_group_symop_operation_xyz
x,y,z
1/2-x,1/2-y,z
1/2+x,-y,1/2-z
-x,1/2+y,1/2-z
-x,-y,-z
1/2+x,1/2+y,-z
1/2-x,y,1/2+z
x,1/2-y,1/2+z
loop_
_atom_site_type_symbol
_atom_site_label
_atom_site_fract_x
_atom_site_fract_y
_atom_site_fract_z
Si Si1 0.856847 0.022812 0.159873
Si Si2 0.636068 0.525696 0.530037
Si Si3 0.522844 0.299592 0.598172
Si Si4 0.418193 0.218538 0.270117
Si Si5 0.750000 0.750000 0.962236
Si Si6 0.250000 0.250000 0.904355
Si Si7 0.458096 0.951834 0.812840
O O1 0.923363 0.156804 0.129016
O O2 0.709584 0.073476 0.182394
O O3 0.944983 0.934361 0.198537
O O4 0.814582 0.883009 0.126283
O O5 0.500000 0.500000 0.500000
O O6 0.636549 0.376536 0.563628
O O7 0.749542 0.593235 0.494124
O O8 0.632123 0.671183 0.564476
O O9 0.388158 0.254743 0.568596
O O10 0.485165 0.428885 0.636380
O O11 0.250000 0.250000 0.267993
O O12 0.477562 0.174934 0.221212
O O13 0.480639 0.374485 0.292963
#
# Coordination Sequence:
#
# PCOD9432072 Si02
#       7
#     8   8   8   8   4   4   8
#     4  11  21  39  64  93 120 166 209 250 308 379
#     4   9  19  38  61  87 121 160 204 259 313 367
#     4  11  21  37  66  90 120 164 210 252 315 384
#     4  10  22  40  60  92 128 165 206 262 310 361
#     4   9  22  40  61  92 128 162 199 268 318 365
#     4  11  18  38  61  82 124 158 205 252 310 367
#     4  11  21  37  62  89 125 161 210 254 306 373
#
# _framework density 19.953776999999999
#
# number of rings (size 3 to 8) (size 9 to 14) (size 15 to 20)
#    0.000    1.667    4.167    1.500    1.167    1.333 
#    0.000    9.167    0.000    7.000    0.000    0.000 
#    0.000    0.000    0.000    0.000    0.000    0.000 
#
# Total GULP energy -267418.360160 kJ/mol
# GULP energy per Si atom -5571.215837 kJ/mol
# Density = 1.990836 g / cm^3
# Si number density = 19.953777 Si / 1000 Ang^3
#
#
#
# Elastic Constant Matrix: (Units=GPa)
#
#
# Indices 1 2 3 4 5 6 
#
# 1 44.0020 43.4162 42.7485 0.0000 0.0000 0.0000
# 2 43.4162 118.1800 67.2994 0.0000 0.0000 0.0000
# 3 42.7485 67.2994 149.0378 0.0000 0.0000 0.0000
# 4 0.0000 0.0000 0.0000 6.5579 0.0000 0.0000
# 5 0.0000 0.0000 0.0000 0.0000 29.4810 0.0000
# 6 0.0000 0.0000 0.0000 0.0000 0.0000 28.4971
#
#
#
# Elastic Compliance Matrix: (Units=1/GPa)
#
#
# Indices 1 2 3 4 5 6 
#
# 1 0.039813 -0.010935 -0.006482 0.000000 0.000000 0.000000
# 2 -0.010935 0.014394 -0.003363 0.000000 0.000000 0.000000
# 3 -0.006482 -0.003363 0.010088 0.000000 0.000000 0.000000
# 4 0.000000 0.000000 0.000000 0.152487 0.000000 0.000000
# 5 0.000000 0.000000 0.000000 0.000000 0.033920 0.000000
# 6 0.000000 0.000000 0.000000 0.000000 0.000000 0.035091
#
#
# Mechanical properties :
#
#
# Convention : Reuss Voigt Hill
#
# Bulk Modulus (GPa) = 43.98618 68.68313 56.33466
# Shear Modulus (GPa) = 14.92845 23.42427 19.17636
#
# Velocity S-wave (km/s) = 2.73820 3.42998 3.10343
# Velocity P-wave (km/s) = 5.66471 7.08394 6.41370
#
# Compressibility (1/GPa) = 0.02273441
#
# Stress axis : x y z
#
# Youngs Moduli (GPa) = 25.11758 69.47223 99.13176
#
# Poissons Ratio (x) = 0.75969 0.64254
# Poissons Ratio (y) = 0.27466 0.33341
# Poissons Ratio (z) = 0.16280 0.23366
#
# Static dielectric constant tensor:
#      x y z
#    x 1.682960 0.000000 0.000000 
#    y 0.000000 1.758220 0.000000 
#    z 0.000000 0.000000 1.745040 
# 
# From -- ./inp_files/23283.got.cif
#   From: 2010.05.17/outbox.cif.g08.bks.cpg/sg56_12_cif.got.tgz:23283.got - 2010.06.03 13:42:01.
