data_PCOD9432366
_publ_section_title
;
Structure prediction by ZEFSAII (Michael W. Deem and Ramdas Pophale) SiO2 
 PCOD9432366
Probable space group: P C C N
;
_chemical_formula_sum "Si O2"
_cell_formula_units_Z 48
_cell_length_a 13.991999
_cell_length_b 5.978370
_cell_length_c 27.800683
_cell_angle_alpha 90.000000
_cell_angle_beta 90.000000
_cell_angle_gamma 90.000000
_cell_volume 2325.508981
_symmetry_space_group_name_H-M "P C C N"
_symmetry_group_IT_number 56
_symmetry_cell_setting 'orthorhombic'
loop_
_space_group_symop_operation_xyz
x,y,z
1/2-x,1/2-y,z
1/2+x,-y,1/2-z
-x,1/2+y,1/2-z
-x,-y,-z
1/2+x,1/2+y,-z
1/2-x,y,1/2+z
x,1/2-y,1/2+z
loop_
_atom_site_type_symbol
_atom_site_label
_atom_site_fract_x
_atom_site_fract_y
_atom_site_fract_z
Si Si1 0.625556 0.144981 0.792318
Si Si2 0.250000 0.250000 0.671114
Si Si3 0.250000 0.750000 0.944862
Si Si4 0.654137 0.622832 0.617284
Si Si5 0.441308 0.037633 0.640102
Si Si6 0.441974 0.636920 0.297357
Si Si7 0.063781 0.489175 0.452557
O O1 0.592895 0.295554 0.838690
O O2 0.628804 0.305251 0.745891
O O3 0.713750 0.976805 0.801910
O O4 0.537935 0.980860 0.779096
O O5 0.344281 0.180995 0.642123
O O6 0.189585 0.590770 0.911029
O O7 0.335393 0.605984 0.968063
O O8 0.750000 0.750000 0.632783
O O9 0.599605 0.534799 0.663649
O O10 0.597944 0.768316 0.577292
O O11 0.520849 0.140164 0.675936
O O12 0.491506 0.076165 0.588886
O O13 0.000000 0.500000 0.500000
#
# Coordination Sequence:
#
# PCOD9432366 Si02
#       7
#     8   4   4   8   8   8   8
#     4  11  22  42  66  95 137 184 236 283 344 427
#     4  10  26  44  62  98 140 186 236 284 340 434
#     4  10  22  46  64 106 138 170 232 298 352 432
#     4  10  22  43  68  99 137 174 231 291 348 420
#     4  11  22  45  65  95 138 180 232 292 348 414
#     4  11  21  40  68  94 130 185 227 282 351 409
#     4  11  24  45  73 102 135 185 233 297 367 429
#
# _framework density 20.640643000000001
#
# number of rings (size 3 to 8) (size 9 to 14) (size 15 to 20)
#    0.000    1.333    5.000    0.500    0.000    0.667 
#   12.000    0.000    0.000    0.000    0.000    0.000 
#    0.000    0.000    0.000    0.000    0.000    0.000 
#
# Total GULP energy -267208.169218 kJ/mol
# GULP energy per Si atom -5566.836859 kJ/mol
# Density = 2.059366 g / cm^3
# Si number density = 20.640643 Si / 1000 Ang^3
#
#
#
# Elastic Constant Matrix: (Units=GPa)
#
#
# Indices 1 2 3 4 5 6 
#
# 1 108.3919 29.5061 64.3342 0.0000 0.0000 0.0000
# 2 29.5061 63.5288 28.0528 0.0000 0.0000 0.0000
# 3 64.3342 28.0528 125.6203 0.0000 0.0000 0.0000
# 4 0.0000 0.0000 0.0000 -25.9674 0.0000 0.0000
# 5 0.0000 0.0000 0.0000 0.0000 34.5426 0.0000
# 6 0.0000 0.0000 0.0000 0.0000 0.0000 25.2951
#
#
#
# Elastic Compliance Matrix: (Units=1/GPa)
#
#
# Indices 1 2 3 4 5 6 
#
# 1 0.013997 -0.003701 -0.006342 0.000000 0.000000 0.000000
# 2 -0.003701 0.018441 -0.002223 0.000000 0.000000 0.000000
# 3 -0.006342 -0.002223 0.011705 0.000000 0.000000 0.000000
# 4 0.000000 0.000000 0.000000 -0.038510 0.000000 0.000000
# 5 0.000000 0.000000 0.000000 0.000000 0.028950 0.000000
# 6 0.000000 0.000000 0.000000 0.000000 0.000000 0.039533
#
#
# Mechanical properties :
#
#
# Convention : Reuss Voigt Hill
#
# Bulk Modulus (GPa) = 50.98877 60.14746 55.56811
# Shear Modulus (GPa) = 47.53499 18.48393 33.00946
#
# Velocity S-wave (km/s) = 4.80414 2.99576 4.00340
# Velocity P-wave (km/s) = 7.45183 6.41636 6.95340
#
# Compressibility (1/GPa) = 0.01961216
#
# Stress axis : x y z
#
# Youngs Moduli (GPa) = 71.44175 54.22621 85.43398
#
# Poissons Ratio (x) = 0.20067 0.54183
# Poissons Ratio (y) = 0.26438 0.18992
# Poissons Ratio (z) = 0.45309 0.12054
#
# Static dielectric constant tensor:
#      x y z
#    x 1.446940 0.000000 0.000000 
#    y 0.000000 1.819530 0.000000 
#    z 0.000000 0.000000 1.722270 
# 
# From -- ./inp_files/21700.got.cif
#   From: 2010.05.17/outbox.cif.g08.bks.cpg/sg56_11_cif.got.tgz:21700.got - 2010.06.03 13:42:01.
