data_PCOD9432264
_publ_section_title
;
Structure prediction by ZEFSAII (Michael W. Deem and Ramdas Pophale) SiO2 
 PCOD9432264
Probable space group: P C C N
;
_chemical_formula_sum "Si O2"
_cell_formula_units_Z 60
_cell_length_a 22.013512
_cell_length_b 9.798434
_cell_length_c 12.952362
_cell_angle_alpha 90.000000
_cell_angle_beta 90.000000
_cell_angle_gamma 90.000000
_cell_volume 2793.797859
_symmetry_space_group_name_H-M "P C C N"
_symmetry_group_IT_number 56
_symmetry_cell_setting 'orthorhombic'
loop_
_space_group_symop_operation_xyz
x,y,z
1/2-x,1/2-y,z
1/2+x,-y,1/2-z
-x,1/2+y,1/2-z
-x,-y,-z
1/2+x,1/2+y,-z
1/2-x,y,1/2+z
x,1/2-y,1/2+z
loop_
_atom_site_type_symbol
_atom_site_label
_atom_site_fract_x
_atom_site_fract_y
_atom_site_fract_z
Si Si1 0.750000 0.750000 0.935392
Si Si2 0.641035 0.031157 0.229590
Si Si3 0.122374 0.265392 0.668451
Si Si4 0.808938 0.314919 0.424175
Si Si5 0.908369 0.253658 0.078378
Si Si6 0.471578 0.151523 0.492007
Si Si7 0.113390 0.450394 0.323398
Si Si8 0.255363 0.479398 0.910083
O O1 0.691980 0.714988 0.867300
O O2 0.770998 0.631213 0.011821
O O3 0.653272 0.097365 0.341971
O O4 0.598370 0.128018 0.161925
O O5 0.614971 0.880095 0.243386
O O6 0.705963 0.023342 0.172444
O O7 0.078292 0.311472 0.577418
O O8 0.111042 0.111620 0.708375
O O9 0.750000 0.250000 0.369005
O O10 0.856631 0.227675 0.490595
O O11 0.777609 0.402331 0.514256
O O12 0.971381 0.247019 0.016778
O O13 0.898903 0.108547 0.141924
O O14 0.434864 0.140847 0.385991
O O15 0.500000 0.000000 0.500000
O O16 0.182918 0.423881 0.358288
#
# Coordination Sequence:
#
# PCOD9432264 Si02
#       8
#     4   8   8   8   8   8   8   8
#     4  12  22  42  64  98 138 174 218 282 348 400
#     4  12  24  40  66 102 133 169 227 279 334 408
#     4  12  24  40  67 101 130 178 224 279 341 400
#     4  11  23  40  62  93 132 175 213 267 343 400
#     4  10  24  43  67  95 133 178 225 273 337 400
#     4  10  22  46  70  89 134 185 226 274 338 403
#     4  10  22  42  66  92 128 179 220 270 333 408
#     4  11  22  40  63  95 134 172 216 277 341 398
#
# _framework density 21.476141999999999
#
# number of rings (size 3 to 8) (size 9 to 14) (size 15 to 20)
#    0.000    1.067    4.000    3.200    3.733    3.200 
#    0.000    0.667    0.000    0.000    0.000    0.000 
#    0.000    0.000    0.000    0.000    0.000    0.000 
#
# Total GULP energy -334837.497807 kJ/mol
# GULP energy per Si atom -5580.624963 kJ/mol
# Density = 2.142726 g / cm^3
# Si number density = 21.476142 Si / 1000 Ang^3
#
#
#
# Elastic Constant Matrix: (Units=GPa)
#
#
# Indices 1 2 3 4 5 6 
#
# 1 74.7086 10.8316 0.9305 0.0000 0.0000 0.0000
# 2 10.8316 42.7841 4.1137 0.0000 0.0000 0.0000
# 3 0.9305 4.1137 38.9158 0.0000 0.0000 0.0000
# 4 0.0000 0.0000 0.0000 -182.8052 0.0000 0.0000
# 5 0.0000 0.0000 0.0000 0.0000 3.3288 0.0000
# 6 0.0000 0.0000 0.0000 0.0000 0.0000 5.8800
#
#
#
# Elastic Compliance Matrix: (Units=1/GPa)
#
#
# Indices 1 2 3 4 5 6 
#
# 1 0.013895 -0.003522 0.000040 0.000000 0.000000 0.000000
# 2 -0.003522 0.024506 -0.002506 0.000000 0.000000 0.000000
# 3 0.000040 -0.002506 0.025960 0.000000 0.000000 0.000000
# 4 0.000000 0.000000 0.000000 -0.005470 0.000000 0.000000
# 5 0.000000 0.000000 0.000000 0.000000 0.300410 0.000000
# 6 0.000000 0.000000 0.000000 0.000000 0.000000 0.170068
#
#
# Mechanical properties :
#
#
# Convention : Reuss Voigt Hill
#
# Bulk Modulus (GPa) = 19.08915 20.90667 19.99791
# Shear Modulus (GPa) = 8.94763 -25.35043 -8.20140
#
# Velocity S-wave (km/s) = 2.04337 -3.43942 -1.95631
# Velocity P-wave (km/s) = 3.80460 2.45293 2.05647
#
# Compressibility (1/GPa) = 0.05238579
#
# Stress axis : x y z
#
# Youngs Moduli (GPa) = 71.96609 40.80675 38.52006
#
# Poissons Ratio (x) = 0.14371 -0.00154
# Poissons Ratio (y) = 0.25345 0.09654
# Poissons Ratio (z) = -0.00288 0.10227
#
# Static dielectric constant tensor:
#      x y z
#    x 1.823200 0.000000 0.000000 
#    y 0.000000 1.869490 0.000000 
#    z 0.000000 0.000000 1.762460 
# 
# From -- ./inp_files/8693.got.cif
#   From: 2010.05.17/outbox.cif.g08.bks.cpg/sg56_5_cif.got.tgz:8693.got - 2010.06.03 13:42:01.
