data_PCOD9432860
_publ_section_title
;
Structure prediction by ZEFSAII (Michael W. Deem and Ramdas Pophale) SiO2 
 PCOD9432860
Probable space group: P C C N
;
_chemical_formula_sum "Si O2"
_cell_formula_units_Z 40
_cell_length_a 10.895929
_cell_length_b 7.625256
_cell_length_c 22.632315
_cell_angle_alpha 90.000000
_cell_angle_beta 90.000000
_cell_angle_gamma 90.000000
_cell_volume 1880.388872
_symmetry_space_group_name_H-M "P C C N"
_symmetry_group_IT_number 56
_symmetry_cell_setting 'orthorhombic'
loop_
_space_group_symop_operation_xyz
x,y,z
1/2-x,1/2-y,z
1/2+x,-y,1/2-z
-x,1/2+y,1/2-z
-x,-y,-z
1/2+x,1/2+y,-z
1/2-x,y,1/2+z
x,1/2-y,1/2+z
loop_
_atom_site_type_symbol
_atom_site_label
_atom_site_fract_x
_atom_site_fract_y
_atom_site_fract_z
Si Si1 0.635011 0.074997 0.495703
Si Si2 0.507945 0.560949 0.663223
Si Si3 0.263341 0.048570 0.623318
Si Si4 0.123017 0.863181 0.227441
Si Si5 0.616902 0.466624 0.541624
O O1 0.627807 0.256524 0.531907
O O2 0.749536 0.967554 0.521724
O O3 0.500000 0.000000 0.500000
O O4 0.674521 0.074357 0.426546
O O5 0.374013 0.506987 0.639269
O O6 0.567106 0.434130 0.712098
O O7 0.479416 0.744771 0.694982
O O8 0.590596 0.545778 0.605341
O O9 0.250000 0.250000 0.604143
O O10 0.341265 0.020705 0.682977
O O11 0.250000 0.750000 0.235504
O O12 0.500000 0.500000 0.500000
#
# Coordination Sequence:
#
# PCOD9432860 Si02
#       5
#     8   8   8   8   8
#     4  11  25  40  66 102 134 178 225 281 349 415
#     4  11  22  43  68  95 134 180 228 291 346 422
#     4  11  22  42  68  93 138 179 228 286 348 416
#     4  10  24  41  69  98 134 179 232 285 358 416
#     4  11  23  42  70  95 135 180 229 280 351 413
#
# _framework density 21.272196000000001
#
# number of rings (size 3 to 8) (size 9 to 14) (size 15 to 20)
#    0.000    1.200    2.000    3.600    8.400    0.000 
#    3.600    0.000    0.000    0.000    0.000    0.000 
#    0.000    0.000    0.000    0.000    0.000    0.000 
#
# Total GULP energy -223139.049861 kJ/mol
# GULP energy per Si atom -5578.476247 kJ/mol
# Density = 2.122378 g / cm^3
# Si number density = 21.272196 Si / 1000 Ang^3
#
#
#
# Elastic Constant Matrix: (Units=GPa)
#
#
# Indices 1 2 3 4 5 6 
#
# 1 169.0628 31.0887 75.4398 0.0000 0.0000 0.0000
# 2 31.0887 67.6247 12.7877 0.0000 0.0000 0.0000
# 3 75.4398 12.7877 143.0475 0.0000 0.0000 0.0000
# 4 0.0000 0.0000 0.0000 22.7532 0.0000 0.0000
# 5 0.0000 0.0000 0.0000 0.0000 75.1099 0.0000
# 6 0.0000 0.0000 0.0000 0.0000 0.0000 24.2855
#
#
#
# Elastic Compliance Matrix: (Units=1/GPa)
#
#
# Indices 1 2 3 4 5 6 
#
# 1 0.008308 -0.003042 -0.004110 0.000000 0.000000 0.000000
# 2 -0.003042 0.016156 0.000160 0.000000 0.000000 0.000000
# 3 -0.004110 0.000160 0.009144 0.000000 0.000000 0.000000
# 4 0.000000 0.000000 0.000000 0.043950 0.000000 0.000000
# 5 0.000000 0.000000 0.000000 0.000000 0.013314 0.000000
# 6 0.000000 0.000000 0.000000 0.000000 0.000000 0.041177
#
#
# Mechanical properties :
#
#
# Convention : Reuss Voigt Hill
#
# Bulk Modulus (GPa) = 50.95734 68.70750 59.83242
# Shear Modulus (GPa) = 32.77118 41.79097 37.28108
#
# Velocity S-wave (km/s) = 3.92926 4.43717 4.19092
# Velocity P-wave (km/s) = 6.67775 7.65641 7.18377
#
# Compressibility (1/GPa) = 0.01962426
#
# Stress axis : x y z
#
# Youngs Moduli (GPa) = 120.36287 61.89708 109.36548
#
# Poissons Ratio (x) = 0.18831 0.44945
# Poissons Ratio (y) = 0.36619 -0.01752
# Poissons Ratio (z) = 0.49464 -0.00992
#
# Static dielectric constant tensor:
#      x y z
#    x 1.787850 0.000000 0.000000 
#    y 0.000000 1.839260 0.000000 
#    z 0.000000 0.000000 1.782700 
# 
# From -- ./inp_files/15397.got.cif
#   From: 2010.05.17/outbox.cif.g08.bks.cpg/sg56_8_cif.got.tgz:15397.got - 2010.06.03 13:42:01.
