data_PCOD9432108
_publ_section_title
;
Structure prediction by ZEFSAII (Michael W. Deem and Ramdas Pophale) SiO2 
 PCOD9432108
Probable space group: P C C N
;
_chemical_formula_sum "Si O2"
_cell_formula_units_Z 56
_cell_length_a 13.585880
_cell_length_b 5.087186
_cell_length_c 30.484220
_cell_angle_alpha 90.000000
_cell_angle_beta 90.000000
_cell_angle_gamma 90.000000
_cell_volume 2106.883288
_symmetry_space_group_name_H-M "P C C N"
_symmetry_group_IT_number 56
_symmetry_cell_setting 'orthorhombic'
loop_
_space_group_symop_operation_xyz
x,y,z
1/2-x,1/2-y,z
1/2+x,-y,1/2-z
-x,1/2+y,1/2-z
-x,-y,-z
1/2+x,1/2+y,-z
1/2-x,y,1/2+z
x,1/2-y,1/2+z
loop_
_atom_site_type_symbol
_atom_site_label
_atom_site_fract_x
_atom_site_fract_y
_atom_site_fract_z
Si Si1 0.658156 0.080186 0.826054
Si Si2 0.250000 0.250000 0.399787
Si Si3 0.529775 0.970725 0.125421
Si Si4 0.067689 0.272501 0.547176
Si Si5 0.390226 0.319002 0.952985
Si Si6 0.163487 0.890709 0.824647
Si Si7 0.563693 0.778508 0.748460
Si Si8 0.250000 0.250000 0.097374
O O1 0.750000 0.250000 0.808928
O O2 0.627995 0.861850 0.790384
O O3 0.550671 0.182972 0.844403
O O4 0.702730 0.954351 0.869548
O O5 0.212571 0.452246 0.443929
O O6 0.225801 0.479136 0.362709
O O7 0.470235 0.065547 0.082575
O O8 0.578446 0.203136 0.154216
O O9 0.614916 0.823407 0.096335
O O10 0.093522 0.172304 0.498619
O O11 0.167975 0.383283 0.567383
O O12 0.982040 0.486710 0.547674
O O13 0.250000 0.750000 0.797092
O O14 0.117599 0.120305 0.794944
O O15 0.468338 0.975239 0.751144
#
# Coordination Sequence:
#
# PCOD9432108 Si02
#       8
#     8   4   8   8   8   8   8   4
#     4  11  25  44  74 101 142 189 247 314 385 467
#     4  12  25  39  72  96 142 186 250 297 381 460
#     4  11  22  43  66 102 138 191 242 306 379 460
#     4  10  22  40  64  97 141 185 243 304 372 446
#     4  11  22  38  64  99 139 187 238 307 369 450
#     4  12  26  46  70 106 145 198 248 317 387 471
#     4  12  30  50  78 113 152 196 253 326 392 473
#     4  10  23  43  68  98 138 190 252 305 379 462
#
# _framework density 26.579543999999999
#
# number of rings (size 3 to 8) (size 9 to 14) (size 15 to 20)
#    0.000    0.857    4.286    2.143    6.000    0.571 
#    0.000    0.000    3.143    0.000    0.000    0.000 
#    0.000    0.000    0.000    0.000    0.000    0.000 
#
# Total GULP energy -312272.753481 kJ/mol
# GULP energy per Si atom -5576.299169 kJ/mol
# Density = 2.651905 g / cm^3
# Si number density = 26.579544 Si / 1000 Ang^3
#
#
#
# Elastic Constant Matrix: (Units=GPa)
#
#
# Indices 1 2 3 4 5 6 
#
# 1 141.1622 25.3058 50.7603 0.0000 0.0000 0.0000
# 2 25.3058 49.8743 16.2407 0.0000 0.0000 0.0000
# 3 50.7603 16.2407 130.9041 0.0000 0.0000 0.0000
# 4 0.0000 0.0000 0.0000 33.1442 0.0000 0.0000
# 5 0.0000 0.0000 0.0000 0.0000 123.2713 0.0000
# 6 0.0000 0.0000 0.0000 0.0000 0.0000 51.0634
#
#
#
# Elastic Compliance Matrix: (Units=1/GPa)
#
#
# Indices 1 2 3 4 5 6 
#
# 1 0.008777 -0.003486 -0.002971 0.000000 0.000000 0.000000
# 2 -0.003486 0.022279 -0.001412 0.000000 0.000000 0.000000
# 3 -0.002971 -0.001412 0.008966 0.000000 0.000000 0.000000
# 4 0.000000 0.000000 0.000000 0.030171 0.000000 0.000000
# 5 0.000000 0.000000 0.000000 0.000000 0.008112 0.000000
# 6 0.000000 0.000000 0.000000 0.000000 0.000000 0.019583
#
#
# Mechanical properties :
#
#
# Convention : Reuss Voigt Hill
#
# Bulk Modulus (GPa) = 41.17928 56.28382 48.73155
# Shear Modulus (GPa) = 41.07675 56.80470 48.94072
#
# Velocity S-wave (km/s) = 3.93546 4.62796 4.29568
# Velocity P-wave (km/s) = 6.01472 7.05542 6.55575
#
# Compressibility (1/GPa) = 0.02428405
#
# Stress axis : x y z
#
# Youngs Moduli (GPa) = 113.92964 44.88515 111.52648
#
# Poissons Ratio (x) = 0.15647 0.33135
# Poissons Ratio (y) = 0.39717 0.15751
# Poissons Ratio (z) = 0.33849 0.06339
#
# Static dielectric constant tensor:
#      x y z
#    x 2.487560 0.000000 0.000000 
#    y 0.000000 2.259290 0.000000 
#    z 0.000000 0.000000 2.080760 
# 
# From -- ./inp_files/23641.got.cif
#   From: 2010.05.17/outbox.cif.g08.bks.cpg/sg56_12_cif.got.tgz:23641.got - 2010.06.03 13:42:01.
