data_PCOD9432902
_publ_section_title
;
Structure prediction by ZEFSAII (Michael W. Deem and Ramdas Pophale) SiO2 
 PCOD9432902
Probable space group: P C C N
;
_chemical_formula_sum "Si O2"
_cell_formula_units_Z 44
_cell_length_a 9.162239
_cell_length_b 17.385426
_cell_length_c 10.471257
_cell_angle_alpha 90.000000
_cell_angle_beta 90.000000
_cell_angle_gamma 90.000000
_cell_volume 1667.960539
_symmetry_space_group_name_H-M "P C C N"
_symmetry_group_IT_number 56
_symmetry_cell_setting 'orthorhombic'
loop_
_space_group_symop_operation_xyz
x,y,z
1/2-x,1/2-y,z
1/2+x,-y,1/2-z
-x,1/2+y,1/2-z
-x,-y,-z
1/2+x,1/2+y,-z
1/2-x,y,1/2+z
x,1/2-y,1/2+z
loop_
_atom_site_type_symbol
_atom_site_label
_atom_site_fract_x
_atom_site_fract_y
_atom_site_fract_z
Si Si1 0.750000 0.750000 0.063090
Si Si2 0.019157 0.829634 0.925082
Si Si3 0.534962 0.621271 0.651097
Si Si4 0.409372 0.838878 0.905817
Si Si5 0.133317 0.926886 0.155252
Si Si6 0.089288 0.031473 0.668740
O O1 0.869910 0.797092 0.984237
O O2 0.836548 0.683576 0.139295
O O3 0.998134 0.878785 0.800088
O O4 0.092785 0.750369 0.880198
O O5 0.330012 0.881650 0.788799
O O6 0.404168 0.651867 0.559425
O O7 0.535183 0.529857 0.620296
O O8 0.567251 0.883846 0.890590
O O9 0.110306 0.874240 0.031880
O O10 0.255222 0.993080 0.145077
O O11 0.966685 0.955002 0.186567
#
# Coordination Sequence:
#
# PCOD9432902 Si02
#       6
#     4   8   8   8   8   8
#     4  10  24  42  74 110 162 206 256 324 402 476
#     4  11  23  44  76 114 146 205 271 316 390 481
#     4  11  23  43  74 109 154 199 259 330 383 468
#     4   9  22  46  74 106 159 208 252 332 392 469
#     4  10  25  46  80 113 157 209 259 326 398 482
#     4  10  25  46  78 111 160 206 265 323 406 462
#
# _framework density 26.379519999999999
#
# number of rings (size 3 to 8) (size 9 to 14) (size 15 to 20)
#    1.091    0.727    0.000    3.273    2.545    6.545 
#    0.000   11.818    0.000    0.000    0.000    0.000 
#    0.000    0.000    0.000    0.000    0.000    0.000 
#
# Total GULP energy -245396.705605 kJ/mol
# GULP energy per Si atom -5577.197855 kJ/mol
# Density = 2.631948 g / cm^3
# Si number density = 26.379520 Si / 1000 Ang^3
#
#
#
# Elastic Constant Matrix: (Units=GPa)
#
#
# Indices 1 2 3 4 5 6 
#
# 1 157.7402 43.9630 52.2487 0.0000 0.0000 0.0000
# 2 43.9630 152.4513 60.1009 0.0000 0.0000 0.0000
# 3 52.2487 60.1009 120.0868 0.0000 0.0000 0.0000
# 4 0.0000 0.0000 0.0000 8.1462 0.0000 0.0000
# 5 0.0000 0.0000 0.0000 0.0000 5.2615 0.0000
# 6 0.0000 0.0000 0.0000 0.0000 0.0000 46.3807
#
#
#
# Elastic Compliance Matrix: (Units=1/GPa)
#
#
# Indices 1 2 3 4 5 6 
#
# 1 0.007552 -0.001099 -0.002736 0.000000 0.000000 0.000000
# 2 -0.001099 0.008332 -0.003692 0.000000 0.000000 0.000000
# 3 -0.002736 -0.003692 0.011365 0.000000 0.000000 0.000000
# 4 0.000000 0.000000 0.000000 0.122756 0.000000 0.000000
# 5 0.000000 0.000000 0.000000 0.000000 0.190060 0.000000
# 6 0.000000 0.000000 0.000000 0.000000 0.000000 0.021561
#
#
# Mechanical properties :
#
#
# Convention : Reuss Voigt Hill
#
# Bulk Modulus (GPa) = 81.99497 82.54485 82.26991
# Shear Modulus (GPa) = 13.13217 30.22205 21.67711
#
# Velocity S-wave (km/s) = 2.23360 3.38844 2.86971
# Velocity P-wave (km/s) = 6.14835 6.83139 6.49885
#
# Compressibility (1/GPa) = 0.01219587
#
# Stress axis : x y z
#
# Youngs Moduli (GPa) = 132.41411 120.02159 87.98843
#
# Poissons Ratio (x) = 0.13195 0.24070
# Poissons Ratio (y) = 0.14557 0.32482
# Poissons Ratio (z) = 0.36224 0.44307
#
# Static dielectric constant tensor:
#      x y z
#    x 2.241210 0.000000 0.000000 
#    y 0.000000 2.274030 0.000000 
#    z 0.000000 0.000000 2.200490 
# 
# From -- ./inp_files/7082.got.cif
#   From: 2010.05.17/outbox.cif.g08.bks.cpg/sg56_4_cif.got.tgz:7082.got - 2010.06.03 13:42:01.
