data_PCOD9432226
_publ_section_title
;
Structure prediction by ZEFSAII (Michael W. Deem and Ramdas Pophale) SiO2 
 PCOD9432226
Probable space group: P C C N
;
_chemical_formula_sum "Si O2"
_cell_formula_units_Z 56
_cell_length_a 16.902030
_cell_length_b 5.119074
_cell_length_c 28.951621
_cell_angle_alpha 90.000000
_cell_angle_beta 90.000000
_cell_angle_gamma 90.000000
_cell_volume 2504.973644
_symmetry_space_group_name_H-M "P C C N"
_symmetry_group_IT_number 56
_symmetry_cell_setting 'orthorhombic'
loop_
_space_group_symop_operation_xyz
x,y,z
1/2-x,1/2-y,z
1/2+x,-y,1/2-z
-x,1/2+y,1/2-z
-x,-y,-z
1/2+x,1/2+y,-z
1/2-x,y,1/2+z
x,1/2-y,1/2+z
loop_
_atom_site_type_symbol
_atom_site_label
_atom_site_fract_x
_atom_site_fract_y
_atom_site_fract_z
Si Si1 0.548448 0.115403 0.248409
Si Si2 0.196452 0.005090 0.078684
Si Si3 0.582456 0.337895 0.647245
Si Si4 0.250000 0.750000 0.888597
Si Si5 0.408718 0.199796 0.506984
Si Si6 0.007419 0.627536 0.072667
Si Si7 0.250000 0.250000 0.453044
Si Si8 0.074582 0.523489 0.649723
O O1 0.526521 0.420907 0.246456
O O2 0.580379 0.034246 0.198199
O O3 0.592483 0.076193 0.296877
O O4 0.250000 0.250000 0.066189
O O5 0.250000 0.750000 0.084035
O O6 0.149862 0.095660 0.124450
O O7 0.130077 0.971246 0.038349
O O8 0.670683 0.237617 0.641564
O O9 0.566001 0.510760 0.601922
O O10 0.507131 0.140157 0.646465
O O11 0.259049 0.501253 0.921307
O O12 0.469795 0.167254 0.464202
O O13 0.448591 0.405854 0.542476
O O14 0.329486 0.302108 0.482107
O O15 0.059171 0.730571 0.115789
#
# Coordination Sequence:
#
# PCOD9432226 Si02
#       8
#     8   8   8   4   8   8   4   8
#     4  10  22  41  76 103 129 174 227 283 348 417
#     4  12  27  45  68 101 144 185 233 288 348 409
#     4  11  23  45  71 102 140 176 234 282 355 408
#     4  12  28  44  70 100 140 186 222 298 342 410
#     4  11  24  42  66  99 137 186 241 284 341 408
#     4  11  22  45  67 101 134 184 242 288 333 419
#     4  12  26  44  64  94 142 188 232 274 356 394
#     4  11  24  44  73  99 140 178 236 279 351 414
#
# _framework density 22.355526000000001
#
# number of rings (size 3 to 8) (size 9 to 14) (size 15 to 20)
#    0.000    0.857    5.000    1.714    1.000    0.571 
#    3.857    0.000    1.571    0.000    0.000    0.000 
#    0.000    0.000    0.000    0.000    0.000    0.000 
#
# Total GULP energy -312412.012469 kJ/mol
# GULP energy per Si atom -5578.785937 kJ/mol
# Density = 2.230464 g / cm^3
# Si number density = 22.355526 Si / 1000 Ang^3
#
#
#
# Elastic Constant Matrix: (Units=GPa)
#
#
# Indices 1 2 3 4 5 6 
#
# 1 120.1407 12.1104 56.9003 0.0000 0.0000 0.0000
# 2 12.1104 65.4713 30.2367 0.0000 0.0000 0.0000
# 3 56.9003 30.2367 188.4975 0.0000 0.0000 0.0000
# 4 0.0000 0.0000 0.0000 33.0373 0.0000 0.0000
# 5 0.0000 0.0000 0.0000 0.0000 29.5447 0.0000
# 6 0.0000 0.0000 0.0000 0.0000 0.0000 18.0022
#
#
#
# Elastic Compliance Matrix: (Units=1/GPa)
#
#
# Indices 1 2 3 4 5 6 
#
# 1 0.009726 -0.000479 -0.002859 0.000000 0.000000 0.000000
# 2 -0.000479 0.016519 -0.002505 0.000000 0.000000 0.000000
# 3 -0.002859 -0.002505 0.006570 0.000000 0.000000 0.000000
# 4 0.000000 0.000000 0.000000 0.030269 0.000000 0.000000
# 5 0.000000 0.000000 0.000000 0.000000 0.033847 0.000000
# 6 0.000000 0.000000 0.000000 0.000000 0.000000 0.055549
#
#
# Mechanical properties :
#
#
# Convention : Reuss Voigt Hill
#
# Bulk Modulus (GPa) = 47.32780 63.62268 55.47524
# Shear Modulus (GPa) = 29.20403 34.44100 31.82252
#
# Velocity S-wave (km/s) = 3.61826 3.92931 3.77699
# Velocity P-wave (km/s) = 6.21870 7.00766 6.62493
#
# Compressibility (1/GPa) = 0.02112923
#
# Stress axis : x y z
#
# Youngs Moduli (GPa) = 102.81782 60.53463 152.20563
#
# Poissons Ratio (x) = 0.02897 0.43517
# Poissons Ratio (y) = 0.04921 0.38134
# Poissons Ratio (z) = 0.29397 0.15166
#
# Static dielectric constant tensor:
#      x y z
#    x 2.227490 0.000000 0.000000 
#    y 0.000000 1.894350 0.000000 
#    z 0.000000 0.000000 1.857250 
# 
# From -- ./inp_files/23629.got.cif
#   From: 2010.05.17/outbox.cif.g08.bks.cpg/sg56_12_cif.got.tgz:23629.got - 2010.06.03 13:42:01.
