data_PCOD9432228
_publ_section_title
;
Structure prediction by ZEFSAII (Michael W. Deem and Ramdas Pophale) SiO2 
 PCOD9432228
Probable space group: P C C N
;
_chemical_formula_sum "Si O2"
_cell_formula_units_Z 48
_cell_length_a 18.669641
_cell_length_b 12.378835
_cell_length_c 8.654392
_cell_angle_alpha 90.000000
_cell_angle_beta 90.000000
_cell_angle_gamma 90.000000
_cell_volume 2000.102735
_symmetry_space_group_name_H-M "P C C N"
_symmetry_group_IT_number 56
_symmetry_cell_setting 'orthorhombic'
loop_
_space_group_symop_operation_xyz
x,y,z
1/2-x,1/2-y,z
1/2+x,-y,1/2-z
-x,1/2+y,1/2-z
-x,-y,-z
1/2+x,1/2+y,-z
1/2-x,y,1/2+z
x,1/2-y,1/2+z
loop_
_atom_site_type_symbol
_atom_site_label
_atom_site_fract_x
_atom_site_fract_y
_atom_site_fract_z
Si Si1 0.286540 0.987149 0.135289
Si Si2 0.968805 0.727925 0.980526
Si Si3 0.557908 0.362404 0.793314
Si Si4 0.197301 0.658863 0.872062
Si Si5 0.102339 0.391700 0.732129
Si Si6 0.760130 0.626654 0.627120
O O1 0.247905 0.907374 0.253778
O O2 0.315800 0.085559 0.241822
O O3 0.330928 0.914970 0.014572
O O4 0.233193 0.047859 0.016969
O O5 0.941857 0.655469 0.121923
O O6 0.029594 0.806374 0.052236
O O7 0.909179 0.808127 0.908399
O O8 0.999671 0.657145 0.840937
O O9 0.629938 0.305893 0.728830
O O10 0.575759 0.488723 0.810587
O O11 0.250000 0.750000 0.936764
O O12 0.182594 0.394699 0.795880
O O13 0.750000 0.750000 0.581524
#
# Coordination Sequence:
#
# PCOD9432228 Si02
#       6
#     8   8   8   8   8   8
#     4  10  22  42  56  96 124 160 202 246 320 368
#     4  10  26  42  66  92 120 170 214 260 304 360
#     4  11  23  45  65  91 127 163 213 258 309 368
#     4  11  24  38  66  93 128 160 202 254 316 374
#     4  11  23  45  65  91 127 163 213 258 309 368
#     4  11  24  38  66  93 128 160 202 254 316 374
#
# _framework density 23.998766
#
# number of rings (size 3 to 8) (size 9 to 14) (size 15 to 20)
#    0.000    1.333    3.333    2.000    9.333    0.000 
#    0.000    0.000    0.000    0.000    0.000    0.000 
#    0.000    0.000    0.000    0.000    0.000    0.000 
#
# Total GULP energy -268121.375317 kJ/mol
# GULP energy per Si atom -5585.861986 kJ/mol
# Density = 2.394414 g / cm^3
# Si number density = 23.998766 Si / 1000 Ang^3
#
#
#
# Elastic Constant Matrix: (Units=GPa)
#
#
# Indices 1 2 3 4 5 6 
#
# 1 33.2688 11.5820 -20.7662 0.0000 0.0000 0.0000
# 2 11.5820 96.2945 16.7167 0.0000 0.0000 0.0000
# 3 -20.7662 16.7167 82.2465 0.0000 0.0000 0.0000
# 4 0.0000 0.0000 0.0000 25.4360 0.0000 0.0000
# 5 0.0000 0.0000 0.0000 0.0000 24.3330 0.0000
# 6 0.0000 0.0000 0.0000 0.0000 0.0000 20.5191
#
#
#
# Elastic Compliance Matrix: (Units=1/GPa)
#
#
# Indices 1 2 3 4 5 6 
#
# 1 0.039467 -0.006714 0.011330 0.000000 0.000000 0.000000
# 2 -0.006714 0.011907 -0.004115 0.000000 0.000000 0.000000
# 3 0.011330 -0.004115 0.015856 0.000000 0.000000 0.000000
# 4 0.000000 0.000000 0.000000 0.039314 0.000000 0.000000
# 5 0.000000 0.000000 0.000000 0.000000 0.041096 0.000000
# 6 0.000000 0.000000 0.000000 0.000000 0.000000 0.048735
#
#
# Mechanical properties :
#
#
# Convention : Reuss Voigt Hill
#
# Bulk Modulus (GPa) = 14.65611 25.20831 19.93221
# Shear Modulus (GPa) = 22.92335 27.67611 25.29973
#
# Velocity S-wave (km/s) = 3.09397 3.39961 3.25038
# Velocity P-wave (km/s) = 4.34555 5.09280 4.73394
#
# Compressibility (1/GPa) = 0.06823094
#
# Stress axis : x y z
#
# Youngs Moduli (GPa) = 25.33732 83.98608 63.06920
#
# Poissons Ratio (x) = 0.56387 -0.71455
# Poissons Ratio (y) = 0.17011 0.25954
# Poissons Ratio (z) = -0.28706 0.34562
#
# Static dielectric constant tensor:
#      x y z
#    x 1.926330 0.000000 0.000000 
#    y 0.000000 2.019040 0.000000 
#    z 0.000000 0.000000 1.936340 
# 
# From -- ./inp_files/4751.got.cif
#   From: 2010.05.17/outbox.cif.g08.bks.cpg/sg56_3_cif.got.tgz:4751.got - 2010.06.03 13:42:01.
