data_PCOD9432060
_publ_section_title
;
Structure prediction by ZEFSAII (Michael W. Deem and Ramdas Pophale) SiO2 
 PCOD9432060
Probable space group: P C C N
;
_chemical_formula_sum "Si O2"
_cell_formula_units_Z 44
_cell_length_a 14.227745
_cell_length_b 12.750167
_cell_length_c 12.430853
_cell_angle_alpha 90.000000
_cell_angle_beta 90.000000
_cell_angle_gamma 90.000000
_cell_volume 2255.032870
_symmetry_space_group_name_H-M "P C C N"
_symmetry_group_IT_number 56
_symmetry_cell_setting 'orthorhombic'
loop_
_space_group_symop_operation_xyz
x,y,z
1/2-x,1/2-y,z
1/2+x,-y,1/2-z
-x,1/2+y,1/2-z
-x,-y,-z
1/2+x,1/2+y,-z
1/2-x,y,1/2+z
x,1/2-y,1/2+z
loop_
_atom_site_type_symbol
_atom_site_label
_atom_site_fract_x
_atom_site_fract_y
_atom_site_fract_z
Si Si1 0.879998 0.468274 0.935777
Si Si2 0.083913 0.865873 0.937762
Si Si3 0.750000 0.250000 0.187465
Si Si4 0.000453 0.499205 0.737413
Si Si5 0.996340 0.843919 0.408854
Si Si6 0.824509 0.428396 0.343685
O O1 0.948365 0.437756 0.834785
O O2 0.773794 0.462716 0.896748
O O3 0.912211 0.587571 0.960416
O O4 0.910755 0.394625 0.034078
O O5 0.174946 0.812759 0.883320
O O6 0.002473 0.778679 0.925609
O O7 0.054666 0.967044 0.869108
O O8 0.109540 0.889978 0.059346
O O9 0.800365 0.333837 0.264190
O O10 0.992525 0.617658 0.784897
O O11 0.111576 0.485954 0.717871
#
# Coordination Sequence:
#
# PCOD9432060 Si02
#       6
#     8   8   4   8   8   8
#     4   9  19  39  59  85 124 165 201 250 312 367
#     4  12  23  35  62  94 122 158 210 262 310 365
#     4  12  18  36  60  90 116 156 210 256 308 366
#     4  10  22  40  55  89 134 158 193 262 317 358
#     4   9  19  39  59  85 124 165 201 250 312 367
#     4  12  23  35  62  94 122 158 210 262 310 365
#
# _framework density 19.511911000000001
#
# number of rings (size 3 to 8) (size 9 to 14) (size 15 to 20)
#    1.091    0.364    3.636    3.273    0.000    0.000 
#    0.000    0.909    0.000    0.000    9.455    0.000 
#    0.000    0.000    0.000    0.000    0.000    0.000 
#
# Total GULP energy -244969.601955 kJ/mol
# GULP energy per Si atom -5567.490954 kJ/mol
# Density = 1.946750 g / cm^3
# Si number density = 19.511911 Si / 1000 Ang^3
#
#
#
# Elastic Constant Matrix: (Units=GPa)
#
#
# Indices 1 2 3 4 5 6 
#
# 1 82.1133 34.8050 13.7620 0.0000 0.0000 0.0000
# 2 34.8050 46.2733 27.6956 0.0000 0.0000 0.0000
# 3 13.7620 27.6956 77.9798 0.0000 0.0000 0.0000
# 4 0.0000 0.0000 0.0000 22.8492 0.0000 0.0000
# 5 0.0000 0.0000 0.0000 0.0000 43.1671 0.0000
# 6 0.0000 0.0000 0.0000 0.0000 0.0000 30.8216
#
#
#
# Elastic Compliance Matrix: (Units=1/GPa)
#
#
# Indices 1 2 3 4 5 6 
#
# 1 0.018142 -0.014896 0.002089 0.000000 0.000000 0.000000
# 2 -0.014896 0.039675 -0.011462 0.000000 0.000000 0.000000
# 3 0.002089 -0.011462 0.016526 0.000000 0.000000 0.000000
# 4 0.000000 0.000000 0.000000 0.043765 0.000000 0.000000
# 5 0.000000 0.000000 0.000000 0.000000 0.023166 0.000000
# 6 0.000000 0.000000 0.000000 0.000000 0.000000 0.032445
#
#
# Mechanical properties :
#
#
# Convention : Reuss Voigt Hill
#
# Bulk Modulus (GPa) = 38.75290 39.87686 39.31488
# Shear Modulus (GPa) = 21.65811 28.04116 24.84963
#
# Velocity S-wave (km/s) = 3.33527 3.79506 3.57257
# Velocity P-wave (km/s) = 5.89375 6.29960 6.10005
#
# Compressibility (1/GPa) = 0.02580452
#
# Stress axis : x y z
#
# Youngs Moduli (GPa) = 55.12032 25.20450 60.50977
#
# Poissons Ratio (x) = 0.37545 -0.12639
# Poissons Ratio (y) = 0.82107 0.69359
# Poissons Ratio (z) = -0.11513 0.28890
#
# Static dielectric constant tensor:
#      x y z
#    x 1.716650 0.000000 0.000000 
#    y 0.000000 1.694400 0.000000 
#    z 0.000000 0.000000 1.724930 
# 
# From -- ./inp_files/12165.got.cif
#   From: 2010.05.17/outbox.cif.g08.bks.cpg/sg56_7_cif.got.tgz:12165.got - 2010.06.03 13:42:01.
