data_PCOD9432532
_publ_section_title
;
Structure prediction by ZEFSAII (Michael W. Deem and Ramdas Pophale) SiO2 
 PCOD9432532
Probable space group: P C C N
;
_chemical_formula_sum "Si O2"
_cell_formula_units_Z 32
_cell_length_a 8.764574
_cell_length_b 17.024498
_cell_length_c 7.866916
_cell_angle_alpha 90.000000
_cell_angle_beta 90.000000
_cell_angle_gamma 90.000000
_cell_volume 1173.841988
_symmetry_space_group_name_H-M "P C C N"
_symmetry_group_IT_number 56
_symmetry_cell_setting 'orthorhombic'
loop_
_space_group_symop_operation_xyz
x,y,z
1/2-x,1/2-y,z
1/2+x,-y,1/2-z
-x,1/2+y,1/2-z
-x,-y,-z
1/2+x,1/2+y,-z
1/2-x,y,1/2+z
x,1/2-y,1/2+z
loop_
_atom_site_type_symbol
_atom_site_label
_atom_site_fract_x
_atom_site_fract_y
_atom_site_fract_z
Si Si1 0.927504 0.430886 0.306115
Si Si2 0.262544 0.082163 0.121736
Si Si3 0.522092 0.183487 0.606419
Si Si4 0.950772 0.359091 0.976049
O O1 0.851620 0.509116 0.375376
O O2 0.109635 0.433855 0.267313
O O3 0.912830 0.361941 0.443460
O O4 0.867022 0.412454 0.115530
O O5 0.154853 0.158449 0.126035
O O6 0.383097 0.098875 0.969539
O O7 0.535737 0.275281 0.569218
O O8 0.597272 0.156852 0.784267
#
# Coordination Sequence:
#
# PCOD9432532 Si02
#       4
#     8   8   8   8
#     4  10  24  43  67 104 145 180 232 300 352 427
#     4  10  23  42  65 105 144 181 231 295 358 420
#     4  12  20  42  69 105 132 185 243 298 339 419
#     4  10  23  38  70 104 133 183 244 294 346 415
#
# _framework density 27.260908000000001
#
# number of rings (size 3 to 8) (size 9 to 14) (size 15 to 20)
#    1.500    0.000    2.500    3.000    0.000    3.000 
#    4.500    0.000    0.000    1.500   13.000    0.000 
#    0.000    0.000    0.000    0.000    0.000    0.000 
#
# Total GULP energy -179111.152011 kJ/mol
# GULP energy per Si atom -5597.223500 kJ/mol
# Density = 2.719886 g / cm^3
# Si number density = 27.260908 Si / 1000 Ang^3
#
#
#
# Elastic Constant Matrix: (Units=GPa)
#
#
# Indices 1 2 3 4 5 6 
#
# 1 112.6866 -15.4989 24.1039 0.0000 0.0000 0.0000
# 2 -15.4989 72.6827 5.8723 0.0000 0.0000 0.0000
# 3 24.1039 5.8723 158.1537 0.0000 0.0000 0.0000
# 4 0.0000 0.0000 0.0000 54.0813 0.0000 0.0000
# 5 0.0000 0.0000 0.0000 0.0000 43.5423 0.0000
# 6 0.0000 0.0000 0.0000 0.0000 0.0000 19.7028
#
#
#
# Elastic Compliance Matrix: (Units=1/GPa)
#
#
# Indices 1 2 3 4 5 6 
#
# 1 0.009496 0.002148 -0.001527 0.000000 0.000000 0.000000
# 2 0.002148 0.014286 -0.000858 0.000000 0.000000 0.000000
# 3 -0.001527 -0.000858 0.006588 0.000000 0.000000 0.000000
# 4 0.000000 0.000000 0.000000 0.018491 0.000000 0.000000
# 5 0.000000 0.000000 0.000000 0.000000 0.022966 0.000000
# 6 0.000000 0.000000 0.000000 0.000000 0.000000 0.050754
#
#
# Mechanical properties :
#
#
# Convention : Reuss Voigt Hill
#
# Bulk Modulus (GPa) = 33.44866 41.38641 37.41753
# Shear Modulus (GPa) = 37.58850 45.40167 41.49508
#
# Velocity S-wave (km/s) = 3.71731 4.08542 3.90570
# Velocity P-wave (km/s) = 5.54265 6.12117 5.83908
#
# Compressibility (1/GPa) = 0.02989656
#
# Stress axis : x y z
#
# Youngs Moduli (GPa) = 105.30421 69.99924 151.80142
#
# Poissons Ratio (x) = -0.15038 0.23181
# Poissons Ratio (y) = -0.22623 0.13023
# Poissons Ratio (z) = 0.16081 0.06005
#
# Static dielectric constant tensor:
#      x y z
#    x 2.209570 0.000000 0.000000 
#    y 0.000000 2.004650 0.000000 
#    z 0.000000 0.000000 2.147220 
# 
# From -- ./inp_files/2421.got.cif
#   From: 2010.05.17/outbox.cif.g08.bks.cpg/sg56_2_cif.got.tgz:2421.got - 2010.06.03 13:42:01.
