data_PCOD9432196
_publ_section_title
;
Structure prediction by ZEFSAII (Michael W. Deem and Ramdas Pophale) SiO2 
 PCOD9432196
Probable space group: P C C N
;
_chemical_formula_sum "Si O2"
_cell_formula_units_Z 40
_cell_length_a 11.935222
_cell_length_b 9.060208
_cell_length_c 15.102632
_cell_angle_alpha 90.000000
_cell_angle_beta 90.000000
_cell_angle_gamma 90.000000
_cell_volume 1633.132080
_symmetry_space_group_name_H-M "P C C N"
_symmetry_group_IT_number 56
_symmetry_cell_setting 'orthorhombic'
loop_
_space_group_symop_operation_xyz
x,y,z
1/2-x,1/2-y,z
1/2+x,-y,1/2-z
-x,1/2+y,1/2-z
-x,-y,-z
1/2+x,1/2+y,-z
1/2-x,y,1/2+z
x,1/2-y,1/2+z
loop_
_atom_site_type_symbol
_atom_site_label
_atom_site_fract_x
_atom_site_fract_y
_atom_site_fract_z
Si Si1 0.283617 0.586117 0.305214
Si Si2 0.412981 0.366951 0.009985
Si Si3 0.760001 0.422228 0.898734
Si Si4 0.634513 0.672989 0.180946
Si Si5 0.976460 0.606011 0.858610
O O1 0.250000 0.750000 0.326308
O O2 0.297084 0.571940 0.198955
O O3 0.176624 0.492983 0.332126
O O4 0.397475 0.547020 0.355081
O O5 0.300912 0.452161 0.042918
O O6 0.455087 0.244119 0.078020
O O7 0.500000 0.500000 0.000000
O O8 0.401296 0.283793 0.916379
O O9 0.750000 0.250000 0.928927
O O10 0.886680 0.478943 0.882216
O O11 0.750000 0.750000 0.210985
O O12 0.547626 0.670870 0.260030
#
# Coordination Sequence:
#
# PCOD9432196 Si02
#       5
#     8   8   8   8   8
#     4  10  22  41  66  98 135 181 233 284 346 419
#     4  12  25  43  68  99 134 180 233 288 350 422
#     4  10  23  42  65  98 138 180 233 290 348 419
#     4  11  24  41  66  97 132 175 226 278 341 417
#     4  11  23  45  71  98 139 184 224 288 354 413
#
# _framework density 24.492816000000001
#
# number of rings (size 3 to 8) (size 9 to 14) (size 15 to 20)
#    0.000    1.200    0.000    6.600    0.000   12.000 
#    0.000    3.000    0.000    0.000    0.000    0.000 
#    0.000    0.000    0.000    0.000    0.000    0.000 
#
# Total GULP energy -224010.030722 kJ/mol
# GULP energy per Si atom -5600.250768 kJ/mol
# Density = 2.443707 g / cm^3
# Si number density = 24.492816 Si / 1000 Ang^3
#
#
#
# Elastic Constant Matrix: (Units=GPa)
#
#
# Indices 1 2 3 4 5 6 
#
# 1 67.6072 1.7943 41.6905 0.0000 0.0000 0.0000
# 2 1.7943 111.4641 41.8652 0.0000 0.0000 0.0000
# 3 41.6905 41.8652 122.4333 0.0000 0.0000 0.0000
# 4 0.0000 0.0000 0.0000 26.6558 0.0000 0.0000
# 5 0.0000 0.0000 0.0000 0.0000 6.9036 0.0000
# 6 0.0000 0.0000 0.0000 0.0000 0.0000 31.6304
#
#
#
# Elastic Compliance Matrix: (Units=1/GPa)
#
#
# Indices 1 2 3 4 5 6 
#
# 1 0.019300 0.002476 -0.007419 0.000000 0.000000 0.000000
# 2 0.002476 0.010611 -0.004471 0.000000 0.000000 0.000000
# 3 -0.007419 -0.004471 0.012223 0.000000 0.000000 0.000000
# 4 0.000000 0.000000 0.000000 0.037515 0.000000 0.000000
# 5 0.000000 0.000000 0.000000 0.000000 0.144852 0.000000
# 6 0.000000 0.000000 0.000000 0.000000 0.000000 0.031615
#
#
# Mechanical properties :
#
#
# Convention : Reuss Voigt Hill
#
# Bulk Modulus (GPa) = 42.90811 52.46718 47.68765
# Shear Modulus (GPa) = 17.68574 27.44827 22.56700
#
# Velocity S-wave (km/s) = 2.69007 3.35127 3.03870
# Velocity P-wave (km/s) = 5.21587 6.03677 5.64127
#
# Compressibility (1/GPa) = 0.02330562
#
# Stress axis : x y z
#
# Youngs Moduli (GPa) = 51.81252 94.24123 81.81411
#
# Poissons Ratio (x) = -0.23331 0.60695
# Poissons Ratio (y) = -0.12827 0.36582
# Poissons Ratio (z) = 0.38438 0.42139
#
# Static dielectric constant tensor:
#      x y z
#    x 1.943430 0.000000 0.000000 
#    y 0.000000 1.886240 0.000000 
#    z 0.000000 0.000000 1.980520 
# 
# From -- ./inp_files/15380.got.cif
#   From: 2010.05.17/outbox.cif.g08.bks.cpg/sg56_8_cif.got.tgz:15380.got - 2010.06.03 13:42:01.
