data_PCOD9432006
_publ_section_title
;
Structure prediction by ZEFSAII (Michael W. Deem and Ramdas Pophale) SiO2 
 PCOD9432006
Probable space group: P C C N
;
_chemical_formula_sum "Si O2"
_cell_formula_units_Z 48
_cell_length_a 8.717371
_cell_length_b 26.348059
_cell_length_c 9.493649
_cell_angle_alpha 90.000000
_cell_angle_beta 90.000000
_cell_angle_gamma 90.000000
_cell_volume 2180.556417
_symmetry_space_group_name_H-M "P C C N"
_symmetry_group_IT_number 56
_symmetry_cell_setting 'orthorhombic'
loop_
_space_group_symop_operation_xyz
x,y,z
1/2-x,1/2-y,z
1/2+x,-y,1/2-z
-x,1/2+y,1/2-z
-x,-y,-z
1/2+x,1/2+y,-z
1/2-x,y,1/2+z
x,1/2-y,1/2+z
loop_
_atom_site_type_symbol
_atom_site_label
_atom_site_fract_x
_atom_site_fract_y
_atom_site_fract_z
Si Si1 0.572579 0.610019 0.281232
Si Si2 0.441241 0.710400 0.259575
Si Si3 0.771813 0.637683 0.523349
Si Si4 0.250000 0.250000 0.093545
Si Si5 0.250000 0.750000 0.005953
Si Si6 0.075256 0.040750 0.105228
Si Si7 0.422169 0.497018 0.651573
O O1 0.459093 0.651664 0.224624
O O2 0.617164 0.622487 0.441670
O O3 0.513847 0.553768 0.273396
O O4 0.723428 0.622881 0.187334
O O5 0.601073 0.735111 0.312847
O O6 0.381525 0.735437 0.116927
O O7 0.325965 0.712384 0.392451
O O8 0.789343 0.697925 0.492762
O O9 0.894414 0.596602 0.460557
O O10 0.243577 0.017358 0.139658
O O11 0.971023 0.041822 0.245102
O O12 0.000000 0.000000 0.000000
O O13 0.500000 0.500000 0.500000
#
# Coordination Sequence:
#
# PCOD9432006 Si02
#       7
#     8   8   8   4   4   8   8
#     4  10  22  40  63  95 130 172 228 275 348 415
#     4  10  22  42  64  94 130 176 221 284 343 426
#     4  10  22  38  68  98 134 171 227 298 339 412
#     4  10  22  42  72 100 128 180 248 282 346 424
#     4  10  22  42  62  90 142 170 208 286 366 408
#     4  11  22  44  68  97 142 181 231 290 349 427
#     4  11  24  42  66  98 133 184 229 284 349 414
#
# _framework density 22.012730999999999
#
# number of rings (size 3 to 8) (size 9 to 14) (size 15 to 20)
#    0.000    1.667    1.667    2.000    7.000    8.667 
#    3.000    3.333    0.000    0.000    0.000    0.000 
#    0.000    0.000    0.000    0.000    0.000    0.000 
#
# Total GULP energy -267530.357584 kJ/mol
# GULP energy per Si atom -5573.549116 kJ/mol
# Density = 2.196263 g / cm^3
# Si number density = 22.012731 Si / 1000 Ang^3
#
#
#
# Elastic Constant Matrix: (Units=GPa)
#
#
# Indices 1 2 3 4 5 6 
#
# 1 61.2243 21.2221 22.8543 0.0000 0.0000 0.0000
# 2 21.2221 124.5391 22.8706 0.0000 0.0000 0.0000
# 3 22.8543 22.8706 117.6366 0.0000 0.0000 0.0000
# 4 0.0000 0.0000 0.0000 29.7345 0.0000 0.0000
# 5 0.0000 0.0000 0.0000 0.0000 37.6675 0.0000
# 6 0.0000 0.0000 0.0000 0.0000 0.0000 25.3825
#
#
#
# Elastic Compliance Matrix: (Units=1/GPa)
#
#
# Indices 1 2 3 4 5 6 
#
# 1 0.018369 -0.002566 -0.003070 0.000000 0.000000 0.000000
# 2 -0.002566 0.008685 -0.001190 0.000000 0.000000 0.000000
# 3 -0.003070 -0.001190 0.009328 0.000000 0.000000 0.000000
# 4 0.000000 0.000000 0.000000 0.033631 0.000000 0.000000
# 5 0.000000 0.000000 0.000000 0.000000 0.026548 0.000000
# 6 0.000000 0.000000 0.000000 0.000000 0.000000 0.039397
#
#
# Mechanical properties :
#
#
# Convention : Reuss Voigt Hill
#
# Bulk Modulus (GPa) = 43.99367 48.58822 46.29095
# Shear Modulus (GPa) = 31.80899 34.32043 33.06471
#
# Velocity S-wave (km/s) = 3.80548 3.95285 3.87986
# Velocity P-wave (km/s) = 6.27199 6.55393 6.41451
#
# Compressibility (1/GPa) = 0.02273054
#
# Stress axis : x y z
#
# Youngs Moduli (GPa) = 54.43988 115.13477 107.19842
#
# Poissons Ratio (x) = 0.29548 0.32907
# Poissons Ratio (y) = 0.13972 0.12757
# Poissons Ratio (z) = 0.16712 0.13701
#
# Static dielectric constant tensor:
#      x y z
#    x 1.892330 0.000000 0.000000 
#    y 0.000000 1.841570 0.000000 
#    z 0.000000 0.000000 1.818180 
# 
# From -- ./inp_files/2266.got.cif
#   From: 2010.05.17/outbox.cif.g08.bks.cpg/sg56_2_cif.got.tgz:2266.got - 2010.06.03 13:42:01.
