data_PCOD9432361
_publ_section_title
;
Structure prediction by ZEFSAII (Michael W. Deem and Ramdas Pophale) SiO2 
 PCOD9432361
Probable space group: P C C N
;
_chemical_formula_sum "Si O2"
_cell_formula_units_Z 20
_cell_length_a 8.227498
_cell_length_b 10.053313
_cell_length_c 7.381108
_cell_angle_alpha 90.000000
_cell_angle_beta 90.000000
_cell_angle_gamma 90.000000
_cell_volume 610.518108
_symmetry_space_group_name_H-M "P C C N"
_symmetry_group_IT_number 56
_symmetry_cell_setting 'orthorhombic'
loop_
_space_group_symop_operation_xyz
x,y,z
1/2-x,1/2-y,z
1/2+x,-y,1/2-z
-x,1/2+y,1/2-z
-x,-y,-z
1/2+x,1/2+y,-z
1/2-x,y,1/2+z
x,1/2-y,1/2+z
loop_
_atom_site_type_symbol
_atom_site_label
_atom_site_fract_x
_atom_site_fract_y
_atom_site_fract_z
Si Si1 0.654865 0.613020 0.621557
Si Si2 0.500000 0.500000 0.000000
Si Si3 0.062840 0.726074 0.812357
O O1 0.750000 0.750000 0.658268
O O2 0.533143 0.625845 0.798232
O O3 0.531200 0.637223 0.458295
O O4 0.796519 0.517521 0.565676
O O5 0.551353 0.366776 0.865020
O O6 0.250000 0.750000 0.839843
#
# Coordination Sequence:
#
# PCOD9432361 Si02
#       3
#     8   4   8
#     4  10  22  43  67  99 140 185 241 300 363 437
#     4  10  24  42  68 102 144 192 244 304 372 446
#     4  11  24  43  70 103 145 193 245 305 368 442
#
# _framework density 32.759061000000003
#
# number of rings (size 3 to 8) (size 9 to 14) (size 15 to 20)
#    0.000    1.600    0.000    4.800    0.000   11.200 
#    0.000    0.000    0.000    7.200    0.000    0.000 
#    0.000    0.000    0.000    0.000    0.000    0.000 
#
# Total GULP energy -111795.610569 kJ/mol
# GULP energy per Si atom -5589.780528 kJ/mol
# Density = 3.268450 g / cm^3
# Si number density = 32.759061 Si / 1000 Ang^3
#
#
#
# Elastic Constant Matrix: (Units=GPa)
#
#
# Indices 1 2 3 4 5 6 
#
# 1 448.6621 136.7422 170.7716 0.0000 0.0000 0.0000
# 2 136.7422 282.3252 51.9256 0.0000 0.0000 0.0000
# 3 170.7716 51.9256 273.5727 0.0000 0.0000 0.0000
# 4 0.0000 0.0000 0.0000 56.5168 0.0000 0.0000
# 5 0.0000 0.0000 0.0000 0.0000 96.3512 0.0000
# 6 0.0000 0.0000 0.0000 0.0000 0.0000 93.9811
#
#
#
# Elastic Compliance Matrix: (Units=1/GPa)
#
#
# Indices 1 2 3 4 5 6 
#
# 1 0.003310 -0.001267 -0.001826 0.000000 0.000000 0.000000
# 2 -0.001267 0.004155 0.000002 0.000000 0.000000 0.000000
# 3 -0.001826 0.000002 0.004794 0.000000 0.000000 0.000000
# 4 0.000000 0.000000 0.000000 0.017694 0.000000 0.000000
# 5 0.000000 0.000000 0.000000 0.000000 0.010379 0.000000
# 6 0.000000 0.000000 0.000000 0.000000 0.000000 0.010640
#
#
# Mechanical properties :
#
#
# Convention : Reuss Voigt Hill
#
# Bulk Modulus (GPa) = 164.50912 191.49320 178.00116
# Shear Modulus (GPa) = 84.48748 92.37788 88.43268
#
# Velocity S-wave (km/s) = 5.08395 5.31605 5.20130
# Velocity P-wave (km/s) = 9.20809 9.81134 9.51450
#
# Compressibility (1/GPa) = 0.00607869
#
# Stress axis : x y z
#
# Youngs Moduli (GPa) = 302.11407 240.64917 208.57284
#
# Poissons Ratio (x) = 0.30500 0.38078
# Poissons Ratio (y) = 0.38290 -0.00051
# Poissons Ratio (z) = 0.55155 -0.00058
#
# Static dielectric constant tensor:
#      x y z
#    x 2.552020 0.000000 0.000000 
#    y 0.000000 3.149900 0.000000 
#    z 0.000000 0.000000 3.461320 
# 
# From -- ./inp_files/1704.got.cif
#   From: 2010.05.17/outbox.cif.g08.bks.cpg/sg56_1_cif.got.tgz:1704.got - 2010.06.03 13:42:01.
