data_PCOD9432140
_publ_section_title
;
Structure prediction by ZEFSAII (Michael W. Deem and Ramdas Pophale) SiO2 
 PCOD9432140
Probable space group: P C C N
;
_chemical_formula_sum "Si O2"
_cell_formula_units_Z 48
_cell_length_a 14.583330
_cell_length_b 8.563986
_cell_length_c 18.195491
_cell_angle_alpha 90.000000
_cell_angle_beta 90.000000
_cell_angle_gamma 90.000000
_cell_volume 2272.460962
_symmetry_space_group_name_H-M "P C C N"
_symmetry_group_IT_number 56
_symmetry_cell_setting 'orthorhombic'
loop_
_space_group_symop_operation_xyz
x,y,z
1/2-x,1/2-y,z
1/2+x,-y,1/2-z
-x,1/2+y,1/2-z
-x,-y,-z
1/2+x,1/2+y,-z
1/2-x,y,1/2+z
x,1/2-y,1/2+z
loop_
_atom_site_type_symbol
_atom_site_label
_atom_site_fract_x
_atom_site_fract_y
_atom_site_fract_z
Si Si1 0.920879 0.434749 0.902138
Si Si2 0.076026 0.627764 0.518921
Si Si3 0.653996 0.156967 0.744419
Si Si4 0.738735 0.575460 0.131827
Si Si5 0.237018 0.074102 0.038033
Si Si6 0.410970 0.845461 0.882397
O O1 0.960276 0.272909 0.933498
O O2 0.886133 0.403305 0.820091
O O3 0.832953 0.487059 0.949859
O O4 0.995831 0.569673 0.903997
O O5 0.156381 0.540546 0.564701
O O6 0.110713 0.714307 0.444145
O O7 0.000000 0.500000 0.500000
O O8 0.750000 0.250000 0.756383
O O9 0.586180 0.266845 0.697717
O O10 0.676177 0.017253 0.688361
O O11 0.750000 0.750000 0.160411
O O12 0.831411 0.474335 0.123891
O O13 0.707418 0.592023 0.047269
O O14 0.250000 0.250000 0.068388
#
# Coordination Sequence:
#
# PCOD9432140 Si02
#       6
#     8   8   8   8   8   8
#     4  12  26  42  70 102 137 172 229 282 333 393
#     4  12  25  41  66  98 134 175 225 271 331 391
#     4  10  23  45  66  94 133 183 219 269 339 405
#     4  10  22  40  69  94 131 178 226 266 338 407
#     4  11  23  42  68  99 132 176 219 279 333 393
#     4  11  24  42  65  98 135 175 221 274 330 399
#
# _framework density 21.122474
#
# number of rings (size 3 to 8) (size 9 to 14) (size 15 to 20)
#    0.000    1.000    3.333    3.000    4.667    3.333 
#    0.000    3.333    0.000    0.000    0.000    0.000 
#    0.000    0.000    0.000    0.000    0.000    0.000 
#
# Total GULP energy -268180.511110 kJ/mol
# GULP energy per Si atom -5587.093981 kJ/mol
# Density = 2.107440 g / cm^3
# Si number density = 21.122474 Si / 1000 Ang^3
#
#
#
# Elastic Constant Matrix: (Units=GPa)
#
#
# Indices 1 2 3 4 5 6 
#
# 1 78.2674 50.6087 1.6821 0.0000 0.0000 0.0000
# 2 50.6087 150.1860 25.4018 0.0000 0.0000 0.0000
# 3 1.6821 25.4018 83.4600 0.0000 0.0000 0.0000
# 4 0.0000 0.0000 0.0000 12.5323 0.0000 0.0000
# 5 0.0000 0.0000 0.0000 0.0000 23.5691 0.0000
# 6 0.0000 0.0000 0.0000 0.0000 0.0000 38.1569
#
#
#
# Elastic Compliance Matrix: (Units=1/GPa)
#
#
# Indices 1 2 3 4 5 6 
#
# 1 0.016497 -0.005802 0.001433 0.000000 0.000000 0.000000
# 2 -0.005802 0.009060 -0.002641 0.000000 0.000000 0.000000
# 3 0.001433 -0.002641 0.012757 0.000000 0.000000 0.000000
# 4 0.000000 0.000000 0.000000 0.079794 0.000000 0.000000
# 5 0.000000 0.000000 0.000000 0.000000 0.042428 0.000000
# 6 0.000000 0.000000 0.000000 0.000000 0.000000 0.026208
#
#
# Mechanical properties :
#
#
# Convention : Reuss Voigt Hill
#
# Bulk Modulus (GPa) = 41.15884 51.92207 46.54045
# Shear Modulus (GPa) = 23.93948 30.46638 27.20293
#
# Velocity S-wave (km/s) = 3.37020 3.80197 3.59258
# Velocity P-wave (km/s) = 5.88833 6.62632 6.26820
#
# Compressibility (1/GPa) = 0.02429612
#
# Stress axis : x y z
#
# Youngs Moduli (GPa) = 60.61615 110.37536 78.39087
#
# Poissons Ratio (x) = 0.64035 -0.11235
# Poissons Ratio (y) = 0.35167 0.20700
# Poissons Ratio (z) = -0.08688 0.29145
#
# Static dielectric constant tensor:
#      x y z
#    x 1.768990 0.000000 0.000000 
#    y 0.000000 1.790950 0.000000 
#    z 0.000000 0.000000 1.758750 
# 
# From -- ./inp_files/18989.got.cif
#   From: 2010.05.17/outbox.cif.g08.bks.cpg/sg56_10_cif.got.tgz:18989.got - 2010.06.03 13:42:01.
