data_PCOD9432867
_publ_section_title
;
Structure prediction by ZEFSAII (Michael W. Deem and Ramdas Pophale) SiO2 
 PCOD9432867
Probable space group: P C C N
;
_chemical_formula_sum "Si O2"
_cell_formula_units_Z 32
_cell_length_a 9.426242
_cell_length_b 13.880818
_cell_length_c 9.524617
_cell_angle_alpha 90.000000
_cell_angle_beta 90.000000
_cell_angle_gamma 90.000000
_cell_volume 1246.238507
_symmetry_space_group_name_H-M "P C C N"
_symmetry_group_IT_number 56
_symmetry_cell_setting 'orthorhombic'
loop_
_space_group_symop_operation_xyz
x,y,z
1/2-x,1/2-y,z
1/2+x,-y,1/2-z
-x,1/2+y,1/2-z
-x,-y,-z
1/2+x,1/2+y,-z
1/2-x,y,1/2+z
x,1/2-y,1/2+z
loop_
_atom_site_type_symbol
_atom_site_label
_atom_site_fract_x
_atom_site_fract_y
_atom_site_fract_z
Si Si1 0.667282 0.576196 0.995248
Si Si2 0.963215 0.656587 0.067189
Si Si3 0.173559 0.542085 0.223567
Si Si4 0.056293 0.712727 0.344851
O O1 0.809224 0.640395 0.005322
O O2 0.651846 0.530449 0.148661
O O3 0.706079 0.494371 0.880606
O O4 0.537490 0.637416 0.937053
O O5 0.967071 0.728170 0.201473
O O6 0.030679 0.559396 0.132187
O O7 0.064053 0.697762 0.946922
O O8 0.188192 0.649860 0.287546
#
# Coordination Sequence:
#
# PCOD9432867 Si02
#       4
#     8   8   8   8
#     4  12  21  44  71  98 128 176 224 268 323 388
#     4  10  24  42  66  97 135 171 215 272 326 387
#     4  10  24  42  63 102 129 174 214 280 318 390
#     4  10  24  42  66  97 135 171 215 272 326 387
#
# _framework density 25.677268999999999
#
# number of rings (size 3 to 8) (size 9 to 14) (size 15 to 20)
#    1.500    0.000    2.500    2.250    3.500    2.000 
#    4.500    3.750    0.000    0.000    0.000    0.000 
#    0.000    0.000    0.000    0.000    0.000    0.000 
#
# Total GULP energy -178856.393281 kJ/mol
# GULP energy per Si atom -5589.262290 kJ/mol
# Density = 2.561883 g / cm^3
# Si number density = 25.677269 Si / 1000 Ang^3
#
#
#
# Elastic Constant Matrix: (Units=GPa)
#
#
# Indices 1 2 3 4 5 6 
#
# 1 44.7208 21.2765 37.6504 0.0000 0.0000 0.0000
# 2 21.2765 62.5910 55.3668 0.0000 0.0000 0.0000
# 3 37.6504 55.3668 170.1559 0.0000 0.0000 0.0000
# 4 0.0000 0.0000 0.0000 47.7365 0.0000 0.0000
# 5 0.0000 0.0000 0.0000 0.0000 34.0936 0.0000
# 6 0.0000 0.0000 0.0000 0.0000 0.0000 27.2743
#
#
#
# Elastic Compliance Matrix: (Units=1/GPa)
#
#
# Indices 1 2 3 4 5 6 
#
# 1 0.028933 -0.005858 -0.004496 0.000000 0.000000 0.000000
# 2 -0.005858 0.023620 -0.006389 0.000000 0.000000 0.000000
# 3 -0.004496 -0.006389 0.008951 0.000000 0.000000 0.000000
# 4 0.000000 0.000000 0.000000 0.020948 0.000000 0.000000
# 5 0.000000 0.000000 0.000000 0.000000 0.029331 0.000000
# 6 0.000000 0.000000 0.000000 0.000000 0.000000 0.036664
#
#
# Mechanical properties :
#
#
# Convention : Reuss Voigt Hill
#
# Bulk Modulus (GPa) = 35.69269 56.22833 45.96051
# Shear Modulus (GPa) = 26.14051 32.69915 29.41983
#
# Velocity S-wave (km/s) = 3.19414 3.57244 3.38857
# Velocity P-wave (km/s) = 5.24729 6.24196 5.76611
#
# Compressibility (1/GPa) = 0.02801694
#
# Stress axis : x y z
#
# Youngs Moduli (GPa) = 34.56246 42.33681 111.72181
#
# Poissons Ratio (x) = 0.24802 0.50228
# Poissons Ratio (y) = 0.20248 0.71384
# Poissons Ratio (z) = 0.15539 0.27051
#
# Static dielectric constant tensor:
#      x y z
#    x 2.038520 0.000000 0.000000 
#    y 0.000000 2.098250 0.000000 
#    z 0.000000 0.000000 1.984520 
# 
# From -- ./inp_files/2416.got.cif
#   From: 2010.05.17/outbox.cif.g08.bks.cpg/sg56_2_cif.got.tgz:2416.got - 2010.06.03 13:42:01.
