data_PCOD9432825
_publ_section_title
;
Structure prediction by ZEFSAII (Michael W. Deem and Ramdas Pophale) SiO2 
 PCOD9432825
Probable space group: P C C N
;
_chemical_formula_sum "Si O2"
_cell_formula_units_Z 48
_cell_length_a 9.502259
_cell_length_b 24.204044
_cell_length_c 8.865005
_cell_angle_alpha 90.000000
_cell_angle_beta 90.000000
_cell_angle_gamma 90.000000
_cell_volume 2038.889937
_symmetry_space_group_name_H-M "P C C N"
_symmetry_group_IT_number 56
_symmetry_cell_setting 'orthorhombic'
loop_
_space_group_symop_operation_xyz
x,y,z
1/2-x,1/2-y,z
1/2+x,-y,1/2-z
-x,1/2+y,1/2-z
-x,-y,-z
1/2+x,1/2+y,-z
1/2-x,y,1/2+z
x,1/2-y,1/2+z
loop_
_atom_site_type_symbol
_atom_site_label
_atom_site_fract_x
_atom_site_fract_y
_atom_site_fract_z
Si Si1 0.513940 0.924784 0.475900
Si Si2 0.250000 0.250000 0.864164
Si Si3 0.750000 0.250000 0.136240
Si Si4 0.479335 0.484019 0.737988
Si Si5 0.106801 0.812676 0.622593
Si Si6 0.175187 0.565330 0.017230
Si Si7 0.372078 0.309413 0.137616
O O1 0.546386 0.969874 0.347881
O O2 0.342518 0.925164 0.494065
O O3 0.575890 0.868074 0.417588
O O4 0.579082 0.941675 0.637061
O O5 0.265849 0.300290 0.739543
O O6 0.359155 0.272541 0.990978
O O7 0.775588 0.199422 0.250286
O O8 0.636074 0.225817 0.020406
O O9 0.593763 0.453665 0.633785
O O10 0.367504 0.516918 0.635172
O O11 0.110913 0.876487 0.575401
O O12 0.973902 0.794823 0.721923
#
# Coordination Sequence:
#
# PCOD9432825 Si02
#       7
#     8   4   4   8   8   8   8
#     4  11  23  46  71 104 137 186 239 290 351 428
#     4  10  26  50  74  98 150 180 238 300 352 424
#     4  10  24  38  66 112 142 180 218 296 348 416
#     4  10  24  44  65 105 143 187 231 295 355 419
#     4  11  22  42  68 105 142 182 233 281 353 423
#     4  11  23  45  72 100 145 187 232 295 351 418
#     4  11  23  49  72 102 134 195 233 292 353 429
#
# _framework density 23.542224000000001
#
# number of rings (size 3 to 8) (size 9 to 14) (size 15 to 20)
#    0.000    1.333    1.667    3.000    2.333    1.333 
#   18.000    0.000    0.000    0.000    0.000    0.000 
#    0.000    0.000    0.000    0.000    0.000    0.000 
#
# Total GULP energy -267400.531807 kJ/mol
# GULP energy per Si atom -5570.844413 kJ/mol
# Density = 2.348864 g / cm^3
# Si number density = 23.542224 Si / 1000 Ang^3
#
#
#
# Elastic Constant Matrix: (Units=GPa)
#
#
# Indices 1 2 3 4 5 6 
#
# 1 131.6224 46.1535 65.6364 0.0000 0.0000 0.0000
# 2 46.1535 139.6015 99.2009 0.0000 0.0000 0.0000
# 3 65.6364 99.2009 232.5292 0.0000 0.0000 0.0000
# 4 0.0000 0.0000 0.0000 55.6020 0.0000 0.0000
# 5 0.0000 0.0000 0.0000 0.0000 26.2473 0.0000
# 6 0.0000 0.0000 0.0000 0.0000 0.0000 36.3627
#
#
#
# Elastic Compliance Matrix: (Units=1/GPa)
#
#
# Indices 1 2 3 4 5 6 
#
# 1 0.009115 -0.001701 -0.001847 0.000000 0.000000 0.000000
# 2 -0.001701 0.010597 -0.004041 0.000000 0.000000 0.000000
# 3 -0.001847 -0.004041 0.006546 0.000000 0.000000 0.000000
# 4 0.000000 0.000000 0.000000 0.017985 0.000000 0.000000
# 5 0.000000 0.000000 0.000000 0.000000 0.038099 0.000000
# 6 0.000000 0.000000 0.000000 0.000000 0.000000 0.027501
#
#
# Mechanical properties :
#
#
# Convention : Reuss Voigt Hill
#
# Bulk Modulus (GPa) = 90.25213 102.85938 96.55576
# Shear Modulus (GPa) = 38.84588 43.15989 41.00288
#
# Velocity S-wave (km/s) = 4.06649 4.28635 4.17786
# Velocity P-wave (km/s) = 7.77611 8.26337 8.02344
#
# Compressibility (1/GPa) = 0.01108007
#
# Stress axis : x y z
#
# Youngs Moduli (GPa) = 109.70808 94.36732 152.76911
#
# Poissons Ratio (x) = 0.16050 0.28222
# Poissons Ratio (y) = 0.18659 0.61730
# Poissons Ratio (z) = 0.20267 0.38131
#
# Static dielectric constant tensor:
#      x y z
#    x 1.725530 0.000000 0.000000 
#    y 0.000000 1.859730 0.000000 
#    z 0.000000 0.000000 1.828690 
# 
# From -- ./inp_files/2808.got.cif
#   From: 2010.05.17/outbox.cif.g08.bks.cpg/sg56_2_cif.got.tgz:2808.got - 2010.06.03 13:42:01.
