data_PCOD9432958
_publ_section_title
;
Structure prediction by ZEFSAII (Michael W. Deem and Ramdas Pophale) SiO2 
 PCOD9432958
Probable space group: P C C N
;
_chemical_formula_sum "Si O2"
_cell_formula_units_Z 28
_cell_length_a 6.425140
_cell_length_b 11.499721
_cell_length_c 15.446030
_cell_angle_alpha 90.000000
_cell_angle_beta 90.000000
_cell_angle_gamma 90.000000
_cell_volume 1141.265721
_symmetry_space_group_name_H-M "P C C N"
_symmetry_group_IT_number 56
_symmetry_cell_setting 'orthorhombic'
loop_
_space_group_symop_operation_xyz
x,y,z
1/2-x,1/2-y,z
1/2+x,-y,1/2-z
-x,1/2+y,1/2-z
-x,-y,-z
1/2+x,1/2+y,-z
1/2-x,y,1/2+z
x,1/2-y,1/2+z
loop_
_atom_site_type_symbol
_atom_site_label
_atom_site_fract_x
_atom_site_fract_y
_atom_site_fract_z
Si Si1 0.251791 0.488325 0.976852
Si Si2 0.250000 0.250000 0.057746
Si Si3 0.286850 0.883148 0.644741
Si Si4 0.960199 0.414711 0.170643
O O1 0.294340 0.353863 0.991604
O O2 0.360377 0.550531 0.058462
O O3 0.753156 0.446404 0.115039
O O4 0.000000 0.500000 0.000000
O O5 0.079604 0.309733 0.121204
O O6 0.250000 0.750000 0.619643
O O7 0.423784 0.880128 0.730770
O O8 0.091664 0.964788 0.672195
#
# Coordination Sequence:
#
# PCOD9432958 Si02
#       4
#     8   4   8   8
#     4  11  26  45  73 103 141 191 240 296 371 426
#     4  10  24  44  72 102 144 186 234 304 348 440
#     4  11  26  43  70 104 141 186 237 299 361 429
#     4  11  26  47  71 108 145 188 248 293 369 434
#
# _framework density 24.534162999999999
#
# number of rings (size 3 to 8) (size 9 to 14) (size 15 to 20)
#    0.000    1.143    0.000    5.143   20.000    0.000 
#    0.000    0.000    0.000    0.000    0.000    0.000 
#    0.000    0.000    0.000    0.000    0.000    0.000 
#
# Total GULP energy -156124.900527 kJ/mol
# GULP energy per Si atom -5575.889305 kJ/mol
# Density = 2.447832 g / cm^3
# Si number density = 24.534163 Si / 1000 Ang^3
#
#
#
# Elastic Constant Matrix: (Units=GPa)
#
#
# Indices 1 2 3 4 5 6 
#
# 1 47.0865 37.1816 12.7596 0.0000 0.0000 0.0000
# 2 37.1816 232.0215 60.8993 0.0000 0.0000 0.0000
# 3 12.7596 60.8993 144.7311 0.0000 0.0000 0.0000
# 4 0.0000 0.0000 0.0000 41.3866 0.0000 0.0000
# 5 0.0000 0.0000 0.0000 0.0000 45.6034 0.0000
# 6 0.0000 0.0000 0.0000 0.0000 0.0000 28.8937
#
#
#
# Elastic Compliance Matrix: (Units=1/GPa)
#
#
# Indices 1 2 3 4 5 6 
#
# 1 0.024356 -0.003754 -0.000568 0.000000 0.000000 0.000000
# 2 -0.003754 0.005424 -0.001951 0.000000 0.000000 0.000000
# 3 -0.000568 -0.001951 0.007780 0.000000 0.000000 0.000000
# 4 0.000000 0.000000 0.000000 0.024162 0.000000 0.000000
# 5 0.000000 0.000000 0.000000 0.000000 0.021928 0.000000
# 6 0.000000 0.000000 0.000000 0.000000 0.000000 0.034610
#
#
# Mechanical properties :
#
#
# Convention : Reuss Voigt Hill
#
# Bulk Modulus (GPa) = 39.97744 71.72445 55.85095
# Shear Modulus (GPa) = 35.93406 44.04329 39.98868
#
# Velocity S-wave (km/s) = 3.83123 4.24156 4.04160
# Velocity P-wave (km/s) = 5.99175 7.29971 6.67783
#
# Compressibility (1/GPa) = 0.02501411
#
# Stress axis : x y z
#
# Youngs Moduli (GPa) = 41.05820 184.37717 128.52780
#
# Poissons Ratio (x) = 0.69216 0.07295
# Poissons Ratio (y) = 0.15413 0.25078
# Poissons Ratio (z) = 0.02330 0.35975
#
# Static dielectric constant tensor:
#      x y z
#    x 2.423710 0.000000 0.000000 
#    y 0.000000 1.797270 0.000000 
#    z 0.000000 0.000000 2.024820 
# 
# From -- ./inp_files/9993.got.cif
#   From: 2010.05.17/outbox.cif.g08.bks.cpg/sg56_5_cif.got.tgz:9993.got - 2010.06.03 13:42:01.
