data_PCOD9432009
_publ_section_title
;
Structure prediction by ZEFSAII (Michael W. Deem and Ramdas Pophale) SiO2 
 PCOD9432009
Probable space group: P C C N
;
_chemical_formula_sum "Si O2"
_cell_formula_units_Z 40
_cell_length_a 12.320893
_cell_length_b 24.571474
_cell_length_c 5.576386
_cell_angle_alpha 90.000000
_cell_angle_beta 90.000000
_cell_angle_gamma 90.000000
_cell_volume 1688.209050
_symmetry_space_group_name_H-M "P C C N"
_symmetry_group_IT_number 56
_symmetry_cell_setting 'orthorhombic'
loop_
_space_group_symop_operation_xyz
x,y,z
1/2-x,1/2-y,z
1/2+x,-y,1/2-z
-x,1/2+y,1/2-z
-x,-y,-z
1/2+x,1/2+y,-z
1/2-x,y,1/2+z
x,1/2-y,1/2+z
loop_
_atom_site_type_symbol
_atom_site_label
_atom_site_fract_x
_atom_site_fract_y
_atom_site_fract_z
Si Si1 0.269611 0.630824 0.545757
Si Si2 0.983518 0.874938 0.464287
Si Si3 0.815774 0.959648 0.620357
Si Si4 0.792052 0.811468 0.371877
Si Si5 0.425770 0.547543 0.120090
O O1 0.264614 0.659598 0.289169
O O2 0.398268 0.623667 0.574600
O O3 0.183742 0.578983 0.522672
O O4 0.905066 0.912889 0.618051
O O5 0.918905 0.819048 0.428764
O O6 0.996540 0.904465 0.207227
O O7 0.753977 0.957402 0.365857
O O8 0.879977 0.016267 0.645861
O O9 0.750000 0.750000 0.353145
O O10 0.768072 0.835683 0.107716
O O11 0.500000 0.500000 0.000000
#
# Coordination Sequence:
#
# PCOD9432009 Si02
#       5
#     8   8   8   8   8
#     4  10  22  39  57  86 125 169 222 265 311 381
#     4  11  23  39  63  93 129 177 220 275 336 394
#     4  12  24  38  56  85 128 175 222 263 310 383
#     4  10  23  45  70  99 129 163 217 283 351 418
#     4  11  23  41  60  89 133 184 229 270 319 394
#
# _framework density 23.693749
#
# number of rings (size 3 to 8) (size 9 to 14) (size 15 to 20)
#    0.000    1.200    0.000    6.600    0.000    8.000 
#    0.000    0.000    0.000    0.000    0.000   67.200 
#    0.000    0.000    0.000    0.000    0.000    0.000 
#
# Total GULP energy -222852.862365 kJ/mol
# GULP energy per Si atom -5571.321559 kJ/mol
# Density = 2.363982 g / cm^3
# Si number density = 23.693749 Si / 1000 Ang^3
#
#
#
# Elastic Constant Matrix: (Units=GPa)
#
#
# Indices 1 2 3 4 5 6 
#
# 1 147.7270 37.5192 40.7665 0.0000 0.0000 0.0000
# 2 37.5192 54.2329 2.6855 0.0000 0.0000 0.0000
# 3 40.7665 2.6855 134.2881 0.0000 0.0000 0.0000
# 4 0.0000 0.0000 0.0000 6.4867 0.0000 0.0000
# 5 0.0000 0.0000 0.0000 0.0000 49.1917 0.0000
# 6 0.0000 0.0000 0.0000 0.0000 0.0000 39.6104
#
#
#
# Elastic Compliance Matrix: (Units=1/GPa)
#
#
# Indices 1 2 3 4 5 6 
#
# 1 0.009051 -0.006132 -0.002625 0.000000 0.000000 0.000000
# 2 -0.006132 0.022611 0.001409 0.000000 0.000000 0.000000
# 3 -0.002625 0.001409 0.008215 0.000000 0.000000 0.000000
# 4 0.000000 0.000000 0.000000 0.154162 0.000000 0.000000
# 5 0.000000 0.000000 0.000000 0.000000 0.020329 0.000000
# 6 0.000000 0.000000 0.000000 0.000000 0.000000 0.025246
#
#
# Mechanical properties :
#
#
# Convention : Reuss Voigt Hill
#
# Bulk Modulus (GPa) = 39.70986 55.35451 47.53218
# Shear Modulus (GPa) = 19.03293 36.07621 27.55457
#
# Velocity S-wave (km/s) = 2.83731 3.90629 3.41390
# Velocity P-wave (km/s) = 5.24688 6.61503 5.97028
#
# Compressibility (1/GPa) = 0.02518266
#
# Stress axis : x y z
#
# Youngs Moduli (GPa) = 110.48600 44.22598 121.72291
#
# Poissons Ratio (x) = 0.27118 0.31952
# Poissons Ratio (y) = 0.67745 -0.17153
# Poissons Ratio (z) = 0.29003 -0.06232
#
# Static dielectric constant tensor:
#      x y z
#    x 1.963920 0.000000 0.000000 
#    y 0.000000 2.087280 0.000000 
#    z 0.000000 0.000000 2.017290 
# 
# From -- ./inp_files/302.got.cif
#   From: 2010.05.17/outbox.cif.g08.bks.cpg/sg56_1_cif.got.tgz:302.got - 2010.06.03 13:42:01.
