data_PCOD9432630
_publ_section_title
;
Structure prediction by ZEFSAII (Michael W. Deem and Ramdas Pophale) SiO2 
 PCOD9432630
Probable space group: P C C N
;
_chemical_formula_sum "Si O2"
_cell_formula_units_Z 60
_cell_length_a 6.311384
_cell_length_b 24.140413
_cell_length_c 17.541200
_cell_angle_alpha 90.000000
_cell_angle_beta 90.000000
_cell_angle_gamma 90.000000
_cell_volume 2672.566994
_symmetry_space_group_name_H-M "P C C N"
_symmetry_group_IT_number 56
_symmetry_cell_setting 'orthorhombic'
loop_
_space_group_symop_operation_xyz
x,y,z
1/2-x,1/2-y,z
1/2+x,-y,1/2-z
-x,1/2+y,1/2-z
-x,-y,-z
1/2+x,1/2+y,-z
1/2-x,y,1/2+z
x,1/2-y,1/2+z
loop_
_atom_site_type_symbol
_atom_site_label
_atom_site_fract_x
_atom_site_fract_y
_atom_site_fract_z
Si Si1 0.250000 0.250000 0.023046
Si Si2 0.571664 0.936990 0.003216
Si Si3 0.890648 0.925709 0.876225
Si Si4 0.835152 0.634760 0.752753
Si Si5 0.932731 0.217753 0.634904
Si Si6 0.315428 0.347506 0.917514
Si Si7 0.201297 0.639979 0.486235
Si Si8 0.027339 0.981948 0.223028
O O1 0.434547 0.261210 0.083959
O O2 0.197926 0.302240 0.970236
O O3 0.745333 0.910169 0.060048
O O4 0.665609 0.924333 0.919334
O O5 0.367573 0.901619 0.022406
O O6 0.500000 0.000000 0.000000
O O7 0.861912 0.893206 0.796994
O O8 0.052520 0.895559 0.930535
O O9 0.956773 0.988398 0.858738
O O10 0.780447 0.660229 0.671229
O O11 0.931720 0.680154 0.809209
O O12 0.995142 0.583377 0.735098
O O13 0.750000 0.250000 0.678804
O O14 0.826037 0.180557 0.569543
O O15 0.554883 0.337139 0.946268
O O16 0.279254 0.995980 0.251486
#
# Coordination Sequence:
#
# PCOD9432630 Si02
#       8
#     4   8   8   8   8   8   8   8
#     4  12  24  50  74  94 132 186 244 294 370 438
#     4  11  25  42  73 105 140 193 243 290 357 452
#     4  10  23  42  72  99 141 193 237 287 355 459
#     4  11  25  46  65 108 145 180 238 303 382 431
#     4  12  24  46  76  96 128 186 246 299 360 449
#     4  11  26  45  67 106 143 182 235 311 368 433
#     4  11  22  46  71 100 135 186 247 283 357 442
#     4  10  23  42  68 104 151 193 231 292 369 443
#
# _framework density 22.450326
#
# number of rings (size 3 to 8) (size 9 to 14) (size 15 to 20)
#    0.000    1.067    4.000    1.600    5.600    3.733 
#    4.800    0.000    0.000    0.000    0.000    0.000 
#    0.000    0.000    0.000    0.000    0.000    0.000 
#
# Total GULP energy -334164.181797 kJ/mol
# GULP energy per Si atom -5569.403030 kJ/mol
# Density = 2.239923 g / cm^3
# Si number density = 22.450326 Si / 1000 Ang^3
#
#
#
# Elastic Constant Matrix: (Units=GPa)
#
#
# Indices 1 2 3 4 5 6 
#
# 1 73.9272 12.2518 26.8555 0.0000 0.0000 0.0000
# 2 12.2518 59.3699 15.8124 0.0000 0.0000 0.0000
# 3 26.8555 15.8124 100.7453 0.0000 0.0000 0.0000
# 4 0.0000 0.0000 0.0000 26.7496 0.0000 0.0000
# 5 0.0000 0.0000 0.0000 0.0000 12.6652 0.0000
# 6 0.0000 0.0000 0.0000 0.0000 0.0000 36.9594
#
#
#
# Elastic Compliance Matrix: (Units=1/GPa)
#
#
# Indices 1 2 3 4 5 6 
#
# 1 0.015236 -0.002152 -0.003724 0.000000 0.000000 0.000000
# 2 -0.002152 0.017882 -0.002233 0.000000 0.000000 0.000000
# 3 -0.003724 -0.002233 0.011269 0.000000 0.000000 0.000000
# 4 0.000000 0.000000 0.000000 0.037384 0.000000 0.000000
# 5 0.000000 0.000000 0.000000 0.000000 0.078957 0.000000
# 6 0.000000 0.000000 0.000000 0.000000 0.000000 0.027057
#
#
# Mechanical properties :
#
#
# Convention : Reuss Voigt Hill
#
# Bulk Modulus (GPa) = 35.49918 38.20908 36.85413
# Shear Modulus (GPa) = 23.43095 27.21634 25.32364
#
# Velocity S-wave (km/s) = 3.23411 3.48558 3.36219
# Velocity P-wave (km/s) = 5.45826 5.76674 5.61462
#
# Compressibility (1/GPa) = 0.02816966
#
# Stress axis : x y z
#
# Youngs Moduli (GPa) = 65.63295 55.92071 88.73825
#
# Poissons Ratio (x) = 0.12037 0.33043
# Poissons Ratio (y) = 0.14127 0.19815
# Poissons Ratio (z) = 0.24440 0.12487
#
# Static dielectric constant tensor:
#      x y z
#    x 1.958160 0.000000 0.000000 
#    y 0.000000 1.873430 0.000000 
#    z 0.000000 0.000000 1.802070 
# 
# From -- ./inp_files/14109.got.cif
#   From: 2010.05.17/outbox.cif.g08.bks.cpg/sg56_8_cif.got.tgz:14109.got - 2010.06.03 13:42:01.
