data_PCOD9432545
_publ_section_title
;
Structure prediction by ZEFSAII (Michael W. Deem and Ramdas Pophale) SiO2 
 PCOD9432545
Probable space group: P C C N
;
_chemical_formula_sum "Si O2"
_cell_formula_units_Z 32
_cell_length_a 7.051343
_cell_length_b 14.611982
_cell_length_c 10.472977
_cell_angle_alpha 90.000000
_cell_angle_beta 90.000000
_cell_angle_gamma 90.000000
_cell_volume 1079.073728
_symmetry_space_group_name_H-M "P C C N"
_symmetry_group_IT_number 56
_symmetry_cell_setting 'orthorhombic'
loop_
_space_group_symop_operation_xyz
x,y,z
1/2-x,1/2-y,z
1/2+x,-y,1/2-z
-x,1/2+y,1/2-z
-x,-y,-z
1/2+x,1/2+y,-z
1/2-x,y,1/2+z
x,1/2-y,1/2+z
loop_
_atom_site_type_symbol
_atom_site_label
_atom_site_fract_x
_atom_site_fract_y
_atom_site_fract_z
Si Si1 0.277420 0.069018 0.051117
Si Si2 0.566387 0.189120 0.341090
Si Si3 0.019288 0.750060 0.407658
Si Si4 0.111973 0.495177 0.792721
O O1 0.413569 0.158478 0.040479
O O2 0.129310 0.070460 0.170408
O O3 0.417335 0.995030 0.126427
O O4 0.243165 0.027962 0.909006
O O5 0.750000 0.250000 0.369528
O O6 0.453658 0.248613 0.238523
O O7 0.473289 0.177739 0.480038
O O8 0.614207 0.096844 0.267145
O O9 0.250000 0.750000 0.392085
#
# Coordination Sequence:
#
# PCOD9432545 Si02
#       4
#     8   8   8   8
#     4  10  23  43  66 108 143 191 238 294 358 429
#     4   9  19  32  60 100 127 177 228 282 338 421
#     4   9  19  38  64  98 130 177 241 288 346 420
#     4  10  23  39  68 101 150 186 239 296 353 428
#
# _framework density 29.655061
#
# number of rings (size 3 to 8) (size 9 to 14) (size 15 to 20)
#    0.000    2.500    0.000    0.000   24.500    1.000 
#    0.000    5.000    0.000   24.000    0.000    0.000 
#    0.000    0.000    0.000    0.000    0.000    0.000 
#
# Total GULP energy -178554.255564 kJ/mol
# GULP energy per Si atom -5579.820486 kJ/mol
# Density = 2.958756 g / cm^3
# Si number density = 29.655061 Si / 1000 Ang^3
#
#
#
# Elastic Constant Matrix: (Units=GPa)
#
#
# Indices 1 2 3 4 5 6 
#
# 1 98.8812 6.2056 -18.0925 0.0000 0.0000 0.0000
# 2 6.2056 120.9861 85.3465 0.0000 0.0000 0.0000
# 3 -18.0925 85.3465 359.7761 0.0000 0.0000 0.0000
# 4 0.0000 0.0000 0.0000 40.9133 0.0000 0.0000
# 5 0.0000 0.0000 0.0000 0.0000 39.4508 0.0000
# 6 0.0000 0.0000 0.0000 0.0000 0.0000 31.0243
#
#
#
# Elastic Compliance Matrix: (Units=1/GPa)
#
#
# Indices 1 2 3 4 5 6 
#
# 1 0.010322 -0.001076 0.000774 0.000000 0.000000 0.000000
# 2 -0.001076 0.010039 -0.002435 0.000000 0.000000 0.000000
# 3 0.000774 -0.002435 0.003396 0.000000 0.000000 0.000000
# 4 0.000000 0.000000 0.000000 0.024442 0.000000 0.000000
# 5 0.000000 0.000000 0.000000 0.000000 0.025348 0.000000
# 6 0.000000 0.000000 0.000000 0.000000 0.000000 0.032233
#
#
# Mechanical properties :
#
#
# Convention : Reuss Voigt Hill
#
# Bulk Modulus (GPa) = 54.69431 80.72918 67.71174
# Shear Modulus (GPa) = 42.60826 56.02324 49.31575
#
# Velocity S-wave (km/s) = 3.79462 4.35117 4.08239
# Velocity P-wave (km/s) = 6.13860 7.24744 6.71594
#
# Compressibility (1/GPa) = 0.01828344
#
# Stress axis : x y z
#
# Youngs Moduli (GPa) = 96.87748 99.61524 294.44781
#
# Poissons Ratio (x) = 0.10715 -0.22798
# Poissons Ratio (y) = 0.10420 0.71712
# Poissons Ratio (z) = -0.07501 0.24261
#
# Static dielectric constant tensor:
#      x y z
#    x -2.141640 0.000000 0.000000 
#    y 0.000000 2.512040 0.000000 
#    z 0.000000 0.000000 2.465960 
# 
# From -- ./inp_files/6081.got.cif
#   From: 2010.05.17/outbox.cif.g08.bks.cpg/sg56_4_cif.got.tgz:6081.got - 2010.06.03 13:42:01.
