data_PCOD9432425
_publ_section_title
;
Structure prediction by ZEFSAII (Michael W. Deem and Ramdas Pophale) SiO2 
 PCOD9432425
Probable space group: P C C N
;
_chemical_formula_sum "Si O2"
_cell_formula_units_Z 40
_cell_length_a 16.741320
_cell_length_b 5.477978
_cell_length_c 18.098999
_cell_angle_alpha 90.000000
_cell_angle_beta 90.000000
_cell_angle_gamma 90.000000
_cell_volume 1659.833546
_symmetry_space_group_name_H-M "P C C N"
_symmetry_group_IT_number 56
_symmetry_cell_setting 'orthorhombic'
loop_
_space_group_symop_operation_xyz
x,y,z
1/2-x,1/2-y,z
1/2+x,-y,1/2-z
-x,1/2+y,1/2-z
-x,-y,-z
1/2+x,1/2+y,-z
1/2-x,y,1/2+z
x,1/2-y,1/2+z
loop_
_atom_site_type_symbol
_atom_site_label
_atom_site_fract_x
_atom_site_fract_y
_atom_site_fract_z
Si Si1 0.638388 0.564205 0.996043
Si Si2 0.469052 0.638041 0.275778
Si Si3 0.750000 0.750000 0.618352
Si Si4 0.810889 0.442212 0.755721
Si Si5 0.250000 0.250000 0.622047
Si Si6 0.021640 0.796026 0.442592
O O1 0.674539 0.742534 0.060763
O O2 0.606675 0.327374 0.039072
O O3 0.706793 0.562037 0.933972
O O4 0.556446 0.625452 0.952038
O O5 0.469829 0.362515 0.243665
O O6 0.389853 0.790393 0.257900
O O7 0.475585 0.596462 0.362070
O O8 0.773713 0.541883 0.678537
O O9 0.750000 0.250000 0.788267
O O10 0.814642 0.641647 0.820635
O O11 0.000000 0.000000 0.500000
#
# Coordination Sequence:
#
# PCOD9432425 Si02
#       6
#     8   8   4   8   4   8
#     4  10  23  44  72 102 149 191 256 316 392 466
#     4  12  30  50  81 115 160 210 265 326 398 475
#     4  10  22  44  70 104 142 198 252 320 392 464
#     4  11  26  43  75 103 154 198 265 319 397 462
#     4  10  24  46  70 108 144 194 258 324 394 460
#     4  11  26  44  74 108 154 201 260 316 396 466
#
# _framework density 24.098801999999999
#
# number of rings (size 3 to 8) (size 9 to 14) (size 15 to 20)
#    0.000    1.200    2.000    1.200   16.800    1.600 
#    0.000    4.000    0.000    0.000    0.000    0.000 
#    0.000    0.000    0.000    0.000    0.000    0.000 
#
# Total GULP energy -222884.465906 kJ/mol
# GULP energy per Si atom -5572.111648 kJ/mol
# Density = 2.404395 g / cm^3
# Si number density = 24.098802 Si / 1000 Ang^3
#
#
#
# Elastic Constant Matrix: (Units=GPa)
#
#
# Indices 1 2 3 4 5 6 
#
# 1 90.4850 6.7197 37.4905 0.0000 0.0000 0.0000
# 2 6.7197 27.2733 31.6068 0.0000 0.0000 0.0000
# 3 37.4905 31.6068 176.7727 0.0000 0.0000 0.0000
# 4 0.0000 0.0000 0.0000 53.6043 0.0000 0.0000
# 5 0.0000 0.0000 0.0000 0.0000 22.1028 0.0000
# 6 0.0000 0.0000 0.0000 0.0000 0.0000 39.3257
#
#
#
# Elastic Compliance Matrix: (Units=1/GPa)
#
#
# Indices 1 2 3 4 5 6 
#
# 1 0.012116 -0.000009 -0.002568 0.000000 0.000000 0.000000
# 2 -0.000009 0.046249 -0.008267 0.000000 0.000000 0.000000
# 3 -0.002568 -0.008267 0.007680 0.000000 0.000000 0.000000
# 4 0.000000 0.000000 0.000000 0.018655 0.000000 0.000000
# 5 0.000000 0.000000 0.000000 0.000000 0.045243 0.000000
# 6 0.000000 0.000000 0.000000 0.000000 0.000000 0.025429
#
#
# Mechanical properties :
#
#
# Convention : Reuss Voigt Hill
#
# Bulk Modulus (GPa) = 22.54485 49.57389 36.05937
# Shear Modulus (GPa) = 26.06248 37.58748 31.82498
#
# Velocity S-wave (km/s) = 3.29216 3.95362 3.63795
# Velocity P-wave (km/s) = 4.88125 6.43873 5.71331
#
# Compressibility (1/GPa) = 0.04435603
#
# Stress axis : x y z
#
# Youngs Moduli (GPa) = 82.53384 21.62204 130.21172
#
# Poissons Ratio (x) = 0.00020 0.33438
# Poissons Ratio (y) = 0.00076 1.07650
# Poissons Ratio (z) = 0.21195 0.17876
#
# Static dielectric constant tensor:
#      x y z
#    x 2.373550 0.000000 0.000000 
#    y 0.000000 2.451800 0.000000 
#    z 0.000000 0.000000 1.874520 
# 
# From -- ./inp_files/16499.got.cif
#   From: 2010.05.17/outbox.cif.g08.bks.cpg/sg56_9_cif.got.tgz:16499.got - 2010.06.03 13:42:01.
