data_PCOD9432793
_publ_section_title
;
Structure prediction by ZEFSAII (Michael W. Deem and Ramdas Pophale) SiO2 
 PCOD9432793
Probable space group: P C C N
;
_chemical_formula_sum "Si O2"
_cell_formula_units_Z 40
_cell_length_a 7.860631
_cell_length_b 20.771590
_cell_length_c 10.656413
_cell_angle_alpha 90.000000
_cell_angle_beta 90.000000
_cell_angle_gamma 90.000000
_cell_volume 1739.955716
_symmetry_space_group_name_H-M "P C C N"
_symmetry_group_IT_number 56
_symmetry_cell_setting 'orthorhombic'
loop_
_space_group_symop_operation_xyz
x,y,z
1/2-x,1/2-y,z
1/2+x,-y,1/2-z
-x,1/2+y,1/2-z
-x,-y,-z
1/2+x,1/2+y,-z
1/2-x,y,1/2+z
x,1/2-y,1/2+z
loop_
_atom_site_type_symbol
_atom_site_label
_atom_site_fract_x
_atom_site_fract_y
_atom_site_fract_z
Si Si1 0.985210 0.164810 0.009466
Si Si2 0.250000 0.750000 0.352897
Si Si3 0.750000 0.750000 0.114426
Si Si4 0.041010 0.960005 0.875123
Si Si5 0.945500 0.037265 0.625273
Si Si6 0.456281 0.162232 0.243240
O O1 0.811103 0.192174 0.060670
O O2 0.044235 0.109876 0.103898
O O3 0.100886 0.227800 0.980231
O O4 0.970615 0.132327 0.872939
O O5 0.413835 0.722069 0.279916
O O6 0.774650 0.809335 0.211661
O O7 0.244120 0.951171 0.873832
O O8 0.988274 0.993979 0.746717
O O9 0.000000 0.000000 0.000000
O O10 0.037130 0.106789 0.640965
O O11 0.000000 0.000000 0.500000
#
# Coordination Sequence:
#
# PCOD9432793 Si02
#       6
#     8   4   4   8   8   8
#     4  10  23  47  73 103 150 198 252 315 379 475
#     4  12  22  42  80 100 152 190 254 308 412 454
#     4   8  22  46  68 110 150 176 260 306 390 442
#     4  12  24  52  74 108 157 206 262 317 387 465
#     4  12  27  48  78 113 158 207 264 321 395 460
#     4  10  23  49  69 109 148 197 248 322 383 469
#
# _framework density 22.989090999999998
#
# number of rings (size 3 to 8) (size 9 to 14) (size 15 to 20)
#    1.200    0.000    4.000    1.800    0.000    0.800 
#   25.200    0.000    0.000    1.200    0.000    0.000 
#    0.000    0.000    0.000    0.000    0.000    0.000 
#
# Total GULP energy -222815.049013 kJ/mol
# GULP energy per Si atom -5570.376225 kJ/mol
# Density = 2.293677 g / cm^3
# Si number density = 22.989091 Si / 1000 Ang^3
#
#
#
# Elastic Constant Matrix: (Units=GPa)
#
#
# Indices 1 2 3 4 5 6 
#
# 1 90.5634 40.4333 35.4189 0.0000 0.0000 0.0000
# 2 40.4333 132.7500 67.1424 0.0000 0.0000 0.0000
# 3 35.4189 67.1424 127.3849 0.0000 0.0000 0.0000
# 4 0.0000 0.0000 0.0000 48.8476 0.0000 0.0000
# 5 0.0000 0.0000 0.0000 0.0000 24.4796 0.0000
# 6 0.0000 0.0000 0.0000 0.0000 0.0000 27.4986
#
#
#
# Elastic Compliance Matrix: (Units=1/GPa)
#
#
# Indices 1 2 3 4 5 6 
#
# 1 0.013184 -0.002947 -0.002112 0.000000 0.000000 0.000000
# 2 -0.002947 0.010930 -0.004942 0.000000 0.000000 0.000000
# 3 -0.002112 -0.004942 0.011042 0.000000 0.000000 0.000000
# 4 0.000000 0.000000 0.000000 0.020472 0.000000 0.000000
# 5 0.000000 0.000000 0.000000 0.000000 0.040850 0.000000
# 6 0.000000 0.000000 0.000000 0.000000 0.000000 0.036366
#
#
# Mechanical properties :
#
#
# Convention : Reuss Voigt Hill
#
# Bulk Modulus (GPa) = 65.98959 70.74303 68.36631
# Shear Modulus (GPa) = 31.66616 34.01206 32.83911
#
# Velocity S-wave (km/s) = 3.71542 3.85058 3.78360
# Velocity P-wave (km/s) = 6.86825 7.11397 6.99219
#
# Compressibility (1/GPa) = 0.01515390
#
# Stress axis : x y z
#
# Youngs Moduli (GPa) = 75.84987 91.49162 90.56221
#
# Poissons Ratio (x) = 0.26965 0.19129
# Poissons Ratio (y) = 0.22355 0.44752
# Poissons Ratio (z) = 0.16022 0.45211
#
# Static dielectric constant tensor:
#      x y z
#    x 1.894080 0.000000 0.000000 
#    y 0.000000 1.916560 0.000000 
#    z 0.000000 0.000000 1.891250 
# 
# From -- ./inp_files/6333.got.cif
#   From: 2010.05.17/outbox.cif.g08.bks.cpg/sg56_4_cif.got.tgz:6333.got - 2010.06.03 13:42:01.
