data_PCOD9432696
_publ_section_title
;
Structure prediction by ZEFSAII (Michael W. Deem and Ramdas Pophale) SiO2 
 PCOD9432696
Probable space group: P C C N
;
_chemical_formula_sum "Si O2"
_cell_formula_units_Z 40
_cell_length_a 7.328848
_cell_length_b 9.950119
_cell_length_c 22.211581
_cell_angle_alpha 90.000000
_cell_angle_beta 90.000000
_cell_angle_gamma 90.000000
_cell_volume 1619.733116
_symmetry_space_group_name_H-M "P C C N"
_symmetry_group_IT_number 56
_symmetry_cell_setting 'orthorhombic'
loop_
_space_group_symop_operation_xyz
x,y,z
1/2-x,1/2-y,z
1/2+x,-y,1/2-z
-x,1/2+y,1/2-z
-x,-y,-z
1/2+x,1/2+y,-z
1/2-x,y,1/2+z
x,1/2-y,1/2+z
loop_
_atom_site_type_symbol
_atom_site_label
_atom_site_fract_x
_atom_site_fract_y
_atom_site_fract_z
Si Si1 0.750000 0.750000 0.909673
Si Si2 0.783441 0.518106 0.005252
Si Si3 0.619430 0.446921 0.725367
Si Si4 0.991318 0.824625 0.801888
Si Si5 0.393640 0.146237 0.876188
Si Si6 0.250000 0.750000 0.553887
O O1 0.738925 0.623712 0.953606
O O2 0.578322 0.733569 0.864926
O O3 0.697354 0.375661 0.988615
O O4 0.768182 0.577110 0.071799
O O5 0.000000 0.500000 0.000000
O O6 0.635565 0.553609 0.779270
O O7 0.511509 0.309585 0.738910
O O8 0.812440 0.394795 0.700637
O O9 0.539131 0.537212 0.671669
O O10 0.250000 0.250000 0.847812
O O11 0.573824 0.210890 0.906277
#
# Coordination Sequence:
#
# PCOD9432696 Si02
#       6
#     4   8   8   8   8   4
#     4  12  24  44  74 100 138 188 234 288 366 424
#     4  10  23  44  66 103 139 183 234 288 353 430
#     4  11  27  46  72 105 143 183 243 300 363 431
#     4  11  26  47  73 105 139 190 237 302 360 432
#     4  11  25  44  71 108 143 186 243 299 357 435
#     4  10  24  42  70 100 146 192 230 296 358 424
#
# _framework density 24.695426000000001
#
# number of rings (size 3 to 8) (size 9 to 14) (size 15 to 20)
#    0.000    1.200    1.000    3.600    7.000    7.200 
#    0.000    0.000    0.000    0.000    0.000    0.000 
#    0.000    0.000    0.000    0.000    0.000    0.000 
#
# Total GULP energy -223750.890573 kJ/mol
# GULP energy per Si atom -5593.772264 kJ/mol
# Density = 2.463922 g / cm^3
# Si number density = 24.695426 Si / 1000 Ang^3
#
#
#
# Elastic Constant Matrix: (Units=GPa)
#
#
# Indices 1 2 3 4 5 6 
#
# 1 83.0441 36.8425 9.6636 0.0000 0.0000 0.0000
# 2 36.8425 186.6875 48.6772 0.0000 0.0000 0.0000
# 3 9.6636 48.6772 75.5290 0.0000 0.0000 0.0000
# 4 0.0000 0.0000 0.0000 28.0943 0.0000 0.0000
# 5 0.0000 0.0000 0.0000 0.0000 82.2586 0.0000
# 6 0.0000 0.0000 0.0000 0.0000 0.0000 45.1625
#
#
#
# Elastic Compliance Matrix: (Units=1/GPa)
#
#
# Indices 1 2 3 4 5 6 
#
# 1 0.013197 -0.002601 -0.000012 0.000000 0.000000 0.000000
# 2 -0.002601 0.006951 -0.004147 0.000000 0.000000 0.000000
# 3 -0.000012 -0.004147 0.015914 0.000000 0.000000 0.000000
# 4 0.000000 0.000000 0.000000 0.035594 0.000000 0.000000
# 5 0.000000 0.000000 0.000000 0.000000 0.012157 0.000000
# 6 0.000000 0.000000 0.000000 0.000000 0.000000 0.022142
#
#
# Mechanical properties :
#
#
# Convention : Reuss Voigt Hill
#
# Bulk Modulus (GPa) = 44.36203 59.51414 51.93808
# Shear Modulus (GPa) = 39.37284 47.77491 43.57387
#
# Velocity S-wave (km/s) = 3.99725 4.40314 4.20509
# Velocity P-wave (km/s) = 6.26950 7.07119 6.68238
#
# Compressibility (1/GPa) = 0.02254180
#
# Stress axis : x y z
#
# Youngs Moduli (GPa) = 75.77321 143.85910 62.83675
#
# Poissons Ratio (x) = 0.37423 0.00076
# Poissons Ratio (y) = 0.19711 0.26059
# Poissons Ratio (z) = 0.00091 0.59660
#
# Static dielectric constant tensor:
#      x y z
#    x 2.050450 0.000000 0.000000 
#    y 0.000000 1.978330 0.000000 
#    z 0.000000 0.000000 2.127000 
# 
# From -- ./inp_files/20351.got.cif
#   From: 2010.05.17/outbox.cif.g08.bks.cpg/sg56_11_cif.got.tgz:20351.got - 2010.06.03 13:42:01.
