data_PCOD9432805
_publ_section_title
;
Structure prediction by ZEFSAII (Michael W. Deem and Ramdas Pophale) SiO2 
 PCOD9432805
Probable space group: P C C N
;
_chemical_formula_sum "Si O2"
_cell_formula_units_Z 48
_cell_length_a 15.174984
_cell_length_b 8.351904
_cell_length_c 17.476904
_cell_angle_alpha 90.000000
_cell_angle_beta 90.000000
_cell_angle_gamma 90.000000
_cell_volume 2215.022980
_symmetry_space_group_name_H-M "P C C N"
_symmetry_group_IT_number 56
_symmetry_cell_setting 'orthorhombic'
loop_
_space_group_symop_operation_xyz
x,y,z
1/2-x,1/2-y,z
1/2+x,-y,1/2-z
-x,1/2+y,1/2-z
-x,-y,-z
1/2+x,1/2+y,-z
1/2-x,y,1/2+z
x,1/2-y,1/2+z
loop_
_atom_site_type_symbol
_atom_site_label
_atom_site_fract_x
_atom_site_fract_y
_atom_site_fract_z
Si Si1 0.931989 0.062133 0.817647
Si Si2 0.337463 0.801753 0.927183
Si Si3 0.764513 0.442382 0.856246
Si Si4 0.003860 0.684183 0.525783
Si Si5 0.174293 0.122469 0.489029
Si Si6 0.893648 0.137753 0.220726
O O1 0.835515 0.991834 0.840658
O O2 0.966731 0.173843 0.886709
O O3 0.913908 0.183669 0.749543
O O4 0.013082 0.946215 0.797298
O O5 0.250000 0.750000 0.971000
O O6 0.341742 0.677830 0.857004
O O7 0.422262 0.770357 0.977178
O O8 0.331471 0.992272 0.920878
O O9 0.750000 0.250000 0.864426
O O10 0.805029 0.530141 0.930683
O O11 0.832069 0.451048 0.783565
O O12 0.000000 0.500000 0.500000
O O13 0.914937 0.777434 0.509893
O O14 0.250000 0.250000 0.475152
#
# Coordination Sequence:
#
# PCOD9432805 Si02
#       6
#     8   8   8   8   8   8
#     4  11  24  45  69  99 145 187 237 284 364 428
#     4  12  24  44  72 102 144 182 234 297 357 413
#     4  10  23  49  71 101 141 196 239 286 365 432
#     4  12  25  46  69 105 140 187 234 296 353 423
#     4  12  27  43  75 108 140 188 241 296 356 426
#     4  11  26  42  73 103 142 192 229 293 356 429
#
# _framework density 21.670203999999998
#
# number of rings (size 3 to 8) (size 9 to 14) (size 15 to 20)
#    0.000    0.667    1.667    7.500    4.667    0.000 
#    0.000    0.000    0.000    0.000    0.000    0.000 
#    0.000    0.000    0.000    0.000    0.000    0.000 
#
# Total GULP energy -268146.274681 kJ/mol
# GULP energy per Si atom -5586.380723 kJ/mol
# Density = 2.162088 g / cm^3
# Si number density = 21.670204 Si / 1000 Ang^3
#
#
#
# Elastic Constant Matrix: (Units=GPa)
#
#
# Indices 1 2 3 4 5 6 
#
# 1 192.2096 43.8658 29.5566 0.0000 0.0000 0.0000
# 2 43.8658 73.8377 -1.1758 0.0000 0.0000 0.0000
# 3 29.5566 -1.1758 59.8100 0.0000 0.0000 0.0000
# 4 0.0000 0.0000 0.0000 23.3854 0.0000 0.0000
# 5 0.0000 0.0000 0.0000 0.0000 49.6246 0.0000
# 6 0.0000 0.0000 0.0000 0.0000 0.0000 45.4549
#
#
#
# Elastic Compliance Matrix: (Units=1/GPa)
#
#
# Indices 1 2 3 4 5 6 
#
# 1 0.006630 -0.003992 -0.003355 0.000000 0.000000 0.000000
# 2 -0.003992 0.015951 0.002286 0.000000 0.000000 0.000000
# 3 -0.003355 0.002286 0.018422 0.000000 0.000000 0.000000
# 4 0.000000 0.000000 0.000000 0.042762 0.000000 0.000000
# 5 0.000000 0.000000 0.000000 0.000000 0.020151 0.000000
# 6 0.000000 0.000000 0.000000 0.000000 0.000000 0.022000
#
#
# Mechanical properties :
#
#
# Convention : Reuss Voigt Hill
#
# Bulk Modulus (GPa) = 32.38079 52.26116 42.32097
# Shear Modulus (GPa) = 34.16923 40.60037 37.38480
#
# Velocity S-wave (km/s) = 3.97518 4.33316 4.15802
# Velocity P-wave (km/s) = 6.00370 7.01455 6.52872
#
# Compressibility (1/GPa) = 0.03088251
#
# Stress axis : x y z
#
# Youngs Moduli (GPa) = 150.84024 62.69139 54.28199
#
# Poissons Ratio (x) = 0.25026 0.18210
# Poissons Ratio (y) = 0.60214 -0.12410
# Poissons Ratio (z) = 0.50601 -0.14333
#
# Static dielectric constant tensor:
#      x y z
#    x 1.659750 0.000000 0.000000 
#    y 0.000000 1.813150 0.000000 
#    z 0.000000 0.000000 4.174470 
# 
# From -- ./inp_files/16166.got.cif
#   From: 2010.05.17/outbox.cif.g08.bks.cpg/sg56_9_cif.got.tgz:16166.got - 2010.06.03 13:42:01.
