data_PCOD9432917
_publ_section_title
;
Structure prediction by ZEFSAII (Michael W. Deem and Ramdas Pophale) SiO2 
 PCOD9432917
Probable space group: P C C N
;
_chemical_formula_sum "Si O2"
_cell_formula_units_Z 64
_cell_length_a 14.176853
_cell_length_b 22.813251
_cell_length_c 8.962658
_cell_angle_alpha 90.000000
_cell_angle_beta 90.000000
_cell_angle_gamma 90.000000
_cell_volume 2898.703799
_symmetry_space_group_name_H-M "P C C N"
_symmetry_group_IT_number 56
_symmetry_cell_setting 'orthorhombic'
loop_
_space_group_symop_operation_xyz
x,y,z
1/2-x,1/2-y,z
1/2+x,-y,1/2-z
-x,1/2+y,1/2-z
-x,-y,-z
1/2+x,1/2+y,-z
1/2-x,y,1/2+z
x,1/2-y,1/2+z
loop_
_atom_site_type_symbol
_atom_site_label
_atom_site_fract_x
_atom_site_fract_y
_atom_site_fract_z
Si Si1 0.182744 0.364870 0.058074
Si Si2 0.953344 0.953704 0.887347
Si Si3 0.776824 0.947296 0.702536
Si Si4 0.236638 0.626139 0.553547
Si Si5 0.614779 0.825635 0.483136
Si Si6 0.332165 0.796998 0.817592
Si Si7 0.350037 0.556264 0.786723
Si Si8 0.547012 0.774759 0.793864
O O1 0.221304 0.397755 0.205070
O O2 0.272340 0.327411 0.002624
O O3 0.095575 0.324071 0.100353
O O4 0.172096 0.415742 0.935407
O O5 0.858474 0.974566 0.806144
O O6 0.924468 0.891718 0.962419
O O7 0.038159 0.945369 0.769970
O O8 0.000000 0.000000 0.000000
O O9 0.699453 0.995784 0.664337
O O10 0.175639 0.657490 0.680828
O O11 0.307022 0.671072 0.472119
O O12 0.298593 0.577701 0.637720
O O13 0.172941 0.600865 0.421222
O O14 0.569384 0.794630 0.626030
O O15 0.591076 0.787467 0.337589
O O16 0.250000 0.750000 0.293210
O O17 0.435827 0.771004 0.820339
#
# Coordination Sequence:
#
# PCOD9432917 Si02
#       8
#     8   8   8   8   8   8   8   8
#     4  11  24  47  70 102 151 181 242 293 361 423
#     4  11  25  44  76  99 144 189 237 290 363 424
#     4  11  24  45  71 106 142 190 237 302 352 429
#     4  10  24  43  68  93 139 178 233 293 352 413
#     4  11  27  46  72 111 141 193 238 297 361 436
#     4  11  26  44  69  99 140 183 239 298 355 430
#     4  11  22  44  68  99 136 180 235 285 355 420
#     4  12  28  43  77 103 148 188 243 290 371 429
#
# _framework density 22.078835999999999
#
# number of rings (size 3 to 8) (size 9 to 14) (size 15 to 20)
#    0.000    1.000    1.250    4.500   12.250    2.000 
#    0.000    1.250    0.000    0.000    0.000    0.000 
#    0.000    0.000    0.000    0.000    0.000    0.000 
#
# Total GULP energy -358170.711110 kJ/mol
# GULP energy per Si atom -5596.417361 kJ/mol
# Density = 2.202858 g / cm^3
# Si number density = 22.078836 Si / 1000 Ang^3
#
#
#
# Elastic Constant Matrix: (Units=GPa)
#
#
# Indices 1 2 3 4 5 6 
#
# 1 130.6853 20.1305 7.8317 0.0000 0.0000 0.0000
# 2 20.1305 63.5022 9.5037 0.0000 0.0000 0.0000
# 3 7.8317 9.5037 64.2039 0.0000 0.0000 0.0000
# 4 0.0000 0.0000 0.0000 28.2650 0.0000 0.0000
# 5 0.0000 0.0000 0.0000 0.0000 20.3779 0.0000
# 6 0.0000 0.0000 0.0000 0.0000 0.0000 33.5552
#
#
#
# Elastic Compliance Matrix: (Units=1/GPa)
#
#
# Indices 1 2 3 4 5 6 
#
# 1 0.008069 -0.002465 -0.000619 0.000000 0.000000 0.000000
# 2 -0.002465 0.016857 -0.002195 0.000000 0.000000 0.000000
# 3 -0.000619 -0.002195 0.015976 0.000000 0.000000 0.000000
# 4 0.000000 0.000000 0.000000 0.035379 0.000000 0.000000
# 5 0.000000 0.000000 0.000000 0.000000 0.049073 0.000000
# 6 0.000000 0.000000 0.000000 0.000000 0.000000 0.029802
#
#
# Mechanical properties :
#
#
# Convention : Reuss Voigt Hill
#
# Bulk Modulus (GPa) = 32.95567 37.03591 34.99579
# Shear Modulus (GPa) = 28.43677 31.16799 29.80238
#
# Velocity S-wave (km/s) = 3.59272 3.76129 3.67797
# Velocity P-wave (km/s) = 5.67176 5.97276 5.82421
#
# Compressibility (1/GPa) = 0.03034380
#
# Stress axis : x y z
#
# Youngs Moduli (GPa) = 123.93401 59.32120 62.59476
#
# Poissons Ratio (x) = 0.14624 0.03877
# Poissons Ratio (y) = 0.30552 0.13737
# Poissons Ratio (z) = 0.07676 0.13019
#
# Static dielectric constant tensor:
#      x y z
#    x 1.816380 0.000000 0.000000 
#    y 0.000000 1.828970 0.000000 
#    z 0.000000 0.000000 1.831160 
# 
# From -- ./inp_files/3702.got.cif
#   From: 2010.05.17/outbox.cif.g08.bks.cpg/sg56_2_cif.got.tgz:3702.got - 2010.06.03 13:42:01.
