data_PCOD9432111
_publ_section_title
;
Structure prediction by ZEFSAII (Michael W. Deem and Ramdas Pophale) SiO2 
 PCOD9432111
Probable space group: P C C N
;
_chemical_formula_sum "Si O2"
_cell_formula_units_Z 60
_cell_length_a 11.581180
_cell_length_b 9.367508
_cell_length_c 25.819071
_cell_angle_alpha 90.000000
_cell_angle_beta 90.000000
_cell_angle_gamma 90.000000
_cell_volume 2801.028296
_symmetry_space_group_name_H-M "P C C N"
_symmetry_group_IT_number 56
_symmetry_cell_setting 'orthorhombic'
loop_
_space_group_symop_operation_xyz
x,y,z
1/2-x,1/2-y,z
1/2+x,-y,1/2-z
-x,1/2+y,1/2-z
-x,-y,-z
1/2+x,1/2+y,-z
1/2-x,y,1/2+z
x,1/2-y,1/2+z
loop_
_atom_site_type_symbol
_atom_site_label
_atom_site_fract_x
_atom_site_fract_y
_atom_site_fract_z
Si Si1 0.415401 0.543500 0.892901
Si Si2 0.325547 0.106649 0.489423
Si Si3 0.565268 0.288718 0.868062
Si Si4 0.148210 0.560140 0.048810
Si Si5 0.516729 0.290084 0.540415
Si Si6 0.572375 0.053167 0.728483
Si Si7 0.888585 0.738985 0.220972
Si Si8 0.250000 0.750000 0.710808
O O1 0.328243 0.478001 0.935317
O O2 0.519728 0.429029 0.896282
O O3 0.439713 0.703832 0.910588
O O4 0.392690 0.547747 0.831883
O O5 0.250000 0.250000 0.482719
O O6 0.447166 0.170447 0.507732
O O7 0.271017 0.008147 0.534424
O O8 0.621661 0.168795 0.904720
O O9 0.455419 0.228875 0.834686
O O10 0.661093 0.332310 0.826318
O O11 0.065361 0.422393 0.054729
O O12 0.112046 0.644803 0.997079
O O13 0.447805 0.119673 0.742903
O O14 0.669759 0.145192 0.756827
O O15 0.573948 0.889625 0.745748
O O16 0.750000 0.750000 0.215612
#
# Coordination Sequence:
#
# PCOD9432111 Si02
#       8
#     8   8   8   8   8   8   8   4
#     4  11  23  40  65  97 129 171 228 280 331 413
#     4  10  22  40  65  94 137 175 221 283 344 407
#     4  10  23  42  68  99 129 185 230 282 348 421
#     4  10  22  41  64  92 133 181 217 276 344 406
#     4  10  22  41  58  95 135 165 219 276 328 411
#     4  10  25  45  70 102 137 178 234 289 351 417
#     4  10  24  46  73 101 138 184 229 292 356 410
#     4  10  24  44  68  94 140 174 230 296 348 410
#
# _framework density 21.420705000000002
#
# number of rings (size 3 to 8) (size 9 to 14) (size 15 to 20)
#    0.000    1.867    1.333    0.400    7.467    5.867 
#    0.000    2.000    0.000    0.000    0.000    0.000 
#    0.000    0.000    0.000    0.000    0.000    0.000 
#
# Total GULP energy -334843.268614 kJ/mol
# GULP energy per Si atom -5580.721144 kJ/mol
# Density = 2.137195 g / cm^3
# Si number density = 21.420705 Si / 1000 Ang^3
#
#
#
# Elastic Constant Matrix: (Units=GPa)
#
#
# Indices 1 2 3 4 5 6 
#
# 1 96.7263 35.6942 29.5327 0.0000 0.0000 0.0000
# 2 35.6942 125.2102 38.9470 0.0000 0.0000 0.0000
# 3 29.5327 38.9470 72.9538 0.0000 0.0000 0.0000
# 4 0.0000 0.0000 0.0000 46.6938 0.0000 0.0000
# 5 0.0000 0.0000 0.0000 0.0000 23.2959 0.0000
# 6 0.0000 0.0000 0.0000 0.0000 0.0000 24.7781
#
#
#
# Elastic Compliance Matrix: (Units=1/GPa)
#
#
# Indices 1 2 3 4 5 6 
#
# 1 0.012351 -0.002357 -0.003741 0.000000 0.000000 0.000000
# 2 -0.002357 0.010027 -0.004399 0.000000 0.000000 0.000000
# 3 -0.003741 -0.004399 0.017570 0.000000 0.000000 0.000000
# 4 0.000000 0.000000 0.000000 0.021416 0.000000 0.000000
# 5 0.000000 0.000000 0.000000 0.000000 0.042926 0.000000
# 6 0.000000 0.000000 0.000000 0.000000 0.000000 0.040358
#
#
# Mechanical properties :
#
#
# Convention : Reuss Voigt Hill
#
# Bulk Modulus (GPa) = 52.76140 55.91533 54.33837
# Shear Modulus (GPa) = 29.07659 31.66800 30.37229
#
# Velocity S-wave (km/s) = 3.68830 3.84915 3.76958
# Velocity P-wave (km/s) = 6.54389 6.77603 6.66097
#
# Compressibility (1/GPa) = 0.01895325
#
# Stress axis : x y z
#
# Youngs Moduli (GPa) = 80.96788 99.73341 56.91480
#
# Poissons Ratio (x) = 0.23508 0.21294
# Poissons Ratio (y) = 0.19085 0.25035
# Poissons Ratio (z) = 0.30293 0.43870
#
# Static dielectric constant tensor:
#      x y z
#    x 1.824450 0.000000 0.000000 
#    y 0.000000 1.773000 0.000000 
#    z 0.000000 0.000000 1.788570 
# 
# From -- ./inp_files/22321.got.cif
#   From: 2010.05.17/outbox.cif.g08.bks.cpg/sg56_12_cif.got.tgz:22321.got - 2010.06.03 13:42:01.
