data_PCOD9432938
_publ_section_title
;
Structure prediction by ZEFSAII (Michael W. Deem and Ramdas Pophale) SiO2 
 PCOD9432938
Probable space group: P C C N
;
_chemical_formula_sum "Si O2"
_cell_formula_units_Z 60
_cell_length_a 10.792424
_cell_length_b 21.263337
_cell_length_c 12.574884
_cell_angle_alpha 90.000000
_cell_angle_beta 90.000000
_cell_angle_gamma 90.000000
_cell_volume 2885.721458
_symmetry_space_group_name_H-M "P C C N"
_symmetry_group_IT_number 56
_symmetry_cell_setting 'orthorhombic'
loop_
_space_group_symop_operation_xyz
x,y,z
1/2-x,1/2-y,z
1/2+x,-y,1/2-z
-x,1/2+y,1/2-z
-x,-y,-z
1/2+x,1/2+y,-z
1/2-x,y,1/2+z
x,1/2-y,1/2+z
loop_
_atom_site_type_symbol
_atom_site_label
_atom_site_fract_x
_atom_site_fract_y
_atom_site_fract_z
Si Si1 0.431961 0.158849 0.946925
Si Si2 0.777299 0.182942 0.495058
Si Si3 0.283472 0.929847 0.347127
Si Si4 0.370318 0.864432 0.687249
Si Si5 0.887951 0.854998 0.305941
Si Si6 0.250000 0.250000 0.827326
Si Si7 0.970041 0.000739 0.877234
Si Si8 0.190692 0.442371 0.790097
O O1 0.354513 0.218419 0.902057
O O2 0.391522 0.104852 0.861638
O O3 0.579249 0.173139 0.959357
O O4 0.383977 0.141145 0.066242
O O5 0.750000 0.250000 0.552389
O O6 0.737468 0.119808 0.558947
O O7 0.677291 0.184053 0.398850
O O8 0.251411 0.890056 0.243902
O O9 0.413310 0.963348 0.331158
O O10 0.194417 0.990969 0.352194
O O11 0.469201 0.842675 0.774331
O O12 0.436051 0.926959 0.642742
O O13 0.812083 0.798939 0.252821
O O14 0.823924 0.912665 0.241129
O O15 0.860737 0.960041 0.826291
O O16 0.000000 0.000000 0.000000
#
# Coordination Sequence:
#
# PCOD9432938 Si02
#       8
#     8   8   8   8   8   4   8   8
#     4  11  24  47  69 100 139 181 230 288 348 409
#     4  12  26  44  66  97 132 191 228 276 343 415
#     4  11  23  43  64 100 134 172 226 280 345 407
#     4  11  23  42  67  93 139 170 227 284 340 418
#     4  11  22  43  68  98 132 182 228 290 349 406
#     4  10  24  44  68 100 136 180 236 282 344 422
#     4  11  22  41  67  98 132 175 216 283 348 405
#     4  10  25  40  70 104 132 176 228 286 355 421
#
# _framework density 20.792027000000001
#
# number of rings (size 3 to 8) (size 9 to 14) (size 15 to 20)
#    0.000    1.067    4.000    2.000    1.867    1.067 
#    9.600    0.000    0.000    0.000    0.000    0.000 
#    0.000    0.000    0.000    0.000    0.000    0.000 
#
# Total GULP energy -334048.003890 kJ/mol
# GULP energy per Si atom -5567.466732 kJ/mol
# Density = 2.074470 g / cm^3
# Si number density = 20.792027 Si / 1000 Ang^3
#
#
#
# Elastic Constant Matrix: (Units=GPa)
#
#
# Indices 1 2 3 4 5 6 
#
# 1 73.1246 22.4414 16.4953 0.0000 0.0000 0.0000
# 2 22.4414 92.6097 24.2410 0.0000 0.0000 0.0000
# 3 16.4953 24.2410 87.0678 0.0000 0.0000 0.0000
# 4 0.0000 0.0000 0.0000 24.8946 0.0000 0.0000
# 5 0.0000 0.0000 0.0000 0.0000 34.1503 0.0000
# 6 0.0000 0.0000 0.0000 0.0000 0.0000 12.6531
#
#
#
# Elastic Compliance Matrix: (Units=1/GPa)
#
#
# Indices 1 2 3 4 5 6 
#
# 1 0.015085 -0.003136 -0.001985 0.000000 0.000000 0.000000
# 2 -0.003136 0.012299 -0.002830 0.000000 0.000000 0.000000
# 3 -0.001985 -0.002830 0.012649 0.000000 0.000000 0.000000
# 4 0.000000 0.000000 0.000000 0.040169 0.000000 0.000000
# 5 0.000000 0.000000 0.000000 0.000000 0.029282 0.000000
# 6 0.000000 0.000000 0.000000 0.000000 0.000000 0.079032
#
#
# Mechanical properties :
#
#
# Convention : Reuss Voigt Hill
#
# Bulk Modulus (GPa) = 41.43943 42.12864 41.78403
# Shear Modulus (GPa) = 23.53350 26.98122 25.25736
#
# Velocity S-wave (km/s) = 3.36795 3.60623 3.48912
# Velocity P-wave (km/s) = 5.92434 6.13561 6.03090
#
# Compressibility (1/GPa) = 0.02413161
#
# Stress axis : x y z
#
# Youngs Moduli (GPa) = 66.28907 81.30940 79.05597
#
# Poissons Ratio (x) = 0.25499 0.15692
# Poissons Ratio (y) = 0.20788 0.22373
# Poissons Ratio (z) = 0.13158 0.23011
#
# Static dielectric constant tensor:
#      x y z
#    x 1.785330 0.000000 0.000000 
#    y 0.000000 1.811290 0.000000 
#    z 0.000000 0.000000 1.755330 
# 
# From -- ./inp_files/7349.got.cif
#   From: 2010.05.17/outbox.cif.g08.bks.cpg/sg56_4_cif.got.tgz:7349.got - 2010.06.03 13:42:01.
