data_PCOD9432342
_publ_section_title
;
Structure prediction by ZEFSAII (Michael W. Deem and Ramdas Pophale) SiO2 
 PCOD9432342
Probable space group: P C C N
;
_chemical_formula_sum "Si O2"
_cell_formula_units_Z 64
_cell_length_a 25.236033
_cell_length_b 14.688031
_cell_length_c 8.487972
_cell_angle_alpha 90.000000
_cell_angle_beta 90.000000
_cell_angle_gamma 90.000000
_cell_volume 3146.216507
_symmetry_space_group_name_H-M "P C C N"
_symmetry_group_IT_number 56
_symmetry_cell_setting 'orthorhombic'
loop_
_space_group_symop_operation_xyz
x,y,z
1/2-x,1/2-y,z
1/2+x,-y,1/2-z
-x,1/2+y,1/2-z
-x,-y,-z
1/2+x,1/2+y,-z
1/2-x,y,1/2+z
x,1/2-y,1/2+z
loop_
_atom_site_type_symbol
_atom_site_label
_atom_site_fract_x
_atom_site_fract_y
_atom_site_fract_z
Si Si1 0.377994 0.143999 0.003079
Si Si2 0.126087 0.665609 0.564909
Si Si3 0.445664 0.980462 0.092213
Si Si4 0.405955 0.335919 0.135768
Si Si5 0.519058 0.095815 0.574123
Si Si6 0.854693 0.361590 0.066846
Si Si7 0.675946 0.519664 0.972022
Si Si8 0.715811 0.525890 0.612293
O O1 0.400610 0.149207 0.823772
O O2 0.320378 0.099838 0.977279
O O3 0.379837 0.241618 0.083519
O O4 0.414364 0.075683 0.104297
O O5 0.064797 0.647090 0.522296
O O6 0.146549 0.763738 0.513515
O O7 0.135493 0.654279 0.749397
O O8 0.157445 0.581820 0.486540
O O9 0.458405 0.931542 0.255381
O O10 0.405363 0.917174 0.995599
O O11 0.500000 0.000000 0.000000
O O12 0.467434 0.341477 0.091476
O O13 0.374797 0.415575 0.043160
O O14 0.500000 0.000000 0.500000
O O15 0.803708 0.427291 0.046822
O O16 0.700697 0.523898 0.796088
O O17 0.722874 0.546373 0.087930
#
# Coordination Sequence:
#
# PCOD9432342 Si02
#       8
#     8   8   8   8   8   8   8   8
#     4  10  24  42  63  91 126 162 210 260 309 370
#     4  11  23  40  64  95 130 163 208 259 308 380
#     4  11  22  41  61  87 128 170 208 252 306 367
#     4  11  24  42  60  95 126 163 211 257 309 374
#     4  12  24  39  63  92 128 171 205 253 310 371
#     4  10  23  42  61  94 128 161 213 256 312 376
#     4  10  22  43  65  87 123 160 209 262 314 373
#     4   9  22  43  66  87 122 162 203 266 317 364
#
# _framework density 20.341894
#
# number of rings (size 3 to 8) (size 9 to 14) (size 15 to 20)
#    0.000    1.500    2.500    2.250    3.500    6.000 
#    0.000    5.000    0.000    0.000    0.000    0.000 
#    0.000    0.000    0.000    0.000    0.000    0.000 
#
# Total GULP energy -357762.463821 kJ/mol
# GULP energy per Si atom -5590.038497 kJ/mol
# Density = 2.029559 g / cm^3
# Si number density = 20.341894 Si / 1000 Ang^3
#
#
#
# Elastic Constant Matrix: (Units=GPa)
#
#
# Indices 1 2 3 4 5 6 
#
# 1 58.8414 -17.1176 7.4146 0.0000 0.0000 0.0000
# 2 -17.1176 78.9452 3.6732 0.0000 0.0000 0.0000
# 3 7.4146 3.6732 34.3071 0.0000 0.0000 0.0000
# 4 0.0000 0.0000 0.0000 31.3999 0.0000 0.0000
# 5 0.0000 0.0000 0.0000 0.0000 29.6291 0.0000
# 6 0.0000 0.0000 0.0000 0.0000 0.0000 14.2404
#
#
#
# Elastic Compliance Matrix: (Units=1/GPa)
#
#
# Indices 1 2 3 4 5 6 
#
# 1 0.018813 0.004290 -0.004525 0.000000 0.000000 0.000000
# 2 0.004290 0.013709 -0.002395 0.000000 0.000000 0.000000
# 3 -0.004525 -0.002395 0.030383 0.000000 0.000000 0.000000
# 4 0.000000 0.000000 0.000000 0.031847 0.000000 0.000000
# 5 0.000000 0.000000 0.000000 0.000000 0.033751 0.000000
# 6 0.000000 0.000000 0.000000 0.000000 0.000000 0.070223
#
#
# Mechanical properties :
#
#
# Convention : Reuss Voigt Hill
#
# Bulk Modulus (GPa) = 17.34790 17.78154 17.56472
# Shear Modulus (GPa) = 22.40138 26.92877 24.66508
#
# Velocity S-wave (km/s) = 3.32210 3.64237 3.48591
# Velocity P-wave (km/s) = 4.82305 5.14290 4.98554
#
# Compressibility (1/GPa) = 0.05764387
#
# Stress axis : x y z
#
# Youngs Moduli (GPa) = 53.15472 72.94693 32.91324
#
# Poissons Ratio (x) = -0.31293 0.14894
# Poissons Ratio (y) = -0.22802 0.07882
# Poissons Ratio (z) = 0.24054 0.17470
#
# Static dielectric constant tensor:
#      x y z
#    x 1.702450 0.000000 0.000000 
#    y 0.000000 1.731770 0.000000 
#    z 0.000000 0.000000 1.721040 
# 
# From -- ./inp_files/4812.got.cif
#   From: 2010.05.17/outbox.cif.g08.bks.cpg/sg56_3_cif.got.tgz:4812.got - 2010.06.03 13:42:01.
