data_PCOD9432536
_publ_section_title
;
Structure prediction by ZEFSAII (Michael W. Deem and Ramdas Pophale) SiO2 
 PCOD9432536
Probable space group: P C C N
;
_chemical_formula_sum "Si O2"
_cell_formula_units_Z 56
_cell_length_a 21.029673
_cell_length_b 6.488803
_cell_length_c 20.331909
_cell_angle_alpha 90.000000
_cell_angle_beta 90.000000
_cell_angle_gamma 90.000000
_cell_volume 2774.439546
_symmetry_space_group_name_H-M "P C C N"
_symmetry_group_IT_number 56
_symmetry_cell_setting 'orthorhombic'
loop_
_space_group_symop_operation_xyz
x,y,z
1/2-x,1/2-y,z
1/2+x,-y,1/2-z
-x,1/2+y,1/2-z
-x,-y,-z
1/2+x,1/2+y,-z
1/2-x,y,1/2+z
x,1/2-y,1/2+z
loop_
_atom_site_type_symbol
_atom_site_label
_atom_site_fract_x
_atom_site_fract_y
_atom_site_fract_z
Si Si1 0.011146 0.184414 0.182573
Si Si2 0.616479 0.070537 0.371642
Si Si3 0.588515 0.119846 0.974338
Si Si4 0.687048 0.673394 0.407056
Si Si5 0.689097 0.384107 0.284476
Si Si6 0.095180 0.363044 0.295884
Si Si7 0.541944 0.554119 0.601324
O O1 0.061488 0.223836 0.240235
O O2 0.992671 0.403410 0.152701
O O3 0.046567 0.024512 0.134864
O O4 0.947755 0.067396 0.201549
O O5 0.623092 0.185877 0.441414
O O6 0.634903 0.227743 0.313265
O O7 0.660541 0.873050 0.370775
O O8 0.517495 0.131983 0.943058
O O9 0.629382 0.925538 0.947938
O O10 0.582340 0.089736 0.051868
O O11 0.750000 0.750000 0.444605
O O12 0.705681 0.511058 0.350572
O O13 0.750000 0.250000 0.263073
O O14 0.661786 0.546098 0.231042
O O15 0.083995 0.227854 0.362032
#
# Coordination Sequence:
#
# PCOD9432536 Si02
#       7
#     8   8   8   8   8   8   8
#     4  12  21  36  61  92 125 167 206 261 329 387
#     4  11  20  37  62  94 125 160 214 270 327 375
#     4  10  23  39  60  92 124 160 217 266 318 389
#     4  11  21  39  66  91 120 164 213 273 327 381
#     4  11  23  37  59  96 127 166 219 269 321 390
#     4  12  23  36  60  91 133 170 209 264 326 389
#     4  11  23  39  59  92 127 166 211 260 323 389
#
# _framework density 20.184256999999999
#
# number of rings (size 3 to 8) (size 9 to 14) (size 15 to 20)
#    0.000    0.857    7.143    1.714    0.000    1.714 
#    0.000    0.000    3.143    0.000    0.000    0.000 
#    0.000    0.000    0.000    0.000    0.000    0.000 
#
# Total GULP energy -312101.473559 kJ/mol
# GULP energy per Si atom -5573.240599 kJ/mol
# Density = 2.013832 g / cm^3
# Si number density = 20.184257 Si / 1000 Ang^3
#
#
#
# Elastic Constant Matrix: (Units=GPa)
#
#
# Indices 1 2 3 4 5 6 
#
# 1 58.2519 -2.9053 21.7010 0.0000 0.0000 0.0000
# 2 -2.9053 49.3509 18.1260 0.0000 0.0000 0.0000
# 3 21.7010 18.1260 70.0092 0.0000 0.0000 0.0000
# 4 0.0000 0.0000 0.0000 16.8529 0.0000 0.0000
# 5 0.0000 0.0000 0.0000 0.0000 14.3102 0.0000
# 6 0.0000 0.0000 0.0000 0.0000 0.0000 37.1184
#
#
#
# Elastic Compliance Matrix: (Units=1/GPa)
#
#
# Indices 1 2 3 4 5 6 
#
# 1 0.020041 0.003825 -0.007202 0.000000 0.000000 0.000000
# 2 0.003825 0.023123 -0.007172 0.000000 0.000000 0.000000
# 3 -0.007202 -0.007172 0.018373 0.000000 0.000000 0.000000
# 4 0.000000 0.000000 0.000000 0.059337 0.000000 0.000000
# 5 0.000000 0.000000 0.000000 0.000000 0.069880 0.000000
# 6 0.000000 0.000000 0.000000 0.000000 0.000000 0.026941
#
#
# Mechanical properties :
#
#
# Convention : Reuss Voigt Hill
#
# Bulk Modulus (GPa) = 24.72954 27.93949 26.33452
# Shear Modulus (GPa) = 19.81980 23.03566 21.42773
#
# Velocity S-wave (km/s) = 3.13700 3.38193 3.26176
# Velocity P-wave (km/s) = 5.03979 5.39650 5.22119
#
# Compressibility (1/GPa) = 0.04043747
#
# Stress axis : x y z
#
# Youngs Moduli (GPa) = 49.89826 43.24780 54.42655
#
# Poissons Ratio (x) = -0.16543 0.39201
# Poissons Ratio (y) = -0.19087 0.39037
# Poissons Ratio (z) = 0.35939 0.31019
#
# Static dielectric constant tensor:
#      x y z
#    x 1.818390 0.000000 0.000000 
#    y 0.000000 1.756880 0.000000 
#    z 0.000000 0.000000 1.730600 
# 
# From -- ./inp_files/19575.got.cif
#   From: 2010.05.17/outbox.cif.g08.bks.cpg/sg56_10_cif.got.tgz:19575.got - 2010.06.03 13:42:01.
