data_PCOD9432345
_publ_section_title
;
Structure prediction by ZEFSAII (Michael W. Deem and Ramdas Pophale) SiO2 
 PCOD9432345
Probable space group: P C C N
;
_chemical_formula_sum "Si O2"
_cell_formula_units_Z 48
_cell_length_a 24.638203
_cell_length_b 5.564915
_cell_length_c 14.764723
_cell_angle_alpha 90.000000
_cell_angle_beta 90.000000
_cell_angle_gamma 90.000000
_cell_volume 2024.383869
_symmetry_space_group_name_H-M "P C C N"
_symmetry_group_IT_number 56
_symmetry_cell_setting 'orthorhombic'
loop_
_space_group_symop_operation_xyz
x,y,z
1/2-x,1/2-y,z
1/2+x,-y,1/2-z
-x,1/2+y,1/2-z
-x,-y,-z
1/2+x,1/2+y,-z
1/2-x,y,1/2+z
x,1/2-y,1/2+z
loop_
_atom_site_type_symbol
_atom_site_label
_atom_site_fract_x
_atom_site_fract_y
_atom_site_fract_z
Si Si1 0.352789 0.620684 0.924735
Si Si2 0.801927 0.908214 0.917809
Si Si3 0.518341 0.435211 0.772684
Si Si4 0.635274 0.304909 0.773216
Si Si5 0.038322 0.319320 0.447808
Si Si6 0.894407 0.984268 0.432598
O O1 0.344161 0.719777 0.824146
O O2 0.403321 0.434422 0.920132
O O3 0.301294 0.515923 0.980212
O O4 0.371933 0.824327 0.995145
O O5 0.750000 0.750000 0.897178
O O6 0.853480 0.735257 0.922674
O O7 0.817266 0.092901 0.837792
O O8 0.493968 0.704511 0.794338
O O9 0.583067 0.478854 0.762746
O O10 0.495462 0.275314 0.857696
O O11 0.606569 0.098571 0.833464
O O12 0.052640 0.112236 0.518479
O O13 0.000000 0.500000 0.500000
#
# Coordination Sequence:
#
# PCOD9432345 Si02
#       6
#     8   8   8   8   8   8
#     4  10  22  43  65  98 138 191 232 312 374 454
#     4  10  24  46  71 101 137 184 247 323 385 454
#     4  12  26  41  67 104 150 196 255 303 371 462
#     4  11  24  42  70 102 143 193 251 307 379 453
#     4  11  23  37  62  95 140 195 241 298 376 439
#     4  10  23  42  66  92 142 181 246 307 374 447
#
# _framework density 23.710920000000002
#
# number of rings (size 3 to 8) (size 9 to 14) (size 15 to 20)
#    0.000    1.333    1.667    4.000    4.667    6.667 
#    0.000    5.000    0.000    0.000    0.000    0.000 
#    0.000    0.000    0.000    0.000    0.000    0.000 
#
# Total GULP energy -267658.214379 kJ/mol
# GULP energy per Si atom -5576.212800 kJ/mol
# Density = 2.365695 g / cm^3
# Si number density = 23.710920 Si / 1000 Ang^3
#
#
#
# Elastic Constant Matrix: (Units=GPa)
#
#
# Indices 1 2 3 4 5 6 
#
# 1 64.4966 7.3274 26.5782 0.0000 0.0000 0.0000
# 2 7.3274 52.5761 3.3717 0.0000 0.0000 0.0000
# 3 26.5782 3.3717 134.9099 0.0000 0.0000 0.0000
# 4 0.0000 0.0000 0.0000 23.0559 0.0000 0.0000
# 5 0.0000 0.0000 0.0000 0.0000 20.5549 0.0000
# 6 0.0000 0.0000 0.0000 0.0000 0.0000 45.2882
#
#
#
# Elastic Compliance Matrix: (Units=1/GPa)
#
#
# Indices 1 2 3 4 5 6 
#
# 1 0.017119 -0.002173 -0.003318 0.000000 0.000000 0.000000
# 2 -0.002173 0.019326 -0.000055 0.000000 0.000000 0.000000
# 3 -0.003318 -0.000055 0.008067 0.000000 0.000000 0.000000
# 4 0.000000 0.000000 0.000000 0.043373 0.000000 0.000000
# 5 0.000000 0.000000 0.000000 0.000000 0.048650 0.000000
# 6 0.000000 0.000000 0.000000 0.000000 0.000000 0.022081
#
#
# Mechanical properties :
#
#
# Convention : Reuss Voigt Hill
#
# Bulk Modulus (GPa) = 29.92176 36.28190 33.10183
# Shear Modulus (GPa) = 27.64733 32.09348 29.87040
#
# Velocity S-wave (km/s) = 3.41840 3.68303 3.55318
# Velocity P-wave (km/s) = 5.31295 5.78111 5.55197
#
# Compressibility (1/GPa) = 0.03342049
#
# Stress axis : x y z
#
# Youngs Moduli (GPa) = 58.41469 51.74261 123.95499
#
# Poissons Ratio (x) = 0.11244 0.41131
# Poissons Ratio (y) = 0.12694 0.00681
# Poissons Ratio (z) = 0.19383 0.00284
#
# Static dielectric constant tensor:
#      x y z
#    x 1.600470 0.000000 0.000000 
#    y 0.000000 1.918760 0.000000 
#    z 0.000000 0.000000 1.480410 
# 
# From -- ./inp_files/9697.got.cif
#   From: 2010.05.17/outbox.cif.g08.bks.cpg/sg56_5_cif.got.tgz:9697.got - 2010.06.03 13:42:01.
