data_PCOD9432126
_publ_section_title
;
Structure prediction by ZEFSAII (Michael W. Deem and Ramdas Pophale) SiO2 
 PCOD9432126
Probable space group: P C C N
;
_chemical_formula_sum "Si O2"
_cell_formula_units_Z 40
_cell_length_a 8.073424
_cell_length_b 10.836612
_cell_length_c 20.038522
_cell_angle_alpha 90.000000
_cell_angle_beta 90.000000
_cell_angle_gamma 90.000000
_cell_volume 1753.141502
_symmetry_space_group_name_H-M "P C C N"
_symmetry_group_IT_number 56
_symmetry_cell_setting 'orthorhombic'
loop_
_space_group_symop_operation_xyz
x,y,z
1/2-x,1/2-y,z
1/2+x,-y,1/2-z
-x,1/2+y,1/2-z
-x,-y,-z
1/2+x,1/2+y,-z
1/2-x,y,1/2+z
x,1/2-y,1/2+z
loop_
_atom_site_type_symbol
_atom_site_label
_atom_site_fract_x
_atom_site_fract_y
_atom_site_fract_z
Si Si1 0.852411 0.628284 0.759018
Si Si2 0.948669 0.261567 0.118428
Si Si3 0.419425 0.996743 0.654677
Si Si4 0.366866 0.136788 0.985207
Si Si5 0.785482 0.114585 0.458488
O O1 0.750000 0.750000 0.740065
O O2 0.725902 0.535841 0.794811
O O3 0.985700 0.670713 0.814828
O O4 0.936296 0.565781 0.696170
O O5 0.750000 0.250000 0.120621
O O6 0.021398 0.122978 0.120035
O O7 0.041211 0.328579 0.055885
O O8 0.341587 0.906823 0.600482
O O9 0.250000 0.250000 0.967722
O O10 0.274016 0.006581 0.994756
O O11 0.522108 0.116929 0.936569
O O12 0.750000 0.250000 0.486818
#
# Coordination Sequence:
#
# PCOD9432126 Si02
#       5
#     8   8   8   8   8
#     4  10  22  40  67 101 136 186 226 280 346 415
#     4  11  21  41  70  99 134 190 230 274 349 420
#     4  11  22  44  67 102 141 178 233 288 340 416
#     4  11  22  48  72  96 139 184 235 284 351 421
#     4  11  25  43  69 104 136 175 231 300 338 406
#
# _framework density 22.816185999999998
#
# number of rings (size 3 to 8) (size 9 to 14) (size 15 to 20)
#    0.000    1.200    4.000    2.400    0.000    4.800 
#   10.800    0.000    0.000    0.000    0.000    0.000 
#    0.000    0.000    0.000    0.000    0.000    0.000 
#
# Total GULP energy -223821.673004 kJ/mol
# GULP energy per Si atom -5595.541825 kJ/mol
# Density = 2.276426 g / cm^3
# Si number density = 22.816186 Si / 1000 Ang^3
#
#
#
# Elastic Constant Matrix: (Units=GPa)
#
#
# Indices 1 2 3 4 5 6 
#
# 1 88.4931 31.0148 20.3585 0.0000 0.0000 0.0000
# 2 31.0148 133.5821 33.6376 0.0000 0.0000 0.0000
# 3 20.3585 33.6376 36.1667 0.0000 0.0000 0.0000
# 4 0.0000 0.0000 0.0000 19.9522 0.0000 0.0000
# 5 0.0000 0.0000 0.0000 0.0000 36.4304 0.0000
# 6 0.0000 0.0000 0.0000 0.0000 0.0000 34.9679
#
#
#
# Elastic Compliance Matrix: (Units=1/GPa)
#
#
# Indices 1 2 3 4 5 6 
#
# 1 0.013226 -0.001562 -0.005993 0.000000 0.000000 0.000000
# 2 -0.001562 0.009960 -0.008384 0.000000 0.000000 0.000000
# 3 -0.005993 -0.008384 0.038821 0.000000 0.000000 0.000000
# 4 0.000000 0.000000 0.000000 0.050120 0.000000 0.000000
# 5 0.000000 0.000000 0.000000 0.000000 0.027450 0.000000
# 6 0.000000 0.000000 0.000000 0.000000 0.000000 0.028598
#
#
# Mechanical properties :
#
#
# Convention : Reuss Voigt Hill
#
# Bulk Modulus (GPa) = 33.18964 47.58486 40.38725
# Shear Modulus (GPa) = 23.79875 29.81883 26.80879
#
# Velocity S-wave (km/s) = 3.23315 3.61905 3.43153
# Velocity P-wave (km/s) = 5.34002 6.19390 5.78274
#
# Compressibility (1/GPa) = 0.03012989
#
# Stress axis : x y z
#
# Youngs Moduli (GPa) = 75.60669 100.40231 25.75925
#
# Poissons Ratio (x) = 0.15682 0.15436
# Poissons Ratio (y) = 0.11809 0.21597
# Poissons Ratio (z) = 0.45308 0.84180
#
# Static dielectric constant tensor:
#      x y z
#    x 1.881100 0.000000 0.000000 
#    y 0.000000 1.840590 0.000000 
#    z 0.000000 0.000000 1.842070 
# 
# From -- ./inp_files/17995.got.cif
#   From: 2010.05.17/outbox.cif.g08.bks.cpg/sg56_9_cif.got.tgz:17995.got - 2010.06.03 13:42:01.
