data_PCOD9432866
_publ_section_title
;
Structure prediction by ZEFSAII (Michael W. Deem and Ramdas Pophale) SiO2 
 PCOD9432866
Probable space group: P C C N
;
_chemical_formula_sum "Si O2"
_cell_formula_units_Z 56
_cell_length_a 14.078760
_cell_length_b 14.969908
_cell_length_c 12.652015
_cell_angle_alpha 90.000000
_cell_angle_beta 90.000000
_cell_angle_gamma 90.000000
_cell_volume 2666.510113
_symmetry_space_group_name_H-M "P C C N"
_symmetry_group_IT_number 56
_symmetry_cell_setting 'orthorhombic'
loop_
_space_group_symop_operation_xyz
x,y,z
1/2-x,1/2-y,z
1/2+x,-y,1/2-z
-x,1/2+y,1/2-z
-x,-y,-z
1/2+x,1/2+y,-z
1/2-x,y,1/2+z
x,1/2-y,1/2+z
loop_
_atom_site_type_symbol
_atom_site_label
_atom_site_fract_x
_atom_site_fract_y
_atom_site_fract_z
Si Si1 0.112147 0.623611 0.563713
Si Si2 0.287712 0.589154 0.287708
Si Si3 0.921384 0.436539 0.654822
Si Si4 0.063605 0.370824 0.308469
Si Si5 0.711625 0.610700 0.642474
Si Si6 0.750000 0.750000 0.971135
Si Si7 0.750000 0.250000 0.566885
Si Si8 0.583231 0.704478 0.817587
O O1 0.163625 0.594681 0.672866
O O2 0.104677 0.549261 0.470043
O O3 0.175300 0.698661 0.506945
O O4 0.006985 0.656500 0.596658
O O5 0.172755 0.588550 0.280945
O O6 0.308833 0.494969 0.346832
O O7 0.303375 0.676871 0.359596
O O8 0.962886 0.525768 0.705462
O O9 0.996471 0.358306 0.655027
O O10 0.177143 0.373967 0.326313
O O11 0.047407 0.302364 0.214724
O O12 0.707631 0.665969 0.534950
O O13 0.639499 0.661513 0.719109
O O14 0.663427 0.711750 0.904806
#
# Coordination Sequence:
#
# PCOD9432866 Si02
#       8
#     8   8   8   8   8   4   4   8
#     4  11  23  42  71  94 137 181 223 281 333 414
#     4  10  24  45  68  99 145 171 232 287 338 407
#     4  10  25  43  69 104 129 184 233 275 350 414
#     4  11  22  43  67 102 133 177 229 279 342 412
#     4  11  23  45  67 102 133 180 226 289 342 404
#     4  12  22  44  70  98 136 180 228 284 350 412
#     4  10  24  42  62 110 128 186 222 274 346 408
#     4  12  24  44  67 104 139 177 231 291 343 407
#
# _framework density 21.001232999999999
#
# number of rings (size 3 to 8) (size 9 to 14) (size 15 to 20)
#    0.000    1.143    2.857    2.571    6.000    5.714 
#    0.000    0.000    0.000    2.571    0.000    0.000 
#    0.000    0.000    0.000    0.000    0.000    0.000 
#
# Total GULP energy -312589.947304 kJ/mol
# GULP energy per Si atom -5581.963345 kJ/mol
# Density = 2.095343 g / cm^3
# Si number density = 21.001233 Si / 1000 Ang^3
#
#
#
# Elastic Constant Matrix: (Units=GPa)
#
#
# Indices 1 2 3 4 5 6 
#
# 1 86.1019 11.7167 31.8865 0.0000 0.0000 0.0000
# 2 11.7167 123.5509 44.8710 0.0000 0.0000 0.0000
# 3 31.8865 44.8710 85.5648 0.0000 0.0000 0.0000
# 4 0.0000 0.0000 0.0000 4.5480 0.0000 0.0000
# 5 0.0000 0.0000 0.0000 0.0000 30.2198 0.0000
# 6 0.0000 0.0000 0.0000 0.0000 0.0000 32.8662
#
#
#
# Elastic Compliance Matrix: (Units=1/GPa)
#
#
# Indices 1 2 3 4 5 6 
#
# 1 0.013519 0.000676 -0.005393 0.000000 0.000000 0.000000
# 2 0.000676 0.010032 -0.005513 0.000000 0.000000 0.000000
# 3 -0.005393 -0.005513 0.016588 0.000000 0.000000 0.000000
# 4 0.000000 0.000000 0.000000 0.219879 0.000000 0.000000
# 5 0.000000 0.000000 0.000000 0.000000 0.033091 0.000000
# 6 0.000000 0.000000 0.000000 0.000000 0.000000 0.030426
#
#
# Mechanical properties :
#
#
# Convention : Reuss Voigt Hill
#
# Bulk Modulus (GPa) = 50.81205 52.46288 51.63746
# Shear Modulus (GPa) = 14.26317 27.30970 20.78643
#
# Velocity S-wave (km/s) = 2.60889 3.61000 3.14948
# Velocity P-wave (km/s) = 5.77256 6.51239 6.15360
#
# Compressibility (1/GPa) = 0.01968037
#
# Stress axis : x y z
#
# Youngs Moduli (GPa) = 73.96868 99.68270 60.28549
#
# Poissons Ratio (x) = -0.06743 0.32511
# Poissons Ratio (y) = -0.05004 0.33235
# Poissons Ratio (z) = 0.39890 0.54954
#
# Static dielectric constant tensor:
#      x y z
#    x 1.771320 0.000000 0.000000 
#    y 0.000000 1.805570 0.000000 
#    z 0.000000 0.000000 1.765290 
# 
# From -- ./inp_files/7937.got.cif
#   From: 2010.05.17/outbox.cif.g08.bks.cpg/sg56_4_cif.got.tgz:7937.got - 2010.06.03 13:42:01.
