data_PCOD9432297
_publ_section_title
;
Structure prediction by ZEFSAII (Michael W. Deem and Ramdas Pophale) SiO2 
 PCOD9432297
Probable space group: P C C N
;
_chemical_formula_sum "Si O2"
_cell_formula_units_Z 48
_cell_length_a 9.024610
_cell_length_b 16.938079
_cell_length_c 14.888250
_cell_angle_alpha 90.000000
_cell_angle_beta 90.000000
_cell_angle_gamma 90.000000
_cell_volume 2275.811301
_symmetry_space_group_name_H-M "P C C N"
_symmetry_group_IT_number 56
_symmetry_cell_setting 'orthorhombic'
loop_
_space_group_symop_operation_xyz
x,y,z
1/2-x,1/2-y,z
1/2+x,-y,1/2-z
-x,1/2+y,1/2-z
-x,-y,-z
1/2+x,1/2+y,-z
1/2-x,y,1/2+z
x,1/2-y,1/2+z
loop_
_atom_site_type_symbol
_atom_site_label
_atom_site_fract_x
_atom_site_fract_y
_atom_site_fract_z
Si Si1 0.842265 0.984430 0.358950
Si Si2 0.827334 0.476223 0.185472
Si Si3 0.361435 0.941821 0.493054
Si Si4 0.421316 0.727556 0.057802
Si Si5 0.098741 0.700689 0.758225
Si Si6 0.612313 0.692436 0.421673
O O1 0.846768 0.898405 0.405197
O O2 0.012374 0.010653 0.342338
O O3 0.760873 0.977563 0.262646
O O4 0.750181 0.041806 0.423972
O O5 0.727566 0.459666 0.098173
O O6 0.862684 0.391029 0.228844
O O7 0.425089 0.853529 0.501508
O O8 0.500000 0.000000 0.500000
O O9 0.250000 0.750000 0.060854
O O10 0.511826 0.795518 0.008985
O O11 0.469029 0.713873 0.160047
O O12 0.250000 0.750000 0.767565
O O13 0.985098 0.720296 0.836880
O O14 0.750000 0.750000 0.431337
#
# Coordination Sequence:
#
# PCOD9432297 Si02
#       6
#     8   8   8   8   8   8
#     4  11  24  44  64 102 134 181 227 284 345 406
#     4  11  23  41  67  95 140 172 229 281 336 408
#     4  12  24  42  71 102 136 182 228 281 346 400
#     4  11  23  44  69  94 129 179 230 272 331 418
#     4  10  22  42  69  94 127 178 229 270 332 414
#     4  11  24  43  64  96 135 168 218 286 346 396
#
# _framework density 21.091381999999999
#
# number of rings (size 3 to 8) (size 9 to 14) (size 15 to 20)
#    0.000    1.000    1.667    6.000    2.333    2.000 
#    3.000    0.000    0.000    0.000    0.000    0.000 
#    0.000    0.000    0.000    0.000    0.000    0.000 
#
# Total GULP energy -268613.722140 kJ/mol
# GULP energy per Si atom -5596.119211 kJ/mol
# Density = 2.104338 g / cm^3
# Si number density = 21.091382 Si / 1000 Ang^3
#
#
#
# Elastic Constant Matrix: (Units=GPa)
#
#
# Indices 1 2 3 4 5 6 
#
# 1 52.7785 -11.4103 24.7511 0.0000 0.0000 0.0000
# 2 -11.4103 26.5359 0.2260 0.0000 0.0000 0.0000
# 3 24.7511 0.2260 125.6839 0.0000 0.0000 0.0000
# 4 0.0000 0.0000 0.0000 32.8972 0.0000 0.0000
# 5 0.0000 0.0000 0.0000 0.0000 57.5521 0.0000
# 6 0.0000 0.0000 0.0000 0.0000 0.0000 30.8380
#
#
#
# Elastic Compliance Matrix: (Units=1/GPa)
#
#
# Indices 1 2 3 4 5 6 
#
# 1 0.023278 0.010049 -0.004602 0.000000 0.000000 0.000000
# 2 0.010049 0.042023 -0.002054 0.000000 0.000000 0.000000
# 3 -0.004602 -0.002054 0.008866 0.000000 0.000000 0.000000
# 4 0.000000 0.000000 0.000000 0.030398 0.000000 0.000000
# 5 0.000000 0.000000 0.000000 0.000000 0.017376 0.000000
# 6 0.000000 0.000000 0.000000 0.000000 0.000000 0.032428
#
#
# Mechanical properties :
#
#
# Convention : Reuss Voigt Hill
#
# Bulk Modulus (GPa) = 12.35310 25.79241 19.07275
# Shear Modulus (GPa) = 28.64210 37.01956 32.83083
#
# Velocity S-wave (km/s) = 3.68910 4.19405 3.94966
# Velocity P-wave (km/s) = 4.90057 5.97569 5.46464
#
# Compressibility (1/GPa) = 0.08095137
#
# Stress axis : x y z
#
# Youngs Moduli (GPa) = 42.95940 23.79638 112.78432
#
# Poissons Ratio (x) = -0.23912 0.51906
# Poissons Ratio (y) = -0.43168 0.23171
# Poissons Ratio (z) = 0.19771 0.04889
#
# Static dielectric constant tensor:
#      x y z
#    x 1.820870 0.000000 0.000000 
#    y 0.000000 1.731340 0.000000 
#    z 0.000000 0.000000 1.761750 
# 
# From -- ./inp_files/10617.got.cif
#   From: 2010.05.17/outbox.cif.g08.bks.cpg/sg56_6_cif.got.tgz:10617.got - 2010.06.03 13:42:01.
