data_PCOD9432755
_publ_section_title
;
Structure prediction by ZEFSAII (Michael W. Deem and Ramdas Pophale) SiO2 
 PCOD9432755
Probable space group: P C C N
;
_chemical_formula_sum "Si O2"
_cell_formula_units_Z 48
_cell_length_a 17.540182
_cell_length_b 11.815160
_cell_length_c 10.281588
_cell_angle_alpha 90.000000
_cell_angle_beta 90.000000
_cell_angle_gamma 90.000000
_cell_volume 2130.756881
_symmetry_space_group_name_H-M "P C C N"
_symmetry_group_IT_number 56
_symmetry_cell_setting 'orthorhombic'
loop_
_space_group_symop_operation_xyz
x,y,z
1/2-x,1/2-y,z
1/2+x,-y,1/2-z
-x,1/2+y,1/2-z
-x,-y,-z
1/2+x,1/2+y,-z
1/2-x,y,1/2+z
x,1/2-y,1/2+z
loop_
_atom_site_type_symbol
_atom_site_label
_atom_site_fract_x
_atom_site_fract_y
_atom_site_fract_z
Si Si1 0.428508 0.693378 0.447228
Si Si2 0.369919 0.449515 0.177953
Si Si3 0.476147 0.280821 0.290210
Si Si4 0.837432 0.759249 0.036542
Si Si5 0.804740 0.347649 0.452422
Si Si6 0.675798 0.982839 0.050490
O O1 0.484052 0.717457 0.328133
O O2 0.469970 0.710205 0.584950
O O3 0.356090 0.779839 0.443862
O O4 0.394197 0.568829 0.447192
O O5 0.449715 0.402934 0.233711
O O6 0.364173 0.578475 0.130861
O O7 0.312362 0.446985 0.299527
O O8 0.348828 0.359188 0.066523
O O9 0.398171 0.227451 0.347827
O O10 0.750000 0.750000 0.078357
O O11 0.847914 0.632245 0.978039
O O12 0.750000 0.250000 0.390503
O O13 0.747077 0.444542 0.501912
#
# Coordination Sequence:
#
# PCOD9432755 Si02
#       6
#     8   8   8   8   8   8
#     4  11  24  49  73 109 150 190 236 301 360 448
#     4  11  23  44  70 104 142 186 245 292 360 430
#     4  11  25  47  71 109 149 190 241 292 371 431
#     4  11  23  47  68 100 142 189 245 301 354 434
#     4  10  23  45  74 105 145 187 243 300 365 429
#     4  10  24  44  72 106 140 193 240 302 363 427
#
# _framework density 22.527206
#
# number of rings (size 3 to 8) (size 9 to 14) (size 15 to 20)
#    0.000    1.333    3.333    1.000    0.000   10.667 
#    9.000    0.000    0.000    0.000    0.000    0.000 
#    0.000    0.000    0.000    0.000    0.000    0.000 
#
# Total GULP energy -267875.006285 kJ/mol
# GULP energy per Si atom -5580.729298 kJ/mol
# Density = 2.247593 g / cm^3
# Si number density = 22.527206 Si / 1000 Ang^3
#
#
#
# Elastic Constant Matrix: (Units=GPa)
#
#
# Indices 1 2 3 4 5 6 
#
# 1 110.5226 54.7160 51.8546 0.0000 0.0000 0.0000
# 2 54.7160 157.9983 66.2456 0.0000 0.0000 0.0000
# 3 51.8546 66.2456 89.7911 0.0000 0.0000 0.0000
# 4 0.0000 0.0000 0.0000 26.5552 0.0000 0.0000
# 5 0.0000 0.0000 0.0000 0.0000 16.1668 0.0000
# 6 0.0000 0.0000 0.0000 0.0000 0.0000 47.2544
#
#
#
# Elastic Compliance Matrix: (Units=1/GPa)
#
#
# Indices 1 2 3 4 5 6 
#
# 1 0.012805 -0.001931 -0.005970 0.000000 0.000000 0.000000
# 2 -0.001931 0.009455 -0.005860 0.000000 0.000000 0.000000
# 3 -0.005970 -0.005860 0.018908 0.000000 0.000000 0.000000
# 4 0.000000 0.000000 0.000000 0.037657 0.000000 0.000000
# 5 0.000000 0.000000 0.000000 0.000000 0.061855 0.000000
# 6 0.000000 0.000000 0.000000 0.000000 0.000000 0.021162
#
#
# Mechanical properties :
#
#
# Convention : Reuss Voigt Hill
#
# Bulk Modulus (GPa) = 73.28731 78.21604 75.75168
# Shear Modulus (GPa) = 25.78444 30.36166 28.07305
#
# Velocity S-wave (km/s) = 3.38685 3.67519 3.53396
# Velocity P-wave (km/s) = 6.92082 7.26674 7.09589
#
# Compressibility (1/GPa) = 0.01364493
#
# Stress axis : x y z
#
# Youngs Moduli (GPa) = 78.09387 105.76202 52.88670
#
# Poissons Ratio (x) = 0.20427 0.31574
# Poissons Ratio (y) = 0.15083 0.30994
# Poissons Ratio (z) = 0.46623 0.61981
#
# Static dielectric constant tensor:
#      x y z
#    x 1.893870 0.000000 0.000000 
#    y 0.000000 1.900040 0.000000 
#    z 0.000000 0.000000 1.882120 
# 
# From -- ./inp_files/8278.got.cif
#   From: 2010.05.17/outbox.cif.g08.bks.cpg/sg56_5_cif.got.tgz:8278.got - 2010.06.03 13:42:01.
