data_PCOD9432736
_publ_section_title
;
Structure prediction by ZEFSAII (Michael W. Deem and Ramdas Pophale) SiO2 
 PCOD9432736
Probable space group: P C C N
;
_chemical_formula_sum "Si O2"
_cell_formula_units_Z 64
_cell_length_a 14.779375
_cell_length_b 8.848518
_cell_length_c 23.167067
_cell_angle_alpha 90.000000
_cell_angle_beta 90.000000
_cell_angle_gamma 90.000000
_cell_volume 3029.686293
_symmetry_space_group_name_H-M "P C C N"
_symmetry_group_IT_number 56
_symmetry_cell_setting 'orthorhombic'
loop_
_space_group_symop_operation_xyz
x,y,z
1/2-x,1/2-y,z
1/2+x,-y,1/2-z
-x,1/2+y,1/2-z
-x,-y,-z
1/2+x,1/2+y,-z
1/2-x,y,1/2+z
x,1/2-y,1/2+z
loop_
_atom_site_type_symbol
_atom_site_label
_atom_site_fract_x
_atom_site_fract_y
_atom_site_fract_z
Si Si1 0.686157 0.879673 0.102750
Si Si2 0.259519 0.931997 0.582835
Si Si3 0.785527 0.579438 0.297516
Si Si4 0.181155 0.887455 0.865960
Si Si5 0.066454 0.307281 0.791268
Si Si6 0.602233 0.035794 0.745765
Si Si7 0.601197 0.056938 0.996551
Si Si8 0.906131 0.084099 0.011437
O O1 0.750000 0.750000 0.077061
O O2 0.607526 0.819392 0.144412
O O3 0.753699 0.970235 0.144993
O O4 0.651068 0.989170 0.052862
O O5 0.250000 0.750000 0.589279
O O6 0.160674 0.984884 0.559856
O O7 0.327864 0.972391 0.531113
O O8 0.300043 0.004821 0.640314
O O9 0.750000 0.750000 0.306040
O O10 0.869814 0.599283 0.253993
O O11 0.701787 0.484571 0.271932
O O12 0.250000 0.750000 0.875474
O O13 0.115257 0.866247 0.812284
O O14 0.125330 0.927907 0.922706
O O15 0.967940 0.381011 0.787108
O O16 0.068552 0.132303 0.771615
O O17 0.592545 0.237089 0.999530
O O18 0.500000 0.000000 0.000000
O O19 0.000000 0.000000 0.000000
#
# Coordination Sequence:
#
# PCOD9432736 Si02
#       8
#     8   8   8   8   8   8   8   8
#     4  12  23  46  73  95 134 177 228 287 336 400
#     4  10  23  45  63  90 133 172 213 266 324 392
#     4  10  23  45  63  90 133 172 213 267 326 392
#     4  12  23  46  73  97 130 179 228 280 335 402
#     4  11  25  44  66  99 135 172 223 278 334 400
#     4  11  26  43  68 100 133 174 222 277 337 398
#     4  11  26  43  67 101 132 171 224 275 333 401
#     4  11  25  44  67  98 135 173 221 275 332 401
#
# _framework density 21.124299000000001
#
# number of rings (size 3 to 8) (size 9 to 14) (size 15 to 20)
#    0.000    1.000    5.000    0.750    7.000    3.000 
#    0.000    0.000    0.000    0.000    0.000    0.000 
#    0.000    0.000    0.000    0.000    0.000    0.000 
#
# Total GULP energy -357609.891670 kJ/mol
# GULP energy per Si atom -5587.654557 kJ/mol
# Density = 2.107622 g / cm^3
# Si number density = 21.124299 Si / 1000 Ang^3
#
#
#
# Elastic Constant Matrix: (Units=GPa)
#
#
# Indices 1 2 3 4 5 6 
#
# 1 102.2920 31.0849 29.2582 0.0000 0.0000 0.0000
# 2 31.0849 35.2437 20.9087 0.0000 0.0000 0.0000
# 3 29.2582 20.9087 88.7038 0.0000 0.0000 0.0000
# 4 0.0000 0.0000 0.0000 24.9743 0.0000 0.0000
# 5 0.0000 0.0000 0.0000 0.0000 26.3452 0.0000
# 6 0.0000 0.0000 0.0000 0.0000 0.0000 44.0071
#
#
#
# Elastic Compliance Matrix: (Units=1/GPa)
#
#
# Indices 1 2 3 4 5 6 
#
# 1 0.013635 -0.010879 -0.001933 0.000000 0.000000 0.000000
# 2 -0.010879 0.041667 -0.006233 0.000000 0.000000 0.000000
# 3 -0.001933 -0.006233 0.013380 0.000000 0.000000 0.000000
# 4 0.000000 0.000000 0.000000 0.040041 0.000000 0.000000
# 5 0.000000 0.000000 0.000000 0.000000 0.037958 0.000000
# 6 0.000000 0.000000 0.000000 0.000000 0.000000 0.022724
#
#
# Mechanical properties :
#
#
# Convention : Reuss Voigt Hill
#
# Bulk Modulus (GPa) = 32.68855 43.19368 37.94112
# Shear Modulus (GPa) = 22.96821 28.73116 25.84968
#
# Velocity S-wave (km/s) = 3.30098 3.69195 3.50193
# Velocity P-wave (km/s) = 5.48057 6.21818 5.86099
#
# Compressibility (1/GPa) = 0.03059175
#
# Stress axis : x y z
#
# Youngs Moduli (GPa) = 73.34167 23.99976 74.73691
#
# Poissons Ratio (x) = 0.26110 0.14446
# Poissons Ratio (y) = 0.79789 0.46584
# Poissons Ratio (z) = 0.14177 0.14959
#
# Static dielectric constant tensor:
#      x y z
#    x 1.763720 0.000000 0.000000 
#    y 0.000000 1.783050 0.000000 
#    z 0.000000 0.000000 1.780230 
# 
# From -- ./inp_files/21179.got.cif
#   From: 2010.05.17/outbox.cif.g08.bks.cpg/sg56_11_cif.got.tgz:21179.got - 2010.06.03 13:42:01.
