data_PCOD9432465
_publ_section_title
;
Structure prediction by ZEFSAII (Michael W. Deem and Ramdas Pophale) SiO2 
 PCOD9432465
Probable space group: P C C N
;
_chemical_formula_sum "Si O2"
_cell_formula_units_Z 48
_cell_length_a 15.143394
_cell_length_b 9.277835
_cell_length_c 13.922004
_cell_angle_alpha 90.000000
_cell_angle_beta 90.000000
_cell_angle_gamma 90.000000
_cell_volume 1956.012477
_symmetry_space_group_name_H-M "P C C N"
_symmetry_group_IT_number 56
_symmetry_cell_setting 'orthorhombic'
loop_
_space_group_symop_operation_xyz
x,y,z
1/2-x,1/2-y,z
1/2+x,-y,1/2-z
-x,1/2+y,1/2-z
-x,-y,-z
1/2+x,1/2+y,-z
1/2-x,y,1/2+z
x,1/2-y,1/2+z
loop_
_atom_site_type_symbol
_atom_site_label
_atom_site_fract_x
_atom_site_fract_y
_atom_site_fract_z
Si Si1 0.984988 0.324925 0.564733
Si Si2 0.645614 0.491572 0.846897
Si Si3 0.890738 0.757766 0.085356
Si Si4 0.250000 0.750000 0.172280
Si Si5 0.250000 0.250000 0.080496
Si Si6 0.533468 0.467622 0.671811
Si Si7 0.139707 0.524658 0.298219
O O1 0.063280 0.413024 0.617681
O O2 0.019386 0.331695 0.455834
O O3 0.896284 0.392118 0.607155
O O4 0.981871 0.158126 0.595717
O O5 0.684924 0.346531 0.893644
O O6 0.722364 0.612955 0.856001
O O7 0.607106 0.423034 0.749257
O O8 0.925347 0.614252 0.133159
O O9 0.840003 0.866839 0.156684
O O10 0.830125 0.721434 0.993723
O O11 0.205306 0.628599 0.240527
O O12 0.441561 0.496756 0.725526
#
# Coordination Sequence:
#
# PCOD9432465 Si02
#       7
#     8   8   8   4   4   8   8
#     4  10  22  46  66 102 137 185 233 297 369 435
#     4  10  24  44  70 102 144 188 245 294 362 443
#     4  11  25  42  71  99 149 188 235 302 371 444
#     4  12  26  42  72 104 144 188 254 316 348 418
#     4  10  26  46  68 112 144 196 228 308 394 424
#     4  11  23  44  74 104 133 193 249 297 358 450
#     4  11  24  43  67 104 139 190 246 293 360 433
#
# _framework density 24.539721
#
# number of rings (size 3 to 8) (size 9 to 14) (size 15 to 20)
#    0.000    1.333    1.667    3.000   11.667    0.000 
#    0.000    3.333    0.000    0.000    0.000    0.000 
#    0.000    0.000    0.000    0.000    0.000    0.000 
#
# Total GULP energy -267949.967048 kJ/mol
# GULP energy per Si atom -5582.290980 kJ/mol
# Density = 2.448387 g / cm^3
# Si number density = 24.539721 Si / 1000 Ang^3
#
#
#
# Elastic Constant Matrix: (Units=GPa)
#
#
# Indices 1 2 3 4 5 6 
#
# 1 79.6974 32.9519 11.3773 0.0000 0.0000 0.0000
# 2 32.9519 143.4382 29.2390 0.0000 0.0000 0.0000
# 3 11.3773 29.2390 45.1646 0.0000 0.0000 0.0000
# 4 0.0000 0.0000 0.0000 27.4250 0.0000 0.0000
# 5 0.0000 0.0000 0.0000 0.0000 42.2174 0.0000
# 6 0.0000 0.0000 0.0000 0.0000 0.0000 40.7477
#
#
#
# Elastic Compliance Matrix: (Units=1/GPa)
#
#
# Indices 1 2 3 4 5 6 
#
# 1 0.013972 -0.002871 -0.001661 0.000000 0.000000 0.000000
# 2 -0.002871 0.008622 -0.004858 0.000000 0.000000 0.000000
# 3 -0.001661 -0.004858 0.025705 0.000000 0.000000 0.000000
# 4 0.000000 0.000000 0.000000 0.036463 0.000000 0.000000
# 5 0.000000 0.000000 0.000000 0.000000 0.023687 0.000000
# 6 0.000000 0.000000 0.000000 0.000000 0.000000 0.024541
#
#
# Mechanical properties :
#
#
# Convention : Reuss Voigt Hill
#
# Bulk Modulus (GPa) = 33.87810 46.15962 40.01886
# Shear Modulus (GPa) = 30.93887 35.06012 32.99950
#
# Velocity S-wave (km/s) = 3.55458 3.78393 3.67105
# Velocity P-wave (km/s) = 5.53914 6.15969 5.85764
#
# Compressibility (1/GPa) = 0.02951760
#
# Stress axis : x y z
#
# Youngs Moduli (GPa) = 71.57338 115.98839 38.90324
#
# Poissons Ratio (x) = 0.33302 0.06461
# Poissons Ratio (y) = 0.20550 0.18900
# Poissons Ratio (z) = 0.11887 0.56350
#
# Static dielectric constant tensor:
#      x y z
#    x 2.468390 0.000000 0.000000 
#    y 0.000000 1.955930 0.000000 
#    z 0.000000 0.000000 2.009130 
# 
# From -- ./inp_files/12714.got.cif
#   From: 2010.05.17/outbox.cif.g08.bks.cpg/sg56_7_cif.got.tgz:12714.got - 2010.06.03 13:42:01.
