data_PCOD9432365
_publ_section_title
;
Structure prediction by ZEFSAII (Michael W. Deem and Ramdas Pophale) SiO2 
 PCOD9432365
Probable space group: P C C N
;
_chemical_formula_sum "Si O2"
_cell_formula_units_Z 64
_cell_length_a 25.299761
_cell_length_b 11.873522
_cell_length_c 9.610773
_cell_angle_alpha 90.000000
_cell_angle_beta 90.000000
_cell_angle_gamma 90.000000
_cell_volume 2887.049961
_symmetry_space_group_name_H-M "P C C N"
_symmetry_group_IT_number 56
_symmetry_cell_setting 'orthorhombic'
loop_
_space_group_symop_operation_xyz
x,y,z
1/2-x,1/2-y,z
1/2+x,-y,1/2-z
-x,1/2+y,1/2-z
-x,-y,-z
1/2+x,1/2+y,-z
1/2-x,y,1/2+z
x,1/2-y,1/2+z
loop_
_atom_site_type_symbol
_atom_site_label
_atom_site_fract_x
_atom_site_fract_y
_atom_site_fract_z
Si Si1 0.840038 0.660237 0.667535
Si Si2 0.857354 0.866244 0.845628
Si Si3 0.992336 0.312343 0.256509
Si Si4 0.425542 0.981720 0.281970
Si Si5 0.981861 0.123203 0.448940
Si Si6 0.600568 0.093529 0.429945
Si Si7 0.254858 0.022961 0.783473
Si Si8 0.226560 0.871456 0.040264
O O1 0.868642 0.759140 0.750968
O O2 0.839936 0.674567 0.500528
O O3 0.870883 0.546360 0.703106
O O4 0.782473 0.632023 0.726261
O O5 0.812057 0.931211 0.758973
O O6 0.899690 0.963344 0.877310
O O7 0.012079 0.198756 0.333387
O O8 0.935280 0.336983 0.325019
O O9 0.029854 0.420228 0.286908
O O10 0.984949 0.307609 0.091180
O O11 0.430231 0.911940 0.139964
O O12 0.426629 0.906323 0.419287
O O13 0.000000 0.000000 0.500000
O O14 0.662330 0.129508 0.444388
O O15 0.243438 0.968771 0.932484
O O16 0.247141 0.917041 0.681507
O O17 0.250000 0.750000 0.002908
#
# Coordination Sequence:
#
# PCOD9432365 Si02
#       8
#     8   8   8   8   8   8   8   8
#     4  11  23  40  64  97 132 173 221 273 338 407
#     4  10  24  39  62  95 128 170 219 272 334 404
#     4  11  23  42  70  96 139 181 225 284 345 404
#     4  10  22  43  68  95 138 175 224 290 332 414
#     4  10  24  43  66 103 131 183 234 276 346 408
#     4  10  22  45  62 100 135 172 237 272 344 419
#     4  11  21  44  62  92 130 167 220 279 334 408
#     4  11  24  44  67  93 131 175 226 283 343 406
#
# _framework density 22.167956
#
# number of rings (size 3 to 8) (size 9 to 14) (size 15 to 20)
#    0.000    1.500    3.750    1.875    1.750   10.000 
#   13.500    0.000    0.000    0.000    0.000    0.000 
#    0.000    0.000    0.000    0.000    0.000    0.000 
#
# Total GULP energy -356870.911279 kJ/mol
# GULP energy per Si atom -5576.107989 kJ/mol
# Density = 2.211750 g / cm^3
# Si number density = 22.167956 Si / 1000 Ang^3
#
#
#
# Elastic Constant Matrix: (Units=GPa)
#
#
# Indices 1 2 3 4 5 6 
#
# 1 34.0337 4.0502 9.6603 0.0000 0.0000 0.0000
# 2 4.0502 100.4666 20.2085 0.0000 0.0000 0.0000
# 3 9.6603 20.2085 78.4718 0.0000 0.0000 0.0000
# 4 0.0000 0.0000 0.0000 17.9772 0.0000 0.0000
# 5 0.0000 0.0000 0.0000 0.0000 10.2343 0.0000
# 6 0.0000 0.0000 0.0000 0.0000 0.0000 22.2585
#
#
#
# Elastic Compliance Matrix: (Units=1/GPa)
#
#
# Indices 1 2 3 4 5 6 
#
# 1 0.030470 -0.000500 -0.003622 0.000000 0.000000 0.000000
# 2 -0.000500 0.010506 -0.002644 0.000000 0.000000 0.000000
# 3 -0.003622 -0.002644 0.013870 0.000000 0.000000 0.000000
# 4 0.000000 0.000000 0.000000 0.055626 0.000000 0.000000
# 5 0.000000 0.000000 0.000000 0.000000 0.097710 0.000000
# 6 0.000000 0.000000 0.000000 0.000000 0.000000 0.044927
#
#
# Mechanical properties :
#
#
# Convention : Reuss Voigt Hill
#
# Bulk Modulus (GPa) = 24.20487 31.20112 27.70300
# Shear Modulus (GPa) = 17.83087 22.03088 19.93087
#
# Velocity S-wave (km/s) = 2.83919 3.15591 3.00173
# Velocity P-wave (km/s) = 4.65731 5.23308 4.95357
#
# Compressibility (1/GPa) = 0.04131400
#
# Stress axis : x y z
#
# Youngs Moduli (GPa) = 32.81885 95.18807 72.09679
#
# Poissons Ratio (x) = 0.04757 0.26116
# Poissons Ratio (y) = 0.01640 0.19062
# Poissons Ratio (z) = 0.11888 0.25167
#
# Static dielectric constant tensor:
#      x y z
#    x 1.851300 0.000000 0.000000 
#    y 0.000000 1.907430 0.000000 
#    z 0.000000 0.000000 1.825060 
# 
# From -- ./inp_files/5229.got.cif
#   From: 2010.05.17/outbox.cif.g08.bks.cpg/sg56_3_cif.got.tgz:5229.got - 2010.06.03 13:42:01.
