data_PCOD9432704
_publ_section_title
;
Structure prediction by ZEFSAII (Michael W. Deem and Ramdas Pophale) SiO2 
 PCOD9432704
Probable space group: P C C N
;
_chemical_formula_sum "Si O2"
_cell_formula_units_Z 56
_cell_length_a 14.062118
_cell_length_b 18.390941
_cell_length_c 8.252666
_cell_angle_alpha 90.000000
_cell_angle_beta 90.000000
_cell_angle_gamma 90.000000
_cell_volume 2134.268025
_symmetry_space_group_name_H-M "P C C N"
_symmetry_group_IT_number 56
_symmetry_cell_setting 'orthorhombic'
loop_
_space_group_symop_operation_xyz
x,y,z
1/2-x,1/2-y,z
1/2+x,-y,1/2-z
-x,1/2+y,1/2-z
-x,-y,-z
1/2+x,1/2+y,-z
1/2-x,y,1/2+z
x,1/2-y,1/2+z
loop_
_atom_site_type_symbol
_atom_site_label
_atom_site_fract_x
_atom_site_fract_y
_atom_site_fract_z
Si Si1 0.670080 0.688979 0.167998
Si Si2 0.870124 0.520806 0.274915
Si Si3 0.549735 0.101460 0.710556
Si Si4 0.796548 0.175570 0.019795
Si Si5 0.099824 0.890162 0.452822
Si Si6 0.463824 0.728220 0.218910
Si Si7 0.286982 0.410354 0.544442
O O1 0.750000 0.750000 0.209063
O O2 0.564669 0.715804 0.134921
O O3 0.659638 0.628791 0.309616
O O4 0.710809 0.649079 0.012512
O O5 0.888630 0.442266 0.200661
O O6 0.776452 0.524635 0.385082
O O7 0.961417 0.557144 0.361281
O O8 0.844716 0.569257 0.115249
O O9 0.646747 0.110572 0.611434
O O10 0.533138 0.187414 0.736109
O O11 0.556560 0.069505 0.892354
O O12 0.750000 0.250000 0.101216
O O13 0.698820 0.137847 0.971749
O O14 0.872670 0.204941 0.889140
O O15 0.044741 0.820755 0.381120
#
# Coordination Sequence:
#
# PCOD9432704 Si02
#       7
#     8   8   8   8   8   8   8
#     4  11  23  42  73 106 142 182 241 305 362 429
#     4  11  26  46  69 102 142 197 236 299 360 445
#     4  12  24  44  70 100 141 181 244 292 363 427
#     4  12  25  45  71 107 143 184 242 303 364 434
#     4  12  27  44  70 102 146 190 243 297 367 439
#     4  12  24  43  73 105 139 187 243 301 365 432
#     4  10  23  44  67  98 144 182 239 282 370 421
#
# _framework density 26.238505
#
# number of rings (size 3 to 8) (size 9 to 14) (size 15 to 20)
#    0.000    0.571    2.857    5.143    4.000    2.286 
#    2.571    1.429    0.000    0.000    0.000    0.000 
#    0.000    0.000    0.000    0.000    0.000    0.000 
#
# Total GULP energy -313321.970192 kJ/mol
# GULP energy per Si atom -5595.035182 kJ/mol
# Density = 2.617878 g / cm^3
# Si number density = 26.238505 Si / 1000 Ang^3
#
#
#
# Elastic Constant Matrix: (Units=GPa)
#
#
# Indices 1 2 3 4 5 6 
#
# 1 158.2952 25.7272 17.1569 0.0000 0.0000 0.0000
# 2 25.7272 87.4878 4.9151 0.0000 0.0000 0.0000
# 3 17.1569 4.9151 66.0188 0.0000 0.0000 0.0000
# 4 0.0000 0.0000 0.0000 45.0679 0.0000 0.0000
# 5 0.0000 0.0000 0.0000 0.0000 14.2326 0.0000
# 6 0.0000 0.0000 0.0000 0.0000 0.0000 17.5769
#
#
#
# Elastic Compliance Matrix: (Units=1/GPa)
#
#
# Indices 1 2 3 4 5 6 
#
# 1 0.006804 -0.001909 -0.001626 0.000000 0.000000 0.000000
# 2 -0.001909 0.012014 -0.000398 0.000000 0.000000 0.000000
# 3 -0.001626 -0.000398 0.015599 0.000000 0.000000 0.000000
# 4 0.000000 0.000000 0.000000 0.022189 0.000000 0.000000
# 5 0.000000 0.000000 0.000000 0.000000 0.070261 0.000000
# 6 0.000000 0.000000 0.000000 0.000000 0.000000 0.056893
#
#
# Mechanical properties :
#
#
# Convention : Reuss Voigt Hill
#
# Bulk Modulus (GPa) = 37.66483 45.26668 41.46575
# Shear Modulus (GPa) = 24.94048 32.97567 28.95807
#
# Velocity S-wave (km/s) = 3.08641 3.54894 3.32572
# Velocity P-wave (km/s) = 5.20454 5.83804 5.53037
#
# Compressibility (1/GPa) = 0.02654997
#
# Stress axis : x y z
#
# Youngs Moduli (GPa) = 146.97490 83.23595 64.10495
#
# Poissons Ratio (x) = 0.15893 0.10424
# Poissons Ratio (y) = 0.28064 0.02553
# Poissons Ratio (z) = 0.23899 0.03315
#
# Static dielectric constant tensor:
#      x y z
#    x 2.047450 0.000000 0.000000 
#    y 0.000000 2.050870 0.000000 
#    z 0.000000 0.000000 2.134130 
# 
# From -- ./inp_files/3564.got.cif
#   From: 2010.05.17/outbox.cif.g08.bks.cpg/sg56_2_cif.got.tgz:3564.got - 2010.06.03 13:42:01.
