data_PCOD9432829
_publ_section_title
;
Structure prediction by ZEFSAII (Michael W. Deem and Ramdas Pophale) SiO2 
 PCOD9432829
Probable space group: P C C N
;
_chemical_formula_sum "Si O2"
_cell_formula_units_Z 32
_cell_length_a 8.589347
_cell_length_b 27.036305
_cell_length_c 5.520197
_cell_angle_alpha 90.000000
_cell_angle_beta 90.000000
_cell_angle_gamma 90.000000
_cell_volume 1281.923361
_symmetry_space_group_name_H-M "P C C N"
_symmetry_group_IT_number 56
_symmetry_cell_setting 'orthorhombic'
loop_
_space_group_symop_operation_xyz
x,y,z
1/2-x,1/2-y,z
1/2+x,-y,1/2-z
-x,1/2+y,1/2-z
-x,-y,-z
1/2+x,1/2+y,-z
1/2-x,y,1/2+z
x,1/2-y,1/2+z
loop_
_atom_site_type_symbol
_atom_site_label
_atom_site_fract_x
_atom_site_fract_y
_atom_site_fract_z
Si Si1 0.926579 0.769187 0.419946
Si Si2 0.476272 0.117465 0.103470
Si Si3 0.327900 0.016871 0.066511
Si Si4 0.219127 0.852157 0.076158
O O1 0.750000 0.750000 0.397605
O O2 0.996755 0.742222 0.654864
O O3 0.922060 0.827761 0.465335
O O4 0.347756 0.076580 0.074880
O O5 0.553135 0.122991 0.372071
O O6 0.637432 0.108594 0.952307
O O7 0.277107 0.001788 0.336830
O O8 0.500000 0.000000 0.000000
O O9 0.236904 0.824670 0.823971
#
# Coordination Sequence:
#
# PCOD9432829 Si02
#       4
#     8   8   8   8
#     4  10  24  39  62  94 142 176 234 299 342 426
#     4  10  24  43  75 100 148 189 246 291 389 420
#     4  12  31  48  81 113 154 195 255 310 381 454
#     4   8  20  36  67  96 134 184 230 284 359 444
#
# _framework density 24.962491
#
# number of rings (size 3 to 8) (size 9 to 14) (size 15 to 20)
#    1.500    0.500    0.000    0.750   17.500    0.000 
#    0.000    3.750    0.000    0.000    0.000    0.000 
#    0.000    0.000    0.000    0.000    0.000    0.000 
#
# Total GULP energy -178377.154022 kJ/mol
# GULP energy per Si atom -5574.286063 kJ/mol
# Density = 2.490568 g / cm^3
# Si number density = 24.962491 Si / 1000 Ang^3
#
#
#
# Elastic Constant Matrix: (Units=GPa)
#
#
# Indices 1 2 3 4 5 6 
#
# 1 50.9944 -15.3543 0.2517 0.0000 0.0000 0.0000
# 2 -15.3543 48.9708 14.7784 0.0000 0.0000 0.0000
# 3 0.2517 14.7784 171.3856 0.0000 0.0000 0.0000
# 4 0.0000 0.0000 0.0000 19.2767 0.0000 0.0000
# 5 0.0000 0.0000 0.0000 0.0000 38.1796 0.0000
# 6 0.0000 0.0000 0.0000 0.0000 0.0000 43.1542
#
#
#
# Elastic Compliance Matrix: (Units=1/GPa)
#
#
# Indices 1 2 3 4 5 6 
#
# 1 0.021722 0.007002 -0.000636 0.000000 0.000000 0.000000
# 2 0.007002 0.023223 -0.002013 0.000000 0.000000 0.000000
# 3 -0.000636 -0.002013 0.006009 0.000000 0.000000 0.000000
# 4 0.000000 0.000000 0.000000 0.051876 0.000000 0.000000
# 5 0.000000 0.000000 0.000000 0.000000 0.026192 0.000000
# 6 0.000000 0.000000 0.000000 0.000000 0.000000 0.023173
#
#
# Mechanical properties :
#
#
# Convention : Reuss Voigt Hill
#
# Bulk Modulus (GPa) = 16.76112 30.07805 23.41959
# Shear Modulus (GPa) = 30.60456 38.23378 34.41917
#
# Velocity S-wave (km/s) = 3.50526 3.91787 3.71730
# Velocity P-wave (km/s) = 4.80745 5.70454 5.27510
#
# Compressibility (1/GPa) = 0.05966189
#
# Stress axis : x y z
#
# Youngs Moduli (GPa) = 46.03726 43.06020 166.40894
#
# Poissons Ratio (x) = -0.30152 0.10579
# Poissons Ratio (y) = -0.32237 0.33495
# Poissons Ratio (z) = 0.02927 0.08667
#
# Static dielectric constant tensor:
#      x y z
#    x 2.065950 0.000000 0.000000 
#    y 0.000000 1.999520 0.000000 
#    z 0.000000 0.000000 2.075660 
# 
# From -- ./inp_files/135.got.cif
#   From: 2010.05.17/outbox.cif.g08.bks.cpg/sg56_1_cif.got.tgz:135.got - 2010.06.03 13:42:01.
