data_PCOD9432627
_publ_section_title
;
Structure prediction by ZEFSAII (Michael W. Deem and Ramdas Pophale) SiO2 
 PCOD9432627
Probable space group: P C C N
;
_chemical_formula_sum "Si O2"
_cell_formula_units_Z 32
_cell_length_a 4.814076
_cell_length_b 11.335894
_cell_length_c 23.929549
_cell_angle_alpha 90.000000
_cell_angle_beta 90.000000
_cell_angle_gamma 90.000000
_cell_volume 1305.879884
_symmetry_space_group_name_H-M "P C C N"
_symmetry_group_IT_number 56
_symmetry_cell_setting 'orthorhombic'
loop_
_space_group_symop_operation_xyz
x,y,z
1/2-x,1/2-y,z
1/2+x,-y,1/2-z
-x,1/2+y,1/2-z
-x,-y,-z
1/2+x,1/2+y,-z
1/2-x,y,1/2+z
x,1/2-y,1/2+z
loop_
_atom_site_type_symbol
_atom_site_label
_atom_site_fract_x
_atom_site_fract_y
_atom_site_fract_z
Si Si1 0.455847 0.601477 0.070977
Si Si2 0.956818 0.473268 0.785361
Si Si3 0.045794 0.949118 0.408119
Si Si4 0.250000 0.250000 0.834622
Si Si5 0.750000 0.750000 0.476481
O O1 0.139097 0.560296 0.069728
O O2 0.540279 0.679457 0.124451
O O3 0.639500 0.483428 0.078746
O O4 0.558573 0.671481 0.017317
O O5 0.643395 0.473293 0.764191
O O6 0.994079 0.548858 0.841773
O O7 0.077478 0.344495 0.799299
O O8 0.937568 0.833975 0.438265
#
# Coordination Sequence:
#
# PCOD9432627 Si02
#       5
#     8   8   8   4   4
#     4  10  23  42  67  94 127 174 214 250 320 407
#     4  11  24  43  67  96 128 170 220 266 313 375
#     4  11  24  43  64  98 132 167 220 263 314 392
#     4   9  22  43  68  90 126 173 212 255 318 390
#     4  11  24  41  68  98 134 165 204 279 332 358
#
# _framework density 24.504552
#
# number of rings (size 3 to 8) (size 9 to 14) (size 15 to 20)
#    0.000    1.500    0.000    4.500    0.000   18.000 
#    0.000    5.000    0.000    0.000    0.000    0.000 
#    0.000    0.000    0.000    0.000    0.000    0.000 
#
# Total GULP energy -179707.414957 kJ/mol
# GULP energy per Si atom -5615.856717 kJ/mol
# Density = 2.444878 g / cm^3
# Si number density = 24.504552 Si / 1000 Ang^3
#
#
#
# Elastic Constant Matrix: (Units=GPa)
#
#
# Indices 1 2 3 4 5 6 
#
# 1 77.9660 -0.0631 6.8847 0.0000 0.0000 0.0000
# 2 -0.0631 85.4894 45.2394 0.0000 0.0000 0.0000
# 3 6.8847 45.2394 135.4481 0.0000 0.0000 0.0000
# 4 0.0000 0.0000 0.0000 25.5103 0.0000 0.0000
# 5 0.0000 0.0000 0.0000 0.0000 12.1703 0.0000
# 6 0.0000 0.0000 0.0000 0.0000 0.0000 34.5697
#
#
#
# Elastic Compliance Matrix: (Units=1/GPa)
#
#
# Indices 1 2 3 4 5 6 
#
# 1 0.012897 0.000433 -0.000800 0.000000 0.000000 0.000000
# 2 0.000433 0.014223 -0.004773 0.000000 0.000000 0.000000
# 3 -0.000800 -0.004773 0.009018 0.000000 0.000000 0.000000
# 4 0.000000 0.000000 0.000000 0.039200 0.000000 0.000000
# 5 0.000000 0.000000 0.000000 0.000000 0.082167 0.000000
# 6 0.000000 0.000000 0.000000 0.000000 0.000000 0.028927
#
#
# Mechanical properties :
#
#
# Convention : Reuss Voigt Hill
#
# Bulk Modulus (GPa) = 38.67209 44.78059 41.72634
# Shear Modulus (GPa) = 24.35094 30.90625 27.62860
#
# Velocity S-wave (km/s) = 3.15577 3.55525 3.36145
# Velocity P-wave (km/s) = 5.39392 5.93019 5.66840
#
# Compressibility (1/GPa) = 0.02585844
#
# Stress axis : x y z
#
# Youngs Moduli (GPa) = 77.53678 70.30766 110.89448
#
# Poissons Ratio (x) = -0.03044 0.08873
# Poissons Ratio (y) = -0.03357 0.52925
# Poissons Ratio (z) = 0.06204 0.33554
#
# Static dielectric constant tensor:
#      x y z
#    x 1.892280 0.000000 0.000000 
#    y 0.000000 1.943940 0.000000 
#    z 0.000000 0.000000 1.925260 
# 
# From -- ./inp_files/17286.got.cif
#   From: 2010.05.17/outbox.cif.g08.bks.cpg/sg56_9_cif.got.tgz:17286.got - 2010.06.03 13:42:01.
