data_PCOD9432750
_publ_section_title
;
Structure prediction by ZEFSAII (Michael W. Deem and Ramdas Pophale) SiO2 
 PCOD9432750
Probable space group: P C C N
;
_chemical_formula_sum "Si O2"
_cell_formula_units_Z 48
_cell_length_a 9.274562
_cell_length_b 24.657529
_cell_length_c 10.135172
_cell_angle_alpha 90.000000
_cell_angle_beta 90.000000
_cell_angle_gamma 90.000000
_cell_volume 2317.790000
_symmetry_space_group_name_H-M "P C C N"
_symmetry_group_IT_number 56
_symmetry_cell_setting 'orthorhombic'
loop_
_space_group_symop_operation_xyz
x,y,z
1/2-x,1/2-y,z
1/2+x,-y,1/2-z
-x,1/2+y,1/2-z
-x,-y,-z
1/2+x,1/2+y,-z
1/2-x,y,1/2+z
x,1/2-y,1/2+z
loop_
_atom_site_type_symbol
_atom_site_label
_atom_site_fract_x
_atom_site_fract_y
_atom_site_fract_z
Si Si1 0.692705 0.123443 0.509172
Si Si2 0.108334 0.778964 0.429222
Si Si3 0.599213 0.684361 0.019447
Si Si4 0.563305 0.965231 0.873603
Si Si5 0.850040 0.841576 0.316014
Si Si6 0.228160 0.551116 0.741079
O O1 0.804699 0.173407 0.498382
O O2 0.527179 0.141521 0.509196
O O3 0.717402 0.085864 0.635484
O O4 0.727151 0.089480 0.382484
O O5 0.250000 0.750000 0.365405
O O6 0.999694 0.739698 0.512133
O O7 0.999011 0.808453 0.331977
O O8 0.674187 0.667067 0.158366
O O9 0.719780 0.682706 0.904217
O O10 0.616616 0.902061 0.875916
O O11 0.431889 0.965124 0.774402
O O12 0.686358 0.998770 0.802613
O O13 0.500000 0.000000 0.000000
#
# Coordination Sequence:
#
# PCOD9432750 Si02
#       6
#     8   8   8   8   8   8
#     4  11  23  47  71 106 137 184 238 295 350 432
#     4  10  23  45  73 100 138 183 237 294 360 421
#     4  11  27  43  73 102 144 190 232 297 358 429
#     4  12  27  45  73 107 147 191 238 301 358 428
#     4  12  26  48  67 109 146 186 242 293 361 425
#     4  12  25  45  73 105 143 185 240 291 362 424
#
# _framework density 20.709382999999999
#
# number of rings (size 3 to 8) (size 9 to 14) (size 15 to 20)
#    0.000    0.667    5.000    0.500    4.667    9.333 
#    0.000    0.000    0.000    0.000    0.000    0.000 
#    0.000    0.000    0.000    0.000    0.000    0.000 
#
# Total GULP energy -267447.623257 kJ/mol
# GULP energy per Si atom -5571.825485 kJ/mol
# Density = 2.066225 g / cm^3
# Si number density = 20.709383 Si / 1000 Ang^3
#
#
#
# Elastic Constant Matrix: (Units=GPa)
#
#
# Indices 1 2 3 4 5 6 
#
# 1 109.8212 24.3091 14.7128 0.0000 0.0000 0.0000
# 2 24.3091 109.0797 40.6273 0.0000 0.0000 0.0000
# 3 14.7128 40.6273 129.3448 0.0000 0.0000 0.0000
# 4 0.0000 0.0000 0.0000 -0.4462 0.0000 0.0000
# 5 0.0000 0.0000 0.0000 0.0000 -16.5912 0.0000
# 6 0.0000 0.0000 0.0000 0.0000 0.0000 41.0745
#
#
#
# Elastic Compliance Matrix: (Units=1/GPa)
#
#
# Indices 1 2 3 4 5 6 
#
# 1 0.009604 -0.001963 -0.000476 0.000000 0.000000 0.000000
# 2 -0.001963 0.010783 -0.003164 0.000000 0.000000 0.000000
# 3 -0.000476 -0.003164 0.008779 0.000000 0.000000 0.000000
# 4 0.000000 0.000000 0.000000 -2.241055 0.000000 0.000000
# 5 0.000000 0.000000 0.000000 0.000000 -0.060273 0.000000
# 6 0.000000 0.000000 0.000000 0.000000 0.000000 0.024346
#
#
# Mechanical properties :
#
#
# Convention : Reuss Voigt Hill
#
# Bulk Modulus (GPa) = 55.67565 56.39379 56.03472
# Shear Modulus (GPa) = -2.24153 22.71384 10.23616
#
# Velocity S-wave (km/s) = -1.04150 3.31537 2.22564
# Velocity P-wave (km/s) = 5.04939 6.47656 5.80698
#
# Compressibility (1/GPa) = 0.01796117
#
# Stress axis : x y z
#
# Youngs Moduli (GPa) = 104.12346 92.73459 113.90626
#
# Poissons Ratio (x) = 0.18204 0.05420
# Poissons Ratio (y) = 0.20440 0.36038
# Poissons Ratio (z) = 0.04955 0.29339
#
# Static dielectric constant tensor:
#      x y z
#    x 1.625390 0.000000 0.000000 
#    y 0.000000 1.686050 0.000000 
#    z 0.000000 0.000000 1.715300 
# 
# From -- ./inp_files/2206.got.cif
#   From: 2010.05.17/outbox.cif.g08.bks.cpg/sg56_2_cif.got.tgz:2206.got - 2010.06.03 13:42:01.
