data_PCOD9432241
_publ_section_title
;
Structure prediction by ZEFSAII (Michael W. Deem and Ramdas Pophale) SiO2 
 PCOD9432241
Probable space group: P C C N
;
_chemical_formula_sum "Si O2"
_cell_formula_units_Z 40
_cell_length_a 18.871968
_cell_length_b 5.521936
_cell_length_c 14.699595
_cell_angle_alpha 90.000000
_cell_angle_beta 90.000000
_cell_angle_gamma 90.000000
_cell_volume 1531.841848
_symmetry_space_group_name_H-M "P C C N"
_symmetry_group_IT_number 56
_symmetry_cell_setting 'orthorhombic'
loop_
_space_group_symop_operation_xyz
x,y,z
1/2-x,1/2-y,z
1/2+x,-y,1/2-z
-x,1/2+y,1/2-z
-x,-y,-z
1/2+x,1/2+y,-z
1/2-x,y,1/2+z
x,1/2-y,1/2+z
loop_
_atom_site_type_symbol
_atom_site_label
_atom_site_fract_x
_atom_site_fract_y
_atom_site_fract_z
Si Si1 0.604934 0.154622 0.741337
Si Si2 0.329499 0.706647 0.433809
Si Si3 0.576776 0.625454 0.964846
Si Si4 0.687004 0.573698 0.381951
Si Si5 0.029380 0.285600 0.361816
O O1 0.623000 0.331946 0.657584
O O2 0.531153 0.188307 0.795763
O O3 0.667865 0.141243 0.813795
O O4 0.594775 0.894906 0.692672
O O5 0.250000 0.750000 0.395495
O O6 0.309303 0.521003 0.514717
O O7 0.370831 0.924222 0.489117
O O8 0.618162 0.759191 0.885927
O O9 0.510590 0.511166 0.912313
O O10 0.556155 0.823421 0.042550
O O11 0.750000 0.750000 0.356811
#
# Coordination Sequence:
#
# PCOD9432241 Si02
#       5
#     8   8   8   8   8
#     4  11  25  42  69 107 136 187 233 291 347 417
#     4  11  24  46  67 100 142 182 231 290 346 406
#     4  10  22  43  68  97 138 185 228 280 348 412
#     4  12  25  45  74  99 138 188 232 284 349 415
#     4  10  22  42  64 102 142 174 235 283 343 414
#
# _framework density 26.112355999999998
#
# number of rings (size 3 to 8) (size 9 to 14) (size 15 to 20)
#    0.000    1.200    4.000    1.200    2.800    3.200 
#    7.200    0.000    0.000    0.000    0.000    0.000 
#    0.000    0.000    0.000    0.000    0.000    0.000 
#
# Total GULP energy -223106.451450 kJ/mol
# GULP energy per Si atom -5577.661286 kJ/mol
# Density = 2.605292 g / cm^3
# Si number density = 26.112356 Si / 1000 Ang^3
#
#
#
# Elastic Constant Matrix: (Units=GPa)
#
#
# Indices 1 2 3 4 5 6 
#
# 1 71.3369 -10.4316 3.7332 0.0000 0.0000 0.0000
# 2 -10.4316 29.9180 7.1143 0.0000 0.0000 0.0000
# 3 3.7332 7.1143 121.4555 0.0000 0.0000 0.0000
# 4 0.0000 0.0000 0.0000 43.6944 0.0000 0.0000
# 5 0.0000 0.0000 0.0000 0.0000 12.1751 0.0000
# 6 0.0000 0.0000 0.0000 0.0000 0.0000 35.4163
#
#
#
# Elastic Compliance Matrix: (Units=1/GPa)
#
#
# Indices 1 2 3 4 5 6 
#
# 1 0.014842 0.005358 -0.000770 0.000000 0.000000 0.000000
# 2 0.005358 0.035831 -0.002264 0.000000 0.000000 0.000000
# 3 -0.000770 -0.002264 0.008390 0.000000 0.000000 0.000000
# 4 0.000000 0.000000 0.000000 0.022886 0.000000 0.000000
# 5 0.000000 0.000000 0.000000 0.000000 0.082135 0.000000
# 6 0.000000 0.000000 0.000000 0.000000 0.000000 0.028236
#
#
# Mechanical properties :
#
#
# Convention : Reuss Voigt Hill
#
# Bulk Modulus (GPa) = 15.69573 24.83804 20.26689
# Shear Modulus (GPa) = 23.93403 33.07678 28.50541
#
# Velocity S-wave (km/s) = 3.03079 3.56295 3.30759
# Velocity P-wave (km/s) = 4.27451 5.14381 4.72918
#
# Compressibility (1/GPa) = 0.06371158
#
# Stress axis : x y z
#
# Youngs Moduli (GPa) = 67.37726 27.90871 119.19345
#
# Poissons Ratio (x) = -0.14954 0.09178
# Poissons Ratio (y) = -0.36101 0.26980
# Poissons Ratio (z) = 0.05188 0.06317
#
# Static dielectric constant tensor:
#      x y z
#    x 2.128750 0.000000 0.000000 
#    y 0.000000 2.186910 0.000000 
#    z 0.000000 0.000000 2.148380 
# 
# From -- ./inp_files/13176.got.cif
#   From: 2010.05.17/outbox.cif.g08.bks.cpg/sg56_7_cif.got.tgz:13176.got - 2010.06.03 13:42:01.
