data_PCOD9432276
_publ_section_title
;
Structure prediction by ZEFSAII (Michael W. Deem and Ramdas Pophale) SiO2 
 PCOD9432276
Probable space group: P C C N
;
_chemical_formula_sum "Si O2"
_cell_formula_units_Z 44
_cell_length_a 7.926649
_cell_length_b 18.857056
_cell_length_c 13.936850
_cell_angle_alpha 90.000000
_cell_angle_beta 90.000000
_cell_angle_gamma 90.000000
_cell_volume 2083.186461
_symmetry_space_group_name_H-M "P C C N"
_symmetry_group_IT_number 56
_symmetry_cell_setting 'orthorhombic'
loop_
_space_group_symop_operation_xyz
x,y,z
1/2-x,1/2-y,z
1/2+x,-y,1/2-z
-x,1/2+y,1/2-z
-x,-y,-z
1/2+x,1/2+y,-z
1/2-x,y,1/2+z
x,1/2-y,1/2+z
loop_
_atom_site_type_symbol
_atom_site_label
_atom_site_fract_x
_atom_site_fract_y
_atom_site_fract_z
Si Si1 0.000552 0.082305 0.764005
Si Si2 0.450770 0.922989 0.045451
Si Si3 0.250000 0.250000 0.078690
Si Si4 0.290814 0.479464 0.140398
Si Si5 0.180669 0.386006 0.456559
Si Si6 0.107696 0.810586 0.377001
O O1 0.156807 0.071998 0.690868
O O2 0.058978 0.109370 0.867153
O O3 0.873835 0.135959 0.712317
O O4 0.931063 0.003473 0.784644
O O5 0.629988 0.897027 0.083978
O O6 0.303173 0.946623 0.115314
O O7 0.393413 0.863508 0.969180
O O8 0.500000 0.000000 0.000000
O O9 0.418809 0.223123 0.132259
O O10 0.318523 0.312331 0.011325
O O11 0.351112 0.443934 0.041059
O O12 0.250000 0.750000 0.382697
#
# Coordination Sequence:
#
# PCOD9432276 Si02
#       6
#     8   8   4   8   8   8
#     4  12  24  41  67 106 131 181 234 290 355 421
#     4   9  18  43  67  92 133 179 228 297 346 408
#     4  10  22  48  68  92 140 190 220 284 352 428
#     4  11  23  41  68 100 135 172 239 296 352 416
#     4  10  22  42  67  95 136 181 227 286 359 419
#     4  11  25  45  70  99 144 186 236 286 357 431
#
# _framework density 21.121487999999999
#
# number of rings (size 3 to 8) (size 9 to 14) (size 15 to 20)
#    0.000    1.455    5.455    1.636    5.091    2.182 
#    9.818    0.000    0.000    0.000    0.000    0.000 
#    0.000    0.000    0.000    0.000    0.000    0.000 
#
# Total GULP energy -245444.582320 kJ/mol
# GULP energy per Si atom -5578.285962 kJ/mol
# Density = 2.107341 g / cm^3
# Si number density = 21.121488 Si / 1000 Ang^3
#
#
#
# Elastic Constant Matrix: (Units=GPa)
#
#
# Indices 1 2 3 4 5 6 
#
# 1 54.8762 35.4190 28.1954 0.0000 0.0000 0.0000
# 2 35.4190 98.6055 29.3695 0.0000 0.0000 0.0000
# 3 28.1954 29.3695 64.7251 0.0000 0.0000 0.0000
# 4 0.0000 0.0000 0.0000 -50.8101 0.0000 0.0000
# 5 0.0000 0.0000 0.0000 0.0000 28.9311 0.0000
# 6 0.0000 0.0000 0.0000 0.0000 0.0000 42.2558
#
#
#
# Elastic Compliance Matrix: (Units=1/GPa)
#
#
# Indices 1 2 3 4 5 6 
#
# 1 0.027329 -0.007251 -0.008615 0.000000 0.000000 0.000000
# 2 -0.007251 0.013650 -0.003035 0.000000 0.000000 0.000000
# 3 -0.008615 -0.003035 0.020580 0.000000 0.000000 0.000000
# 4 0.000000 0.000000 0.000000 -0.019681 0.000000 0.000000
# 5 0.000000 0.000000 0.000000 0.000000 0.034565 0.000000
# 6 0.000000 0.000000 0.000000 0.000000 0.000000 0.023665
#
#
# Mechanical properties :
#
#
# Convention : Reuss Voigt Hill
#
# Bulk Modulus (GPa) = 42.09235 44.90830 43.50033
# Shear Modulus (GPa) = 34.28680 12.42356 23.35518
#
# Velocity S-wave (km/s) = 4.03341 2.42791 3.32890
# Velocity P-wave (km/s) = 6.45470 5.40071 5.95108
#
# Compressibility (1/GPa) = 0.02375728
#
# Stress axis : x y z
#
# Youngs Moduli (GPa) = 36.59120 73.26073 48.59073
#
# Poissons Ratio (x) = 0.53118 0.41861
# Poissons Ratio (y) = 0.26531 0.14749
# Poissons Ratio (z) = 0.31523 0.22237
#
# Static dielectric constant tensor:
#      x y z
#    x 1.887970 0.000000 0.000000 
#    y 0.000000 1.776900 0.000000 
#    z 0.000000 0.000000 1.762190 
# 
# From -- ./inp_files/10571.got.cif
#   From: 2010.05.17/outbox.cif.g08.bks.cpg/sg56_6_cif.got.tgz:10571.got - 2010.06.03 13:42:01.
