data_PCOD9432389
_publ_section_title
;
Structure prediction by ZEFSAII (Michael W. Deem and Ramdas Pophale) SiO2 
 PCOD9432389
Probable space group: P C C N
;
_chemical_formula_sum "Si O2"
_cell_formula_units_Z 40
_cell_length_a 9.805377
_cell_length_b 10.432289
_cell_length_c 15.426931
_cell_angle_alpha 90.000000
_cell_angle_beta 90.000000
_cell_angle_gamma 90.000000
_cell_volume 1578.059750
_symmetry_space_group_name_H-M "P C C N"
_symmetry_group_IT_number 56
_symmetry_cell_setting 'orthorhombic'
loop_
_space_group_symop_operation_xyz
x,y,z
1/2-x,1/2-y,z
1/2+x,-y,1/2-z
-x,1/2+y,1/2-z
-x,-y,-z
1/2+x,1/2+y,-z
1/2-x,y,1/2+z
x,1/2-y,1/2+z
loop_
_atom_site_type_symbol
_atom_site_label
_atom_site_fract_x
_atom_site_fract_y
_atom_site_fract_z
Si Si1 0.447305 0.253039 0.083602
Si Si2 0.167918 0.992353 0.654816
Si Si3 0.846784 0.857336 0.102992
Si Si4 0.647505 0.067593 0.025099
Si Si5 0.947663 0.988264 0.785793
O O1 0.148489 0.360943 0.121034
O O2 0.451039 0.370912 0.147795
O O3 0.403562 0.298000 0.987407
O O4 0.597137 0.191133 0.075369
O O5 0.025626 0.955442 0.698018
O O6 0.206697 0.910774 0.570626
O O7 0.289368 0.979223 0.722930
O O8 0.750000 0.750000 0.144361
O O9 0.965133 0.900379 0.167641
O O10 0.751496 0.976185 0.074393
O O11 0.500000 0.000000 0.000000
#
# Coordination Sequence:
#
# PCOD9432389 Si02
#       5
#     8   8   8   8   8
#     4  11  24  49  80 104 151 196 245 311 363 445
#     4  11  26  49  70 113 154 192 244 307 374 440
#     4  12  23  47  75 106 144 200 249 299 365 442
#     4  10  22  43  77 106 140 193 248 299 364 436
#     4  12  28  46  77 112 149 198 249 301 383 437
#
# _framework density 25.347581999999999
#
# number of rings (size 3 to 8) (size 9 to 14) (size 15 to 20)
#    0.000    0.800    6.000    1.200    5.600    4.000 
#    0.000    2.000    0.000    0.000    0.000    0.000 
#    0.000    0.000    0.000    0.000    0.000    0.000 
#
# Total GULP energy -224213.145388 kJ/mol
# GULP energy per Si atom -5605.328635 kJ/mol
# Density = 2.528989 g / cm^3
# Si number density = 25.347582 Si / 1000 Ang^3
#
#
#
# Elastic Constant Matrix: (Units=GPa)
#
#
# Indices 1 2 3 4 5 6 
#
# 1 121.9522 19.9247 16.5324 0.0000 0.0000 0.0000
# 2 19.9247 67.9672 4.7907 0.0000 0.0000 0.0000
# 3 16.5324 4.7907 78.5575 0.0000 0.0000 0.0000
# 4 0.0000 0.0000 0.0000 14.9297 0.0000 0.0000
# 5 0.0000 0.0000 0.0000 0.0000 42.8102 0.0000
# 6 0.0000 0.0000 0.0000 0.0000 0.0000 40.8751
#
#
#
# Elastic Compliance Matrix: (Units=1/GPa)
#
#
# Indices 1 2 3 4 5 6 
#
# 1 0.008835 -0.002470 -0.001709 0.000000 0.000000 0.000000
# 2 -0.002470 0.015467 -0.000423 0.000000 0.000000 0.000000
# 3 -0.001709 -0.000423 0.013115 0.000000 0.000000 0.000000
# 4 0.000000 0.000000 0.000000 0.066981 0.000000 0.000000
# 5 0.000000 0.000000 0.000000 0.000000 0.023359 0.000000
# 6 0.000000 0.000000 0.000000 0.000000 0.000000 0.024465
#
#
# Mechanical properties :
#
#
# Convention : Reuss Voigt Hill
#
# Bulk Modulus (GPa) = 35.44440 38.99695 37.22068
# Shear Modulus (GPa) = 29.26902 34.87160 32.07031
#
# Velocity S-wave (km/s) = 3.40178 3.71312 3.56085
# Velocity P-wave (km/s) = 5.42616 5.81389 5.62337
#
# Compressibility (1/GPa) = 0.02821320
#
# Stress axis : x y z
#
# Youngs Moduli (GPa) = 113.18538 64.65468 76.24880
#
# Poissons Ratio (x) = 0.15967 0.13029
# Poissons Ratio (y) = 0.27952 0.03229
# Poissons Ratio (z) = 0.19340 0.02738
#
# Static dielectric constant tensor:
#      x y z
#    x 2.066620 0.000000 0.000000 
#    y 0.000000 2.019190 0.000000 
#    z 0.000000 0.000000 2.033110 
# 
# From -- ./inp_files/14447.got.cif
#   From: 2010.05.17/outbox.cif.g08.bks.cpg/sg56_8_cif.got.tgz:14447.got - 2010.06.03 13:42:01.
