data_PCOD9432185
_publ_section_title
;
Structure prediction by ZEFSAII (Michael W. Deem and Ramdas Pophale) SiO2 
 PCOD9432185
Probable space group: P C C N
;
_chemical_formula_sum "Si O2"
_cell_formula_units_Z 44
_cell_length_a 9.025402
_cell_length_b 10.223099
_cell_length_c 25.740853
_cell_angle_alpha 90.000000
_cell_angle_beta 90.000000
_cell_angle_gamma 90.000000
_cell_volume 2375.046166
_symmetry_space_group_name_H-M "P C C N"
_symmetry_group_IT_number 56
_symmetry_cell_setting 'orthorhombic'
loop_
_space_group_symop_operation_xyz
x,y,z
1/2-x,1/2-y,z
1/2+x,-y,1/2-z
-x,1/2+y,1/2-z
-x,-y,-z
1/2+x,1/2+y,-z
1/2-x,y,1/2+z
x,1/2-y,1/2+z
loop_
_atom_site_type_symbol
_atom_site_label
_atom_site_fract_x
_atom_site_fract_y
_atom_site_fract_z
Si Si1 0.250000 0.250000 0.065401
Si Si2 0.750000 0.250000 0.427509
Si Si3 0.250000 0.250000 0.393086
Si Si4 0.317487 0.490501 0.636543
Si Si5 0.899456 0.950683 0.684456
Si Si6 0.461664 0.145786 0.480750
Si Si7 0.693217 0.398758 0.258064
O O1 0.243531 0.376255 0.101629
O O2 0.111734 0.228769 0.027055
O O3 0.698846 0.372361 0.392961
O O4 0.613237 0.208097 0.462154
O O5 0.151312 0.163201 0.354225
O O6 0.349013 0.159510 0.431581
O O7 0.488893 0.460212 0.650513
O O8 0.244132 0.520067 0.692254
O O9 0.016432 0.901604 0.729134
O O10 0.760120 0.025952 0.708709
O O11 0.500000 0.000000 0.500000
O O12 0.750000 0.250000 0.258289
#
# Coordination Sequence:
#
# PCOD9432185 Si02
#       7
#     4   4   4   8   8   8   8
#     4  11  24  41  66 100 126 161 232 259 334 382
#     4  12  20  44  68  88 138 172 212 266 336 382
#     4  11  24  43  66  96 126 171 224 265 340 382
#     4  10  22  41  65  93 129 167 208 275 318 387
#     4  10  24  40  68  90 130 171 212 270 322 392
#     4  11  24  41  68  95 126 173 218 273 326 398
#     4  10  23  41  62  94 125 171 217 256 325 390
#
# _framework density 18.525956000000001
#
# number of rings (size 3 to 8) (size 9 to 14) (size 15 to 20)
#    1.091    0.364    4.545    0.000    2.545    4.364 
#    3.273    0.000    0.000    0.000    0.000    0.000 
#    0.000    0.000    0.000    0.000    0.000    0.000 
#
# Total GULP energy -244941.211971 kJ/mol
# GULP energy per Si atom -5566.845727 kJ/mol
# Density = 1.848379 g / cm^3
# Si number density = 18.525956 Si / 1000 Ang^3
#
#
#
# Elastic Constant Matrix: (Units=GPa)
#
#
# Indices 1 2 3 4 5 6 
#
# 1 81.9102 23.8112 34.2765 0.0000 0.0000 0.0000
# 2 23.8112 81.9666 52.2409 0.0000 0.0000 0.0000
# 3 34.2765 52.2409 97.0925 0.0000 0.0000 0.0000
# 4 0.0000 0.0000 0.0000 30.6442 0.0000 0.0000
# 5 0.0000 0.0000 0.0000 0.0000 46.3865 0.0000
# 6 0.0000 0.0000 0.0000 0.0000 0.0000 23.2217
#
#
#
# Elastic Compliance Matrix: (Units=1/GPa)
#
#
# Indices 1 2 3 4 5 6 
#
# 1 0.014435 -0.001439 -0.004322 0.000000 0.000000 0.000000
# 2 -0.001439 0.018711 -0.009559 0.000000 0.000000 0.000000
# 3 -0.004322 -0.009559 0.016969 0.000000 0.000000 0.000000
# 4 0.000000 0.000000 0.000000 0.032633 0.000000 0.000000
# 5 0.000000 0.000000 0.000000 0.000000 0.021558 0.000000
# 6 0.000000 0.000000 0.000000 0.000000 0.000000 0.043063
#
#
# Mechanical properties :
#
#
# Convention : Reuss Voigt Hill
#
# Bulk Modulus (GPa) = 51.34960 53.51406 52.43183
# Shear Modulus (GPa) = 27.10024 30.09321 28.59672
#
# Velocity S-wave (km/s) = 3.82884 4.03473 3.93313
# Velocity P-wave (km/s) = 6.87928 7.11717 6.99924
#
# Compressibility (1/GPa) = 0.01947435
#
# Stress axis : x y z
#
# Youngs Moduli (GPa) = 69.27447 53.44542 58.93222
#
# Poissons Ratio (x) = 0.07690 0.25470
# Poissons Ratio (y) = 0.09968 0.56335
# Poissons Ratio (z) = 0.29940 0.51090
#
# Static dielectric constant tensor:
#      x y z
#    x 1.667370 0.000000 0.000000 
#    y 0.000000 1.611990 0.000000 
#    z 0.000000 0.000000 1.658130 
# 
# From -- ./inp_files/23165.got.cif
#   From: 2010.05.17/outbox.cif.g08.bks.cpg/sg56_12_cif.got.tgz:23165.got - 2010.06.03 13:42:01.
