data_PCOD9432102
_publ_section_title
;
Structure prediction by ZEFSAII (Michael W. Deem and Ramdas Pophale) SiO2 
 PCOD9432102
Probable space group: P C C N
;
_chemical_formula_sum "Si O2"
_cell_formula_units_Z 52
_cell_length_a 14.968868
_cell_length_b 9.196637
_cell_length_c 19.098624
_cell_angle_alpha 90.000000
_cell_angle_beta 90.000000
_cell_angle_gamma 90.000000
_cell_volume 2629.178561
_symmetry_space_group_name_H-M "P C C N"
_symmetry_group_IT_number 56
_symmetry_cell_setting 'orthorhombic'
loop_
_space_group_symop_operation_xyz
x,y,z
1/2-x,1/2-y,z
1/2+x,-y,1/2-z
-x,1/2+y,1/2-z
-x,-y,-z
1/2+x,1/2+y,-z
1/2-x,y,1/2+z
x,1/2-y,1/2+z
loop_
_atom_site_type_symbol
_atom_site_label
_atom_site_fract_x
_atom_site_fract_y
_atom_site_fract_z
Si Si1 0.250000 0.750000 0.514703
Si Si2 0.184329 0.542802 0.392127
Si Si3 0.434611 0.852616 0.076148
Si Si4 0.987369 0.623034 0.339726
Si Si5 0.750000 0.250000 0.224412
Si Si6 0.750000 0.750000 0.549818
Si Si7 0.941210 0.190417 0.784381
Si Si8 0.920065 0.816137 0.457426
O O1 0.215854 0.623724 0.462600
O O2 0.165679 0.800818 0.559531
O O3 0.238056 0.613087 0.327565
O O4 0.206320 0.375379 0.403269
O O5 0.081498 0.578500 0.375633
O O6 0.468835 0.780558 0.147089
O O7 0.433607 0.027232 0.078629
O O8 0.498532 0.804018 0.012505
O O9 0.952800 0.479158 0.301031
O O10 0.925393 0.688130 0.400596
O O11 0.006221 0.749304 0.282975
O O12 0.661794 0.227702 0.269118
O O13 0.828571 0.812482 0.500763
#
# Coordination Sequence:
#
# PCOD9432102 Si02
#       8
#     4   8   8   8   4   4   8   8
#     4  11  19  40  66  92 126 168 208 256 312 392
#     4  10  22  40  64  93 128 169 209 259 324 391
#     4  11  23  40  66  95 127 170 214 265 318 391
#     4  11  24  44  64  93 133 173 216 268 326 394
#     4   9  23  42  64  86 124 172 218 252 316 400
#     4  12  24  38  62 102 130 160 210 282 326 374
#     4  11  24  41  66  91 126 170 218 260 323 383
#     4  11  25  40  63  96 133 164 214 269 328 381
#
# _framework density 19.778041000000002
#
# number of rings (size 3 to 8) (size 9 to 14) (size 15 to 20)
#    0.000    1.231    3.077    2.308    2.154    4.923 
#    0.000    0.000    0.000    0.923    0.000    0.000 
#    0.000    0.000    0.000    0.000    0.000    0.000 
#
# Total GULP energy -290708.742184 kJ/mol
# GULP energy per Si atom -5590.552734 kJ/mol
# Density = 1.973303 g / cm^3
# Si number density = 19.778041 Si / 1000 Ang^3
#
#
#
# Elastic Constant Matrix: (Units=GPa)
#
#
# Indices 1 2 3 4 5 6 
#
# 1 52.0037 2.0477 22.6075 0.0000 0.0000 0.0000
# 2 2.0477 96.4782 45.2775 0.0000 0.0000 0.0000
# 3 22.6075 45.2775 70.9535 0.0000 0.0000 0.0000
# 4 0.0000 0.0000 0.0000 24.1069 0.0000 0.0000
# 5 0.0000 0.0000 0.0000 0.0000 -2.0649 0.0000
# 6 0.0000 0.0000 0.0000 0.0000 0.0000 16.4086
#
#
#
# Elastic Compliance Matrix: (Units=1/GPa)
#
#
# Indices 1 2 3 4 5 6 
#
# 1 0.023511 0.004306 -0.010239 0.000000 0.000000 0.000000
# 2 0.004306 0.015585 -0.011317 0.000000 0.000000 0.000000
# 3 -0.010239 -0.011317 0.024578 0.000000 0.000000 0.000000
# 4 0.000000 0.000000 0.000000 0.041482 0.000000 0.000000
# 5 0.000000 0.000000 0.000000 0.000000 -0.484274 0.000000
# 6 0.000000 0.000000 0.000000 0.000000 0.000000 0.060943
#
#
# Mechanical properties :
#
#
# Convention : Reuss Voigt Hill
#
# Bulk Modulus (GPa) = 34.27742 39.92231 37.09986
# Shear Modulus (GPa) = -18.25148 17.65698 -0.29725
#
# Velocity S-wave (km/s) = -3.04108 2.99115 -0.38810
# Velocity P-wave (km/s) = 2.24449 5.67082 4.31254
#
# Compressibility (1/GPa) = 0.02917373
#
# Stress axis : x y z
#
# Youngs Moduli (GPa) = 42.53313 64.16499 40.68681
#
# Poissons Ratio (x) = -0.27631 0.41660
# Poissons Ratio (y) = -0.18316 0.46046
# Poissons Ratio (z) = 0.43550 0.72617
#
# Static dielectric constant tensor:
#      x y z
#    x 1.673610 0.000000 0.000000 
#    y 0.000000 1.689660 0.000000 
#    z 0.000000 0.000000 1.668270 
# 
# From -- ./inp_files/18178.got.cif
#   From: 2010.05.17/outbox.cif.g08.bks.cpg/sg56_10_cif.got.tgz:18178.got - 2010.06.03 13:42:01.
