data_PCOD9432852
_publ_section_title
;
Structure prediction by ZEFSAII (Michael W. Deem and Ramdas Pophale) SiO2 
 PCOD9432852
Probable space group: P C C N
;
_chemical_formula_sum "Si O2"
_cell_formula_units_Z 24
_cell_length_a 10.219476
_cell_length_b 7.148432
_cell_length_c 13.825733
_cell_angle_alpha 90.000000
_cell_angle_beta 90.000000
_cell_angle_gamma 90.000000
_cell_volume 1010.014443
_symmetry_space_group_name_H-M "P C C N"
_symmetry_group_IT_number 56
_symmetry_cell_setting 'orthorhombic'
loop_
_space_group_symop_operation_xyz
x,y,z
1/2-x,1/2-y,z
1/2+x,-y,1/2-z
-x,1/2+y,1/2-z
-x,-y,-z
1/2+x,1/2+y,-z
1/2-x,y,1/2+z
x,1/2-y,1/2+z
loop_
_atom_site_type_symbol
_atom_site_label
_atom_site_fract_x
_atom_site_fract_y
_atom_site_fract_z
Si Si1 0.847083 0.458502 0.938794
Si Si2 0.555668 0.280457 0.622241
Si Si3 0.433673 0.602120 0.156498
O O1 0.915278 0.653824 0.919402
O O2 0.707961 0.452891 0.886950
O O3 0.946428 0.307336 0.889566
O O4 0.846354 0.385091 0.048643
O O5 0.574170 0.362180 0.729277
O O6 0.540802 0.055128 0.629864
#
# Coordination Sequence:
#
# PCOD9432852 Si02
#       3
#     8   8   8
#     4  10  24  41  65 100 129 176 220 271 329 388
#     4  11  22  44  65  96 138 168 225 271 324 395
#     4  11  22  42  69  95 130 178 218 269 332 387
#
# _framework density 23.762035999999998
#
# number of rings (size 3 to 8) (size 9 to 14) (size 15 to 20)
#    0.000    1.333    3.333    2.000    0.000    5.333 
#    6.000    3.333    0.000    0.000    0.000    0.000 
#    0.000    0.000    0.000    0.000    0.000    0.000 
#
# Total GULP energy -133946.284824 kJ/mol
# GULP energy per Si atom -5581.095201 kJ/mol
# Density = 2.370795 g / cm^3
# Si number density = 23.762036 Si / 1000 Ang^3
#
#
#
# Elastic Constant Matrix: (Units=GPa)
#
#
# Indices 1 2 3 4 5 6 
#
# 1 73.8384 8.8713 22.5236 0.0000 0.0000 0.0000
# 2 8.8713 115.2267 31.0050 0.0000 0.0000 0.0000
# 3 22.5236 31.0050 191.5814 0.0000 0.0000 0.0000
# 4 0.0000 0.0000 0.0000 36.5154 0.0000 0.0000
# 5 0.0000 0.0000 0.0000 0.0000 127.0447 0.0000
# 6 0.0000 0.0000 0.0000 0.0000 0.0000 27.6665
#
#
#
# Elastic Compliance Matrix: (Units=1/GPa)
#
#
# Indices 1 2 3 4 5 6 
#
# 1 0.014096 -0.000668 -0.001549 0.000000 0.000000 0.000000
# 2 -0.000668 0.009105 -0.001395 0.000000 0.000000 0.000000
# 3 -0.001549 -0.001395 0.005628 0.000000 0.000000 0.000000
# 4 0.000000 0.000000 0.000000 0.027386 0.000000 0.000000
# 5 0.000000 0.000000 0.000000 0.000000 0.007871 0.000000
# 6 0.000000 0.000000 0.000000 0.000000 0.000000 0.036145
#
#
# Mechanical properties :
#
#
# Convention : Reuss Voigt Hill
#
# Bulk Modulus (GPa) = 46.28787 56.16071 51.22429
# Shear Modulus (GPa) = 43.60840 59.46177 51.53509
#
# Velocity S-wave (km/s) = 4.28859 5.00781 4.66209
# Velocity P-wave (km/s) = 6.63662 7.55801 7.11225
#
# Compressibility (1/GPa) = 0.02160393
#
# Stress axis : x y z
#
# Youngs Moduli (GPa) = 70.94258 109.82525 177.69585
#
# Poissons Ratio (x) = 0.07341 0.27526
# Poissons Ratio (y) = 0.04742 0.24789
# Poissons Ratio (z) = 0.10989 0.15321
#
# Static dielectric constant tensor:
#      x y z
#    x 1.921050 0.000000 0.000000 
#    y 0.000000 1.942330 0.000000 
#    z 0.000000 0.000000 1.952350 
# 
# From -- ./inp_files/5817.got.cif
#   From: 2010.05.17/outbox.cif.g08.bks.cpg/sg56_3_cif.got.tgz:5817.got - 2010.06.03 13:42:01.
