data_PCOD9432719
_publ_section_title
;
Structure prediction by ZEFSAII (Michael W. Deem and Ramdas Pophale) SiO2 
 PCOD9432719
Probable space group: P C C N
;
_chemical_formula_sum "Si O2"
_cell_formula_units_Z 48
_cell_length_a 12.872141
_cell_length_b 13.489591
_cell_length_c 12.356904
_cell_angle_alpha 90.000000
_cell_angle_beta 90.000000
_cell_angle_gamma 90.000000
_cell_volume 2145.651790
_symmetry_space_group_name_H-M "P C C N"
_symmetry_group_IT_number 56
_symmetry_cell_setting 'orthorhombic'
loop_
_space_group_symop_operation_xyz
x,y,z
1/2-x,1/2-y,z
1/2+x,-y,1/2-z
-x,1/2+y,1/2-z
-x,-y,-z
1/2+x,1/2+y,-z
1/2-x,y,1/2+z
x,1/2-y,1/2+z
loop_
_atom_site_type_symbol
_atom_site_label
_atom_site_fract_x
_atom_site_fract_y
_atom_site_fract_z
Si Si1 0.750000 0.250000 0.664068
Si Si2 0.750000 0.750000 0.556955
Si Si3 0.166016 0.837801 0.537887
Si Si4 0.541274 0.003685 0.376491
Si Si5 0.081685 0.167545 0.775592
Si Si6 0.275907 0.061799 0.099356
Si Si7 0.054648 0.836906 0.738605
O O1 0.828044 0.185523 0.589242
O O2 0.673889 0.180545 0.729320
O O3 0.657289 0.786465 0.634369
O O4 0.777140 0.846323 0.484441
O O5 0.250000 0.750000 0.571203
O O6 0.061622 0.828041 0.608442
O O7 0.192352 0.953719 0.553386
O O8 0.657187 0.962418 0.368649
O O9 0.475513 0.937480 0.294710
O O10 0.500000 0.000000 0.500000
O O11 0.515410 0.112340 0.332502
O O12 0.151363 0.099092 0.697482
O O13 0.027005 0.258338 0.715038
#
# Coordination Sequence:
#
# PCOD9432719 Si02
#       7
#     4   4   8   8   8   8   8
#     4  10  24  42  72  98 142 188 238 308 358 438
#     4  12  26  48  72 104 152 194 244 296 380 444
#     4  10  23  44  71 101 140 184 243 301 364 426
#     4  12  25  45  76 100 141 196 242 289 373 439
#     4  12  28  45  74 109 148 193 242 314 366 449
#     4  12  25  50  71 107 146 193 245 305 367 443
#     4  12  24  46  66 107 141 187 247 296 373 440
#
# _framework density 22.370823999999999
#
# number of rings (size 3 to 8) (size 9 to 14) (size 15 to 20)
#    0.500    0.000    4.167    4.500    2.333    0.000 
#    3.000    1.667    0.000    0.000    0.000    0.000 
#    0.000    0.000    0.000    0.000    0.000    0.000 
#
# Total GULP energy -267668.461794 kJ/mol
# GULP energy per Si atom -5576.426287 kJ/mol
# Density = 2.231991 g / cm^3
# Si number density = 22.370824 Si / 1000 Ang^3
#
#
#
# Elastic Constant Matrix: (Units=GPa)
#
#
# Indices 1 2 3 4 5 6 
#
# 1 47.8040 10.5218 15.6338 0.0000 0.0000 0.0000
# 2 10.5218 148.8265 26.8814 0.0000 0.0000 0.0000
# 3 15.6338 26.8814 55.0025 0.0000 0.0000 0.0000
# 4 0.0000 0.0000 0.0000 -2.3095 0.0000 0.0000
# 5 0.0000 0.0000 0.0000 0.0000 14.7604 0.0000
# 6 0.0000 0.0000 0.0000 0.0000 0.0000 45.2685
#
#
#
# Elastic Compliance Matrix: (Units=1/GPa)
#
#
# Indices 1 2 3 4 5 6 
#
# 1 0.023095 -0.000490 -0.006325 0.000000 0.000000 0.000000
# 2 -0.000490 0.007380 -0.003468 0.000000 0.000000 0.000000
# 3 -0.006325 -0.003468 0.021673 0.000000 0.000000 0.000000
# 4 0.000000 0.000000 0.000000 -0.432990 0.000000 0.000000
# 5 0.000000 0.000000 0.000000 0.000000 0.067749 0.000000
# 6 0.000000 0.000000 0.000000 0.000000 0.000000 0.022090
#
#
# Mechanical properties :
#
#
# Convention : Reuss Voigt Hill
#
# Bulk Modulus (GPa) = 31.66235 39.74522 35.70379
# Shear Modulus (GPa) = -19.23753 24.78361 2.77304
#
# Velocity S-wave (km/s) = -2.93565 3.33206 1.11457
# Velocity P-wave (km/s) = 1.64116 5.71039 4.20131
#
# Compressibility (1/GPa) = 0.03158325
#
# Stress axis : x y z
#
# Youngs Moduli (GPa) = 43.29911 135.49735 46.13940
#
# Poissons Ratio (x) = 0.06645 0.29183
# Poissons Ratio (y) = 0.02123 0.15999
# Poissons Ratio (z) = 0.27386 0.46984
#
# Static dielectric constant tensor:
#      x y z
#    x 1.778500 0.000000 0.000000 
#    y 0.000000 1.789300 0.000000 
#    z 0.000000 0.000000 1.761190 
# 
# From -- ./inp_files/12251.got.cif
#   From: 2010.05.17/outbox.cif.g08.bks.cpg/sg56_7_cif.got.tgz:12251.got - 2010.06.03 13:42:01.
