data_PCOD9432448
_publ_section_title
;
Structure prediction by ZEFSAII (Michael W. Deem and Ramdas Pophale) SiO2 
 PCOD9432448
Probable space group: P C C N
;
_chemical_formula_sum "Si O2"
_cell_formula_units_Z 60
_cell_length_a 5.634382
_cell_length_b 24.985888
_cell_length_c 18.911559
_cell_angle_alpha 90.000000
_cell_angle_beta 90.000000
_cell_angle_gamma 90.000000
_cell_volume 2662.369987
_symmetry_space_group_name_H-M "P C C N"
_symmetry_group_IT_number 56
_symmetry_cell_setting 'orthorhombic'
loop_
_space_group_symop_operation_xyz
x,y,z
1/2-x,1/2-y,z
1/2+x,-y,1/2-z
-x,1/2+y,1/2-z
-x,-y,-z
1/2+x,1/2+y,-z
1/2-x,y,1/2+z
x,1/2-y,1/2+z
loop_
_atom_site_type_symbol
_atom_site_label
_atom_site_fract_x
_atom_site_fract_y
_atom_site_fract_z
Si Si1 0.245715 0.074380 0.331395
Si Si2 0.418925 0.678221 0.676857
Si Si3 0.250000 0.250000 0.419189
Si Si4 0.107571 0.095871 0.677008
Si Si5 0.893959 0.161425 0.170301
Si Si6 0.057011 0.996447 0.583437
Si Si7 0.863635 0.110982 0.921746
Si Si8 0.096265 0.801269 0.981727
O O1 0.060018 0.121933 0.318589
O O2 0.391063 0.071983 0.257914
O O3 0.143888 0.018332 0.358032
O O4 0.374389 0.093906 0.402740
O O5 0.561868 0.721047 0.631593
O O6 0.374700 0.693865 0.756771
O O7 0.189886 0.658148 0.634869
O O8 0.357633 0.206564 0.473396
O O9 0.851947 0.126028 0.667098
O O10 0.350067 0.130945 0.672247
O O11 0.147919 0.051752 0.615791
O O12 0.917329 0.197822 0.101628
O O13 0.223130 0.944064 0.587906
O O14 0.000000 0.000000 0.500000
O O15 0.808368 0.140621 0.994543
O O16 0.250000 0.750000 0.003064
#
# Coordination Sequence:
#
# PCOD9432448 Si02
#       8
#     8   8   4   8   8   8   8   8
#     4  10  23  41  70  95 140 186 239 292 359 427
#     4  10  22  45  67 102 133 191 239 304 347 449
#     4  12  24  42  72 102 142 190 256 292 386 440
#     4  11  26  48  74 107 147 195 241 305 368 446
#     4  11  27  48  74 105 152 186 246 307 377 426
#     4  11  27  41  70 107 143 190 247 299 373 435
#     4  11  22  44  69  97 139 186 244 294 362 439
#     4  12  27  45  74 104 145 191 243 310 379 440
#
# _framework density 22.53631
#
# number of rings (size 3 to 8) (size 9 to 14) (size 15 to 20)
#    0.000    1.067    4.000    0.800    7.467    1.067 
#    4.800    0.000    0.000    0.000    0.000    0.000 
#    0.000    0.000    0.000    0.000    0.000    0.000 
#
# Total GULP energy -334410.039472 kJ/mol
# GULP energy per Si atom -5573.500658 kJ/mol
# Density = 2.248502 g / cm^3
# Si number density = 22.536310 Si / 1000 Ang^3
#
#
#
# Elastic Constant Matrix: (Units=GPa)
#
#
# Indices 1 2 3 4 5 6 
#
# 1 66.3363 27.4380 16.4466 0.0000 0.0000 0.0000
# 2 27.4380 63.4995 35.6741 0.0000 0.0000 0.0000
# 3 16.4466 35.6741 145.6276 0.0000 0.0000 0.0000
# 4 0.0000 0.0000 0.0000 23.5188 0.0000 0.0000
# 5 0.0000 0.0000 0.0000 0.0000 23.8655 0.0000
# 6 0.0000 0.0000 0.0000 0.0000 0.0000 25.9283
#
#
#
# Elastic Compliance Matrix: (Units=1/GPa)
#
#
# Indices 1 2 3 4 5 6 
#
# 1 0.018358 -0.007848 -0.000151 0.000000 0.000000 0.000000
# 2 -0.007848 0.021616 -0.004409 0.000000 0.000000 0.000000
# 3 -0.000151 -0.004409 0.007964 0.000000 0.000000 0.000000
# 4 0.000000 0.000000 0.000000 0.042519 0.000000 0.000000
# 5 0.000000 0.000000 0.000000 0.000000 0.041902 0.000000
# 6 0.000000 0.000000 0.000000 0.000000 0.000000 0.038568
#
#
# Mechanical properties :
#
#
# Convention : Reuss Voigt Hill
#
# Bulk Modulus (GPa) = 43.24695 48.28675 45.76685
# Shear Modulus (GPa) = 24.57614 27.72285 26.14949
#
# Velocity S-wave (km/s) = 3.30587 3.51114 3.41005
# Velocity P-wave (km/s) = 5.81406 6.15713 5.98805
#
# Compressibility (1/GPa) = 0.02312302
#
# Stress axis : x y z
#
# Youngs Moduli (GPa) = 54.47188 46.26182 125.56635
#
# Poissons Ratio (x) = 0.36305 0.01894
# Poissons Ratio (y) = 0.42748 0.55362
# Poissons Ratio (z) = 0.00822 0.20397
#
# Static dielectric constant tensor:
#      x y z
#    x 1.957270 0.000000 0.000000 
#    y 0.000000 1.943650 0.000000 
#    z 0.000000 0.000000 1.872160 
# 
# From -- ./inp_files/14110.got.cif
#   From: 2010.05.17/outbox.cif.g08.bks.cpg/sg56_8_cif.got.tgz:14110.got - 2010.06.03 13:42:01.
