data_PCOD9432377
_publ_section_title
;
Structure prediction by ZEFSAII (Michael W. Deem and Ramdas Pophale) SiO2 
 PCOD9432377
Probable space group: P C C N
;
_chemical_formula_sum "Si O2"
_cell_formula_units_Z 48
_cell_length_a 15.469525
_cell_length_b 7.401622
_cell_length_c 17.989655
_cell_angle_alpha 90.000000
_cell_angle_beta 90.000000
_cell_angle_gamma 90.000000
_cell_volume 2059.807880
_symmetry_space_group_name_H-M "P C C N"
_symmetry_group_IT_number 56
_symmetry_cell_setting 'orthorhombic'
loop_
_space_group_symop_operation_xyz
x,y,z
1/2-x,1/2-y,z
1/2+x,-y,1/2-z
-x,1/2+y,1/2-z
-x,-y,-z
1/2+x,1/2+y,-z
1/2-x,y,1/2+z
x,1/2-y,1/2+z
loop_
_atom_site_type_symbol
_atom_site_label
_atom_site_fract_x
_atom_site_fract_y
_atom_site_fract_z
Si Si1 0.662675 0.359531 0.052348
Si Si2 0.324763 0.518342 0.100828
Si Si3 0.177414 0.407268 0.301324
Si Si4 0.142659 0.929385 0.645816
Si Si5 0.920566 0.616799 0.264715
Si Si6 0.534081 0.158614 0.147751
O O1 0.750000 0.250000 0.033695
O O2 0.681871 0.480810 0.124054
O O3 0.588689 0.216929 0.076535
O O4 0.638348 0.485085 0.982333
O O5 0.357004 0.715776 0.129799
O O6 0.221454 0.500191 0.095180
O O7 0.354851 0.386925 0.166227
O O8 0.250000 0.250000 0.300061
O O9 0.178202 0.534040 0.228966
O O10 0.091567 0.288695 0.288345
O O11 0.051652 0.033892 0.634709
O O12 0.912745 0.450514 0.209789
O O13 0.007549 0.656844 0.309823
#
# Coordination Sequence:
#
# PCOD9432377 Si02
#       6
#     8   8   8   8   8   8
#     4  12  26  44  65 101 142 178 225 287 352 407
#     4  11  23  45  69  99 140 182 219 279 352 420
#     4  11  22  40  69  99 126 178 232 278 332 404
#     4  10  22  43  70  99 129 184 232 273 340 412
#     4  11  22  44  70 101 131 174 233 275 336 412
#     4  11  24  42  71 101 136 177 234 291 335 404
#
# _framework density 23.303142000000001
#
# number of rings (size 3 to 8) (size 9 to 14) (size 15 to 20)
#    0.000    1.000    3.333    5.000    2.333    1.333 
#    6.000    0.000    0.000    0.000    0.000    0.000 
#    0.000    0.000    0.000    0.000    0.000    0.000 
#
# Total GULP energy -268007.427413 kJ/mol
# GULP energy per Si atom -5583.488071 kJ/mol
# Density = 2.325010 g / cm^3
# Si number density = 23.303142 Si / 1000 Ang^3
#
#
#
# Elastic Constant Matrix: (Units=GPa)
#
#
# Indices 1 2 3 4 5 6 
#
# 1 74.6844 22.3289 29.8307 0.0000 0.0000 0.0000
# 2 22.3289 50.6403 20.8861 0.0000 0.0000 0.0000
# 3 29.8307 20.8861 131.9781 0.0000 0.0000 0.0000
# 4 0.0000 0.0000 0.0000 33.7957 0.0000 0.0000
# 5 0.0000 0.0000 0.0000 0.0000 17.2884 0.0000
# 6 0.0000 0.0000 0.0000 0.0000 0.0000 38.9575
#
#
#
# Elastic Compliance Matrix: (Units=1/GPa)
#
#
# Indices 1 2 3 4 5 6 
#
# 1 0.016289 -0.006059 -0.002723 0.000000 0.000000 0.000000
# 2 -0.006059 0.023380 -0.002330 0.000000 0.000000 0.000000
# 3 -0.002723 -0.002330 0.008561 0.000000 0.000000 0.000000
# 4 0.000000 0.000000 0.000000 0.029590 0.000000 0.000000
# 5 0.000000 0.000000 0.000000 0.000000 0.057842 0.000000
# 6 0.000000 0.000000 0.000000 0.000000 0.000000 0.025669
#
#
# Mechanical properties :
#
#
# Convention : Reuss Voigt Hill
#
# Bulk Modulus (GPa) = 38.45406 44.82158 41.63782
# Shear Modulus (GPa) = 26.01128 30.29213 28.15171
#
# Velocity S-wave (km/s) = 3.34460 3.60935 3.47949
# Velocity P-wave (km/s) = 5.60827 6.05357 5.83517
#
# Compressibility (1/GPa) = 0.02600506
#
# Stress axis : x y z
#
# Youngs Moduli (GPa) = 61.39186 42.77161 116.80546
#
# Poissons Ratio (x) = 0.25916 0.31804
# Poissons Ratio (y) = 0.37199 0.27221
# Poissons Ratio (z) = 0.16716 0.09968
#
# Static dielectric constant tensor:
#      x y z
#    x 2.025380 0.000000 0.000000 
#    y 0.000000 1.916220 0.000000 
#    z 0.000000 0.000000 1.815120 
# 
# From -- ./inp_files/12672.got.cif
#   From: 2010.05.17/outbox.cif.g08.bks.cpg/sg56_7_cif.got.tgz:12672.got - 2010.06.03 13:42:01.
