data_PCOD9432208
_publ_section_title
;
Structure prediction by ZEFSAII (Michael W. Deem and Ramdas Pophale) SiO2 
 PCOD9432208
Probable space group: P C C N
;
_chemical_formula_sum "Si O2"
_cell_formula_units_Z 32
_cell_length_a 11.798452
_cell_length_b 12.384988
_cell_length_c 8.969179
_cell_angle_alpha 90.000000
_cell_angle_beta 90.000000
_cell_angle_gamma 90.000000
_cell_volume 1310.609500
_symmetry_space_group_name_H-M "P C C N"
_symmetry_group_IT_number 56
_symmetry_cell_setting 'orthorhombic'
loop_
_space_group_symop_operation_xyz
x,y,z
1/2-x,1/2-y,z
1/2+x,-y,1/2-z
-x,1/2+y,1/2-z
-x,-y,-z
1/2+x,1/2+y,-z
1/2-x,y,1/2+z
x,1/2-y,1/2+z
loop_
_atom_site_type_symbol
_atom_site_label
_atom_site_fract_x
_atom_site_fract_y
_atom_site_fract_z
Si Si1 0.205255 0.937152 0.764401
Si Si2 0.025949 0.171228 0.306303
Si Si3 0.379904 0.992101 0.583932
Si Si4 0.855187 0.665852 0.879935
O O1 0.327973 0.904651 0.700120
O O2 0.182495 0.048067 0.672551
O O3 0.198212 0.971223 0.936595
O O4 0.104598 0.855998 0.723133
O O5 0.096315 0.090743 0.198873
O O6 0.067730 0.157309 0.474164
O O7 0.069350 0.287082 0.253371
O O8 0.500000 0.000000 0.500000
O O9 0.750000 0.750000 0.909149
#
# Coordination Sequence:
#
# PCOD9432208 Si02
#       4
#     8   8   8   8
#     4  11  23  42  70 102 144 185 236 300 367 413
#     4  11  24  41  68 106 141 182 238 303 360 422
#     4  10  22  41  68 104 138 184 239 288 362 433
#     4  12  23  39  69 107 138 185 248 296 348 437
#
# _framework density 24.416121
#
# number of rings (size 3 to 8) (size 9 to 14) (size 15 to 20)
#    0.000    1.000    2.500    4.500    0.000    2.000 
#    0.000    0.000    0.000   48.000    0.000    0.000 
#    0.000    0.000    0.000    0.000    0.000    0.000 
#
# Total GULP energy -178378.387816 kJ/mol
# GULP energy per Si atom -5574.324619 kJ/mol
# Density = 2.436055 g / cm^3
# Si number density = 24.416121 Si / 1000 Ang^3
#
#
#
# Elastic Constant Matrix: (Units=GPa)
#
#
# Indices 1 2 3 4 5 6 
#
# 1 115.0235 6.4597 2.9828 0.0000 0.0000 0.0000
# 2 6.4597 51.7517 -18.7663 0.0000 0.0000 0.0000
# 3 2.9828 -18.7663 91.6310 0.0000 0.0000 0.0000
# 4 0.0000 0.0000 0.0000 16.4143 0.0000 0.0000
# 5 0.0000 0.0000 0.0000 0.0000 28.5156 0.0000
# 6 0.0000 0.0000 0.0000 0.0000 0.0000 29.5712
#
#
#
# Elastic Compliance Matrix: (Units=1/GPa)
#
#
# Indices 1 2 3 4 5 6 
#
# 1 0.008781 -0.001296 -0.000551 0.000000 0.000000 0.000000
# 2 -0.001296 0.021064 0.004356 0.000000 0.000000 0.000000
# 3 -0.000551 0.004356 0.011823 0.000000 0.000000 0.000000
# 4 0.000000 0.000000 0.000000 0.060922 0.000000 0.000000
# 5 0.000000 0.000000 0.000000 0.000000 0.035069 0.000000
# 6 0.000000 0.000000 0.000000 0.000000 0.000000 0.033817
#
#
# Mechanical properties :
#
#
# Convention : Reuss Voigt Hill
#
# Bulk Modulus (GPa) = 21.41924 26.63983 24.02953
# Shear Modulus (GPa) = 27.46942 32.74891 30.10916
#
# Velocity S-wave (km/s) = 3.35782 3.66633 3.51546
# Velocity P-wave (km/s) = 4.88107 5.37187 5.13234
#
# Compressibility (1/GPa) = 0.04668700
#
# Stress axis : x y z
#
# Youngs Moduli (GPa) = 113.88295 47.47329 84.57769
#
# Poissons Ratio (x) = 0.06152 0.04662
# Poissons Ratio (y) = 0.14758 -0.36844
# Poissons Ratio (z) = 0.06278 -0.20681
#
# Static dielectric constant tensor:
#      x y z
#    x 2.515240 0.000000 0.000000 
#    y 0.000000 5.284240 0.000000 
#    z 0.000000 0.000000 1.880730 
# 
# From -- ./inp_files/2442.got.cif
#   From: 2010.05.17/outbox.cif.g08.bks.cpg/sg56_2_cif.got.tgz:2442.got - 2010.06.03 13:42:01.
