data_PCOD9432574
_publ_section_title
;
Structure prediction by ZEFSAII (Michael W. Deem and Ramdas Pophale) SiO2 
 PCOD9432574
Probable space group: P C C N
;
_chemical_formula_sum "Si O2"
_cell_formula_units_Z 32
_cell_length_a 14.015392
_cell_length_b 5.272151
_cell_length_c 18.612793
_cell_angle_alpha 90.000000
_cell_angle_beta 90.000000
_cell_angle_gamma 90.000000
_cell_volume 1375.322782
_symmetry_space_group_name_H-M "P C C N"
_symmetry_group_IT_number 56
_symmetry_cell_setting 'orthorhombic'
loop_
_space_group_symop_operation_xyz
x,y,z
1/2-x,1/2-y,z
1/2+x,-y,1/2-z
-x,1/2+y,1/2-z
-x,-y,-z
1/2+x,1/2+y,-z
1/2-x,y,1/2+z
x,1/2-y,1/2+z
loop_
_atom_site_type_symbol
_atom_site_label
_atom_site_fract_x
_atom_site_fract_y
_atom_site_fract_z
Si Si1 0.614349 0.956328 0.993252
Si Si2 0.418369 0.539623 0.060091
Si Si3 0.750000 0.750000 0.615597
Si Si4 0.452252 0.816514 0.719663
Si Si5 0.250000 0.750000 0.290249
O O1 0.629910 0.735182 0.935093
O O2 0.646637 0.234067 0.969443
O O3 0.664760 0.849248 0.064186
O O4 0.500000 0.000000 0.000000
O O5 0.460119 0.621641 0.135784
O O6 0.500000 0.500000 0.000000
O O7 0.774237 0.501136 0.662541
O O8 0.497576 0.544696 0.737406
O O9 0.342150 0.811602 0.742951
#
# Coordination Sequence:
#
# PCOD9432574 Si02
#       5
#     8   8   4   8   4
#     4  10  23  40  71 106 145 186 257 311 385 441
#     4  10  23  43  74 107 145 189 257 306 386 452
#     4  12  26  46  74 112 154 206 254 334 380 474
#     4  12  28  48  78 111 161 206 255 325 392 469
#     4  12  30  46  76 112 158 204 270 298 410 476
#
# _framework density 23.267263
#
# number of rings (size 3 to 8) (size 9 to 14) (size 15 to 20)
#    0.000    1.000    0.000    4.500   21.000    2.000 
#    0.000    0.000    0.000    0.000    0.000    0.000 
#    0.000    0.000    0.000    0.000    0.000    0.000 
#
# Total GULP energy -178978.975743 kJ/mol
# GULP energy per Si atom -5593.092992 kJ/mol
# Density = 2.321431 g / cm^3
# Si number density = 23.267263 Si / 1000 Ang^3
#
#
#
# Elastic Constant Matrix: (Units=GPa)
#
#
# Indices 1 2 3 4 5 6 
#
# 1 138.6926 23.1240 36.7798 0.0000 0.0000 0.0000
# 2 23.1240 180.3456 8.8203 0.0000 0.0000 0.0000
# 3 36.7798 8.8203 113.1997 0.0000 0.0000 0.0000
# 4 0.0000 0.0000 0.0000 -41.1062 0.0000 0.0000
# 5 0.0000 0.0000 0.0000 0.0000 -7.1033 0.0000
# 6 0.0000 0.0000 0.0000 0.0000 0.0000 23.7368
#
#
#
# Elastic Compliance Matrix: (Units=1/GPa)
#
#
# Indices 1 2 3 4 5 6 
#
# 1 0.008035 -0.000906 -0.002540 0.000000 0.000000 0.000000
# 2 -0.000906 0.005668 -0.000147 0.000000 0.000000 0.000000
# 3 -0.002540 -0.000147 0.009671 0.000000 0.000000 0.000000
# 4 0.000000 0.000000 0.000000 -0.024327 0.000000 0.000000
# 5 0.000000 0.000000 0.000000 0.000000 -0.140779 0.000000
# 6 0.000000 0.000000 0.000000 0.000000 0.000000 0.042129
#
#
# Mechanical properties :
#
#
# Convention : Reuss Voigt Hill
#
# Bulk Modulus (GPa) = 61.77720 63.29846 62.53783
# Shear Modulus (GPa) = -57.45725 19.33970 -19.05878
#
# Velocity S-wave (km/s) = -4.97474 2.88618 -2.86514
# Velocity P-wave (km/s) = 2.52758 6.19441 3.99888
#
# Compressibility (1/GPa) = 0.01618720
#
# Stress axis : x y z
#
# Youngs Moduli (GPa) = 124.45814 176.42027 103.40513
#
# Poissons Ratio (x) = 0.15984 0.26265
# Poissons Ratio (y) = 0.11276 0.01523
# Poissons Ratio (z) = 0.31612 0.02599
#
# Static dielectric constant tensor:
#      x y z
#    x 1.994800 0.000000 0.000000 
#    y 0.000000 1.934280 0.000000 
#    z 0.000000 0.000000 2.103280 
# 
# From -- ./inp_files/15976.got.cif
#   From: 2010.05.17/outbox.cif.g08.bks.cpg/sg56_8_cif.got.tgz:15976.got - 2010.06.03 13:42:01.
