data_PCOD9432758
_publ_section_title
;
Structure prediction by ZEFSAII (Michael W. Deem and Ramdas Pophale) SiO2 
 PCOD9432758
Probable space group: P C C N
;
_chemical_formula_sum "Si O2"
_cell_formula_units_Z 32
_cell_length_a 18.522750
_cell_length_b 5.502013
_cell_length_c 11.850153
_cell_angle_alpha 90.000000
_cell_angle_beta 90.000000
_cell_angle_gamma 90.000000
_cell_volume 1207.677666
_symmetry_space_group_name_H-M "P C C N"
_symmetry_group_IT_number 56
_symmetry_cell_setting 'orthorhombic'
loop_
_space_group_symop_operation_xyz
x,y,z
1/2-x,1/2-y,z
1/2+x,-y,1/2-z
-x,1/2+y,1/2-z
-x,-y,-z
1/2+x,1/2+y,-z
1/2-x,y,1/2+z
x,1/2-y,1/2+z
loop_
_atom_site_type_symbol
_atom_site_label
_atom_site_fract_x
_atom_site_fract_y
_atom_site_fract_z
Si Si1 0.925551 0.767236 0.100107
Si Si2 0.932736 0.008442 0.874311
Si Si3 0.325500 0.155602 0.242639
Si Si4 0.676128 0.372993 0.489788
O O1 0.871206 0.968607 0.157443
O O2 0.001833 0.819242 0.163874
O O3 0.871548 0.543337 0.070810
O O4 0.954682 0.816187 0.971171
O O5 0.874937 0.172124 0.936688
O O6 0.886802 0.859287 0.783643
O O7 0.250000 0.250000 0.288346
O O8 0.306422 0.029118 0.124794
O O9 0.750000 0.250000 0.532712
#
# Coordination Sequence:
#
# PCOD9432758 Si02
#       4
#     8   8   8   8
#     4  10  25  42  70  96 133 180 234 273 345 414
#     4  10  23  46  64  97 135 178 224 291 331 408
#     4  11  24  41  65 100 137 171 224 285 344 410
#     4  11  23  43  68  95 137 173 221 286 347 404
#
# _framework density 26.497136999999999
#
# number of rings (size 3 to 8) (size 9 to 14) (size 15 to 20)
#    0.000    1.500    2.500    0.750    7.000    2.000 
#    0.000    0.000    0.000    0.000    0.000    0.000 
#    0.000    0.000    0.000    0.000    0.000    0.000 
#
# Total GULP energy -178336.734064 kJ/mol
# GULP energy per Si atom -5573.022939 kJ/mol
# Density = 2.643683 g / cm^3
# Si number density = 26.497137 Si / 1000 Ang^3
#
#
#
# Elastic Constant Matrix: (Units=GPa)
#
#
# Indices 1 2 3 4 5 6 
#
# 1 225.8750 65.2759 7.8284 0.0000 0.0000 0.0000
# 2 65.2759 74.3223 9.2511 0.0000 0.0000 0.0000
# 3 7.8284 9.2511 33.4172 0.0000 0.0000 0.0000
# 4 0.0000 0.0000 0.0000 -3.0948 0.0000 0.0000
# 5 0.0000 0.0000 0.0000 0.0000 44.9798 0.0000
# 6 0.0000 0.0000 0.0000 0.0000 0.0000 53.5990
#
#
#
# Elastic Compliance Matrix: (Units=1/GPa)
#
#
# Indices 1 2 3 4 5 6 
#
# 1 0.005933 -0.005218 0.000055 0.000000 0.000000 0.000000
# 2 -0.005218 0.018524 -0.003906 0.000000 0.000000 0.000000
# 3 0.000055 -0.003906 0.030993 0.000000 0.000000 0.000000
# 4 0.000000 0.000000 0.000000 -0.323121 0.000000 0.000000
# 5 0.000000 0.000000 0.000000 0.000000 0.022232 0.000000
# 6 0.000000 0.000000 0.000000 0.000000 0.000000 0.018657
#
#
# Mechanical properties :
#
#
# Convention : Reuss Voigt Hill
#
# Bulk Modulus (GPa) = 26.80086 55.36949 41.08517
# Shear Modulus (GPa) = -25.48348 35.84741 5.18196
#
# Velocity S-wave (km/s) = -3.10457 3.68214 1.39997
# Velocity P-wave (km/s) = 1.64758 6.24654 4.26056
#
# Compressibility (1/GPa) = 0.03731223
#
# Stress axis : x y z
#
# Youngs Moduli (GPa) = 168.54165 53.98458 32.26513
#
# Poissons Ratio (x) = 0.28168 -0.00176
# Poissons Ratio (y) = 0.87943 0.12602
# Poissons Ratio (z) = -0.00919 0.21085
#
# Static dielectric constant tensor:
#      x y z
#    x 1.974470 0.000000 0.000000 
#    y 0.000000 1.979090 0.000000 
#    z 0.000000 0.000000 2.955090 
# 
# From -- ./inp_files/8543.got.cif
#   From: 2010.05.17/outbox.cif.g08.bks.cpg/sg56_5_cif.got.tgz:8543.got - 2010.06.03 13:42:01.
