data_PCOD9432283
_publ_section_title
;
Structure prediction by ZEFSAII (Michael W. Deem and Ramdas Pophale) SiO2 
 PCOD9432283
Probable space group: P C C N
;
_chemical_formula_sum "Si O2"
_cell_formula_units_Z 56
_cell_length_a 5.174465
_cell_length_b 28.163613
_cell_length_c 14.396543
_cell_angle_alpha 90.000000
_cell_angle_beta 90.000000
_cell_angle_gamma 90.000000
_cell_volume 2098.031674
_symmetry_space_group_name_H-M "P C C N"
_symmetry_group_IT_number 56
_symmetry_cell_setting 'orthorhombic'
loop_
_space_group_symop_operation_xyz
x,y,z
1/2-x,1/2-y,z
1/2+x,-y,1/2-z
-x,1/2+y,1/2-z
-x,-y,-z
1/2+x,1/2+y,-z
1/2-x,y,1/2+z
x,1/2-y,1/2+z
loop_
_atom_site_type_symbol
_atom_site_label
_atom_site_fract_x
_atom_site_fract_y
_atom_site_fract_z
Si Si1 0.283574 0.336992 0.162186
Si Si2 0.654520 0.695774 0.526311
Si Si3 0.564335 0.378036 0.875981
Si Si4 0.037281 0.434828 0.213495
Si Si5 0.749089 0.979186 0.447675
Si Si6 0.869550 0.201286 0.297992
Si Si7 0.126013 0.898469 0.933116
O O1 0.106825 0.319571 0.079416
O O2 0.552437 0.347736 0.108771
O O3 0.359326 0.303512 0.245698
O O4 0.211760 0.387531 0.203662
O O5 0.750000 0.750000 0.522330
O O6 0.410410 0.701544 0.592055
O O7 0.843184 0.656846 0.579064
O O8 0.509107 0.428386 0.823380
O O9 0.701464 0.346660 0.795316
O O10 0.742629 0.392633 0.964319
O O11 0.794082 0.426547 0.143025
O O12 0.184281 0.478755 0.163825
O O13 0.650563 0.924324 0.455622
O O14 0.500000 0.000000 0.500000
O O15 0.000000 0.000000 0.500000
O O16 0.750000 0.250000 0.265469
#
# Coordination Sequence:
#
# PCOD9432283 Si02
#       7
#     8   8   8   8   8   8   8
#     4  10  23  39  62  94 130 181 240 285 355 431
#     4  11  23  41  59  89 134 178 229 303 362 404
#     4  11  23  41  65  98 135 175 239 286 341 435
#     4  11  21  42  72  96 137 184 225 284 356 427
#     4  11  23  45  75 103 139 175 221 287 357 428
#     4  12  23  40  65  95 134 186 244 308 361 412
#     4  10  22  42  68 101 131 186 225 283 352 424
#
# _framework density 26.691685
#
# number of rings (size 3 to 8) (size 9 to 14) (size 15 to 20)
#    0.000    1.143    5.714    0.857    0.000    1.714 
#    5.143    1.429    0.000    0.000    0.000    0.000 
#    0.000    0.000    0.000    0.000    0.000    0.000 
#
# Total GULP energy -311982.367168 kJ/mol
# GULP energy per Si atom -5571.113699 kJ/mol
# Density = 2.663093 g / cm^3
# Si number density = 26.691685 Si / 1000 Ang^3
#
#
#
# Elastic Constant Matrix: (Units=GPa)
#
#
# Indices 1 2 3 4 5 6 
#
# 1 97.6888 10.9914 7.1229 0.0000 0.0000 0.0000
# 2 10.9914 60.4663 -7.1030 0.0000 0.0000 0.0000
# 3 7.1229 -7.1030 116.0518 0.0000 0.0000 0.0000
# 4 0.0000 0.0000 0.0000 17.2101 0.0000 0.0000
# 5 0.0000 0.0000 0.0000 0.0000 37.0194 0.0000
# 6 0.0000 0.0000 0.0000 0.0000 0.0000 47.2898
#
#
#
# Elastic Compliance Matrix: (Units=1/GPa)
#
#
# Indices 1 2 3 4 5 6 
#
# 1 0.010518 -0.002002 -0.000768 0.000000 0.000000 0.000000
# 2 -0.002002 0.017039 0.001166 0.000000 0.000000 0.000000
# 3 -0.000768 0.001166 0.008735 0.000000 0.000000 0.000000
# 4 0.000000 0.000000 0.000000 0.058105 0.000000 0.000000
# 5 0.000000 0.000000 0.000000 0.000000 0.027013 0.000000
# 6 0.000000 0.000000 0.000000 0.000000 0.000000 0.021146
#
#
# Mechanical properties :
#
#
# Convention : Reuss Voigt Hill
#
# Bulk Modulus (GPa) = 30.22673 32.91438 31.57055
# Shear Modulus (GPa) = 31.88908 37.85023 34.86966
#
# Velocity S-wave (km/s) = 3.46022 3.76979 3.61832
# Velocity P-wave (km/s) = 5.22620 5.59522 5.41386
#
# Compressibility (1/GPa) = 0.03308330
#
# Stress axis : x y z
#
# Youngs Moduli (GPa) = 95.07633 58.68881 114.47752
#
# Poissons Ratio (x) = 0.11750 0.08793
# Poissons Ratio (y) = 0.19036 -0.13345
# Poissons Ratio (z) = 0.07303 -0.06842
#
# Static dielectric constant tensor:
#      x y z
#    x 2.643530 0.000000 0.000000 
#    y 0.000000 2.287750 0.000000 
#    z 0.000000 0.000000 2.296000 
# 
# From -- ./inp_files/9801.got.cif
#   From: 2010.05.17/outbox.cif.g08.bks.cpg/sg56_5_cif.got.tgz:9801.got - 2010.06.03 13:42:01.
