data_PCOD9432488
_publ_section_title
;
Structure prediction by ZEFSAII (Michael W. Deem and Ramdas Pophale) SiO2 
 PCOD9432488
Probable space group: P C C N
;
_chemical_formula_sum "Si O2"
_cell_formula_units_Z 56
_cell_length_a 21.587304
_cell_length_b 7.784036
_cell_length_c 15.964413
_cell_angle_alpha 90.000000
_cell_angle_beta 90.000000
_cell_angle_gamma 90.000000
_cell_volume 2682.601714
_symmetry_space_group_name_H-M "P C C N"
_symmetry_group_IT_number 56
_symmetry_cell_setting 'orthorhombic'
loop_
_space_group_symop_operation_xyz
x,y,z
1/2-x,1/2-y,z
1/2+x,-y,1/2-z
-x,1/2+y,1/2-z
-x,-y,-z
1/2+x,1/2+y,-z
1/2-x,y,1/2+z
x,1/2-y,1/2+z
loop_
_atom_site_type_symbol
_atom_site_label
_atom_site_fract_x
_atom_site_fract_y
_atom_site_fract_z
Si Si1 0.956058 0.961852 0.578418
Si Si2 0.120821 0.365006 0.483585
Si Si3 0.883779 0.307017 0.632634
Si Si4 0.077142 0.406098 0.673258
Si Si5 0.791893 0.598584 0.241222
Si Si6 0.250000 0.250000 0.426463
Si Si7 0.527300 0.224073 0.774699
Si Si8 0.250000 0.750000 0.296453
O O1 0.912102 0.801221 0.555863
O O2 0.999221 0.896032 0.653942
O O3 0.915978 0.130644 0.601759
O O4 0.000000 0.000000 0.500000
O O5 0.105116 0.534988 0.429887
O O6 0.097063 0.384692 0.577867
O O7 0.194903 0.335441 0.478112
O O8 0.914111 0.346775 0.723181
O O9 0.810925 0.283369 0.648297
O O10 0.137827 0.390336 0.730923
O O11 0.046504 0.592845 0.687672
O O12 0.027042 0.269691 0.705188
O O13 0.750000 0.750000 0.278800
O O14 0.782243 0.621389 0.140908
O O15 0.764607 0.413712 0.260631
#
# Coordination Sequence:
#
# PCOD9432488 Si02
#       8
#     8   8   8   8   8   4   8   4
#     4  12  27  49  72 106 148 194 244 306 377 434
#     4  12  27  46  72 112 147 189 242 312 368 433
#     4  12  25  46  78 107 149 193 247 305 370 453
#     4  12  26  46  72 109 146 193 252 307 369 443
#     4  10  23  45  71 103 140 192 246 292 368 444
#     4  10  22  46  74 100 144 194 234 298 374 430
#     4  12  24  45  75 103 144 195 251 300 367 448
#     4  12  20  44  76 102 134 190 244 292 364 440
#
# _framework density 20.875257999999999
#
# number of rings (size 3 to 8) (size 9 to 14) (size 15 to 20)
#    0.429    0.000    4.286    4.286    1.000    2.857 
#    0.000    0.714    0.000    0.000    0.000    0.000 
#    0.000    0.000    0.000    0.000    0.000    0.000 
#
# Total GULP energy -313198.544187 kJ/mol
# GULP energy per Si atom -5592.831146 kJ/mol
# Density = 2.082775 g / cm^3
# Si number density = 20.875258 Si / 1000 Ang^3
#
#
#
# Elastic Constant Matrix: (Units=GPa)
#
#
# Indices 1 2 3 4 5 6 
#
# 1 162.0606 72.1549 69.4611 0.0000 0.0000 0.0000
# 2 72.1549 137.3145 46.3867 0.0000 0.0000 0.0000
# 3 69.4611 46.3867 128.9332 0.0000 0.0000 0.0000
# 4 0.0000 0.0000 0.0000 21.0437 0.0000 0.0000
# 5 0.0000 0.0000 0.0000 0.0000 33.8832 0.0000
# 6 0.0000 0.0000 0.0000 0.0000 0.0000 42.7487
#
#
#
# Elastic Compliance Matrix: (Units=1/GPa)
#
#
# Indices 1 2 3 4 5 6 
#
# 1 0.009416 -0.003682 -0.003748 0.000000 0.000000 0.000000
# 2 -0.003682 0.009730 -0.001517 0.000000 0.000000 0.000000
# 3 -0.003748 -0.001517 0.010321 0.000000 0.000000 0.000000
# 4 0.000000 0.000000 0.000000 0.047520 0.000000 0.000000
# 5 0.000000 0.000000 0.000000 0.000000 0.029513 0.000000
# 6 0.000000 0.000000 0.000000 0.000000 0.000000 0.023393
#
#
# Mechanical properties :
#
#
# Convention : Reuss Voigt Hill
#
# Bulk Modulus (GPa) = 86.40839 89.36819 87.88829
# Shear Modulus (GPa) = 32.97181 35.55551 34.26366
#
# Velocity S-wave (km/s) = 3.97856 4.13151 4.05576
# Velocity P-wave (km/s) = 7.91125 8.10325 8.00783
#
# Compressibility (1/GPa) = 0.01157295
#
# Stress axis : x y z
#
# Youngs Moduli (GPa) = 106.19807 102.77827 96.88911
#
# Poissons Ratio (x) = 0.37841 0.36317
# Poissons Ratio (y) = 0.39100 0.14698
# Poissons Ratio (z) = 0.39807 0.15591
#
# Static dielectric constant tensor:
#      x y z
#    x 1.765350 0.000000 0.000000 
#    y 0.000000 1.782460 0.000000 
#    z 0.000000 0.000000 1.736450 
# 
# From -- ./inp_files/13107.got.cif
#   From: 2010.05.17/outbox.cif.g08.bks.cpg/sg56_7_cif.got.tgz:13107.got - 2010.06.03 13:42:01.
