data_PCOD9432980
_publ_section_title
;
Structure prediction by ZEFSAII (Michael W. Deem and Ramdas Pophale) SiO2 
 PCOD9432980
Probable space group: P C C N
;
_chemical_formula_sum "Si O2"
_cell_formula_units_Z 56
_cell_length_a 14.567674
_cell_length_b 20.462883
_cell_length_c 8.629515
_cell_angle_alpha 90.000000
_cell_angle_beta 90.000000
_cell_angle_gamma 90.000000
_cell_volume 2572.429156
_symmetry_space_group_name_H-M "P C C N"
_symmetry_group_IT_number 56
_symmetry_cell_setting 'orthorhombic'
loop_
_space_group_symop_operation_xyz
x,y,z
1/2-x,1/2-y,z
1/2+x,-y,1/2-z
-x,1/2+y,1/2-z
-x,-y,-z
1/2+x,1/2+y,-z
1/2-x,y,1/2+z
x,1/2-y,1/2+z
loop_
_atom_site_type_symbol
_atom_site_label
_atom_site_fract_x
_atom_site_fract_y
_atom_site_fract_z
Si Si1 0.936924 0.336906 0.409607
Si Si2 0.348595 0.724165 0.787296
Si Si3 0.333980 0.549978 0.263759
Si Si4 0.041512 0.055179 0.384921
Si Si5 0.845127 0.094876 0.380089
Si Si6 0.164586 0.330557 0.022800
Si Si7 0.356609 0.186420 0.387673
O O1 0.896394 0.310906 0.569515
O O2 0.912109 0.281030 0.282499
O O3 0.888147 0.402200 0.351128
O O4 0.045653 0.345035 0.423205
O O5 0.250000 0.750000 0.838509
O O6 0.326095 0.670252 0.656394
O O7 0.386412 0.481308 0.275041
O O8 0.229459 0.550175 0.206385
O O9 0.338203 0.580342 0.437222
O O10 0.095493 0.112227 0.473784
O O11 0.947646 0.083101 0.316362
O O12 0.000000 0.000000 0.500000
O O13 0.139290 0.262559 0.937930
O O14 0.269405 0.344754 0.973868
O O15 0.160125 0.318461 0.205037
#
# Coordination Sequence:
#
# PCOD9432980 Si02
#       7
#     8   8   8   8   8   8   8
#     4  12  24  40  65 101 136 177 229 284 353 424
#     4  12  24  40  67  99 137 180 223 292 362 411
#     4  11  24  42  65  96 134 183 231 281 338 418
#     4  10  24  45  69  95 136 191 231 279 347 413
#     4  11  23  44  66  95 136 174 231 289 347 413
#     4  11  23  43  69 100 137 177 228 290 350 415
#     4  11  23  41  67 101 134 170 223 290 352 407
#
# _framework density 21.769306
#
# number of rings (size 3 to 8) (size 9 to 14) (size 15 to 20)
#    0.000    0.857    1.429    7.286    0.000    4.571 
#    0.000    2.857    0.000    3.429    0.000    0.000 
#    0.000    0.000    0.000    0.000    0.000    0.000 
#
# Total GULP energy -313494.806737 kJ/mol
# GULP energy per Si atom -5598.121549 kJ/mol
# Density = 2.171976 g / cm^3
# Si number density = 21.769306 Si / 1000 Ang^3
#
#
#
# Elastic Constant Matrix: (Units=GPa)
#
#
# Indices 1 2 3 4 5 6 
#
# 1 172.2277 33.2389 51.3747 0.0000 0.0000 0.0000
# 2 33.2389 49.3335 22.7707 0.0000 0.0000 0.0000
# 3 51.3747 22.7707 77.7037 0.0000 0.0000 0.0000
# 4 0.0000 0.0000 0.0000 -33.8690 0.0000 0.0000
# 5 0.0000 0.0000 0.0000 0.0000 27.9381 0.0000
# 6 0.0000 0.0000 0.0000 0.0000 0.0000 30.5588
#
#
#
# Elastic Compliance Matrix: (Units=1/GPa)
#
#
# Indices 1 2 3 4 5 6 
#
# 1 0.007662 -0.003266 -0.004109 0.000000 0.000000 0.000000
# 2 -0.003266 0.024833 -0.005118 0.000000 0.000000 0.000000
# 3 -0.004109 -0.005118 0.017086 0.000000 0.000000 0.000000
# 4 0.000000 0.000000 0.000000 -0.029526 0.000000 0.000000
# 5 0.000000 0.000000 0.000000 0.000000 0.035793 0.000000
# 6 0.000000 0.000000 0.000000 0.000000 0.000000 0.032724
#
#
# Mechanical properties :
#
#
# Convention : Reuss Voigt Hill
#
# Bulk Modulus (GPa) = 40.65776 57.11482 48.88629
# Shear Modulus (GPa) = 41.06556 17.71763 29.39159
#
# Velocity S-wave (km/s) = 4.34798 2.85596 3.67841
# Velocity P-wave (km/s) = 6.62750 6.09661 6.36759
#
# Compressibility (1/GPa) = 0.02459555
#
# Stress axis : x y z
#
# Youngs Moduli (GPa) = 130.51002 40.26912 58.52816
#
# Poissons Ratio (x) = 0.13152 0.24049
# Poissons Ratio (y) = 0.42624 0.29954
# Poissons Ratio (z) = 0.53625 0.20609
#
# Static dielectric constant tensor:
#      x y z
#    x 1.823100 0.000000 0.000000 
#    y 0.000000 1.582600 0.000000 
#    z 0.000000 0.000000 1.777040 
# 
# From -- ./inp_files/3572.got.cif
#   From: 2010.05.17/outbox.cif.g08.bks.cpg/sg56_2_cif.got.tgz:3572.got - 2010.06.03 13:42:01.
