data_PCOD9432178
_publ_section_title
;
Structure prediction by ZEFSAII (Michael W. Deem and Ramdas Pophale) SiO2 
 PCOD9432178
Probable space group: P C C N
;
_chemical_formula_sum "Si O2"
_cell_formula_units_Z 60
_cell_length_a 12.268438
_cell_length_b 8.952159
_cell_length_c 26.720463
_cell_angle_alpha 90.000000
_cell_angle_beta 90.000000
_cell_angle_gamma 90.000000
_cell_volume 2934.681935
_symmetry_space_group_name_H-M "P C C N"
_symmetry_group_IT_number 56
_symmetry_cell_setting 'orthorhombic'
loop_
_space_group_symop_operation_xyz
x,y,z
1/2-x,1/2-y,z
1/2+x,-y,1/2-z
-x,1/2+y,1/2-z
-x,-y,-z
1/2+x,1/2+y,-z
1/2-x,y,1/2+z
x,1/2-y,1/2+z
loop_
_atom_site_type_symbol
_atom_site_label
_atom_site_fract_x
_atom_site_fract_y
_atom_site_fract_z
Si Si1 0.590067 0.222265 0.577434
Si Si2 0.083039 0.039160 0.133836
Si Si3 0.009377 0.475108 0.138216
Si Si4 0.750000 0.750000 0.596581
Si Si5 0.068131 0.211814 0.831198
Si Si6 0.121784 0.222514 0.716189
Si Si7 0.784497 0.425898 0.921114
Si Si8 0.790738 0.467299 0.035037
O O1 0.573683 0.342485 0.622632
O O2 0.608325 0.349080 0.534894
O O3 0.692953 0.114533 0.566293
O O4 0.486792 0.117367 0.589175
O O5 0.205115 0.017566 0.115438
O O6 0.032935 0.880044 0.147637
O O7 0.075724 0.137863 0.184131
O O8 0.086484 0.415931 0.182244
O O9 0.092035 0.532117 0.094787
O O10 0.943362 0.614326 0.157830
O O11 0.669519 0.835812 0.634403
O O12 0.692177 0.626946 0.561130
O O13 0.080813 0.195928 0.772169
O O14 0.250000 0.250000 0.719159
O O15 0.750000 0.250000 0.918041
O O16 0.759914 0.480037 0.977330
#
# Coordination Sequence:
#
# PCOD9432178 Si02
#       8
#     8   8   8   4   8   8   8   8
#     4  10  22  41  64  91 134 168 207 269 318 371
#     4  11  24  42  67  94 128 174 214 266 320 388
#     4  11  24  42  67  94 128 174 214 266 320 388
#     4  12  24  42  68 100 128 168 214 278 304 390
#     4  12  23  42  67  96 128 166 218 266 329 377
#     4  11  23  42  66  92 130 165 213 269 329 380
#     4  12  24  43  68  92 134 172 215 271 312 373
#     4  11  24  45  63  97 134 168 218 263 318 381
#
# _framework density 20.445145
#
# number of rings (size 3 to 8) (size 9 to 14) (size 15 to 20)
#    0.000    0.800    7.333    0.800    0.000    3.200 
#    4.800    0.000    0.000    0.000    0.000    0.000 
#    0.000    0.000    0.000    0.000    0.000    0.000 
#
# Total GULP energy -334163.925902 kJ/mol
# GULP energy per Si atom -5569.398765 kJ/mol
# Density = 2.039861 g / cm^3
# Si number density = 20.445145 Si / 1000 Ang^3
#
#
#
# Elastic Constant Matrix: (Units=GPa)
#
#
# Indices 1 2 3 4 5 6 
#
# 1 39.4539 -12.1255 29.8473 0.0000 0.0000 0.0000
# 2 -12.1255 54.1251 36.3814 0.0000 0.0000 0.0000
# 3 29.8473 36.3814 115.6923 0.0000 0.0000 0.0000
# 4 0.0000 0.0000 0.0000 27.9132 0.0000 0.0000
# 5 0.0000 0.0000 0.0000 0.0000 15.5393 0.0000
# 6 0.0000 0.0000 0.0000 0.0000 0.0000 22.3482
#
#
#
# Elastic Compliance Matrix: (Units=1/GPa)
#
#
# Indices 1 2 3 4 5 6 
#
# 1 0.047818 0.024099 -0.019915 0.000000 0.000000 0.000000
# 2 0.024099 0.035573 -0.017404 0.000000 0.000000 0.000000
# 3 -0.019915 -0.017404 0.019254 0.000000 0.000000 0.000000
# 4 0.000000 0.000000 0.000000 0.035825 0.000000 0.000000
# 5 0.000000 0.000000 0.000000 0.000000 0.064353 0.000000
# 6 0.000000 0.000000 0.000000 0.000000 0.000000 0.044746
#
#
# Mechanical properties :
#
#
# Convention : Reuss Voigt Hill
#
# Bulk Modulus (GPa) = 13.12235 35.27531 24.19883
# Shear Modulus (GPa) = 16.69943 23.50468 20.10206
#
# Velocity S-wave (km/s) = 2.86106 3.39432 3.13903
# Velocity P-wave (km/s) = 4.16491 5.71428 4.99997
#
# Compressibility (1/GPa) = 0.07620587
#
# Stress axis : x y z
#
# Youngs Moduli (GPa) = 20.91252 28.11135 51.93636
#
# Poissons Ratio (x) = -0.67745 1.03431
# Poissons Ratio (y) = -0.50397 0.90389
# Poissons Ratio (z) = 0.41647 0.48924
#
# Static dielectric constant tensor:
#      x y z
#    x 1.791610 0.000000 0.000000 
#    y 0.000000 1.798340 0.000000 
#    z 0.000000 0.000000 1.722610 
# 
# From -- ./inp_files/22313.got.cif
#   From: 2010.05.17/outbox.cif.g08.bks.cpg/sg56_12_cif.got.tgz:22313.got - 2010.06.03 13:42:01.
