data_PCOD9432771
_publ_section_title
;
Structure prediction by ZEFSAII (Michael W. Deem and Ramdas Pophale) SiO2 
 PCOD9432771
Probable space group: P C C N
;
_chemical_formula_sum "Si O2"
_cell_formula_units_Z 40
_cell_length_a 8.314381
_cell_length_b 18.170463
_cell_length_c 9.775661
_cell_angle_alpha 90.000000
_cell_angle_beta 90.000000
_cell_angle_gamma 90.000000
_cell_volume 1476.869250
_symmetry_space_group_name_H-M "P C C N"
_symmetry_group_IT_number 56
_symmetry_cell_setting 'orthorhombic'
loop_
_space_group_symop_operation_xyz
x,y,z
1/2-x,1/2-y,z
1/2+x,-y,1/2-z
-x,1/2+y,1/2-z
-x,-y,-z
1/2+x,1/2+y,-z
1/2-x,y,1/2+z
x,1/2-y,1/2+z
loop_
_atom_site_type_symbol
_atom_site_label
_atom_site_fract_x
_atom_site_fract_y
_atom_site_fract_z
Si Si1 0.061122 0.619023 0.591326
Si Si2 0.260061 0.168929 0.766876
Si Si3 0.249838 0.019094 0.602512
Si Si4 0.268395 0.664175 0.357868
Si Si5 0.994072 0.592045 0.074532
O O1 0.093401 0.531652 0.608935
O O2 0.112241 0.632758 0.435401
O O3 0.187616 0.654991 0.698974
O O4 0.892493 0.653591 0.634481
O O5 0.250000 0.250000 0.702998
O O6 0.263444 0.097582 0.671629
O O7 0.425569 0.162746 0.849942
O O8 0.162911 0.041938 0.460010
O O9 0.111858 0.962838 0.654794
O O10 0.250000 0.750000 0.385988
O O11 0.412841 0.622406 0.440508
#
# Coordination Sequence:
#
# PCOD9432771 Si02
#       5
#     8   8   8   8   8
#     4  11  25  46  75 107 141 198 243 295 370 441
#     4  12  25  43  70 109 147 185 241 308 375 428
#     4  10  23  46  74  96 143 193 248 295 363 445
#     4  11  23  47  73 105 148 189 244 300 372 439
#     4  10  23  46  71 100 146 193 245 306 358 447
#
# _framework density 27.084320000000002
#
# number of rings (size 3 to 8) (size 9 to 14) (size 15 to 20)
#    0.000    1.200    2.000    3.000    5.600    3.200 
#   10.800    0.000    0.000    0.000    0.000    0.000 
#    0.000    0.000    0.000    0.000    0.000    0.000 
#
# Total GULP energy -223652.422819 kJ/mol
# GULP energy per Si atom -5591.310570 kJ/mol
# Density = 2.702268 g / cm^3
# Si number density = 27.084320 Si / 1000 Ang^3
#
#
#
# Elastic Constant Matrix: (Units=GPa)
#
#
# Indices 1 2 3 4 5 6 
#
# 1 91.0506 42.5810 36.1456 0.0000 0.0000 0.0000
# 2 42.5810 213.6115 22.1150 0.0000 0.0000 0.0000
# 3 36.1456 22.1150 76.4553 0.0000 0.0000 0.0000
# 4 0.0000 0.0000 0.0000 27.8416 0.0000 0.0000
# 5 0.0000 0.0000 0.0000 0.0000 46.7792 0.0000
# 6 0.0000 0.0000 0.0000 0.0000 0.0000 34.7985
#
#
#
# Elastic Compliance Matrix: (Units=1/GPa)
#
#
# Indices 1 2 3 4 5 6 
#
# 1 0.014497 -0.002248 -0.006203 0.000000 0.000000 0.000000
# 2 -0.002248 0.005174 -0.000434 0.000000 0.000000 0.000000
# 3 -0.006203 -0.000434 0.016138 0.000000 0.000000 0.000000
# 4 0.000000 0.000000 0.000000 0.035918 0.000000 0.000000
# 5 0.000000 0.000000 0.000000 0.000000 0.021377 0.000000
# 6 0.000000 0.000000 0.000000 0.000000 0.000000 0.028737
#
#
# Mechanical properties :
#
#
# Convention : Reuss Voigt Hill
#
# Bulk Modulus (GPa) = 55.43640 64.75564 60.09602
# Shear Modulus (GPa) = 34.33512 40.56889 37.45201
#
# Velocity S-wave (km/s) = 3.56436 3.87444 3.72263
# Velocity P-wave (km/s) = 6.11981 6.63143 6.38075
#
# Compressibility (1/GPa) = 0.01803869
#
# Stress axis : x y z
#
# Youngs Moduli (GPa) = 68.98141 193.26063 61.96587
#
# Poissons Ratio (x) = 0.43435 0.38440
# Poissons Ratio (y) = 0.15504 0.02690
# Poissons Ratio (z) = 0.42792 0.08391
#
# Static dielectric constant tensor:
#      x y z
#    x 2.231100 0.000000 0.000000 
#    y 0.000000 2.065540 0.000000 
#    z 0.000000 0.000000 2.227600 
# 
# From -- ./inp_files/6186.got.cif
#   From: 2010.05.17/outbox.cif.g08.bks.cpg/sg56_4_cif.got.tgz:6186.got - 2010.06.03 13:42:01.
