data_PCOD9432214
_publ_section_title
;
Structure prediction by ZEFSAII (Michael W. Deem and Ramdas Pophale) SiO2 
 PCOD9432214
Probable space group: P C C N
;
_chemical_formula_sum "Si O2"
_cell_formula_units_Z 64
_cell_length_a 32.400419
_cell_length_b 10.609004
_cell_length_c 8.610997
_cell_angle_alpha 90.000000
_cell_angle_beta 90.000000
_cell_angle_gamma 90.000000
_cell_volume 2959.911170
_symmetry_space_group_name_H-M "P C C N"
_symmetry_group_IT_number 56
_symmetry_cell_setting 'orthorhombic'
loop_
_space_group_symop_operation_xyz
x,y,z
1/2-x,1/2-y,z
1/2+x,-y,1/2-z
-x,1/2+y,1/2-z
-x,-y,-z
1/2+x,1/2+y,-z
1/2-x,y,1/2+z
x,1/2-y,1/2+z
loop_
_atom_site_type_symbol
_atom_site_label
_atom_site_fract_x
_atom_site_fract_y
_atom_site_fract_z
Si Si1 0.652887 0.643522 0.072424
Si Si2 0.207997 0.319674 0.139208
Si Si3 0.481162 0.616562 0.092688
Si Si4 0.302225 0.814606 0.669264
Si Si5 0.269826 0.920320 0.997600
Si Si6 0.914913 0.648221 0.154918
Si Si7 0.613646 0.065841 0.366528
Si Si8 0.528275 0.806832 0.885387
O O1 0.683599 0.624036 0.215295
O O2 0.617020 0.739923 0.122851
O O3 0.679090 0.715618 0.940806
O O4 0.630708 0.520984 0.005691
O O5 0.250000 0.250000 0.187935
O O6 0.218536 0.434897 0.023778
O O7 0.432026 0.614536 0.100047
O O8 0.502385 0.615040 0.261444
O O9 0.500000 0.500000 0.000000
O O10 0.497106 0.738351 0.001568
O O11 0.278420 0.896538 0.536359
O O12 0.290954 0.671658 0.625640
O O13 0.350951 0.833760 0.665989
O O14 0.284382 0.867394 0.831718
O O15 0.891448 0.527974 0.220480
O O16 0.945883 0.701776 0.287608
O O17 0.939655 0.621958 0.996660
#
# Coordination Sequence:
#
# PCOD9432214 Si02
#       8
#     8   8   8   8   8   8   8   8
#     4  12  24  42  66 106 136 181 225 299 359 404
#     4  12  27  42  71 103 141 178 234 291 359 415
#     4  11  23  45  68 102 137 188 226 295 355 423
#     4  11  26  46  71  99 137 192 235 279 344 428
#     4  11  26  47  71  99 140 192 236 280 356 425
#     4  11  19  41  66 100 132 180 224 292 354 422
#     4  12  24  41  73  99 145 178 245 292 349 429
#     4  10  22  41  69  96 138 177 235 274 365 425
#
# _framework density 21.622271000000001
#
# number of rings (size 3 to 8) (size 9 to 14) (size 15 to 20)
#    0.000    0.750    3.750    4.125    7.000    1.500 
#    0.000    0.000    0.000    0.000    0.000    0.000 
#    0.000    0.000    0.000    0.000    0.000    0.000 
#
# Total GULP energy -358171.490755 kJ/mol
# GULP energy per Si atom -5596.429543 kJ/mol
# Density = 2.157306 g / cm^3
# Si number density = 21.622271 Si / 1000 Ang^3
#
#
#
# Elastic Constant Matrix: (Units=GPa)
#
#
# Indices 1 2 3 4 5 6 
#
# 1 143.9537 17.0255 34.4157 0.0000 0.0000 0.0000
# 2 17.0255 25.1139 -4.6892 0.0000 0.0000 0.0000
# 3 34.4157 -4.6892 91.3019 0.0000 0.0000 0.0000
# 4 0.0000 0.0000 0.0000 27.3492 0.0000 0.0000
# 5 0.0000 0.0000 0.0000 0.0000 37.6677 0.0000
# 6 0.0000 0.0000 0.0000 0.0000 0.0000 38.3675
#
#
#
# Elastic Compliance Matrix: (Units=1/GPa)
#
#
# Indices 1 2 3 4 5 6 
#
# 1 0.008563 -0.006470 -0.003560 0.000000 0.000000 0.000000
# 2 -0.006470 0.045092 0.004755 0.000000 0.000000 0.000000
# 3 -0.003560 0.004755 0.012539 0.000000 0.000000 0.000000
# 4 0.000000 0.000000 0.000000 0.036564 0.000000 0.000000
# 5 0.000000 0.000000 0.000000 0.000000 0.026548 0.000000
# 6 0.000000 0.000000 0.000000 0.000000 0.000000 0.026064
#
#
# Mechanical properties :
#
#
# Convention : Reuss Voigt Hill
#
# Bulk Modulus (GPa) = 17.97146 39.31929 28.64537
# Shear Modulus (GPa) = 27.10492 34.91806 31.01149
#
# Velocity S-wave (km/s) = 3.54441 4.02296 3.79124
# Velocity P-wave (km/s) = 5.00800 6.30896 5.69575
#
# Compressibility (1/GPa) = 0.05564379
#
# Stress axis : x y z
#
# Youngs Moduli (GPa) = 116.78172 22.17667 79.75237
#
# Poissons Ratio (x) = 0.14348 0.28392
# Poissons Ratio (y) = 0.75556 -0.37920
# Poissons Ratio (z) = 0.41575 -0.10544
#
# Static dielectric constant tensor:
#      x y z
#    x 1.776850 0.000000 0.000000 
#    y 0.000000 1.778760 0.000000 
#    z 0.000000 0.000000 1.801580 
# 
# From -- ./inp_files/5222.got.cif
#   From: 2010.05.17/outbox.cif.g08.bks.cpg/sg56_3_cif.got.tgz:5222.got - 2010.06.03 13:42:01.
