data_PCOD9432420
_publ_section_title
;
Structure prediction by ZEFSAII (Michael W. Deem and Ramdas Pophale) SiO2 
 PCOD9432420
Probable space group: P C C N
;
_chemical_formula_sum "Si O2"
_cell_formula_units_Z 32
_cell_length_a 8.623308
_cell_length_b 12.177762
_cell_length_c 8.853241
_cell_angle_alpha 90.000000
_cell_angle_beta 90.000000
_cell_angle_gamma 90.000000
_cell_volume 929.701789
_symmetry_space_group_name_H-M "P C C N"
_symmetry_group_IT_number 56
_symmetry_cell_setting 'orthorhombic'
loop_
_space_group_symop_operation_xyz
x,y,z
1/2-x,1/2-y,z
1/2+x,-y,1/2-z
-x,1/2+y,1/2-z
-x,-y,-z
1/2+x,1/2+y,-z
1/2-x,y,1/2+z
x,1/2-y,1/2+z
loop_
_atom_site_type_symbol
_atom_site_label
_atom_site_fract_x
_atom_site_fract_y
_atom_site_fract_z
Si Si1 0.627873 0.327364 0.225136
Si Si2 0.546570 0.065570 0.235977
Si Si3 0.701918 0.970357 0.544462
Si Si4 0.407358 0.224698 0.000920
O O1 0.682619 0.174260 0.241411
O O2 0.414488 0.147857 0.154086
O O3 0.500222 0.319982 0.355227
O O4 0.550592 0.305659 0.063557
O O5 0.634810 0.016367 0.392058
O O6 0.890786 0.019734 0.194634
O O7 0.632409 0.012391 0.090371
O O8 0.709331 0.836510 0.535470
#
# Coordination Sequence:
#
# PCOD9432420 Si02
#       4
#     8   8   8   8
#     4   8  20  41  66  97 142 183 238 304 355 430
#     4   9  22  42  67  95 145 186 246 308 362 427
#     4  10  22  44  70 101 141 199 243 306 380 430
#     4  11  23  41  69 103 146 186 247 307 370 447
#
# _framework density 34.419637000000002
#
# number of rings (size 3 to 8) (size 9 to 14) (size 15 to 20)
#    1.500    1.000    0.000    0.750    3.500    2.000 
#    4.500    0.000    0.000    0.000    0.000    0.000 
#    0.000    0.000    0.000    0.000    0.000    0.000 
#
# Total GULP energy -178404.277709 kJ/mol
# GULP energy per Si atom -5575.133678 kJ/mol
# Density = 3.434130 g / cm^3
# Si number density = 34.419637 Si / 1000 Ang^3
#
#
#
# Elastic Constant Matrix: (Units=GPa)
#
#
# Indices 1 2 3 4 5 6 
#
# 1 356.0029 76.6450 163.5468 0.0000 0.0000 0.0000
# 2 76.6450 288.3941 119.0823 0.0000 0.0000 0.0000
# 3 163.5468 119.0823 261.2306 0.0000 0.0000 0.0000
# 4 0.0000 0.0000 0.0000 92.5320 0.0000 0.0000
# 5 0.0000 0.0000 0.0000 0.0000 133.9877 0.0000
# 6 0.0000 0.0000 0.0000 0.0000 0.0000 100.6240
#
#
#
# Elastic Compliance Matrix: (Units=1/GPa)
#
#
# Indices 1 2 3 4 5 6 
#
# 1 0.003943 -0.000035 -0.002453 0.000000 0.000000 0.000000
# 2 -0.000035 0.004272 -0.001925 0.000000 0.000000 0.000000
# 3 -0.002453 -0.001925 0.006241 0.000000 0.000000 0.000000
# 4 0.000000 0.000000 0.000000 0.010807 0.000000 0.000000
# 5 0.000000 0.000000 0.000000 0.000000 0.007463 0.000000
# 6 0.000000 0.000000 0.000000 0.000000 0.000000 0.009938
#
#
# Mechanical properties :
#
#
# Convention : Reuss Voigt Hill
#
# Bulk Modulus (GPa) = 177.62123 180.46398 179.04260
# Shear Modulus (GPa) = 93.68946 101.85230 97.77088
#
# Velocity S-wave (km/s) = 5.22292 5.44569 5.33547
# Velocity P-wave (km/s) = 9.38555 9.59610 9.49141
#
# Compressibility (1/GPa) = 0.00562996
#
# Stress axis : x y z
#
# Youngs Moduli (GPa) = 253.59362 234.09300 160.22533
#
# Poissons Ratio (x) = 0.00825 0.39299
# Poissons Ratio (y) = 0.00894 0.30847
# Poissons Ratio (z) = 0.62199 0.45069
#
# Static dielectric constant tensor:
#      x y z
#    x 2.847210 0.000000 0.000000 
#    y 0.000000 11.455020 0.000000 
#    z 0.000000 0.000000 2.397630 
# 
# From -- ./inp_files/6064.got.cif
#   From: 2010.05.17/outbox.cif.g08.bks.cpg/sg56_4_cif.got.tgz:6064.got - 2010.06.03 13:42:01.
