data_PCOD9432255
_publ_section_title
;
Structure prediction by ZEFSAII (Michael W. Deem and Ramdas Pophale) SiO2 
 PCOD9432255
Probable space group: P C C N
;
_chemical_formula_sum "Si O2"
_cell_formula_units_Z 36
_cell_length_a 24.712649
_cell_length_b 8.918295
_cell_length_c 7.710763
_cell_angle_alpha 90.000000
_cell_angle_beta 90.000000
_cell_angle_gamma 90.000000
_cell_volume 1699.411252
_symmetry_space_group_name_H-M "P C C N"
_symmetry_group_IT_number 56
_symmetry_cell_setting 'orthorhombic'
loop_
_space_group_symop_operation_xyz
x,y,z
1/2-x,1/2-y,z
1/2+x,-y,1/2-z
-x,1/2+y,1/2-z
-x,-y,-z
1/2+x,1/2+y,-z
1/2-x,y,1/2+z
x,1/2-y,1/2+z
loop_
_atom_site_type_symbol
_atom_site_label
_atom_site_fract_x
_atom_site_fract_y
_atom_site_fract_z
Si Si1 0.549336 0.609631 0.305904
Si Si2 0.332547 0.621893 0.936441
Si Si3 0.750000 0.250000 0.800720
Si Si4 0.410807 0.409813 0.065816
Si Si5 0.928198 0.371040 0.104023
O O1 0.588472 0.745781 0.354313
O O2 0.548843 0.579072 0.100323
O O3 0.490550 0.673623 0.363014
O O4 0.567183 0.468595 0.425555
O O5 0.283852 0.625965 0.801112
O O6 0.356642 0.460761 0.970099
O O7 0.382863 0.740034 0.906749
O O8 0.299270 0.675730 0.100994
O O9 0.417725 0.522672 0.228469
#
# Coordination Sequence:
#
# PCOD9432255 Si02
#       5
#     8   8   4   8   8
#     4  11  26  40  64  99 147 177 218 261 341 413
#     4  11  23  41  71  94 125 169 235 281 341 385
#     4  10  22  42  66 100 120 164 230 310 326 382
#     4  12  24  42  65  98 139 178 221 272 331 414
#     4  11  25  42  64 102 135 186 218 272 333 413
#
# _framework density 21.183806000000001
#
# number of rings (size 3 to 8) (size 9 to 14) (size 15 to 20)
#    0.000    0.889    4.444    2.000    6.222    0.000 
#    0.000    0.000    0.000   22.667    0.000    0.000 
#    0.000    0.000    0.000    0.000    0.000    0.000 
#
# Total GULP energy -200620.905634 kJ/mol
# GULP energy per Si atom -5572.802934 kJ/mol
# Density = 2.113559 g / cm^3
# Si number density = 21.183806 Si / 1000 Ang^3
#
#
#
# Elastic Constant Matrix: (Units=GPa)
#
#
# Indices 1 2 3 4 5 6 
#
# 1 106.2570 32.7059 17.2977 0.0000 0.0000 0.0000
# 2 32.7059 53.9972 20.3651 0.0000 0.0000 0.0000
# 3 17.2977 20.3651 114.4708 0.0000 0.0000 0.0000
# 4 0.0000 0.0000 0.0000 30.0685 0.0000 0.0000
# 5 0.0000 0.0000 0.0000 0.0000 -728.9637 0.0000
# 6 0.0000 0.0000 0.0000 0.0000 0.0000 19.9204
#
#
#
# Elastic Compliance Matrix: (Units=1/GPa)
#
#
# Indices 1 2 3 4 5 6 
#
# 1 0.011599 -0.006822 -0.000539 0.000000 0.000000 0.000000
# 2 -0.006822 0.023864 -0.003215 0.000000 0.000000 0.000000
# 3 -0.000539 -0.003215 0.009389 0.000000 0.000000 0.000000
# 4 0.000000 0.000000 0.000000 0.033257 0.000000 0.000000
# 5 0.000000 0.000000 0.000000 0.000000 -0.001372 0.000000
# 6 0.000000 0.000000 0.000000 0.000000 0.000000 0.050200
#
#
# Mechanical properties :
#
#
# Convention : Reuss Voigt Hill
#
# Bulk Modulus (GPa) = 42.19320 46.16250 44.17785
# Shear Modulus (GPa) = 32.05358 -122.17122 -45.05882
#
# Velocity S-wave (km/s) = 3.89410 -7.60245 -4.61699
# Velocity P-wave (km/s) = 6.33874 7.43130 2.74268
#
# Compressibility (1/GPa) = 0.02370050
#
# Stress axis : x y z
#
# Youngs Moduli (GPa) = 86.21647 41.90414 106.50514
#
# Poissons Ratio (x) = 0.28587 0.05741
# Poissons Ratio (y) = 0.58817 0.34238
# Poissons Ratio (z) = 0.04647 0.13471
#
# Static dielectric constant tensor:
#      x y z
#    x 1.734760 0.000000 0.000000 
#    y 0.000000 1.754990 0.000000 
#    z 0.000000 0.000000 2.001740 
# 
# From -- ./inp_files/4897.got.cif
#   From: 2010.05.17/outbox.cif.g08.bks.cpg/sg56_3_cif.got.tgz:4897.got - 2010.06.03 13:42:01.
