data_PCOD9432539
_publ_section_title
;
Structure prediction by ZEFSAII (Michael W. Deem and Ramdas Pophale) SiO2 
 PCOD9432539
Probable space group: P C C N
;
_chemical_formula_sum "Si O2"
_cell_formula_units_Z 64
_cell_length_a 12.065069
_cell_length_b 16.074280
_cell_length_c 13.553448
_cell_angle_alpha 90.000000
_cell_angle_beta 90.000000
_cell_angle_gamma 90.000000
_cell_volume 2628.519075
_symmetry_space_group_name_H-M "P C C N"
_symmetry_group_IT_number 56
_symmetry_cell_setting 'orthorhombic'
loop_
_space_group_symop_operation_xyz
x,y,z
1/2-x,1/2-y,z
1/2+x,-y,1/2-z
-x,1/2+y,1/2-z
-x,-y,-z
1/2+x,1/2+y,-z
1/2-x,y,1/2+z
x,1/2-y,1/2+z
loop_
_atom_site_type_symbol
_atom_site_label
_atom_site_fract_x
_atom_site_fract_y
_atom_site_fract_z
Si Si1 0.242349 0.651544 0.750105
Si Si2 0.516043 0.214593 0.477113
Si Si3 0.428469 0.885480 0.917903
Si Si4 0.396724 0.972431 0.354930
Si Si5 0.874532 0.747463 0.212155
Si Si6 0.710796 0.416204 0.961754
Si Si7 0.885008 0.895334 0.868035
Si Si8 0.141529 0.086395 0.674492
O O1 0.250000 0.750000 0.729170
O O2 0.134500 0.637508 0.816837
O O3 0.345888 0.614729 0.813037
O O4 0.234482 0.594548 0.653724
O O5 0.530064 0.302941 0.528153
O O6 0.465270 0.230086 0.369145
O O7 0.633615 0.167029 0.475614
O O8 0.433218 0.158617 0.542246
O O9 0.330622 0.918609 0.986705
O O10 0.534783 0.940080 0.888565
O O11 0.357520 0.979600 0.467539
O O12 0.528886 0.969820 0.351285
O O13 0.353585 0.040998 0.279907
O O14 0.750000 0.750000 0.167564
O O15 0.890061 0.660554 0.268358
O O16 0.874918 0.817164 0.297210
O O17 0.757868 0.920484 0.880567
#
# Coordination Sequence:
#
# PCOD9432539 Si02
#       8
#     8   8   8   8   8   8   8   8
#     4  11  22  41  70  97 131 171 218 278 335 391
#     4  11  21  39  66 100 129 165 225 280 318 390
#     4  11  22  37  67  95 131 173 212 272 334 385
#     4  10  25  44  64  96 133 176 217 279 338 402
#     4  10  23  40  67  98 129 179 220 273 325 394
#     4  10  23  39  62  98 128 166 223 269 330 395
#     4  10  23  43  64  95 129 173 226 273 326 399
#     4  11  24  44  66  91 140 175 218 273 339 395
#
# _framework density 24.348310999999999
#
# number of rings (size 3 to 8) (size 9 to 14) (size 15 to 20)
#    0.000    1.500    1.250    4.125    8.750    0.500 
#    2.250    2.500    0.000    0.000    0.000    0.000 
#    0.000    0.000    0.000    0.000    0.000    0.000 
#
# Total GULP energy -358232.128295 kJ/mol
# GULP energy per Si atom -5597.377005 kJ/mol
# Density = 2.429289 g / cm^3
# Si number density = 24.348311 Si / 1000 Ang^3
#
#
#
# Elastic Constant Matrix: (Units=GPa)
#
#
# Indices 1 2 3 4 5 6 
#
# 1 170.7055 16.4657 59.5496 0.0000 0.0000 0.0000
# 2 16.4657 43.0306 11.6322 0.0000 0.0000 0.0000
# 3 59.5496 11.6322 128.7223 0.0000 0.0000 0.0000
# 4 0.0000 0.0000 0.0000 26.7172 0.0000 0.0000
# 5 0.0000 0.0000 0.0000 0.0000 47.9631 0.0000
# 6 0.0000 0.0000 0.0000 0.0000 0.0000 27.0819
#
#
#
# Elastic Compliance Matrix: (Units=1/GPa)
#
#
# Indices 1 2 3 4 5 6 
#
# 1 0.007131 -0.001883 -0.003129 0.000000 0.000000 0.000000
# 2 -0.001883 0.024318 -0.001326 0.000000 0.000000 0.000000
# 3 -0.003129 -0.001326 0.009336 0.000000 0.000000 0.000000
# 4 0.000000 0.000000 0.000000 0.037429 0.000000 0.000000
# 5 0.000000 0.000000 0.000000 0.000000 0.020849 0.000000
# 6 0.000000 0.000000 0.000000 0.000000 0.000000 0.036925
#
#
# Mechanical properties :
#
#
# Convention : Reuss Voigt Hill
#
# Bulk Modulus (GPa) = 35.57584 57.52816 46.55200
# Shear Modulus (GPa) = 31.63852 37.33984 34.48918
#
# Velocity S-wave (km/s) = 3.60865 3.92033 3.76771
# Velocity P-wave (km/s) = 5.65739 6.64609 6.17157
#
# Compressibility (1/GPa) = 0.02810896
#
# Stress axis : x y z
#
# Youngs Moduli (GPa) = 140.22991 41.12118 107.11222
#
# Poissons Ratio (x) = 0.07743 0.33514
# Poissons Ratio (y) = 0.26404 0.14208
# Poissons Ratio (z) = 0.43876 0.05455
#
# Static dielectric constant tensor:
#      x y z
#    x 1.963480 0.000000 0.000000 
#    y 0.000000 2.033830 0.000000 
#    z 0.000000 0.000000 1.888710 
# 
# From -- ./inp_files/11842.got.cif
#   From: 2010.05.17/outbox.cif.g08.bks.cpg/sg56_6_cif.got.tgz:11842.got - 2010.06.03 13:42:01.
