data_PCOD9432026
_publ_section_title
;
Structure prediction by ZEFSAII (Michael W. Deem and Ramdas Pophale) SiO2 
 PCOD9432026
Probable space group: P C C N
;
_chemical_formula_sum "Si O2"
_cell_formula_units_Z 40
_cell_length_a 9.521640
_cell_length_b 21.587326
_cell_length_c 8.361308
_cell_angle_alpha 90.000000
_cell_angle_beta 90.000000
_cell_angle_gamma 90.000000
_cell_volume 1718.639658
_symmetry_space_group_name_H-M "P C C N"
_symmetry_group_IT_number 56
_symmetry_cell_setting 'orthorhombic'
loop_
_space_group_symop_operation_xyz
x,y,z
1/2-x,1/2-y,z
1/2+x,-y,1/2-z
-x,1/2+y,1/2-z
-x,-y,-z
1/2+x,1/2+y,-z
1/2-x,y,1/2+z
x,1/2-y,1/2+z
loop_
_atom_site_type_symbol
_atom_site_label
_atom_site_fract_x
_atom_site_fract_y
_atom_site_fract_z
Si Si1 0.373411 0.800022 0.237407
Si Si2 0.831009 0.373049 0.064802
Si Si3 0.070976 0.967930 0.653035
Si Si4 0.111275 0.366370 0.656466
Si Si5 0.595216 0.902559 0.712320
O O1 0.250000 0.750000 0.254422
O O2 0.309020 0.855047 0.346019
O O3 0.376940 0.817172 0.051177
O O4 0.533000 0.801642 0.298619
O O5 0.809760 0.428842 0.939258
O O6 0.952449 0.386196 0.192852
O O7 0.961840 0.920257 0.733935
O O8 0.000000 0.000000 0.500000
O O9 0.116399 0.023060 0.768939
O O10 0.274480 0.369348 0.700948
O O11 0.091547 0.382420 0.470979
#
# Coordination Sequence:
#
# PCOD9432026 Si02
#       5
#     8   8   8   8   8
#     4  11  23  42  65  91 124 168 221 282 337 389
#     4  10  22  39  62  93 128 171 222 267 326 402
#     4   9  20  36  58  92 134 176 213 258 322 392
#     4  11  23  39  64  95 134 179 226 273 328 397
#     4  11  22  40  63  97 138 174 217 272 329 400
#
# _framework density 23.274222999999999
#
# number of rings (size 3 to 8) (size 9 to 14) (size 15 to 20)
#    0.000    1.600    0.000    6.000    0.000   11.200 
#    0.000    2.000    0.000    7.200    0.000    0.000 
#    0.000    0.000    0.000    0.000    0.000    0.000 
#
# Total GULP energy -223319.302818 kJ/mol
# GULP energy per Si atom -5582.982570 kJ/mol
# Density = 2.322125 g / cm^3
# Si number density = 23.274223 Si / 1000 Ang^3
#
#
#
# Elastic Constant Matrix: (Units=GPa)
#
#
# Indices 1 2 3 4 5 6 
#
# 1 84.8642 5.8626 7.1482 0.0000 0.0000 0.0000
# 2 5.8626 37.8725 5.4173 0.0000 0.0000 0.0000
# 3 7.1482 5.4173 141.5924 0.0000 0.0000 0.0000
# 4 0.0000 0.0000 0.0000 17.1118 0.0000 0.0000
# 5 0.0000 0.0000 0.0000 0.0000 42.1720 0.0000
# 6 0.0000 0.0000 0.0000 0.0000 0.0000 33.1857
#
#
#
# Elastic Compliance Matrix: (Units=1/GPa)
#
#
# Indices 1 2 3 4 5 6 
#
# 1 0.011951 -0.001773 -0.000535 0.000000 0.000000 0.000000
# 2 -0.001773 0.026813 -0.000936 0.000000 0.000000 0.000000
# 3 -0.000535 -0.000936 0.007125 0.000000 0.000000 0.000000
# 4 0.000000 0.000000 0.000000 0.058439 0.000000 0.000000
# 5 0.000000 0.000000 0.000000 0.000000 0.023712 0.000000
# 6 0.000000 0.000000 0.000000 0.000000 0.000000 0.030133
#
#
# Mechanical properties :
#
#
# Convention : Reuss Voigt Hill
#
# Bulk Modulus (GPa) = 25.38143 33.46503 29.42323
# Shear Modulus (GPa) = 28.12182 34.88732 31.50457
#
# Velocity S-wave (km/s) = 3.47981 3.87585 3.68316
# Velocity P-wave (km/s) = 5.20331 5.86851 5.54589
#
# Compressibility (1/GPa) = 0.03939888
#
# Stress axis : x y z
#
# Youngs Moduli (GPa) = 83.67400 37.29559 140.34334
#
# Poissons Ratio (x) = 0.06614 0.07515
# Poissons Ratio (y) = 0.14839 0.13141
# Poissons Ratio (z) = 0.04481 0.03492
#
# Static dielectric constant tensor:
#      x y z
#    x 1.879250 0.000000 0.000000 
#    y 0.000000 2.062980 0.000000 
#    z 0.000000 0.000000 1.831570 
# 
# From -- ./inp_files/2053.got.cif
#   From: 2010.05.17/outbox.cif.g08.bks.cpg/sg56_2_cif.got.tgz:2053.got - 2010.06.03 13:42:01.
