data_PCOD9432167
_publ_section_title
;
Structure prediction by ZEFSAII (Michael W. Deem and Ramdas Pophale) SiO2 
 PCOD9432167
Probable space group: P C C N
;
_chemical_formula_sum "Si O2"
_cell_formula_units_Z 44
_cell_length_a 19.308783
_cell_length_b 8.102149
_cell_length_c 12.315489
_cell_angle_alpha 90.000000
_cell_angle_beta 90.000000
_cell_angle_gamma 90.000000
_cell_volume 1926.667574
_symmetry_space_group_name_H-M "P C C N"
_symmetry_group_IT_number 56
_symmetry_cell_setting 'orthorhombic'
loop_
_space_group_symop_operation_xyz
x,y,z
1/2-x,1/2-y,z
1/2+x,-y,1/2-z
-x,1/2+y,1/2-z
-x,-y,-z
1/2+x,1/2+y,-z
1/2-x,y,1/2+z
x,1/2-y,1/2+z
loop_
_atom_site_type_symbol
_atom_site_label
_atom_site_fract_x
_atom_site_fract_y
_atom_site_fract_z
Si Si1 0.046684 0.547387 0.857113
Si Si2 0.866536 0.466900 0.490216
Si Si3 0.346995 0.521348 0.754975
Si Si4 0.085026 0.297281 0.674546
Si Si5 0.436660 0.815610 0.068829
Si Si6 0.250000 0.750000 0.134658
O O1 0.076661 0.460704 0.750234
O O2 0.987633 0.690756 0.836058
O O3 0.011264 0.390976 0.915588
O O4 0.094615 0.613201 0.955190
O O5 0.857653 0.464199 0.617888
O O6 0.877660 0.643854 0.435952
O O7 0.936971 0.375356 0.453970
O O8 0.807540 0.347038 0.437304
O O9 0.362166 0.332973 0.726729
O O10 0.399989 0.626709 0.679222
O O11 0.277254 0.604237 0.712691
#
# Coordination Sequence:
#
# PCOD9432167 Si02
#       6
#     8   8   8   8   8   4
#     4  10  22  41  61  99 147 179 215 272 320 407
#     4  11  24  43  70  95 125 177 223 281 337 405
#     4  10  24  44  68 100 129 172 227 282 336 405
#     4  11  25  39  67 102 138 184 220 267 333 406
#     4   9  22  39  64  94 136 176 220 266 326 397
#     4  10  24  50  70  94 124 168 230 292 354 380
#
# _framework density 22.837361000000001
#
# number of rings (size 3 to 8) (size 9 to 14) (size 15 to 20)
#    0.000    1.818    0.000    1.636   17.818    1.455 
#    0.000    1.818    0.000    0.000    0.000    0.000 
#    0.000    0.000    0.000    0.000    0.000    0.000 
#
# Total GULP energy -245085.911860 kJ/mol
# GULP energy per Si atom -5570.134360 kJ/mol
# Density = 2.278538 g / cm^3
# Si number density = 22.837361 Si / 1000 Ang^3
#
#
#
# Elastic Constant Matrix: (Units=GPa)
#
#
# Indices 1 2 3 4 5 6 
#
# 1 40.3643 38.0224 45.9480 0.0000 0.0000 0.0000
# 2 38.0224 110.5771 92.5209 0.0000 0.0000 0.0000
# 3 45.9480 92.5209 230.4269 0.0000 0.0000 0.0000
# 4 0.0000 0.0000 0.0000 82.6002 0.0000 0.0000
# 5 0.0000 0.0000 0.0000 0.0000 28.2132 0.0000
# 6 0.0000 0.0000 0.0000 0.0000 0.0000 36.3152
#
#
#
# Elastic Compliance Matrix: (Units=1/GPa)
#
#
# Indices 1 2 3 4 5 6 
#
# 1 0.038484 -0.010259 -0.003555 0.000000 0.000000 0.000000
# 2 -0.010259 0.016353 -0.004521 0.000000 0.000000 0.000000
# 3 -0.003555 -0.004521 0.006864 0.000000 0.000000 0.000000
# 4 0.000000 0.000000 0.000000 0.012107 0.000000 0.000000
# 5 0.000000 0.000000 0.000000 0.000000 0.035444 0.000000
# 6 0.000000 0.000000 0.000000 0.000000 0.000000 0.027537
#
#
# Mechanical properties :
#
#
# Convention : Reuss Voigt Hill
#
# Bulk Modulus (GPa) = 39.94680 81.59455 60.77067
# Shear Modulus (GPa) = 27.50249 43.08418 35.29334
#
# Velocity S-wave (km/s) = 3.47403 4.34817 3.93545
# Velocity P-wave (km/s) = 5.79842 7.81120 6.87883
#
# Compressibility (1/GPa) = 0.02503330
#
# Stress axis : x y z
#
# Youngs Moduli (GPa) = 25.98455 61.14955 145.69332
#
# Poissons Ratio (x) = 0.62731 0.51792
# Poissons Ratio (y) = 0.26657 0.65862
# Poissons Ratio (z) = 0.09237 0.27643
#
# Static dielectric constant tensor:
#      x y z
#    x 1.966360 0.000000 0.000000 
#    y 0.000000 1.883480 0.000000 
#    z 0.000000 0.000000 1.984510 
# 
# From -- ./inp_files/8836.got.cif
#   From: 2010.05.17/outbox.cif.g08.bks.cpg/sg56_5_cif.got.tgz:8836.got - 2010.06.03 13:42:01.
