data_PCOD9432850
_publ_section_title
;
Structure prediction by ZEFSAII (Michael W. Deem and Ramdas Pophale) SiO2 
 PCOD9432850
Probable space group: P C C N
;
_chemical_formula_sum "Si O2"
_cell_formula_units_Z 40
_cell_length_a 4.658725
_cell_length_b 30.438743
_cell_length_c 10.562338
_cell_angle_alpha 90.000000
_cell_angle_beta 90.000000
_cell_angle_gamma 90.000000
_cell_volume 1497.800082
_symmetry_space_group_name_H-M "P C C N"
_symmetry_group_IT_number 56
_symmetry_cell_setting 'orthorhombic'
loop_
_space_group_symop_operation_xyz
x,y,z
1/2-x,1/2-y,z
1/2+x,-y,1/2-z
-x,1/2+y,1/2-z
-x,-y,-z
1/2+x,1/2+y,-z
1/2-x,y,1/2+z
x,1/2-y,1/2+z
loop_
_atom_site_type_symbol
_atom_site_label
_atom_site_fract_x
_atom_site_fract_y
_atom_site_fract_z
Si Si1 0.214362 0.646277 0.332473
Si Si2 0.500000 0.220117 1.000000
Si Si3 0.197115 0.500000 0.663974
Si Si4 0.500000 0.427144 0.500000
Si Si5 0.714362 0.646277 0.167527
O O1 0.326355 0.689251 0.403656
O O2 0.311150 0.604071 0.410522
O O3 0.379333 0.645642 0.197719
O O4 0.879333 0.645642 0.302281
O O5 0.750000 0.250000 0.938791
O O6 0.326356 0.189250 0.903656
O O7 0.250000 0.250000 0.061208
O O8 0.865879 0.500000 0.701750
O O9 0.299329 0.457885 0.586241
O O10 0.299329 0.542115 0.586241
O O11 0.311150 0.395929 0.410521
#
# Coordination Sequence:
#
# PCOD9432850 Si02
#       5
#     8   8   8   8   8
#     4  11  24  41  63  90 123 161 201 249 303 358
#     4  11  24  41  62  91 122 157 204 251 300 361
#     4  11  24  41  64  92 124 161 202 249 300 356
#     4  10  24  41  64  92 124 160 204 249 298 360
#     4  11  24  41  63  90 123 161 201 249 303 358
#
# _framework density 26.705832000000001
#
# number of rings (size 3 to 8) (size 9 to 14) (size 15 to 20)
#    0.000    1.200    0.000    4.800    0.000   16.000 
#    0.000    0.000    0.000    0.000    0.000    0.000 
#    0.000    0.000    0.000    0.000    0.000    0.000 
#
# Total GULP energy -224995.138908 kJ/mol
# GULP energy per Si atom -5624.878473 kJ/mol
# Density = 2.664505 g / cm^3
# Si number density = 26.705832 Si / 1000 Ang^3
#
#
#
# Elastic Constant Matrix: (Units=GPa)
#
#
# Indices 1 2 3 4 5 6 
#
# 1 115.8036 32.5470 18.4714 0.0000 0.0000 0.0000
# 2 32.5470 157.2369 39.8168 0.0000 0.0000 0.0000
# 3 18.4714 39.8168 82.7052 0.0000 0.0000 0.0000
# 4 0.0000 0.0000 0.0000 14.3703 0.0000 0.0000
# 5 0.0000 0.0000 0.0000 0.0000 50.8829 0.0000
# 6 0.0000 0.0000 0.0000 0.0000 0.0000 20.5135
#
#
#
# Elastic Compliance Matrix: (Units=1/GPa)
#
#
# Indices 1 2 3 4 5 6 
#
# 1 0.009291 -0.001592 -0.001309 0.000000 0.000000 0.000000
# 2 -0.001592 0.007516 -0.003263 0.000000 0.000000 0.000000
# 3 -0.001309 -0.003263 0.013954 0.000000 0.000000 0.000000
# 4 0.000000 0.000000 0.000000 0.069588 0.000000 0.000000
# 5 0.000000 0.000000 0.000000 0.000000 0.019653 0.000000
# 6 0.000000 0.000000 0.000000 0.000000 0.000000 0.048748
#
#
# Mechanical properties :
#
#
# Convention : Reuss Voigt Hill
#
# Bulk Modulus (GPa) = 54.24598 59.71291 56.97944
# Shear Modulus (GPa) = 26.70628 34.81405 30.76016
#
# Velocity S-wave (km/s) = 3.16573 3.61447 3.39752
# Velocity P-wave (km/s) = 5.80681 6.31089 6.06409
#
# Compressibility (1/GPa) = 0.01843455
#
# Stress axis : x y z
#
# Youngs Moduli (GPa) = 107.62560 133.05775 71.66298
#
# Poissons Ratio (x) = 0.21181 0.09379
# Poissons Ratio (y) = 0.17132 0.23381
# Poissons Ratio (z) = 0.14086 0.43413
#
# Static dielectric constant tensor:
#      x y z
#    x 1.966780 0.000000 0.000000 
#    y 0.000000 2.036280 0.000000 
#    z 0.000000 0.000000 2.074720 
# 
# From -- ./inp_files/290.got.cif
#   From: 2010.05.17/outbox.cif.g08.bks.cpg/sg56_1_cif.got.tgz:290.got - 2010.06.03 13:42:01.
