data_PCOD9432487
_publ_section_title
;
Structure prediction by ZEFSAII (Michael W. Deem and Ramdas Pophale) SiO2 
 PCOD9432487
Probable space group: P C C N
;
_chemical_formula_sum "Si O2"
_cell_formula_units_Z 32
_cell_length_a 6.308585
_cell_length_b 19.775575
_cell_length_c 9.460984
_cell_angle_alpha 90.000000
_cell_angle_beta 90.000000
_cell_angle_gamma 90.000000
_cell_volume 1180.313534
_symmetry_space_group_name_H-M "P C C N"
_symmetry_group_IT_number 56
_symmetry_cell_setting 'orthorhombic'
loop_
_space_group_symop_operation_xyz
x,y,z
1/2-x,1/2-y,z
1/2+x,-y,1/2-z
-x,1/2+y,1/2-z
-x,-y,-z
1/2+x,1/2+y,-z
1/2-x,y,1/2+z
x,1/2-y,1/2+z
loop_
_atom_site_type_symbol
_atom_site_label
_atom_site_fract_x
_atom_site_fract_y
_atom_site_fract_z
Si Si1 0.515371 0.723118 0.364474
Si Si2 0.184970 0.521384 0.113449
Si Si3 0.592004 0.595234 0.168893
Si Si4 0.481759 0.660025 0.643361
O O1 0.750000 0.750000 0.408939
O O2 0.511778 0.658069 0.262257
O O3 0.397960 0.696308 0.503355
O O4 0.043963 0.712961 0.268334
O O5 0.418335 0.553801 0.077492
O O6 0.187710 0.460156 0.222934
O O7 0.109675 0.589112 0.191228
O O8 0.000000 0.500000 0.000000
O O9 0.784569 0.633458 0.092222
#
# Coordination Sequence:
#
# PCOD9432487 Si02
#       4
#     8   8   8   8
#     4  10  22  46  73 107 152 201 253 312 387 458
#     4  12  25  47  75 113 154 201 267 319 401 469
#     4  11  24  46  72 111 150 205 252 329 387 470
#     4  11  24  48  78 111 156 204 256 322 393 468
#
# _framework density 27.111439000000001
#
# number of rings (size 3 to 8) (size 9 to 14) (size 15 to 20)
#    0.000    1.000    5.000    2.250    0.000    2.000 
#   13.500    7.500    0.000    0.000    0.000    0.000 
#    0.000    0.000    0.000    0.000    0.000    0.000 
#
# Total GULP energy -178430.926140 kJ/mol
# GULP energy per Si atom -5575.966442 kJ/mol
# Density = 2.704973 g / cm^3
# Si number density = 27.111439 Si / 1000 Ang^3
#
#
#
# Elastic Constant Matrix: (Units=GPa)
#
#
# Indices 1 2 3 4 5 6 
#
# 1 102.0908 54.7575 -1.8964 0.0000 0.0000 0.0000
# 2 54.7575 285.0961 75.7760 0.0000 0.0000 0.0000
# 3 -1.8964 75.7760 66.7555 0.0000 0.0000 0.0000
# 4 0.0000 0.0000 0.0000 58.2190 0.0000 0.0000
# 5 0.0000 0.0000 0.0000 0.0000 14.5518 0.0000
# 6 0.0000 0.0000 0.0000 0.0000 0.0000 69.1722
#
#
#
# Elastic Compliance Matrix: (Units=1/GPa)
#
#
# Indices 1 2 3 4 5 6 
#
# 1 0.011659 -0.003333 0.004115 0.000000 0.000000 0.000000
# 2 -0.003333 0.005976 -0.006878 0.000000 0.000000 0.000000
# 3 0.004115 -0.006878 0.022904 0.000000 0.000000 0.000000
# 4 0.000000 0.000000 0.000000 0.017177 0.000000 0.000000
# 5 0.000000 0.000000 0.000000 0.000000 0.068720 0.000000
# 6 0.000000 0.000000 0.000000 0.000000 0.000000 0.014457
#
#
# Mechanical properties :
#
#
# Convention : Reuss Voigt Hill
#
# Bulk Modulus (GPa) = 35.27752 79.02405 57.15079
# Shear Modulus (GPa) = 30.76268 50.07563 40.41915
#
# Velocity S-wave (km/s) = 3.37215 4.30237 3.86534
# Velocity P-wave (km/s) = 5.31057 7.34109 6.40679
#
# Compressibility (1/GPa) = 0.02834666
#
# Stress axis : x y z
#
# Youngs Moduli (GPa) = 85.76833 167.33971 43.65975
#
# Poissons Ratio (x) = 0.55774 -0.17964
# Poissons Ratio (y) = 0.28586 0.30029
# Poissons Ratio (z) = -0.35290 1.15097
#
# Static dielectric constant tensor:
#      x y z
#    x 2.623190 0.000000 0.000000 
#    y 0.000000 1.968980 0.000000 
#    z 0.000000 0.000000 1.998400 
# 
# From -- ./inp_files/5505.got.cif
#   From: 2010.05.17/outbox.cif.g08.bks.cpg/sg56_3_cif.got.tgz:5505.got - 2010.06.03 13:42:01.
