data_PCOD9432801
_publ_section_title
;
Structure prediction by ZEFSAII (Michael W. Deem and Ramdas Pophale) SiO2 
 PCOD9432801
Probable space group: P C C N
;
_chemical_formula_sum "Si O2"
_cell_formula_units_Z 28
_cell_length_a 8.459669
_cell_length_b 7.538268
_cell_length_c 17.806271
_cell_angle_alpha 90.000000
_cell_angle_beta 90.000000
_cell_angle_gamma 90.000000
_cell_volume 1135.528197
_symmetry_space_group_name_H-M "P C C N"
_symmetry_group_IT_number 56
_symmetry_cell_setting 'orthorhombic'
loop_
_space_group_symop_operation_xyz
x,y,z
1/2-x,1/2-y,z
1/2+x,-y,1/2-z
-x,1/2+y,1/2-z
-x,-y,-z
1/2+x,1/2+y,-z
1/2-x,y,1/2+z
x,1/2-y,1/2+z
loop_
_atom_site_type_symbol
_atom_site_label
_atom_site_fract_x
_atom_site_fract_y
_atom_site_fract_z
Si Si1 0.375931 0.559889 0.654829
Si Si2 0.467650 0.357388 0.936295
Si Si3 0.736346 0.541835 0.693283
Si Si4 0.750000 0.750000 0.946481
O O1 0.409752 0.745704 0.612701
O O2 0.557904 0.494085 0.669871
O O3 0.301010 0.567738 0.737229
O O4 0.271113 0.419979 0.607284
O O5 0.352206 0.456473 0.878042
O O6 0.500000 0.500000 0.000000
O O7 0.386918 0.215192 0.991923
O O8 0.750000 0.750000 0.717508
#
# Coordination Sequence:
#
# PCOD9432801 Si02
#       4
#     8   8   8   4
#     4  11  24  48  77 108 155 208 259 330 400 480
#     4  11  26  46  74 112 149 201 260 325 397 468
#     4  10  23  48  72 112 152 199 266 327 396 477
#     4  12  24  48  72 104 158 196 250 324 388 470
#
# _framework density 24.658128999999999
#
# number of rings (size 3 to 8) (size 9 to 14) (size 15 to 20)
#    0.000    1.143    5.714    0.857    4.000    1.143 
#    5.143    5.714    0.000    0.000    0.000    0.000 
#    0.000    0.000    0.000    0.000    0.000    0.000 
#
# Total GULP energy -156246.048737 kJ/mol
# GULP energy per Si atom -5580.216026 kJ/mol
# Density = 2.460201 g / cm^3
# Si number density = 24.658129 Si / 1000 Ang^3
#
#
#
# Elastic Constant Matrix: (Units=GPa)
#
#
# Indices 1 2 3 4 5 6 
#
# 1 116.7450 37.8012 83.9641 0.0000 0.0000 0.0000
# 2 37.8012 117.0661 92.7916 0.0000 0.0000 0.0000
# 3 83.9641 92.7916 242.3615 0.0000 0.0000 0.0000
# 4 0.0000 0.0000 0.0000 55.1635 0.0000 0.0000
# 5 0.0000 0.0000 0.0000 0.0000 56.0821 0.0000
# 6 0.0000 0.0000 0.0000 0.0000 0.0000 32.2114
#
#
#
# Elastic Compliance Matrix: (Units=1/GPa)
#
#
# Indices 1 2 3 4 5 6 
#
# 1 0.011459 -0.000795 -0.003666 0.000000 0.000000 0.000000
# 2 -0.000795 0.012319 -0.004441 0.000000 0.000000 0.000000
# 3 -0.003666 -0.004441 0.007096 0.000000 0.000000 0.000000
# 4 0.000000 0.000000 0.000000 0.018128 0.000000 0.000000
# 5 0.000000 0.000000 0.000000 0.000000 0.017831 0.000000
# 6 0.000000 0.000000 0.000000 0.000000 0.000000 0.031045
#
#
# Mechanical properties :
#
#
# Convention : Reuss Voigt Hill
#
# Bulk Modulus (GPa) = 76.50157 100.58738 88.54447
# Shear Modulus (GPa) = 41.65299 46.13245 43.89272
#
# Velocity S-wave (km/s) = 4.11447 4.33006 4.22364
# Velocity P-wave (km/s) = 7.32558 8.11669 7.73126
#
# Compressibility (1/GPa) = 0.01307163
#
# Stress axis : x y z
#
# Youngs Moduli (GPa) = 87.26429 81.17476 140.91566
#
# Poissons Ratio (x) = 0.06451 0.51657
# Poissons Ratio (y) = 0.06934 0.62584
# Poissons Ratio (z) = 0.31989 0.36052
#
# Static dielectric constant tensor:
#      x y z
#    x 2.844320 0.000000 0.000000 
#    y 0.000000 2.135050 0.000000 
#    z 0.000000 0.000000 1.896860 
# 
# From -- ./inp_files/14283.got.cif
#   From: 2010.05.17/outbox.cif.g08.bks.cpg/sg56_8_cif.got.tgz:14283.got - 2010.06.03 13:42:01.
