data_PCOD9432944
_publ_section_title
;
Structure prediction by ZEFSAII (Michael W. Deem and Ramdas Pophale) SiO2 
 PCOD9432944
Probable space group: P C C N
;
_chemical_formula_sum "Si O2"
_cell_formula_units_Z 48
_cell_length_a 5.278491
_cell_length_b 15.189879
_cell_length_c 23.851703
_cell_angle_alpha 90.000000
_cell_angle_beta 90.000000
_cell_angle_gamma 90.000000
_cell_volume 1912.420950
_symmetry_space_group_name_H-M "P C C N"
_symmetry_group_IT_number 56
_symmetry_cell_setting 'orthorhombic'
loop_
_space_group_symop_operation_xyz
x,y,z
1/2-x,1/2-y,z
1/2+x,-y,1/2-z
-x,1/2+y,1/2-z
-x,-y,-z
1/2+x,1/2+y,-z
1/2-x,y,1/2+z
x,1/2-y,1/2+z
loop_
_atom_site_type_symbol
_atom_site_label
_atom_site_fract_x
_atom_site_fract_y
_atom_site_fract_z
Si Si1 0.251453 0.933254 0.667019
Si Si2 0.232250 0.351216 0.432886
Si Si3 0.235326 0.850945 0.491605
Si Si4 0.750000 0.750000 0.758997
Si Si5 0.750000 0.250000 0.318721
Si Si6 0.471640 0.586300 0.786005
Si Si7 0.653406 0.032180 0.116384
O O1 0.264747 0.836138 0.642447
O O2 0.067128 0.910577 0.719526
O O3 0.454705 0.985888 0.702434
O O4 0.138360 0.005602 0.625609
O O5 0.250000 0.250000 0.410463
O O6 0.483631 0.362108 0.470938
O O7 0.228192 0.432758 0.389309
O O8 0.989713 0.363316 0.472577
O O9 0.250000 0.750000 0.470948
O O10 0.215830 0.917364 0.439985
O O11 0.497491 0.766444 0.721016
O O12 0.672350 0.664452 0.795037
O O13 0.245332 0.591065 0.830983
#
# Coordination Sequence:
#
# PCOD9432944 Si02
#       7
#     8   8   8   4   4   8   8
#     4  11  24  43  65  98 145 187 232 284 335 405
#     4  10  24  48  72 100 136 173 226 294 353 412
#     4  10  24  48  72 100 136 173 226 294 353 412
#     4  10  24  44  68  90 132 194 238 282 338 394
#     4  10  24  44  68  90 132 194 238 282 338 394
#     4  11  24  43  65  98 145 187 232 284 335 405
#     4  12  26  40  74 104 136 184 234 278 350 422
#
# _framework density 25.099079
#
# number of rings (size 3 to 8) (size 9 to 14) (size 15 to 20)
#    0.000    1.333    1.667    2.000    9.333    2.667 
#    6.000    0.000    0.000    0.000    0.000    0.000 
#    0.000    0.000    0.000    0.000    0.000    0.000 
#
# Total GULP energy -268123.426273 kJ/mol
# GULP energy per Si atom -5585.904714 kJ/mol
# Density = 2.504195 g / cm^3
# Si number density = 25.099079 Si / 1000 Ang^3
#
#
#
# Elastic Constant Matrix: (Units=GPa)
#
#
# Indices 1 2 3 4 5 6 
#
# 1 93.4169 18.9992 18.2367 0.0000 0.0000 0.0000
# 2 18.9992 118.8457 52.5234 0.0000 0.0000 0.0000
# 3 18.2367 52.5234 93.8147 0.0000 0.0000 0.0000
# 4 0.0000 0.0000 0.0000 27.6384 0.0000 0.0000
# 5 0.0000 0.0000 0.0000 0.0000 18.2596 0.0000
# 6 0.0000 0.0000 0.0000 0.0000 0.0000 37.1104
#
#
#
# Elastic Compliance Matrix: (Units=1/GPa)
#
#
# Indices 1 2 3 4 5 6 
#
# 1 0.011235 -0.001104 -0.001566 0.000000 0.000000 0.000000
# 2 -0.001104 0.011289 -0.006106 0.000000 0.000000 0.000000
# 3 -0.001566 -0.006106 0.014382 0.000000 0.000000 0.000000
# 4 0.000000 0.000000 0.000000 0.036181 0.000000 0.000000
# 5 0.000000 0.000000 0.000000 0.000000 0.054766 0.000000
# 6 0.000000 0.000000 0.000000 0.000000 0.000000 0.026947
#
#
# Mechanical properties :
#
#
# Convention : Reuss Voigt Hill
#
# Bulk Modulus (GPa) = 51.66662 53.95510 52.81086
# Shear Modulus (GPa) = 27.96373 31.02289 29.49331
#
# Velocity S-wave (km/s) = 3.34149 3.51952 3.43166
# Velocity P-wave (km/s) = 5.95962 6.16924 6.06534
#
# Compressibility (1/GPa) = 0.01935486
#
# Stress axis : x y z
#
# Youngs Moduli (GPa) = 89.00812 88.58019 69.53080
#
# Poissons Ratio (x) = 0.09780 0.10888
# Poissons Ratio (y) = 0.09827 0.42454
# Poissons Ratio (z) = 0.13937 0.54085
#
# Static dielectric constant tensor:
#      x y z
#    x 2.318970 0.000000 0.000000 
#    y 0.000000 2.066430 0.000000 
#    z 0.000000 0.000000 1.955100 
# 
# From -- ./inp_files/21701.got.cif
#   From: 2010.05.17/outbox.cif.g08.bks.cpg/sg56_11_cif.got.tgz:21701.got - 2010.06.03 13:42:01.
