data_PCOD9433243
_publ_section_title
;
Structure prediction by ZEFSAII (Michael W. Deem and Ramdas Pophale) SiO2 
 PCOD9433243
Probable space group: P C C N
;
_chemical_formula_sum "Si O2"
_cell_formula_units_Z 48
_cell_length_a 24.501651
_cell_length_b 9.108230
_cell_length_c 9.085750
_cell_angle_alpha 90.000000
_cell_angle_beta 90.000000
_cell_angle_gamma 90.000000
_cell_volume 2027.636596
_symmetry_space_group_name_H-M "P C C N"
_symmetry_group_IT_number 56
_symmetry_cell_setting 'orthorhombic'
loop_
_space_group_symop_operation_xyz
x,y,z
1/2-x,1/2-y,z
1/2+x,-y,1/2-z
-x,1/2+y,1/2-z
-x,-y,-z
1/2+x,1/2+y,-z
1/2-x,y,1/2+z
x,1/2-y,1/2+z
loop_
_atom_site_type_symbol
_atom_site_label
_atom_site_fract_x
_atom_site_fract_y
_atom_site_fract_z
Si Si1 0.975652 0.401357 0.872999
Si Si2 0.632300 0.141018 0.240836
Si Si3 0.040150 0.651815 0.417583
Si Si4 0.304441 0.654882 0.549608
Si Si5 0.612700 0.608401 0.966802
Si Si6 0.633825 0.912506 0.804469
O O1 0.002290 0.382177 0.712958
O O2 0.918210 0.478796 0.831855
O O3 0.978553 0.240985 0.942317
O O4 0.000000 0.500000 0.000000
O O5 0.582155 0.226206 0.158703
O O6 0.679500 0.135677 0.119320
O O7 0.650504 0.241879 0.375431
O O8 0.628107 0.985151 0.320174
O O9 0.064561 0.499286 0.473667
O O10 0.250000 0.750000 0.564449
O O11 0.313504 0.499741 0.631374
O O12 0.642832 0.614689 0.129337
O O13 0.616858 0.772355 0.902578
#
# Coordination Sequence:
#
# PCOD9433243 Si02
#       6
#     8   8   8   8   8   8
#     4  11  24  41  66  97 135 180 239 288 348 435
#     4  12  19  42  68  95 133 185 234 276 349 422
#     4  11  20  43  68  95 135 188 231 283 355 423
#     4  12  23  39  68 103 136 180 240 285 340 431
#     4  11  22  39  73  96 140 190 221 292 358 414
#     4  11  23  42  64 106 141 185 233 289 367 407
#
# _framework density 23.672881
#
# number of rings (size 3 to 8) (size 9 to 14) (size 15 to 20)
#    0.000    0.667    8.333    1.500    0.000    2.667 
#    0.000    3.333    0.000    4.000    0.000    0.000 
#    0.000    0.000    0.000    0.000    0.000    0.000 
#
# Total GULP energy -267382.808701 kJ/mol
# GULP energy per Si atom -5570.475181 kJ/mol
# Density = 2.361900 g / cm^3
# Si number density = 23.672881 Si / 1000 Ang^3
#
#
#
# Elastic Constant Matrix: (Units=GPa)
#
#
# Indices 1 2 3 4 5 6 
#
# 1 48.4120 34.5039 34.0407 0.0000 0.0000 0.0000
# 2 34.5039 182.3049 69.7785 0.0000 0.0000 0.0000
# 3 34.0407 69.7785 180.9659 0.0000 0.0000 0.0000
# 4 0.0000 0.0000 0.0000 59.8572 0.0000 0.0000
# 5 0.0000 0.0000 0.0000 0.0000 22.6108 0.0000
# 6 0.0000 0.0000 0.0000 0.0000 0.0000 32.1624
#
#
#
# Elastic Compliance Matrix: (Units=1/GPa)
#
#
# Indices 1 2 3 4 5 6 
#
# 1 0.025597 -0.003521 -0.003457 0.000000 0.000000 0.000000
# 2 -0.003521 0.006919 -0.002006 0.000000 0.000000 0.000000
# 3 -0.003457 -0.002006 0.006950 0.000000 0.000000 0.000000
# 4 0.000000 0.000000 0.000000 0.016706 0.000000 0.000000
# 5 0.000000 0.000000 0.000000 0.000000 0.044227 0.000000
# 6 0.000000 0.000000 0.000000 0.000000 0.000000 0.031092
#
#
# Mechanical properties :
#
#
# Convention : Reuss Voigt Hill
#
# Bulk Modulus (GPa) = 46.51719 76.48098 61.49909
# Shear Modulus (GPa) = 31.92343 41.15006 36.53674
#
# Velocity S-wave (km/s) = 3.67621 4.17379 3.93288
# Velocity P-wave (km/s) = 6.14101 7.45687 6.83070
#
# Compressibility (1/GPa) = 0.02149743
#
# Stress axis : x y z
#
# Youngs Moduli (GPa) = 39.06781 144.51973 143.89379
#
# Poissons Ratio (x) = 0.50890 0.49745
# Poissons Ratio (y) = 0.13757 0.28861
# Poissons Ratio (z) = 0.13506 0.28986
#
# Static dielectric constant tensor:
#      x y z
#    x 2.091100 0.000000 0.000000 
#    y 0.000000 1.913500 0.000000 
#    z 0.000000 0.000000 1.951250 
# 
# From -- ./inp_files/5129.got.cif
#   From: 2010.05.17/outbox.cif.g08.bks.cpg/sg56_3_cif.got.tgz:5129.got - 2010.06.03 13:42:01.
