data_PCOD9433765
_publ_section_title
;
Structure prediction by ZEFSAII (Michael W. Deem and Ramdas Pophale) SiO2 
 PCOD9433765
Probable space group: P C C N
;
_chemical_formula_sum "Si O2"
_cell_formula_units_Z 56
_cell_length_a 20.303073
_cell_length_b 13.397587
_cell_length_c 9.124898
_cell_angle_alpha 90.000000
_cell_angle_beta 90.000000
_cell_angle_gamma 90.000000
_cell_volume 2482.083460
_symmetry_space_group_name_H-M "P C C N"
_symmetry_group_IT_number 56
_symmetry_cell_setting 'orthorhombic'
loop_
_space_group_symop_operation_xyz
x,y,z
1/2-x,1/2-y,z
1/2+x,-y,1/2-z
-x,1/2+y,1/2-z
-x,-y,-z
1/2+x,1/2+y,-z
1/2-x,y,1/2+z
x,1/2-y,1/2+z
loop_
_atom_site_type_symbol
_atom_site_label
_atom_site_fract_x
_atom_site_fract_y
_atom_site_fract_z
Si Si1 0.994644 0.266003 0.796062
Si Si2 0.191775 0.320291 0.402105
Si Si3 0.567471 0.953913 0.062639
Si Si4 0.171740 0.887312 0.496720
Si Si5 0.301281 0.950094 0.337127
Si Si6 0.883984 0.784865 0.378749
Si Si7 0.096393 0.814566 0.962035
O O1 0.933347 0.296630 0.698218
O O2 0.036775 0.365362 0.836789
O O3 0.044659 0.207169 0.693678
O O4 0.964996 0.199804 0.927228
O O5 0.250000 0.250000 0.459635
O O6 0.209814 0.433141 0.368926
O O7 0.167980 0.275249 0.249355
O O8 0.130183 0.305429 0.511321
O O9 0.613990 0.049840 0.087963
O O10 0.618272 0.888122 0.965511
O O11 0.500000 0.000000 0.000000
O O12 0.236761 0.895374 0.398445
O O13 0.185140 0.925805 0.664675
O O14 0.145982 0.774370 0.502994
O O15 0.362225 0.914951 0.440092
#
# Coordination Sequence:
#
# PCOD9433765 Si02
#       7
#     8   8   8   8   8   8   8
#     4  12  24  45  75 106 146 199 251 314 386 454
#     4  12  27  48  73 104 151 193 256 316 387 463
#     4  12  22  45  73 103 144 195 246 305 389 448
#     4  12  27  48  75 108 155 202 255 322 384 460
#     4  12  29  47  76 114 147 208 260 313 388 469
#     4  12  24  46  70 106 143 190 245 318 374 458
#     4  12  25  50  71 108 153 198 253 318 385 454
#
# _framework density 22.561691
#
# number of rings (size 3 to 8) (size 9 to 14) (size 15 to 20)
#    0.000    0.000    7.143    1.714    4.000    1.143 
#    2.571    1.429    0.000    0.000    0.000    0.000 
#    0.000    0.000    0.000    0.000    0.000    0.000 
#
# Total GULP energy -312484.960126 kJ/mol
# GULP energy per Si atom -5580.088574 kJ/mol
# Density = 2.251034 g / cm^3
# Si number density = 22.561691 Si / 1000 Ang^3
#
#
#
# Elastic Constant Matrix: (Units=GPa)
#
#
# Indices 1 2 3 4 5 6 
#
# 1 95.5709 8.2270 33.4088 0.0000 0.0000 0.0000
# 2 8.2270 72.7498 17.3241 0.0000 0.0000 0.0000
# 3 33.4088 17.3241 86.4727 0.0000 0.0000 0.0000
# 4 0.0000 0.0000 0.0000 5.0955 0.0000 0.0000
# 5 0.0000 0.0000 0.0000 0.0000 46.7770 0.0000
# 6 0.0000 0.0000 0.0000 0.0000 0.0000 47.7264
#
#
#
# Elastic Compliance Matrix: (Units=1/GPa)
#
#
# Indices 1 2 3 4 5 6 
#
# 1 0.012102 -0.000268 -0.004622 0.000000 0.000000 0.000000
# 2 -0.000268 0.014440 -0.002789 0.000000 0.000000 0.000000
# 3 -0.004622 -0.002789 0.013909 0.000000 0.000000 0.000000
# 4 0.000000 0.000000 0.000000 0.196251 0.000000 0.000000
# 5 0.000000 0.000000 0.000000 0.000000 0.021378 0.000000
# 6 0.000000 0.000000 0.000000 0.000000 0.000000 0.020953
#
#
# Mechanical properties :
#
#
# Convention : Reuss Voigt Hill
#
# Bulk Modulus (GPa) = 39.85245 41.41258 40.63252
# Shear Modulus (GPa) = 16.51492 32.97536 24.74514
#
# Velocity S-wave (km/s) = 2.70847 3.82719 3.31535
# Velocity P-wave (km/s) = 5.24244 6.15832 5.71875
#
# Compressibility (1/GPa) = 0.02509256
#
# Stress axis : x y z
#
# Youngs Moduli (GPa) = 82.62942 69.25062 71.89639
#
# Poissons Ratio (x) = 0.01856 0.33231
# Poissons Ratio (y) = 0.02214 0.20055
# Poissons Ratio (z) = 0.38191 0.19317
#
# Static dielectric constant tensor:
#      x y z
#    x 1.889570 0.000000 0.000000 
#    y 0.000000 1.912190 0.000000 
#    z 0.000000 0.000000 1.883750 
# 
# From -- ./inp_files/4486.got.cif
#   From: 2010.05.17/outbox.cif.g08.bks.cpg/sg56_3_cif.got.tgz:4486.got - 2010.06.03 13:42:01.
