data_PCOD9433849
_publ_section_title
;
Structure prediction by ZEFSAII (Michael W. Deem and Ramdas Pophale) SiO2 
 PCOD9433849
Probable space group: P C C N
;
_chemical_formula_sum "Si O2"
_cell_formula_units_Z 32
_cell_length_a 9.257158
_cell_length_b 11.733706
_cell_length_c 12.599248
_cell_angle_alpha 90.000000
_cell_angle_beta 90.000000
_cell_angle_gamma 90.000000
_cell_volume 1368.540024
_symmetry_space_group_name_H-M "P C C N"
_symmetry_group_IT_number 56
_symmetry_cell_setting 'orthorhombic'
loop_
_space_group_symop_operation_xyz
x,y,z
1/2-x,1/2-y,z
1/2+x,-y,1/2-z
-x,1/2+y,1/2-z
-x,-y,-z
1/2+x,1/2+y,-z
1/2-x,y,1/2+z
x,1/2-y,1/2+z
loop_
_atom_site_type_symbol
_atom_site_label
_atom_site_fract_x
_atom_site_fract_y
_atom_site_fract_z
Si Si1 0.422070 0.973492 0.114924
Si Si2 0.998837 0.631543 0.464603
Si Si3 0.647989 0.574542 0.768222
Si Si4 0.250000 0.250000 0.403758
Si Si5 0.250000 0.750000 0.569993
O O1 0.541086 0.009429 0.203996
O O2 0.363301 0.840921 0.123032
O O3 0.274453 0.037007 0.151019
O O4 0.500000 0.000000 0.000000
O O5 0.154871 0.672113 0.495385
O O6 0.000000 0.500000 0.500000
O O7 0.961371 0.643279 0.342234
O O8 0.881595 0.706954 0.525750
O O9 0.711989 0.646882 0.673292
#
# Coordination Sequence:
#
# PCOD9433849 Si02
#       5
#     8   8   8   4   4
#     4  12  29  52  79 122 164 214 284 343 407 511
#     4  12  26  51  75 110 160 207 267 337 402 501
#     4  12  27  47  81 109 158 213 271 331 423 475
#     4  12  26  48  76 116 152 208 270 338 406 484
#     4  12  28  50  76 110 168 202 266 342 412 470
#
# _framework density 23.382581999999999
#
# number of rings (size 3 to 8) (size 9 to 14) (size 15 to 20)
#    0.000    0.000    5.000    3.750    7.000    1.000 
#    0.000    0.000    0.000    0.000    0.000    0.000 
#    0.000    0.000    0.000    0.000    0.000    0.000 
#
# Total GULP energy -178529.695855 kJ/mol
# GULP energy per Si atom -5579.052995 kJ/mol
# Density = 2.332936 g / cm^3
# Si number density = 23.382582 Si / 1000 Ang^3
#
#
#
# Elastic Constant Matrix: (Units=GPa)
#
#
# Indices 1 2 3 4 5 6 
#
# 1 141.8696 33.5118 59.9290 0.0000 0.0000 0.0000
# 2 33.5118 71.3800 5.5908 0.0000 0.0000 0.0000
# 3 59.9290 5.5908 145.1114 0.0000 0.0000 0.0000
# 4 0.0000 0.0000 0.0000 25.7221 0.0000 0.0000
# 5 0.0000 0.0000 0.0000 0.0000 30.2279 0.0000
# 6 0.0000 0.0000 0.0000 0.0000 0.0000 45.3332
#
#
#
# Elastic Compliance Matrix: (Units=1/GPa)
#
#
# Indices 1 2 3 4 5 6 
#
# 1 0.009668 -0.004239 -0.003829 0.000000 0.000000 0.000000
# 2 -0.004239 0.015911 0.001138 0.000000 0.000000 0.000000
# 3 -0.003829 0.001138 0.008429 0.000000 0.000000 0.000000
# 4 0.000000 0.000000 0.000000 0.038877 0.000000 0.000000
# 5 0.000000 0.000000 0.000000 0.000000 0.033082 0.000000
# 6 0.000000 0.000000 0.000000 0.000000 0.000000 0.022059
#
#
# Mechanical properties :
#
#
# Convention : Reuss Voigt Hill
#
# Bulk Modulus (GPa) = 49.63790 61.82491 55.73140
# Shear Modulus (GPa) = 33.64708 37.54526 35.59617
#
# Velocity S-wave (km/s) = 3.79750 4.01146 3.90595
# Velocity P-wave (km/s) = 6.36417 6.92486 6.65043
#
# Compressibility (1/GPa) = 0.02014590
#
# Stress axis : x y z
#
# Youngs Moduli (GPa) = 103.43849 62.85157 118.63998
#
# Poissons Ratio (x) = 0.26642 0.45430
# Poissons Ratio (y) = 0.43846 -0.13496
# Poissons Ratio (z) = 0.39609 -0.07150
#
# Static dielectric constant tensor:
#      x y z
#    x 1.915470 0.000000 0.000000 
#    y 0.000000 1.948110 0.000000 
#    z 0.000000 0.000000 1.834140 
# 
# From -- ./inp_files/6013.got.cif
#   From: 2010.05.17/outbox.cif.g08.bks.cpg/sg56_4_cif.got.tgz:6013.got - 2010.06.03 13:42:01.
