data_PCOD9433401
_publ_section_title
;
Structure prediction by ZEFSAII (Michael W. Deem and Ramdas Pophale) SiO2 
 PCOD9433401
Probable space group: P C C N
;
_chemical_formula_sum "Si O2"
_cell_formula_units_Z 40
_cell_length_a 10.756576
_cell_length_b 9.947899
_cell_length_c 14.430961
_cell_angle_alpha 90.000000
_cell_angle_beta 90.000000
_cell_angle_gamma 90.000000
_cell_volume 1544.189768
_symmetry_space_group_name_H-M "P C C N"
_symmetry_group_IT_number 56
_symmetry_cell_setting 'orthorhombic'
loop_
_space_group_symop_operation_xyz
x,y,z
1/2-x,1/2-y,z
1/2+x,-y,1/2-z
-x,1/2+y,1/2-z
-x,-y,-z
1/2+x,1/2+y,-z
1/2-x,y,1/2+z
x,1/2-y,1/2+z
loop_
_atom_site_type_symbol
_atom_site_label
_atom_site_fract_x
_atom_site_fract_y
_atom_site_fract_z
Si Si1 0.852779 0.833229 0.396238
Si Si2 0.319008 0.427001 0.405102
Si Si3 0.110207 0.787780 0.459904
Si Si4 0.968768 0.234952 0.834680
Si Si5 0.098596 0.982567 0.771379
O O1 0.750000 0.750000 0.341834
O O2 0.876667 0.958074 0.330209
O O3 0.974698 0.744123 0.420828
O O4 0.787463 0.878854 0.491580
O O5 0.400425 0.556373 0.432054
O O6 0.399616 0.310604 0.356484
O O7 0.207693 0.479701 0.342196
O O8 0.250000 0.750000 0.430021
O O9 0.103055 0.751666 0.568698
O O10 0.986104 0.079052 0.807276
O O11 0.914682 0.324680 0.750807
#
# Coordination Sequence:
#
# PCOD9433401 Si02
#       5
#     8   8   8   8   8
#     4  11  22  46  73 101 145 199 248 306 376 452
#     4  11  22  45  70  99 147 202 247 303 382 457
#     4  11  24  46  71 108 154 197 244 324 387 442
#     4  11  24  47  69 108 149 192 252 317 372 458
#     4  12  25  43  77 108 146 199 258 309 378 463
#
# _framework density 25.903552000000001
#
# number of rings (size 3 to 8) (size 9 to 14) (size 15 to 20)
#    0.000    0.800    4.000    5.400    2.800    1.600 
#    3.600    2.000    0.000    0.000    0.000    0.000 
#    0.000    0.000    0.000    0.000    0.000    0.000 
#
# Total GULP energy -223457.267424 kJ/mol
# GULP energy per Si atom -5586.431686 kJ/mol
# Density = 2.584459 g / cm^3
# Si number density = 25.903552 Si / 1000 Ang^3
#
#
#
# Elastic Constant Matrix: (Units=GPa)
#
#
# Indices 1 2 3 4 5 6 
#
# 1 112.6948 20.9527 44.3021 0.0000 0.0000 0.0000
# 2 20.9527 44.3325 1.6593 0.0000 0.0000 0.0000
# 3 44.3021 1.6593 146.9986 0.0000 0.0000 0.0000
# 4 0.0000 0.0000 0.0000 34.4816 0.0000 0.0000
# 5 0.0000 0.0000 0.0000 0.0000 29.7542 0.0000
# 6 0.0000 0.0000 0.0000 0.0000 0.0000 26.4136
#
#
#
# Elastic Compliance Matrix: (Units=1/GPa)
#
#
# Indices 1 2 3 4 5 6 
#
# 1 0.011123 -0.005134 -0.003294 0.000000 0.000000 0.000000
# 2 -0.005134 0.024936 0.001266 0.000000 0.000000 0.000000
# 3 -0.003294 0.001266 0.007781 0.000000 0.000000 0.000000
# 4 0.000000 0.000000 0.000000 0.029001 0.000000 0.000000
# 5 0.000000 0.000000 0.000000 0.000000 0.033609 0.000000
# 6 0.000000 0.000000 0.000000 0.000000 0.000000 0.037859
#
#
# Mechanical properties :
#
#
# Convention : Reuss Voigt Hill
#
# Bulk Modulus (GPa) = 33.88046 48.65045 41.26546
# Shear Modulus (GPa) = 29.67848 33.93733 31.80791
#
# Velocity S-wave (km/s) = 3.38854 3.62352 3.50799
# Velocity P-wave (km/s) = 5.33080 6.02732 5.68973
#
# Compressibility (1/GPa) = 0.02951553
#
# Stress axis : x y z
#
# Youngs Moduli (GPa) = 89.90345 40.10303 128.51280
#
# Poissons Ratio (x) = 0.20588 0.42336
# Poissons Ratio (y) = 0.46154 -0.16266
# Poissons Ratio (z) = 0.29617 -0.05076
#
# Static dielectric constant tensor:
#      x y z
#    x 2.170390 0.000000 0.000000 
#    y 0.000000 2.416880 0.000000 
#    z 0.000000 0.000000 1.988220 
# 
# From -- ./inp_files/11392.got.cif
#   From: 2010.05.17/outbox.cif.g08.bks.cpg/sg56_6_cif.got.tgz:11392.got - 2010.06.03 13:42:01.
