data_PCOD9433041
_publ_section_title
;
Structure prediction by ZEFSAII (Michael W. Deem and Ramdas Pophale) SiO2 
 PCOD9433041
Probable space group: P C C N
;
_chemical_formula_sum "Si O2"
_cell_formula_units_Z 24
_cell_length_a 10.003179
_cell_length_b 9.226477
_cell_length_c 10.149872
_cell_angle_alpha 90.000000
_cell_angle_beta 90.000000
_cell_angle_gamma 90.000000
_cell_volume 936.773311
_symmetry_space_group_name_H-M "P C C N"
_symmetry_group_IT_number 56
_symmetry_cell_setting 'orthorhombic'
loop_
_space_group_symop_operation_xyz
x,y,z
1/2-x,1/2-y,z
1/2+x,-y,1/2-z
-x,1/2+y,1/2-z
-x,-y,-z
1/2+x,1/2+y,-z
1/2-x,y,1/2+z
x,1/2-y,1/2+z
loop_
_atom_site_type_symbol
_atom_site_label
_atom_site_fract_x
_atom_site_fract_y
_atom_site_fract_z
Si Si1 0.678967 0.378753 0.781184
Si Si2 0.965390 0.833875 0.035553
Si Si3 0.398566 0.389809 0.687843
O O1 0.750000 0.250000 0.700040
O O2 0.605309 0.288629 0.897492
O O3 0.552651 0.448321 0.702866
O O4 0.782272 0.495667 0.834823
O O5 0.872079 0.836556 0.163386
O O6 0.912196 0.736695 0.918453
O O7 0.000000 0.000000 0.000000
#
# Coordination Sequence:
#
# PCOD9433041 Si02
#       3
#     8   8   8
#     4  10  24  47  79 112 162 206 277 331 415 487
#     4  10  24  47  78 117 159 216 277 332 422 491
#     4  10  24  50  82 112 162 216 268 346 412 494
#
# _framework density 25.619862999999999
#
# number of rings (size 3 to 8) (size 9 to 14) (size 15 to 20)
#    2.000    0.000    0.000    2.000    0.000    6.667 
#    0.000    6.667    0.000    0.000    0.000    0.000 
#    0.000    0.000    0.000    0.000    0.000    0.000 
#
# Total GULP energy -133840.429509 kJ/mol
# GULP energy per Si atom -5576.684563 kJ/mol
# Density = 2.556155 g / cm^3
# Si number density = 25.619863 Si / 1000 Ang^3
#
#
#
# Elastic Constant Matrix: (Units=GPa)
#
#
# Indices 1 2 3 4 5 6 
#
# 1 143.4225 63.0717 -21.3752 0.0000 0.0000 0.0000
# 2 63.0717 120.4181 40.4183 0.0000 0.0000 0.0000
# 3 -21.3752 40.4183 106.1213 0.0000 0.0000 0.0000
# 4 0.0000 0.0000 0.0000 36.5968 0.0000 0.0000
# 5 0.0000 0.0000 0.0000 0.0000 5.8827 0.0000
# 6 0.0000 0.0000 0.0000 0.0000 0.0000 64.9018
#
#
#
# Elastic Compliance Matrix: (Units=1/GPa)
#
#
# Indices 1 2 3 4 5 6 
#
# 1 0.011010 -0.007465 0.005061 0.000000 0.000000 0.000000
# 2 -0.007465 0.014583 -0.007058 0.000000 0.000000 0.000000
# 3 0.005061 -0.007058 0.013131 0.000000 0.000000 0.000000
# 4 0.000000 0.000000 0.000000 0.027325 0.000000 0.000000
# 5 0.000000 0.000000 0.000000 0.000000 0.169991 0.000000
# 6 0.000000 0.000000 0.000000 0.000000 0.000000 0.015408
#
#
# Mechanical properties :
#
#
# Convention : Reuss Voigt Hill
#
# Bulk Modulus (GPa) = 50.50764 59.35459 54.93112
# Shear Modulus (GPa) = 18.05236 40.66607 29.35922
#
# Velocity S-wave (km/s) = 2.65735 3.98840 3.38887
# Velocity P-wave (km/s) = 5.40115 6.66539 6.06630
#
# Compressibility (1/GPa) = 0.01979898
#
# Stress axis : x y z
#
# Youngs Moduli (GPa) = 90.83025 68.57075 76.15725
#
# Poissons Ratio (x) = 0.51189 -0.38542
# Poissons Ratio (y) = 0.67806 0.53752
# Poissons Ratio (z) = -0.45968 0.48398
#
# Static dielectric constant tensor:
#      x y z
#    x 2.214150 0.000000 0.000000 
#    y 0.000000 2.101400 0.000000 
#    z 0.000000 0.000000 2.084960 
# 
# From -- ./inp_files/5828.got.cif
#   From: 2010.05.17/outbox.cif.g08.bks.cpg/sg56_3_cif.got.tgz:5828.got - 2010.06.03 13:42:01.
