data_PCOD9433410
_publ_section_title
;
Structure prediction by ZEFSAII (Michael W. Deem and Ramdas Pophale) SiO2 
 PCOD9433410
Probable space group: P C C N
;
_chemical_formula_sum "Si O2"
_cell_formula_units_Z 40
_cell_length_a 8.295195
_cell_length_b 14.095302
_cell_length_c 13.776202
_cell_angle_alpha 90.000000
_cell_angle_beta 90.000000
_cell_angle_gamma 90.000000
_cell_volume 1610.758706
_symmetry_space_group_name_H-M "P C C N"
_symmetry_group_IT_number 56
_symmetry_cell_setting 'orthorhombic'
loop_
_space_group_symop_operation_xyz
x,y,z
1/2-x,1/2-y,z
1/2+x,-y,1/2-z
-x,1/2+y,1/2-z
-x,-y,-z
1/2+x,1/2+y,-z
1/2-x,y,1/2+z
x,1/2-y,1/2+z
loop_
_atom_site_type_symbol
_atom_site_label
_atom_site_fract_x
_atom_site_fract_y
_atom_site_fract_z
Si Si1 0.536407 0.935310 0.404261
Si Si2 0.244329 0.502534 0.247133
Si Si3 0.087955 0.689016 0.774547
Si Si4 0.625589 0.679351 0.647223
Si Si5 0.564896 0.226837 0.023342
O O1 0.715663 0.951269 0.357636
O O2 0.512373 0.827814 0.443889
O O3 0.500000 0.000000 0.500000
O O4 0.406779 0.953824 0.312395
O O5 0.361065 0.591979 0.226355
O O6 0.302594 0.418122 0.317512
O O7 0.250000 0.750000 0.775250
O O8 0.046106 0.661991 0.883246
O O9 0.947550 0.751740 0.729489
O O10 0.750000 0.750000 0.595572
O O11 0.487712 0.668859 0.569669
O O12 0.750000 0.250000 0.006515
#
# Coordination Sequence:
#
# PCOD9433410 Si02
#       5
#     8   8   8   8   8
#     4  12  26  49  74 112 148 194 251 310 372 447
#     4  12  24  48  75 108 144 196 245 306 376 443
#     4  11  22  46  72  97 139 191 245 289 364 454
#     4  12  26  43  70 110 147 185 246 317 374 421
#     4  11  23  48  71  96 145 195 242 296 364 450
#
# _framework density 24.833017999999999
#
# number of rings (size 3 to 8) (size 9 to 14) (size 15 to 20)
#    0.000    0.400    6.000    4.200    0.000    3.200 
#   10.800    0.000    0.000    0.000    0.000    0.000 
#    0.000    0.000    0.000    0.000    0.000    0.000 
#
# Total GULP energy -222888.241142 kJ/mol
# GULP energy per Si atom -5572.206029 kJ/mol
# Density = 2.477650 g / cm^3
# Si number density = 24.833018 Si / 1000 Ang^3
#
#
#
# Elastic Constant Matrix: (Units=GPa)
#
#
# Indices 1 2 3 4 5 6 
#
# 1 51.1928 23.9958 11.3240 0.0000 0.0000 0.0000
# 2 23.9958 93.0817 -32.8588 0.0000 0.0000 0.0000
# 3 11.3240 -32.8588 57.0509 0.0000 0.0000 0.0000
# 4 0.0000 0.0000 0.0000 -24.6008 0.0000 0.0000
# 5 0.0000 0.0000 0.0000 0.0000 22.6773 0.0000
# 6 0.0000 0.0000 0.0000 0.0000 0.0000 42.1885
#
#
#
# Elastic Compliance Matrix: (Units=1/GPa)
#
#
# Indices 1 2 3 4 5 6 
#
# 1 0.027483 -0.011310 -0.011969 0.000000 0.000000 0.000000
# 2 -0.011310 0.018140 0.012693 0.000000 0.000000 0.000000
# 3 -0.011969 0.012693 0.027214 0.000000 0.000000 0.000000
# 4 0.000000 0.000000 0.000000 -0.040649 0.000000 0.000000
# 5 0.000000 0.000000 0.000000 0.000000 0.044097 0.000000
# 6 0.000000 0.000000 0.000000 0.000000 0.000000 0.023703
#
#
# Mechanical properties :
#
#
# Convention : Reuss Voigt Hill
#
# Bulk Modulus (GPa) = 19.35623 22.91640 21.13631
# Shear Modulus (GPa) = 36.13149 21.31062 28.72106
#
# Velocity S-wave (km/s) = 3.81856 2.93261 3.40452
# Velocity P-wave (km/s) = 5.22047 4.55139 4.89737
#
# Compressibility (1/GPa) = 0.05166296
#
# Stress axis : x y z
#
# Youngs Moduli (GPa) = 36.38586 55.12807 36.74530
#
# Poissons Ratio (x) = 0.62352 0.43982
# Poissons Ratio (y) = 0.41153 -0.46639
# Poissons Ratio (z) = 0.43552 -0.69972
#
# Static dielectric constant tensor:
#      x y z
#    x 2.143790 0.000000 0.000000 
#    y 0.000000 1.824380 0.000000 
#    z 0.000000 0.000000 2.002580 
# 
# From -- ./inp_files/10392.got.cif
#   From: 2010.05.17/outbox.cif.g08.bks.cpg/sg56_6_cif.got.tgz:10392.got - 2010.06.03 13:42:01.
