data_PCOD9433928
_publ_section_title
;
Structure prediction by ZEFSAII (Michael W. Deem and Ramdas Pophale) SiO2 
 PCOD9433928
Probable space group: P C C N
;
_chemical_formula_sum "Si O2"
_cell_formula_units_Z 64
_cell_length_a 18.000000
_cell_length_b 15.000000
_cell_length_c 12.000000
_cell_angle_alpha 90.000000
_cell_angle_beta 90.000000
_cell_angle_gamma 90.000000
_cell_volume 3240.000000
_symmetry_space_group_name_H-M "P C C N"
_symmetry_group_IT_number 56
_symmetry_cell_setting 'orthorhombic'
loop_
_space_group_symop_operation_xyz
x,y,z
1/2-x,1/2-y,z
1/2+x,-y,1/2-z
-x,1/2+y,1/2-z
-x,-y,-z
1/2+x,1/2+y,-z
1/2-x,y,1/2+z
x,1/2-y,1/2+z
loop_
_atom_site_type_symbol
_atom_site_label
_atom_site_fract_x
_atom_site_fract_y
_atom_site_fract_z
Si Si1 0.469114 0.857105 0.003904
Si Si2 0.893078 0.975949 0.434847
Si Si3 0.310705 0.594253 0.906232
Si Si4 0.692901 0.398213 0.813364
Si Si5 0.333796 0.088883 0.299036
Si Si6 0.661746 0.571114 0.683231
Si Si7 0.903180 0.240735 0.688548
Si Si8 0.944408 0.741697 0.182162
O O1 0.533624 0.914815 0.945494
O O2 0.410180 0.827262 0.913602
O O3 0.511118 0.777761 0.067075
O O4 0.424171 0.924282 0.084317
O O5 0.846497 0.944474 0.328595
O O6 0.853496 0.966118 0.556454
O O7 0.251827 0.603086 0.796701
O O8 0.344107 0.495536 0.882633
O O9 0.366896 0.672135 0.867757
O O10 0.291691 0.601228 0.046034
O O11 0.654168 0.492251 0.776097
O O12 0.644241 0.309631 0.785289
O O13 0.245903 0.109257 0.311462
O O14 0.390269 0.171772 0.318685
O O15 0.604906 0.652696 0.701090
O O16 0.987952 0.252788 0.730213
#
# Coordination Sequence:
#
# PCOD9433928 Si02
#       8
#     8   8   8   8   8   8   8   8
#     4  10  21  39  70  93 132 180 234 280 345 424
#     4  10  20  43  68  97 129 186 236 279 349 421
#     4  11  28  44  72 106 141 190 231 300 358 426
#     4  11  26  48  72 104 143 182 238 291 360 427
#     4  11  24  43  68  99 143 180 238 291 351 421
#     4  10  24  42  71  97 138 185 236 290 352 421
#     4  12  23  43  69 101 141 180 232 292 356 422
#     4  11  24  42  64 106 136 188 232 291 352 427
#
# _framework density 19.753086
#
# number of rings (size 3 to 8) (size 9 to 14) (size 15 to 20)
#    0.000    1.250    2.500    2.250    7.000    5.000 
#    0.000    3.125    0.000    0.000    0.000    0.000 
#    0.000    0.000    0.000    0.000    0.000    0.000 
#
# Total GULP energy -356304.793573 kJ/mol
# GULP energy per Si atom -5567.262400 kJ/mol
# Density = 1.970813 g / cm^3
# Si number density = 19.753086 Si / 1000 Ang^3
#
#
#
# Elastic Constant Matrix: (Units=GPa)
#
#
# Indices 1 2 3 4 5 6 
#
# 1 89.0050 47.8660 35.3957 0.0000 0.0000 0.0000
# 2 47.8660 100.4181 46.1698 0.0000 0.0000 0.0000
# 3 35.3957 46.1698 124.6922 0.0000 0.0000 0.0000
# 4 0.0000 0.0000 0.0000 32.9155 0.0000 0.0000
# 5 0.0000 0.0000 0.0000 0.0000 41.3681 0.0000
# 6 0.0000 0.0000 0.0000 0.0000 0.0000 35.9495
#
#
#
# Elastic Compliance Matrix: (Units=1/GPa)
#
#
# Indices 1 2 3 4 5 6 
#
# 1 0.015514 -0.006472 -0.002008 0.000000 0.000000 0.000000
# 2 -0.006472 0.014702 -0.003606 0.000000 0.000000 0.000000
# 3 -0.002008 -0.003606 0.009925 0.000000 0.000000 0.000000
# 4 0.000000 0.000000 0.000000 0.030381 0.000000 0.000000
# 5 0.000000 0.000000 0.000000 0.000000 0.024173 0.000000
# 6 0.000000 0.000000 0.000000 0.000000 0.000000 0.027817
#
#
# Mechanical properties :
#
#
# Convention : Reuss Voigt Hill
#
# Bulk Modulus (GPa) = 62.62216 63.66424 63.14320
# Shear Modulus (GPa) = 32.89333 34.35889 33.62611
#
# Velocity S-wave (km/s) = 4.08514 4.17516 4.13040
# Velocity P-wave (km/s) = 7.35000 7.45269 7.40152
#
# Compressibility (1/GPa) = 0.01596879
#
# Stress axis : x y z
#
# Youngs Moduli (GPa) = 64.45648 68.02017 100.75647
#
# Poissons Ratio (x) = 0.44024 0.20227
# Poissons Ratio (y) = 0.41717 0.36336
# Poissons Ratio (z) = 0.12940 0.24530
#
# Static dielectric constant tensor:
#      x y z
#    x 1.744430 0.000000 0.000000 
#    y 0.000000 1.739360 0.000000 
#    z 0.000000 0.000000 1.753350 
# 
# From -- ./inp_files/8415.got.cif
#   From: 2010.05.17/outbox.ucp.g08.bks.cvg/sg56_5_cif.got.tgz:8415.got - 2010.06.11 16:37:52.
