data_PCOD9433521
_publ_section_title
;
Structure prediction by ZEFSAII (Michael W. Deem and Ramdas Pophale) SiO2 
 PCOD9433521
Probable space group: P C C N
;
_chemical_formula_sum "Si O2"
_cell_formula_units_Z 48
_cell_length_a 16.867874
_cell_length_b 9.655370
_cell_length_c 13.712986
_cell_angle_alpha 90.000000
_cell_angle_beta 90.000000
_cell_angle_gamma 90.000000
_cell_volume 2233.373207
_symmetry_space_group_name_H-M "P C C N"
_symmetry_group_IT_number 56
_symmetry_cell_setting 'orthorhombic'
loop_
_space_group_symop_operation_xyz
x,y,z
1/2-x,1/2-y,z
1/2+x,-y,1/2-z
-x,1/2+y,1/2-z
-x,-y,-z
1/2+x,1/2+y,-z
1/2-x,y,1/2+z
x,1/2-y,1/2+z
loop_
_atom_site_type_symbol
_atom_site_label
_atom_site_fract_x
_atom_site_fract_y
_atom_site_fract_z
Si Si1 0.669411 0.834119 0.992322
Si Si2 0.100103 0.652559 0.489329
Si Si3 0.575983 0.981202 0.165078
Si Si4 0.100023 0.928344 0.616354
Si Si5 0.433024 0.395709 0.115011
Si Si6 0.837682 0.225005 0.198681
O O1 0.750000 0.750000 0.010821
O O2 0.614559 0.728125 0.933334
O O3 0.668100 0.969388 0.922900
O O4 0.627420 0.889403 0.090420
O O5 0.094237 0.799226 0.542747
O O6 0.104185 0.536330 0.571433
O O7 0.168031 0.654105 0.407821
O O8 0.022021 0.618975 0.425459
O O9 0.487013 0.997551 0.122774
O O10 0.570102 0.903920 0.268853
O O11 0.615822 0.130773 0.182541
O O12 0.119270 0.870205 0.722800
O O13 0.750000 0.250000 0.237280
#
# Coordination Sequence:
#
# PCOD9433521 Si02
#       6
#     8   8   8   8   8   8
#     4  12  29  45  72 108 153 189 236 312 376 427
#     4  11  23  46  74 107 141 190 248 299 358 438
#     4  12  25  48  76 106 146 193 252 297 363 442
#     4  12  25  48  81 105 143 199 251 295 364 447
#     4  11  25  43  74 111 144 186 246 303 361 433
#     4  12  28  45  74 109 145 191 243 305 365 436
#
# _framework density 21.492155
#
# number of rings (size 3 to 8) (size 9 to 14) (size 15 to 20)
#    0.000    0.333    6.667    1.500    4.667    2.667 
#    0.000    0.000    0.000    0.000    0.000    0.000 
#    0.000    0.000    0.000    0.000    0.000    0.000 
#
# Total GULP energy -268557.580121 kJ/mol
# GULP energy per Si atom -5594.949586 kJ/mol
# Density = 2.144324 g / cm^3
# Si number density = 21.492155 Si / 1000 Ang^3
#
#
#
# Elastic Constant Matrix: (Units=GPa)
#
#
# Indices 1 2 3 4 5 6 
#
# 1 74.9087 35.9244 23.1408 0.0000 0.0000 0.0000
# 2 35.9244 111.0410 29.8366 0.0000 0.0000 0.0000
# 3 23.1408 29.8366 128.5542 0.0000 0.0000 0.0000
# 4 0.0000 0.0000 0.0000 40.7295 0.0000 0.0000
# 5 0.0000 0.0000 0.0000 0.0000 21.1683 0.0000
# 6 0.0000 0.0000 0.0000 0.0000 0.0000 29.7193
#
#
#
# Elastic Compliance Matrix: (Units=1/GPa)
#
#
# Indices 1 2 3 4 5 6 
#
# 1 0.016187 -0.004750 -0.001811 0.000000 0.000000 0.000000
# 2 -0.004750 0.010999 -0.001698 0.000000 0.000000 0.000000
# 3 -0.001811 -0.001698 0.008499 0.000000 0.000000 0.000000
# 4 0.000000 0.000000 0.000000 0.024552 0.000000 0.000000
# 5 0.000000 0.000000 0.000000 0.000000 0.047241 0.000000
# 6 0.000000 0.000000 0.000000 0.000000 0.000000 0.033648
#
#
# Mechanical properties :
#
#
# Convention : Reuss Voigt Hill
#
# Bulk Modulus (GPa) = 52.17479 54.70085 53.43782
# Shear Modulus (GPa) = 30.48168 33.36355 31.92261
#
# Velocity S-wave (km/s) = 3.77008 3.94427 3.85816
# Velocity P-wave (km/s) = 6.57877 6.80072 6.69067
#
# Compressibility (1/GPa) = 0.01916634
#
# Stress axis : x y z
#
# Youngs Moduli (GPa) = 61.77705 90.92026 117.66248
#
# Poissons Ratio (x) = 0.43189 0.21313
# Poissons Ratio (y) = 0.29346 0.19975
# Poissons Ratio (z) = 0.11190 0.15435
#
# Static dielectric constant tensor:
#      x y z
#    x 1.805110 0.000000 0.000000 
#    y 0.000000 1.810470 0.000000 
#    z 0.000000 0.000000 1.765730 
# 
# From -- ./inp_files/12685.got.cif
#   From: 2010.05.17/outbox.cif.g08.bks.cpg/sg56_7_cif.got.tgz:12685.got - 2010.06.03 13:42:01.
