data_PCOD9433834
_publ_section_title
;
Structure prediction by ZEFSAII (Michael W. Deem and Ramdas Pophale) SiO2 
 PCOD9433834
Probable space group: P C C N
;
_chemical_formula_sum "Si O2"
_cell_formula_units_Z 32
_cell_length_a 13.187608
_cell_length_b 5.186357
_cell_length_c 19.188068
_cell_angle_alpha 90.000000
_cell_angle_beta 90.000000
_cell_angle_gamma 90.000000
_cell_volume 1312.380250
_symmetry_space_group_name_H-M "P C C N"
_symmetry_group_IT_number 56
_symmetry_cell_setting 'orthorhombic'
loop_
_space_group_symop_operation_xyz
x,y,z
1/2-x,1/2-y,z
1/2+x,-y,1/2-z
-x,1/2+y,1/2-z
-x,-y,-z
1/2+x,1/2+y,-z
1/2-x,y,1/2+z
x,1/2-y,1/2+z
loop_
_atom_site_type_symbol
_atom_site_label
_atom_site_fract_x
_atom_site_fract_y
_atom_site_fract_z
Si Si1 0.570703 0.744943 0.509757
Si Si2 0.750000 0.750000 0.900185
Si Si3 0.750000 0.250000 0.748484
Si Si4 0.092359 0.359137 0.197491
Si Si5 0.895343 0.600565 0.161563
O O1 0.500000 0.500000 0.500000
O O2 0.662752 0.686377 0.456678
O O3 0.615147 0.739753 0.588328
O O4 0.500000 0.000000 0.500000
O O5 0.834429 0.842147 0.842108
O O6 0.836779 0.387898 0.794764
O O7 0.700563 0.458464 0.695422
O O8 0.068159 0.286227 0.276354
O O9 0.988918 0.400956 0.156684
#
# Coordination Sequence:
#
# PCOD9433834 Si02
#       5
#     8   4   4   8   8
#     4  12  32  53  80 115 165 213 267 329 409 486
#     4  12  28  52  76 120 160 212 266 332 412 478
#     4  12  26  44  82 112 160 202 274 338 402 468
#     4  12  26  46  79 115 154 212 271 337 393 488
#     4  12  27  48  78 117 158 213 274 336 404 487
#
# _framework density 24.383177
#
# number of rings (size 3 to 8) (size 9 to 14) (size 15 to 20)
#    0.000    0.000    7.500    0.000   14.000    1.000 
#    0.000    0.000    0.000    0.000    0.000    0.000 
#    0.000    0.000    0.000    0.000    0.000    0.000 
#
# Total GULP energy -178264.146457 kJ/mol
# GULP energy per Si atom -5570.754577 kJ/mol
# Density = 2.432768 g / cm^3
# Si number density = 24.383177 Si / 1000 Ang^3
#
#
#
# Elastic Constant Matrix: (Units=GPa)
#
#
# Indices 1 2 3 4 5 6 
#
# 1 130.4744 20.4738 13.8446 0.0000 0.0000 0.0000
# 2 20.4738 98.4103 -1.9550 0.0000 0.0000 0.0000
# 3 13.8446 -1.9550 157.0543 0.0000 0.0000 0.0000
# 4 0.0000 0.0000 0.0000 15.8472 0.0000 0.0000
# 5 0.0000 0.0000 0.0000 0.0000 56.3751 0.0000
# 6 0.0000 0.0000 0.0000 0.0000 0.0000 27.7971
#
#
#
# Elastic Compliance Matrix: (Units=1/GPa)
#
#
# Indices 1 2 3 4 5 6 
#
# 1 0.008005 -0.001680 -0.000727 0.000000 0.000000 0.000000
# 2 -0.001680 0.010517 0.000279 0.000000 0.000000 0.000000
# 3 -0.000727 0.000279 0.006435 0.000000 0.000000 0.000000
# 4 0.000000 0.000000 0.000000 0.063103 0.000000 0.000000
# 5 0.000000 0.000000 0.000000 0.000000 0.017738 0.000000
# 6 0.000000 0.000000 0.000000 0.000000 0.000000 0.035975
#
#
# Mechanical properties :
#
#
# Convention : Reuss Voigt Hill
#
# Bulk Modulus (GPa) = 48.30567 50.07397 49.18982
# Shear Modulus (GPa) = 32.69520 43.57559 38.13539
#
# Velocity S-wave (km/s) = 3.66579 4.23202 3.95904
# Velocity P-wave (km/s) = 6.14585 6.66789 6.41219
#
# Compressibility (1/GPa) = 0.02070151
#
# Stress axis : x y z
#
# Youngs Moduli (GPa) = 124.92144 95.08807 155.40626
#
# Poissons Ratio (x) = 0.15973 0.11291
# Poissons Ratio (y) = 0.20985 -0.04336
# Poissons Ratio (z) = 0.09076 -0.02653
#
# Static dielectric constant tensor:
#      x y z
#    x 2.744920 0.000000 0.000000 
#    y 0.000000 2.035200 0.000000 
#    z 0.000000 0.000000 2.009750 
# 
# From -- ./inp_files/13730.got.cif
#   From: 2010.05.17/outbox.cif.g08.bks.cpg/sg56_7_cif.got.tgz:13730.got - 2010.06.03 13:42:01.
