data_PCOD9433696
_publ_section_title
;
Structure prediction by ZEFSAII (Michael W. Deem and Ramdas Pophale) SiO2 
 PCOD9433696
Probable space group: P C C N
;
_chemical_formula_sum "Si O2"
_cell_formula_units_Z 24
_cell_length_a 7.130343
_cell_length_b 9.019197
_cell_length_c 13.799130
_cell_angle_alpha 90.000000
_cell_angle_beta 90.000000
_cell_angle_gamma 90.000000
_cell_volume 887.421611
_symmetry_space_group_name_H-M "P C C N"
_symmetry_group_IT_number 56
_symmetry_cell_setting 'orthorhombic'
loop_
_space_group_symop_operation_xyz
x,y,z
1/2-x,1/2-y,z
1/2+x,-y,1/2-z
-x,1/2+y,1/2-z
-x,-y,-z
1/2+x,1/2+y,-z
1/2-x,y,1/2+z
x,1/2-y,1/2+z
loop_
_atom_site_type_symbol
_atom_site_label
_atom_site_fract_x
_atom_site_fract_y
_atom_site_fract_z
Si Si1 0.029464 0.277456 0.695348
Si Si2 0.992286 0.389072 0.382543
Si Si3 0.186081 0.556728 0.951951
O O1 0.250000 0.250000 0.681542
O O2 0.015997 0.450647 0.671327
O O3 0.901911 0.168776 0.628526
O O4 0.970654 0.238977 0.804547
O O5 0.842728 0.384724 0.469983
O O6 0.205058 0.409358 0.417299
O O7 0.000000 0.500000 0.000000
#
# Coordination Sequence:
#
# PCOD9433696 Si02
#       3
#     8   8   8
#     4  12  25  54  83 120 162 212 276 336 416 494
#     4  11  27  54  83 118 162 213 270 342 410 488
#     4  11  25  52  78 114 164 210 268 333 409 491
#
# _framework density 27.044640999999999
#
# number of rings (size 3 to 8) (size 9 to 14) (size 15 to 20)
#    0.000    0.667    3.333    3.000    0.000    0.000 
#   48.000    0.000    0.000    0.000    0.000    0.000 
#    0.000    0.000    0.000    0.000    0.000    0.000 
#
# Total GULP energy -134391.787334 kJ/mol
# GULP energy per Si atom -5599.657806 kJ/mol
# Density = 2.698309 g / cm^3
# Si number density = 27.044641 Si / 1000 Ang^3
#
#
#
# Elastic Constant Matrix: (Units=GPa)
#
#
# Indices 1 2 3 4 5 6 
#
# 1 230.4375 14.2320 62.1091 0.0000 0.0000 0.0000
# 2 14.2320 91.7475 39.0465 0.0000 0.0000 0.0000
# 3 62.1091 39.0465 164.7902 0.0000 0.0000 0.0000
# 4 0.0000 0.0000 0.0000 38.4024 0.0000 0.0000
# 5 0.0000 0.0000 0.0000 0.0000 50.6163 0.0000
# 6 0.0000 0.0000 0.0000 0.0000 0.0000 40.1035
#
#
#
# Elastic Compliance Matrix: (Units=1/GPa)
#
#
# Indices 1 2 3 4 5 6 
#
# 1 0.004830 0.000028 -0.001827 0.000000 0.000000 0.000000
# 2 0.000028 0.012122 -0.002883 0.000000 0.000000 0.000000
# 3 -0.001827 -0.002883 0.007440 0.000000 0.000000 0.000000
# 4 0.000000 0.000000 0.000000 0.026040 0.000000 0.000000
# 5 0.000000 0.000000 0.000000 0.000000 0.019756 0.000000
# 6 0.000000 0.000000 0.000000 0.000000 0.000000 0.024935
#
#
# Mechanical properties :
#
#
# Convention : Reuss Voigt Hill
#
# Bulk Modulus (GPa) = 66.53911 79.75004 73.14457
# Shear Modulus (GPa) = 45.66304 50.59695 48.12999
#
# Velocity S-wave (km/s) = 4.11351 4.33005 4.22317
# Velocity P-wave (km/s) = 6.87155 7.38589 7.13336
#
# Compressibility (1/GPa) = 0.01502876
#
# Stress axis : x y z
#
# Youngs Moduli (GPa) = 207.02586 82.49444 134.40644
#
# Poissons Ratio (x) = -0.00234 0.24560
# Poissons Ratio (y) = -0.00587 0.38749
# Poissons Ratio (z) = 0.37829 0.23783
#
# Static dielectric constant tensor:
#      x y z
#    x 2.049410 0.000000 0.000000 
#    y 0.000000 2.754510 0.000000 
#    z 0.000000 0.000000 2.213180 
# 
# From -- ./inp_files/9896.got.cif
#   From: 2010.05.17/outbox.cif.g08.bks.cpg/sg56_5_cif.got.tgz:9896.got - 2010.06.03 13:42:01.
