data_PCOD9433107
_publ_section_title
;
Structure prediction by ZEFSAII (Michael W. Deem and Ramdas Pophale) SiO2 
 PCOD9433107
Probable space group: P C C N
;
_chemical_formula_sum "Si O2"
_cell_formula_units_Z 32
_cell_length_a 27.663413
_cell_length_b 4.869044
_cell_length_c 9.437776
_cell_angle_alpha 90.000000
_cell_angle_beta 90.000000
_cell_angle_gamma 90.000000
_cell_volume 1271.215341
_symmetry_space_group_name_H-M "P C C N"
_symmetry_group_IT_number 56
_symmetry_cell_setting 'orthorhombic'
loop_
_space_group_symop_operation_xyz
x,y,z
1/2-x,1/2-y,z
1/2+x,-y,1/2-z
-x,1/2+y,1/2-z
-x,-y,-z
1/2+x,1/2+y,-z
1/2-x,y,1/2+z
x,1/2-y,1/2+z
loop_
_atom_site_type_symbol
_atom_site_label
_atom_site_fract_x
_atom_site_fract_y
_atom_site_fract_z
Si Si1 0.484396 0.088615 0.340712
Si Si2 0.382870 0.176414 0.927991
Si Si3 0.337288 0.834745 0.551914
Si Si4 0.204214 0.435623 0.287920
O O1 0.516525 0.321825 0.261631
O O2 0.432740 0.233730 0.360851
O O3 0.500000 0.000000 0.500000
O O4 0.368507 0.386396 0.054072
O O5 0.376599 0.870883 0.982093
O O6 0.339088 0.274031 0.319960
O O7 0.312552 0.663558 0.676310
O O8 0.295071 0.913091 0.439973
O O9 0.250000 0.250000 0.249920
#
# Coordination Sequence:
#
# PCOD9433107 Si02
#       4
#     8   8   8   8
#     4  12  28  46  81 120 164 211 270 331 405 483
#     4  10  26  46  78 109 160 200 266 318 400 453
#     4  10  25  46  76 108 151 202 253 323 387 463
#     4  10  26  50  78 109 152 205 266 319 393 467
#
# _framework density 25.17276
#
# number of rings (size 3 to 8) (size 9 to 14) (size 15 to 20)
#    1.500    0.000    0.000    2.250   10.500    2.000 
#    4.500    1.250    0.000    0.000    0.000    0.000 
#    0.000    0.000    0.000    0.000    0.000    0.000 
#
# Total GULP energy -178771.013231 kJ/mol
# GULP energy per Si atom -5586.594163 kJ/mol
# Density = 2.511547 g / cm^3
# Si number density = 25.172760 Si / 1000 Ang^3
#
#
#
# Elastic Constant Matrix: (Units=GPa)
#
#
# Indices 1 2 3 4 5 6 
#
# 1 104.5913 -4.7600 3.9814 0.0000 0.0000 0.0000
# 2 -4.7600 118.9858 16.3146 0.0000 0.0000 0.0000
# 3 3.9814 16.3146 82.5231 0.0000 0.0000 0.0000
# 4 0.0000 0.0000 0.0000 47.5389 0.0000 0.0000
# 5 0.0000 0.0000 0.0000 0.0000 17.6158 0.0000
# 6 0.0000 0.0000 0.0000 0.0000 0.0000 30.6460
#
#
#
# Elastic Compliance Matrix: (Units=1/GPa)
#
#
# Indices 1 2 3 4 5 6 
#
# 1 0.009603 0.000460 -0.000554 0.000000 0.000000 0.000000
# 2 0.000460 0.008661 -0.001734 0.000000 0.000000 0.000000
# 3 -0.000554 -0.001734 0.012487 0.000000 0.000000 0.000000
# 4 0.000000 0.000000 0.000000 0.021035 0.000000 0.000000
# 5 0.000000 0.000000 0.000000 0.000000 0.056767 0.000000
# 6 0.000000 0.000000 0.000000 0.000000 0.000000 0.032631
#
#
# Mechanical properties :
#
#
# Convention : Reuss Voigt Hill
#
# Bulk Modulus (GPa) = 36.90838 37.46356 37.18597
# Shear Modulus (GPa) = 32.49440 38.53108 35.51274
#
# Velocity S-wave (km/s) = 3.59675 3.91662 3.76008
# Velocity P-wave (km/s) = 5.65178 5.94711 5.80132
#
# Compressibility (1/GPa) = 0.02709412
#
# Stress axis : x y z
#
# Youngs Moduli (GPa) = 104.13338 115.46568 80.08045
#
# Poissons Ratio (x) = -0.05313 0.04439
# Poissons Ratio (y) = -0.04792 0.13889
# Poissons Ratio (z) = 0.05772 0.20026
#
# Static dielectric constant tensor:
#      x y z
#    x 1.975100 0.000000 0.000000 
#    y 0.000000 2.154190 0.000000 
#    z 0.000000 0.000000 2.089140 
# 
# From -- ./inp_files/5052.got.cif
#   From: 2010.05.17/outbox.cif.g08.bks.cpg/sg56_3_cif.got.tgz:5052.got - 2010.06.03 13:42:01.
