data_PCOD9433528
_publ_section_title
;
Structure prediction by ZEFSAII (Michael W. Deem and Ramdas Pophale) SiO2 
 PCOD9433528
Probable space group: P C C N
;
_chemical_formula_sum "Si O2"
_cell_formula_units_Z 48
_cell_length_a 8.206984
_cell_length_b 27.624238
_cell_length_c 8.975449
_cell_angle_alpha 90.000000
_cell_angle_beta 90.000000
_cell_angle_gamma 90.000000
_cell_volume 2034.839115
_symmetry_space_group_name_H-M "P C C N"
_symmetry_group_IT_number 56
_symmetry_cell_setting 'orthorhombic'
loop_
_space_group_symop_operation_xyz
x,y,z
1/2-x,1/2-y,z
1/2+x,-y,1/2-z
-x,1/2+y,1/2-z
-x,-y,-z
1/2+x,1/2+y,-z
1/2-x,y,1/2+z
x,1/2-y,1/2+z
loop_
_atom_site_type_symbol
_atom_site_label
_atom_site_fract_x
_atom_site_fract_y
_atom_site_fract_z
Si Si1 0.349590 0.360000 0.980917
Si Si2 0.887015 0.208179 0.504714
Si Si3 0.588426 0.774743 0.285634
Si Si4 0.922143 0.982668 0.348747
Si Si5 0.479049 0.375764 0.651620
Si Si6 0.048094 0.042775 0.109723
O O1 0.382289 0.314013 0.085131
O O2 0.161306 0.373315 0.021437
O O3 0.456940 0.404472 0.041785
O O4 0.396401 0.355724 0.806355
O O5 0.750000 0.250000 0.489853
O O6 0.974574 0.205223 0.345087
O O7 0.004936 0.231456 0.626496
O O8 0.870593 0.155128 0.581611
O O9 0.750000 0.750000 0.218558
O O10 0.013552 0.932009 0.311601
O O11 0.735236 0.966825 0.346995
O O12 0.000000 0.000000 0.500000
O O13 0.938320 0.030139 0.248574
O O14 0.000000 0.000000 0.000000
#
# Coordination Sequence:
#
# PCOD9433528 Si02
#       6
#     8   8   8   8   8   8
#     4  11  24  43  78 110 141 195 255 302 354 454
#     4  12  27  48  71 106 150 190 242 319 382 435
#     4  12  25  46  76 105 137 192 255 301 367 451
#     4  11  25  43  74 108 149 197 247 303 365 438
#     4  11  24  45  74 108 147 196 250 300 370 449
#     4  11  23  47  71 108 152 193 244 302 362 441
#
# _framework density 23.589088
#
# number of rings (size 3 to 8) (size 9 to 14) (size 15 to 20)
#    0.000    0.667    3.333    4.000    9.333    0.000 
#    6.000    0.833    0.000    0.000    0.000    0.000 
#    0.000    0.000    0.000    0.000    0.000    0.000 
#
# Total GULP energy -267988.303430 kJ/mol
# GULP energy per Si atom -5583.089655 kJ/mol
# Density = 2.353540 g / cm^3
# Si number density = 23.589088 Si / 1000 Ang^3
#
#
#
# Elastic Constant Matrix: (Units=GPa)
#
#
# Indices 1 2 3 4 5 6 
#
# 1 48.1188 17.9209 8.8652 0.0000 0.0000 0.0000
# 2 17.9209 125.3540 20.3508 0.0000 0.0000 0.0000
# 3 8.8652 20.3508 116.2189 0.0000 0.0000 0.0000
# 4 0.0000 0.0000 0.0000 36.0397 0.0000 0.0000
# 5 0.0000 0.0000 0.0000 0.0000 22.9167 0.0000
# 6 0.0000 0.0000 0.0000 0.0000 0.0000 41.9844
#
#
#
# Elastic Compliance Matrix: (Units=1/GPa)
#
#
# Indices 1 2 3 4 5 6 
#
# 1 0.022103 -0.002971 -0.001166 0.000000 0.000000 0.000000
# 2 -0.002971 0.008610 -0.001281 0.000000 0.000000 0.000000
# 3 -0.001166 -0.001281 0.008918 0.000000 0.000000 0.000000
# 4 0.000000 0.000000 0.000000 0.027747 0.000000 0.000000
# 5 0.000000 0.000000 0.000000 0.000000 0.043636 0.000000
# 6 0.000000 0.000000 0.000000 0.000000 0.000000 0.023818
#
#
# Mechanical properties :
#
#
# Convention : Reuss Voigt Hill
#
# Bulk Modulus (GPa) = 34.72743 42.66285 38.69514
# Shear Modulus (GPa) = 32.20271 36.35847 34.28059
#
# Velocity S-wave (km/s) = 3.69881 3.93023 3.81627
# Velocity P-wave (km/s) = 5.74416 6.22260 5.98816
#
# Compressibility (1/GPa) = 0.02879568
#
# Stress axis : x y z
#
# Youngs Moduli (GPa) = 45.24267 116.14299 112.13639
#
# Poissons Ratio (x) = 0.34502 0.13073
# Poissons Ratio (y) = 0.13440 0.14366
# Poissons Ratio (z) = 0.05275 0.14879
#
# Static dielectric constant tensor:
#      x y z
#    x 2.084200 0.000000 0.000000 
#    y 0.000000 1.881490 0.000000 
#    z 0.000000 0.000000 1.775560 
# 
# From -- ./inp_files/2207.got.cif
#   From: 2010.05.17/outbox.cif.g08.bks.cpg/sg56_2_cif.got.tgz:2207.got - 2010.06.03 13:42:01.
