data_PCOD9433412
_publ_section_title
;
Structure prediction by ZEFSAII (Michael W. Deem and Ramdas Pophale) SiO2 
 PCOD9433412
Probable space group: P C C N
;
_chemical_formula_sum "Si O2"
_cell_formula_units_Z 60
_cell_length_a 23.770610
_cell_length_b 6.578541
_cell_length_c 17.167788
_cell_angle_alpha 90.000000
_cell_angle_beta 90.000000
_cell_angle_gamma 90.000000
_cell_volume 2684.628857
_symmetry_space_group_name_H-M "P C C N"
_symmetry_group_IT_number 56
_symmetry_cell_setting 'orthorhombic'
loop_
_space_group_symop_operation_xyz
x,y,z
1/2-x,1/2-y,z
1/2+x,-y,1/2-z
-x,1/2+y,1/2-z
-x,-y,-z
1/2+x,1/2+y,-z
1/2-x,y,1/2+z
x,1/2-y,1/2+z
loop_
_atom_site_type_symbol
_atom_site_label
_atom_site_fract_x
_atom_site_fract_y
_atom_site_fract_z
Si Si1 0.533289 0.923256 0.925694
Si Si2 0.839856 0.588293 0.915378
Si Si3 0.345971 0.725380 0.719295
Si Si4 0.945049 0.532613 0.332356
Si Si5 0.750000 0.750000 0.534032
Si Si6 0.842267 0.898028 0.149467
Si Si7 0.194730 0.140188 0.203489
Si Si8 0.543432 0.776159 0.169617
O O1 0.598327 0.984306 0.940049
O O2 0.541137 0.686073 0.904254
O O3 0.495853 0.038277 0.859860
O O4 0.500000 0.000000 0.000000
O O5 0.826580 0.432256 0.845966
O O6 0.846172 0.805193 0.868902
O O7 0.792937 0.616467 0.981175
O O8 0.353739 0.607129 0.801620
O O9 0.400372 0.847617 0.685143
O O10 0.301477 0.906650 0.723710
O O11 0.936506 0.673239 0.256536
O O12 0.003900 0.416392 0.326367
O O13 0.707276 0.889739 0.585401
O O14 0.820181 0.749803 0.216985
O O15 0.900720 0.792656 0.121943
O O16 0.250000 0.250000 0.174062
#
# Coordination Sequence:
#
# PCOD9433412 Si02
#       8
#     8   8   8   8   4   8   8   8
#     4  12  26  44  72 107 153 197 239 306 384 451
#     4  11  24  47  73 102 142 208 250 300 368 466
#     4  11  23  45  80 108 139 194 262 306 375 445
#     4  12  22  42  78 112 145 188 248 305 365 457
#     4  12  26  52  68  98 162 194 248 316 388 440
#     4  11  25  43  73 109 144 191 241 323 380 440
#     4  11  22  46  75  98 137 190 256 314 355 440
#     4  12  23  42  74 112 144 189 243 308 375 449
#
# _framework density 22.349457999999998
#
# number of rings (size 3 to 8) (size 9 to 14) (size 15 to 20)
#    0.000    0.533    6.667    2.400    0.000    2.667 
#    0.000    2.667    0.000    0.000    0.000    0.000 
#    0.000    0.000    0.000    0.000    0.000    0.000 
#
# Total GULP energy -334150.406498 kJ/mol
# GULP energy per Si atom -5569.173442 kJ/mol
# Density = 2.229859 g / cm^3
# Si number density = 22.349458 Si / 1000 Ang^3
#
#
#
# Elastic Constant Matrix: (Units=GPa)
#
#
# Indices 1 2 3 4 5 6 
#
# 1 145.9780 43.0936 50.7598 0.0000 0.0000 0.0000
# 2 43.0936 115.4146 34.2221 0.0000 0.0000 0.0000
# 3 50.7598 34.2221 91.9266 0.0000 0.0000 0.0000
# 4 0.0000 0.0000 0.0000 22.2688 0.0000 0.0000
# 5 0.0000 0.0000 0.0000 0.0000 35.9253 0.0000
# 6 0.0000 0.0000 0.0000 0.0000 0.0000 35.7669
#
#
#
# Elastic Compliance Matrix: (Units=1/GPa)
#
#
# Indices 1 2 3 4 5 6 
#
# 1 0.008909 -0.002100 -0.004138 0.000000 0.000000 0.000000
# 2 -0.002100 0.010234 -0.002651 0.000000 0.000000 0.000000
# 3 -0.004138 -0.002651 0.014150 0.000000 0.000000 0.000000
# 4 0.000000 0.000000 0.000000 0.044906 0.000000 0.000000
# 5 0.000000 0.000000 0.000000 0.000000 0.027836 0.000000
# 6 0.000000 0.000000 0.000000 0.000000 0.000000 0.027959
#
#
# Mechanical properties :
#
#
# Convention : Reuss Voigt Hill
#
# Bulk Modulus (GPa) = 64.44472 67.71893 66.08182
# Shear Modulus (GPa) = 31.85900 33.80843 32.83372
#
# Velocity S-wave (km/s) = 3.77967 3.89359 3.83705
# Velocity P-wave (km/s) = 6.92427 7.11190 7.01871
#
# Compressibility (1/GPa) = 0.01551718
#
# Stress axis : x y z
#
# Youngs Moduli (GPa) = 112.24717 97.71061 70.67252
#
# Poissons Ratio (x) = 0.20515 0.29242
# Poissons Ratio (y) = 0.23567 0.18733
# Poissons Ratio (z) = 0.46444 0.25900
#
# Static dielectric constant tensor:
#      x y z
#    x 2.003920 0.000000 0.000000 
#    y 0.000000 1.864180 0.000000 
#    z 0.000000 0.000000 1.879380 
# 
# From -- ./inp_files/17051.got.cif
#   From: 2010.05.17/outbox.cif.g08.bks.cpg/sg56_9_cif.got.tgz:17051.got - 2010.06.03 13:42:01.
