data_PCOD9433426
_publ_section_title
;
Structure prediction by ZEFSAII (Michael W. Deem and Ramdas Pophale) SiO2 
 PCOD9433426
Probable space group: P C C N
;
_chemical_formula_sum "Si O2"
_cell_formula_units_Z 64
_cell_length_a 15.022239
_cell_length_b 8.452794
_cell_length_c 24.016949
_cell_angle_alpha 90.000000
_cell_angle_beta 90.000000
_cell_angle_gamma 90.000000
_cell_volume 3049.669583
_symmetry_space_group_name_H-M "P C C N"
_symmetry_group_IT_number 56
_symmetry_cell_setting 'orthorhombic'
loop_
_space_group_symop_operation_xyz
x,y,z
1/2-x,1/2-y,z
1/2+x,-y,1/2-z
-x,1/2+y,1/2-z
-x,-y,-z
1/2+x,1/2+y,-z
1/2-x,y,1/2+z
x,1/2-y,1/2+z
loop_
_atom_site_type_symbol
_atom_site_label
_atom_site_fract_x
_atom_site_fract_y
_atom_site_fract_z
Si Si1 0.268318 0.992828 0.253911
Si Si2 0.161032 0.671493 0.147067
Si Si3 0.892671 0.700635 0.245101
Si Si4 0.698437 0.108828 0.128290
Si Si5 0.527797 0.673107 0.137392
Si Si6 0.476227 0.694159 0.844185
Si Si7 0.924656 0.596742 0.925979
Si Si8 0.398953 0.116939 0.948905
O O1 0.329876 0.146917 0.251163
O O2 0.168310 0.051139 0.238434
O O3 0.314234 0.873699 0.210838
O O4 0.255169 0.937294 0.317238
O O5 0.250000 0.750000 0.123218
O O6 0.134672 0.512146 0.114281
O O7 0.076667 0.786412 0.140932
O O8 0.927454 0.706215 0.181965
O O9 0.975506 0.718293 0.285552
O O10 0.750000 0.250000 0.097518
O O11 0.607067 0.188949 0.149651
O O12 0.678369 0.964793 0.087198
O O13 0.544914 0.491002 0.151019
O O14 0.570748 0.719176 0.078631
O O15 0.544761 0.748539 0.892434
O O16 0.014751 0.496622 0.939020
O O17 0.881144 0.628211 0.985745
#
# Coordination Sequence:
#
# PCOD9433426 Si02
#       8
#     8   8   8   8   8   8   8   8
#     4  11  23  40  60  88 128 166 204 266 318 374
#     4  11  23  39  62  95 127 166 214 263 317 377
#     4  11  24  38  61  88 128 164 207 258 318 383
#     4  11  23  39  62  95 127 166 214 263 317 377
#     4  11  24  39  63  95 128 167 212 256 322 383
#     4  11  24  39  63  95 128 167 212 256 322 383
#     4   9  20  42  66  89 125 171 218 263 311 375
#     4   9  20  42  66  89 125 171 218 263 311 375
#
# _framework density 20.985880000000002
#
# number of rings (size 3 to 8) (size 9 to 14) (size 15 to 20)
#    0.000    1.500    2.500    1.875    7.000    1.000 
#    0.000    0.000    0.000   10.500    0.000    0.000 
#    0.000    0.000    0.000    0.000    0.000    0.000 
#
# Total GULP energy -357584.023076 kJ/mol
# GULP energy per Si atom -5587.250361 kJ/mol
# Density = 2.093812 g / cm^3
# Si number density = 20.985880 Si / 1000 Ang^3
#
#
#
# Elastic Constant Matrix: (Units=GPa)
#
#
# Indices 1 2 3 4 5 6 
#
# 1 61.4927 20.9915 13.4171 0.0000 0.0000 0.0000
# 2 20.9915 73.1795 25.1711 0.0000 0.0000 0.0000
# 3 13.4171 25.1711 116.7440 0.0000 0.0000 0.0000
# 4 0.0000 0.0000 0.0000 -4.4004 0.0000 0.0000
# 5 0.0000 0.0000 0.0000 0.0000 6.8154 0.0000
# 6 0.0000 0.0000 0.0000 0.0000 0.0000 24.5678
#
#
#
# Elastic Compliance Matrix: (Units=1/GPa)
#
#
# Indices 1 2 3 4 5 6 
#
# 1 0.018144 -0.004847 -0.001040 0.000000 0.000000 0.000000
# 2 -0.004847 0.016054 -0.002904 0.000000 0.000000 0.000000
# 3 -0.001040 -0.002904 0.009312 0.000000 0.000000 0.000000
# 4 0.000000 0.000000 0.000000 -0.227250 0.000000 0.000000
# 5 0.000000 0.000000 0.000000 0.000000 0.146727 0.000000
# 6 0.000000 0.000000 0.000000 0.000000 0.000000 0.040704
#
#
# Mechanical properties :
#
#
# Convention : Reuss Voigt Hill
#
# Bulk Modulus (GPa) = 38.57021 41.17506 39.87263
# Shear Modulus (GPa) = 167.13542 18.18563 92.66052
#
# Velocity S-wave (km/s) = 8.93391 2.94694 6.65204
# Velocity P-wave (km/s) = 11.17312 5.58948 8.83405
#
# Compressibility (1/GPa) = 0.02592674
#
# Stress axis : x y z
#
# Youngs Moduli (GPa) = 55.11605 62.28850 107.39376
#
# Poissons Ratio (x) = 0.30189 0.11171
# Poissons Ratio (y) = 0.26713 0.31192
# Poissons Ratio (z) = 0.05733 0.18091
#
# Static dielectric constant tensor:
#      x y z
#    x 1.782990 0.000000 0.000000 
#    y 0.000000 1.774180 0.000000 
#    z 0.000000 0.000000 1.734900 
# 
# From -- ./inp_files/21182.got.cif
#   From: 2010.05.17/outbox.cif.g08.bks.cpg/sg56_11_cif.got.tgz:21182.got - 2010.06.03 13:42:01.
