data_PCOD9433502
_publ_section_title
;
Structure prediction by ZEFSAII (Michael W. Deem and Ramdas Pophale) SiO2 
 PCOD9433502
Probable space group: P C C N
;
_chemical_formula_sum "Si O2"
_cell_formula_units_Z 52
_cell_length_a 19.638279
_cell_length_b 5.927366
_cell_length_c 21.503916
_cell_angle_alpha 90.000000
_cell_angle_beta 90.000000
_cell_angle_gamma 90.000000
_cell_volume 2503.126081
_symmetry_space_group_name_H-M "P C C N"
_symmetry_group_IT_number 56
_symmetry_cell_setting 'orthorhombic'
loop_
_space_group_symop_operation_xyz
x,y,z
1/2-x,1/2-y,z
1/2+x,-y,1/2-z
-x,1/2+y,1/2-z
-x,-y,-z
1/2+x,1/2+y,-z
1/2-x,y,1/2+z
x,1/2-y,1/2+z
loop_
_atom_site_type_symbol
_atom_site_label
_atom_site_fract_x
_atom_site_fract_y
_atom_site_fract_z
Si Si1 0.041149 0.103958 0.161798
Si Si2 0.552456 0.882249 0.953637
Si Si3 0.681701 0.596922 0.003339
Si Si4 0.587058 0.546079 0.234938
Si Si5 0.211792 0.000706 0.858174
Si Si6 0.250000 0.750000 0.587949
Si Si7 0.377877 0.799642 0.144980
O O1 0.017086 0.228775 0.099119
O O2 0.070319 0.247611 0.219267
O O3 0.105672 0.961486 0.139644
O O4 0.976172 0.976647 0.188714
O O5 0.614390 0.742694 0.986141
O O6 0.582916 0.075467 0.909648
O O7 0.500000 0.000000 0.000000
O O8 0.750000 0.750000 0.000839
O O9 0.701576 0.396773 0.956098
O O10 0.678411 0.497798 0.072984
O O11 0.655093 0.532319 0.194719
O O12 0.594391 0.352385 0.286700
O O13 0.250000 0.250000 0.856677
O O14 0.250000 0.750000 0.850805
O O15 0.199071 0.877812 0.634227
#
# Coordination Sequence:
#
# PCOD9433502 Si02
#       7
#     8   8   8   8   8   4   8
#     4  11  24  44  67 103 142 187 236 302 369 448
#     4  11  26  43  70 108 141 190 248 301 385 458
#     4  11  23  45  67 101 145 187 243 308 375 443
#     4  11  26  44  71  99 145 185 246 298 373 440
#     4  11  28  47  73 107 147 193 248 307 373 440
#     4  12  22  42  72  96 142 180 246 300 368 436
#     4  11  25  43  70 101 135 189 238 304 370 438
#
# _framework density 20.774025000000002
#
# number of rings (size 3 to 8) (size 9 to 14) (size 15 to 20)
#    0.000    0.923    5.385    0.000    5.385    4.308 
#    0.000    0.000    0.000    0.000    0.000    0.000 
#    0.000    0.000    0.000    0.000    0.000    0.000 
#
# Total GULP energy -289509.174410 kJ/mol
# GULP energy per Si atom -5567.484123 kJ/mol
# Density = 2.072674 g / cm^3
# Si number density = 20.774025 Si / 1000 Ang^3
#
#
#
# Elastic Constant Matrix: (Units=GPa)
#
#
# Indices 1 2 3 4 5 6 
#
# 1 102.1801 31.8710 83.0820 0.0000 0.0000 0.0000
# 2 31.8710 68.1337 45.1158 0.0000 0.0000 0.0000
# 3 83.0820 45.1158 131.9112 0.0000 0.0000 0.0000
# 4 0.0000 0.0000 0.0000 -364.7054 0.0000 0.0000
# 5 0.0000 0.0000 0.0000 0.0000 29.1271 0.0000
# 6 0.0000 0.0000 0.0000 0.0000 0.0000 28.1266
#
#
#
# Elastic Compliance Matrix: (Units=1/GPa)
#
#
# Indices 1 2 3 4 5 6 
#
# 1 0.020151 -0.001321 -0.012240 0.000000 0.000000 0.000000
# 2 -0.001321 0.019061 -0.005687 0.000000 0.000000 0.000000
# 3 -0.012240 -0.005687 0.017235 0.000000 0.000000 0.000000
# 4 0.000000 0.000000 0.000000 -0.002742 0.000000 0.000000
# 5 0.000000 0.000000 0.000000 0.000000 0.034332 0.000000
# 6 0.000000 0.000000 0.000000 0.000000 0.000000 0.035553
#
#
# Mechanical properties :
#
#
# Convention : Reuss Voigt Hill
#
# Bulk Modulus (GPa) = 55.70844 69.15139 62.42992
# Shear Modulus (GPa) = 29.74957 -52.01326 -11.13184
#
# Velocity S-wave (km/s) = 3.78836 -5.00919 -2.31736
# Velocity P-wave (km/s) = 6.78308 0.31032 4.79134
#
# Compressibility (1/GPa) = 0.01795060
#
# Stress axis : x y z
#
# Youngs Moduli (GPa) = 49.62576 52.46387 58.02188
#
# Poissons Ratio (x) = 0.06932 0.71017
# Poissons Ratio (y) = 0.06557 0.32997
# Poissons Ratio (z) = 0.60741 0.29836
#
# Static dielectric constant tensor:
#      x y z
#    x 1.787810 0.000000 0.000000 
#    y 0.000000 1.846580 0.000000 
#    z 0.000000 0.000000 1.727170 
# 
# From -- ./inp_files/19462.got.cif
#   From: 2010.05.17/outbox.cif.g08.bks.cpg/sg56_10_cif.got.tgz:19462.got - 2010.06.03 13:42:01.
