data_PCOD9433306
_publ_section_title
;
Structure prediction by ZEFSAII (Michael W. Deem and Ramdas Pophale) SiO2 
 PCOD9433306
Probable space group: P C C N
;
_chemical_formula_sum "Si O2"
_cell_formula_units_Z 40
_cell_length_a 13.508036
_cell_length_b 15.069902
_cell_length_c 8.861587
_cell_angle_alpha 90.000000
_cell_angle_beta 90.000000
_cell_angle_gamma 90.000000
_cell_volume 1803.906997
_symmetry_space_group_name_H-M "P C C N"
_symmetry_group_IT_number 56
_symmetry_cell_setting 'orthorhombic'
loop_
_space_group_symop_operation_xyz
x,y,z
1/2-x,1/2-y,z
1/2+x,-y,1/2-z
-x,1/2+y,1/2-z
-x,-y,-z
1/2+x,1/2+y,-z
1/2-x,y,1/2+z
x,1/2-y,1/2+z
loop_
_atom_site_type_symbol
_atom_site_label
_atom_site_fract_x
_atom_site_fract_y
_atom_site_fract_z
Si Si1 0.853576 0.942130 0.319931
Si Si2 0.464926 0.927140 0.625797
Si Si3 0.065979 0.858980 0.680501
Si Si4 0.141905 0.068708 0.318471
Si Si5 0.634894 0.236910 0.544105
O O1 0.748430 0.913568 0.252506
O O2 0.854493 0.930668 0.500155
O O3 0.939718 0.896615 0.221482
O O4 0.879479 0.047036 0.298210
O O5 0.410317 0.848725 0.539551
O O6 0.500000 0.000000 0.500000
O O7 0.392410 0.975842 0.743869
O O8 0.078077 0.824022 0.511542
O O9 0.950899 0.868558 0.722394
O O10 0.117902 0.785545 0.782205
O O11 0.750000 0.250000 0.513896
#
# Coordination Sequence:
#
# PCOD9433306 Si02
#       5
#     8   8   8   8   8
#     4  11  24  42  74 100 137 189 248 295 357 431
#     4  11  21  44  69 100 144 187 241 294 343 438
#     4  11  26  43  68 104 144 180 232 301 363 429
#     4  11  24  43  72 101 135 188 247 290 356 424
#     4  12  26  43  69 104 146 185 228 293 367 420
#
# _framework density 22.174092999999999
#
# number of rings (size 3 to 8) (size 9 to 14) (size 15 to 20)
#    0.000    0.800    4.000    5.400    8.400    0.000 
#    0.000    1.000    0.000    0.000    0.000    0.000 
#    0.000    0.000    0.000    0.000    0.000    0.000 
#
# Total GULP energy -223718.147553 kJ/mol
# GULP energy per Si atom -5592.953689 kJ/mol
# Density = 2.212362 g / cm^3
# Si number density = 22.174093 Si / 1000 Ang^3
#
#
#
# Elastic Constant Matrix: (Units=GPa)
#
#
# Indices 1 2 3 4 5 6 
#
# 1 165.2064 22.6190 47.8982 0.0000 0.0000 0.0000
# 2 22.6190 51.6152 17.6395 0.0000 0.0000 0.0000
# 3 47.8982 17.6395 130.7987 0.0000 0.0000 0.0000
# 4 0.0000 0.0000 0.0000 41.6909 0.0000 0.0000
# 5 0.0000 0.0000 0.0000 0.0000 37.8960 0.0000
# 6 0.0000 0.0000 0.0000 0.0000 0.0000 22.5062
#
#
#
# Elastic Compliance Matrix: (Units=1/GPa)
#
#
# Indices 1 2 3 4 5 6 
#
# 1 0.007024 -0.002305 -0.002261 0.000000 0.000000 0.000000
# 2 -0.002305 0.021067 -0.001997 0.000000 0.000000 0.000000
# 3 -0.002261 -0.001997 0.008743 0.000000 0.000000 0.000000
# 4 0.000000 0.000000 0.000000 0.023986 0.000000 0.000000
# 5 0.000000 0.000000 0.000000 0.000000 0.026388 0.000000
# 6 0.000000 0.000000 0.000000 0.000000 0.000000 0.044432
#
#
# Mechanical properties :
#
#
# Convention : Reuss Voigt Hill
#
# Bulk Modulus (GPa) = 42.18221 58.21483 50.19852
# Shear Modulus (GPa) = 32.75049 37.71622 35.23335
#
# Velocity S-wave (km/s) = 3.84731 4.12869 3.99048
# Velocity P-wave (km/s) = 6.22898 7.00276 6.62717
#
# Compressibility (1/GPa) = 0.02370668
#
# Stress axis : x y z
#
# Youngs Moduli (GPa) = 142.36267 47.46797 114.38058
#
# Poissons Ratio (x) = 0.10943 0.25866
# Poissons Ratio (y) = 0.32820 0.22840
# Poissons Ratio (z) = 0.32194 0.09479
#
# Static dielectric constant tensor:
#      x y z
#    x 1.786930 0.000000 0.000000 
#    y 0.000000 1.818460 0.000000 
#    z 0.000000 0.000000 1.991100 
# 
# From -- ./inp_files/2563.got.cif
#   From: 2010.05.17/outbox.cif.g08.bks.cpg/sg56_2_cif.got.tgz:2563.got - 2010.06.03 13:42:01.
