data_PCOD9433534
_publ_section_title
;
Structure prediction by ZEFSAII (Michael W. Deem and Ramdas Pophale) SiO2 
 PCOD9433534
Probable space group: P C C N
;
_chemical_formula_sum "Si O2"
_cell_formula_units_Z 60
_cell_length_a 8.025569
_cell_length_b 21.178352
_cell_length_c 13.828562
_cell_angle_alpha 90.000000
_cell_angle_beta 90.000000
_cell_angle_gamma 90.000000
_cell_volume 2350.417524
_symmetry_space_group_name_H-M "P C C N"
_symmetry_group_IT_number 56
_symmetry_cell_setting 'orthorhombic'
loop_
_space_group_symop_operation_xyz
x,y,z
1/2-x,1/2-y,z
1/2+x,-y,1/2-z
-x,1/2+y,1/2-z
-x,-y,-z
1/2+x,1/2+y,-z
1/2-x,y,1/2+z
x,1/2-y,1/2+z
loop_
_atom_site_type_symbol
_atom_site_label
_atom_site_fract_x
_atom_site_fract_y
_atom_site_fract_z
Si Si1 0.274971 0.909420 0.260395
Si Si2 0.776166 0.182822 0.406166
Si Si3 0.207190 0.332069 0.681987
Si Si4 0.615783 0.962955 0.267141
Si Si5 0.460363 0.663395 0.411830
Si Si6 0.373779 0.054399 0.961516
Si Si7 0.250000 0.250000 0.353746
Si Si8 0.428385 0.143000 0.482632
O O1 0.341274 0.863680 0.176644
O O2 0.434116 0.944452 0.306785
O O3 0.164800 0.870225 0.336778
O O4 0.171017 0.966408 0.211901
O O5 0.750000 0.250000 0.355265
O O6 0.874183 0.202639 0.503522
O O7 0.615534 0.144346 0.444735
O O8 0.238899 0.406783 0.701785
O O9 0.386217 0.306463 0.646050
O O10 0.154565 0.296132 0.778549
O O11 0.082370 0.333308 0.592831
O O12 0.610894 0.956800 0.151895
O O13 0.544479 0.612768 0.483235
O O14 0.177576 0.077157 0.975127
O O15 0.500000 0.000000 0.000000
O O16 0.342803 0.198660 0.418919
#
# Coordination Sequence:
#
# PCOD9433534 Si02
#       8
#     8   8   8   8   8   8   4   8
#     4  12  27  46  79 113 156 207 264 331 410 489
#     4  12  30  49  74 113 165 212 267 336 415 490
#     4  11  26  46  79 110 152 210 273 330 400 483
#     4  12  25  47  76 117 153 202 267 327 411 488
#     4  11  25  50  70 113 152 206 264 329 406 482
#     4  11  23  47  80 106 154 202 262 341 401 477
#     4  12  24  44  80 108 154 204 278 328 402 496
#     4  11  27  46  76 112 156 205 275 328 413 492
#
# _framework density 25.527379
#
# number of rings (size 3 to 8) (size 9 to 14) (size 15 to 20)
#    0.000    0.533    4.000    2.800   11.200    0.533 
#    0.000    2.000    0.000    0.000    0.000    0.000 
#    0.000    0.000    0.000    0.000    0.000    0.000 
#
# Total GULP energy -335066.441616 kJ/mol
# GULP energy per Si atom -5584.440694 kJ/mol
# Density = 2.546928 g / cm^3
# Si number density = 25.527379 Si / 1000 Ang^3
#
#
#
# Elastic Constant Matrix: (Units=GPa)
#
#
# Indices 1 2 3 4 5 6 
#
# 1 87.4197 15.5794 -1.4672 0.0000 0.0000 0.0000
# 2 15.5794 111.5857 30.5859 0.0000 0.0000 0.0000
# 3 -1.4672 30.5859 106.1513 0.0000 0.0000 0.0000
# 4 0.0000 0.0000 0.0000 28.7651 0.0000 0.0000
# 5 0.0000 0.0000 0.0000 0.0000 11.8143 0.0000
# 6 0.0000 0.0000 0.0000 0.0000 0.0000 32.7277
#
#
#
# Elastic Compliance Matrix: (Units=1/GPa)
#
#
# Indices 1 2 3 4 5 6 
#
# 1 0.011777 -0.001834 0.000691 0.000000 0.000000 0.000000
# 2 -0.001834 0.010016 -0.002911 0.000000 0.000000 0.000000
# 3 0.000691 -0.002911 0.010269 0.000000 0.000000 0.000000
# 4 0.000000 0.000000 0.000000 0.034764 0.000000 0.000000
# 5 0.000000 0.000000 0.000000 0.000000 0.084643 0.000000
# 6 0.000000 0.000000 0.000000 0.000000 0.000000 0.030555
#
#
# Mechanical properties :
#
#
# Convention : Reuss Voigt Hill
#
# Bulk Modulus (GPa) = 41.74603 43.83922 42.79262
# Shear Modulus (GPa) = 25.23759 32.02534 28.63146
#
# Velocity S-wave (km/s) = 3.14769 3.54580 3.35266
# Velocity P-wave (km/s) = 5.44054 5.82875 5.63799
#
# Compressibility (1/GPa) = 0.02395437
#
# Stress axis : x y z
#
# Youngs Moduli (GPa) = 84.90782 99.84296 97.38149
#
# Poissons Ratio (x) = 0.18309 -0.06731
# Poissons Ratio (y) = 0.15570 0.28350
# Poissons Ratio (z) = -0.05869 0.29067
#
# Static dielectric constant tensor:
#      x y z
#    x 3.088290 0.000000 0.000000 
#    y 0.000000 2.274150 0.000000 
#    z 0.000000 0.000000 1.955590 
# 
# From -- ./inp_files/10982.got.cif
#   From: 2010.05.17/outbox.cif.g08.bks.cpg/sg56_6_cif.got.tgz:10982.got - 2010.06.03 13:42:01.
