data_PCOD9433891
_publ_section_title
;
Structure prediction by ZEFSAII (Michael W. Deem and Ramdas Pophale) SiO2 
 PCOD9433891
Probable space group: P C C N
;
_chemical_formula_sum "Si O2"
_cell_formula_units_Z 24
_cell_length_a 8.551596
_cell_length_b 8.279783
_cell_length_c 14.832293
_cell_angle_alpha 90.000000
_cell_angle_beta 90.000000
_cell_angle_gamma 90.000000
_cell_volume 1050.205833
_symmetry_space_group_name_H-M "P C C N"
_symmetry_group_IT_number 56
_symmetry_cell_setting 'orthorhombic'
loop_
_space_group_symop_operation_xyz
x,y,z
1/2-x,1/2-y,z
1/2+x,-y,1/2-z
-x,1/2+y,1/2-z
-x,-y,-z
1/2+x,1/2+y,-z
1/2-x,y,1/2+z
x,1/2-y,1/2+z
loop_
_atom_site_type_symbol
_atom_site_label
_atom_site_fract_x
_atom_site_fract_y
_atom_site_fract_z
Si Si1 0.133055 0.094994 0.811068
Si Si2 0.084633 0.911282 0.361928
Si Si3 0.933354 0.738200 0.021496
O O1 0.250000 0.250000 0.802617
O O2 0.039378 0.123086 0.904394
O O3 0.027716 0.093298 0.723698
O O4 0.242288 0.939353 0.823260
O O5 0.042901 0.775278 0.435158
O O6 0.050689 0.074855 0.419358
O O7 0.750000 0.750000 0.992820
#
# Coordination Sequence:
#
# PCOD9433891 Si02
#       3
#     8   8   8
#     4   9  18  31  54  80 104 141 176 214 270 313
#     4   9  16  31  54  77 106 137 176 220 262 314
#     4   8  16  30  53  78 102 141 177 212 265 315
#
# _framework density 22.852661000000001
#
# number of rings (size 3 to 8) (size 9 to 14) (size 15 to 20)
#    0.000    4.000    0.000    1.000    0.000    0.000 
#    0.000    6.667    0.000   96.000    0.000    0.000 
#    0.000    0.000    0.000    0.000    0.000    0.000 
#
# Total GULP energy -133920.551789 kJ/mol
# GULP energy per Si atom -5580.022991 kJ/mol
# Density = 2.280065 g / cm^3
# Si number density = 22.852661 Si / 1000 Ang^3
#
#
#
# Elastic Constant Matrix: (Units=GPa)
#
#
# Indices 1 2 3 4 5 6 
#
# 1 65.4903 36.5763 95.0210 0.0000 0.0000 0.0000
# 2 36.5763 74.4350 40.6937 0.0000 0.0000 0.0000
# 3 95.0210 40.6937 180.6275 0.0000 0.0000 0.0000
# 4 0.0000 0.0000 0.000018472.1625 0.0000 0.0000
# 5 0.0000 0.0000 0.0000 0.0000 33.0637 0.0000
# 6 0.0000 0.0000 0.0000 0.0000 0.0000 28.9731
#
#
#
# Elastic Compliance Matrix: (Units=1/GPa)
#
#
# Indices 1 2 3 4 5 6 
#
# 1 0.083486 -0.019403 -0.039547 0.000000 0.000000 0.000000
# 2 -0.019403 0.019831 0.005740 0.000000 0.000000 0.000000
# 3 -0.039547 0.005740 0.025047 0.000000 0.000000 0.000000
# 4 0.000000 0.000000 0.000000 0.000054 0.000000 0.000000
# 5 0.000000 0.000000 0.000000 0.000000 0.030245 0.000000
# 6 0.000000 0.000000 0.000000 0.000000 0.000000 0.034515
#
#
# Mechanical properties :
#
#
# Convention : Reuss Voigt Hill
#
# Bulk Modulus (GPa) = 45.57359 73.90388 59.73873
# Shear Modulus (GPa) = 16.29119 3716.72401 1866.50760
#
# Velocity S-wave (km/s) = 2.67288 40.37222 28.60997
# Velocity P-wave (km/s) = 5.43243 46.96415 33.43010
#
# Compressibility (1/GPa) = 0.02194253
#
# Stress axis : x y z
#
# Youngs Moduli (GPa) = 11.97807 50.42543 39.92424
#
# Poissons Ratio (x) = 0.97842 1.57889
# Poissons Ratio (y) = 0.23241 -0.22915
# Poissons Ratio (z) = 0.47370 -0.28942
#
# Static dielectric constant tensor:
#      x y z
#    x 1.865630 0.000000 0.000000 
#    y 0.000000 2.013210 0.000000 
#    z 0.000000 0.000000 1.816030 
# 
# From -- ./inp_files/9897.got.cif
#   From: 2010.05.17/outbox.cif.g08.bks.cpg/sg56_5_cif.got.tgz:9897.got - 2010.06.03 13:42:01.
