data_PCOD9433384
_publ_section_title
;
Structure prediction by ZEFSAII (Michael W. Deem and Ramdas Pophale) SiO2 
 PCOD9433384
Probable space group: P C C N
;
_chemical_formula_sum "Si O2"
_cell_formula_units_Z 64
_cell_length_a 10.651357
_cell_length_b 8.938001
_cell_length_c 28.294962
_cell_angle_alpha 90.000000
_cell_angle_beta 90.000000
_cell_angle_gamma 90.000000
_cell_volume 2693.732431
_symmetry_space_group_name_H-M "P C C N"
_symmetry_group_IT_number 56
_symmetry_cell_setting 'orthorhombic'
loop_
_space_group_symop_operation_xyz
x,y,z
1/2-x,1/2-y,z
1/2+x,-y,1/2-z
-x,1/2+y,1/2-z
-x,-y,-z
1/2+x,1/2+y,-z
1/2-x,y,1/2+z
x,1/2-y,1/2+z
loop_
_atom_site_type_symbol
_atom_site_label
_atom_site_fract_x
_atom_site_fract_y
_atom_site_fract_z
Si Si1 0.075247 0.865614 0.721844
Si Si2 0.127785 0.160836 0.889914
Si Si3 0.530793 0.426266 0.386498
Si Si4 0.836921 0.473222 0.261697
Si Si5 0.061286 0.059378 0.143302
Si Si6 0.752998 0.571276 0.443505
Si Si7 0.386867 0.793663 0.891317
Si Si8 0.377619 0.565425 0.973383
O O1 0.104588 0.694422 0.736015
O O2 0.188168 0.957259 0.747697
O O3 0.084941 0.884662 0.664949
O O4 0.935723 0.924814 0.733373
O O5 0.250000 0.250000 0.873223
O O6 0.159214 0.048252 0.931767
O O7 0.022189 0.275430 0.908993
O O8 0.050374 0.061639 0.852793
O O9 0.628918 0.519484 0.416781
O O10 0.410510 0.533490 0.385111
O O11 0.845069 0.540361 0.314340
O O12 0.134612 0.045902 0.093976
O O13 0.992213 0.216801 0.140781
O O14 0.750000 0.750000 0.455681
O O15 0.772686 0.458687 0.487050
O O16 0.250000 0.750000 0.874059
O O17 0.396771 0.720482 0.944414
O O18 0.500000 0.500000 0.000000
#
# Coordination Sequence:
#
# PCOD9433384 Si02
#       8
#     8   8   8   8   8   8   8   8
#     4  11  27  47  77 107 152 181 247 296 367 432
#     4  11  24  42  67  97 140 184 234 296 351 429
#     4  12  24  45  74 106 131 200 248 285 356 444
#     4  11  26  50  72 112 142 188 235 305 359 440
#     4  11  22  46  71  91 144 183 226 296 354 421
#     4  12  23  42  73 103 136 184 246 298 350 426
#     4  11  25  42  64  99 142 188 240 297 353 427
#     4  11  22  44  64  95 143 188 232 301 363 404
#
# _framework density 23.758855000000001
#
# number of rings (size 3 to 8) (size 9 to 14) (size 15 to 20)
#    0.000    0.750    6.250    1.875    1.750    4.000 
#    0.000    2.500    0.000    0.000    0.000    0.000 
#    0.000    0.000    0.000    0.000    0.000    0.000 
#
# Total GULP energy -357645.922829 kJ/mol
# GULP energy per Si atom -5588.217544 kJ/mol
# Density = 2.370478 g / cm^3
# Si number density = 23.758855 Si / 1000 Ang^3
#
#
#
# Elastic Constant Matrix: (Units=GPa)
#
#
# Indices 1 2 3 4 5 6 
#
# 1 81.3952 -1.5563 -1.8379 0.0000 0.0000 0.0000
# 2 -1.5563 74.3639 1.1104 0.0000 0.0000 0.0000
# 3 -1.8379 1.1104 35.3282 0.0000 0.0000 0.0000
# 4 0.0000 0.0000 0.0000 24.6989 0.0000 0.0000
# 5 0.0000 0.0000 0.0000 0.0000 5.7965 0.0000
# 6 0.0000 0.0000 0.0000 0.0000 0.0000 40.7750
#
#
#
# Elastic Compliance Matrix: (Units=1/GPa)
#
#
# Indices 1 2 3 4 5 6 
#
# 1 0.012305 0.000248 0.000632 0.000000 0.000000 0.000000
# 2 0.000248 0.013459 -0.000410 0.000000 0.000000 0.000000
# 3 0.000632 -0.000410 0.028352 0.000000 0.000000 0.000000
# 4 0.000000 0.000000 0.000000 0.040488 0.000000 0.000000
# 5 0.000000 0.000000 0.000000 0.000000 0.172517 0.000000
# 6 0.000000 0.000000 0.000000 0.000000 0.000000 0.024525
#
#
# Mechanical properties :
#
#
# Convention : Reuss Voigt Hill
#
# Bulk Modulus (GPa) = 18.16336 20.72440 19.44388
# Shear Modulus (GPa) = 16.17831 27.14550 21.66190
#
# Velocity S-wave (km/s) = 2.61231 3.38382 3.02278
# Velocity P-wave (km/s) = 4.09394 4.89987 4.51492
#
# Compressibility (1/GPa) = 0.05505588
#
# Stress axis : x y z
#
# Youngs Moduli (GPa) = 81.26940 74.30135 35.27111
#
# Poissons Ratio (x) = -0.01843 -0.02230
# Poissons Ratio (y) = -0.02016 0.01446
# Poissons Ratio (z) = -0.05139 0.03047
#
# Static dielectric constant tensor:
#      x y z
#    x 1.967590 0.000000 0.000000 
#    y 0.000000 1.928750 0.000000 
#    z 0.000000 0.000000 1.905090 
# 
# From -- ./inp_files/23511.got.cif
#   From: 2010.05.17/outbox.cif.g08.bks.cpg/sg56_12_cif.got.tgz:23511.got - 2010.06.03 13:42:01.
