data_PCOD9433020
_publ_section_title
;
Structure prediction by ZEFSAII (Michael W. Deem and Ramdas Pophale) SiO2 
 PCOD9433020
Probable space group: P C C N
;
_chemical_formula_sum "Si O2"
_cell_formula_units_Z 64
_cell_length_a 23.307217
_cell_length_b 8.058093
_cell_length_c 15.254127
_cell_angle_alpha 90.000000
_cell_angle_beta 90.000000
_cell_angle_gamma 90.000000
_cell_volume 2864.903862
_symmetry_space_group_name_H-M "P C C N"
_symmetry_group_IT_number 56
_symmetry_cell_setting 'orthorhombic'
loop_
_space_group_symop_operation_xyz
x,y,z
1/2-x,1/2-y,z
1/2+x,-y,1/2-z
-x,1/2+y,1/2-z
-x,-y,-z
1/2+x,1/2+y,-z
1/2-x,y,1/2+z
x,1/2-y,1/2+z
loop_
_atom_site_type_symbol
_atom_site_label
_atom_site_fract_x
_atom_site_fract_y
_atom_site_fract_z
Si Si1 0.613784 0.184746 0.867143
Si Si2 0.894738 0.727530 0.156917
Si Si3 0.340727 0.705808 0.454675
Si Si4 0.492926 0.620225 0.202530
Si Si5 0.824247 0.057025 0.196860
Si Si6 0.443761 0.106336 0.025165
Si Si7 0.715580 0.580219 0.650441
Si Si8 0.032227 0.726440 0.375256
O O1 0.559804 0.308821 0.854964
O O2 0.643677 0.152926 0.774045
O O3 0.591103 0.007711 0.906559
O O4 0.657637 0.241282 0.942543
O O5 0.845473 0.612840 0.197118
O O6 0.955703 0.745416 0.201309
O O7 0.863374 0.904465 0.165603
O O8 0.907999 0.667286 0.058197
O O9 0.313598 0.837239 0.389818
O O10 0.306744 0.537519 0.428733
O O11 0.408915 0.729863 0.426518
O O12 0.471546 0.629761 0.301984
O O13 0.524000 0.453004 0.170015
O O14 0.760345 0.997726 0.218620
O O15 0.474783 0.263337 0.067401
O O16 0.500000 0.000000 0.000000
O O17 0.750000 0.750000 0.621737
#
# Coordination Sequence:
#
# PCOD9433020 Si02
#       8
#     8   8   8   8   8   8   8   8
#     4  12  25  44  72 111 148 189 247 299 371 455
#     4  11  21  41  71  97 140 188 240 300 366 436
#     4  12  23  45  74  98 141 190 239 304 372 429
#     4  12  24  40  68 107 155 195 242 288 378 451
#     4  11  25  47  70 102 141 194 245 310 364 435
#     4  12  22  38  66 104 147 188 231 295 365 450
#     4  10  24  46  74  96 132 195 247 305 374 422
#     4  12  25  39  67 106 150 197 232 296 364 452
#
# _framework density 22.339320000000001
#
# number of rings (size 3 to 8) (size 9 to 14) (size 15 to 20)
#    0.000    0.500    6.250    1.875    3.500    1.000 
#    0.000    4.375    2.750    0.000    0.000    0.000 
#    0.000    0.000    0.000    0.000    0.000    0.000 
#
# Total GULP energy -356795.447630 kJ/mol
# GULP energy per Si atom -5574.928869 kJ/mol
# Density = 2.228847 g / cm^3
# Si number density = 22.339320 Si / 1000 Ang^3
#
#
#
# Elastic Constant Matrix: (Units=GPa)
#
#
# Indices 1 2 3 4 5 6 
#
# 1 103.0904 35.5138 38.3144 0.0000 0.0000 0.0000
# 2 35.5138 59.3164 22.5738 0.0000 0.0000 0.0000
# 3 38.3144 22.5738 62.3220 0.0000 0.0000 0.0000
# 4 0.0000 0.0000 0.0000 27.9263 0.0000 0.0000
# 5 0.0000 0.0000 0.0000 0.0000 13.3078 0.0000
# 6 0.0000 0.0000 0.0000 0.0000 0.0000 34.5155
#
#
#
# Elastic Compliance Matrix: (Units=1/GPa)
#
#
# Indices 1 2 3 4 5 6 
#
# 1 0.014208 -0.006011 -0.006558 0.000000 0.000000 0.000000
# 2 -0.006011 0.022097 -0.004308 0.000000 0.000000 0.000000
# 3 -0.006558 -0.004308 0.021638 0.000000 0.000000 0.000000
# 4 0.000000 0.000000 0.000000 0.035809 0.000000 0.000000
# 5 0.000000 0.000000 0.000000 0.000000 0.075144 0.000000
# 6 0.000000 0.000000 0.000000 0.000000 0.000000 0.028972
#
#
# Mechanical properties :
#
#
# Convention : Reuss Voigt Hill
#
# Bulk Modulus (GPa) = 41.34109 46.39253 43.86681
# Shear Modulus (GPa) = 20.86069 23.70506 22.28287
#
# Velocity S-wave (km/s) = 3.05915 3.26104 3.16171
# Velocity P-wave (km/s) = 5.56992 5.91536 5.74524
#
# Compressibility (1/GPa) = 0.02418901
#
# Stress axis : x y z
#
# Youngs Moduli (GPa) = 70.38190 45.25437 46.21546
#
# Poissons Ratio (x) = 0.27203 0.30306
# Poissons Ratio (y) = 0.42307 0.19911
# Poissons Ratio (z) = 0.46154 0.19497
#
# Static dielectric constant tensor:
#      x y z
#    x 1.878340 0.000000 0.000000 
#    y 0.000000 2.046040 0.000000 
#    z 0.000000 0.000000 1.849480 
# 
# From -- ./inp_files/13299.got.cif
#   From: 2010.05.17/outbox.cif.g08.bks.cpg/sg56_7_cif.got.tgz:13299.got - 2010.06.03 13:42:01.
