data_PCOD9433520
_publ_section_title
;
Structure prediction by ZEFSAII (Michael W. Deem and Ramdas Pophale) SiO2 
 PCOD9433520
Probable space group: P C C N
;
_chemical_formula_sum "Si O2"
_cell_formula_units_Z 56
_cell_length_a 9.115117
_cell_length_b 21.868292
_cell_length_c 13.883554
_cell_angle_alpha 90.000000
_cell_angle_beta 90.000000
_cell_angle_gamma 90.000000
_cell_volume 2767.437144
_symmetry_space_group_name_H-M "P C C N"
_symmetry_group_IT_number 56
_symmetry_cell_setting 'orthorhombic'
loop_
_space_group_symop_operation_xyz
x,y,z
1/2-x,1/2-y,z
1/2+x,-y,1/2-z
-x,1/2+y,1/2-z
-x,-y,-z
1/2+x,1/2+y,-z
1/2-x,y,1/2+z
x,1/2-y,1/2+z
loop_
_atom_site_type_symbol
_atom_site_label
_atom_site_fract_x
_atom_site_fract_y
_atom_site_fract_z
Si Si1 0.084813 0.256873 0.153899
Si Si2 0.231081 0.894137 0.129620
Si Si3 0.555224 0.892818 0.762198
Si Si4 0.502524 0.190218 0.844004
Si Si5 0.446226 0.699218 0.021351
Si Si6 0.861527 0.978991 0.437156
Si Si7 0.267759 0.377784 0.926562
O O1 0.250000 0.250000 0.113947
O O2 0.063643 0.326144 0.188683
O O3 0.072935 0.213207 0.246736
O O4 0.962454 0.234574 0.078674
O O5 0.372058 0.859646 0.172681
O O6 0.176621 0.851662 0.040405
O O7 0.098874 0.897307 0.205934
O O8 0.273455 0.961071 0.094345
O O9 0.580904 0.942900 0.843746
O O10 0.679511 0.898533 0.679542
O O11 0.567315 0.250076 0.895558
O O12 0.379658 0.161334 0.913234
O O13 0.600126 0.664075 0.035975
O O14 0.764516 0.933145 0.501673
O O15 0.000000 0.000000 0.500000
#
# Coordination Sequence:
#
# PCOD9433520 Si02
#       7
#     8   8   8   8   8   8   8
#     4  12  22  41  75 104 136 181 229 282 356 423
#     4  11  27  46  66 100 146 182 231 294 354 412
#     4  11  26  46  70 106 135 183 241 289 349 418
#     4  12  21  44  68 102 142 175 220 291 356 414
#     4  11  24  42  68 105 139 176 229 286 346 430
#     4  12  27  47  71  97 139 191 240 286 348 414
#     4  11  23  46  73  97 138 182 237 286 337 426
#
# _framework density 20.235329
#
# number of rings (size 3 to 8) (size 9 to 14) (size 15 to 20)
#    0.000    0.571    5.714    3.429    2.000    3.429 
#    2.571    0.000    0.000    0.000    0.000    0.000 
#    0.000    0.000    0.000    0.000    0.000    0.000 
#
# Total GULP energy -313304.585574 kJ/mol
# GULP energy per Si atom -5594.724742 kJ/mol
# Density = 2.018927 g / cm^3
# Si number density = 20.235329 Si / 1000 Ang^3
#
#
#
# Elastic Constant Matrix: (Units=GPa)
#
#
# Indices 1 2 3 4 5 6 
#
# 1 77.8616 42.8000 1.4309 0.0000 0.0000 0.0000
# 2 42.8000 121.5848 44.2660 0.0000 0.0000 0.0000
# 3 1.4309 44.2660 59.4843 0.0000 0.0000 0.0000
# 4 0.0000 0.0000 0.0000 38.0880 0.0000 0.0000
# 5 0.0000 0.0000 0.0000 0.0000 16.5934 0.0000
# 6 0.0000 0.0000 0.0000 0.0000 0.0000 35.0450
#
#
#
# Elastic Compliance Matrix: (Units=1/GPa)
#
#
# Indices 1 2 3 4 5 6 
#
# 1 0.017189 -0.008093 0.005609 0.000000 0.000000 0.000000
# 2 -0.008093 0.015091 -0.011036 0.000000 0.000000 0.000000
# 3 0.005609 -0.011036 0.024889 0.000000 0.000000 0.000000
# 4 0.000000 0.000000 0.000000 0.026255 0.000000 0.000000
# 5 0.000000 0.000000 0.000000 0.000000 0.060265 0.000000
# 6 0.000000 0.000000 0.000000 0.000000 0.000000 0.028535
#
#
# Mechanical properties :
#
#
# Convention : Reuss Voigt Hill
#
# Bulk Modulus (GPa) = 33.19016 48.43604 40.81310
# Shear Modulus (GPa) = 23.88849 29.30754 26.59802
#
# Velocity S-wave (km/s) = 3.43962 3.80983 3.62945
# Velocity P-wave (km/s) = 5.67559 6.58342 6.14629
#
# Compressibility (1/GPa) = 0.03012941
#
# Stress axis : x y z
#
# Youngs Moduli (GPa) = 58.17747 66.26309 40.17903
#
# Poissons Ratio (x) = 0.53625 -0.22536
# Poissons Ratio (y) = 0.47082 0.44341
# Poissons Ratio (z) = -0.32631 0.73126
#
# Static dielectric constant tensor:
#      x y z
#    x 1.731300 0.000000 0.000000 
#    y 0.000000 1.692860 0.000000 
#    z 0.000000 0.000000 1.720550 
# 
# From -- ./inp_files/10880.got.cif
#   From: 2010.05.17/outbox.cif.g08.bks.cpg/sg56_6_cif.got.tgz:10880.got - 2010.06.03 13:42:01.
