data_PCOD9433089
_publ_section_title
;
Structure prediction by ZEFSAII (Michael W. Deem and Ramdas Pophale) SiO2 
 PCOD9433089
Probable space group: P C C N
;
_chemical_formula_sum "Si O2"
_cell_formula_units_Z 60
_cell_length_a 17.341994
_cell_length_b 18.324146
_cell_length_c 7.725789
_cell_angle_alpha 90.000000
_cell_angle_beta 90.000000
_cell_angle_gamma 90.000000
_cell_volume 2455.079828
_symmetry_space_group_name_H-M "P C C N"
_symmetry_group_IT_number 56
_symmetry_cell_setting 'orthorhombic'
loop_
_space_group_symop_operation_xyz
x,y,z
1/2-x,1/2-y,z
1/2+x,-y,1/2-z
-x,1/2+y,1/2-z
-x,-y,-z
1/2+x,1/2+y,-z
1/2-x,y,1/2+z
x,1/2-y,1/2+z
loop_
_atom_site_type_symbol
_atom_site_label
_atom_site_fract_x
_atom_site_fract_y
_atom_site_fract_z
Si Si1 0.164427 0.606578 0.966017
Si Si2 0.439490 0.206319 0.217884
Si Si3 0.750000 0.250000 0.951906
Si Si4 0.903772 0.321740 0.348220
Si Si5 0.099622 0.147790 0.342315
Si Si6 0.276411 0.449126 0.523246
Si Si7 0.625316 0.935777 0.627320
Si Si8 0.943374 0.090272 0.193794
O O1 0.111749 0.616874 0.796986
O O2 0.211020 0.531688 0.959943
O O3 0.224801 0.673447 0.962802
O O4 0.111710 0.605081 0.139069
O O5 0.525761 0.225757 0.275635
O O6 0.387160 0.277491 0.237396
O O7 0.417430 0.140097 0.344781
O O8 0.435945 0.175494 0.025714
O O9 0.671296 0.271613 0.857644
O O10 0.920995 0.357830 0.533114
O O11 0.175333 0.105065 0.400920
O O12 0.032142 0.101813 0.249722
O O13 0.318009 0.443070 0.707095
O O14 0.185835 0.433552 0.527954
O O15 0.572260 0.006834 0.635109
#
# Coordination Sequence:
#
# PCOD9433089 Si02
#       8
#     8   8   4   8   8   8   8   8
#     4  11  26  45  66 100 150 183 241 290 350 431
#     4  11  25  46  72 105 141 186 242 309 363 430
#     4  12  28  42  68 104 144 196 228 286 360 424
#     4  12  27  43  70 100 144 191 239 289 354 436
#     4  11  24  47  71 103 143 187 242 308 363 428
#     4  10  25  45  72  98 144 189 235 310 361 430
#     4  10  25  45  71 104 141 187 241 302 370 431
#     4  11  25  45  71 103 141 189 237 289 359 435
#
# _framework density 24.439124
#
# number of rings (size 3 to 8) (size 9 to 14) (size 15 to 20)
#    0.000    1.067    1.333    2.800   13.067    4.800 
#    0.000    2.667    0.000    0.000    0.000    0.000 
#    0.000    0.000    0.000    0.000    0.000    0.000 
#
# Total GULP energy -336187.282003 kJ/mol
# GULP energy per Si atom -5603.121367 kJ/mol
# Density = 2.438350 g / cm^3
# Si number density = 24.439124 Si / 1000 Ang^3
#
#
#
# Elastic Constant Matrix: (Units=GPa)
#
#
# Indices 1 2 3 4 5 6 
#
# 1 94.1051 45.9166 21.2198 0.0000 0.0000 0.0000
# 2 45.9166 119.0347 16.1217 0.0000 0.0000 0.0000
# 3 21.2198 16.1217 108.2481 0.0000 0.0000 0.0000
# 4 0.0000 0.0000 0.0000 6.1029 0.0000 0.0000
# 5 0.0000 0.0000 0.0000 0.0000 32.2185 0.0000
# 6 0.0000 0.0000 0.0000 0.0000 0.0000 40.6732
#
#
#
# Elastic Compliance Matrix: (Units=1/GPa)
#
#
# Indices 1 2 3 4 5 6 
#
# 1 0.013464 -0.004936 -0.001904 0.000000 0.000000 0.000000
# 2 -0.004936 0.010383 -0.000579 0.000000 0.000000 0.000000
# 3 -0.001904 -0.000579 0.009698 0.000000 0.000000 0.000000
# 4 0.000000 0.000000 0.000000 0.163858 0.000000 0.000000
# 5 0.000000 0.000000 0.000000 0.000000 0.031038 0.000000
# 6 0.000000 0.000000 0.000000 0.000000 0.000000 0.024586
#
#
# Mechanical properties :
#
#
# Convention : Reuss Voigt Hill
#
# Bulk Modulus (GPa) = 53.45553 54.21157 53.83355
# Shear Modulus (GPa) = 18.24150 31.67424 24.95787
#
# Velocity S-wave (km/s) = 2.73501 3.60397 3.19913
# Velocity P-wave (km/s) = 5.64749 6.28877 5.97673
#
# Compressibility (1/GPa) = 0.01870714
#
# Stress axis : x y z
#
# Youngs Moduli (GPa) = 74.27148 96.30901 103.11891
#
# Poissons Ratio (x) = 0.47536 0.19637
# Poissons Ratio (y) = 0.36659 0.05969
# Poissons Ratio (z) = 0.14143 0.05575
#
# Static dielectric constant tensor:
#      x y z
#    x 1.944640 0.000000 0.000000 
#    y 0.000000 1.961010 0.000000 
#    z 0.000000 0.000000 2.007530 
# 
# From -- ./inp_files/4118.got.cif
#   From: 2010.05.17/outbox.cif.g08.bks.cpg/sg56_3_cif.got.tgz:4118.got - 2010.06.03 13:42:01.
