data_PCOD9433949
_publ_section_title
;
Structure prediction by ZEFSAII (Michael W. Deem and Ramdas Pophale) SiO2 
 PCOD9433949
Probable space group: P C C N
;
_chemical_formula_sum "Si O2"
_cell_formula_units_Z 64
_cell_length_a 24.000000
_cell_length_b 15.000000
_cell_length_c 9.000000
_cell_angle_alpha 90.000000
_cell_angle_beta 90.000000
_cell_angle_gamma 90.000000
_cell_volume 3240.000000
_symmetry_space_group_name_H-M "P C C N"
_symmetry_group_IT_number 56
_symmetry_cell_setting 'orthorhombic'
loop_
_space_group_symop_operation_xyz
x,y,z
1/2-x,1/2-y,z
1/2+x,-y,1/2-z
-x,1/2+y,1/2-z
-x,-y,-z
1/2+x,1/2+y,-z
1/2-x,y,1/2+z
x,1/2-y,1/2+z
loop_
_atom_site_type_symbol
_atom_site_label
_atom_site_fract_x
_atom_site_fract_y
_atom_site_fract_z
Si Si1 0.622565 0.365938 0.802000
Si Si2 0.993648 0.471819 0.323285
Si Si3 0.597363 0.194219 0.629619
Si Si4 0.976034 0.663508 0.274912
Si Si5 0.229402 0.857258 0.380818
Si Si6 0.174173 0.928466 0.690530
Si Si7 0.111405 0.114961 0.713041
Si Si8 0.090962 0.237943 0.969069
O O1 0.566422 0.425178 0.803428
O O2 0.612789 0.291862 0.677748
O O3 0.684794 0.388981 0.747366
O O4 0.622047 0.329135 0.969781
O O5 0.987398 0.562695 0.230823
O O6 0.000000 0.500000 0.500000
O O7 0.048782 0.419887 0.263544
O O8 0.531111 0.191995 0.637788
O O9 0.621107 0.130299 0.758491
O O10 0.928433 0.671768 0.400018
O O11 0.958712 0.724470 0.136832
O O12 0.250000 0.750000 0.379567
O O13 0.202937 0.888705 0.539663
O O14 0.283661 0.911445 0.327672
O O15 0.151282 0.029807 0.687024
O O16 0.127389 0.180939 0.851282
O O17 0.110688 0.175794 0.563912
#
# Coordination Sequence:
#
# PCOD9433949 Si02
#       8
#     8   8   8   8   8   8   8   8
#     4  12  25  40  68  97 140 186 230 277 346 414
#     4  12  22  39  64 104 145 181 230 282 346 423
#     4  12  22  39  62  96 135 184 227 270 333 409
#     4  11  21  39  61  95 143 183 223 273 333 413
#     4  12  27  48  69 101 136 185 232 286 354 423
#     4  12  26  45  70  96 135 177 230 291 345 421
#     4  11  23  45  68 103 136 180 230 289 357 420
#     4  10  23  40  65  93 138 183 222 278 350 408
#
# _framework density 19.753086
#
# number of rings (size 3 to 8) (size 9 to 14) (size 15 to 20)
#    0.000    0.500    5.000    4.125    1.750    1.500 
#    0.000    0.000    0.000    2.250    0.000    0.000 
#    0.000    0.000    0.000    0.000    0.000    0.000 
#
# Total GULP energy -356672.590394 kJ/mol
# GULP energy per Si atom -5573.009225 kJ/mol
# Density = 1.970813 g / cm^3
# Si number density = 19.753086 Si / 1000 Ang^3
#
#
#
# Elastic Constant Matrix: (Units=GPa)
#
#
# Indices 1 2 3 4 5 6 
#
# 1 67.5560 36.9234 30.5656 0.0000 0.0000 0.0000
# 2 36.9234 101.1985 16.7050 0.0000 0.0000 0.0000
# 3 30.5656 16.7050 101.7662 0.0000 0.0000 0.0000
# 4 0.0000 0.0000 0.0000 23.2241 0.0000 0.0000
# 5 0.0000 0.0000 0.0000 0.0000 14.5786 0.0000
# 6 0.0000 0.0000 0.0000 0.0000 0.0000 -33.3626
#
#
#
# Elastic Compliance Matrix: (Units=1/GPa)
#
#
# Indices 1 2 3 4 5 6 
#
# 1 0.020818 -0.006746 -0.005145 0.000000 0.000000 0.000000
# 2 -0.006746 0.012343 0.000000 0.000000 0.000000 0.000000
# 3 -0.005145 0.000000 0.011372 0.000000 0.000000 0.000000
# 4 0.000000 0.000000 0.000000 0.043059 0.000000 0.000000
# 5 0.000000 0.000000 0.000000 0.000000 0.068594 0.000000
# 6 0.000000 0.000000 0.000000 0.000000 0.000000 -0.029974
#
#
# Mechanical properties :
#
#
# Convention : Reuss Voigt Hill
#
# Bulk Modulus (GPa) = 48.19317 48.76763 48.48040
# Shear Modulus (GPa) = 31.86530 13.30981 22.58755
#
# Velocity S-wave (km/s) = 4.02080 2.59860 3.38523
# Velocity P-wave (km/s) = 6.78281 5.80912 6.31476
#
# Compressibility (1/GPa) = 0.02074983
#
# Stress axis : x y z
#
# Youngs Moduli (GPa) = 48.03604 81.01766 87.93689
#
# Poissons Ratio (x) = 0.54657 0.45245
# Poissons Ratio (y) = 0.32406 -0.00001
# Poissons Ratio (z) = 0.24716 -0.00001
#
# Static dielectric constant tensor:
#      x y z
#    x 0.961070 0.000000 0.000000 
#    y 0.000000 1.761960 0.000000 
#    z 0.000000 0.000000 1.689950 
# 
# From -- ./inp_files/4824.got.cif
#   From: 2010.05.17/outbox.ucp.g08.bks.cvg/sg56_3_cif.got.tgz:4824.got - 2010.06.11 16:37:52.
