data_PCOD9433516
_publ_section_title
;
Structure prediction by ZEFSAII (Michael W. Deem and Ramdas Pophale) SiO2 
 PCOD9433516
Probable space group: P C C N
;
_chemical_formula_sum "Si O2"
_cell_formula_units_Z 40
_cell_length_a 16.170737
_cell_length_b 8.695711
_cell_length_c 11.103716
_cell_angle_alpha 90.000000
_cell_angle_beta 90.000000
_cell_angle_gamma 90.000000
_cell_volume 1561.360747
_symmetry_space_group_name_H-M "P C C N"
_symmetry_group_IT_number 56
_symmetry_cell_setting 'orthorhombic'
loop_
_space_group_symop_operation_xyz
x,y,z
1/2-x,1/2-y,z
1/2+x,-y,1/2-z
-x,1/2+y,1/2-z
-x,-y,-z
1/2+x,1/2+y,-z
1/2-x,y,1/2+z
x,1/2-y,1/2+z
loop_
_atom_site_type_symbol
_atom_site_label
_atom_site_fract_x
_atom_site_fract_y
_atom_site_fract_z
Si Si1 0.481918 0.620832 0.770474
Si Si2 0.167164 0.662168 0.861449
Si Si3 0.100896 0.428303 0.059895
Si Si4 0.721517 0.584724 0.231264
Si Si5 0.935946 0.850092 0.105699
O O1 0.403923 0.729253 0.806442
O O2 0.457241 0.520445 0.652616
O O3 0.500729 0.489641 0.870607
O O4 0.551729 0.733543 0.719740
O O5 0.250000 0.750000 0.908119
O O6 0.125805 0.551380 0.958989
O O7 0.209203 0.544783 0.767160
O O8 0.066656 0.268335 0.004931
O O9 0.182525 0.399426 0.137694
O O10 0.750000 0.750000 0.190838
O O11 0.649139 0.559922 0.131922
#
# Coordination Sequence:
#
# PCOD9433516 Si02
#       5
#     8   8   8   8   8
#     4  11  26  47  71 104 144 183 234 292 350 424
#     4  12  24  45  69 102 139 184 235 292 350 412
#     4  11  25  43  71  98 143 179 238 283 351 420
#     4  11  25  44  69 102 138 183 235 292 346 417
#     4  11  23  46  69 101 140 185 225 294 347 415
#
# _framework density 25.618677999999999
#
# number of rings (size 3 to 8) (size 9 to 14) (size 15 to 20)
#    0.000    0.800    6.000    1.800    5.600    1.600 
#    0.000    5.000    0.000    0.000    0.000    0.000 
#    0.000    0.000    0.000    0.000    0.000    0.000 
#
# Total GULP energy -223503.695509 kJ/mol
# GULP energy per Si atom -5587.592388 kJ/mol
# Density = 2.556037 g / cm^3
# Si number density = 25.618678 Si / 1000 Ang^3
#
#
#
# Elastic Constant Matrix: (Units=GPa)
#
#
# Indices 1 2 3 4 5 6 
#
# 1 58.0742 33.5670 20.5051 0.0000 0.0000 0.0000
# 2 33.5670 176.2225 47.6593 0.0000 0.0000 0.0000
# 3 20.5051 47.6593 95.5559 0.0000 0.0000 0.0000
# 4 0.0000 0.0000 0.0000 1.6786 0.0000 0.0000
# 5 0.0000 0.0000 0.0000 0.0000 27.4350 0.0000
# 6 0.0000 0.0000 0.0000 0.0000 0.0000 63.2834
#
#
#
# Elastic Compliance Matrix: (Units=1/GPa)
#
#
# Indices 1 2 3 4 5 6 
#
# 1 0.019960 -0.003056 -0.002759 0.000000 0.000000 0.000000
# 2 -0.003056 0.007027 -0.002849 0.000000 0.000000 0.000000
# 3 -0.002759 -0.002849 0.012478 0.000000 0.000000 0.000000
# 4 0.000000 0.000000 0.000000 0.595735 0.000000 0.000000
# 5 0.000000 0.000000 0.000000 0.000000 0.036450 0.000000
# 6 0.000000 0.000000 0.000000 0.000000 0.000000 0.015802
#
#
# Mechanical properties :
#
#
# Convention : Reuss Voigt Hill
#
# Bulk Modulus (GPa) = 45.17271 59.25729 52.21500
# Shear Modulus (GPa) = 7.02091 33.68748 20.35419
#
# Velocity S-wave (km/s) = 1.65725 3.63017 2.82176
# Velocity P-wave (km/s) = 4.61877 6.38369 5.57156
#
# Compressibility (1/GPa) = 0.02213726
#
# Stress axis : x y z
#
# Youngs Moduli (GPa) = 50.10084 142.30275 80.13990
#
# Poissons Ratio (x) = 0.43485 0.22111
# Poissons Ratio (y) = 0.15310 0.22833
# Poissons Ratio (z) = 0.13823 0.40545
#
# Static dielectric constant tensor:
#      x y z
#    x 2.134250 0.000000 0.000000 
#    y 0.000000 2.091690 0.000000 
#    z 0.000000 0.000000 2.059020 
# 
# From -- ./inp_files/8591.got.cif
#   From: 2010.05.17/outbox.cif.g08.bks.cpg/sg56_5_cif.got.tgz:8591.got - 2010.06.03 13:42:01.
