data_PCOD9433739
_publ_section_title
;
Structure prediction by ZEFSAII (Michael W. Deem and Ramdas Pophale) SiO2 
 PCOD9433739
Probable space group: P C C N
;
_chemical_formula_sum "Si O2"
_cell_formula_units_Z 36
_cell_length_a 12.272362
_cell_length_b 5.313108
_cell_length_c 22.803885
_cell_angle_alpha 90.000000
_cell_angle_beta 90.000000
_cell_angle_gamma 90.000000
_cell_volume 1486.913291
_symmetry_space_group_name_H-M "P C C N"
_symmetry_group_IT_number 56
_symmetry_cell_setting 'orthorhombic'
loop_
_space_group_symop_operation_xyz
x,y,z
1/2-x,1/2-y,z
1/2+x,-y,1/2-z
-x,1/2+y,1/2-z
-x,-y,-z
1/2+x,1/2+y,-z
1/2-x,y,1/2+z
x,1/2-y,1/2+z
loop_
_atom_site_type_symbol
_atom_site_label
_atom_site_fract_x
_atom_site_fract_y
_atom_site_fract_z
Si Si1 0.453672 0.811476 0.452825
Si Si2 0.316743 0.504137 0.854525
Si Si3 0.067479 0.683342 0.240604
Si Si4 0.672387 0.954276 0.962571
Si Si5 0.750000 0.250000 0.356949
O O1 0.418124 0.977212 0.397860
O O2 0.362107 0.655370 0.488056
O O3 0.555075 0.632617 0.438260
O O4 0.500000 0.000000 0.500000
O O5 0.250000 0.750000 0.871749
O O6 0.354567 0.556064 0.788732
O O7 0.250000 0.250000 0.859220
O O8 0.142570 0.741939 0.183964
O O9 0.979221 0.452622 0.234670
O O10 0.750000 0.750000 0.993095
O O11 0.741553 0.029941 0.905186
#
# Coordination Sequence:
#
# PCOD9433739 Si02
#       5
#     8   8   8   8   4
#     4  11  28  47  76 116 158 207 260 327 401 475
#     4  12  29  50  78 114 158 205 259 326 396 469
#     4  12  29  52  81 115 156 208 265 330 394 470
#     4  11  27  48  77 115 157 207 265 325 396 477
#     4  12  28  48  80 112 156 212 268 330 394 480
#
# _framework density 24.211233
#
# number of rings (size 3 to 8) (size 9 to 14) (size 15 to 20)
#    0.000    0.444    1.111    4.000   20.222    0.000 
#    0.000    0.000    0.000    0.000    0.000    0.000 
#    0.000    0.000    0.000    0.000    0.000    0.000 
#
# Total GULP energy -201297.874111 kJ/mol
# GULP energy per Si atom -5591.607614 kJ/mol
# Density = 2.415613 g / cm^3
# Si number density = 24.211233 Si / 1000 Ang^3
#
#
#
# Elastic Constant Matrix: (Units=GPa)
#
#
# Indices 1 2 3 4 5 6 
#
# 1 89.0106 62.1184 27.2229 0.0000 0.0000 0.0000
# 2 62.1184 155.5113 34.2791 0.0000 0.0000 0.0000
# 3 27.2229 34.2791 108.7863 0.0000 0.0000 0.0000
# 4 0.0000 0.0000 0.0000 32.7535 0.0000 0.0000
# 5 0.0000 0.0000 0.0000 0.0000 55.3470 0.0000
# 6 0.0000 0.0000 0.0000 0.0000 0.0000 69.0637
#
#
#
# Elastic Compliance Matrix: (Units=1/GPa)
#
#
# Indices 1 2 3 4 5 6 
#
# 1 0.016028 -0.005930 -0.002142 0.000000 0.000000 0.000000
# 2 -0.005930 0.009104 -0.001385 0.000000 0.000000 0.000000
# 3 -0.002142 -0.001385 0.010165 0.000000 0.000000 0.000000
# 4 0.000000 0.000000 0.000000 0.030531 0.000000 0.000000
# 5 0.000000 0.000000 0.000000 0.000000 0.018068 0.000000
# 6 0.000000 0.000000 0.000000 0.000000 0.000000 0.014479
#
#
# Mechanical properties :
#
#
# Convention : Reuss Voigt Hill
#
# Bulk Modulus (GPa) = 61.03963 66.72766 63.88365
# Shear Modulus (GPa) = 40.73258 46.74536 43.73897
#
# Velocity S-wave (km/s) = 4.10614 4.39877 4.25497
# Velocity P-wave (km/s) = 6.90988 7.30886 7.11217
#
# Compressibility (1/GPa) = 0.01638280
#
# Stress axis : x y z
#
# Youngs Moduli (GPa) = 62.38919 109.83596 98.37860
#
# Poissons Ratio (x) = 0.65136 0.21076
# Poissons Ratio (y) = 0.36998 0.13624
# Poissons Ratio (z) = 0.13366 0.15211
#
# Static dielectric constant tensor:
#      x y z
#    x 1.947830 0.000000 0.000000 
#    y 0.000000 2.068990 0.000000 
#    z 0.000000 0.000000 1.859920 
# 
# From -- ./inp_files/19894.got.cif
#   From: 2010.05.17/outbox.cif.g08.bks.cpg/sg56_10_cif.got.tgz:19894.got - 2010.06.03 13:42:01.
