data_PCOD9433859
_publ_section_title
;
Structure prediction by ZEFSAII (Michael W. Deem and Ramdas Pophale) SiO2 
 PCOD9433859
Probable space group: P C C N
;
_chemical_formula_sum "Si O2"
_cell_formula_units_Z 24
_cell_length_a 11.490344
_cell_length_b 7.707627
_cell_length_c 9.994957
_cell_angle_alpha 90.000000
_cell_angle_beta 90.000000
_cell_angle_gamma 90.000000
_cell_volume 885.186232
_symmetry_space_group_name_H-M "P C C N"
_symmetry_group_IT_number 56
_symmetry_cell_setting 'orthorhombic'
loop_
_space_group_symop_operation_xyz
x,y,z
1/2-x,1/2-y,z
1/2+x,-y,1/2-z
-x,1/2+y,1/2-z
-x,-y,-z
1/2+x,1/2+y,-z
1/2-x,y,1/2+z
x,1/2-y,1/2+z
loop_
_atom_site_type_symbol
_atom_site_label
_atom_site_fract_x
_atom_site_fract_y
_atom_site_fract_z
Si Si1 0.579348 0.244091 0.327918
Si Si2 0.875138 0.435823 0.562889
Si Si3 0.672823 0.608343 0.688569
O O1 0.632029 0.239524 0.475285
O O2 0.615582 0.384857 0.218467
O O3 0.443116 0.284443 0.345871
O O4 0.626098 0.062223 0.265011
O O5 0.759537 0.552620 0.567747
O O6 0.000000 0.500000 0.500000
O O7 0.750000 0.750000 0.768919
#
# Coordination Sequence:
#
# PCOD9433859 Si02
#       3
#     8   8   8
#     4  12  28  53  84 132 171 240 301 368 464 533
#     4  12  27  54  82 131 175 236 302 370 459 535
#     4  12  26  50  86 124 179 227 295 382 436 559
#
# _framework density 27.112939000000001
#
# number of rings (size 3 to 8) (size 9 to 14) (size 15 to 20)
#    0.000    0.000    6.667    1.000    0.000   10.667 
#    0.000    0.000    0.000    0.000    0.000    0.000 
#    0.000    0.000    0.000    0.000    0.000    0.000 
#
# Total GULP energy -133839.766747 kJ/mol
# GULP energy per Si atom -5576.656948 kJ/mol
# Density = 2.705123 g / cm^3
# Si number density = 27.112939 Si / 1000 Ang^3
#
#
#
# Elastic Constant Matrix: (Units=GPa)
#
#
# Indices 1 2 3 4 5 6 
#
# 1 269.0686 81.7142 54.8637 0.0000 0.0000 0.0000
# 2 81.7142 125.3323 20.4345 0.0000 0.0000 0.0000
# 3 54.8637 20.4345 118.9476 0.0000 0.0000 0.0000
# 4 0.0000 0.0000 0.0000 43.4661 0.0000 0.0000
# 5 0.0000 0.0000 0.0000 0.0000 25.4647 0.0000
# 6 0.0000 0.0000 0.0000 0.0000 0.0000 62.0662
#
#
#
# Elastic Compliance Matrix: (Units=1/GPa)
#
#
# Indices 1 2 3 4 5 6 
#
# 1 0.004978 -0.002954 -0.001789 0.000000 0.000000 0.000000
# 2 -0.002954 0.009962 -0.000349 0.000000 0.000000 0.000000
# 3 -0.001789 -0.000349 0.009292 0.000000 0.000000 0.000000
# 4 0.000000 0.000000 0.000000 0.023006 0.000000 0.000000
# 5 0.000000 0.000000 0.000000 0.000000 0.039270 0.000000
# 6 0.000000 0.000000 0.000000 0.000000 0.000000 0.016112
#
#
# Mechanical properties :
#
#
# Convention : Reuss Voigt Hill
#
# Bulk Modulus (GPa) = 71.18062 91.93036 81.55549
# Shear Modulus (GPa) = 42.55796 49.95514 46.25655
#
# Velocity S-wave (km/s) = 3.96619 4.29707 4.13494
# Velocity P-wave (km/s) = 6.87638 7.65505 7.27614
#
# Compressibility (1/GPa) = 0.01404877
#
# Stress axis : x y z
#
# Youngs Moduli (GPa) = 200.86695 100.38418 107.61919
#
# Poissons Ratio (x) = 0.29655 0.19250
# Poissons Ratio (y) = 0.59340 0.03753
# Poissons Ratio (z) = 0.35930 0.03501
#
# Static dielectric constant tensor:
#      x y z
#    x 2.320710 0.000000 0.000000 
#    y 0.000000 2.416130 0.000000 
#    z 0.000000 0.000000 2.162980 
# 
# From -- ./inp_files/6663.got.cif
#   From: 2010.05.17/outbox.cif.g08.bks.cpg/sg56_4_cif.got.tgz:6663.got - 2010.06.03 13:42:01.
