data_PCOD9433013
_publ_section_title
;
Structure prediction by ZEFSAII (Michael W. Deem and Ramdas Pophale) SiO2 
 PCOD9433013
Probable space group: P C C N
;
_chemical_formula_sum "Si O2"
_cell_formula_units_Z 40
_cell_length_a 17.112804
_cell_length_b 8.795791
_cell_length_c 9.824095
_cell_angle_alpha 90.000000
_cell_angle_beta 90.000000
_cell_angle_gamma 90.000000
_cell_volume 1478.729140
_symmetry_space_group_name_H-M "P C C N"
_symmetry_group_IT_number 56
_symmetry_cell_setting 'orthorhombic'
loop_
_space_group_symop_operation_xyz
x,y,z
1/2-x,1/2-y,z
1/2+x,-y,1/2-z
-x,1/2+y,1/2-z
-x,-y,-z
1/2+x,1/2+y,-z
1/2-x,y,1/2+z
x,1/2-y,1/2+z
loop_
_atom_site_type_symbol
_atom_site_label
_atom_site_fract_x
_atom_site_fract_y
_atom_site_fract_z
Si Si1 0.386166 0.065571 0.540200
Si Si2 0.250000 0.750000 0.263845
Si Si3 0.507212 0.680052 0.373828
Si Si4 0.399636 0.585607 0.752260
Si Si5 0.750000 0.750000 0.546865
Si Si6 0.363035 0.501439 0.345159
O O1 0.450394 0.199800 0.527206
O O2 0.299458 0.133891 0.541041
O O3 0.395666 0.001499 0.690871
O O4 0.388705 0.952847 0.413379
O O5 0.180422 0.655024 0.192543
O O6 0.296622 0.628159 0.351121
O O7 0.573633 0.572073 0.312089
O O8 0.466939 0.787598 0.258982
O O9 0.436894 0.571205 0.426095
O O10 0.682626 0.654927 0.625155
#
# Coordination Sequence:
#
# PCOD9433013 Si02
#       6
#     8   4   8   8   4   8
#     4  12  25  44  76 103 144 196 241 293 371 439
#     4  10  24  46  72  96 154 182 238 300 360 412
#     4  11  25  45  74 105 145 186 238 309 355 422
#     4  11  24  48  72 109 144 192 244 300 360 441
#     4  12  26  46  74 104 144 188 254 292 362 438
#     4  11  25  48  68 104 146 188 238 310 351 431
#
# _framework density 27.050253999999999
#
# number of rings (size 3 to 8) (size 9 to 14) (size 15 to 20)
#    0.000    0.800    4.000    2.400    2.800    1.600 
#    0.000    0.000    0.000    0.000    0.000    0.000 
#    0.000    0.000    0.000    0.000    0.000    0.000 
#
# Total GULP energy -223959.825390 kJ/mol
# GULP energy per Si atom -5598.995635 kJ/mol
# Density = 2.698869 g / cm^3
# Si number density = 27.050254 Si / 1000 Ang^3
#
#
#
# Elastic Constant Matrix: (Units=GPa)
#
#
# Indices 1 2 3 4 5 6 
#
# 1 147.2649 54.3450 11.2863 0.0000 0.0000 0.0000
# 2 54.3450 134.0092 27.0604 0.0000 0.0000 0.0000
# 3 11.2863 27.0604 69.6464 0.0000 0.0000 0.0000
# 4 0.0000 0.0000 0.0000 12.1534 0.0000 0.0000
# 5 0.0000 0.0000 0.0000 0.0000 19.7313 0.0000
# 6 0.0000 0.0000 0.0000 0.0000 0.0000 91.6688
#
#
#
# Elastic Compliance Matrix: (Units=1/GPa)
#
#
# Indices 1 2 3 4 5 6 
#
# 1 0.007986 -0.003231 -0.000039 0.000000 0.000000 0.000000
# 2 -0.003231 0.009404 -0.003130 0.000000 0.000000 0.000000
# 3 -0.000039 -0.003130 0.015581 0.000000 0.000000 0.000000
# 4 0.000000 0.000000 0.000000 0.082282 0.000000 0.000000
# 5 0.000000 0.000000 0.000000 0.000000 0.050681 0.000000
# 6 0.000000 0.000000 0.000000 0.000000 0.000000 0.010909
#
#
# Mechanical properties :
#
#
# Convention : Reuss Voigt Hill
#
# Bulk Modulus (GPa) = 49.57597 59.58932 54.58265
# Shear Modulus (GPa) = 25.46265 41.92594 33.69430
#
# Velocity S-wave (km/s) = 3.07140 3.94118 3.53316
# Velocity P-wave (km/s) = 5.56284 6.54122 6.07177
#
# Compressibility (1/GPa) = 0.02017106
#
# Stress axis : x y z
#
# Youngs Moduli (GPa) = 125.22467 106.33301 64.18133
#
# Poissons Ratio (x) = 0.34352 0.00249
# Poissons Ratio (y) = 0.40455 0.20092
# Poissons Ratio (z) = 0.00487 0.33287
#
# Static dielectric constant tensor:
#      x y z
#    x 2.098060 0.000000 0.000000 
#    y 0.000000 2.140930 0.000000 
#    z 0.000000 0.000000 2.075470 
# 
# From -- ./inp_files/8204.got.cif
#   From: 2010.05.17/outbox.cif.g08.bks.cpg/sg56_5_cif.got.tgz:8204.got - 2010.06.03 13:42:01.
