data_PCOD9433938
_publ_section_title
;
Structure prediction by ZEFSAII (Michael W. Deem and Ramdas Pophale) SiO2 
 PCOD9433938
Probable space group: P C C N
;
_chemical_formula_sum "Si O2"
_cell_formula_units_Z 40
_cell_length_a 9.000000
_cell_length_b 12.000000
_cell_length_c 18.000000
_cell_angle_alpha 90.000000
_cell_angle_beta 90.000000
_cell_angle_gamma 90.000000
_cell_volume 1944.000000
_symmetry_space_group_name_H-M "P C C N"
_symmetry_group_IT_number 56
_symmetry_cell_setting 'orthorhombic'
loop_
_space_group_symop_operation_xyz
x,y,z
1/2-x,1/2-y,z
1/2+x,-y,1/2-z
-x,1/2+y,1/2-z
-x,-y,-z
1/2+x,1/2+y,-z
1/2-x,y,1/2+z
x,1/2-y,1/2+z
loop_
_atom_site_type_symbol
_atom_site_label
_atom_site_fract_x
_atom_site_fract_y
_atom_site_fract_z
Si Si1 0.973547 0.475669 0.395206
Si Si2 0.466985 0.074895 0.101243
Si Si3 0.251387 0.465982 0.477940
Si Si4 0.092339 0.708436 0.336938
Si Si5 0.787031 0.370890 0.824124
O O1 0.858061 0.469171 0.464423
O O2 0.877018 0.428183 0.326461
O O3 0.129635 0.418719 0.419455
O O4 0.017732 0.603895 0.378340
O O5 0.490931 0.180763 0.155108
O O6 0.624907 0.037655 0.065807
O O7 0.395076 0.963714 0.138848
O O8 0.353823 0.106689 0.033828
O O9 0.250000 0.750000 0.370058
O O10 0.139104 0.663083 0.254895
O O11 0.750000 0.250000 0.861428
#
# Coordination Sequence:
#
# PCOD9433938 Si02
#       5
#     8   8   8   8   8
#     4  10  21  43  67 102 135 173 229 273 348 396
#     4  10  21  45  69 101 136 177 231 269 356 397
#     4   9  20  41  66  98 133 176 218 288 322 409
#     4  11  23  40  72  94 135 184 215 283 331 412
#     4  10  25  43  66  97 133 182 220 283 336 400
#
# _framework density 20.576132000000001
#
# number of rings (size 3 to 8) (size 9 to 14) (size 15 to 20)
#    0.000    2.000    2.000    0.000    5.600    3.200 
#   36.000    0.000   17.600    0.000    0.000    0.000 
#    0.000    0.000    0.000    0.000    0.000    0.000 
#
# Total GULP energy -222677.257020 kJ/mol
# GULP energy per Si atom -5566.931426 kJ/mol
# Density = 2.052930 g / cm^3
# Si number density = 20.576132 Si / 1000 Ang^3
#
#
#
# Elastic Constant Matrix: (Units=GPa)
#
#
# Indices 1 2 3 4 5 6 
#
# 1 160.1105 51.4663 48.2304 0.0000 0.0000 0.0000
# 2 51.4663 138.0759 45.6370 0.0000 0.0000 0.0000
# 3 48.2304 45.6370 91.5583 0.0000 0.0000 0.0000
# 4 0.0000 0.0000 0.0000 23.0018 0.0000 0.0000
# 5 0.0000 0.0000 0.0000 0.0000 39.9325 0.0000
# 6 0.0000 0.0000 0.0000 0.0000 0.0000 44.2768
#
#
#
# Elastic Compliance Matrix: (Units=1/GPa)
#
#
# Indices 1 2 3 4 5 6 
#
# 1 0.007801 -0.001855 -0.003185 0.000000 0.000000 0.000000
# 2 -0.001855 0.009112 -0.003565 0.000000 0.000000 0.000000
# 3 -0.003185 -0.003565 0.014376 0.000000 0.000000 0.000000
# 4 0.000000 0.000000 0.000000 0.043475 0.000000 0.000000
# 5 0.000000 0.000000 0.000000 0.000000 0.025042 0.000000
# 6 0.000000 0.000000 0.000000 0.000000 0.000000 0.022585
#
#
# Mechanical properties :
#
#
# Convention : Reuss Voigt Hill
#
# Bulk Modulus (GPa) = 71.01971 75.60134 73.31052
# Shear Modulus (GPa) = 34.65119 37.73628 36.19373
#
# Velocity S-wave (km/s) = 4.10817 4.28715 4.19861
# Velocity P-wave (km/s) = 7.55601 7.83123 7.69485
#
# Compressibility (1/GPa) = 0.01408060
#
# Stress axis : x y z
#
# Youngs Moduli (GPa) = 128.18196 109.74431 69.55822
#
# Poissons Ratio (x) = 0.20360 0.22153
# Poissons Ratio (y) = 0.23781 0.24795
# Poissons Ratio (z) = 0.40824 0.39120
#
# Static dielectric constant tensor:
#      x y z
#    x 1.765510 0.000000 0.000000 
#    y 0.000000 1.747340 0.000000 
#    z 0.000000 0.000000 1.826330 
# 
# From -- ./inp_files/14446.got.cif
#   From: 2010.05.17/outbox.ucp.g08.bks.cvg/sg56_8_cif.got.tgz:14446.got - 2010.06.11 16:37:52.
