data_PCOD9433817
_publ_section_title
;
Structure prediction by ZEFSAII (Michael W. Deem and Ramdas Pophale) SiO2 
 PCOD9433817
Probable space group: P C C N
;
_chemical_formula_sum "Si O2"
_cell_formula_units_Z 28
_cell_length_a 12.516830
_cell_length_b 7.079048
_cell_length_c 13.435242
_cell_angle_alpha 90.000000
_cell_angle_beta 90.000000
_cell_angle_gamma 90.000000
_cell_volume 1190.459717
_symmetry_space_group_name_H-M "P C C N"
_symmetry_group_IT_number 56
_symmetry_cell_setting 'orthorhombic'
loop_
_space_group_symop_operation_xyz
x,y,z
1/2-x,1/2-y,z
1/2+x,-y,1/2-z
-x,1/2+y,1/2-z
-x,-y,-z
1/2+x,1/2+y,-z
1/2-x,y,1/2+z
x,1/2-y,1/2+z
loop_
_atom_site_type_symbol
_atom_site_label
_atom_site_fract_x
_atom_site_fract_y
_atom_site_fract_z
Si Si1 0.907092 0.252363 0.270653
Si Si2 0.750000 0.250000 0.095352
Si Si3 0.119060 0.480288 0.542839
Si Si4 0.638176 0.679282 0.305995
O O1 0.878281 0.396796 0.356607
O O2 0.633525 0.768061 0.416865
O O3 0.033682 0.250352 0.252247
O O4 0.868830 0.045278 0.302616
O O5 0.652751 0.195520 0.168543
O O6 0.704600 0.423906 0.030372
O O7 0.000000 0.500000 0.500000
O O8 0.750000 0.750000 0.261469
#
# Coordination Sequence:
#
# PCOD9433817 Si02
#       4
#     8   4   8   8
#     4  12  26  49  80 109 160 209 259 326 396 465
#     4  12  24  50  80 104 162 206 252 334 390 458
#     4  12  26  50  75 116 155 205 265 324 392 472
#     4  12  25  47  78 114 151 206 263 315 398 472
#
# _framework density 23.520325
#
# number of rings (size 3 to 8) (size 9 to 14) (size 15 to 20)
#    0.000    0.000    5.714    4.286    0.000    1.143 
#    5.143    7.143    0.000    0.000    0.000    0.000 
#    0.000    0.000    0.000    0.000    0.000    0.000 
#
# Total GULP energy -156908.891459 kJ/mol
# GULP energy per Si atom -5603.888981 kJ/mol
# Density = 2.346679 g / cm^3
# Si number density = 23.520325 Si / 1000 Ang^3
#
#
#
# Elastic Constant Matrix: (Units=GPa)
#
#
# Indices 1 2 3 4 5 6 
#
# 1 188.7292 29.3256 48.2128 0.0000 0.0000 0.0000
# 2 29.3256 88.7670 40.8490 0.0000 0.0000 0.0000
# 3 48.2128 40.8490 130.4141 0.0000 0.0000 0.0000
# 4 0.0000 0.0000 0.0000 38.2552 0.0000 0.0000
# 5 0.0000 0.0000 0.0000 0.0000 37.3021 0.0000
# 6 0.0000 0.0000 0.0000 0.0000 0.0000 37.7429
#
#
#
# Elastic Compliance Matrix: (Units=1/GPa)
#
#
# Indices 1 2 3 4 5 6 
#
# 1 0.005944 -0.001113 -0.001849 0.000000 0.000000 0.000000
# 2 -0.001113 0.013371 -0.003777 0.000000 0.000000 0.000000
# 3 -0.001849 -0.003777 0.009534 0.000000 0.000000 0.000000
# 4 0.000000 0.000000 0.000000 0.026140 0.000000 0.000000
# 5 0.000000 0.000000 0.000000 0.000000 0.026808 0.000000
# 6 0.000000 0.000000 0.000000 0.000000 0.000000 0.026495
#
#
# Mechanical properties :
#
#
# Convention : Reuss Voigt Hill
#
# Bulk Modulus (GPa) = 65.05148 71.63168 68.34158
# Shear Modulus (GPa) = 39.40309 41.96157 40.68233
#
# Velocity S-wave (km/s) = 4.09746 4.22839 4.16344
# Velocity P-wave (km/s) = 7.07836 7.37295 7.22715
#
# Compressibility (1/GPa) = 0.01537244
#
# Stress axis : x y z
#
# Youngs Moduli (GPa) = 168.24227 74.78823 104.88399
#
# Poissons Ratio (x) = 0.08323 0.19391
# Poissons Ratio (y) = 0.18723 0.39612
# Poissons Ratio (z) = 0.31105 0.28246
#
# Static dielectric constant tensor:
#      x y z
#    x 1.913320 0.000000 0.000000 
#    y 0.000000 1.957900 0.000000 
#    z 0.000000 0.000000 1.866200 
# 
# From -- ./inp_files/14287.got.cif
#   From: 2010.05.17/outbox.cif.g08.bks.cpg/sg56_8_cif.got.tgz:14287.got - 2010.06.03 13:42:01.
