data_PCOD9433614
_publ_section_title
;
Structure prediction by ZEFSAII (Michael W. Deem and Ramdas Pophale) SiO2 
 PCOD9433614
Probable space group: P C C N
;
_chemical_formula_sum "Si O2"
_cell_formula_units_Z 56
_cell_length_a 14.578618
_cell_length_b 13.898238
_cell_length_c 12.455846
_cell_angle_alpha 90.000000
_cell_angle_beta 90.000000
_cell_angle_gamma 90.000000
_cell_volume 2523.767428
_symmetry_space_group_name_H-M "P C C N"
_symmetry_group_IT_number 56
_symmetry_cell_setting 'orthorhombic'
loop_
_space_group_symop_operation_xyz
x,y,z
1/2-x,1/2-y,z
1/2+x,-y,1/2-z
-x,1/2+y,1/2-z
-x,-y,-z
1/2+x,1/2+y,-z
1/2-x,y,1/2+z
x,1/2-y,1/2+z
loop_
_atom_site_type_symbol
_atom_site_label
_atom_site_fract_x
_atom_site_fract_y
_atom_site_fract_z
Si Si1 0.250000 0.750000 0.745942
Si Si2 0.986992 0.517522 0.873576
Si Si3 0.928536 0.928467 0.947765
Si Si4 0.750000 0.750000 0.468015
Si Si5 0.669882 0.453768 0.760744
Si Si6 0.948652 0.332093 0.724739
Si Si7 0.610464 0.793476 0.802725
Si Si8 0.719959 0.605104 0.127162
O O1 0.209785 0.648678 0.699126
O O2 0.346580 0.708808 0.794597
O O3 0.952308 0.422552 0.807541
O O4 0.920599 0.607718 0.857843
O O5 0.080922 0.551661 0.816065
O O6 0.000000 0.500000 0.000000
O O7 0.000458 0.860143 0.885256
O O8 0.863510 0.981237 0.859843
O O9 0.866692 0.905988 0.050438
O O10 0.000000 0.000000 0.000000
O O11 0.835915 0.728122 0.390236
O O12 0.715561 0.664329 0.545721
O O13 0.741471 0.510881 0.684517
O O14 0.024200 0.252494 0.760146
O O15 0.686690 0.826316 0.720324
#
# Coordination Sequence:
#
# PCOD9433614 Si02
#       8
#     4   8   8   4   8   8   8   8
#     4  12  24  50  76 102 152 196 246 318 374 446
#     4  11  25  47  73 103 156 197 246 315 385 446
#     4  11  24  47  72 103 148 199 247 306 393 449
#     4  12  26  42  76 112 142 194 248 314 382 458
#     4  11  25  46  72 111 147 199 256 312 379 461
#     4  11  26  47  73 108 148 196 252 312 376 463
#     4  12  25  47  70 113 145 189 253 305 372 465
#     4  12  25  42  76 105 148 190 247 317 380 446
#
# _framework density 22.189049000000001
#
# number of rings (size 3 to 8) (size 9 to 14) (size 15 to 20)
#    0.000    0.571    2.857    5.571    8.000    1.143 
#    0.000    3.571    0.000    0.000    0.000    0.000 
#    0.000    0.000    0.000    0.000    0.000    0.000 
#
# Total GULP energy -311955.079809 kJ/mol
# GULP energy per Si atom -5570.626425 kJ/mol
# Density = 2.213855 g / cm^3
# Si number density = 22.189049 Si / 1000 Ang^3
#
#
#
# Elastic Constant Matrix: (Units=GPa)
#
#
# Indices 1 2 3 4 5 6 
#
# 1 103.4277 44.0751 21.6416 0.0000 0.0000 0.0000
# 2 44.0751 108.0737 22.8751 0.0000 0.0000 0.0000
# 3 21.6416 22.8751 64.3895 0.0000 0.0000 0.0000
# 4 0.0000 0.0000 0.0000 23.0658 0.0000 0.0000
# 5 0.0000 0.0000 0.0000 0.0000 26.0628 0.0000
# 6 0.0000 0.0000 0.0000 0.0000 0.0000 55.5260
#
#
#
# Elastic Compliance Matrix: (Units=1/GPa)
#
#
# Indices 1 2 3 4 5 6 
#
# 1 0.012062 -0.004391 -0.002494 0.000000 0.000000 0.000000
# 2 -0.004391 0.011604 -0.002647 0.000000 0.000000 0.000000
# 3 -0.002494 -0.002647 0.017309 0.000000 0.000000 0.000000
# 4 0.000000 0.000000 0.000000 0.043354 0.000000 0.000000
# 5 0.000000 0.000000 0.000000 0.000000 0.038369 0.000000
# 6 0.000000 0.000000 0.000000 0.000000 0.000000 0.018010
#
#
# Mechanical properties :
#
#
# Convention : Reuss Voigt Hill
#
# Bulk Modulus (GPa) = 45.63876 50.34160 47.99018
# Shear Modulus (GPa) = 29.92678 33.41752 31.67215
#
# Velocity S-wave (km/s) = 3.67647 3.88498 3.78216
# Velocity P-wave (km/s) = 6.21569 6.54683 6.38340
#
# Compressibility (1/GPa) = 0.02191120
#
# Stress axis : x y z
#
# Youngs Moduli (GPa) = 82.90693 86.17757 57.77364
#
# Poissons Ratio (x) = 0.37842 0.14409
# Poissons Ratio (y) = 0.36406 0.15290
# Poissons Ratio (z) = 0.20677 0.22807
#
# Static dielectric constant tensor:
#      x y z
#    x 1.843490 0.000000 0.000000 
#    y 0.000000 2.201630 0.000000 
#    z 0.000000 0.000000 1.815890 
# 
# From -- ./inp_files/7949.got.cif
#   From: 2010.05.17/outbox.cif.g08.bks.cpg/sg56_4_cif.got.tgz:7949.got - 2010.06.03 13:42:01.
