data_PCOD9433735
_publ_section_title
;
Structure prediction by ZEFSAII (Michael W. Deem and Ramdas Pophale) SiO2 
 PCOD9433735
Probable space group: P C C N
;
_chemical_formula_sum "Si O2"
_cell_formula_units_Z 36
_cell_length_a 6.596181
_cell_length_b 10.010898
_cell_length_c 26.647379
_cell_angle_alpha 90.000000
_cell_angle_beta 90.000000
_cell_angle_gamma 90.000000
_cell_volume 1759.624902
_symmetry_space_group_name_H-M "P C C N"
_symmetry_group_IT_number 56
_symmetry_cell_setting 'orthorhombic'
loop_
_space_group_symop_operation_xyz
x,y,z
1/2-x,1/2-y,z
1/2+x,-y,1/2-z
-x,1/2+y,1/2-z
-x,-y,-z
1/2+x,1/2+y,-z
1/2-x,y,1/2+z
x,1/2-y,1/2+z
loop_
_atom_site_type_symbol
_atom_site_label
_atom_site_fract_x
_atom_site_fract_y
_atom_site_fract_z
Si Si1 0.870673 0.886960 0.682726
Si Si2 0.750000 0.750000 0.856985
Si Si3 0.016860 0.479231 0.085848
Si Si4 0.409613 0.870179 0.287469
Si Si5 0.791241 0.087726 0.004275
O O1 0.750000 0.750000 0.680408
O O2 0.019748 0.888378 0.730309
O O3 0.986254 0.919347 0.631509
O O4 0.705144 0.001313 0.692252
O O5 0.611996 0.845177 0.891024
O O6 0.604125 0.664297 0.821091
O O7 0.161762 0.533896 0.042569
O O8 0.805713 0.451838 0.057779
O O9 0.250000 0.750000 0.290546
O O10 0.750000 0.250000 0.002060
O O11 0.000000 0.000000 0.000000
#
# Coordination Sequence:
#
# PCOD9433735 Si02
#       5
#     8   4   8   8   8
#     4  12  26  44  72 106 148 188 242 300 361 429
#     4  12  24  48  76 106 142 202 246 290 372 452
#     4  11  27  44  73 107 139 187 246 298 369 445
#     4  12  25  48  70 106 150 194 245 295 361 448
#     4  11  27  48  74 104 143 189 244 316 374 445
#
# _framework density 20.458907
#
# number of rings (size 3 to 8) (size 9 to 14) (size 15 to 20)
#    0.000    0.444    3.333    4.000    9.333    2.667 
#    0.000    0.000    0.000    0.000    0.000    0.000 
#    0.000    0.000    0.000    0.000    0.000    0.000 
#
# Total GULP energy -201255.168539 kJ/mol
# GULP energy per Si atom -5590.421348 kJ/mol
# Density = 2.041234 g / cm^3
# Si number density = 20.458907 Si / 1000 Ang^3
#
#
#
# Elastic Constant Matrix: (Units=GPa)
#
#
# Indices 1 2 3 4 5 6 
#
# 1 115.7573 51.3387 43.0564 0.0000 0.0000 0.0000
# 2 51.3387 117.1160 29.4585 0.0000 0.0000 0.0000
# 3 43.0564 29.4585 134.8051 0.0000 0.0000 0.0000
# 4 0.0000 0.0000 0.0000 319.0378 0.0000 0.0000
# 5 0.0000 0.0000 0.0000 0.0000 29.4647 0.0000
# 6 0.0000 0.0000 0.0000 0.0000 0.0000 15.1432
#
#
#
# Elastic Compliance Matrix: (Units=1/GPa)
#
#
# Indices 1 2 3 4 5 6 
#
# 1 0.011612 -0.004399 -0.002747 0.000000 0.000000 0.000000
# 2 -0.004399 0.010702 -0.000934 0.000000 0.000000 0.000000
# 3 -0.002747 -0.000934 0.008500 0.000000 0.000000 0.000000
# 4 0.000000 0.000000 0.000000 0.003134 0.000000 0.000000
# 5 0.000000 0.000000 0.000000 0.000000 0.033939 0.000000
# 6 0.000000 0.000000 0.000000 0.000000 0.000000 0.066036
#
#
# Mechanical properties :
#
#
# Convention : Reuss Voigt Hill
#
# Bulk Modulus (GPa) = 68.24544 68.37618 68.31081
# Shear Modulus (GPa) = 32.26495 88.98414 60.62454
#
# Velocity S-wave (km/s) = 3.97553 6.60216 5.44947
# Velocity P-wave (km/s) = 7.38261 9.57140 8.54736
#
# Compressibility (1/GPa) = 0.01465299
#
# Stress axis : x y z
#
# Youngs Moduli (GPa) = 86.12039 93.44308 117.65188
#
# Poissons Ratio (x) = 0.41106 0.32324
# Poissons Ratio (y) = 0.37884 0.10984
# Poissons Ratio (z) = 0.23661 0.08724
#
# Static dielectric constant tensor:
#      x y z
#    x 1.732270 0.000000 0.000000 
#    y 0.000000 1.713400 0.000000 
#    z 0.000000 0.000000 1.686760 
# 
# From -- ./inp_files/19864.got.cif
#   From: 2010.05.17/outbox.cif.g08.bks.cpg/sg56_10_cif.got.tgz:19864.got - 2010.06.03 13:42:01.
