data_PCOD9433768
_publ_section_title
;
Structure prediction by ZEFSAII (Michael W. Deem and Ramdas Pophale) SiO2 
 PCOD9433768
Probable space group: P C C N
;
_chemical_formula_sum "Si O2"
_cell_formula_units_Z 24
_cell_length_a 12.750253
_cell_length_b 6.273256
_cell_length_c 13.281770
_cell_angle_alpha 90.000000
_cell_angle_beta 90.000000
_cell_angle_gamma 90.000000
_cell_volume 1062.350358
_symmetry_space_group_name_H-M "P C C N"
_symmetry_group_IT_number 56
_symmetry_cell_setting 'orthorhombic'
loop_
_space_group_symop_operation_xyz
x,y,z
1/2-x,1/2-y,z
1/2+x,-y,1/2-z
-x,1/2+y,1/2-z
-x,-y,-z
1/2+x,1/2+y,-z
1/2-x,y,1/2+z
x,1/2-y,1/2+z
loop_
_atom_site_type_symbol
_atom_site_label
_atom_site_fract_x
_atom_site_fract_y
_atom_site_fract_z
Si Si1 0.894846 0.366690 0.359422
Si Si2 0.250000 0.750000 0.984135
Si Si3 0.750000 0.750000 0.816649
Si Si4 0.619556 0.462332 0.177757
O O1 0.852821 0.208682 0.446389
O O2 0.008812 0.468598 0.368491
O O3 0.690743 0.944577 0.369397
O O4 0.888685 0.244715 0.251730
O O5 0.293343 0.573526 0.907143
O O6 0.840559 0.649654 0.748494
#
# Coordination Sequence:
#
# PCOD9433768 Si02
#       4
#     8   4   4   8
#     4  12  25  46  71 102 143 186 233 287 351 415
#     4  12  24  46  70 112 140 172 244 296 334 416
#     4  12  22  46  72  92 142 192 222 286 352 408
#     4  12  25  46  71 102 143 186 233 287 351 415
#
# _framework density 22.591415000000001
#
# number of rings (size 3 to 8) (size 9 to 14) (size 15 to 20)
#    0.000    0.000   10.000    1.000    0.000    1.333 
#    0.000    5.000    0.000    0.000    0.000    0.000 
#    0.000    0.000    0.000    0.000    0.000    0.000 
#
# Total GULP energy -133932.554404 kJ/mol
# GULP energy per Si atom -5580.523100 kJ/mol
# Density = 2.254000 g / cm^3
# Si number density = 22.591415 Si / 1000 Ang^3
#
#
#
# Elastic Constant Matrix: (Units=GPa)
#
#
# Indices 1 2 3 4 5 6 
#
# 1 87.0253 38.6727 6.9303 0.0000 0.0000 0.0000
# 2 38.6727 72.2426 17.8650 0.0000 0.0000 0.0000
# 3 6.9303 17.8650 87.8439 0.0000 0.0000 0.0000
# 4 0.0000 0.0000 0.0000 8.1677 0.0000 0.0000
# 5 0.0000 0.0000 0.0000 0.0000 11.7275 0.0000
# 6 0.0000 0.0000 0.0000 0.0000 0.0000 51.8449
#
#
#
# Elastic Compliance Matrix: (Units=1/GPa)
#
#
# Indices 1 2 3 4 5 6 
#
# 1 0.015097 -0.008199 0.000476 0.000000 0.000000 0.000000
# 2 -0.008199 0.019029 -0.003223 0.000000 0.000000 0.000000
# 3 0.000476 -0.003223 0.012002 0.000000 0.000000 0.000000
# 4 0.000000 0.000000 0.000000 0.122434 0.000000 0.000000
# 5 0.000000 0.000000 0.000000 0.000000 0.085270 0.000000
# 6 0.000000 0.000000 0.000000 0.000000 0.000000 0.019288
#
#
# Mechanical properties :
#
#
# Convention : Reuss Voigt Hill
#
# Bulk Modulus (GPa) = 41.26233 41.56088 41.41160
# Shear Modulus (GPa) = 16.49681 26.59092 21.54387
#
# Velocity S-wave (km/s) = 2.70520 3.43452 3.09144
# Velocity P-wave (km/s) = 5.29733 5.84505 5.57792
#
# Compressibility (1/GPa) = 0.02423518
#
# Stress axis : x y z
#
# Youngs Moduli (GPa) = 66.24000 52.55275 83.32150
#
# Poissons Ratio (x) = 0.43090 -0.03970
# Poissons Ratio (y) = 0.54312 0.26855
# Poissons Ratio (z) = -0.03156 0.16938
#
# Static dielectric constant tensor:
#      x y z
#    x 1.812520 0.000000 0.000000 
#    y 0.000000 1.837730 0.000000 
#    z 0.000000 0.000000 1.878080 
# 
# From -- ./inp_files/11934.got.cif
#   From: 2010.05.17/outbox.cif.g08.bks.cpg/sg56_6_cif.got.tgz:11934.got - 2010.06.03 13:42:01.
