data_PCOD9433483
_publ_section_title
;
Structure prediction by ZEFSAII (Michael W. Deem and Ramdas Pophale) SiO2 
 PCOD9433483
Probable space group: P C C N
;
_chemical_formula_sum "Si O2"
_cell_formula_units_Z 40
_cell_length_a 17.576926
_cell_length_b 11.968961
_cell_length_c 9.041365
_cell_angle_alpha 90.000000
_cell_angle_beta 90.000000
_cell_angle_gamma 90.000000
_cell_volume 1902.100143
_symmetry_space_group_name_H-M "P C C N"
_symmetry_group_IT_number 56
_symmetry_cell_setting 'orthorhombic'
loop_
_space_group_symop_operation_xyz
x,y,z
1/2-x,1/2-y,z
1/2+x,-y,1/2-z
-x,1/2+y,1/2-z
-x,-y,-z
1/2+x,1/2+y,-z
1/2-x,y,1/2+z
x,1/2-y,1/2+z
loop_
_atom_site_type_symbol
_atom_site_label
_atom_site_fract_x
_atom_site_fract_y
_atom_site_fract_z
Si Si1 0.095735 0.363675 0.845177
Si Si2 0.128020 0.365409 0.183588
Si Si3 0.307379 0.649609 0.926434
Si Si4 0.725312 0.499538 0.801777
Si Si5 0.458840 0.559799 0.859953
O O1 0.122990 0.247204 0.776251
O O2 0.158349 0.456397 0.802026
O O3 0.019728 0.394965 0.757119
O O4 0.090457 0.354818 0.021765
O O5 0.215325 0.402501 0.164455
O O6 0.087608 0.462639 0.276750
O O7 0.250000 0.750000 0.969832
O O8 0.269973 0.599575 0.779388
O O9 0.398392 0.658830 0.901132
O O10 0.304987 0.551835 0.047717
O O11 0.500000 0.500000 0.000000
#
# Coordination Sequence:
#
# PCOD9433483 Si02
#       5
#     8   8   8   8   8
#     4  12  24  44  70 101 139 183 232 293 357 421
#     4  11  26  43  69 103 136 186 231 288 357 419
#     4  11  24  45  69 102 136 188 232 286 355 430
#     4  11  23  43  71  98 138 177 241 289 341 426
#     4  11  24  46  70 102 146 179 232 296 354 426
#
# _framework density 21.029385999999999
#
# number of rings (size 3 to 8) (size 9 to 14) (size 15 to 20)
#    0.000    0.800    4.000    3.000    2.800    3.200 
#   18.000    0.000    0.000    0.000    0.000    0.000 
#    0.000    0.000    0.000    0.000    0.000    0.000 
#
# Total GULP energy -223510.689750 kJ/mol
# GULP energy per Si atom -5587.767244 kJ/mol
# Density = 2.098152 g / cm^3
# Si number density = 21.029386 Si / 1000 Ang^3
#
#
#
# Elastic Constant Matrix: (Units=GPa)
#
#
# Indices 1 2 3 4 5 6 
#
# 1 100.4520 29.4949 21.3605 0.0000 0.0000 0.0000
# 2 29.4949 56.2822 9.9940 0.0000 0.0000 0.0000
# 3 21.3605 9.9940 125.1274 0.0000 0.0000 0.0000
# 4 0.0000 0.0000 0.0000 33.4455 0.0000 0.0000
# 5 0.0000 0.0000 0.0000 0.0000 31.0503 0.0000
# 6 0.0000 0.0000 0.0000 0.0000 0.0000 21.9077
#
#
#
# Elastic Compliance Matrix: (Units=1/GPa)
#
#
# Indices 1 2 3 4 5 6 
#
# 1 0.012065 -0.006042 -0.001577 0.000000 0.000000 0.000000
# 2 -0.006042 0.021050 -0.000650 0.000000 0.000000 0.000000
# 3 -0.001577 -0.000650 0.008313 0.000000 0.000000 0.000000
# 4 0.000000 0.000000 0.000000 0.029899 0.000000 0.000000
# 5 0.000000 0.000000 0.000000 0.000000 0.032206 0.000000
# 6 0.000000 0.000000 0.000000 0.000000 0.000000 0.045646
#
#
# Mechanical properties :
#
#
# Convention : Reuss Voigt Hill
#
# Bulk Modulus (GPa) = 40.17869 44.84005 42.50937
# Shear Modulus (GPa) = 28.73353 32.01485 30.37419
#
# Velocity S-wave (km/s) = 3.70043 3.90601 3.80461
# Velocity P-wave (km/s) = 6.11596 6.45844 6.28953
#
# Compressibility (1/GPa) = 0.02488881
#
# Stress axis : x y z
#
# Youngs Moduli (GPa) = 82.88773 47.50701 120.29428
#
# Poissons Ratio (x) = 0.28706 0.18970
# Poissons Ratio (y) = 0.50084 0.07816
# Poissons Ratio (z) = 0.13071 0.03087
#
# Static dielectric constant tensor:
#      x y z
#    x 1.822950 0.000000 0.000000 
#    y 0.000000 1.752780 0.000000 
#    z 0.000000 0.000000 1.721100 
# 
# From -- ./inp_files/2567.got.cif
#   From: 2010.05.17/outbox.cif.g08.bks.cpg/sg56_2_cif.got.tgz:2567.got - 2010.06.03 13:42:01.
