data_PCOD9433206
_publ_section_title
;
Structure prediction by ZEFSAII (Michael W. Deem and Ramdas Pophale) SiO2 
 PCOD9433206
Probable space group: P C C N
;
_chemical_formula_sum "Si O2"
_cell_formula_units_Z 48
_cell_length_a 11.743676
_cell_length_b 12.104025
_cell_length_c 17.464913
_cell_angle_alpha 90.000000
_cell_angle_beta 90.000000
_cell_angle_gamma 90.000000
_cell_volume 2482.563120
_symmetry_space_group_name_H-M "P C C N"
_symmetry_group_IT_number 56
_symmetry_cell_setting 'orthorhombic'
loop_
_space_group_symop_operation_xyz
x,y,z
1/2-x,1/2-y,z
1/2+x,-y,1/2-z
-x,1/2+y,1/2-z
-x,-y,-z
1/2+x,1/2+y,-z
1/2-x,y,1/2+z
x,1/2-y,1/2+z
loop_
_atom_site_type_symbol
_atom_site_label
_atom_site_fract_x
_atom_site_fract_y
_atom_site_fract_z
Si Si1 0.873462 0.796378 0.007402
Si Si2 0.008391 0.895353 0.445075
Si Si3 0.141115 0.989709 0.089629
Si Si4 0.236452 0.880984 0.935953
Si Si5 0.814690 0.630423 0.816369
Si Si6 0.899772 0.935874 0.149531
O O1 0.750000 0.750000 0.981797
O O2 0.853741 0.842785 0.091746
O O3 0.975228 0.709603 0.998443
O O4 0.903187 0.902511 0.956437
O O5 0.919101 0.875552 0.376692
O O6 0.134984 0.912807 0.414747
O O7 0.000000 0.000000 0.500000
O O8 0.034565 0.936384 0.132327
O O9 0.228231 0.038568 0.151112
O O10 0.201413 0.917795 0.022660
O O11 0.250000 0.750000 0.931796
O O12 0.152222 0.947015 0.879546
O O13 0.750000 0.750000 0.812607
O O14 0.862712 0.594989 0.734242
#
# Coordination Sequence:
#
# PCOD9433206 Si02
#       6
#     8   8   8   8   8   8
#     4  11  19  42  67  95 123 180 232 273 333 416
#     4  12  21  39  67 100 129 171 228 280 328 405
#     4  11  21  45  65  90 136 176 226 282 339 410
#     4  11  23  41  68  99 129 173 227 280 347 407
#     4  12  25  45  67  98 139 184 225 282 346 410
#     4  11  26  41  67  97 135 179 225 279 349 411
#
# _framework density 19.334855999999998
#
# number of rings (size 3 to 8) (size 9 to 14) (size 15 to 20)
#    0.000    0.667    5.000    5.500    2.333    0.000 
#    0.000    0.833    0.000    0.000    0.000    0.000 
#    0.000    0.000    0.000    0.000    0.000    0.000 
#
# Total GULP energy -267695.595603 kJ/mol
# GULP energy per Si atom -5576.991575 kJ/mol
# Density = 1.929085 g / cm^3
# Si number density = 19.334856 Si / 1000 Ang^3
#
#
#
# Elastic Constant Matrix: (Units=GPa)
#
#
# Indices 1 2 3 4 5 6 
#
# 1 121.0036 21.2367 45.0541 0.0000 0.0000 0.0000
# 2 21.2367 86.0950 52.6131 0.0000 0.0000 0.0000
# 3 45.0541 52.6131 155.4034 0.0000 0.0000 0.0000
# 4 0.0000 0.0000 0.0000 16.5000 0.0000 0.0000
# 5 0.0000 0.0000 0.0000 0.0000 20.6638 0.0000
# 6 0.0000 0.0000 0.0000 0.0000 0.0000 35.8920
#
#
#
# Elastic Compliance Matrix: (Units=1/GPa)
#
#
# Indices 1 2 3 4 5 6 
#
# 1 0.009309 -0.000816 -0.002423 0.000000 0.000000 0.000000
# 2 -0.000816 0.014717 -0.004746 0.000000 0.000000 0.000000
# 3 -0.002423 -0.004746 0.008744 0.000000 0.000000 0.000000
# 4 0.000000 0.000000 0.000000 0.060606 0.000000 0.000000
# 5 0.000000 0.000000 0.000000 0.000000 0.048394 0.000000
# 6 0.000000 0.000000 0.000000 0.000000 0.000000 0.027861
#
#
# Mechanical properties :
#
#
# Convention : Reuss Voigt Hill
#
# Bulk Modulus (GPa) = 59.51970 66.70109 63.11040
# Shear Modulus (GPa) = 26.15057 30.85104 28.50080
#
# Velocity S-wave (km/s) = 3.68164 3.99885 3.84352
# Velocity P-wave (km/s) = 6.99450 7.47622 7.23937
#
# Compressibility (1/GPa) = 0.01680116
#
# Stress axis : x y z
#
# Youngs Moduli (GPa) = 107.41733 67.95076 114.36349
#
# Poissons Ratio (x) = 0.05543 0.27708
# Poissons Ratio (y) = 0.08762 0.54276
# Poissons Ratio (z) = 0.26025 0.32249
#
# Static dielectric constant tensor:
#      x y z
#    x 1.659810 0.000000 0.000000 
#    y 0.000000 1.655610 0.000000 
#    z 0.000000 0.000000 1.677090 
# 
# From -- ./inp_files/15621.got.cif
#   From: 2010.05.17/outbox.cif.g08.bks.cpg/sg56_8_cif.got.tgz:15621.got - 2010.06.03 13:42:01.
