data_PCOD9433131
_publ_section_title
;
Structure prediction by ZEFSAII (Michael W. Deem and Ramdas Pophale) SiO2 
 PCOD9433131
Probable space group: P C C N
;
_chemical_formula_sum "Si O2"
_cell_formula_units_Z 28
_cell_length_a 18.168638
_cell_length_b 7.268839
_cell_length_c 9.000987
_cell_angle_alpha 90.000000
_cell_angle_beta 90.000000
_cell_angle_gamma 90.000000
_cell_volume 1188.714488
_symmetry_space_group_name_H-M "P C C N"
_symmetry_group_IT_number 56
_symmetry_cell_setting 'orthorhombic'
loop_
_space_group_symop_operation_xyz
x,y,z
1/2-x,1/2-y,z
1/2+x,-y,1/2-z
-x,1/2+y,1/2-z
-x,-y,-z
1/2+x,1/2+y,-z
1/2-x,y,1/2+z
x,1/2-y,1/2+z
loop_
_atom_site_type_symbol
_atom_site_label
_atom_site_fract_x
_atom_site_fract_y
_atom_site_fract_z
Si Si1 0.841838 0.428876 0.595380
Si Si2 0.435955 0.273041 0.439313
Si Si3 0.750000 0.250000 0.336333
Si Si4 0.036357 0.645891 0.798127
O O1 0.868818 0.633904 0.562976
O O2 0.810907 0.334513 0.446268
O O3 0.781574 0.405359 0.725601
O O4 0.909433 0.309134 0.659094
O O5 0.463155 0.341278 0.599235
O O6 0.506340 0.168576 0.366931
O O7 0.425763 0.454062 0.338710
#
# Coordination Sequence:
#
# PCOD9433131 Si02
#       4
#     8   8   4   8
#     4  11  23  47  65  96 138 178 223 280 316 411
#     4  11  24  39  70 102 136 159 219 277 356 388
#     4  10  26  44  68  90 138 194 230 256 326 390
#     4  11  23  41  69 109 123 171 209 291 348 397
#
# _framework density 23.554856999999998
#
# number of rings (size 3 to 8) (size 9 to 14) (size 15 to 20)
#    0.000    1.143    2.857    2.571    8.000    0.000 
#    0.000    8.571    0.000    0.000    0.000    0.000 
#    0.000    0.000    0.000    0.000    0.000    0.000 
#
# Total GULP energy -156840.974886 kJ/mol
# GULP energy per Si atom -5601.463389 kJ/mol
# Density = 2.350125 g / cm^3
# Si number density = 23.554857 Si / 1000 Ang^3
#
#
#
# Elastic Constant Matrix: (Units=GPa)
#
#
# Indices 1 2 3 4 5 6 
#
# 1 51.9986 19.4879 19.6573 0.0000 0.0000 0.0000
# 2 19.4879 129.6874 14.5326 0.0000 0.0000 0.0000
# 3 19.6573 14.5326 117.3630 0.0000 0.0000 0.0000
# 4 0.0000 0.0000 0.0000 11.4960 0.0000 0.0000
# 5 0.0000 0.0000 0.0000 0.0000 30.0766 0.0000
# 6 0.0000 0.0000 0.0000 0.0000 0.0000 43.6024
#
#
#
# Elastic Compliance Matrix: (Units=1/GPa)
#
#
# Indices 1 2 3 4 5 6 
#
# 1 0.021537 -0.002872 -0.003252 0.000000 0.000000 0.000000
# 2 -0.002872 0.008202 -0.000535 0.000000 0.000000 0.000000
# 3 -0.003252 -0.000535 0.009131 0.000000 0.000000 0.000000
# 4 0.000000 0.000000 0.000000 0.086986 0.000000 0.000000
# 5 0.000000 0.000000 0.000000 0.000000 0.033248 0.000000
# 6 0.000000 0.000000 0.000000 0.000000 0.000000 0.022935
#
#
# Mechanical properties :
#
#
# Convention : Reuss Voigt Hill
#
# Bulk Modulus (GPa) = 39.13253 45.15607 42.14430
# Shear Modulus (GPa) = 24.52489 33.39307 28.95898
#
# Velocity S-wave (km/s) = 3.23024 3.76928 3.51012
# Velocity P-wave (km/s) = 5.52829 6.17702 5.86164
#
# Compressibility (1/GPa) = 0.02555419
#
# Stress axis : x y z
#
# Youngs Moduli (GPa) = 46.43198 121.91665 109.51231
#
# Poissons Ratio (x) = 0.35014 0.35609
# Poissons Ratio (y) = 0.13335 0.05855
# Poissons Ratio (z) = 0.15098 0.06518
#
# Static dielectric constant tensor:
#      x y z
#    x 1.902830 0.000000 0.000000 
#    y 0.000000 1.883220 0.000000 
#    z 0.000000 0.000000 1.898960 
# 
# From -- ./inp_files/1872.got.cif
#   From: 2010.05.17/outbox.cif.g08.bks.cpg/sg56_1_cif.got.tgz:1872.got - 2010.06.03 13:42:01.
