data_PCOD9433981
_publ_section_title
;
Structure prediction by ZEFSAII (Michael W. Deem and Ramdas Pophale) SiO2 
 PCOD9433981
Probable space group: P B C M
;
_chemical_formula_sum "Si O2"
_cell_formula_units_Z 56
_cell_length_a 21.281102
_cell_length_b 14.925178
_cell_length_c 8.568618
_cell_angle_alpha 90.000000
_cell_angle_beta 90.000000
_cell_angle_gamma 90.000000
_cell_volume 2721.600741
_symmetry_space_group_name_H-M "P B C M"
_symmetry_group_IT_number 57
_symmetry_cell_setting 'orthorhombic'
loop_
_space_group_symop_operation_xyz
x,y,z
-x,-y,1/2+z
x,1/2-y,-z
-x,1/2+y,1/2-z
-x,-y,-z
x,y,1/2-z
-x,1/2+y,z
x,1/2-y,1/2+z
loop_
_atom_site_type_symbol
_atom_site_label
_atom_site_fract_x
_atom_site_fract_y
_atom_site_fract_z
Si Si1 0.332629 0.149372 0.438160
Si Si2 0.805762 0.352211 0.437284
Si Si3 0.064842 0.352575 0.064264
Si Si4 0.667371 0.350628 0.438160
Si Si5 0.429574 1.000000 0.438909
Si Si6 0.064842 0.647425 0.064264
Si Si7 0.805762 0.852211 0.562716
O O1 0.339007 0.250000 0.500000
O O2 0.333480 0.152541 0.250000
O O3 0.263232 0.111762 0.480742
O O4 0.389054 0.086030 0.490658
O O5 0.803658 0.250000 0.500000
O O6 0.811564 0.352351 0.250000
O O7 0.736768 0.388238 0.480742
O O8 0.869217 0.393254 0.507327
O O9 0.937025 0.649277 0.750000
O O10 0.130783 0.393254 0.007327
O O11 1.000000 0.392937 0.000000
O O12 0.065681 0.250000 0.000000
O O13 0.660993 0.250000 0.500000
O O14 0.666520 0.347459 0.250000
O O15 0.610946 0.413970 0.490658
O O16 0.430930 0.000000 0.250000
O O17 0.500000 0.000000 0.500000
O O18 0.062975 0.649277 0.250000
O O19 0.065681 0.750000 0.000000
O O20 0.803658 0.750000 0.500000
O O21 0.811564 0.852351 0.750000
#
# Coordination Sequence:
#
# PCOD9433981 Si02
#       7
#     8   8   8   8   8   8   8
#     4   9  19  35  56  79 108 141 178 218 264 315
#     4   9  15  25  41  63  90 125 165 209 254 303
#     4  10  16  22  33  54  87 126 165 209 254 301
#     4   9  19  35  56  79 108 141 178 218 264 315
#     4  10  22  40  58  82 111 142 175 214 261 318
#     4  10  16  22  33  54  87 126 165 209 254 301
#     4   9  15  25  41  63  90 125 165 209 254 303
#
# _framework density 20.576125000000001
#
# number of rings (size 3 to 8) (size 9 to 14) (size 15 to 20)
#    0.000    2.571    0.000    6.000    0.000    2.857 
#    0.000    2.857    0.000    0.000    0.000    1.000 
#    0.000    0.000    0.000    0.857    0.000    0.000 
#
# Total GULP energy -312373.739649 kJ/mol
# GULP energy per Si atom -5578.102494 kJ/mol
# Density = 2.052929 g / cm^3
# Si number density = 20.576125 Si / 1000 Ang^3
#
#
#
# Elastic Constant Matrix: (Units=GPa)
#
#
# Indices 1 2 3 4 5 6 
#
# 1 264.9458 72.2993 66.1545 0.0000 0.0000 0.0000
# 2 72.2993 85.6896 17.5738 0.0000 0.0000 0.0000
# 3 66.1545 17.5738 90.6572 0.0000 0.0000 0.0000
# 4 0.0000 0.0000 0.0000 2.0294 0.0000 0.0000
# 5 0.0000 0.0000 0.0000 0.0000 37.4376 0.0000
# 6 0.0000 0.0000 0.0000 0.0000 0.0000 117.3043
#
#
#
# Elastic Compliance Matrix: (Units=1/GPa)
#
#
# Indices 1 2 3 4 5 6 
#
# 1 0.005758 -0.004162 -0.003395 0.000000 0.000000 0.000000
# 2 -0.004162 0.015161 0.000098 0.000000 0.000000 0.000000
# 3 -0.003395 0.000098 0.013489 0.000000 0.000000 0.000000
# 4 0.000000 0.000000 0.000000 0.492758 0.000000 0.000000
# 5 0.000000 0.000000 0.000000 0.000000 0.026711 0.000000
# 6 0.000000 0.000000 0.000000 0.000000 0.000000 0.008525
#
#
# Mechanical properties :
#
#
# Convention : Reuss Voigt Hill
#
# Bulk Modulus (GPa) = 51.30663 83.70531 67.50597
# Shear Modulus (GPa) = 8.56435 50.37193 29.46814
#
# Velocity S-wave (km/s) = 2.04238 4.95317 3.78848
# Velocity P-wave (km/s) = 5.52729 8.57211 7.21221
#
# Compressibility (1/GPa) = 0.01949066
#
# Stress axis : x y z
#
# Youngs Moduli (GPa) = 173.68176 65.95727 74.13552
#
# Poissons Ratio (x) = 0.27450 0.25167
# Poissons Ratio (y) = 0.72281 -0.00726
# Poissons Ratio (z) = 0.58961 -0.00646
#
# Static dielectric constant tensor:
#      x y z
#    x 1.786030 0.000000 0.000000 
#    y 0.000000 1.792650 0.000000 
#    z 0.000000 0.000000 1.692650 
# 
# From -- ./inp_files/8089.got.cif
#   From: 2010.05.17/outbox.cif.g08.bks.cpg/sg57_5_cif.got.tgz:8089.got - 2010.06.03 13:58:18.
