data_PCOD9433127
_publ_section_title
;
Structure prediction by ZEFSAII (Michael W. Deem and Ramdas Pophale) SiO2 
 PCOD9433127
Probable space group: P C C N
;
_chemical_formula_sum "Si O2"
_cell_formula_units_Z 32
_cell_length_a 10.313280
_cell_length_b 12.851835
_cell_length_c 9.426548
_cell_angle_alpha 90.000000
_cell_angle_beta 90.000000
_cell_angle_gamma 90.000000
_cell_volume 1249.437778
_symmetry_space_group_name_H-M "P C C N"
_symmetry_group_IT_number 56
_symmetry_cell_setting 'orthorhombic'
loop_
_space_group_symop_operation_xyz
x,y,z
1/2-x,1/2-y,z
1/2+x,-y,1/2-z
-x,1/2+y,1/2-z
-x,-y,-z
1/2+x,1/2+y,-z
1/2-x,y,1/2+z
x,1/2-y,1/2+z
loop_
_atom_site_type_symbol
_atom_site_label
_atom_site_fract_x
_atom_site_fract_y
_atom_site_fract_z
Si Si1 0.655083 0.052144 0.877092
Si Si2 0.021404 0.224316 0.506948
Si Si3 0.250000 0.750000 0.526608
Si Si4 0.683294 0.579828 0.107244
Si Si5 0.750000 0.750000 0.282954
O O1 0.748694 0.151539 0.870174
O O2 0.631883 0.998749 0.726407
O O3 0.528386 0.112871 0.940541
O O4 0.740815 0.978749 0.982336
O O5 0.211359 0.153953 0.314690
O O6 0.130943 0.211867 0.624019
O O7 0.879875 0.256308 0.564406
O O8 0.576812 0.668711 0.067117
#
# Coordination Sequence:
#
# PCOD9433127 Si02
#       5
#     8   8   4   8   4
#     4  10  26  51  85 120 170 224 279 351 433 500
#     4  10  25  55  76 124 167 218 296 343 416 531
#     4   8  24  54  76 124 170 214 288 354 400 534
#     4  12  25  51  87 122 170 231 273 360 440 495
#     4  12  26  50  80 124 164 220 294 348 414 534
#
# _framework density 25.611518
#
# number of rings (size 3 to 8) (size 9 to 14) (size 15 to 20)
#    1.500    0.000    2.500    0.750    0.000    7.000 
#   13.500    0.000    5.500    0.000    0.000    0.000 
#    0.000    0.000    0.000    0.000    0.000    0.000 
#
# Total GULP energy -178138.036400 kJ/mol
# GULP energy per Si atom -5566.813638 kJ/mol
# Density = 2.555323 g / cm^3
# Si number density = 25.611518 Si / 1000 Ang^3
#
#
#
# Elastic Constant Matrix: (Units=GPa)
#
#
# Indices 1 2 3 4 5 6 
#
# 1 177.7316 65.5893 52.1841 0.0000 0.0000 0.0000
# 2 65.5893 205.5054 83.0285 0.0000 0.0000 0.0000
# 3 52.1841 83.0285 120.0419 0.0000 0.0000 0.0000
# 4 0.0000 0.0000 0.0000 35.2761 0.0000 0.0000
# 5 0.0000 0.0000 0.0000 0.0000 0.9666 0.0000
# 6 0.0000 0.0000 0.0000 0.0000 0.0000 50.4240
#
#
#
# Elastic Compliance Matrix: (Units=1/GPa)
#
#
# Indices 1 2 3 4 5 6 
#
# 1 0.006704 -0.001335 -0.001991 0.000000 0.000000 0.000000
# 2 -0.001335 0.007019 -0.004274 0.000000 0.000000 0.000000
# 3 -0.001991 -0.004274 0.012152 0.000000 0.000000 0.000000
# 4 0.000000 0.000000 0.000000 0.028348 0.000000 0.000000
# 5 0.000000 0.000000 0.000000 0.000000 1.034544 0.000000
# 6 0.000000 0.000000 0.000000 0.000000 0.000000 0.019832
#
#
# Mechanical properties :
#
#
# Convention : Reuss Voigt Hill
#
# Bulk Modulus (GPa) = 93.68196 100.54253 97.11224
# Shear Modulus (GPa) = 4.43515 37.49848 20.96682
#
# Velocity S-wave (km/s) = 1.31737 3.83054 2.86431
# Velocity P-wave (km/s) = 6.24271 7.67503 6.99562
#
# Compressibility (1/GPa) = 0.01067441
#
# Stress axis : x y z
#
# Youngs Moduli (GPa) = 149.17121 142.46660 82.28930
#
# Poissons Ratio (x) = 0.19024 0.16381
# Poissons Ratio (y) = 0.19919 0.35174
# Poissons Ratio (z) = 0.29694 0.60896
#
# Static dielectric constant tensor:
#      x y z
#    x 2.147940 0.000000 0.000000 
#    y 0.000000 2.111890 0.000000 
#    z 0.000000 0.000000 2.110820 
# 
# From -- ./inp_files/2457.got.cif
#   From: 2010.05.17/outbox.cif.g08.bks.cpg/sg56_2_cif.got.tgz:2457.got - 2010.06.03 13:42:01.
