data_PCOD9433350
_publ_section_title
;
Structure prediction by ZEFSAII (Michael W. Deem and Ramdas Pophale) SiO2 
 PCOD9433350
Probable space group: P C C N
;
_chemical_formula_sum "Si O2"
_cell_formula_units_Z 64
_cell_length_a 31.541630
_cell_length_b 10.724403
_cell_length_c 8.684871
_cell_angle_alpha 90.000000
_cell_angle_beta 90.000000
_cell_angle_gamma 90.000000
_cell_volume 2937.789204
_symmetry_space_group_name_H-M "P C C N"
_symmetry_group_IT_number 56
_symmetry_cell_setting 'orthorhombic'
loop_
_space_group_symop_operation_xyz
x,y,z
1/2-x,1/2-y,z
1/2+x,-y,1/2-z
-x,1/2+y,1/2-z
-x,-y,-z
1/2+x,1/2+y,-z
1/2-x,y,1/2+z
x,1/2-y,1/2+z
loop_
_atom_site_type_symbol
_atom_site_label
_atom_site_fract_x
_atom_site_fract_y
_atom_site_fract_z
Si Si1 0.778022 0.872843 0.464800
Si Si2 0.922934 0.670699 0.643049
Si Si3 0.020126 0.168111 0.117886
Si Si4 0.180184 0.788621 0.806466
Si Si5 0.127820 0.131022 0.562706
Si Si6 0.023302 0.883091 0.582278
Si Si7 0.240544 0.945865 0.281251
Si Si8 0.123151 0.635861 0.026899
O O1 0.750000 0.750000 0.468442
O O2 0.824003 0.835084 0.404728
O O3 0.759134 0.986524 0.366999
O O4 0.780062 0.938804 0.629430
O O5 0.950225 0.600119 0.509891
O O6 0.951608 0.755265 0.757735
O O7 0.895010 0.602953 0.773197
O O8 0.894890 0.763402 0.537783
O O9 0.988824 0.101723 0.237587
O O10 0.996019 0.265821 0.009579
O O11 0.217899 0.880895 0.860477
O O12 0.206539 0.664282 0.757993
O O13 0.155284 0.854352 0.669285
O O14 0.142790 0.741045 0.917418
O O15 0.127436 0.004366 0.463830
O O16 0.073504 0.860165 0.566078
O O17 0.000000 0.000000 0.500000
#
# Coordination Sequence:
#
# PCOD9433350 Si02
#       8
#     8   8   8   8   8   8   8   8
#     4  12  26  40  65  94 136 169 221 274 344 413
#     4   9  20  39  65  87 128 170 211 274 340 411
#     4   9  19  41  62  92 121 172 218 263 340 413
#     4  11  23  42  71  90 135 180 231 284 323 414
#     4  11  23  41  62  95 130 165 218 273 333 402
#     4  11  22  40  67  94 136 174 219 288 345 402
#     4  11  23  46  64  96 131 182 223 274 352 397
#     4  12  23  41  63 100 126 174 228 280 329 399
#
# _framework density 21.785087999999998
#
# number of rings (size 3 to 8) (size 9 to 14) (size 15 to 20)
#    0.000    1.250    2.500    4.125    3.500    2.000 
#    0.000   10.625    0.000    0.000    0.000    0.000 
#    0.000    0.000    0.000    0.000    0.000    0.000 
#
# Total GULP energy -356620.658455 kJ/mol
# GULP energy per Si atom -5572.197788 kJ/mol
# Density = 2.173550 g / cm^3
# Si number density = 21.785088 Si / 1000 Ang^3
#
#
#
# Elastic Constant Matrix: (Units=GPa)
#
#
# Indices 1 2 3 4 5 6 
#
# 1 136.5668 29.8604 32.1922 0.0000 0.0000 0.0000
# 2 29.8604 70.7249 12.6331 0.0000 0.0000 0.0000
# 3 32.1922 12.6331 83.1177 0.0000 0.0000 0.0000
# 4 0.0000 0.0000 0.0000 29.2046 0.0000 0.0000
# 5 0.0000 0.0000 0.0000 0.0000 12.0728 0.0000
# 6 0.0000 0.0000 0.0000 0.0000 0.0000 42.7673
#
#
#
# Elastic Compliance Matrix: (Units=1/GPa)
#
#
# Indices 1 2 3 4 5 6 
#
# 1 0.008693 -0.003154 -0.002887 0.000000 0.000000 0.000000
# 2 -0.003154 0.015679 -0.001161 0.000000 0.000000 0.000000
# 3 -0.002887 -0.001161 0.013326 0.000000 0.000000 0.000000
# 4 0.000000 0.000000 0.000000 0.034241 0.000000 0.000000
# 5 0.000000 0.000000 0.000000 0.000000 0.082831 0.000000
# 6 0.000000 0.000000 0.000000 0.000000 0.000000 0.023382
#
#
# Mechanical properties :
#
#
# Convention : Reuss Voigt Hill
#
# Bulk Modulus (GPa) = 42.93463 48.86452 45.89957
# Shear Modulus (GPa) = 24.95989 31.19050 28.07519
#
# Velocity S-wave (km/s) = 3.38854 3.78793 3.59379
# Velocity P-wave (km/s) = 5.92120 6.45060 6.19156
#
# Compressibility (1/GPa) = 0.02329122
#
# Stress axis : x y z
#
# Youngs Moduli (GPa) = 115.03841 63.78152 75.04173
#
# Poissons Ratio (x) = 0.20119 0.21667
# Poissons Ratio (y) = 0.36287 0.08714
# Poissons Ratio (z) = 0.33215 0.07407
#
# Static dielectric constant tensor:
#      x y z
#    x 1.912940 0.000000 0.000000 
#    y 0.000000 1.784190 0.000000 
#    z 0.000000 0.000000 1.861700 
# 
# From -- ./inp_files/5224.got.cif
#   From: 2010.05.17/outbox.cif.g08.bks.cpg/sg56_3_cif.got.tgz:5224.got - 2010.06.03 13:42:01.
