data_PCOD9433821
_publ_section_title
;
Structure prediction by ZEFSAII (Michael W. Deem and Ramdas Pophale) SiO2 
 PCOD9433821
Probable space group: P C C N
;
_chemical_formula_sum "Si O2"
_cell_formula_units_Z 24
_cell_length_a 4.757061
_cell_length_b 24.663211
_cell_length_c 8.350019
_cell_angle_alpha 90.000000
_cell_angle_beta 90.000000
_cell_angle_gamma 90.000000
_cell_volume 979.660962
_symmetry_space_group_name_H-M "P C C N"
_symmetry_group_IT_number 56
_symmetry_cell_setting 'orthorhombic'
loop_
_space_group_symop_operation_xyz
x,y,z
1/2-x,1/2-y,z
1/2+x,-y,1/2-z
-x,1/2+y,1/2-z
-x,-y,-z
1/2+x,1/2+y,-z
1/2-x,y,1/2+z
x,1/2-y,1/2+z
loop_
_atom_site_type_symbol
_atom_site_label
_atom_site_fract_x
_atom_site_fract_y
_atom_site_fract_z
Si Si1 0.159240 0.146428 0.150329
Si Si2 0.655398 0.311622 0.836711
Si Si3 0.161929 0.479076 0.656129
O O1 0.429587 0.182147 0.193524
O O2 0.928809 0.154009 0.290340
O O3 0.241047 0.083699 0.139337
O O4 0.003842 0.166069 0.991231
O O5 0.750000 0.250000 0.856551
O O6 0.936747 0.486889 0.799285
O O7 0.000000 0.500000 0.500000
#
# Coordination Sequence:
#
# PCOD9433821 Si02
#       3
#     8   8   8
#     4  12  25  47  72 104 142 185 234 290 349 417
#     4  12  27  47  72 102 139 186 236 291 351 415
#     4  12  25  44  71 106 143 185 232 287 349 418
#
# _framework density 24.498273000000001
#
# number of rings (size 3 to 8) (size 9 to 14) (size 15 to 20)
#    0.000    0.000    0.000   11.000    0.000    2.667 
#    0.000    1.667    0.000    0.000    0.000    0.000 
#    0.000    0.000    0.000    0.000    0.000    0.000 
#
# Total GULP energy -134817.551279 kJ/mol
# GULP energy per Si atom -5617.397970 kJ/mol
# Density = 2.444251 g / cm^3
# Si number density = 24.498273 Si / 1000 Ang^3
#
#
#
# Elastic Constant Matrix: (Units=GPa)
#
#
# Indices 1 2 3 4 5 6 
#
# 1 98.9826 -17.0541 -0.9150 0.0000 0.0000 0.0000
# 2 -17.0541 104.2175 9.4906 0.0000 0.0000 0.0000
# 3 -0.9150 9.4906 73.5485 0.0000 0.0000 0.0000
# 4 0.0000 0.0000 0.0000 40.8412 0.0000 0.0000
# 5 0.0000 0.0000 0.0000 0.0000 46.6649 0.0000
# 6 0.0000 0.0000 0.0000 0.0000 0.0000 -37.2120
#
#
#
# Elastic Compliance Matrix: (Units=1/GPa)
#
#
# Indices 1 2 3 4 5 6 
#
# 1 0.010396 0.001710 -0.000091 0.000000 0.000000 0.000000
# 2 0.001710 0.009991 -0.001268 0.000000 0.000000 0.000000
# 3 -0.000091 -0.001268 0.013759 0.000000 0.000000 0.000000
# 4 0.000000 0.000000 0.000000 0.024485 0.000000 0.000000
# 5 0.000000 0.000000 0.000000 0.000000 0.021429 0.000000
# 6 0.000000 0.000000 0.000000 0.000000 0.000000 -0.026873
#
#
# Mechanical properties :
#
#
# Convention : Reuss Voigt Hill
#
# Bulk Modulus (GPa) = 28.69703 28.86574 28.78139
# Shear Modulus (GPa) = 78.00055 29.07397 53.53726
#
# Velocity S-wave (km/s) = 5.64875 3.44870 4.67984
# Velocity P-wave (km/s) = 7.36775 5.25988 6.40118
#
# Compressibility (1/GPa) = 0.03484681
#
# Stress axis : x y z
#
# Youngs Moduli (GPa) = 96.18630 100.09476 72.68001
#
# Poissons Ratio (x) = -0.17112 0.00663
# Poissons Ratio (y) = -0.16444 0.09215
# Poissons Ratio (z) = 0.00878 0.12691
#
# Static dielectric constant tensor:
#      x y z
#    x 1.904120 0.000000 0.000000 
#    y 0.000000 1.755250 0.000000 
#    z 0.000000 0.000000 2.045720 
# 
# From -- ./inp_files/1485.got.cif
#   From: 2010.05.17/outbox.cif.g08.bks.cpg/sg56_1_cif.got.tgz:1485.got - 2010.06.03 13:42:01.
