data_PCOD9433427
_publ_section_title
;
Structure prediction by ZEFSAII (Michael W. Deem and Ramdas Pophale) SiO2 
 PCOD9433427
Probable space group: P C C N
;
_chemical_formula_sum "Si O2"
_cell_formula_units_Z 40
_cell_length_a 27.015239
_cell_length_b 5.247144
_cell_length_c 12.331211
_cell_angle_alpha 90.000000
_cell_angle_beta 90.000000
_cell_angle_gamma 90.000000
_cell_volume 1747.984294
_symmetry_space_group_name_H-M "P C C N"
_symmetry_group_IT_number 56
_symmetry_cell_setting 'orthorhombic'
loop_
_space_group_symop_operation_xyz
x,y,z
1/2-x,1/2-y,z
1/2+x,-y,1/2-z
-x,1/2+y,1/2-z
-x,-y,-z
1/2+x,1/2+y,-z
1/2-x,y,1/2+z
x,1/2-y,1/2+z
loop_
_atom_site_type_symbol
_atom_site_label
_atom_site_fract_x
_atom_site_fract_y
_atom_site_fract_z
Si Si1 0.963599 0.608464 0.907318
Si Si2 0.880925 0.554526 0.519632
Si Si3 0.849456 0.384088 0.300604
Si Si4 0.695362 0.640712 0.200930
Si Si5 0.441730 0.719293 0.793468
O O1 0.942658 0.405016 0.824316
O O2 0.001847 0.759037 0.830494
O O3 0.917802 0.753817 0.958604
O O4 0.000000 0.500000 0.000000
O O5 0.860612 0.361062 0.428361
O O6 0.835810 0.662780 0.589724
O O7 0.916251 0.429974 0.609317
O O8 0.822448 0.652754 0.288343
O O9 0.900470 0.432991 0.231399
O O10 0.818773 0.143780 0.249008
O O11 0.750000 0.750000 0.177372
#
# Coordination Sequence:
#
# PCOD9433427 Si02
#       5
#     8   8   8   8   8
#     4  12  22  38  65 101 145 194 238 283 348 421
#     4  11  23  42  69 100 140 186 235 291 355 422
#     4  11  24  45  70 101 138 182 230 291 356 421
#     4  11  26  48  73 102 137 175 234 300 363 432
#     4  11  23  39  62  98 140 183 233 285 334 414
#
# _framework density 22.883500000000002
#
# number of rings (size 3 to 8) (size 9 to 14) (size 15 to 20)
#    0.000    0.800    0.000    8.400    0.000    5.600 
#    0.000    6.000    0.000    0.000    0.000    0.000 
#    0.000    0.000    0.000    0.000    0.000    0.000 
#
# Total GULP energy -223154.243245 kJ/mol
# GULP energy per Si atom -5578.856081 kJ/mol
# Density = 2.283142 g / cm^3
# Si number density = 22.883500 Si / 1000 Ang^3
#
#
#
# Elastic Constant Matrix: (Units=GPa)
#
#
# Indices 1 2 3 4 5 6 
#
# 1 126.9243 24.7599 22.8813 0.0000 0.0000 0.0000
# 2 24.7599 63.5057 29.7583 0.0000 0.0000 0.0000
# 3 22.8813 29.7583 111.4217 0.0000 0.0000 0.0000
# 4 0.0000 0.0000 0.0000 73.1538 0.0000 0.0000
# 5 0.0000 0.0000 0.0000 0.0000 17.2010 0.0000
# 6 0.0000 0.0000 0.0000 0.0000 0.0000 27.8717
#
#
#
# Elastic Compliance Matrix: (Units=1/GPa)
#
#
# Indices 1 2 3 4 5 6 
#
# 1 0.008623 -0.002895 -0.000998 0.000000 0.000000 0.000000
# 2 -0.002895 0.018971 -0.004472 0.000000 0.000000 0.000000
# 3 -0.000998 -0.004472 0.010374 0.000000 0.000000 0.000000
# 4 0.000000 0.000000 0.000000 0.013670 0.000000 0.000000
# 5 0.000000 0.000000 0.000000 0.000000 0.058136 0.000000
# 6 0.000000 0.000000 0.000000 0.000000 0.000000 0.035879
#
#
# Mechanical properties :
#
#
# Convention : Reuss Voigt Hill
#
# Bulk Modulus (GPa) = 47.08281 50.73894 48.91087
# Shear Modulus (GPa) = 29.50520 38.60881 34.05700
#
# Velocity S-wave (km/s) = 3.59467 4.11200 3.86201
# Velocity P-wave (km/s) = 6.15212 6.69071 6.42706
#
# Compressibility (1/GPa) = 0.02123917
#
# Stress axis : x y z
#
# Youngs Moduli (GPa) = 115.96578 52.71255 96.39242
#
# Poissons Ratio (x) = 0.15258 0.09618
# Poissons Ratio (y) = 0.33566 0.43109
# Poissons Ratio (z) = 0.11571 0.23574
#
# Static dielectric constant tensor:
#      x y z
#    x 2.005950 0.000000 0.000000 
#    y 0.000000 1.940830 0.000000 
#    z 0.000000 0.000000 1.933170 
# 
# From -- ./inp_files/5621.got.cif
#   From: 2010.05.17/outbox.cif.g08.bks.cpg/sg56_3_cif.got.tgz:5621.got - 2010.06.03 13:42:01.
