data_PCOD9433660
_publ_section_title
;
Structure prediction by ZEFSAII (Michael W. Deem and Ramdas Pophale) SiO2 
 PCOD9433660
Probable space group: P C C N
;
_chemical_formula_sum "Si O2"
_cell_formula_units_Z 40
_cell_length_a 20.803814
_cell_length_b 7.489122
_cell_length_c 10.867064
_cell_angle_alpha 90.000000
_cell_angle_beta 90.000000
_cell_angle_gamma 90.000000
_cell_volume 1693.113578
_symmetry_space_group_name_H-M "P C C N"
_symmetry_group_IT_number 56
_symmetry_cell_setting 'orthorhombic'
loop_
_space_group_symop_operation_xyz
x,y,z
1/2-x,1/2-y,z
1/2+x,-y,1/2-z
-x,1/2+y,1/2-z
-x,-y,-z
1/2+x,1/2+y,-z
1/2-x,y,1/2+z
x,1/2-y,1/2+z
loop_
_atom_site_type_symbol
_atom_site_label
_atom_site_fract_x
_atom_site_fract_y
_atom_site_fract_z
Si Si1 0.935539 0.480983 0.732305
Si Si2 0.573114 0.897666 0.246623
Si Si3 0.188090 0.656420 0.405686
Si Si4 0.612261 0.032269 0.993816
Si Si5 0.685627 0.670886 0.921349
O O1 0.926651 0.690438 0.710025
O O2 0.872664 0.386933 0.679323
O O3 0.934390 0.443506 0.878431
O O4 0.005765 0.428799 0.684111
O O5 0.635797 0.924113 0.329981
O O6 0.578166 0.017513 0.125504
O O7 0.250000 0.750000 0.344735
O O8 0.162156 0.805154 0.500881
O O9 0.204405 0.471532 0.474351
O O10 0.648336 0.843773 0.973255
O O11 0.750000 0.750000 0.860050
#
# Coordination Sequence:
#
# PCOD9433660 Si02
#       5
#     8   8   8   8   8
#     4  11  26  46  71 110 145 191 239 292 363 427
#     4  11  25  47  73 104 153 187 237 300 355 430
#     4  12  26  45  77 102 144 191 244 295 359 423
#     4  11  25  46  70 107 146 188 235 299 351 429
#     4  11  25  48  72 104 142 191 241 297 358 417
#
# _framework density 23.625112000000001
#
# number of rings (size 3 to 8) (size 9 to 14) (size 15 to 20)
#    0.000    0.800    4.000    1.800    5.600    7.200 
#    0.000    0.000    0.000    0.000    0.000    0.000 
#    0.000    0.000    0.000    0.000    0.000    0.000 
#
# Total GULP energy -223813.256746 kJ/mol
# GULP energy per Si atom -5595.331419 kJ/mol
# Density = 2.357134 g / cm^3
# Si number density = 23.625112 Si / 1000 Ang^3
#
#
#
# Elastic Constant Matrix: (Units=GPa)
#
#
# Indices 1 2 3 4 5 6 
#
# 1 174.4995 6.7858 40.0343 0.0000 0.0000 0.0000
# 2 6.7858 82.2094 2.9892 0.0000 0.0000 0.0000
# 3 40.0343 2.9892 50.2370 0.0000 0.0000 0.0000
# 4 0.0000 0.0000 0.0000 -1.8027 0.0000 0.0000
# 5 0.0000 0.0000 0.0000 0.0000 30.1637 0.0000
# 6 0.0000 0.0000 0.0000 0.0000 0.0000 989.2466
#
#
#
# Elastic Compliance Matrix: (Units=1/GPa)
#
#
# Indices 1 2 3 4 5 6 
#
# 1 0.007024 -0.000377 -0.005575 0.000000 0.000000 0.000000
# 2 -0.000377 0.012211 -0.000426 0.000000 0.000000 0.000000
# 3 -0.005575 -0.000426 0.024374 0.000000 0.000000 0.000000
# 4 0.000000 0.000000 0.000000 -0.554722 0.000000 0.000000
# 5 0.000000 0.000000 0.000000 0.000000 0.033152 0.000000
# 6 0.000000 0.000000 0.000000 0.000000 0.000000 0.001011
#
#
# Mechanical properties :
#
#
# Convention : Reuss Voigt Hill
#
# Bulk Modulus (GPa) = 32.41270 45.17383 38.79326
# Shear Modulus (GPa) = -11.01544 220.66396 104.82426
#
# Velocity S-wave (km/s) = -2.16165 9.67497 6.66830
# Velocity P-wave (km/s) = 2.74210 11.99872 8.70312
#
# Compressibility (1/GPa) = 0.03085211
#
# Stress axis : x y z
#
# Youngs Moduli (GPa) = 142.35941 81.89553 41.02718
#
# Poissons Ratio (x) = 0.03088 0.22874
# Poissons Ratio (y) = 0.05368 0.01748
# Poissons Ratio (z) = 0.79371 0.03489
#
# Static dielectric constant tensor:
#      x y z
#    x 1.931180 0.000000 0.000000 
#    y 0.000000 1.872750 0.000000 
#    z 0.000000 0.000000 1.897020 
# 
# From -- ./inp_files/8181.got.cif
#   From: 2010.05.17/outbox.cif.g08.bks.cpg/sg56_5_cif.got.tgz:8181.got - 2010.06.03 13:42:01.
