data_PCOD9433129
_publ_section_title
;
Structure prediction by ZEFSAII (Michael W. Deem and Ramdas Pophale) SiO2 
 PCOD9433129
Probable space group: P C C N
;
_chemical_formula_sum "Si O2"
_cell_formula_units_Z 48
_cell_length_a 9.938688
_cell_length_b 14.477242
_cell_length_c 16.077121
_cell_angle_alpha 90.000000
_cell_angle_beta 90.000000
_cell_angle_gamma 90.000000
_cell_volume 2313.253200
_symmetry_space_group_name_H-M "P C C N"
_symmetry_group_IT_number 56
_symmetry_cell_setting 'orthorhombic'
loop_
_space_group_symop_operation_xyz
x,y,z
1/2-x,1/2-y,z
1/2+x,-y,1/2-z
-x,1/2+y,1/2-z
-x,-y,-z
1/2+x,1/2+y,-z
1/2-x,y,1/2+z
x,1/2-y,1/2+z
loop_
_atom_site_type_symbol
_atom_site_label
_atom_site_fract_x
_atom_site_fract_y
_atom_site_fract_z
Si Si1 0.980622 0.810475 0.627771
Si Si2 0.250000 0.250000 0.771544
Si Si3 0.384520 0.564580 0.951863
Si Si4 0.772795 0.563649 0.815241
Si Si5 0.360604 0.055305 0.995433
Si Si6 0.997201 0.039357 0.225760
Si Si7 0.250000 0.750000 0.038267
O O1 0.126501 0.784729 0.594511
O O2 0.882410 0.737168 0.671648
O O3 0.896106 0.850429 0.550431
O O4 0.998334 0.890852 0.696326
O O5 0.226230 0.335999 0.712430
O O6 0.253794 0.499157 0.945564
O O7 0.444291 0.582906 0.860366
O O8 0.500000 0.500000 0.000000
O O9 0.321729 0.661159 0.990361
O O10 0.644937 0.500109 0.794406
O O11 0.896139 0.537373 0.757693
O O12 0.808552 0.562934 0.911113
O O13 0.500000 0.000000 0.000000
#
# Coordination Sequence:
#
# PCOD9433129 Si02
#       7
#     8   4   8   8   8   8   4
#     4  11  26  45  69  99 143 182 237 296 358 426
#     4  10  26  42  64 106 128 186 232 290 350 414
#     4  12  26  46  75 103 144 190 241 293 367 432
#     4  11  24  43  70  99 139 179 238 284 355 430
#     4  12  23  48  69 101 141 192 226 289 363 432
#     4  11  24  44  69 100 137 188 230 290 363 428
#     4  12  28  46  68 112 140 186 250 300 356 434
#
# _framework density 20.749998000000001
#
# number of rings (size 3 to 8) (size 9 to 14) (size 15 to 20)
#    0.000    0.667    5.000    2.000    4.667    4.000 
#    0.000    0.000    0.000    0.000    0.000    0.000 
#    0.000    0.000    0.000    0.000    0.000    0.000 
#
# Total GULP energy -267695.806559 kJ/mol
# GULP energy per Si atom -5576.995970 kJ/mol
# Density = 2.070277 g / cm^3
# Si number density = 20.749998 Si / 1000 Ang^3
#
#
#
# Elastic Constant Matrix: (Units=GPa)
#
#
# Indices 1 2 3 4 5 6 
#
# 1 132.0682 22.1089 44.5145 0.0000 0.0000 0.0000
# 2 22.1089 36.5483 16.1751 0.0000 0.0000 0.0000
# 3 44.5145 16.1751 119.7511 0.0000 0.0000 0.0000
# 4 0.0000 0.0000 0.0000 2.3926 0.0000 0.0000
# 5 0.0000 0.0000 0.0000 0.0000 40.0798 0.0000
# 6 0.0000 0.0000 0.0000 0.0000 0.0000 37.6064
#
#
#
# Elastic Compliance Matrix: (Units=1/GPa)
#
#
# Indices 1 2 3 4 5 6 
#
# 1 0.009261 -0.004338 -0.002857 0.000000 0.000000 0.000000
# 2 -0.004338 0.031133 -0.002593 0.000000 0.000000 0.000000
# 3 -0.002857 -0.002593 0.009763 0.000000 0.000000 0.000000
# 4 0.000000 0.000000 0.000000 0.417950 0.000000 0.000000
# 5 0.000000 0.000000 0.000000 0.000000 0.024950 0.000000
# 6 0.000000 0.000000 0.000000 0.000000 0.000000 0.026591
#
#
# Mechanical properties :
#
#
# Convention : Reuss Voigt Hill
#
# Bulk Modulus (GPa) = 32.69908 50.44050 41.56979
# Shear Modulus (GPa) = 9.10058 29.72038 19.41048
#
# Velocity S-wave (km/s) = 2.09651 3.78869 3.06182
# Velocity P-wave (km/s) = 4.65331 6.59548 5.70761
#
# Compressibility (1/GPa) = 0.03058190
#
# Stress axis : x y z
#
# Youngs Moduli (GPa) = 107.98141 32.12076 102.43065
#
# Poissons Ratio (x) = 0.13934 0.29260
# Poissons Ratio (y) = 0.46841 0.26557
# Poissons Ratio (z) = 0.30846 0.08328
#
# Static dielectric constant tensor:
#      x y z
#    x 1.954220 0.000000 0.000000 
#    y 0.000000 1.850410 0.000000 
#    z 0.000000 0.000000 1.728850 
# 
# From -- ./inp_files/10713.got.cif
#   From: 2010.05.17/outbox.cif.g08.bks.cpg/sg56_6_cif.got.tgz:10713.got - 2010.06.03 13:42:01.
