data_PCOD9433799
_publ_section_title
;
Structure prediction by ZEFSAII (Michael W. Deem and Ramdas Pophale) SiO2 
 PCOD9433799
Probable space group: P C C N
;
_chemical_formula_sum "Si O2"
_cell_formula_units_Z 32
_cell_length_a 7.917047
_cell_length_b 13.512104
_cell_length_c 12.406087
_cell_angle_alpha 90.000000
_cell_angle_beta 90.000000
_cell_angle_gamma 90.000000
_cell_volume 1327.153097
_symmetry_space_group_name_H-M "P C C N"
_symmetry_group_IT_number 56
_symmetry_cell_setting 'orthorhombic'
loop_
_space_group_symop_operation_xyz
x,y,z
1/2-x,1/2-y,z
1/2+x,-y,1/2-z
-x,1/2+y,1/2-z
-x,-y,-z
1/2+x,1/2+y,-z
1/2-x,y,1/2+z
x,1/2-y,1/2+z
loop_
_atom_site_type_symbol
_atom_site_label
_atom_site_fract_x
_atom_site_fract_y
_atom_site_fract_z
Si Si1 0.851991 0.594936 0.734337
Si Si2 0.750000 0.250000 0.463970
Si Si3 0.989314 0.069175 0.389305
Si Si4 0.991065 0.613853 0.518255
Si Si5 0.750000 0.750000 0.395444
O O1 0.673370 0.587322 0.668173
O O2 0.993058 0.619553 0.646268
O O3 0.862360 0.685631 0.816313
O O4 0.886394 0.496154 0.802088
O O5 0.610016 0.326212 0.410511
O O6 0.645144 0.171953 0.532440
O O7 0.000000 0.000000 0.500000
O O8 0.832302 0.667978 0.469746
O O9 0.000000 0.500000 0.500000
#
# Coordination Sequence:
#
# PCOD9433799 Si02
#       5
#     8   4   8   8   4
#     4  12  25  45  72 104 149 198 248 317 389 453
#     4  12  24  44  72 102 142 198 252 304 384 454
#     4  12  26  47  75 111 153 202 262 324 387 471
#     4  12  26  46  71 105 145 191 249 313 378 458
#     4  12  24  44  70 100 142 192 248 314 380 452
#
# _framework density 24.111761999999999
#
# number of rings (size 3 to 8) (size 9 to 14) (size 15 to 20)
#    0.000    0.000    0.000   12.750    0.000    0.000 
#    0.000   16.250    0.000    0.000    0.000    0.000 
#    0.000    0.000    0.000    0.000    0.000    0.000 
#
# Total GULP energy -178658.605208 kJ/mol
# GULP energy per Si atom -5583.081413 kJ/mol
# Density = 2.405688 g / cm^3
# Si number density = 24.111762 Si / 1000 Ang^3
#
#
#
# Elastic Constant Matrix: (Units=GPa)
#
#
# Indices 1 2 3 4 5 6 
#
# 1 69.9515 41.5274 25.0591 0.0000 0.0000 0.0000
# 2 41.5274 214.5615 53.8898 0.0000 0.0000 0.0000
# 3 25.0591 53.8898 108.2383 0.0000 0.0000 0.0000
# 4 0.0000 0.0000 0.0000 16.2187 0.0000 0.0000
# 5 0.0000 0.0000 0.0000 0.0000 26.0800 0.0000
# 6 0.0000 0.0000 0.0000 0.0000 0.0000 54.8492
#
#
#
# Elastic Compliance Matrix: (Units=1/GPa)
#
#
# Indices 1 2 3 4 5 6 
#
# 1 0.016763 -0.002594 -0.002589 0.000000 0.000000 0.000000
# 2 -0.002594 0.005728 -0.002251 0.000000 0.000000 0.000000
# 3 -0.002589 -0.002251 0.010959 0.000000 0.000000 0.000000
# 4 0.000000 0.000000 0.000000 0.061657 0.000000 0.000000
# 5 0.000000 0.000000 0.000000 0.000000 0.038344 0.000000
# 6 0.000000 0.000000 0.000000 0.000000 0.000000 0.018232
#
#
# Mechanical properties :
#
#
# Convention : Reuss Voigt Hill
#
# Bulk Modulus (GPa) = 53.81861 70.41154 62.11508
# Shear Modulus (GPa) = 28.94410 37.58124 33.26267
#
# Velocity S-wave (km/s) = 3.46846 3.95223 3.71822
# Velocity P-wave (km/s) = 6.19752 7.07760 6.65213
#
# Compressibility (1/GPa) = 0.01858093
#
# Stress axis : x y z
#
# Youngs Moduli (GPa) = 59.65426 174.57471 91.24673
#
# Poissons Ratio (x) = 0.45286 0.23628
# Poissons Ratio (y) = 0.15475 0.20543
# Poissons Ratio (z) = 0.15447 0.39304
#
# Static dielectric constant tensor:
#      x y z
#    x 1.181020 0.000000 0.000000 
#    y 0.000000 2.006900 0.000000 
#    z 0.000000 0.000000 1.939330 
# 
# From -- ./inp_files/6087.got.cif
#   From: 2010.05.17/outbox.cif.g08.bks.cpg/sg56_4_cif.got.tgz:6087.got - 2010.06.03 13:42:01.
