data_PCOD9433477
_publ_section_title
;
Structure prediction by ZEFSAII (Michael W. Deem and Ramdas Pophale) SiO2 
 PCOD9433477
Probable space group: P C C N
;
_chemical_formula_sum "Si O2"
_cell_formula_units_Z 40
_cell_length_a 4.944739
_cell_length_b 11.636492
_cell_length_c 25.833970
_cell_angle_alpha 90.000000
_cell_angle_beta 90.000000
_cell_angle_gamma 90.000000
_cell_volume 1486.471542
_symmetry_space_group_name_H-M "P C C N"
_symmetry_group_IT_number 56
_symmetry_cell_setting 'orthorhombic'
loop_
_space_group_symop_operation_xyz
x,y,z
1/2-x,1/2-y,z
1/2+x,-y,1/2-z
-x,1/2+y,1/2-z
-x,-y,-z
1/2+x,1/2+y,-z
1/2-x,y,1/2+z
x,1/2-y,1/2+z
loop_
_atom_site_type_symbol
_atom_site_label
_atom_site_fract_x
_atom_site_fract_y
_atom_site_fract_z
Si Si1 0.835323 0.880363 0.975045
Si Si2 0.750000 0.750000 0.113104
Si Si3 0.899302 0.132224 0.138573
Si Si4 0.250000 0.750000 0.671676
Si Si5 0.738354 0.488879 0.284512
Si Si6 0.642154 0.972296 0.073071
O O1 0.750000 0.750000 0.988388
O O2 0.013759 0.859376 0.922911
O O3 0.574482 0.948357 0.954267
O O4 0.885223 0.940572 0.032172
O O5 0.510746 0.690408 0.144465
O O6 0.560579 0.842729 0.084618
O O7 0.750000 0.250000 0.153790
O O8 0.690952 0.029214 0.128602
O O9 0.135213 0.081000 0.174271
O O10 0.367746 0.637718 0.699228
O O11 0.491217 0.541342 0.252750
#
# Coordination Sequence:
#
# PCOD9433477 Si02
#       6
#     8   4   8   4   8   8
#     4  11  23  43  70 107 157 200 257 309 379 457
#     4  12  24  46  78 110 148 208 250 320 380 454
#     4  12  26  48  75 107 151 200 251 326 387 469
#     4  12  26  52  80 106 154 196 260 320 388 476
#     4  12  30  53  79 116 150 200 261 328 407 474
#     4  11  24  44  69 110 153 203 259 307 377 458
#
# _framework density 26.909361000000001
#
# number of rings (size 3 to 8) (size 9 to 14) (size 15 to 20)
#    0.000    0.400    5.000    3.000    4.200    0.000 
#    1.800    0.000    0.000    0.000    0.000    0.000 
#    0.000    0.000    0.000    0.000    0.000    0.000 
#
# Total GULP energy -222939.999660 kJ/mol
# GULP energy per Si atom -5573.499992 kJ/mol
# Density = 2.684811 g / cm^3
# Si number density = 26.909361 Si / 1000 Ang^3
#
#
#
# Elastic Constant Matrix: (Units=GPa)
#
#
# Indices 1 2 3 4 5 6 
#
# 1 94.0906 28.7035 20.3993 0.0000 0.0000 0.0000
# 2 28.7035 166.7335 33.5053 0.0000 0.0000 0.0000
# 3 20.3993 33.5053 81.1975 0.0000 0.0000 0.0000
# 4 0.0000 0.0000 0.0000 67.8426 0.0000 0.0000
# 5 0.0000 0.0000 0.0000 0.0000 -4.9716 0.0000
# 6 0.0000 0.0000 0.0000 0.0000 0.0000 41.0177
#
#
#
# Elastic Compliance Matrix: (Units=1/GPa)
#
#
# Indices 1 2 3 4 5 6 
#
# 1 0.011591 -0.001538 -0.002277 0.000000 0.000000 0.000000
# 2 -0.001538 0.006744 -0.002396 0.000000 0.000000 0.000000
# 3 -0.002277 -0.002396 0.013877 0.000000 0.000000 0.000000
# 4 0.000000 0.000000 0.000000 0.014740 0.000000 0.000000
# 5 0.000000 0.000000 0.000000 0.000000 -0.201141 0.000000
# 6 0.000000 0.000000 0.000000 0.000000 0.000000 0.024380
#
#
# Mechanical properties :
#
#
# Convention : Reuss Voigt Hill
#
# Bulk Modulus (GPa) = 50.53526 56.35977 53.44751
# Shear Modulus (GPa) = -45.13009 38.07197 -3.52906
#
# Velocity S-wave (km/s) = -4.09970 3.76549 -1.14643
# Velocity P-wave (km/s) = 1.89460 6.31625 4.26061
#
# Compressibility (1/GPa) = 0.01978817
#
# Stress axis : x y z
#
# Youngs Moduli (GPa) = 86.27441 148.28234 72.06326
#
# Poissons Ratio (x) = 0.22802 0.16412
# Poissons Ratio (y) = 0.13267 0.17270
# Poissons Ratio (z) = 0.19649 0.35535
#
# Static dielectric constant tensor:
#      x y z
#    x 2.076390 0.000000 0.000000 
#    y 0.000000 -0.432140 0.000000 
#    z 0.000000 0.000000 2.425610 
# 
# From -- ./inp_files/21534.got.cif
#   From: 2010.05.17/outbox.cif.g08.bks.cpg/sg56_11_cif.got.tgz:21534.got - 2010.06.03 13:42:01.
