data_PCOD9433144
_publ_section_title
;
Structure prediction by ZEFSAII (Michael W. Deem and Ramdas Pophale) SiO2 
 PCOD9433144
Probable space group: P C C N
;
_chemical_formula_sum "Si O2"
_cell_formula_units_Z 28
_cell_length_a 19.488220
_cell_length_b 4.819081
_cell_length_c 11.496821
_cell_angle_alpha 90.000000
_cell_angle_beta 90.000000
_cell_angle_gamma 90.000000
_cell_volume 1079.727517
_symmetry_space_group_name_H-M "P C C N"
_symmetry_group_IT_number 56
_symmetry_cell_setting 'orthorhombic'
loop_
_space_group_symop_operation_xyz
x,y,z
1/2-x,1/2-y,z
1/2+x,-y,1/2-z
-x,1/2+y,1/2-z
-x,-y,-z
1/2+x,1/2+y,-z
1/2-x,y,1/2+z
x,1/2-y,1/2+z
loop_
_atom_site_type_symbol
_atom_site_label
_atom_site_fract_x
_atom_site_fract_y
_atom_site_fract_z
Si Si1 0.335217 0.133913 0.903774
Si Si2 0.750000 0.250000 0.753611
Si Si3 0.637912 0.129450 0.439240
Si Si4 0.955221 0.683411 0.269850
O O1 0.273363 0.994297 0.831762
O O2 0.389878 0.247705 0.810738
O O3 0.371092 0.870882 0.967520
O O4 0.323504 0.371121 0.999484
O O5 0.685134 0.232355 0.839478
O O6 0.572476 0.983530 0.381569
O O7 0.005556 0.466742 0.206183
#
# Coordination Sequence:
#
# PCOD9433144 Si02
#       4
#     8   4   8   8
#     4  11  25  44  69 100 137 183 233 287 349 413
#     4  10  26  46  68 100 140 180 236 290 340 412
#     4  11  25  44  69 100 137 183 233 287 349 413
#     4  11  24  43  68 100 138 178 229 287 342 413
#
# _framework density 25.932471
#
# number of rings (size 3 to 8) (size 9 to 14) (size 15 to 20)
#    0.000    1.143    0.000    4.286    0.000   20.571 
#    0.000    0.000    0.000    0.000    0.000    0.000 
#    0.000    0.000    0.000    0.000    0.000    0.000 
#
# Total GULP energy -156890.541027 kJ/mol
# GULP energy per Si atom -5603.233608 kJ/mol
# Density = 2.587345 g / cm^3
# Si number density = 25.932471 Si / 1000 Ang^3
#
#
#
# Elastic Constant Matrix: (Units=GPa)
#
#
# Indices 1 2 3 4 5 6 
#
# 1 84.7878 46.6663 28.4186 0.0000 0.0000 0.0000
# 2 46.6663 127.2419 61.2777 0.0000 0.0000 0.0000
# 3 28.4186 61.2777 98.5626 0.0000 0.0000 0.0000
# 4 0.0000 0.0000 0.0000 -51.6192 0.0000 0.0000
# 5 0.0000 0.0000 0.0000 0.0000 34.8027 0.0000
# 6 0.0000 0.0000 0.0000 0.0000 0.0000 15.7589
#
#
#
# Elastic Compliance Matrix: (Units=1/GPa)
#
#
# Indices 1 2 3 4 5 6 
#
# 1 0.014890 -0.004843 -0.001282 0.000000 0.000000 0.000000
# 2 -0.004843 0.012793 -0.006557 0.000000 0.000000 0.000000
# 3 -0.001282 -0.006557 0.014592 0.000000 0.000000 0.000000
# 4 0.000000 0.000000 0.000000 -0.019373 0.000000 0.000000
# 5 0.000000 0.000000 0.000000 0.000000 0.028733 0.000000
# 6 0.000000 0.000000 0.000000 0.000000 0.000000 0.063456
#
#
# Mechanical properties :
#
#
# Convention : Reuss Voigt Hill
#
# Bulk Modulus (GPa) = 59.13701 64.81304 61.97503
# Shear Modulus (GPa) = 34.22463 11.40380 22.81421
#
# Velocity S-wave (km/s) = 3.63679 2.09930 2.96928
# Velocity P-wave (km/s) = 6.36308 5.56087 5.97545
#
# Compressibility (1/GPa) = 0.01690988
#
# Stress axis : x y z
#
# Youngs Moduli (GPa) = 67.16101 78.16622 68.53003
#
# Poissons Ratio (x) = 0.37860 0.08785
# Poissons Ratio (y) = 0.32529 0.44937
# Poissons Ratio (z) = 0.08609 0.51255
#
# Static dielectric constant tensor:
#      x y z
#    x 2.130280 0.000000 0.000000 
#    y 0.000000 2.027670 0.000000 
#    z 0.000000 0.000000 2.031390 
# 
# From -- ./inp_files/8527.got.cif
#   From: 2010.05.17/outbox.cif.g08.bks.cpg/sg56_5_cif.got.tgz:8527.got - 2010.06.03 13:42:01.
