data_PCOD9433712
_publ_section_title
;
Structure prediction by ZEFSAII (Michael W. Deem and Ramdas Pophale) SiO2 
 PCOD9433712
Probable space group: P C C N
;
_chemical_formula_sum "Si O2"
_cell_formula_units_Z 40
_cell_length_a 9.847040
_cell_length_b 7.210383
_cell_length_c 22.439733
_cell_angle_alpha 90.000000
_cell_angle_beta 90.000000
_cell_angle_gamma 90.000000
_cell_volume 1593.241908
_symmetry_space_group_name_H-M "P C C N"
_symmetry_group_IT_number 56
_symmetry_cell_setting 'orthorhombic'
loop_
_space_group_symop_operation_xyz
x,y,z
1/2-x,1/2-y,z
1/2+x,-y,1/2-z
-x,1/2+y,1/2-z
-x,-y,-z
1/2+x,1/2+y,-z
1/2-x,y,1/2+z
x,1/2-y,1/2+z
loop_
_atom_site_type_symbol
_atom_site_label
_atom_site_fract_x
_atom_site_fract_y
_atom_site_fract_z
Si Si1 0.844409 0.406721 0.877225
Si Si2 0.479103 0.777559 0.507329
Si Si3 0.750000 0.750000 0.945289
Si Si4 0.656432 0.006896 0.692114
Si Si5 0.750000 0.250000 0.085595
Si Si6 0.556607 0.901026 0.217516
O O1 0.750000 0.250000 0.847879
O O2 0.749505 0.569209 0.903315
O O3 0.956112 0.486257 0.832049
O O4 0.922158 0.297826 0.930555
O O5 0.625266 0.707694 0.488327
O O6 0.374133 0.707042 0.457608
O O7 0.500000 0.000000 0.500000
O O8 0.800604 0.003774 0.726874
O O9 0.599885 0.798760 0.692138
O O10 0.697762 0.086789 0.628416
O O11 0.536248 0.117480 0.724322
#
# Coordination Sequence:
#
# PCOD9433712 Si02
#       6
#     8   8   4   8   4   8
#     4  12  26  46  74 110 149 197 250 314 375 457
#     4  12  24  47  72 110 150 197 252 311 376 456
#     4  12  26  42  74 106 150 200 244 308 382 444
#     4  11  26  47  74 108 145 195 247 312 374 452
#     4  12  24  44  72 106 150 192 246 310 374 448
#     4  11  27  47  74 107 146 193 249 310 380 447
#
# _framework density 25.106044000000001
#
# number of rings (size 3 to 8) (size 9 to 14) (size 15 to 20)
#    0.000    0.400    3.000    4.200    4.200    4.800 
#    0.000    0.000    0.000    0.000    0.000    0.000 
#    0.000    0.000    0.000    0.000    0.000    0.000 
#
# Total GULP energy -224105.677110 kJ/mol
# GULP energy per Si atom -5602.641928 kJ/mol
# Density = 2.504890 g / cm^3
# Si number density = 25.106044 Si / 1000 Ang^3
#
#
#
# Elastic Constant Matrix: (Units=GPa)
#
#
# Indices 1 2 3 4 5 6 
#
# 1 178.5001 11.6398 62.4464 0.0000 0.0000 0.0000
# 2 11.6398 98.4649 20.7912 0.0000 0.0000 0.0000
# 3 62.4464 20.7912 98.7154 0.0000 0.0000 0.0000
# 4 0.0000 0.0000 0.0000 28.5904 0.0000 0.0000
# 5 0.0000 0.0000 0.0000 0.0000 37.2023 0.0000
# 6 0.0000 0.0000 0.0000 0.0000 0.0000 38.1718
#
#
#
# Elastic Compliance Matrix: (Units=1/GPa)
#
#
# Indices 1 2 3 4 5 6 
#
# 1 0.007196 0.000116 -0.004576 0.000000 0.000000 0.000000
# 2 0.000116 0.010630 -0.002312 0.000000 0.000000 0.000000
# 3 -0.004576 -0.002312 0.013512 0.000000 0.000000 0.000000
# 4 0.000000 0.000000 0.000000 0.034977 0.000000 0.000000
# 5 0.000000 0.000000 0.000000 0.000000 0.026880 0.000000
# 6 0.000000 0.000000 0.000000 0.000000 0.000000 0.026197
#
#
# Mechanical properties :
#
#
# Convention : Reuss Voigt Hill
#
# Bulk Modulus (GPa) = 56.20297 62.82614 59.51455
# Shear Modulus (GPa) = 36.00527 39.51311 37.75919
#
# Velocity S-wave (km/s) = 3.79110 3.97148 3.88234
# Velocity P-wave (km/s) = 6.44965 6.79035 6.62219
#
# Compressibility (1/GPa) = 0.01779266
#
# Stress axis : x y z
#
# Youngs Moduli (GPa) = 138.97281 94.06949 74.00829
#
# Poissons Ratio (x) = -0.01088 0.33868
# Poissons Ratio (y) = -0.01608 0.17112
# Poissons Ratio (z) = 0.63598 0.21750
#
# Static dielectric constant tensor:
#      x y z
#    x 1.955090 0.000000 0.000000 
#    y 0.000000 2.112440 0.000000 
#    z 0.000000 0.000000 2.045860 
# 
# From -- ./inp_files/20352.got.cif
#   From: 2010.05.17/outbox.cif.g08.bks.cpg/sg56_11_cif.got.tgz:20352.got - 2010.06.03 13:42:01.
