data_PCOD9433191
_publ_section_title
;
Structure prediction by ZEFSAII (Michael W. Deem and Ramdas Pophale) SiO2 
 PCOD9433191
Probable space group: P C C N
;
_chemical_formula_sum "Si O2"
_cell_formula_units_Z 44
_cell_length_a 11.943715
_cell_length_b 10.269604
_cell_length_c 18.024854
_cell_angle_alpha 90.000000
_cell_angle_beta 90.000000
_cell_angle_gamma 90.000000
_cell_volume 2210.878543
_symmetry_space_group_name_H-M "P C C N"
_symmetry_group_IT_number 56
_symmetry_cell_setting 'orthorhombic'
loop_
_space_group_symop_operation_xyz
x,y,z
1/2-x,1/2-y,z
1/2+x,-y,1/2-z
-x,1/2+y,1/2-z
-x,-y,-z
1/2+x,1/2+y,-z
1/2-x,y,1/2+z
x,1/2-y,1/2+z
loop_
_atom_site_type_symbol
_atom_site_label
_atom_site_fract_x
_atom_site_fract_y
_atom_site_fract_z
Si Si1 0.250000 0.750000 0.013722
Si Si2 0.688024 0.035926 0.607879
Si Si3 0.447588 0.473053 0.148036
Si Si4 0.159143 0.128079 0.296196
Si Si5 0.136337 0.315962 0.508574
Si Si6 0.463744 0.727793 0.599952
O O1 0.156645 0.685731 0.067581
O O2 0.202904 0.856802 0.955934
O O3 0.578800 0.060566 0.657744
O O4 0.789369 0.996356 0.660797
O O5 0.667132 0.904804 0.561410
O O6 0.372862 0.417260 0.213875
O O7 0.413676 0.403708 0.072176
O O8 0.440242 0.626906 0.131895
O O9 0.250000 0.250000 0.296904
O O10 0.043190 0.163271 0.338333
O O11 0.250000 0.250000 0.534546
O O12 0.041581 0.224681 0.473993
#
# Coordination Sequence:
#
# PCOD9433191 Si02
#       6
#     4   8   8   8   8   8
#     4  12  24  40  70 100 136 168 226 280 342 386
#     4  11  22  43  65  93 134 173 212 279 332 393
#     4  11  23  40  66  93 131 174 217 272 339 385
#     4  12  24  44  70  96 136 181 227 273 338 417
#     4  11  18  42  72  89 115 176 227 261 318 399
#     4  11  22  43  65  93 134 173 212 279 332 393
#
# _framework density 19.901591
#
# number of rings (size 3 to 8) (size 9 to 14) (size 15 to 20)
#    0.000    0.727    9.091    1.636    0.000    3.636 
#    0.000    0.000    0.000    0.000    0.000    0.000 
#    0.000    0.000    0.000    0.000    0.000    0.000 
#
# Total GULP energy -245250.536052 kJ/mol
# GULP energy per Si atom -5573.875819 kJ/mol
# Density = 1.985629 g / cm^3
# Si number density = 19.901591 Si / 1000 Ang^3
#
#
#
# Elastic Constant Matrix: (Units=GPa)
#
#
# Indices 1 2 3 4 5 6 
#
# 1 82.4509 6.0109 12.3957 0.0000 0.0000 0.0000
# 2 6.0109 17.8380 -0.4700 0.0000 0.0000 0.0000
# 3 12.3957 -0.4700 89.6113 0.0000 0.0000 0.0000
# 4 0.0000 0.0000 0.0000 13.1296 0.0000 0.0000
# 5 0.0000 0.0000 0.0000 0.0000 28.0060 0.0000
# 6 0.0000 0.0000 0.0000 0.0000 0.0000 30.2382
#
#
#
# Elastic Compliance Matrix: (Units=1/GPa)
#
#
# Indices 1 2 3 4 5 6 
#
# 1 0.012712 -0.004330 -0.001781 0.000000 0.000000 0.000000
# 2 -0.004330 0.057543 0.000901 0.000000 0.000000 0.000000
# 3 -0.001781 0.000901 0.011410 0.000000 0.000000 0.000000
# 4 0.000000 0.000000 0.000000 0.076164 0.000000 0.000000
# 5 0.000000 0.000000 0.000000 0.000000 0.035707 0.000000
# 6 0.000000 0.000000 0.000000 0.000000 0.000000 0.033071
#
#
# Mechanical properties :
#
#
# Convention : Reuss Voigt Hill
#
# Bulk Modulus (GPa) = 14.03631 25.08593 19.56112
# Shear Modulus (GPa) = 19.17355 25.73900 22.45628
#
# Velocity S-wave (km/s) = 3.10727 3.60017 3.36276
# Velocity P-wave (km/s) = 4.46561 5.46937 4.99277
#
# Compressibility (1/GPa) = 0.07124379
#
# Stress axis : x y z
#
# Youngs Moduli (GPa) = 78.66644 17.37832 87.63930
#
# Poissons Ratio (x) = 0.07526 0.15610
# Poissons Ratio (y) = 0.34066 -0.07895
# Poissons Ratio (z) = 0.14011 -0.01565
#
# Static dielectric constant tensor:
#      x y z
#    x 1.819220 0.000000 0.000000 
#    y 0.000000 1.725710 0.000000 
#    z 0.000000 0.000000 1.639240 
# 
# From -- ./inp_files/15531.got.cif
#   From: 2010.05.17/outbox.cif.g08.bks.cpg/sg56_8_cif.got.tgz:15531.got - 2010.06.03 13:42:01.
