data_PCOD9433347
_publ_section_title
;
Structure prediction by ZEFSAII (Michael W. Deem and Ramdas Pophale) SiO2 
 PCOD9433347
Probable space group: P C C N
;
_chemical_formula_sum "Si O2"
_cell_formula_units_Z 52
_cell_length_a 8.589318
_cell_length_b 18.206554
_cell_length_c 13.650848
_cell_angle_alpha 90.000000
_cell_angle_beta 90.000000
_cell_angle_gamma 90.000000
_cell_volume 2134.745301
_symmetry_space_group_name_H-M "P C C N"
_symmetry_group_IT_number 56
_symmetry_cell_setting 'orthorhombic'
loop_
_space_group_symop_operation_xyz
x,y,z
1/2-x,1/2-y,z
1/2+x,-y,1/2-z
-x,1/2+y,1/2-z
-x,-y,-z
1/2+x,1/2+y,-z
1/2-x,y,1/2+z
x,1/2-y,1/2+z
loop_
_atom_site_type_symbol
_atom_site_label
_atom_site_fract_x
_atom_site_fract_y
_atom_site_fract_z
Si Si1 0.473596 0.965974 0.199347
Si Si2 0.315799 0.379326 0.458504
Si Si3 0.571997 0.111140 0.102451
Si Si4 0.390537 0.841065 0.325912
Si Si5 0.007158 0.657968 0.537264
Si Si6 0.715375 0.026034 0.445301
Si Si7 0.750000 0.250000 0.836944
O O1 0.457967 0.922461 0.300474
O O2 0.297677 0.962350 0.158374
O O3 0.513952 0.051676 0.182788
O O4 0.592189 0.918947 0.130452
O O5 0.440803 0.349287 0.537202
O O6 0.232700 0.442221 0.524510
O O7 0.168650 0.331627 0.425520
O O8 0.706877 0.159224 0.147713
O O9 0.664616 0.063373 0.021934
O O10 0.479111 0.818602 0.423712
O O11 0.379507 0.793814 0.227410
O O12 0.060156 0.572567 0.548668
O O13 0.143897 0.698426 0.595841
#
# Coordination Sequence:
#
# PCOD9433347 Si02
#       7
#     8   8   8   8   8   8   4
#     4   9  17  36  62  96 136 163 203 271 339 393
#     4   9  18  36  65  99 132 157 204 286 339 377
#     4   8  18  35  62  96 131 162 202 271 335 392
#     4  11  23  42  66  90 124 179 222 260 322 410
#     4  11  22  40  66  91 121 175 225 269 317 394
#     4   8  15  34  62  93 128 167 201 254 346 396
#     4  12  26  46  64  82 128 182 232 252 316 412
#
# _framework density 24.358878000000001
#
# number of rings (size 3 to 8) (size 9 to 14) (size 15 to 20)
#    0.000    2.462    1.538    2.769    0.000    2.462 
#   11.077    0.769    0.000    0.000    0.000    0.000 
#    0.000    0.000    0.000    0.000    0.000    0.000 
#
# Total GULP energy -290201.604516 kJ/mol
# GULP energy per Si atom -5580.800087 kJ/mol
# Density = 2.430344 g / cm^3
# Si number density = 24.358878 Si / 1000 Ang^3
#
#
#
# Elastic Constant Matrix: (Units=GPa)
#
#
# Indices 1 2 3 4 5 6 
#
# 1 118.2316 2.4483 -0.5683 0.0000 0.0000 0.0000
# 2 2.4483 37.4272 -6.3577 0.0000 0.0000 0.0000
# 3 -0.5683 -6.3577 42.5167 0.0000 0.0000 0.0000
# 4 0.0000 0.0000 0.0000 25.3567 0.0000 0.0000
# 5 0.0000 0.0000 0.0000 0.0000 19.2764 0.0000
# 6 0.0000 0.0000 0.0000 0.0000 0.0000 16.9778
#
#
#
# Elastic Compliance Matrix: (Units=1/GPa)
#
#
# Indices 1 2 3 4 5 6 
#
# 1 0.008469 -0.000549 0.000031 0.000000 0.000000 0.000000
# 2 -0.000549 0.027450 0.004097 0.000000 0.000000 0.000000
# 3 0.000031 0.004097 0.024133 0.000000 0.000000 0.000000
# 4 0.000000 0.000000 0.000000 0.039437 0.000000 0.000000
# 5 0.000000 0.000000 0.000000 0.000000 0.051877 0.000000
# 6 0.000000 0.000000 0.000000 0.000000 0.000000 0.058900
#
#
# Mechanical properties :
#
#
# Convention : Reuss Voigt Hill
#
# Bulk Modulus (GPa) = 14.87809 21.02446 17.95127
# Shear Modulus (GPa) = 22.17174 25.83240 24.00207
#
# Velocity S-wave (km/s) = 3.02024 3.26005 3.14244
# Velocity P-wave (km/s) = 4.27594 4.77708 4.53344
#
# Compressibility (1/GPa) = 0.06721295
#
# Stress axis : x y z
#
# Youngs Moduli (GPa) = 118.07084 36.42923 41.43650
#
# Poissons Ratio (x) = 0.01999 -0.00129
# Poissons Ratio (y) = 0.06479 -0.16978
# Poissons Ratio (z) = -0.00368 -0.14927
#
# Static dielectric constant tensor:
#      x y z
#    x 1.920070 0.000000 0.000000 
#    y 0.000000 2.168270 0.000000 
#    z 0.000000 0.000000 2.043410 
# 
# From -- ./inp_files/10836.got.cif
#   From: 2010.05.17/outbox.cif.g08.bks.cpg/sg56_6_cif.got.tgz:10836.got - 2010.06.03 13:42:01.
