data_PCOD9433414
_publ_section_title
;
Structure prediction by ZEFSAII (Michael W. Deem and Ramdas Pophale) SiO2 
 PCOD9433414
Probable space group: P C C N
;
_chemical_formula_sum "Si O2"
_cell_formula_units_Z 48
_cell_length_a 13.512594
_cell_length_b 7.825688
_cell_length_c 14.761392
_cell_angle_alpha 90.000000
_cell_angle_beta 90.000000
_cell_angle_gamma 90.000000
_cell_volume 1560.948486
_symmetry_space_group_name_H-M "P C C N"
_symmetry_group_IT_number 56
_symmetry_cell_setting 'orthorhombic'
loop_
_space_group_symop_operation_xyz
x,y,z
1/2-x,1/2-y,z
1/2+x,-y,1/2-z
-x,1/2+y,1/2-z
-x,-y,-z
1/2+x,1/2+y,-z
1/2-x,y,1/2+z
x,1/2-y,1/2+z
loop_
_atom_site_type_symbol
_atom_site_label
_atom_site_fract_x
_atom_site_fract_y
_atom_site_fract_z
Si Si1 0.462563 0.230394 0.237910
Si Si2 0.199039 0.454175 0.651247
Si Si3 0.917806 0.357679 0.502812
Si Si4 0.933457 0.071291 0.382563
Si Si5 0.202129 0.383254 0.984679
Si Si6 0.693931 0.018962 0.671099
O O1 0.406103 0.389207 0.192807
O O2 0.530101 0.318251 0.468077
O O3 0.319643 0.317496 0.991046
O O4 0.484521 0.096584 0.158248
O O5 0.161763 0.596797 0.576171
O O6 0.259850 0.550503 0.730661
O O7 0.336225 0.490736 0.567673
O O8 0.114217 0.370389 0.303993
O O9 0.000000 0.500000 0.500000
O O10 0.860929 0.355997 0.599692
O O11 0.948535 0.197469 0.297608
O O12 0.250000 0.250000 0.150355
O O13 0.208569 0.462096 0.887550
#
# Coordination Sequence:
#
# PCOD9433414 Si02
#       6
#     8   8   8   8   8   8
#     4  12  24  48  82 120 167 224 285 346 447 521
#     4  11  23  46  82 116 162 221 284 354 432 534
#     4  11  26  52  77 117 176 221 287 372 440 525
#     4  12  26  49  82 121 168 225 286 366 442 523
#     4  11  22  46  77 119 164 217 288 351 435 533
#     4  11  24  47  82 110 165 221 281 351 437 522
#
# _framework density 30.750533999999998
#
# number of rings (size 3 to 8) (size 9 to 14) (size 15 to 20)
#    0.000    0.667    5.000    2.500    0.000    2.667 
#    6.000    7.500    0.000    0.000    0.000    0.000 
#    0.000    0.000    0.000    0.000    0.000    0.000 
#
# Total GULP energy -267469.072627 kJ/mol
# GULP energy per Si atom -5572.272346 kJ/mol
# Density = 3.068054 g / cm^3
# Si number density = 30.750534 Si / 1000 Ang^3
#
#
#
# Elastic Constant Matrix: (Units=GPa)
#
#
# Indices 1 2 3 4 5 6 
#
# 1 104.0626 46.7118 32.0588 0.0000 0.0000 0.0000
# 2 46.7118 160.4158 67.0422 0.0000 0.0000 0.0000
# 3 32.0588 67.0422 271.6449 0.0000 0.0000 0.0000
# 4 0.0000 0.0000 0.0000 53.7172 0.0000 0.0000
# 5 0.0000 0.0000 0.0000 0.0000 57.7338 0.0000
# 6 0.0000 0.0000 0.0000 0.0000 0.0000 59.7010
#
#
#
# Elastic Compliance Matrix: (Units=1/GPa)
#
#
# Indices 1 2 3 4 5 6 
#
# 1 0.011134 -0.003003 -0.000573 0.000000 0.000000 0.000000
# 2 -0.003003 0.007761 -0.001561 0.000000 0.000000 0.000000
# 3 -0.000573 -0.001561 0.004134 0.000000 0.000000 0.000000
# 4 0.000000 0.000000 0.000000 0.018616 0.000000 0.000000
# 5 0.000000 0.000000 0.000000 0.000000 0.017321 0.000000
# 6 0.000000 0.000000 0.000000 0.000000 0.000000 0.016750
#
#
# Mechanical properties :
#
#
# Convention : Reuss Voigt Hill
#
# Bulk Modulus (GPa) = 78.39750 91.97211 85.18480
# Shear Modulus (GPa) = 55.40747 60.25110 57.82929
#
# Velocity S-wave (km/s) = 4.24941 4.43126 4.34129
# Velocity P-wave (km/s) = 7.04462 7.49369 7.27262
#
# Compressibility (1/GPa) = 0.01275551
#
# Stress axis : x y z
#
# Youngs Moduli (GPa) = 89.81536 128.85746 241.88865
#
# Poissons Ratio (x) = 0.38692 0.13859
# Poissons Ratio (y) = 0.26969 0.37757
# Poissons Ratio (z) = 0.05146 0.20114
#
# Static dielectric constant tensor:
#      x y z
#    x 3.967940 0.000000 0.000000 
#    y 0.000000 0.771740 0.000000 
#    z 0.000000 0.000000 2.917340 
# 
# From -- ./inp_files/13199.got.cif
#   From: 2010.05.17/outbox.cif.g08.bks.cpg/sg56_7_cif.got.tgz:13199.got - 2010.06.03 13:42:01.
