data_PCOD9433555
_publ_section_title
;
Structure prediction by ZEFSAII (Michael W. Deem and Ramdas Pophale) SiO2 
 PCOD9433555
Probable space group: P C C N
;
_chemical_formula_sum "Si O2"
_cell_formula_units_Z 40
_cell_length_a 16.101733
_cell_length_b 9.456542
_cell_length_c 9.675849
_cell_angle_alpha 90.000000
_cell_angle_beta 90.000000
_cell_angle_gamma 90.000000
_cell_volume 1473.309736
_symmetry_space_group_name_H-M "P C C N"
_symmetry_group_IT_number 56
_symmetry_cell_setting 'orthorhombic'
loop_
_space_group_symop_operation_xyz
x,y,z
1/2-x,1/2-y,z
1/2+x,-y,1/2-z
-x,1/2+y,1/2-z
-x,-y,-z
1/2+x,1/2+y,-z
1/2-x,y,1/2+z
x,1/2-y,1/2+z
loop_
_atom_site_type_symbol
_atom_site_label
_atom_site_fract_x
_atom_site_fract_y
_atom_site_fract_z
Si Si1 0.155764 0.202870 0.366455
Si Si2 0.145992 0.756292 0.939377
Si Si3 0.599077 0.495988 0.399665
Si Si4 0.788790 0.050692 0.803315
Si Si5 0.048267 0.014821 0.858674
O O1 0.250000 0.250000 0.398621
O O2 0.104447 0.346216 0.360466
O O3 0.115339 0.115400 0.489244
O O4 0.164125 0.096636 0.233290
O O5 0.089265 0.654088 0.028944
O O6 0.307483 0.985906 0.170510
O O7 0.093891 0.864058 0.850085
O O8 0.194394 0.649309 0.832756
O O9 0.685949 0.139411 0.440993
O O10 0.520568 0.525981 0.300202
O O11 0.000000 0.000000 0.000000
#
# Coordination Sequence:
#
# PCOD9433555 Si02
#       5
#     8   8   8   8   8
#     4  11  25  44  72 106 141 185 243 307 360 432
#     4  11  25  44  70 105 143 185 237 302 362 433
#     4  11  25  42  70 104 141 182 242 299 367 425
#     4  11  24  42  74 110 140 180 239 309 366 421
#     4  12  28  47  68 102 150 198 242 293 370 451
#
# _framework density 27.149753
#
# number of rings (size 3 to 8) (size 9 to 14) (size 15 to 20)
#    0.000    0.800    4.000    1.800   11.200    1.600 
#    0.000    2.000    0.000    0.000    0.000    0.000 
#    0.000    0.000    0.000    0.000    0.000    0.000 
#
# Total GULP energy -223491.652998 kJ/mol
# GULP energy per Si atom -5587.291325 kJ/mol
# Density = 2.708796 g / cm^3
# Si number density = 27.149753 Si / 1000 Ang^3
#
#
#
# Elastic Constant Matrix: (Units=GPa)
#
#
# Indices 1 2 3 4 5 6 
#
# 1 78.0064 35.6881 40.4815 0.0000 0.0000 0.0000
# 2 35.6881 159.6161 19.7961 0.0000 0.0000 0.0000
# 3 40.4815 19.7961 123.8555 0.0000 0.0000 0.0000
# 4 0.0000 0.0000 0.0000 14.4768 0.0000 0.0000
# 5 0.0000 0.0000 0.0000 0.0000 63.5237 0.0000
# 6 0.0000 0.0000 0.0000 0.0000 0.0000 -3.7242
#
#
#
# Elastic Compliance Matrix: (Units=1/GPa)
#
#
# Indices 1 2 3 4 5 6 
#
# 1 0.016858 -0.003148 -0.005007 0.000000 0.000000 0.000000
# 2 -0.003148 0.006980 -0.000087 0.000000 0.000000 0.000000
# 3 -0.005007 -0.000087 0.009724 0.000000 0.000000 0.000000
# 4 0.000000 0.000000 0.000000 0.069076 0.000000 0.000000
# 5 0.000000 0.000000 0.000000 0.000000 0.015742 0.000000
# 6 0.000000 0.000000 0.000000 0.000000 0.000000 -0.268511
#
#
# Mechanical properties :
#
#
# Convention : Reuss Voigt Hill
#
# Bulk Modulus (GPa) = 58.55254 61.48994 60.02124
# Shear Modulus (GPa) = -39.07652 32.55606 -3.26023
#
# Velocity S-wave (km/s) = -3.79792 3.46660 -1.09701
# Velocity P-wave (km/s) = 1.54307 6.22260 4.53331
#
# Compressibility (1/GPa) = 0.01707868
#
# Stress axis : x y z
#
# Youngs Moduli (GPa) = 59.31870 143.27287 102.83621
#
# Poissons Ratio (x) = 0.45107 0.51488
# Poissons Ratio (y) = 0.18675 0.00890
# Poissons Ratio (z) = 0.29700 0.01240
#
# Static dielectric constant tensor:
#      x y z
#    x 2.286840 0.000000 0.000000 
#    y 0.000000 2.101290 0.000000 
#    z 0.000000 0.000000 2.244810 
# 
# From -- ./inp_files/8593.got.cif
#   From: 2010.05.17/outbox.cif.g08.bks.cpg/sg56_5_cif.got.tgz:8593.got - 2010.06.03 13:42:01.
