data_PCOD9433377
_publ_section_title
;
Structure prediction by ZEFSAII (Michael W. Deem and Ramdas Pophale) SiO2 
 PCOD9433377
Probable space group: P C C N
;
_chemical_formula_sum "Si O2"
_cell_formula_units_Z 40
_cell_length_a 10.604922
_cell_length_b 17.776254
_cell_length_c 9.955916
_cell_angle_alpha 90.000000
_cell_angle_beta 90.000000
_cell_angle_gamma 90.000000
_cell_volume 1876.847341
_symmetry_space_group_name_H-M "P C C N"
_symmetry_group_IT_number 56
_symmetry_cell_setting 'orthorhombic'
loop_
_space_group_symop_operation_xyz
x,y,z
1/2-x,1/2-y,z
1/2+x,-y,1/2-z
-x,1/2+y,1/2-z
-x,-y,-z
1/2+x,1/2+y,-z
1/2-x,y,1/2+z
x,1/2-y,1/2+z
loop_
_atom_site_type_symbol
_atom_site_label
_atom_site_fract_x
_atom_site_fract_y
_atom_site_fract_z
Si Si1 0.540575 0.962575 0.354747
Si Si2 0.965301 0.249813 0.942725
Si Si3 0.761333 0.050543 0.200834
Si Si4 0.384067 0.213821 0.680866
Si Si5 0.754199 0.136437 0.945116
O O1 0.406531 0.973177 0.278692
O O2 0.593043 0.875856 0.348001
O O3 0.500000 0.000000 0.500000
O O4 0.651731 0.004753 0.274221
O O5 0.014752 0.263024 0.793720
O O6 0.891386 0.171835 0.965951
O O7 0.859956 0.309849 0.982345
O O8 0.081636 0.254119 0.042053
O O9 0.740947 0.065039 0.043199
O O10 0.756130 0.127308 0.285408
O O11 0.250000 0.250000 0.723200
#
# Coordination Sequence:
#
# PCOD9433377 Si02
#       5
#     8   8   8   8   8
#     4  12  27  49  72 108 155 200 250 308 376 460
#     4  11  22  43  72 105 139 179 245 299 373 444
#     4  12  24  46  72 103 148 196 250 300 369 440
#     4  12  26  45  70 106 146 188 236 311 380 445
#     4  11  22  42  75 101 135 189 244 307 356 445
#
# _framework density 21.312335999999998
#
# number of rings (size 3 to 8) (size 9 to 14) (size 15 to 20)
#    0.000    0.400    6.000    1.800    0.000   10.400 
#    0.000    0.000    0.000    0.000    0.000    0.000 
#    0.000    0.000    0.000    0.000    0.000    0.000 
#
# Total GULP energy -222706.666392 kJ/mol
# GULP energy per Si atom -5567.666660 kJ/mol
# Density = 2.126383 g / cm^3
# Si number density = 21.312336 Si / 1000 Ang^3
#
#
#
# Elastic Constant Matrix: (Units=GPa)
#
#
# Indices 1 2 3 4 5 6 
#
# 1 149.4504 40.2523 19.2940 0.0000 0.0000 0.0000
# 2 40.2523 62.9041 20.9748 0.0000 0.0000 0.0000
# 3 19.2940 20.9748 85.8709 0.0000 0.0000 0.0000
# 4 0.0000 0.0000 0.0000 28.4122 0.0000 0.0000
# 5 0.0000 0.0000 0.0000 0.0000 43.9972 0.0000
# 6 0.0000 0.0000 0.0000 0.0000 0.0000 26.4354
#
#
#
# Elastic Compliance Matrix: (Units=1/GPa)
#
#
# Indices 1 2 3 4 5 6 
#
# 1 0.008113 -0.004990 -0.000604 0.000000 0.000000 0.000000
# 2 -0.004990 0.020376 -0.003856 0.000000 0.000000 0.000000
# 3 -0.000604 -0.003856 0.012723 0.000000 0.000000 0.000000
# 4 0.000000 0.000000 0.000000 0.035196 0.000000 0.000000
# 5 0.000000 0.000000 0.000000 0.000000 0.022729 0.000000
# 6 0.000000 0.000000 0.000000 0.000000 0.000000 0.037828
#
#
# Mechanical properties :
#
#
# Convention : Reuss Voigt Hill
#
# Bulk Modulus (GPa) = 44.81868 51.02973 47.92421
# Shear Modulus (GPa) = 30.61796 34.28257 32.45027
#
# Velocity S-wave (km/s) = 3.79440 4.01506 3.90629
# Velocity P-wave (km/s) = 6.34600 6.74463 6.54835
#
# Compressibility (1/GPa) = 0.02231212
#
# Stress axis : x y z
#
# Youngs Moduli (GPa) = 123.25573 49.07691 78.59822
#
# Poissons Ratio (x) = 0.24491 0.04747
# Poissons Ratio (y) = 0.61508 0.30306
# Poissons Ratio (z) = 0.07445 0.18923
#
# Static dielectric constant tensor:
#      x y z
#    x 1.780360 0.000000 0.000000 
#    y 0.000000 1.882420 0.000000 
#    z 0.000000 0.000000 1.762210 
# 
# From -- ./inp_files/2056.got.cif
#   From: 2010.05.17/outbox.cif.g08.bks.cpg/sg56_2_cif.got.tgz:2056.got - 2010.06.03 13:42:01.
