data_PCOD9433796
_publ_section_title
;
Structure prediction by ZEFSAII (Michael W. Deem and Ramdas Pophale) SiO2 
 PCOD9433796
Probable space group: P C C N
;
_chemical_formula_sum "Si O2"
_cell_formula_units_Z 32
_cell_length_a 15.633271
_cell_length_b 9.239344
_cell_length_c 8.439695
_cell_angle_alpha 90.000000
_cell_angle_beta 90.000000
_cell_angle_gamma 90.000000
_cell_volume 1219.039409
_symmetry_space_group_name_H-M "P C C N"
_symmetry_group_IT_number 56
_symmetry_cell_setting 'orthorhombic'
loop_
_space_group_symop_operation_xyz
x,y,z
1/2-x,1/2-y,z
1/2+x,-y,1/2-z
-x,1/2+y,1/2-z
-x,-y,-z
1/2+x,1/2+y,-z
1/2-x,y,1/2+z
x,1/2-y,1/2+z
loop_
_atom_site_type_symbol
_atom_site_label
_atom_site_fract_x
_atom_site_fract_y
_atom_site_fract_z
Si Si1 0.079830 0.808786 0.229916
Si Si2 0.399099 0.540381 0.951799
Si Si3 0.559580 0.895199 0.124299
Si Si4 0.342543 0.181733 0.184648
O O1 0.036683 0.939964 0.331107
O O2 0.874859 0.890487 0.478070
O O3 0.141986 0.899273 0.114932
O O4 0.018647 0.716615 0.112400
O O5 0.389133 0.680921 0.839629
O O6 0.357217 0.415469 0.843184
O O7 0.500000 0.500000 0.000000
O O8 0.600270 0.822059 0.280181
O O9 0.250000 0.250000 0.169079
#
# Coordination Sequence:
#
# PCOD9433796 Si02
#       4
#     8   8   8   8
#     4  12  24  43  76 116 159 196 267 350 396 456
#     4  12  24  44  73 119 153 203 268 339 401 461
#     4  12  24  45  72 112 153 203 264 334 403 471
#     4  12  27  48  72 106 158 214 265 320 415 504
#
# _framework density 26.25018
#
# number of rings (size 3 to 8) (size 9 to 14) (size 15 to 20)
#    0.000    0.000    5.000    5.250    0.000    3.000 
#    0.000    2.500    0.000    9.000    0.000    0.000 
#    0.000    0.000    0.000    0.000    0.000    0.000 
#
# Total GULP energy -178586.180625 kJ/mol
# GULP energy per Si atom -5580.818145 kJ/mol
# Density = 2.619043 g / cm^3
# Si number density = 26.250180 Si / 1000 Ang^3
#
#
#
# Elastic Constant Matrix: (Units=GPa)
#
#
# Indices 1 2 3 4 5 6 
#
# 1 40.4681 15.7002 40.9371 0.0000 0.0000 0.0000
# 2 15.7002 236.7126 63.1013 0.0000 0.0000 0.0000
# 3 40.9371 63.1013 136.6412 0.0000 0.0000 0.0000
# 4 0.0000 0.0000 0.0000 78.7477 0.0000 0.0000
# 5 0.0000 0.0000 0.0000 0.0000 24.5151 0.0000
# 6 0.0000 0.0000 0.0000 0.0000 0.0000 22.2166
#
#
#
# Elastic Compliance Matrix: (Units=1/GPa)
#
#
# Indices 1 2 3 4 5 6 
#
# 1 0.035519 0.000548 -0.010895 0.000000 0.000000 0.000000
# 2 0.000548 0.004826 -0.002393 0.000000 0.000000 0.000000
# 3 -0.010895 -0.002393 0.011687 0.000000 0.000000 0.000000
# 4 0.000000 0.000000 0.000000 0.012699 0.000000 0.000000
# 5 0.000000 0.000000 0.000000 0.000000 0.040791 0.000000
# 6 0.000000 0.000000 0.000000 0.000000 0.000000 0.045011
#
#
# Mechanical properties :
#
#
# Convention : Reuss Voigt Hill
#
# Bulk Modulus (GPa) = 37.65892 72.58879 55.12385
# Shear Modulus (GPa) = 27.04699 44.70143 35.87421
#
# Velocity S-wave (km/s) = 3.21340 4.13110 3.70080
# Velocity P-wave (km/s) = 5.30520 7.10404 6.26947
#
# Compressibility (1/GPa) = 0.02655414
#
# Stress axis : x y z
#
# Youngs Moduli (GPa) = 28.15404 207.20806 85.56167
#
# Poissons Ratio (x) = -0.11363 0.93215
# Poissons Ratio (y) = -0.01544 0.20475
# Poissons Ratio (z) = 0.30673 0.49585
#
# Static dielectric constant tensor:
#      x y z
#    x 2.192010 0.000000 0.000000 
#    y 0.000000 2.189120 0.000000 
#    z 0.000000 0.000000 2.284020 
# 
# From -- ./inp_files/8222.got.cif
#   From: 2010.05.17/outbox.cif.g08.bks.cpg/sg56_5_cif.got.tgz:8222.got - 2010.06.03 13:42:01.
