data_PCOD9433932
_publ_section_title
;
Structure prediction by ZEFSAII (Michael W. Deem and Ramdas Pophale) SiO2 
 PCOD9433932
Probable space group: P C C N
;
_chemical_formula_sum "Si O2"
_cell_formula_units_Z 64
_cell_length_a 9.000000
_cell_length_b 24.000000
_cell_length_c 15.000000
_cell_angle_alpha 90.000000
_cell_angle_beta 90.000000
_cell_angle_gamma 90.000000
_cell_volume 3240.000000
_symmetry_space_group_name_H-M "P C C N"
_symmetry_group_IT_number 56
_symmetry_cell_setting 'orthorhombic'
loop_
_space_group_symop_operation_xyz
x,y,z
1/2-x,1/2-y,z
1/2+x,-y,1/2-z
-x,1/2+y,1/2-z
-x,-y,-z
1/2+x,1/2+y,-z
1/2-x,y,1/2+z
x,1/2-y,1/2+z
loop_
_atom_site_type_symbol
_atom_site_label
_atom_site_fract_x
_atom_site_fract_y
_atom_site_fract_z
Si Si1 0.500941 0.367560 0.384153
Si Si2 0.023457 0.508775 0.357549
Si Si3 0.482074 0.363074 0.085009
Si Si4 0.168150 0.400003 0.413196
Si Si5 0.081486 0.226441 0.239145
Si Si6 0.568399 0.338464 0.793016
Si Si7 0.256747 0.558958 0.718938
Si Si8 0.753661 0.185012 0.977705
O O1 0.343953 0.397316 0.400110
O O2 0.465384 0.314424 0.320513
O O3 0.616229 0.411974 0.341710
O O4 0.590785 0.341532 0.467198
O O5 0.100600 0.462644 0.422234
O O6 0.152077 0.518760 0.283965
O O7 0.986363 0.572943 0.381516
O O8 0.871463 0.477936 0.327774
O O9 0.437215 0.315293 0.155145
O O10 0.372311 0.364686 0.000723
O O11 0.643821 0.347940 0.046480
O O12 0.078317 0.369935 0.332143
O O13 0.250000 0.250000 0.246580
O O14 0.978085 0.282115 0.241957
O O15 0.666557 0.386344 0.744270
O O16 0.665247 0.321242 0.880548
O O17 0.750000 0.250000 0.000339
#
# Coordination Sequence:
#
# PCOD9433932 Si02
#       8
#     8   8   8   8   8   8   8   8
#     4  11  21  41  69  97 123 173 228 258 325 411
#     4  11  22  43  66  94 133 174 222 277 328 385
#     4  11  26  42  61  98 136 170 215 277 338 379
#     4  10  22  42  68  90 131 176 212 264 335 396
#     4  12  23  40  69  99 135 168 222 281 324 390
#     4   9  20  39  64  96 124 174 214 263 328 398
#     4  10  22  37  67  97 126 167 228 271 320 386
#     4  10  21  39  63  91 133 177 211 260 337 405
#
# _framework density 19.753086
#
# number of rings (size 3 to 8) (size 9 to 14) (size 15 to 20)
#    0.000    1.500    3.750    1.875    0.000    2.000 
#    0.000    3.750    0.000    0.000    0.000    0.000 
#    0.000    0.000    0.000    0.000    0.000    0.000 
#
# Total GULP energy -357069.425309 kJ/mol
# GULP energy per Si atom -5579.209770 kJ/mol
# Density = 1.970813 g / cm^3
# Si number density = 19.753086 Si / 1000 Ang^3
#
#
#
# Elastic Constant Matrix: (Units=GPa)
#
#
# Indices 1 2 3 4 5 6 
#
# 1 155.9125 48.1113 32.2555 0.0000 0.0000 0.0000
# 2 48.1113 139.4231 31.3285 0.0000 0.0000 0.0000
# 3 32.2555 31.3285 39.8564 0.0000 0.0000 0.0000
# 4 0.0000 0.0000 0.0000 30.0940 0.0000 0.0000
# 5 0.0000 0.0000 0.0000 0.0000 16.5273 0.0000
# 6 0.0000 0.0000 0.0000 0.0000 0.0000 51.1784
#
#
#
# Elastic Compliance Matrix: (Units=1/GPa)
#
#
# Indices 1 2 3 4 5 6 
#
# 1 0.007981 -0.001582 -0.005215 0.000000 0.000000 0.000000
# 2 -0.001582 0.009025 -0.005813 0.000000 0.000000 0.000000
# 3 -0.005215 -0.005813 0.033880 0.000000 0.000000 0.000000
# 4 0.000000 0.000000 0.000000 0.033229 0.000000 0.000000
# 5 0.000000 0.000000 0.000000 0.000000 0.060506 0.000000
# 6 0.000000 0.000000 0.000000 0.000000 0.000000 0.019539
#
#
# Mechanical properties :
#
#
# Convention : Reuss Voigt Hill
#
# Bulk Modulus (GPa) = 38.96452 62.06472 50.51462
# Shear Modulus (GPa) = 25.26061 34.45974 29.86017
#
# Velocity S-wave (km/s) = 3.57994 4.18128 3.89224
# Velocity P-wave (km/s) = 6.07096 7.40265 6.76963
#
# Compressibility (1/GPa) = 0.02566437
#
# Stress axis : x y z
#
# Youngs Moduli (GPa) = 125.29696 110.80813 29.51574
#
# Poissons Ratio (x) = 0.17531 0.15394
# Poissons Ratio (y) = 0.19824 0.17158
# Poissons Ratio (z) = 0.65347 0.64415
#
# Static dielectric constant tensor:
#      x y z
#    x 1.693160 0.000000 0.000000 
#    y 0.000000 1.686130 0.000000 
#    z 0.000000 0.000000 1.739840 
# 
# From -- ./inp_files/11069.got.cif
#   From: 2010.05.17/outbox.ucp.g08.bks.cvg/sg56_6_cif.got.tgz:11069.got - 2010.06.11 16:37:52.
