data_PCOD9433913
_publ_section_title
;
Structure prediction by ZEFSAII (Michael W. Deem and Ramdas Pophale) SiO2 
 PCOD9433913
Probable space group: P C C N
;
_chemical_formula_sum "Si O2"
_cell_formula_units_Z 64
_cell_length_a 18.000000
_cell_length_b 9.000000
_cell_length_c 21.000000
_cell_angle_alpha 90.000000
_cell_angle_beta 90.000000
_cell_angle_gamma 90.000000
_cell_volume 3402.000000
_symmetry_space_group_name_H-M "P C C N"
_symmetry_group_IT_number 56
_symmetry_cell_setting 'orthorhombic'
loop_
_space_group_symop_operation_xyz
x,y,z
1/2-x,1/2-y,z
1/2+x,-y,1/2-z
-x,1/2+y,1/2-z
-x,-y,-z
1/2+x,1/2+y,-z
1/2-x,y,1/2+z
x,1/2-y,1/2+z
loop_
_atom_site_type_symbol
_atom_site_label
_atom_site_fract_x
_atom_site_fract_y
_atom_site_fract_z
Si Si1 0.437974 0.420344 0.782389
Si Si2 0.969588 0.584870 0.176579
Si Si3 0.933265 0.056199 0.451238
Si Si4 0.221774 0.417339 0.213747
Si Si5 0.270816 0.421548 0.564527
Si Si6 0.312040 0.936008 0.820900
Si Si7 0.843269 0.387498 0.630332
Si Si8 0.831051 0.328391 0.485079
O O1 0.463705 0.258433 0.805152
O O2 0.499572 0.497223 0.738292
O O3 0.361310 0.419788 0.741602
O O4 0.410670 0.517215 0.842430
O O5 0.885343 0.529470 0.162872
O O6 0.025220 0.552021 0.117533
O O7 0.896202 0.223217 0.456589
O O8 0.855291 0.961658 0.460163
O O9 0.000000 0.000000 0.500000
O O10 0.250000 0.250000 0.222920
O O11 0.221875 0.453385 0.139740
O O12 0.278422 0.522725 0.252170
O O13 0.250000 0.250000 0.553842
O O14 0.197628 0.514234 0.542238
O O15 0.334345 0.764062 0.829135
O O16 0.238658 0.963769 0.864532
O O17 0.854556 0.346108 0.557883
O O18 0.750000 0.250000 0.482924
#
# Coordination Sequence:
#
# PCOD9433913 Si02
#       8
#     8   8   8   8   8   8   8   8
#     4  11  24  40  62  92 132 163 211 264 329 399
#     4  12  24  41  60  98 129 171 207 267 342 388
#     4  11  25  43  67  95 137 176 221 274 338 396
#     4  10  19  41  63  95 122 161 214 267 322 381
#     4  10  23  43  70  93 126 174 225 272 320 395
#     4  10  20  36  65  88 123 162 205 268 320 384
#     4  10  21  40  62  92 121 169 217 260 319 374
#     4  10  21  43  63  94 127 173 221 265 314 393
#
# _framework density 18.812463000000001
#
# number of rings (size 3 to 8) (size 9 to 14) (size 15 to 20)
#    0.000    1.500    3.750    1.500    1.750    3.000 
#    6.750    1.250    0.000    0.000    0.000    0.000 
#    0.000    0.000    0.000    0.000    0.000    0.000 
#
# Total GULP energy -356566.071926 kJ/mol
# GULP energy per Si atom -5571.344874 kJ/mol
# Density = 1.876965 g / cm^3
# Si number density = 18.812463 Si / 1000 Ang^3
#
#
#
# Elastic Constant Matrix: (Units=GPa)
#
#
# Indices 1 2 3 4 5 6 
#
# 1 97.6148 37.4038 52.3277 0.0000 0.0000 0.0000
# 2 37.4038 67.4349 9.9197 0.0000 0.0000 0.0000
# 3 52.3277 9.9197 -85.2563 0.0000 0.0000 0.0000
# 4 0.0000 0.0000 0.0000 23.6453 0.0000 0.0000
# 5 0.0000 0.0000 0.0000 0.0000 21.3373 0.0000
# 6 0.0000 0.0000 0.0000 0.0000 0.0000 34.2486
#
#
#
# Elastic Compliance Matrix: (Units=1/GPa)
#
#
# Indices 1 2 3 4 5 6 
#
# 1 0.009789 -0.006207 0.005286 0.000000 0.000000 0.000000
# 2 -0.006207 0.018516 -0.001656 0.000000 0.000000 0.000000
# 3 0.005286 -0.001656 -0.008678 0.000000 0.000000 0.000000
# 4 0.000000 0.000000 0.000000 0.042292 0.000000 0.000000
# 5 0.000000 0.000000 0.000000 0.000000 0.046866 0.000000
# 6 0.000000 0.000000 0.000000 0.000000 0.000000 0.029198
#
#
# Mechanical properties :
#
#
# Convention : Reuss Voigt Hill
#
# Bulk Modulus (GPa) = 69.09068 31.01065 50.05066
# Shear Modulus (GPa) = 33.79257 14.52240 24.15748
#
# Velocity S-wave (km/s) = 4.24286 2.78142 3.58735
# Velocity P-wave (km/s) = 7.79796 5.18025 6.61979
#
# Compressibility (1/GPa) = 0.01447373
#
# Stress axis : x y z
#
# Youngs Moduli (GPa) = 102.15363 54.00850 -115.24002
#
# Poissons Ratio (x) = 0.33525 0.60917
# Poissons Ratio (y) = 0.63410 -0.19078
# Poissons Ratio (z) = -0.53999 0.08941
#
# Static dielectric constant tensor:
#      x y z
#    x 1.630710 0.000000 0.000000 
#    y 0.000000 1.693630 0.000000 
#    z 0.000000 0.000000 1.667540 
# 
# From -- ./inp_files/19363.got.cif
#   From: 2010.05.17/outbox.ucp.g08.bks.cvg/sg56_10_cif.got.tgz:19363.got - 2010.06.11 16:37:52.
