data_PCOD9433708
_publ_section_title
;
Structure prediction by ZEFSAII (Michael W. Deem and Ramdas Pophale) SiO2 
 PCOD9433708
Probable space group: P C C N
;
_chemical_formula_sum "Si O2"
_cell_formula_units_Z 32
_cell_length_a 4.582008
_cell_length_b 26.632396
_cell_length_c 9.587651
_cell_angle_alpha 90.000000
_cell_angle_beta 90.000000
_cell_angle_gamma 90.000000
_cell_volume 1169.979628
_symmetry_space_group_name_H-M "P C C N"
_symmetry_group_IT_number 56
_symmetry_cell_setting 'orthorhombic'
loop_
_space_group_symop_operation_xyz
x,y,z
1/2-x,1/2-y,z
1/2+x,-y,1/2-z
-x,1/2+y,1/2-z
-x,-y,-z
1/2+x,1/2+y,-z
1/2-x,y,1/2+z
x,1/2-y,1/2+z
loop_
_atom_site_type_symbol
_atom_site_label
_atom_site_fract_x
_atom_site_fract_y
_atom_site_fract_z
Si Si1 0.750000 0.750000 0.503202
Si Si2 0.167414 0.595082 0.384770
Si Si3 0.291709 0.030534 0.191060
Si Si4 0.872754 0.336936 0.861797
Si Si5 0.750000 0.250000 0.198813
O O1 0.602891 0.703110 0.579539
O O2 0.500858 0.769647 0.400157
O O3 0.464976 0.574173 0.315180
O O4 0.248607 0.628902 0.515811
O O5 0.938109 0.551012 0.425572
O O6 0.020285 0.627091 0.261302
O O7 0.533476 0.984818 0.196173
O O8 0.650767 0.297369 0.789308
#
# Coordination Sequence:
#
# PCOD9433708 Si02
#       5
#     4   8   8   8   4
#     4  12  28  50  78 110 166 210 266 326 390 456
#     4  11  26  46  82 113 155 206 270 321 388 488
#     4   9  22  50  77 115 156 200 255 331 410 470
#     4  12  28  51  77 118 158 213 268 324 391 458
#     4  12  28  50  74 112 164 210 264 326 386 456
#
# _framework density 27.350902999999999
#
# number of rings (size 3 to 8) (size 9 to 14) (size 15 to 20)
#    0.000    1.000    2.500    1.500    3.500    8.000 
#    0.000   25.000    0.000    0.000    0.000    0.000 
#    0.000    0.000    0.000    0.000    0.000    0.000 
#
# Total GULP energy -178503.116997 kJ/mol
# GULP energy per Si atom -5578.222406 kJ/mol
# Density = 2.728865 g / cm^3
# Si number density = 27.350903 Si / 1000 Ang^3
#
#
#
# Elastic Constant Matrix: (Units=GPa)
#
#
# Indices 1 2 3 4 5 6 
#
# 1 185.3473 55.6939 45.5252 0.0000 0.0000 0.0000
# 2 55.6939 147.7806 70.0688 0.0000 0.0000 0.0000
# 3 45.5252 70.0688 136.4784 0.0000 0.0000 0.0000
# 4 0.0000 0.0000 0.0000 40.0755 0.0000 0.0000
# 5 0.0000 0.0000 0.0000 0.0000 -61.5344 0.0000
# 6 0.0000 0.0000 0.0000 0.0000 0.0000 57.4068
#
#
#
# Elastic Compliance Matrix: (Units=1/GPa)
#
#
# Indices 1 2 3 4 5 6 
#
# 1 0.006218 -0.001798 -0.001151 0.000000 0.000000 0.000000
# 2 -0.001798 0.009464 -0.004259 0.000000 0.000000 0.000000
# 3 -0.001151 -0.004259 0.009898 0.000000 0.000000 0.000000
# 4 0.000000 0.000000 0.000000 0.024953 0.000000 0.000000
# 5 0.000000 0.000000 0.000000 0.000000 -0.016251 0.000000
# 6 0.000000 0.000000 0.000000 0.000000 0.000000 0.017420
#
#
# Mechanical properties :
#
#
# Convention : Reuss Voigt Hill
#
# Bulk Modulus (GPa) = 89.57552 90.24245 89.90899
# Shear Modulus (GPa) = 71.59401 27.07747 49.33574
#
# Velocity S-wave (km/s) = 5.12181 3.14984 4.25173
# Velocity P-wave (km/s) = 8.23400 6.80402 7.55293
#
# Compressibility (1/GPa) = 0.01116376
#
# Stress axis : x y z
#
# Youngs Moduli (GPa) = 160.81811 105.66770 101.03202
#
# Poissons Ratio (x) = 0.18994 0.11632
# Poissons Ratio (y) = 0.28908 0.43030
# Poissons Ratio (z) = 0.18516 0.45005
#
# Static dielectric constant tensor:
#      x y z
#    x 2.170320 0.000000 0.000000 
#    y 0.000000 2.223270 0.000000 
#    z 0.000000 0.000000 2.174140 
# 
# From -- ./inp_files/1601.got.cif
#   From: 2010.05.17/outbox.cif.g08.bks.cpg/sg56_1_cif.got.tgz:1601.got - 2010.06.03 13:42:01.
