data_PCOD9433754
_publ_section_title
;
Structure prediction by ZEFSAII (Michael W. Deem and Ramdas Pophale) SiO2 
 PCOD9433754
Probable space group: P C C N
;
_chemical_formula_sum "Si O2"
_cell_formula_units_Z 56
_cell_length_a 14.690368
_cell_length_b 12.149439
_cell_length_c 13.377351
_cell_angle_alpha 90.000000
_cell_angle_beta 90.000000
_cell_angle_gamma 90.000000
_cell_volume 2387.585993
_symmetry_space_group_name_H-M "P C C N"
_symmetry_group_IT_number 56
_symmetry_cell_setting 'orthorhombic'
loop_
_space_group_symop_operation_xyz
x,y,z
1/2-x,1/2-y,z
1/2+x,-y,1/2-z
-x,1/2+y,1/2-z
-x,-y,-z
1/2+x,1/2+y,-z
1/2-x,y,1/2+z
x,1/2-y,1/2+z
loop_
_atom_site_type_symbol
_atom_site_label
_atom_site_fract_x
_atom_site_fract_y
_atom_site_fract_z
Si Si1 0.101737 0.998582 0.958644
Si Si2 0.770632 0.879568 0.443954
Si Si3 0.902067 0.218793 0.362100
Si Si4 0.382386 0.917544 0.776126
Si Si5 0.825565 0.011438 0.249428
Si Si6 0.055663 0.421393 0.923016
Si Si7 0.152492 0.752985 0.432829
O O1 0.121053 0.039398 0.844987
O O2 0.121919 0.869441 0.948800
O O3 0.176593 0.057697 0.028602
O O4 0.000000 0.000000 0.000000
O O5 0.750000 0.750000 0.434324
O O6 0.845072 0.901721 0.530778
O O7 0.815016 0.930197 0.343548
O O8 0.895243 0.342197 0.320952
O O9 0.872909 0.125956 0.283187
O O10 0.838064 0.195880 0.457447
O O11 0.000974 0.191048 0.406183
O O12 0.278146 0.957708 0.779460
O O13 0.406340 0.830719 0.864086
O O14 0.438709 0.022236 0.813228
O O15 0.000000 0.500000 0.000000
O O16 0.250000 0.750000 0.381826
#
# Coordination Sequence:
#
# PCOD9433754 Si02
#       7
#     8   8   8   8   8   8   8
#     4  12  28  50  78 119 158 202 278 344 392 489
#     4  12  29  55  79 109 168 223 257 327 425 489
#     4  12  25  41  79 112 144 201 259 321 395 470
#     4  12  23  46  76 113 151 202 264 332 395 470
#     4  12  24  50  78 114 152 202 271 331 400 475
#     4  12  25  51  75 105 164 210 263 323 401 493
#     4  12  21  43  75 104 149 195 254 329 399 447
#
# _framework density 23.454653
#
# number of rings (size 3 to 8) (size 9 to 14) (size 15 to 20)
#    0.000    0.000    7.143    3.000    2.000    2.857 
#    2.571    0.000    0.000    0.000    0.000    0.000 
#    0.000    0.000    0.000    0.000    0.000    0.000 
#
# Total GULP energy -313195.351360 kJ/mol
# GULP energy per Si atom -5592.774131 kJ/mol
# Density = 2.340127 g / cm^3
# Si number density = 23.454653 Si / 1000 Ang^3
#
#
#
# Elastic Constant Matrix: (Units=GPa)
#
#
# Indices 1 2 3 4 5 6 
#
# 1 135.3753 36.6175 19.6997 0.0000 0.0000 0.0000
# 2 36.6175 90.9112 16.5588 0.0000 0.0000 0.0000
# 3 19.6997 16.5588 114.4416 0.0000 0.0000 0.0000
# 4 0.0000 0.0000 0.0000 38.9964 0.0000 0.0000
# 5 0.0000 0.0000 0.0000 0.0000 28.5487 0.0000
# 6 0.0000 0.0000 0.0000 0.0000 0.0000 39.4790
#
#
#
# Elastic Compliance Matrix: (Units=1/GPa)
#
#
# Indices 1 2 3 4 5 6 
#
# 1 0.008396 -0.003203 -0.000982 0.000000 0.000000 0.000000
# 2 -0.003203 0.012519 -0.001260 0.000000 0.000000 0.000000
# 3 -0.000982 -0.001260 0.009089 0.000000 0.000000 0.000000
# 4 0.000000 0.000000 0.000000 0.025643 0.000000 0.000000
# 5 0.000000 0.000000 0.000000 0.000000 0.035028 0.000000
# 6 0.000000 0.000000 0.000000 0.000000 0.000000 0.025330
#
#
# Mechanical properties :
#
#
# Convention : Reuss Voigt Hill
#
# Bulk Modulus (GPa) = 52.31476 54.05335 53.18406
# Shear Modulus (GPa) = 37.51848 39.26162 38.39005
#
# Velocity S-wave (km/s) = 4.00386 4.09582 4.05010
# Velocity P-wave (km/s) = 6.61268 6.74267 6.67799
#
# Compressibility (1/GPa) = 0.01911506
#
# Stress axis : x y z
#
# Youngs Moduli (GPa) = 119.10268 79.87620 110.01799
#
# Poissons Ratio (x) = 0.25584 0.10802
# Poissons Ratio (y) = 0.38148 0.13863
# Poissons Ratio (z) = 0.11694 0.10065
#
# Static dielectric constant tensor:
#      x y z
#    x 1.830820 0.000000 0.000000 
#    y 0.000000 1.953080 0.000000 
#    z 0.000000 0.000000 1.986030 
# 
# From -- ./inp_files/12288.got.cif
#   From: 2010.05.17/outbox.cif.g08.bks.cpg/sg56_7_cif.got.tgz:12288.got - 2010.06.03 13:42:01.
