data_PCOD9433240
_publ_section_title
;
Structure prediction by ZEFSAII (Michael W. Deem and Ramdas Pophale) SiO2 
 PCOD9433240
Probable space group: P C C N
;
_chemical_formula_sum "Si O2"
_cell_formula_units_Z 64
_cell_length_a 17.385613
_cell_length_b 6.705010
_cell_length_c 26.793319
_cell_angle_alpha 90.000000
_cell_angle_beta 90.000000
_cell_angle_gamma 90.000000
_cell_volume 3123.316193
_symmetry_space_group_name_H-M "P C C N"
_symmetry_group_IT_number 56
_symmetry_cell_setting 'orthorhombic'
loop_
_space_group_symop_operation_xyz
x,y,z
1/2-x,1/2-y,z
1/2+x,-y,1/2-z
-x,1/2+y,1/2-z
-x,-y,-z
1/2+x,1/2+y,-z
1/2-x,y,1/2+z
x,1/2-y,1/2+z
loop_
_atom_site_type_symbol
_atom_site_label
_atom_site_fract_x
_atom_site_fract_y
_atom_site_fract_z
Si Si1 0.336474 0.832497 0.044086
Si Si2 0.838607 0.694821 0.017148
Si Si3 0.442296 0.117856 0.809467
Si Si4 0.834822 0.666479 0.871752
Si Si5 0.341058 0.729329 0.819843
Si Si6 0.085520 0.416817 0.395252
Si Si7 0.931505 0.939936 0.936237
Si Si8 0.897102 0.547152 0.768169
O O1 0.250000 0.750000 0.044423
O O2 0.394240 0.652550 0.051811
O O3 0.346221 0.984450 0.090091
O O4 0.347612 0.960368 0.993560
O O5 0.750000 0.750000 0.003951
O O6 0.858477 0.783852 0.070730
O O7 0.899508 0.798933 0.979944
O O8 0.454858 0.264734 0.856413
O O9 0.408460 0.256965 0.765691
O O10 0.383878 0.941042 0.823097
O O11 0.521071 0.021636 0.790234
O O12 0.750000 0.750000 0.880511
O O13 0.844584 0.595899 0.815410
O O14 0.895726 0.838551 0.886487
O O15 0.250000 0.750000 0.822598
O O16 0.370112 0.581105 0.863063
O O17 0.364479 0.624596 0.767650
O O18 0.021432 0.527769 0.428409
#
# Coordination Sequence:
#
# PCOD9433240 Si02
#       8
#     8   8   8   8   8   8   8   8
#     4  11  20  41  65  96 136 176 215 275 339 401
#     4  11  24  43  68  98 136 179 227 280 339 403
#     4  11  24  46  68  96 135 178 227 276 334 407
#     4  11  23  36  64 100 132 172 218 275 337 403
#     4  11  27  47  69 101 139 179 233 283 333 404
#     4  11  27  44  71  98 135 181 229 283 337 403
#     4  11  22  43  68  98 137 172 225 282 336 406
#     4  11  24  42  69  96 134 180 220 278 340 399
#
# _framework density 20.491039000000001
#
# number of rings (size 3 to 8) (size 9 to 14) (size 15 to 20)
#    0.000    1.000    3.750    2.625    5.250    5.000 
#    0.000    0.000    0.000    0.000    0.000    0.000 
#    0.000    0.000    0.000    0.000    0.000    0.000 
#
# Total GULP energy -357943.927253 kJ/mol
# GULP energy per Si atom -5592.873863 kJ/mol
# Density = 2.044440 g / cm^3
# Si number density = 20.491039 Si / 1000 Ang^3
#
#
#
# Elastic Constant Matrix: (Units=GPa)
#
#
# Indices 1 2 3 4 5 6 
#
# 1 103.5262 33.1185 24.4053 0.0000 0.0000 0.0000
# 2 33.1185 110.6073 27.1115 0.0000 0.0000 0.0000
# 3 24.4053 27.1115 79.4722 0.0000 0.0000 0.0000
# 4 0.0000 0.0000 0.0000 -5.9875 0.0000 0.0000
# 5 0.0000 0.0000 0.0000 0.0000 14.5796 0.0000
# 6 0.0000 0.0000 0.0000 0.0000 0.0000 24.0004
#
#
#
# Elastic Compliance Matrix: (Units=1/GPa)
#
#
# Indices 1 2 3 4 5 6 
#
# 1 0.011115 -0.002719 -0.002486 0.000000 0.000000 0.000000
# 2 -0.002719 0.010531 -0.002758 0.000000 0.000000 0.000000
# 3 -0.002486 -0.002758 0.014287 0.000000 0.000000 0.000000
# 4 0.000000 0.000000 0.000000 -0.167015 0.000000 0.000000
# 5 0.000000 0.000000 0.000000 0.000000 0.068589 0.000000
# 6 0.000000 0.000000 0.000000 0.000000 0.000000 0.041666
#
#
# Mechanical properties :
#
#
# Convention : Reuss Voigt Hill
#
# Bulk Modulus (GPa) = 49.97840 51.43068 50.70454
# Shear Modulus (GPa) = 2829.10649 20.44986 1424.77818
#
# Velocity S-wave (km/s) = 37.19748 3.16253 26.39748
# Velocity P-wave (km/s) = 43.23556 6.20395 30.88529
#
# Compressibility (1/GPa) = 0.02000864
#
# Stress axis : x y z
#
# Youngs Moduli (GPa) = 89.96709 94.95752 69.99284
#
# Poissons Ratio (x) = 0.25817 0.17399
# Poissons Ratio (y) = 0.24461 0.19302
# Poissons Ratio (z) = 0.22365 0.26186
#
# Static dielectric constant tensor:
#      x y z
#    x 1.718760 0.000000 0.000000 
#    y 0.000000 1.714410 0.000000 
#    z 0.000000 0.000000 1.742960 
# 
# From -- ./inp_files/23695.got.cif
#   From: 2010.05.17/outbox.cif.g08.bks.cpg/sg56_12_cif.got.tgz:23695.got - 2010.06.03 13:42:01.
