data_PCOD9433586
_publ_section_title
;
Structure prediction by ZEFSAII (Michael W. Deem and Ramdas Pophale) SiO2 
 PCOD9433586
Probable space group: P C C N
;
_chemical_formula_sum "Si O2"
_cell_formula_units_Z 40
_cell_length_a 8.922360
_cell_length_b 15.801601
_cell_length_c 13.155353
_cell_angle_alpha 90.000000
_cell_angle_beta 90.000000
_cell_angle_gamma 90.000000
_cell_volume 1854.741287
_symmetry_space_group_name_H-M "P C C N"
_symmetry_group_IT_number 56
_symmetry_cell_setting 'orthorhombic'
loop_
_space_group_symop_operation_xyz
x,y,z
1/2-x,1/2-y,z
1/2+x,-y,1/2-z
-x,1/2+y,1/2-z
-x,-y,-z
1/2+x,1/2+y,-z
1/2-x,y,1/2+z
x,1/2-y,1/2+z
loop_
_atom_site_type_symbol
_atom_site_label
_atom_site_fract_x
_atom_site_fract_y
_atom_site_fract_z
Si Si1 0.061394 0.532154 0.110422
Si Si2 0.917876 0.285591 0.972129
Si Si3 0.148813 0.830863 0.307182
Si Si4 0.125467 0.320636 0.346924
Si Si5 0.231778 0.489359 0.774322
O O1 0.075976 0.632665 0.099382
O O2 0.210354 0.488378 0.157565
O O3 0.944145 0.517311 0.201716
O O4 0.000000 0.500000 0.000000
O O5 0.750000 0.250000 0.964186
O O6 0.047068 0.218081 0.947250
O O7 0.932396 0.320538 0.085375
O O8 0.250000 0.750000 0.289694
O O9 0.018450 0.830281 0.225051
O O10 0.253995 0.913643 0.309472
O O11 0.250000 0.250000 0.315830
O O12 0.199423 0.413416 0.341359
#
# Coordination Sequence:
#
# PCOD9433586 Si02
#       5
#     8   8   8   8   8
#     4  12  24  47  71 102 145 185 233 294 352 420
#     4  11  24  45  69  95 139 184 232 286 349 416
#     4  11  25  47  70 100 136 187 234 286 356 419
#     4  12  24  41  67 102 135 178 229 289 346 415
#     4  12  24  44  72 100 140 185 230 288 361 416
#
# _framework density 21.56635
#
# number of rings (size 3 to 8) (size 9 to 14) (size 15 to 20)
#    0.000    0.400    6.000    3.000    0.000    0.800 
#    3.600    5.000    0.000    0.000    0.000    0.000 
#    0.000    0.000    0.000    0.000    0.000    0.000 
#
# Total GULP energy -223087.206824 kJ/mol
# GULP energy per Si atom -5577.180171 kJ/mol
# Density = 2.151726 g / cm^3
# Si number density = 21.566350 Si / 1000 Ang^3
#
#
#
# Elastic Constant Matrix: (Units=GPa)
#
#
# Indices 1 2 3 4 5 6 
#
# 1 58.5901 22.8781 18.5380 0.0000 0.0000 0.0000
# 2 22.8781 147.3322 16.2884 0.0000 0.0000 0.0000
# 3 18.5380 16.2884 98.5434 0.0000 0.0000 0.0000
# 4 0.0000 0.0000 0.0000 28.8236 0.0000 0.0000
# 5 0.0000 0.0000 0.0000 0.0000 34.0181 0.0000
# 6 0.0000 0.0000 0.0000 0.0000 0.0000 51.9237
#
#
#
# Elastic Compliance Matrix: (Units=1/GPa)
#
#
# Indices 1 2 3 4 5 6 
#
# 1 0.019088 -0.002615 -0.003159 0.000000 0.000000 0.000000
# 2 -0.002615 0.007272 -0.000710 0.000000 0.000000 0.000000
# 3 -0.003159 -0.000710 0.010859 0.000000 0.000000 0.000000
# 4 0.000000 0.000000 0.000000 0.034694 0.000000 0.000000
# 5 0.000000 0.000000 0.000000 0.000000 0.029396 0.000000
# 6 0.000000 0.000000 0.000000 0.000000 0.000000 0.019259
#
#
# Mechanical properties :
#
#
# Convention : Reuss Voigt Hill
#
# Bulk Modulus (GPa) = 41.23320 46.65275 43.94297
# Shear Modulus (GPa) = 35.30584 39.40384 37.35484
#
# Velocity S-wave (km/s) = 4.05047 4.27909 4.16635
# Velocity P-wave (km/s) = 6.40592 6.78921 6.60035
#
# Compressibility (1/GPa) = 0.02425230
#
# Stress axis : x y z
#
# Youngs Moduli (GPa) = 52.38848 137.51515 92.08617
#
# Poissons Ratio (x) = 0.35958 0.29087
# Poissons Ratio (y) = 0.13699 0.06539
# Poissons Ratio (z) = 0.16548 0.09765
#
# Static dielectric constant tensor:
#      x y z
#    x 1.853450 0.000000 0.000000 
#    y 0.000000 1.873260 0.000000 
#    z 0.000000 0.000000 1.825250 
# 
# From -- ./inp_files/10366.got.cif
#   From: 2010.05.17/outbox.cif.g08.bks.cpg/sg56_6_cif.got.tgz:10366.got - 2010.06.03 13:42:01.
