data_PCOD9433302
_publ_section_title
;
Structure prediction by ZEFSAII (Michael W. Deem and Ramdas Pophale) SiO2 
 PCOD9433302
Probable space group: P C C N
;
_chemical_formula_sum "Si O2"
_cell_formula_units_Z 48
_cell_length_a 9.894286
_cell_length_b 16.898860
_cell_length_c 13.880545
_cell_angle_alpha 90.000000
_cell_angle_beta 90.000000
_cell_angle_gamma 90.000000
_cell_volume 2320.857021
_symmetry_space_group_name_H-M "P C C N"
_symmetry_group_IT_number 56
_symmetry_cell_setting 'orthorhombic'
loop_
_space_group_symop_operation_xyz
x,y,z
1/2-x,1/2-y,z
1/2+x,-y,1/2-z
-x,1/2+y,1/2-z
-x,-y,-z
1/2+x,1/2+y,-z
1/2-x,y,1/2+z
x,1/2-y,1/2+z
loop_
_atom_site_type_symbol
_atom_site_label
_atom_site_fract_x
_atom_site_fract_y
_atom_site_fract_z
Si Si1 0.265044 0.341942 0.826794
Si Si2 0.362669 0.855349 0.936458
Si Si3 0.101635 0.060479 0.656378
Si Si4 0.914253 0.180392 0.141418
Si Si5 0.691820 0.838565 0.455560
Si Si6 0.050672 0.878994 0.654401
O O1 0.250000 0.250000 0.795768
O O2 0.350077 0.391656 0.750252
O O3 0.112769 0.374486 0.841356
O O4 0.336130 0.342197 0.930905
O O5 0.452297 0.919146 0.880970
O O6 0.205370 0.865143 0.913378
O O7 0.404381 0.770862 0.892044
O O8 0.398579 0.853726 0.049125
O O9 0.199733 0.095516 0.573949
O O10 0.105679 0.967307 0.671002
O O11 0.899098 0.173122 0.255902
O O12 0.059637 0.149523 0.108460
O O13 0.750000 0.750000 0.437774
#
# Coordination Sequence:
#
# PCOD9433302 Si02
#       6
#     8   8   8   8   8   8
#     4  11  23  43  76  99 135 189 242 279 338 421
#     4  11  25  45  68  96 144 183 219 290 355 406
#     4  12  24  41  70  98 141 178 226 284 352 406
#     4  11  25  43  69 102 134 175 244 278 332 425
#     4  11  21  43  71 102 130 185 245 281 329 418
#     4  12  26  43  70 103 140 179 227 292 358 406
#
# _framework density 20.682015
#
# number of rings (size 3 to 8) (size 9 to 14) (size 15 to 20)
#    0.000    0.667    5.000    3.000    2.333    4.000 
#    0.000    1.667    0.000    0.000    0.000    0.000 
#    0.000    0.000    0.000    0.000    0.000    0.000 
#
# Total GULP energy -268512.705463 kJ/mol
# GULP energy per Si atom -5594.014697 kJ/mol
# Density = 2.063494 g / cm^3
# Si number density = 20.682015 Si / 1000 Ang^3
#
#
#
# Elastic Constant Matrix: (Units=GPa)
#
#
# Indices 1 2 3 4 5 6 
#
# 1 80.9885 6.7799 20.8043 0.0000 0.0000 0.0000
# 2 6.7799 79.3331 15.5146 0.0000 0.0000 0.0000
# 3 20.8043 15.5146 144.2055 0.0000 0.0000 0.0000
# 4 0.0000 0.0000 0.0000 269.8476 0.0000 0.0000
# 5 0.0000 0.0000 0.0000 0.0000 204.7697 0.0000
# 6 0.0000 0.0000 0.0000 0.0000 0.0000 22.7767
#
#
#
# Elastic Compliance Matrix: (Units=1/GPa)
#
#
# Indices 1 2 3 4 5 6 
#
# 1 0.012866 -0.000752 -0.001775 0.000000 0.000000 0.000000
# 2 -0.000752 0.012920 -0.001281 0.000000 0.000000 0.000000
# 3 -0.001775 -0.001281 0.007329 0.000000 0.000000 0.000000
# 4 0.000000 0.000000 0.000000 0.003706 0.000000 0.000000
# 5 0.000000 0.000000 0.000000 0.000000 0.004884 0.000000
# 6 0.000000 0.000000 0.000000 0.000000 0.000000 0.043905
#
#
# Mechanical properties :
#
#
# Convention : Reuss Voigt Hill
#
# Bulk Modulus (GPa) = 39.22081 43.41386 41.31734
# Shear Modulus (GPa) = 49.15161 116.90734 83.02948
#
# Velocity S-wave (km/s) = 4.88026 7.52654 6.34294
# Velocity P-wave (km/s) = 7.12467 9.82692 8.58281
#
# Compressibility (1/GPa) = 0.02549667
#
# Stress axis : x y z
#
# Youngs Moduli (GPa) = 77.72155 77.39946 136.45293
#
# Poissons Ratio (x) = 0.05824 0.24224
# Poissons Ratio (y) = 0.05848 0.17486
# Poissons Ratio (z) = 0.13798 0.09919
#
# Static dielectric constant tensor:
#      x y z
#    x 1.755500 0.000000 0.000000 
#    y 0.000000 1.841280 0.000000 
#    z 0.000000 0.000000 1.735960 
# 
# From -- ./inp_files/10699.got.cif
#   From: 2010.05.17/outbox.cif.g08.bks.cpg/sg56_6_cif.got.tgz:10699.got - 2010.06.03 13:42:01.
