data_PCOD9433101
_publ_section_title
;
Structure prediction by ZEFSAII (Michael W. Deem and Ramdas Pophale) SiO2 
 PCOD9433101
Probable space group: P C C N
;
_chemical_formula_sum "Si O2"
_cell_formula_units_Z 40
_cell_length_a 9.662693
_cell_length_b 7.384473
_cell_length_c 24.523552
_cell_angle_alpha 90.000000
_cell_angle_beta 90.000000
_cell_angle_gamma 90.000000
_cell_volume 1749.850968
_symmetry_space_group_name_H-M "P C C N"
_symmetry_group_IT_number 56
_symmetry_cell_setting 'orthorhombic'
loop_
_space_group_symop_operation_xyz
x,y,z
1/2-x,1/2-y,z
1/2+x,-y,1/2-z
-x,1/2+y,1/2-z
-x,-y,-z
1/2+x,1/2+y,-z
1/2-x,y,1/2+z
x,1/2-y,1/2+z
loop_
_atom_site_type_symbol
_atom_site_label
_atom_site_fract_x
_atom_site_fract_y
_atom_site_fract_z
Si Si1 0.812469 0.559675 0.712853
Si Si2 0.497077 0.294964 0.880056
Si Si3 0.896906 0.654866 0.383606
Si Si4 0.979961 0.060117 0.691574
Si Si5 0.918954 0.800310 0.499162
O O1 0.750000 0.750000 0.734064
O O2 0.679720 0.435918 0.707661
O O3 0.929556 0.512524 0.755848
O O4 0.874403 0.606463 0.653545
O O5 0.619101 0.441055 0.874478
O O6 0.508353 0.100213 0.852059
O O7 0.467864 0.278485 0.943548
O O8 0.750000 0.750000 0.382354
O O9 0.962807 0.703797 0.442589
O O10 0.982091 0.752237 0.336421
O O11 0.750000 0.750000 0.499894
O O12 0.000000 0.000000 0.500000
#
# Coordination Sequence:
#
# PCOD9433101 Si02
#       5
#     8   8   8   8   8
#     4  10  25  46  70 103 142 193 241 309 366 449
#     4  11  25  47  74 103 146 197 235 302 380 439
#     4  11  26  45  71 110 148 186 247 306 361 442
#     4  11  24  48  69 103 146 188 252 298 371 438
#     4  11  23  49  77 112 151 189 247 312 375 454
#
# _framework density 22.859089999999998
#
# number of rings (size 3 to 8) (size 9 to 14) (size 15 to 20)
#    0.000    1.200    2.000    3.000    8.400    1.600 
#    3.600    2.000    0.000    0.000    0.000    0.000 
#    0.000    0.000    0.000    0.000    0.000    0.000 
#
# Total GULP energy -223259.354848 kJ/mol
# GULP energy per Si atom -5581.483871 kJ/mol
# Density = 2.280706 g / cm^3
# Si number density = 22.859090 Si / 1000 Ang^3
#
#
#
# Elastic Constant Matrix: (Units=GPa)
#
#
# Indices 1 2 3 4 5 6 
#
# 1 48.3144 24.2389 20.9168 0.0000 0.0000 0.0000
# 2 24.2389 121.5752 26.4074 0.0000 0.0000 0.0000
# 3 20.9168 26.4074 143.9619 0.0000 0.0000 0.0000
# 4 0.0000 0.0000 0.0000 14.5770 0.0000 0.0000
# 5 0.0000 0.0000 0.0000 0.0000 -3.6962 0.0000
# 6 0.0000 0.0000 0.0000 0.0000 0.0000 34.3998
#
#
#
# Elastic Compliance Matrix: (Units=1/GPa)
#
#
# Indices 1 2 3 4 5 6 
#
# 1 0.023975 -0.004190 -0.002715 0.000000 0.000000 0.000000
# 2 -0.004190 0.009299 -0.001097 0.000000 0.000000 0.000000
# 3 -0.002715 -0.001097 0.007542 0.000000 0.000000 0.000000
# 4 0.000000 0.000000 0.000000 0.068601 0.000000 0.000000
# 5 0.000000 0.000000 0.000000 0.000000 -0.270546 0.000000
# 6 0.000000 0.000000 0.000000 0.000000 0.000000 0.029070
#
#
# Mechanical properties :
#
#
# Convention : Reuss Voigt Hill
#
# Bulk Modulus (GPa) = 40.30285 50.77530 45.53907
# Shear Modulus (GPa) = -46.38916 25.20867 -10.59025
#
# Velocity S-wave (km/s) = -4.50972 3.32442 -2.15474
# Velocity P-wave (km/s) = 3.07368 6.08245 3.71138
#
# Compressibility (1/GPa) = 0.02481214
#
# Stress axis : x y z
#
# Youngs Moduli (GPa) = 41.70950 107.53756 132.59186
#
# Poissons Ratio (x) = 0.45062 0.35996
# Poissons Ratio (y) = 0.17478 0.14544
# Poissons Ratio (z) = 0.11323 0.11796
#
# Static dielectric constant tensor:
#      x y z
#    x 0.000000 0.000000 0.000000 
#    y 0.000000 0.000000 0.000000 
#    z 0.000000 0.000000 0.000000 
# 
# From -- ./inp_files/21969.got.cif
#   From: 2010.05.17/outbox.cif.g08.bks.cpg/sg56_11_cif.got.tgz:21969.got - 2010.06.03 13:42:01.
