data_PCOD9433830
_publ_section_title
;
Structure prediction by ZEFSAII (Michael W. Deem and Ramdas Pophale) SiO2 
 PCOD9433830
Probable space group: P C C N
;
_chemical_formula_sum "Si O2"
_cell_formula_units_Z 40
_cell_length_a 17.663417
_cell_length_b 7.629985
_cell_length_c 11.843462
_cell_angle_alpha 90.000000
_cell_angle_beta 90.000000
_cell_angle_gamma 90.000000
_cell_volume 1596.162403
_symmetry_space_group_name_H-M "P C C N"
_symmetry_group_IT_number 56
_symmetry_cell_setting 'orthorhombic'
loop_
_space_group_symop_operation_xyz
x,y,z
1/2-x,1/2-y,z
1/2+x,-y,1/2-z
-x,1/2+y,1/2-z
-x,-y,-z
1/2+x,1/2+y,-z
1/2-x,y,1/2+z
x,1/2-y,1/2+z
loop_
_atom_site_type_symbol
_atom_site_label
_atom_site_fract_x
_atom_site_fract_y
_atom_site_fract_z
Si Si1 0.899549 0.564696 0.150427
Si Si2 0.929951 0.532936 0.583447
Si Si3 0.066531 0.956888 0.667183
Si Si4 0.155063 0.601137 0.617645
Si Si5 0.202570 0.427777 0.055936
O O1 0.916237 0.769197 0.125167
O O2 0.876243 0.509081 0.275820
O O3 0.983343 0.488283 0.126600
O O4 0.832564 0.513928 0.064123
O O5 0.939265 0.428956 0.699122
O O6 0.860566 0.473907 0.507294
O O7 0.000000 0.500000 0.500000
O O8 0.105504 0.779287 0.621221
O O9 0.127662 0.101477 0.631526
O O10 0.245495 0.569906 0.619895
O O11 0.250000 0.250000 0.046641
#
# Coordination Sequence:
#
# PCOD9433830 Si02
#       5
#     8   8   8   8   8
#     4  12  26  49  82 113 154 208 265 322 392 478
#     4  12  25  48  80 116 155 200 264 324 391 480
#     4  12  27  49  81 112 158 203 267 323 394 475
#     4  12  28  50  76 115 156 204 259 327 399 464
#     4  12  28  49  76 112 154 208 259 327 394 465
#
# _framework density 25.060109000000001
#
# number of rings (size 3 to 8) (size 9 to 14) (size 15 to 20)
#    0.000    0.000    6.000    2.400    5.600    2.400 
#    0.000    0.000    0.000    0.000    0.000    0.000 
#    0.000    0.000    0.000    0.000    0.000    0.000 
#
# Total GULP energy -223708.095900 kJ/mol
# GULP energy per Si atom -5592.702397 kJ/mol
# Density = 2.500307 g / cm^3
# Si number density = 25.060109 Si / 1000 Ang^3
#
#
#
# Elastic Constant Matrix: (Units=GPa)
#
#
# Indices 1 2 3 4 5 6 
#
# 1 170.6219 29.2807 31.5855 0.0000 0.0000 0.0000
# 2 29.2807 90.9024 25.5478 0.0000 0.0000 0.0000
# 3 31.5855 25.5478 114.8873 0.0000 0.0000 0.0000
# 4 0.0000 0.0000 0.0000 32.8996 0.0000 0.0000
# 5 0.0000 0.0000 0.0000 0.0000 31.3467 0.0000
# 6 0.0000 0.0000 0.0000 0.0000 0.0000 27.0590
#
#
#
# Elastic Compliance Matrix: (Units=1/GPa)
#
#
# Indices 1 2 3 4 5 6 
#
# 1 0.006405 -0.001673 -0.001389 0.000000 0.000000 0.000000
# 2 -0.001673 0.012171 -0.002247 0.000000 0.000000 0.000000
# 3 -0.001389 -0.002247 0.009586 0.000000 0.000000 0.000000
# 4 0.000000 0.000000 0.000000 0.030396 0.000000 0.000000
# 5 0.000000 0.000000 0.000000 0.000000 0.031901 0.000000
# 6 0.000000 0.000000 0.000000 0.000000 0.000000 0.036956
#
#
# Mechanical properties :
#
#
# Convention : Reuss Voigt Hill
#
# Bulk Modulus (GPa) = 56.99611 61.02663 59.01137
# Shear Modulus (GPa) = 34.75120 37.59423 36.17271
#
# Velocity S-wave (km/s) = 3.72790 3.87739 3.80338
# Velocity P-wave (km/s) = 6.42828 6.66712 6.54879
#
# Compressibility (1/GPa) = 0.01754506
#
# Stress axis : x y z
#
# Youngs Moduli (GPa) = 156.12549 82.16230 104.32290
#
# Poissons Ratio (x) = 0.13744 0.14490
# Poissons Ratio (y) = 0.26117 0.23437
# Poissons Ratio (z) = 0.21685 0.18459
#
# Static dielectric constant tensor:
#      x y z
#    x 2.078820 0.000000 0.000000 
#    y 0.000000 2.108630 0.000000 
#    z 0.000000 0.000000 1.947080 
# 
# From -- ./inp_files/6177.got.cif
#   From: 2010.05.17/outbox.cif.g08.bks.cpg/sg56_4_cif.got.tgz:6177.got - 2010.06.03 13:42:01.
