data_PCOD9433969
_publ_section_title
;
Structure prediction by ZEFSAII (Michael W. Deem and Ramdas Pophale) SiO2 
 PCOD9433969
Probable space group: P C C N
;
_chemical_formula_sum "Si O2"
_cell_formula_units_Z 40
_cell_length_a 18.000000
_cell_length_b 6.000000
_cell_length_c 18.000000
_cell_angle_alpha 90.000000
_cell_angle_beta 90.000000
_cell_angle_gamma 90.000000
_cell_volume 1944.000000
_symmetry_space_group_name_H-M "P C C N"
_symmetry_group_IT_number 56
_symmetry_cell_setting 'orthorhombic'
loop_
_space_group_symop_operation_xyz
x,y,z
1/2-x,1/2-y,z
1/2+x,-y,1/2-z
-x,1/2+y,1/2-z
-x,-y,-z
1/2+x,1/2+y,-z
1/2-x,y,1/2+z
x,1/2-y,1/2+z
loop_
_atom_site_type_symbol
_atom_site_label
_atom_site_fract_x
_atom_site_fract_y
_atom_site_fract_z
Si Si1 0.324900 0.873812 0.470154
Si Si2 0.551004 0.393029 0.436421
Si Si3 0.075152 0.235054 0.186629
Si Si4 0.785992 0.993321 0.871584
Si Si5 0.060758 0.062596 0.848279
O O1 0.250000 0.750000 0.441912
O O2 0.381808 0.716032 0.516679
O O3 0.296403 0.023479 0.539187
O O4 0.372748 0.988346 0.404193
O O5 0.500000 0.500000 0.500000
O O6 0.581883 0.569385 0.375573
O O7 0.496048 0.222039 0.393768
O O8 0.133228 0.036460 0.167219
O O9 0.085970 0.321929 0.270930
O O10 0.991045 0.144994 0.176508
O O11 0.750000 0.750000 0.848355
O O12 0.750000 0.250000 0.858068
#
# Coordination Sequence:
#
# PCOD9433969 Si02
#       5
#     8   8   8   8   8
#     4  11  24  46  75 109 146 194 256 318 383 455
#     4  12  23  43  76 106 144 192 255 320 372 456
#     4  12  24  44  72 107 150 199 253 311 390 456
#     4  11  25  47  76 110 151 199 255 310 379 458
#     4  12  25  44  70 108 147 195 251 317 386 458
#
# _framework density 20.576132000000001
#
# number of rings (size 3 to 8) (size 9 to 14) (size 15 to 20)
#    0.000    0.400    6.000    4.200    0.000    0.000 
#    0.000    9.000    0.000    1.200    0.000    0.000 
#    0.000    0.000    0.000    0.000    0.000    0.000 
#
# Total GULP energy -223312.694441 kJ/mol
# GULP energy per Si atom -5582.817361 kJ/mol
# Density = 2.052930 g / cm^3
# Si number density = 20.576132 Si / 1000 Ang^3
#
#
#
# Elastic Constant Matrix: (Units=GPa)
#
#
# Indices 1 2 3 4 5 6 
#
# 1 129.6956 57.6414 51.0393 0.0000 0.0000 0.0000
# 2 57.6414 111.2673 55.5778 0.0000 0.0000 0.0000
# 3 51.0393 55.5778 149.0571 0.0000 0.0000 0.0000
# 4 0.0000 0.0000 0.0000 47.7427 0.0000 0.0000
# 5 0.0000 0.0000 0.0000 0.0000 33.3795 0.0000
# 6 0.0000 0.0000 0.0000 0.0000 0.0000 48.9202
#
#
#
# Elastic Compliance Matrix: (Units=1/GPa)
#
#
# Indices 1 2 3 4 5 6 
#
# 1 0.010443 -0.004453 -0.001915 0.000000 0.000000 0.000000
# 2 -0.004453 0.012943 -0.003301 0.000000 0.000000 0.000000
# 3 -0.001915 -0.003301 0.008596 0.000000 0.000000 0.000000
# 4 0.000000 0.000000 0.000000 0.020946 0.000000 0.000000
# 5 0.000000 0.000000 0.000000 0.000000 0.029958 0.000000
# 6 0.000000 0.000000 0.000000 0.000000 0.000000 0.020441
#
#
# Mechanical properties :
#
#
# Convention : Reuss Voigt Hill
#
# Bulk Modulus (GPa) = 79.09961 79.83746 79.46853
# Shear Modulus (GPa) = 39.40667 41.05925 40.23296
#
# Velocity S-wave (km/s) = 4.38101 4.47193 4.42670
# Velocity P-wave (km/s) = 8.00730 8.09626 8.05190
#
# Compressibility (1/GPa) = 0.01264229
#
# Stress axis : x y z
#
# Youngs Moduli (GPa) = 95.75421 77.25979 116.33839
#
# Poissons Ratio (x) = 0.34407 0.22284
# Poissons Ratio (y) = 0.42643 0.38405
# Poissons Ratio (z) = 0.18342 0.25505
#
# Static dielectric constant tensor:
#      x y z
#    x 1.816350 0.000000 0.000000 
#    y 0.000000 1.814280 0.000000 
#    z 0.000000 0.000000 1.694890 
# 
# From -- ./inp_files/16454.got.cif
#   From: 2010.05.17/outbox.ucp.g08.bks.cvg/sg56_9_cif.got.tgz:16454.got - 2010.06.11 16:37:52.
