data_PCOD9433627
_publ_section_title
;
Structure prediction by ZEFSAII (Michael W. Deem and Ramdas Pophale) SiO2 
 PCOD9433627
Probable space group: P C C N
;
_chemical_formula_sum "Si O2"
_cell_formula_units_Z 28
_cell_length_a 5.373317
_cell_length_b 13.014846
_cell_length_c 14.990713
_cell_angle_alpha 90.000000
_cell_angle_beta 90.000000
_cell_angle_gamma 90.000000
_cell_volume 1048.343932
_symmetry_space_group_name_H-M "P C C N"
_symmetry_group_IT_number 56
_symmetry_cell_setting 'orthorhombic'
loop_
_space_group_symop_operation_xyz
x,y,z
1/2-x,1/2-y,z
1/2+x,-y,1/2-z
-x,1/2+y,1/2-z
-x,-y,-z
1/2+x,1/2+y,-z
1/2-x,y,1/2+z
x,1/2-y,1/2+z
loop_
_atom_site_type_symbol
_atom_site_label
_atom_site_fract_x
_atom_site_fract_y
_atom_site_fract_z
Si Si1 0.690324 0.868051 0.812043
Si Si2 0.750000 0.250000 0.449001
Si Si3 0.176620 0.139614 0.391303
Si Si4 0.677649 0.073822 0.591633
O O1 0.750000 0.750000 0.835570
O O2 0.704094 0.873516 0.705063
O O3 0.420801 0.899242 0.848282
O O4 0.922366 0.930021 0.853033
O O5 0.610651 0.330406 0.382904
O O6 0.658019 0.163306 0.519231
O O7 0.250000 0.250000 0.433301
O O8 0.247485 0.038914 0.445365
#
# Coordination Sequence:
#
# PCOD9433627 Si02
#       4
#     8   4   8   8
#     4  11  24  48  78 108 144 195 254 307 361 440
#     4  12  28  46  74 110 154 194 242 308 378 444
#     4  11  29  45  75 109 150 195 249 308 369 436
#     4  12  26  50  76 107 150 196 250 302 375 438
#
# _framework density 26.708791999999999
#
# number of rings (size 3 to 8) (size 9 to 14) (size 15 to 20)
#    0.000    0.571    2.857    2.571   16.000    1.143 
#    0.000    0.000    0.000    0.000    0.000    0.000 
#    0.000    0.000    0.000    0.000    0.000    0.000 
#
# Total GULP energy -156530.408284 kJ/mol
# GULP energy per Si atom -5590.371724 kJ/mol
# Density = 2.664800 g / cm^3
# Si number density = 26.708792 Si / 1000 Ang^3
#
#
#
# Elastic Constant Matrix: (Units=GPa)
#
#
# Indices 1 2 3 4 5 6 
#
# 1 142.6243 38.3019 73.4718 0.0000 0.0000 0.0000
# 2 38.3019 216.2176 37.9429 0.0000 0.0000 0.0000
# 3 73.4718 37.9429 85.7056 0.0000 0.0000 0.0000
# 4 0.0000 0.0000 0.0000 72.6316 0.0000 0.0000
# 5 0.0000 0.0000 0.0000 0.0000 30.5280 0.0000
# 6 0.0000 0.0000 0.0000 0.0000 0.0000 60.3870
#
#
#
# Elastic Compliance Matrix: (Units=1/GPa)
#
#
# Indices 1 2 3 4 5 6 
#
# 1 0.012583 -0.000364 -0.010626 0.000000 0.000000 0.000000
# 2 -0.000364 0.005025 -0.001912 0.000000 0.000000 0.000000
# 3 -0.010626 -0.001912 0.021623 0.000000 0.000000 0.000000
# 4 0.000000 0.000000 0.000000 0.013768 0.000000 0.000000
# 5 0.000000 0.000000 0.000000 0.000000 0.032757 0.000000
# 6 0.000000 0.000000 0.000000 0.000000 0.000000 0.016560
#
#
# Mechanical properties :
#
#
# Convention : Reuss Voigt Hill
#
# Bulk Modulus (GPa) = 74.47735 82.66454 78.57094
# Shear Modulus (GPa) = 37.70849 52.36470 45.03660
#
# Velocity S-wave (km/s) = 3.76152 4.43265 4.11080
# Velocity P-wave (km/s) = 6.84185 7.56408 7.21201
#
# Compressibility (1/GPa) = 0.01342690
#
# Stress axis : x y z
#
# Youngs Moduli (GPa) = 79.47268 199.00103 46.24649
#
# Poissons Ratio (x) = 0.07251 0.49139
# Poissons Ratio (y) = 0.02896 0.08844
# Poissons Ratio (z) = 0.84444 0.38055
#
# Static dielectric constant tensor:
#      x y z
#    x 7.563100 0.000000 0.000000 
#    y 0.000000 2.080960 0.000000 
#    z 0.000000 0.000000 2.046660 
# 
# From -- ./inp_files/13646.got.cif
#   From: 2010.05.17/outbox.cif.g08.bks.cpg/sg56_7_cif.got.tgz:13646.got - 2010.06.03 13:42:01.
