data_PCOD9433043
_publ_section_title
;
Structure prediction by ZEFSAII (Michael W. Deem and Ramdas Pophale) SiO2 
 PCOD9433043
Probable space group: P C C N
;
_chemical_formula_sum "Si O2"
_cell_formula_units_Z 36
_cell_length_a 8.978517
_cell_length_b 19.911882
_cell_length_c 8.736333
_cell_angle_alpha 90.000000
_cell_angle_beta 90.000000
_cell_angle_gamma 90.000000
_cell_volume 1561.874372
_symmetry_space_group_name_H-M "P C C N"
_symmetry_group_IT_number 56
_symmetry_cell_setting 'orthorhombic'
loop_
_space_group_symop_operation_xyz
x,y,z
1/2-x,1/2-y,z
1/2+x,-y,1/2-z
-x,1/2+y,1/2-z
-x,-y,-z
1/2+x,1/2+y,-z
1/2-x,y,1/2+z
x,1/2-y,1/2+z
loop_
_atom_site_type_symbol
_atom_site_label
_atom_site_fract_x
_atom_site_fract_y
_atom_site_fract_z
Si Si1 0.427642 0.671600 0.223915
Si Si2 0.362431 0.412152 0.305974
Si Si3 0.750000 0.250000 0.027690
Si Si4 0.534410 0.525968 0.169539
Si Si5 0.709254 0.822169 0.914262
O O1 0.323495 0.694434 0.363526
O O2 0.370921 0.713671 0.079428
O O3 0.434309 0.592085 0.197651
O O4 0.594611 0.689642 0.275529
O O5 0.491109 0.466025 0.283669
O O6 0.368954 0.368223 0.458826
O O7 0.347047 0.362875 0.159199
O O8 0.205106 0.451767 0.311713
O O9 0.500000 0.500000 0.000000
O O10 0.750000 0.750000 0.977261
#
# Coordination Sequence:
#
# PCOD9433043 Si02
#       5
#     8   8   4   8   8
#     4  10  26  43  72 103 144 188 236 296 355 429
#     4  11  25  45  74 103 142 188 238 296 357 422
#     4  10  24  48  66 108 142 190 238 288 366 422
#     4  11  25  47  71 105 142 185 240 294 362 422
#     4  11  25  44  71 107 138 187 238 293 356 423
#
# _framework density 23.049227999999999
#
# number of rings (size 3 to 8) (size 9 to 14) (size 15 to 20)
#    0.000    1.333    2.222    0.667   12.444    5.333 
#    0.000    0.000    0.000    0.000    0.000    0.000 
#    0.000    0.000    0.000    0.000    0.000    0.000 
#
# Total GULP energy -201658.450879 kJ/mol
# GULP energy per Si atom -5601.623636 kJ/mol
# Density = 2.299677 g / cm^3
# Si number density = 23.049228 Si / 1000 Ang^3
#
#
#
# Elastic Constant Matrix: (Units=GPa)
#
#
# Indices 1 2 3 4 5 6 
#
# 1 67.5237 45.5417 16.4392 0.0000 0.0000 0.0000
# 2 45.5417 154.5388 65.6465 0.0000 0.0000 0.0000
# 3 16.4392 65.6465 108.3691 0.0000 0.0000 0.0000
# 4 0.0000 0.0000 0.0000 48.5958 0.0000 0.0000
# 5 0.0000 0.0000 0.0000 0.0000 32.0581 0.0000
# 6 0.0000 0.0000 0.0000 0.0000 0.0000 22.0436
#
#
#
# Elastic Compliance Matrix: (Units=1/GPa)
#
#
# Indices 1 2 3 4 5 6 
#
# 1 0.018519 -0.005742 0.000669 0.000000 0.000000 0.000000
# 2 -0.005742 0.010493 -0.005485 0.000000 0.000000 0.000000
# 3 0.000669 -0.005485 0.012449 0.000000 0.000000 0.000000
# 4 0.000000 0.000000 0.000000 0.020578 0.000000 0.000000
# 5 0.000000 0.000000 0.000000 0.000000 0.031193 0.000000
# 6 0.000000 0.000000 0.000000 0.000000 0.000000 0.045365
#
#
# Mechanical properties :
#
#
# Convention : Reuss Voigt Hill
#
# Bulk Modulus (GPa) = 49.15207 65.07627 57.11417
# Shear Modulus (GPa) = 30.03086 34.05976 32.04531
#
# Velocity S-wave (km/s) = 3.61349 3.84825 3.73272
# Velocity P-wave (km/s) = 6.22743 6.93111 6.58867
#
# Compressibility (1/GPa) = 0.02034502
#
# Stress axis : x y z
#
# Youngs Moduli (GPa) = 53.99787 95.30164 80.32697
#
# Poissons Ratio (x) = 0.54718 -0.05372
# Poissons Ratio (y) = 0.31003 0.44062
# Poissons Ratio (z) = -0.03611 0.52276
#
# Static dielectric constant tensor:
#      x y z
#    x 1.873440 0.000000 0.000000 
#    y 0.000000 1.855120 0.000000 
#    z 0.000000 0.000000 1.885590 
# 
# From -- ./inp_files/1966.got.cif
#   From: 2010.05.17/outbox.cif.g08.bks.cpg/sg56_1_cif.got.tgz:1966.got - 2010.06.03 13:42:01.
