data_PCOD9433198
_publ_section_title
;
Structure prediction by ZEFSAII (Michael W. Deem and Ramdas Pophale) SiO2 
 PCOD9433198
Probable space group: P C C N
;
_chemical_formula_sum "Si O2"
_cell_formula_units_Z 36
_cell_length_a 16.739307
_cell_length_b 5.423857
_cell_length_c 18.856639
_cell_angle_alpha 90.000000
_cell_angle_beta 90.000000
_cell_angle_gamma 90.000000
_cell_volume 1712.024566
_symmetry_space_group_name_H-M "P C C N"
_symmetry_group_IT_number 56
_symmetry_cell_setting 'orthorhombic'
loop_
_space_group_symop_operation_xyz
x,y,z
1/2-x,1/2-y,z
1/2+x,-y,1/2-z
-x,1/2+y,1/2-z
-x,-y,-z
1/2+x,1/2+y,-z
1/2-x,y,1/2+z
x,1/2-y,1/2+z
loop_
_atom_site_type_symbol
_atom_site_label
_atom_site_fract_x
_atom_site_fract_y
_atom_site_fract_z
Si Si1 0.615656 0.994520 0.064661
Si Si2 0.314384 0.548704 0.140141
Si Si3 0.250000 0.250000 0.256939
Si Si4 0.750000 0.750000 0.986945
Si Si5 0.250000 0.750000 0.345173
Si Si6 0.033799 0.799657 0.057554
O O1 0.670117 0.179220 0.110269
O O2 0.538096 0.853926 0.093755
O O3 0.584431 0.122079 0.993329
O O4 0.676037 0.788980 0.037379
O O5 0.250000 0.750000 0.167551
O O6 0.317239 0.338590 0.200561
O O7 0.271801 0.464756 0.067308
O O8 0.403764 0.611140 0.116493
O O9 0.232852 0.493153 0.303399
O O10 0.000000 0.000000 0.000000
#
# Coordination Sequence:
#
# PCOD9433198 Si02
#       6
#     8   8   4   4   4   8
#     4  11  24  38  71 105 144 173 225 299 365 430
#     4  11  21  42  72  97 143 183 240 287 349 428
#     4  11  27  44  76  96 131 199 260 282 324 425
#     4  11  19  36  68 108 131 179 220 292 368 415
#     4  12  26  48  72 100 140 196 254 286 340 424
#     4  11  23  40  67 113 142 170 218 297 383 423
#
# _framework density 21.027736000000001
#
# number of rings (size 3 to 8) (size 9 to 14) (size 15 to 20)
#    0.000    0.889    5.556    2.000    3.111    0.000 
#    0.000    0.000    9.778    0.000    0.000    0.000 
#    0.000    0.000    0.000    0.000    0.000    0.000 
#
# Total GULP energy -200591.132757 kJ/mol
# GULP energy per Si atom -5571.975910 kJ/mol
# Density = 2.097988 g / cm^3
# Si number density = 21.027736 Si / 1000 Ang^3
#
#
#
# Elastic Constant Matrix: (Units=GPa)
#
#
# Indices 1 2 3 4 5 6 
#
# 1 161.8512 56.7041 57.1012 0.0000 0.0000 0.0000
# 2 56.7041 103.0258 50.9557 0.0000 0.0000 0.0000
# 3 57.1012 50.9557 83.9998 0.0000 0.0000 0.0000
# 4 0.0000 0.0000 0.0000 39.0410 0.0000 0.0000
# 5 0.0000 0.0000 0.0000 0.0000 5.8060 0.0000
# 6 0.0000 0.0000 0.0000 0.0000 0.0000 40.3496
#
#
#
# Elastic Compliance Matrix: (Units=1/GPa)
#
#
# Indices 1 2 3 4 5 6 
#
# 1 0.008600 -0.002631 -0.004250 0.000000 0.000000 0.000000
# 2 -0.002631 0.014672 -0.007111 0.000000 0.000000 0.000000
# 3 -0.004250 -0.007111 0.019108 0.000000 0.000000 0.000000
# 4 0.000000 0.000000 0.000000 0.025614 0.000000 0.000000
# 5 0.000000 0.000000 0.000000 0.000000 0.172234 0.000000
# 6 0.000000 0.000000 0.000000 0.000000 0.000000 0.024783
#
#
# Mechanical properties :
#
#
# Convention : Reuss Voigt Hill
#
# Bulk Modulus (GPa) = 69.47262 75.37765 72.42513
# Shear Modulus (GPa) = 16.79013 29.31370 23.05192
#
# Velocity S-wave (km/s) = 2.82880 3.73775 3.31458
# Velocity P-wave (km/s) = 6.61663 7.38595 7.01185
#
# Compressibility (1/GPa) = 0.01439416
#
# Stress axis : x y z
#
# Youngs Moduli (GPa) = 116.28347 68.15789 52.33523
#
# Poissons Ratio (x) = 0.17934 0.22241
# Poissons Ratio (y) = 0.30598 0.37218
# Poissons Ratio (z) = 0.49417 0.48470
#
# Static dielectric constant tensor:
#      x y z
#    x 1.997130 0.000000 0.000000 
#    y 0.000000 1.782640 0.000000 
#    z 0.000000 0.000000 1.759650 
# 
# From -- ./inp_files/17393.got.cif
#   From: 2010.05.17/outbox.cif.g08.bks.cpg/sg56_9_cif.got.tgz:17393.got - 2010.06.03 13:42:01.
