data_PCOD9433631
_publ_section_title
;
Structure prediction by ZEFSAII (Michael W. Deem and Ramdas Pophale) SiO2 
 PCOD9433631
Probable space group: P C C N
;
_chemical_formula_sum "Si O2"
_cell_formula_units_Z 32
_cell_length_a 11.209846
_cell_length_b 4.931824
_cell_length_c 20.769253
_cell_angle_alpha 90.000000
_cell_angle_beta 90.000000
_cell_angle_gamma 90.000000
_cell_volume 1148.227893
_symmetry_space_group_name_H-M "P C C N"
_symmetry_group_IT_number 56
_symmetry_cell_setting 'orthorhombic'
loop_
_space_group_symop_operation_xyz
x,y,z
1/2-x,1/2-y,z
1/2+x,-y,1/2-z
-x,1/2+y,1/2-z
-x,-y,-z
1/2+x,1/2+y,-z
1/2-x,y,1/2+z
x,1/2-y,1/2+z
loop_
_atom_site_type_symbol
_atom_site_label
_atom_site_fract_x
_atom_site_fract_y
_atom_site_fract_z
Si Si1 0.163643 0.946177 0.138151
Si Si2 0.449255 0.190865 0.942374
Si Si3 0.750000 0.750000 0.650575
Si Si4 0.079054 0.379365 0.243087
Si Si5 0.250000 0.250000 0.529269
O O1 0.250000 0.750000 0.179294
O O2 0.047004 0.848316 0.098836
O O3 0.124306 0.202182 0.182193
O O4 0.262156 0.017854 0.082177
O O5 0.348458 0.084247 0.891580
O O6 0.356356 0.361564 0.985507
O O7 0.500000 0.000000 0.000000
O O8 0.826896 0.573050 0.700096
O O9 0.016333 0.662205 0.227935
#
# Coordination Sequence:
#
# PCOD9433631 Si02
#       5
#     8   8   4   8   4
#     4  12  26  46  81 111 157 217 267 349 413 507
#     4  11  24  49  75 116 162 214 279 336 419 508
#     4  11  27  50  82 124 165 227 278 366 424 517
#     4  12  30  53  81 120 166 215 282 355 429 509
#     4  11  25  44  74 106 153 205 266 324 410 485
#
# _framework density 27.869033999999999
#
# number of rings (size 3 to 8) (size 9 to 14) (size 15 to 20)
#    0.000    0.500    5.000    1.500   10.500    0.000 
#    0.000    2.500    0.000    0.000    0.000    0.000 
#    0.000    0.000    0.000    0.000    0.000    0.000 
#
# Total GULP energy -178326.144924 kJ/mol
# GULP energy per Si atom -5572.692029 kJ/mol
# Density = 2.780560 g / cm^3
# Si number density = 27.869034 Si / 1000 Ang^3
#
#
#
# Elastic Constant Matrix: (Units=GPa)
#
#
# Indices 1 2 3 4 5 6 
#
# 1 151.4067 15.1797 87.0712 0.0000 0.0000 0.0000
# 2 15.1797 75.7478 25.2433 0.0000 0.0000 0.0000
# 3 87.0712 25.2433 194.5302 0.0000 0.0000 0.0000
# 4 0.0000 0.0000 0.0000 39.0795 0.0000 0.0000
# 5 0.0000 0.0000 0.0000 0.0000 86.9596 0.0000
# 6 0.0000 0.0000 0.0000 0.0000 0.0000 31.3313
#
#
#
# Elastic Compliance Matrix: (Units=1/GPa)
#
#
# Indices 1 2 3 4 5 6 
#
# 1 0.008911 -0.000477 -0.003926 0.000000 0.000000 0.000000
# 2 -0.000477 0.013824 -0.001580 0.000000 0.000000 0.000000
# 3 -0.003926 -0.001580 0.007103 0.000000 0.000000 0.000000
# 4 0.000000 0.000000 0.000000 0.025589 0.000000 0.000000
# 5 0.000000 0.000000 0.000000 0.000000 0.011500 0.000000
# 6 0.000000 0.000000 0.000000 0.000000 0.000000 0.031917
#
#
# Mechanical properties :
#
#
# Convention : Reuss Voigt Hill
#
# Bulk Modulus (GPa) = 55.96006 75.18589 65.57297
# Shear Modulus (GPa) = 42.82011 51.08676 46.95344
#
# Velocity S-wave (km/s) = 3.92404 4.28612 4.10907
# Velocity P-wave (km/s) = 6.37605 7.17853 6.78916
#
# Compressibility (1/GPa) = 0.01786989
#
# Stress axis : x y z
#
# Youngs Moduli (GPa) = 112.22608 72.33812 140.78325
#
# Poissons Ratio (x) = 0.03452 0.55278
# Poissons Ratio (y) = 0.05355 0.22248
# Poissons Ratio (z) = 0.44065 0.11432
#
# Static dielectric constant tensor:
#      x y z
#    x 2.389690 0.000000 0.000000 
#    y 0.000000 2.538760 0.000000 
#    z 0.000000 0.000000 2.213610 
# 
# From -- ./inp_files/18523.got.cif
#   From: 2010.05.17/outbox.cif.g08.bks.cpg/sg56_10_cif.got.tgz:18523.got - 2010.06.03 13:42:01.
