data_PCOD9433882
_publ_section_title
;
Structure prediction by ZEFSAII (Michael W. Deem and Ramdas Pophale) SiO2 
 PCOD9433882
Probable space group: P C C N
;
_chemical_formula_sum "Si O2"
_cell_formula_units_Z 24
_cell_length_a 19.469111
_cell_length_b 4.877855
_cell_length_c 9.640977
_cell_angle_alpha 90.000000
_cell_angle_beta 90.000000
_cell_angle_gamma 90.000000
_cell_volume 915.579487
_symmetry_space_group_name_H-M "P C C N"
_symmetry_group_IT_number 56
_symmetry_cell_setting 'orthorhombic'
loop_
_space_group_symop_operation_xyz
x,y,z
1/2-x,1/2-y,z
1/2+x,-y,1/2-z
-x,1/2+y,1/2-z
-x,-y,-z
1/2+x,1/2+y,-z
1/2-x,y,1/2+z
x,1/2-y,1/2+z
loop_
_atom_site_type_symbol
_atom_site_label
_atom_site_fract_x
_atom_site_fract_y
_atom_site_fract_z
Si Si1 0.366966 0.883587 0.960432
Si Si2 0.045073 0.577359 0.227756
Si Si3 0.250000 0.750000 0.634553
Si Si4 0.750000 0.750000 0.170247
O O1 0.405457 0.732717 0.835980
O O2 0.315165 0.120500 0.908937
O O3 0.419731 0.972058 0.079708
O O4 0.314237 0.678031 0.038453
O O5 0.017700 0.292143 0.288432
O O6 0.271434 0.497926 0.729277
#
# Coordination Sequence:
#
# PCOD9433882 Si02
#       4
#     8   8   4   4
#     4  12  28  55  85 123 171 216 291 342 434 494
#     4  12  30  52  85 123 172 229 279 343 414 517
#     4  12  28  50  82 124 164 216 270 366 416 498
#     4  12  28  50  86 122 166 218 272 366 420 492
#
# _framework density 26.212906
#
# number of rings (size 3 to 8) (size 9 to 14) (size 15 to 20)
#    0.000    0.000    3.333    4.000    4.667    8.000 
#    0.000    0.000    0.000    0.000    0.000    0.000 
#    0.000    0.000    0.000    0.000    0.000    0.000 
#
# Total GULP energy -134784.520558 kJ/mol
# GULP energy per Si atom -5616.021690 kJ/mol
# Density = 2.615324 g / cm^3
# Si number density = 26.212906 Si / 1000 Ang^3
#
#
#
# Elastic Constant Matrix: (Units=GPa)
#
#
# Indices 1 2 3 4 5 6 
#
# 1 122.2850 34.2404 74.1330 0.0000 0.0000 0.0000
# 2 34.2404 132.5028 53.8804 0.0000 0.0000 0.0000
# 3 74.1330 53.8804 182.8502 0.0000 0.0000 0.0000
# 4 0.0000 0.0000 0.0000 31.5138 0.0000 0.0000
# 5 0.0000 0.0000 0.0000 0.0000 62.8734 0.0000
# 6 0.0000 0.0000 0.0000 0.0000 0.0000 63.8618
#
#
#
# Elastic Compliance Matrix: (Units=1/GPa)
#
#
# Indices 1 2 3 4 5 6 
#
# 1 0.011000 -0.001169 -0.004115 0.000000 0.000000 0.000000
# 2 -0.001169 0.008699 -0.002089 0.000000 0.000000 0.000000
# 3 -0.004115 -0.002089 0.007753 0.000000 0.000000 0.000000
# 4 0.000000 0.000000 0.000000 0.031732 0.000000 0.000000
# 5 0.000000 0.000000 0.000000 0.000000 0.015905 0.000000
# 6 0.000000 0.000000 0.000000 0.000000 0.000000 0.015659
#
#
# Mechanical properties :
#
#
# Convention : Reuss Voigt Hill
#
# Bulk Modulus (GPa) = 78.71266 84.68283 81.69775
# Shear Modulus (GPa) = 45.56679 50.00873 47.78776
#
# Velocity S-wave (km/s) = 4.17386 4.37256 4.27437
# Velocity P-wave (km/s) = 7.30216 7.60712 7.45620
#
# Compressibility (1/GPa) = 0.01270444
#
# Stress axis : x y z
#
# Youngs Moduli (GPa) = 90.91168 114.95997 128.98254
#
# Poissons Ratio (x) = 0.13440 0.53078
# Poissons Ratio (y) = 0.10629 0.26948
# Poissons Ratio (z) = 0.37411 0.24018
#
# Static dielectric constant tensor:
#      x y z
#    x 2.116720 0.000000 0.000000 
#    y 0.000000 2.009140 0.000000 
#    z 0.000000 0.000000 2.044770 
# 
# From -- ./inp_files/8513.got.cif
#   From: 2010.05.17/outbox.cif.g08.bks.cpg/sg56_5_cif.got.tgz:8513.got - 2010.06.03 13:42:01.
