data_PCOD9433294
_publ_section_title
;
Structure prediction by ZEFSAII (Michael W. Deem and Ramdas Pophale) SiO2 
 PCOD9433294
Probable space group: P C C N
;
_chemical_formula_sum "Si O2"
_cell_formula_units_Z 48
_cell_length_a 11.691232
_cell_length_b 15.620181
_cell_length_c 11.727347
_cell_angle_alpha 90.000000
_cell_angle_beta 90.000000
_cell_angle_gamma 90.000000
_cell_volume 2141.638258
_symmetry_space_group_name_H-M "P C C N"
_symmetry_group_IT_number 56
_symmetry_cell_setting 'orthorhombic'
loop_
_space_group_symop_operation_xyz
x,y,z
1/2-x,1/2-y,z
1/2+x,-y,1/2-z
-x,1/2+y,1/2-z
-x,-y,-z
1/2+x,1/2+y,-z
1/2-x,y,1/2+z
x,1/2-y,1/2+z
loop_
_atom_site_type_symbol
_atom_site_label
_atom_site_fract_x
_atom_site_fract_y
_atom_site_fract_z
Si Si1 0.962574 0.339948 0.791014
Si Si2 0.601546 0.944932 0.550901
Si Si3 0.396674 0.169648 0.239216
Si Si4 0.751787 0.426129 0.191426
Si Si5 0.327158 0.086683 0.686686
Si Si6 0.528509 0.403370 0.540393
O O1 0.840396 0.356213 0.731970
O O2 0.032797 0.256800 0.751557
O O3 0.050484 0.413753 0.749686
O O4 0.951443 0.348151 0.926689
O O5 0.560555 0.887242 0.654953
O O6 0.653092 0.892464 0.445286
O O7 0.500000 0.000000 0.500000
O O8 0.692912 0.010833 0.600444
O O9 0.259263 0.154467 0.244758
O O10 0.424269 0.130551 0.115880
O O11 0.777936 0.490930 0.296291
O O12 0.865147 0.395683 0.127648
O O13 0.500000 0.500000 0.500000
#
# Coordination Sequence:
#
# PCOD9433294 Si02
#       6
#     8   8   8   8   8   8
#     4  12  26  46  69 109 150 186 242 313 372 437
#     4  11  21  42  73 101 139 186 248 302 352 439
#     4  11  28  43  70 112 145 194 243 307 382 431
#     4  11  23  43  73 108 136 195 249 295 368 446
#     4  11  23  44  73 105 147 188 250 304 371 442
#     4  12  24  48  75 103 149 193 252 302 369 457
#
# _framework density 22.412747
#
# number of rings (size 3 to 8) (size 9 to 14) (size 15 to 20)
#    0.000    0.667    3.333    5.500    4.667    0.667 
#    0.000    1.667    0.000    0.000    0.000    0.000 
#    0.000    0.000    0.000    0.000    0.000    0.000 
#
# Total GULP energy -268276.435580 kJ/mol
# GULP energy per Si atom -5589.092408 kJ/mol
# Density = 2.236173 g / cm^3
# Si number density = 22.412747 Si / 1000 Ang^3
#
#
#
# Elastic Constant Matrix: (Units=GPa)
#
#
# Indices 1 2 3 4 5 6 
#
# 1 106.7084 19.5509 19.8122 0.0000 0.0000 0.0000
# 2 19.5509 63.4019 22.5559 0.0000 0.0000 0.0000
# 3 19.8122 22.5559 123.7521 0.0000 0.0000 0.0000
# 4 0.0000 0.0000 0.0000 24.4244 0.0000 0.0000
# 5 0.0000 0.0000 0.0000 0.0000 41.0874 0.0000
# 6 0.0000 0.0000 0.0000 0.0000 0.0000 30.3243
#
#
#
# Elastic Compliance Matrix: (Units=1/GPa)
#
#
# Indices 1 2 3 4 5 6 
#
# 1 0.010075 -0.002709 -0.001119 0.000000 0.000000 0.000000
# 2 -0.002709 0.017594 -0.002773 0.000000 0.000000 0.000000
# 3 -0.001119 -0.002773 0.008765 0.000000 0.000000 0.000000
# 4 0.000000 0.000000 0.000000 0.040943 0.000000 0.000000
# 5 0.000000 0.000000 0.000000 0.000000 0.024338 0.000000
# 6 0.000000 0.000000 0.000000 0.000000 0.000000 0.032977
#
#
# Mechanical properties :
#
#
# Convention : Reuss Voigt Hill
#
# Bulk Modulus (GPa) = 43.04299 46.41115 44.72707
# Shear Modulus (GPa) = 32.12550 34.63011 33.37781
#
# Velocity S-wave (km/s) = 3.79008 3.93505 3.86325
# Velocity P-wave (km/s) = 6.19672 6.43417 6.31656
#
# Compressibility (1/GPa) = 0.02323258
#
# Stress axis : x y z
#
# Youngs Moduli (GPa) = 99.25131 56.83668 114.08576
#
# Poissons Ratio (x) = 0.15395 0.12770
# Poissons Ratio (y) = 0.26884 0.31638
# Poissons Ratio (z) = 0.11109 0.15762
#
# Static dielectric constant tensor:
#      x y z
#    x 1.982510 0.000000 0.000000 
#    y 0.000000 1.923740 0.000000 
#    z 0.000000 0.000000 1.837630 
# 
# From -- ./inp_files/7149.got.cif
#   From: 2010.05.17/outbox.cif.g08.bks.cpg/sg56_4_cif.got.tgz:7149.got - 2010.06.03 13:42:01.
