data_PCOD9433028
_publ_section_title
;
Structure prediction by ZEFSAII (Michael W. Deem and Ramdas Pophale) SiO2 
 PCOD9433028
Probable space group: P C C N
;
_chemical_formula_sum "Si O2"
_cell_formula_units_Z 32
_cell_length_a 4.911060
_cell_length_b 27.188606
_cell_length_c 9.706744
_cell_angle_alpha 90.000000
_cell_angle_beta 90.000000
_cell_angle_gamma 90.000000
_cell_volume 1296.091783
_symmetry_space_group_name_H-M "P C C N"
_symmetry_group_IT_number 56
_symmetry_cell_setting 'orthorhombic'
loop_
_space_group_symop_operation_xyz
x,y,z
1/2-x,1/2-y,z
1/2+x,-y,1/2-z
-x,1/2+y,1/2-z
-x,-y,-z
1/2+x,1/2+y,-z
1/2-x,y,1/2+z
x,1/2-y,1/2+z
loop_
_atom_site_type_symbol
_atom_site_label
_atom_site_fract_x
_atom_site_fract_y
_atom_site_fract_z
Si Si1 0.448441 0.517726 0.158264
Si Si2 0.205073 0.134569 0.614365
Si Si3 0.428655 0.890936 0.136701
Si Si4 0.270364 0.692003 0.963278
O O1 0.214572 0.490202 0.248124
O O2 0.324401 0.572975 0.151164
O O3 0.500000 0.500000 0.000000
O O4 0.423872 0.172722 0.551369
O O5 0.099487 0.095657 0.501285
O O6 0.935153 0.166214 0.646886
O O7 0.848879 0.165026 0.402006
O O8 0.625197 0.889483 0.265267
O O9 0.250000 0.750000 0.962369
#
# Coordination Sequence:
#
# PCOD9433028 Si02
#       4
#     8   8   8   8
#     4  12  31  56  88 121 165 217 281 347 426 501
#     4  10  25  46  77 111 162 208 268 332 410 482
#     4  10  28  49  81 114 165 212 269 342 413 482
#     4  10  24  46  76 117 160 214 271 331 405 498
#
# _framework density 24.689609000000001
#
# number of rings (size 3 to 8) (size 9 to 14) (size 15 to 20)
#    1.500    0.000    0.000    1.500   10.500    3.000 
#    4.500    0.000    0.000    0.000    0.000    0.000 
#    0.000    0.000    0.000    0.000    0.000    0.000 
#
# Total GULP energy -178851.742969 kJ/mol
# GULP energy per Si atom -5589.116968 kJ/mol
# Density = 2.463341 g / cm^3
# Si number density = 24.689609 Si / 1000 Ang^3
#
#
#
# Elastic Constant Matrix: (Units=GPa)
#
#
# Indices 1 2 3 4 5 6 
#
# 1 154.7995 38.0115 63.8305 0.0000 0.0000 0.0000
# 2 38.0115 125.6996 19.1024 0.0000 0.0000 0.0000
# 3 63.8305 19.1024 150.4950 0.0000 0.0000 0.0000
# 4 0.0000 0.0000 0.0000 18.7124 0.0000 0.0000
# 5 0.0000 0.0000 0.0000 0.0000 61.1053 0.0000
# 6 0.0000 0.0000 0.0000 0.0000 0.0000 47.3848
#
#
#
# Elastic Compliance Matrix: (Units=1/GPa)
#
#
# Indices 1 2 3 4 5 6 
#
# 1 0.008301 -0.002014 -0.003265 0.000000 0.000000 0.000000
# 2 -0.002014 0.008601 -0.000237 0.000000 0.000000 0.000000
# 3 -0.003265 -0.000237 0.008060 0.000000 0.000000 0.000000
# 4 0.000000 0.000000 0.000000 0.053441 0.000000 0.000000
# 5 0.000000 0.000000 0.000000 0.000000 0.016365 0.000000
# 6 0.000000 0.000000 0.000000 0.000000 0.000000 0.021104
#
#
# Mechanical properties :
#
#
# Convention : Reuss Voigt Hill
#
# Bulk Modulus (GPa) = 71.79723 74.76479 73.28101
# Shear Modulus (GPa) = 38.00939 46.11047 42.05993
#
# Velocity S-wave (km/s) = 3.92789 4.32627 4.13188
# Velocity P-wave (km/s) = 7.05083 7.43661 7.24628
#
# Compressibility (1/GPa) = 0.01392811
#
# Stress axis : x y z
#
# Youngs Moduli (GPa) = 120.46979 116.27108 124.07392
#
# Poissons Ratio (x) = 0.23417 0.40511
# Poissons Ratio (y) = 0.24262 0.02946
# Poissons Ratio (z) = 0.39334 0.02761
#
# Static dielectric constant tensor:
#      x y z
#    x 1.986030 0.000000 0.000000 
#    y 0.000000 1.958440 0.000000 
#    z 0.000000 0.000000 2.056690 
# 
# From -- ./inp_files/1555.got.cif
#   From: 2010.05.17/outbox.cif.g08.bks.cpg/sg56_1_cif.got.tgz:1555.got - 2010.06.03 13:42:01.
