data_PCOD9433574
_publ_section_title
;
Structure prediction by ZEFSAII (Michael W. Deem and Ramdas Pophale) SiO2 
 PCOD9433574
Probable space group: P C C N
;
_chemical_formula_sum "Si O2"
_cell_formula_units_Z 48
_cell_length_a 9.295706
_cell_length_b 18.091686
_cell_length_c 13.032890
_cell_angle_alpha 90.000000
_cell_angle_beta 90.000000
_cell_angle_gamma 90.000000
_cell_volume 2191.806199
_symmetry_space_group_name_H-M "P C C N"
_symmetry_group_IT_number 56
_symmetry_cell_setting 'orthorhombic'
loop_
_space_group_symop_operation_xyz
x,y,z
1/2-x,1/2-y,z
1/2+x,-y,1/2-z
-x,1/2+y,1/2-z
-x,-y,-z
1/2+x,1/2+y,-z
1/2-x,y,1/2+z
x,1/2-y,1/2+z
loop_
_atom_site_type_symbol
_atom_site_label
_atom_site_fract_x
_atom_site_fract_y
_atom_site_fract_z
Si Si1 0.597708 0.010041 0.133856
Si Si2 0.712809 0.023209 0.827902
Si Si3 0.982124 0.168298 0.674527
Si Si4 0.420399 0.863456 0.587759
Si Si5 0.203634 0.411994 0.512639
Si Si6 0.250000 0.250000 0.582840
Si Si7 0.750000 0.250000 0.548258
O O1 0.717893 0.028927 0.216943
O O2 0.518334 0.088967 0.115409
O O3 0.457810 0.967491 0.175187
O O4 0.681998 0.960932 0.051506
O O5 0.779520 0.086499 0.898547
O O6 0.778586 0.947085 0.874586
O O7 0.973711 0.156008 0.797032
O O8 0.838502 0.200084 0.626053
O O9 0.112351 0.224251 0.649460
O O10 0.543369 0.913040 0.534264
O O11 0.365498 0.793836 0.522016
O O12 0.227957 0.323800 0.516030
#
# Coordination Sequence:
#
# PCOD9433574 Si02
#       7
#     8   8   8   8   8   4   4
#     4  11  24  45  73 101 140 186 243 297 362 428
#     4  11  24  44  70 102 137 183 236 301 353 425
#     4  11  25  48  67 101 143 182 232 294 352 424
#     4  11  26  44  70 105 139 189 242 284 360 431
#     4  12  25  45  70 105 136 187 239 296 359 437
#     4  12  26  46  70  98 142 182 232 298 358 418
#     4  12  24  46  68 102 144 188 224 288 360 432
#
# _framework density 21.899744999999999
#
# number of rings (size 3 to 8) (size 9 to 14) (size 15 to 20)
#    0.000    0.667    3.333    4.500    2.333    3.333 
#    3.000    0.000    0.000    0.000    0.000    0.000 
#    0.000    0.000    0.000    0.000    0.000    0.000 
#
# Total GULP energy -267744.581361 kJ/mol
# GULP energy per Si atom -5578.012112 kJ/mol
# Density = 2.184990 g / cm^3
# Si number density = 21.899745 Si / 1000 Ang^3
#
#
#
# Elastic Constant Matrix: (Units=GPa)
#
#
# Indices 1 2 3 4 5 6 
#
# 1 110.2670 7.7606 18.7465 0.0000 0.0000 0.0000
# 2 7.7606 94.2721 21.1214 0.0000 0.0000 0.0000
# 3 18.7465 21.1214 30.8000 0.0000 0.0000 0.0000
# 4 0.0000 0.0000 0.0000 16.9685 0.0000 0.0000
# 5 0.0000 0.0000 0.0000 0.0000 35.0638 0.0000
# 6 0.0000 0.0000 0.0000 0.0000 0.0000 38.5097
#
#
#
# Elastic Compliance Matrix: (Units=1/GPa)
#
#
# Indices 1 2 3 4 5 6 
#
# 1 0.010149 0.000648 -0.006622 0.000000 0.000000 0.000000
# 2 0.000648 0.012575 -0.009018 0.000000 0.000000 0.000000
# 3 -0.006622 -0.009018 0.042682 0.000000 0.000000 0.000000
# 4 0.000000 0.000000 0.000000 0.058933 0.000000 0.000000
# 5 0.000000 0.000000 0.000000 0.000000 0.028519 0.000000
# 6 0.000000 0.000000 0.000000 0.000000 0.000000 0.025967
#
#
# Mechanical properties :
#
#
# Convention : Reuss Voigt Hill
#
# Bulk Modulus (GPa) = 28.23027 36.73290 32.48159
# Shear Modulus (GPa) = 22.66392 30.62244 26.64318
#
# Velocity S-wave (km/s) = 3.22047 3.74344 3.49176
# Velocity P-wave (km/s) = 5.17177 5.95769 5.57859
#
# Compressibility (1/GPa) = 0.03542297
#
# Stress axis : x y z
#
# Youngs Moduli (GPa) = 98.53147 79.52534 23.42923
#
# Poissons Ratio (x) = -0.05154 0.15514
# Poissons Ratio (y) = -0.06386 0.21128
# Poissons Ratio (z) = 0.65244 0.71713
#
# Static dielectric constant tensor:
#      x y z
#    x 1.876540 0.000000 0.000000 
#    y 0.000000 1.908610 0.000000 
#    z 0.000000 0.000000 1.829020 
# 
# From -- ./inp_files/10721.got.cif
#   From: 2010.05.17/outbox.cif.g08.bks.cpg/sg56_6_cif.got.tgz:10721.got - 2010.06.03 13:42:01.
