data_PCOD9433010
_publ_section_title
;
Structure prediction by ZEFSAII (Michael W. Deem and Ramdas Pophale) SiO2 
 PCOD9433010
Probable space group: P C C N
;
_chemical_formula_sum "Si O2"
_cell_formula_units_Z 44
_cell_length_a 16.104529
_cell_length_b 13.648159
_cell_length_c 7.140714
_cell_angle_alpha 90.000000
_cell_angle_beta 90.000000
_cell_angle_gamma 90.000000
_cell_volume 1569.508746
_symmetry_space_group_name_H-M "P C C N"
_symmetry_group_IT_number 56
_symmetry_cell_setting 'orthorhombic'
loop_
_space_group_symop_operation_xyz
x,y,z
1/2-x,1/2-y,z
1/2+x,-y,1/2-z
-x,1/2+y,1/2-z
-x,-y,-z
1/2+x,1/2+y,-z
1/2-x,y,1/2+z
x,1/2-y,1/2+z
loop_
_atom_site_type_symbol
_atom_site_label
_atom_site_fract_x
_atom_site_fract_y
_atom_site_fract_z
Si Si1 0.638864 0.921742 0.806419
Si Si2 0.000000 0.000000 0.000000
Si Si3 0.152308 0.869226 0.536175
Si Si4 0.529548 0.152703 0.293614
Si Si5 0.750000 0.250000 0.219240
Si Si6 0.750000 0.750000 0.262190
Si Si7 0.082646 0.155255 0.284512
O O1 0.614468 0.874952 0.008670
O O2 0.662554 0.030638 0.857421
O O3 0.553671 0.922573 0.685587
O O4 0.706831 0.854247 0.705127
O O5 0.047565 0.064190 0.174711
O O6 0.069727 0.901239 0.032259
O O7 0.228263 0.845509 0.397818
O O8 0.165491 0.775338 0.670201
O O9 0.072387 0.866592 0.404098
O O10 0.484233 0.256668 0.301500
O O11 0.662307 0.798388 0.322760
#
# Coordination Sequence:
#
# PCOD9433010 Si02
#       7
#     8   4   8   8   4   4   8
#     4  11  24  45  72 107 140 188 234 297 370 433
#     4  12  26  44  72 110 144 194 248 294 378 448
#     4  11  25  48  71 100 139 191 237 303 348 447
#     4  11  25  45  72 105 145 186 242 298 363 439
#     4  10  28  48  68 100 138 190 248 286 368 420
#     4  10  24  46  72 108 154 182 246 314 368 450
#     4  11  25  45  73 112 144 196 241 306 377 441
#
# _framework density 28.034251999999999
#
# number of rings (size 3 to 8) (size 9 to 14) (size 15 to 20)
#    0.000    1.091    1.818    3.273    7.636    1.455 
#    6.545    0.000    0.000    0.000    0.000    0.000 
#    0.000    0.000    0.000    0.000    0.000    0.000 
#
# Total GULP energy -245121.740186 kJ/mol
# GULP energy per Si atom -5570.948641 kJ/mol
# Density = 2.797044 g / cm^3
# Si number density = 28.034252 Si / 1000 Ang^3
#
#
#
# Elastic Constant Matrix: (Units=GPa)
#
#
# Indices 1 2 3 4 5 6 
#
# 1 136.0471 54.9211 29.5149 0.0000 0.0000 0.0000
# 2 54.9211 194.3963 59.9462 0.0000 0.0000 0.0000
# 3 29.5149 59.9462 143.9045 0.0000 0.0000 0.0000
# 4 0.0000 0.0000 0.0000 2.6180 0.0000 0.0000
# 5 0.0000 0.0000 0.0000 0.0000 6.0616 0.0000
# 6 0.0000 0.0000 0.0000 0.0000 0.0000 63.6055
#
#
#
# Elastic Compliance Matrix: (Units=1/GPa)
#
#
# Indices 1 2 3 4 5 6 
#
# 1 0.008384 -0.002109 -0.000841 0.000000 0.000000 0.000000
# 2 -0.002109 0.006433 -0.002247 0.000000 0.000000 0.000000
# 3 -0.000841 -0.002247 0.008058 0.000000 0.000000 0.000000
# 4 0.000000 0.000000 0.000000 0.381964 0.000000 0.000000
# 5 0.000000 0.000000 0.000000 0.000000 0.164974 0.000000
# 6 0.000000 0.000000 0.000000 0.000000 0.000000 0.015722
#
#
# Mechanical properties :
#
#
# Convention : Reuss Voigt Hill
#
# Bulk Modulus (GPa) = 80.12809 84.79025 82.45917
# Shear Modulus (GPa) = 8.33208 36.45474 22.39341
#
# Velocity S-wave (km/s) = 1.72585 3.60997 2.82935
# Velocity P-wave (km/s) = 5.71101 6.90556 6.33650
#
# Compressibility (1/GPa) = 0.01248002
#
# Stress axis : x y z
#
# Youngs Moduli (GPa) = 119.26919 155.44712 124.10609
#
# Poissons Ratio (x) = 0.32791 0.10436
# Poissons Ratio (y) = 0.25159 0.27889
# Poissons Ratio (z) = 0.10029 0.34931
#
# Static dielectric constant tensor:
#      x y z
#    x 2.400850 0.000000 0.000000 
#    y 0.000000 2.357340 0.000000 
#    z 0.000000 0.000000 2.328050 
# 
# From -- ./inp_files/3349.got.cif
#   From: 2010.05.17/outbox.cif.g08.bks.cpg/sg56_2_cif.got.tgz:3349.got - 2010.06.03 13:42:01.
