data_PCOD9433225
_publ_section_title
;
Structure prediction by ZEFSAII (Michael W. Deem and Ramdas Pophale) SiO2 
 PCOD9433225
Probable space group: P C C N
;
_chemical_formula_sum "Si O2"
_cell_formula_units_Z 32
_cell_length_a 12.548909
_cell_length_b 10.340774
_cell_length_c 9.579966
_cell_angle_alpha 90.000000
_cell_angle_beta 90.000000
_cell_angle_gamma 90.000000
_cell_volume 1243.148426
_symmetry_space_group_name_H-M "P C C N"
_symmetry_group_IT_number 56
_symmetry_cell_setting 'orthorhombic'
loop_
_space_group_symop_operation_xyz
x,y,z
1/2-x,1/2-y,z
1/2+x,-y,1/2-z
-x,1/2+y,1/2-z
-x,-y,-z
1/2+x,1/2+y,-z
1/2-x,y,1/2+z
x,1/2-y,1/2+z
loop_
_atom_site_type_symbol
_atom_site_label
_atom_site_fract_x
_atom_site_fract_y
_atom_site_fract_z
Si Si1 0.220938 0.044477 0.469760
Si Si2 0.086690 0.700130 0.866476
Si Si3 0.962050 0.796443 0.639834
Si Si4 0.369751 0.531849 0.757860
O O1 0.158156 0.921577 0.403401
O O2 0.205978 0.023725 0.635178
O O3 0.337997 0.039176 0.401972
O O4 0.152735 0.166536 0.417595
O O5 0.150953 0.816414 0.795777
O O6 0.982221 0.695595 0.764273
O O7 0.036722 0.745432 0.012541
O O8 0.013539 0.933511 0.695047
#
# Coordination Sequence:
#
# PCOD9433225 Si02
#       4
#     8   8   8   8
#     4  11  20  38  60  87 125 152 194 252 304 341
#     4   9  19  34  59  87 114 153 192 245 293 348
#     4   9  21  38  60  85 121 156 195 246 297 356
#     4   9  21  32  60  88 114 150 194 246 291 349
#
# _framework density 25.741094
#
# number of rings (size 3 to 8) (size 9 to 14) (size 15 to 20)
#    1.500    1.000    0.000    3.750    3.500    2.000 
#    0.000    7.500    0.000   12.000    0.000    0.000 
#    0.000    0.000    0.000    0.000    0.000    0.000 
#
# Total GULP energy -178219.898162 kJ/mol
# GULP energy per Si atom -5569.371818 kJ/mol
# Density = 2.568251 g / cm^3
# Si number density = 25.741094 Si / 1000 Ang^3
#
#
#
# Elastic Constant Matrix: (Units=GPa)
#
#
# Indices 1 2 3 4 5 6 
#
# 1 57.8075 -5.2828 6.0913 0.0000 0.0000 0.0000
# 2 -5.2828 61.2433 24.7568 0.0000 0.0000 0.0000
# 3 6.0913 24.7568 97.8896 0.0000 0.0000 0.0000
# 4 0.0000 0.0000 0.0000 24.2448 0.0000 0.0000
# 5 0.0000 0.0000 0.0000 0.0000 33.8475 0.0000
# 6 0.0000 0.0000 0.0000 0.0000 0.0000 19.1159
#
#
#
# Elastic Compliance Matrix: (Units=1/GPa)
#
#
# Indices 1 2 3 4 5 6 
#
# 1 0.017674 0.002193 -0.001654 0.000000 0.000000 0.000000
# 2 0.002193 0.018460 -0.004805 0.000000 0.000000 0.000000
# 3 -0.001654 -0.004805 0.011534 0.000000 0.000000 0.000000
# 4 0.000000 0.000000 0.000000 0.041246 0.000000 0.000000
# 5 0.000000 0.000000 0.000000 0.000000 0.029544 0.000000
# 6 0.000000 0.000000 0.000000 0.000000 0.000000 0.052313
#
#
# Mechanical properties :
#
#
# Convention : Reuss Voigt Hill
#
# Bulk Modulus (GPa) = 25.55274 29.78567 27.66921
# Shear Modulus (GPa) = 25.99462 28.19997 27.09729
#
# Velocity S-wave (km/s) = 3.18126 3.31346 3.24803
# Velocity P-wave (km/s) = 4.84172 5.12202 4.98384
#
# Compressibility (1/GPa) = 0.03913474
#
# Stress axis : x y z
#
# Youngs Moduli (GPa) = 56.58167 54.17153 86.70193
#
# Poissons Ratio (x) = -0.11881 0.14344
# Poissons Ratio (y) = -0.12410 0.41661
# Poissons Ratio (z) = 0.09361 0.26030
#
# Static dielectric constant tensor:
#      x y z
#    x 2.184600 0.000000 0.000000 
#    y 0.000000 2.171740 0.000000 
#    z 0.000000 0.000000 2.006390 
# 
# From -- ./inp_files/3063.got.cif
#   From: 2010.05.17/outbox.cif.g08.bks.cpg/sg56_2_cif.got.tgz:3063.got - 2010.06.03 13:42:01.
