data_PCOD9433320
_publ_section_title
;
Structure prediction by ZEFSAII (Michael W. Deem and Ramdas Pophale) SiO2 
 PCOD9433320
Probable space group: P C C N
;
_chemical_formula_sum "Si O2"
_cell_formula_units_Z 40
_cell_length_a 18.229207
_cell_length_b 22.775216
_cell_length_c 5.383479
_cell_angle_alpha 90.000000
_cell_angle_beta 90.000000
_cell_angle_gamma 90.000000
_cell_volume 2235.081194
_symmetry_space_group_name_H-M "P C C N"
_symmetry_group_IT_number 56
_symmetry_cell_setting 'orthorhombic'
loop_
_space_group_symop_operation_xyz
x,y,z
1/2-x,1/2-y,z
1/2+x,-y,1/2-z
-x,1/2+y,1/2-z
-x,-y,-z
1/2+x,1/2+y,-z
1/2-x,y,1/2+z
x,1/2-y,1/2+z
loop_
_atom_site_type_symbol
_atom_site_label
_atom_site_fract_x
_atom_site_fract_y
_atom_site_fract_z
Si Si1 0.706354 0.172245 0.174017
Si Si2 0.986828 0.417932 0.311450
Si Si3 0.117405 0.994940 0.898309
Si Si4 0.346816 0.959157 0.896469
Si Si5 0.540946 0.215202 0.225978
O O1 0.758620 0.185532 0.406616
O O2 0.691079 0.102220 0.166632
O O3 0.628641 0.203303 0.216780
O O4 0.933922 0.437469 0.541473
O O5 0.935103 0.444557 0.094782
O O6 0.993364 0.348979 0.273345
O O7 0.062392 0.452074 0.341619
O O8 0.169587 0.982790 0.667679
O O9 0.158452 0.001894 0.160894
O O10 0.522337 0.256519 0.459900
#
# Coordination Sequence:
#
# PCOD9433320 Si02
#       5
#     8   8   8   8   8
#     4  11  22  34  48  60  85 123 167 205 229 254
#     4   8  19  28  49  65  87 105 146 185 240 276
#     4   9  16  28  50  68  83 103 135 198 230 293
#     4   9  17  28  45  67  84 103 142 190 236 271
#     4  11  24  34  46  62  90 124 162 203 225 260
#
# _framework density 17.896442
#
# number of rings (size 3 to 8) (size 9 to 14) (size 15 to 20)
#    1.200    1.200    0.000    3.000    5.600    2.400 
#    0.000    0.000    0.000    0.000    0.000    0.000 
#    0.000    0.000    0.000    0.000    0.000   70.000 
#
# Total GULP energy -222822.770179 kJ/mol
# GULP energy per Si atom -5570.569254 kJ/mol
# Density = 1.785571 g / cm^3
# Si number density = 17.896442 Si / 1000 Ang^3
#
#
#
# Elastic Constant Matrix: (Units=GPa)
#
#
# Indices 1 2 3 4 5 6 
#
# 1 35.9480 23.1694 11.6453 0.0000 0.0000 0.0000
# 2 23.1694 57.2625 36.6412 0.0000 0.0000 0.0000
# 3 11.6453 36.6412 139.4990 0.0000 0.0000 0.0000
# 4 0.0000 0.0000 0.0000 -47.3942 0.0000 0.0000
# 5 0.0000 0.0000 0.0000 0.0000 1.6883 0.0000
# 6 0.0000 0.0000 0.0000 0.0000 0.0000 27.4984
#
#
#
# Elastic Compliance Matrix: (Units=1/GPa)
#
#
# Indices 1 2 3 4 5 6 
#
# 1 0.037756 -0.015939 0.001035 0.000000 0.000000 0.000000
# 2 -0.015939 0.027720 -0.005950 0.000000 0.000000 0.000000
# 3 0.001035 -0.005950 0.008645 0.000000 0.000000 0.000000
# 4 0.000000 0.000000 0.000000 -0.021100 0.000000 0.000000
# 5 0.000000 0.000000 0.000000 0.000000 0.592309 0.000000
# 6 0.000000 0.000000 0.000000 0.000000 0.000000 0.036366
#
#
# Mechanical properties :
#
#
# Convention : Reuss Voigt Hill
#
# Bulk Modulus (GPa) = 30.85285 41.73569 36.29427
# Shear Modulus (GPa) = 6.81006 7.10876 6.95941
#
# Velocity S-wave (km/s) = 1.95282 1.99519 1.97412
# Velocity P-wave (km/s) = 4.72882 5.35528 5.05177
#
# Compressibility (1/GPa) = 0.03241191
#
# Stress axis : x y z
#
# Youngs Moduli (GPa) = 26.48616 36.07497 115.67237
#
# Poissons Ratio (x) = 0.57498 -0.11968
# Poissons Ratio (y) = 0.42215 0.68831
# Poissons Ratio (z) = -0.02740 0.21466
#
# Static dielectric constant tensor:
#      x y z
#    x 1.664450 0.000000 0.000000 
#    y 0.000000 1.604430 0.000000 
#    z 0.000000 0.000000 1.683570 
# 
# From -- ./inp_files/850.got.cif
#   From: 2010.05.17/outbox.cif.g08.bks.cpg/sg56_1_cif.got.tgz:850.got - 2010.06.03 13:42:01.
