data_PCOD9433009
_publ_section_title
;
Structure prediction by ZEFSAII (Michael W. Deem and Ramdas Pophale) SiO2 
 PCOD9433009
Probable space group: P C C N
;
_chemical_formula_sum "Si O2"
_cell_formula_units_Z 56
_cell_length_a 18.319710
_cell_length_b 9.103633
_cell_length_c 13.668045
_cell_angle_alpha 90.000000
_cell_angle_beta 90.000000
_cell_angle_gamma 90.000000
_cell_volume 2279.500732
_symmetry_space_group_name_H-M "P C C N"
_symmetry_group_IT_number 56
_symmetry_cell_setting 'orthorhombic'
loop_
_space_group_symop_operation_xyz
x,y,z
1/2-x,1/2-y,z
1/2+x,-y,1/2-z
-x,1/2+y,1/2-z
-x,-y,-z
1/2+x,1/2+y,-z
1/2-x,y,1/2+z
x,1/2-y,1/2+z
loop_
_atom_site_type_symbol
_atom_site_label
_atom_site_fract_x
_atom_site_fract_y
_atom_site_fract_z
Si Si1 0.060739 0.676559 0.305379
Si Si2 0.250000 0.250000 0.500318
Si Si3 0.750000 0.250000 0.476118
Si Si4 0.369414 0.616474 0.146131
Si Si5 0.407563 0.127892 0.774566
Si Si6 0.521383 0.276322 0.489309
Si Si7 0.857124 0.003283 0.518537
Si Si8 0.618171 0.878408 0.611368
O O1 0.111370 0.776522 0.236973
O O2 0.023536 0.765977 0.393759
O O3 0.099378 0.543745 0.361754
O O4 0.994675 0.618653 0.237521
O O5 0.310174 0.374396 0.536033
O O6 0.304053 0.145440 0.437689
O O7 0.793793 0.354014 0.403405
O O8 0.806439 0.147409 0.531966
O O9 0.375060 0.452159 0.181983
O O10 0.428921 0.654407 0.064588
O O11 0.377437 0.051771 0.872873
O O12 0.384317 0.294750 0.785093
O O13 0.568545 0.428437 0.469594
O O14 0.442970 0.215264 0.450749
#
# Coordination Sequence:
#
# PCOD9433009 Si02
#       8
#     8   4   4   8   8   8   8   8
#     4  12  23  44  72 108 141 193 248 321 369 440
#     4  10  26  42  64 108 146 194 228 312 396 452
#     4  10  26  46  72 104 144 194 262 300 382 474
#     4  11  24  45  69 107 140 190 254 301 376 460
#     4  11  22  43  69 105 143 186 246 313 373 447
#     4  11  23  44  76 108 134 197 258 309 361 459
#     4  10  24  46  72 105 145 194 248 309 381 451
#     4  11  25  43  70 106 153 186 250 306 385 453
#
# _framework density 24.566782
#
# number of rings (size 3 to 8) (size 9 to 14) (size 15 to 20)
#    0.000    1.143    4.286    0.429    4.000    5.143 
#    0.000    2.857    0.000    3.429    0.000    0.000 
#    0.000    0.000    0.000    0.000    0.000    0.000 
#
# Total GULP energy -312529.274980 kJ/mol
# GULP energy per Si atom -5580.879910 kJ/mol
# Density = 2.451087 g / cm^3
# Si number density = 24.566782 Si / 1000 Ang^3
#
#
#
# Elastic Constant Matrix: (Units=GPa)
#
#
# Indices 1 2 3 4 5 6 
#
# 1 109.9129 30.6491 30.4392 0.0000 0.0000 0.0000
# 2 30.6491 104.4034 29.7988 0.0000 0.0000 0.0000
# 3 30.4392 29.7988 84.4128 0.0000 0.0000 0.0000
# 4 0.0000 0.0000 0.0000 28.7319 0.0000 0.0000
# 5 0.0000 0.0000 0.0000 0.0000 -33.7889 0.0000
# 6 0.0000 0.0000 0.0000 0.0000 0.0000 31.1930
#
#
#
# Elastic Compliance Matrix: (Units=1/GPa)
#
#
# Indices 1 2 3 4 5 6 
#
# 1 0.010558 -0.002238 -0.003017 0.000000 0.000000 0.000000
# 2 -0.002238 0.011126 -0.003120 0.000000 0.000000 0.000000
# 3 -0.003017 -0.003120 0.014036 0.000000 0.000000 0.000000
# 4 0.000000 0.000000 0.000000 0.034804 0.000000 0.000000
# 5 0.000000 0.000000 0.000000 0.000000 -0.029596 0.000000
# 6 0.000000 0.000000 0.000000 0.000000 0.000000 0.032058
#
#
# Mechanical properties :
#
#
# Convention : Reuss Voigt Hill
#
# Bulk Modulus (GPa) = 52.71960 53.38925 53.05443
# Shear Modulus (GPa) = 52.05001 19.08334 35.56668
#
# Velocity S-wave (km/s) = 4.60794 2.79013 3.80907
# Velocity P-wave (km/s) = 7.05813 5.67091 6.40220
#
# Compressibility (1/GPa) = 0.01896828
#
# Stress axis : x y z
#
# Youngs Moduli (GPa) = 94.71687 89.87995 71.24520
#
# Poissons Ratio (x) = 0.20118 0.21495
# Poissons Ratio (y) = 0.21200 0.22232
# Poissons Ratio (z) = 0.28576 0.28047
#
# Static dielectric constant tensor:
#      x y z
#    x 1.996830 0.000000 0.000000 
#    y 0.000000 2.046570 0.000000 
#    z 0.000000 0.000000 1.953160 
# 
# From -- ./inp_files/13094.got.cif
#   From: 2010.05.17/outbox.cif.g08.bks.cpg/sg56_7_cif.got.tgz:13094.got - 2010.06.03 13:42:01.
