data_PCOD9433396
_publ_section_title
;
Structure prediction by ZEFSAII (Michael W. Deem and Ramdas Pophale) SiO2 
 PCOD9433396
Probable space group: P C C N
;
_chemical_formula_sum "Si O2"
_cell_formula_units_Z 48
_cell_length_a 10.654510
_cell_length_b 21.237829
_cell_length_c 8.515061
_cell_angle_alpha 90.000000
_cell_angle_beta 90.000000
_cell_angle_gamma 90.000000
_cell_volume 1926.776605
_symmetry_space_group_name_H-M "P C C N"
_symmetry_group_IT_number 56
_symmetry_cell_setting 'orthorhombic'
loop_
_space_group_symop_operation_xyz
x,y,z
1/2-x,1/2-y,z
1/2+x,-y,1/2-z
-x,1/2+y,1/2-z
-x,-y,-z
1/2+x,1/2+y,-z
1/2-x,y,1/2+z
x,1/2-y,1/2+z
loop_
_atom_site_type_symbol
_atom_site_label
_atom_site_fract_x
_atom_site_fract_y
_atom_site_fract_z
Si Si1 0.362970 0.126752 0.339679
Si Si2 0.139637 0.629875 0.132341
Si Si3 0.750000 0.250000 0.207583
Si Si4 0.250000 0.250000 0.983227
Si Si5 0.220923 0.954750 0.355728
Si Si6 0.499038 0.196120 0.087255
Si Si7 0.675671 0.546636 0.882310
O O1 0.280695 0.186756 0.389107
O O2 0.478733 0.150929 0.236467
O O3 0.402285 0.092797 0.503726
O O4 0.276599 0.085644 0.220434
O O5 0.223560 0.687589 0.191285
O O6 0.163404 0.573476 0.253988
O O7 0.177082 0.602739 0.962422
O O8 0.007434 0.659805 0.081037
O O9 0.623299 0.237477 0.110093
O O10 0.375480 0.237987 0.081279
O O11 0.256727 0.006087 0.483818
O O12 0.127564 0.992135 0.237076
#
# Coordination Sequence:
#
# PCOD9433396 Si02
#       7
#     8   8   4   4   8   8   8
#     4  11  22  44  73 106 152 199 255 311 382 460
#     4  11  22  44  73 104 153 197 254 307 379 461
#     4  12  26  48  76 114 154 202 256 318 396 460
#     4  12  26  48  76 116 154 200 258 320 396 454
#     4   9  20  42  74 103 148 205 251 306 375 455
#     4  12  26  46  76 117 153 204 250 319 390 463
#     4   9  20  42  74 102 149 205 251 304 376 458
#
# _framework density 24.912074
#
# number of rings (size 3 to 8) (size 9 to 14) (size 15 to 20)
#    0.000    1.333    3.333    2.000    0.000    0.000 
#    0.000    8.333    0.000    0.000    0.000    0.000 
#    0.000    0.000    0.000    0.000    0.000    0.000 
#
# Total GULP energy -267874.613714 kJ/mol
# GULP energy per Si atom -5580.721119 kJ/mol
# Density = 2.485537 g / cm^3
# Si number density = 24.912074 Si / 1000 Ang^3
#
#
#
# Elastic Constant Matrix: (Units=GPa)
#
#
# Indices 1 2 3 4 5 6 
#
# 1 78.4128 25.0831 25.7972 0.0000 0.0000 0.0000
# 2 25.0831 127.1443 61.4544 0.0000 0.0000 0.0000
# 3 25.7972 61.4544 128.0833 0.0000 0.0000 0.0000
# 4 0.0000 0.0000 0.0000 16.9113 0.0000 0.0000
# 5 0.0000 0.0000 0.0000 0.0000 -98.0693 0.0000
# 6 0.0000 0.0000 0.0000 0.0000 0.0000 13.0485
#
#
#
# Elastic Compliance Matrix: (Units=1/GPa)
#
#
# Indices 1 2 3 4 5 6 
#
# 1 0.013974 -0.001818 -0.001942 0.000000 0.000000 0.000000
# 2 -0.001818 0.010476 -0.004660 0.000000 0.000000 0.000000
# 3 -0.001942 -0.004660 0.010435 0.000000 0.000000 0.000000
# 4 0.000000 0.000000 0.000000 0.059132 0.000000 0.000000
# 5 0.000000 0.000000 0.000000 0.000000 -0.010197 0.000000
# 6 0.000000 0.000000 0.000000 0.000000 0.000000 0.076637
#
#
# Mechanical properties :
#
#
# Convention : Reuss Voigt Hill
#
# Bulk Modulus (GPa) = 55.42171 62.03442 58.72807
# Shear Modulus (GPa) = 27.27589 1.13182 14.20385
#
# Velocity S-wave (km/s) = 3.31250 0.67477 2.39039
# Velocity P-wave (km/s) = 6.07663 5.05594 5.58963
#
# Compressibility (1/GPa) = 0.01804347
#
# Stress axis : x y z
#
# Youngs Moduli (GPa) = 71.56396 95.45364 95.83467
#
# Poissons Ratio (x) = 0.17353 0.18612
# Poissons Ratio (y) = 0.13010 0.44663
# Poissons Ratio (z) = 0.13899 0.44485
#
# Static dielectric constant tensor:
#      x y z
#    x 2.008740 0.000000 0.000000 
#    y 0.000000 2.090440 0.000000 
#    z 0.000000 0.000000 1.995170 
# 
# From -- ./inp_files/2815.got.cif
#   From: 2010.05.17/outbox.cif.g08.bks.cpg/sg56_2_cif.got.tgz:2815.got - 2010.06.03 13:42:01.
