data_PCOD9433762
_publ_section_title
;
Structure prediction by ZEFSAII (Michael W. Deem and Ramdas Pophale) SiO2 
 PCOD9433762
Probable space group: P C C N
;
_chemical_formula_sum "Si O2"
_cell_formula_units_Z 32
_cell_length_a 4.808054
_cell_length_b 13.201604
_cell_length_c 21.550222
_cell_angle_alpha 90.000000
_cell_angle_beta 90.000000
_cell_angle_gamma 90.000000
_cell_volume 1367.879328
_symmetry_space_group_name_H-M "P C C N"
_symmetry_group_IT_number 56
_symmetry_cell_setting 'orthorhombic'
loop_
_space_group_symop_operation_xyz
x,y,z
1/2-x,1/2-y,z
1/2+x,-y,1/2-z
-x,1/2+y,1/2-z
-x,-y,-z
1/2+x,1/2+y,-z
1/2-x,y,1/2+z
x,1/2-y,1/2+z
loop_
_atom_site_type_symbol
_atom_site_label
_atom_site_fract_x
_atom_site_fract_y
_atom_site_fract_z
Si Si1 0.864729 0.861108 0.614184
Si Si2 0.506300 0.185117 0.636405
Si Si3 0.129148 0.987677 0.067794
Si Si4 0.455288 0.571612 0.745572
O O1 0.750000 0.750000 0.596494
O O2 0.596656 0.932225 0.610939
O O3 0.987951 0.863901 0.683772
O O4 0.095979 0.917850 0.571774
O O5 0.750000 0.250000 0.603918
O O6 0.650461 0.134815 0.696064
O O7 0.250000 0.250000 0.660733
O O8 0.358668 0.101164 0.593765
O O9 0.000000 0.000000 0.000000
O O10 0.238978 0.482170 0.733014
#
# Coordination Sequence:
#
# PCOD9433762 Si02
#       4
#     8   8   8   8
#     4  12  25  46  74 105 140 187 237 297 365 430
#     4  12  25  43  71 102 139 184 233 287 358 428
#     4  12  27  48  70 101 144 190 243 299 350 422
#     4  12  22  43  72 102 145 183 224 295 369 431
#
# _framework density 23.393877
#
# number of rings (size 3 to 8) (size 9 to 14) (size 15 to 20)
#    0.000    0.000    5.000    5.250    0.000    5.000 
#    0.000    0.000    0.000    0.000    0.000    0.000 
#    0.000    0.000    0.000    0.000    0.000    0.000 
#
# Total GULP energy -179019.197991 kJ/mol
# GULP energy per Si atom -5594.349937 kJ/mol
# Density = 2.334063 g / cm^3
# Si number density = 23.393877 Si / 1000 Ang^3
#
#
#
# Elastic Constant Matrix: (Units=GPa)
#
#
# Indices 1 2 3 4 5 6 
#
# 1 127.4659 44.1000 -2.0571 0.0000 0.0000 0.0000
# 2 44.1000 116.4473 28.4861 0.0000 0.0000 0.0000
# 3 -2.0571 28.4861 75.9263 0.0000 0.0000 0.0000
# 4 0.0000 0.0000 0.0000 7.4345 0.0000 0.0000
# 5 0.0000 0.0000 0.0000 0.0000 28.2827 0.0000
# 6 0.0000 0.0000 0.0000 0.0000 0.0000 50.3347
#
#
#
# Elastic Compliance Matrix: (Units=1/GPa)
#
#
# Indices 1 2 3 4 5 6 
#
# 1 0.009227 -0.003915 0.001719 0.000000 0.000000 0.000000
# 2 -0.003915 0.011116 -0.004277 0.000000 0.000000 0.000000
# 3 0.001719 -0.004277 0.014822 0.000000 0.000000 0.000000
# 4 0.000000 0.000000 0.000000 0.134508 0.000000 0.000000
# 5 0.000000 0.000000 0.000000 0.000000 0.035357 0.000000
# 6 0.000000 0.000000 0.000000 0.000000 0.000000 0.019867
#
#
# Mechanical properties :
#
#
# Convention : Reuss Voigt Hill
#
# Bulk Modulus (GPa) = 45.00479 51.21082 48.10781
# Shear Modulus (GPa) = 20.38733 33.83107 27.10920
#
# Velocity S-wave (km/s) = 2.95529 3.80695 3.40783
# Velocity P-wave (km/s) = 5.56099 6.42356 6.00777
#
# Compressibility (1/GPa) = 0.02221986
#
# Stress axis : x y z
#
# Youngs Moduli (GPa) = 108.37196 89.95668 67.46817
#
# Poissons Ratio (x) = 0.35218 -0.11597
# Poissons Ratio (y) = 0.42428 0.28855
# Poissons Ratio (z) = -0.18628 0.38472
#
# Static dielectric constant tensor:
#      x y z
#    x 1.864560 0.000000 0.000000 
#    y 0.000000 2.028330 0.000000 
#    z 0.000000 0.000000 1.859260 
# 
# From -- ./inp_files/17266.got.cif
#   From: 2010.05.17/outbox.cif.g08.bks.cpg/sg56_9_cif.got.tgz:17266.got - 2010.06.03 13:42:01.
