data_PCOD9433782
_publ_section_title
;
Structure prediction by ZEFSAII (Michael W. Deem and Ramdas Pophale) SiO2 
 PCOD9433782
Probable space group: P C C N
;
_chemical_formula_sum "Si O2"
_cell_formula_units_Z 24
_cell_length_a 4.878589
_cell_length_b 15.879887
_cell_length_c 14.039344
_cell_angle_alpha 90.000000
_cell_angle_beta 90.000000
_cell_angle_gamma 90.000000
_cell_volume 1087.648225
_symmetry_space_group_name_H-M "P C C N"
_symmetry_group_IT_number 56
_symmetry_cell_setting 'orthorhombic'
loop_
_space_group_symop_operation_xyz
x,y,z
1/2-x,1/2-y,z
1/2+x,-y,1/2-z
-x,1/2+y,1/2-z
-x,-y,-z
1/2+x,1/2+y,-z
1/2-x,y,1/2+z
x,1/2-y,1/2+z
loop_
_atom_site_type_symbol
_atom_site_label
_atom_site_fract_x
_atom_site_fract_y
_atom_site_fract_z
Si Si1 0.554479 0.945090 0.768142
Si Si2 0.987664 0.806170 0.120129
Si Si3 0.751515 0.938404 0.975844
O O1 0.430186 0.874711 0.698993
O O2 0.691619 0.915141 0.866142
O O3 0.303814 0.008805 0.786635
O O4 0.750000 0.750000 0.166127
O O5 0.250000 0.750000 0.091774
O O6 0.830009 0.855208 0.035284
O O7 0.500000 0.000000 0.000000
O O8 0.000000 0.000000 0.000000
#
# Coordination Sequence:
#
# PCOD9433782 Si02
#       3
#     8   8   8
#     4  12  23  44  74 104 138 194 249 292 356 445
#     4  12  26  44  70 108 153 180 235 315 370 417
#     4  12  23  44  74 104 138 195 250 291 355 448
#
# _framework density 22.06596
#
# number of rings (size 3 to 8) (size 9 to 14) (size 15 to 20)
#    0.000    0.000    6.667    4.000    0.000    1.333 
#    0.000    3.333    0.000    0.000    0.000    0.000 
#    0.000    0.000    0.000    0.000    0.000    0.000 
#
# Total GULP energy -134038.810621 kJ/mol
# GULP energy per Si atom -5584.950443 kJ/mol
# Density = 2.201574 g / cm^3
# Si number density = 22.065960 Si / 1000 Ang^3
#
#
#
# Elastic Constant Matrix: (Units=GPa)
#
#
# Indices 1 2 3 4 5 6 
#
# 1 167.0061 46.6137 17.4722 0.0000 0.0000 0.0000
# 2 46.6137 94.0861 44.9807 0.0000 0.0000 0.0000
# 3 17.4722 44.9807 128.6323 0.0000 0.0000 0.0000
# 4 0.0000 0.0000 0.0000 19.0326 0.0000 0.0000
# 5 0.0000 0.0000 0.0000 0.0000 27.5311 0.0000
# 6 0.0000 0.0000 0.0000 0.0000 0.0000 55.5561
#
#
#
# Elastic Compliance Matrix: (Units=1/GPa)
#
#
# Indices 1 2 3 4 5 6 
#
# 1 0.006959 -0.003597 0.000313 0.000000 0.000000 0.000000
# 2 -0.003597 0.014622 -0.004624 0.000000 0.000000 0.000000
# 3 0.000313 -0.004624 0.009349 0.000000 0.000000 0.000000
# 4 0.000000 0.000000 0.000000 0.052541 0.000000 0.000000
# 5 0.000000 0.000000 0.000000 0.000000 0.036323 0.000000
# 6 0.000000 0.000000 0.000000 0.000000 0.000000 0.018000
#
#
# Mechanical properties :
#
#
# Convention : Reuss Voigt Hill
#
# Bulk Modulus (GPa) = 66.17476 67.53975 66.85725
# Shear Modulus (GPa) = 31.51626 39.13450 35.32538
#
# Velocity S-wave (km/s) = 3.78335 4.21589 4.00546
# Velocity P-wave (km/s) = 7.00997 7.37380 7.19418
#
# Compressibility (1/GPa) = 0.01511150
#
# Stress axis : x y z
#
# Youngs Moduli (GPa) = 143.69576 68.39206 106.96698
#
# Poissons Ratio (x) = 0.24603 -0.03344
# Poissons Ratio (y) = 0.51692 0.49465
# Poissons Ratio (z) = -0.04493 0.31627
#
# Static dielectric constant tensor:
#      x y z
#    x 1.769600 0.000000 0.000000 
#    y 0.000000 2.036980 0.000000 
#    z 0.000000 0.000000 1.857640 
# 
# From -- ./inp_files/9271.got.cif
#   From: 2010.05.17/outbox.cif.g08.bks.cpg/sg56_5_cif.got.tgz:9271.got - 2010.06.03 13:42:01.
