data_PCOD9433141
_publ_section_title
;
Structure prediction by ZEFSAII (Michael W. Deem and Ramdas Pophale) SiO2 
 PCOD9433141
Probable space group: P C C N
;
_chemical_formula_sum "Si O2"
_cell_formula_units_Z 60
_cell_length_a 17.414548
_cell_length_b 17.147713
_cell_length_c 9.591323
_cell_angle_alpha 90.000000
_cell_angle_beta 90.000000
_cell_angle_gamma 90.000000
_cell_volume 2864.157720
_symmetry_space_group_name_H-M "P C C N"
_symmetry_group_IT_number 56
_symmetry_cell_setting 'orthorhombic'
loop_
_space_group_symop_operation_xyz
x,y,z
1/2-x,1/2-y,z
1/2+x,-y,1/2-z
-x,1/2+y,1/2-z
-x,-y,-z
1/2+x,1/2+y,-z
1/2-x,y,1/2+z
x,1/2-y,1/2+z
loop_
_atom_site_type_symbol
_atom_site_label
_atom_site_fract_x
_atom_site_fract_y
_atom_site_fract_z
Si Si1 0.927446 0.409560 0.285904
Si Si2 0.989682 0.838330 0.844682
Si Si3 0.638012 0.088484 0.979793
Si Si4 0.250000 0.250000 0.860861
Si Si5 0.315903 0.151272 0.608210
Si Si6 0.580537 0.492196 0.206990
Si Si7 0.701198 0.489515 0.977158
Si Si8 0.053786 0.759706 0.591018
O O1 0.863291 0.453724 0.376251
O O2 0.923391 0.319089 0.329034
O O3 0.013247 0.444031 0.306994
O O4 0.905142 0.421172 0.125517
O O5 0.905615 0.866334 0.882202
O O6 0.046181 0.911589 0.855216
O O7 0.993645 0.805334 0.688383
O O8 0.017295 0.770306 0.947733
O O9 0.602259 0.030331 0.864717
O O10 0.727489 0.068100 0.995977
O O11 0.621415 0.177596 0.932143
O O12 0.292260 0.192982 0.751827
O O13 0.196986 0.203680 0.970686
O O14 0.270649 0.071117 0.586917
O O15 0.657128 0.509569 0.120454
#
# Coordination Sequence:
#
# PCOD9433141 Si02
#       8
#     8   8   8   4   8   8   8   8
#     4  12  23  46  70 102 138 183 239 288 336 420
#     4  11  21  43  67  98 133 174 235 282 338 411
#     4  11  27  44  67 106 144 181 227 289 353 415
#     4  10  26  46  62 100 136 174 230 276 364 414
#     4  11  24  44  69  97 135 182 225 289 345 420
#     4  11  24  44  71 101 133 182 238 283 339 413
#     4  12  25  44  71 100 142 184 230 280 357 415
#     4  11  23  42  67 101 135 181 229 281 350 402
#
# _framework density 20.948567000000001
#
# number of rings (size 3 to 8) (size 9 to 14) (size 15 to 20)
#    0.000    0.800    4.000    3.200    3.733    0.533 
#    2.400    1.333    0.000    0.000    0.000    0.000 
#    0.000    0.000    0.000    0.000    0.000    0.000 
#
# Total GULP energy -335426.485391 kJ/mol
# GULP energy per Si atom -5590.441423 kJ/mol
# Density = 2.090089 g / cm^3
# Si number density = 20.948567 Si / 1000 Ang^3
#
#
#
# Elastic Constant Matrix: (Units=GPa)
#
#
# Indices 1 2 3 4 5 6 
#
# 1 98.9896 32.9226 34.2890 0.0000 0.0000 0.0000
# 2 32.9226 89.8619 23.6922 0.0000 0.0000 0.0000
# 3 34.2890 23.6922 123.8247 0.0000 0.0000 0.0000
# 4 0.0000 0.0000 0.0000 23.6401 0.0000 0.0000
# 5 0.0000 0.0000 0.0000 0.0000 23.0414 0.0000
# 6 0.0000 0.0000 0.0000 0.0000 0.0000 26.7648
#
#
#
# Elastic Compliance Matrix: (Units=1/GPa)
#
#
# Indices 1 2 3 4 5 6 
#
# 1 0.012293 -0.003798 -0.002677 0.000000 0.000000 0.000000
# 2 -0.003798 0.012893 -0.001415 0.000000 0.000000 0.000000
# 3 -0.002677 -0.001415 0.009088 0.000000 0.000000 0.000000
# 4 0.000000 0.000000 0.000000 0.042301 0.000000 0.000000
# 5 0.000000 0.000000 0.000000 0.000000 0.043400 0.000000
# 6 0.000000 0.000000 0.000000 0.000000 0.000000 0.037362
#
#
# Mechanical properties :
#
#
# Convention : Reuss Voigt Hill
#
# Bulk Modulus (GPa) = 54.07509 54.94263 54.50886
# Shear Modulus (GPa) = 27.88907 29.47410 28.68158
#
# Velocity S-wave (km/s) = 3.65267 3.75503 3.70421
# Velocity P-wave (km/s) = 6.60747 6.71452 6.66121
#
# Compressibility (1/GPa) = 0.01849280
#
# Stress axis : x y z
#
# Youngs Moduli (GPa) = 81.35006 77.56344 110.03386
#
# Poissons Ratio (x) = 0.29456 0.29460
# Poissons Ratio (y) = 0.30894 0.15572
# Poissons Ratio (z) = 0.21780 0.10977
#
# Static dielectric constant tensor:
#      x y z
#    x 1.713080 0.000000 0.000000 
#    y 0.000000 1.748160 0.000000 
#    z 0.000000 0.000000 1.774180 
# 
# From -- ./inp_files/4143.got.cif
#   From: 2010.05.17/outbox.cif.g08.bks.cpg/sg56_3_cif.got.tgz:4143.got - 2010.06.03 13:42:01.
