data_PCOD9433389
_publ_section_title
;
Structure prediction by ZEFSAII (Michael W. Deem and Ramdas Pophale) SiO2 
 PCOD9433389
Probable space group: P C C N
;
_chemical_formula_sum "Si O2"
_cell_formula_units_Z 40
_cell_length_a 6.361983
_cell_length_b 11.525974
_cell_length_c 23.191929
_cell_angle_alpha 90.000000
_cell_angle_beta 90.000000
_cell_angle_gamma 90.000000
_cell_volume 1700.618944
_symmetry_space_group_name_H-M "P C C N"
_symmetry_group_IT_number 56
_symmetry_cell_setting 'orthorhombic'
loop_
_space_group_symop_operation_xyz
x,y,z
1/2-x,1/2-y,z
1/2+x,-y,1/2-z
-x,1/2+y,1/2-z
-x,-y,-z
1/2+x,1/2+y,-z
1/2-x,y,1/2+z
x,1/2-y,1/2+z
loop_
_atom_site_type_symbol
_atom_site_label
_atom_site_fract_x
_atom_site_fract_y
_atom_site_fract_z
Si Si1 0.925190 0.519407 0.643433
Si Si2 0.250000 0.250000 0.110797
Si Si3 0.100753 0.579440 0.935230
Si Si4 0.953198 0.167839 0.213571
Si Si5 0.250000 0.250000 0.813750
Si Si6 0.727778 0.114496 0.941118
O O1 0.753443 0.430024 0.618631
O O2 0.943160 0.472119 0.708999
O O3 0.830741 0.646380 0.647947
O O4 0.118358 0.539882 0.599595
O O5 0.409793 0.170482 0.073449
O O6 0.399871 0.314430 0.156907
O O7 0.996184 0.451413 0.937964
O O8 0.251717 0.605838 0.989548
O O9 0.750000 0.250000 0.210538
O O10 0.068543 0.204362 0.271616
O O11 0.750000 0.250000 0.925208
#
# Coordination Sequence:
#
# PCOD9433389 Si02
#       6
#     8   4   8   8   4   8
#     4  12  25  48  72 102 145 191 236 303 373 423
#     4  11  22  44  69 110 140 185 246 295 360 436
#     4  11  25  43  73 106 143 189 242 293 354 459
#     4  11  25  45  73 104 137 189 242 304 364 430
#     4  11  30  44  73 108 140 185 252 301 362 442
#     4  11  26  44  70 106 147 187 237 293 364 437
#
# _framework density 23.520849999999999
#
# number of rings (size 3 to 8) (size 9 to 14) (size 15 to 20)
#    0.000    0.800    4.000    1.800    5.600    5.600 
#    0.000    0.000    0.000    0.000    0.000    0.000 
#    0.000    0.000    0.000    0.000    0.000    0.000 
#
# Total GULP energy -223121.901140 kJ/mol
# GULP energy per Si atom -5578.047528 kJ/mol
# Density = 2.346732 g / cm^3
# Si number density = 23.520850 Si / 1000 Ang^3
#
#
#
# Elastic Constant Matrix: (Units=GPa)
#
#
# Indices 1 2 3 4 5 6 
#
# 1 76.6307 37.4841 33.3564 0.0000 0.0000 0.0000
# 2 37.4841 59.9892 -1.9346 0.0000 0.0000 0.0000
# 3 33.3564 -1.9346 64.9509 0.0000 0.0000 0.0000
# 4 0.0000 0.0000 0.0000 29.8131 0.0000 0.0000
# 5 0.0000 0.0000 0.0000 0.0000 30.9585 0.0000
# 6 0.0000 0.0000 0.0000 0.0000 0.0000 37.4595
#
#
#
# Elastic Compliance Matrix: (Units=1/GPa)
#
#
# Indices 1 2 3 4 5 6 
#
# 1 0.028739 -0.018451 -0.015309 0.000000 0.000000 0.000000
# 2 -0.018451 0.028532 0.010326 0.000000 0.000000 0.000000
# 3 -0.015309 0.010326 0.023566 0.000000 0.000000 0.000000
# 4 0.000000 0.000000 0.000000 0.033542 0.000000 0.000000
# 5 0.000000 0.000000 0.000000 0.000000 0.032301 0.000000
# 6 0.000000 0.000000 0.000000 0.000000 0.000000 0.026696
#
#
# Mechanical properties :
#
#
# Convention : Reuss Voigt Hill
#
# Bulk Modulus (GPa) = 29.43950 37.70918 33.57434
# Shear Modulus (GPa) = 21.59212 28.49053 25.04132
#
# Velocity S-wave (km/s) = 3.03314 3.48413 3.26643
# Velocity P-wave (km/s) = 4.98097 5.67914 5.34147
#
# Compressibility (1/GPa) = 0.03396797
#
# Stress axis : x y z
#
# Youngs Moduli (GPa) = 34.79640 35.04874 42.43440
#
# Poissons Ratio (x) = 0.64668 0.64961
# Poissons Ratio (y) = 0.64203 -0.43816
# Poissons Ratio (z) = 0.53269 -0.36190
#
# Static dielectric constant tensor:
#      x y z
#    x 1.968330 0.000000 0.000000 
#    y 0.000000 2.222500 0.000000 
#    z 0.000000 0.000000 1.927550 
# 
# From -- ./inp_files/21553.got.cif
#   From: 2010.05.17/outbox.cif.g08.bks.cpg/sg56_11_cif.got.tgz:21553.got - 2010.06.03 13:42:01.
