data_PCOD9433230
_publ_section_title
;
Structure prediction by ZEFSAII (Michael W. Deem and Ramdas Pophale) SiO2 
 PCOD9433230
Probable space group: P C C N
;
_chemical_formula_sum "Si O2"
_cell_formula_units_Z 36
_cell_length_a 6.150974
_cell_length_b 16.281117
_cell_length_c 18.187989
_cell_angle_alpha 90.000000
_cell_angle_beta 90.000000
_cell_angle_gamma 90.000000
_cell_volume 1821.431200
_symmetry_space_group_name_H-M "P C C N"
_symmetry_group_IT_number 56
_symmetry_cell_setting 'orthorhombic'
loop_
_space_group_symop_operation_xyz
x,y,z
1/2-x,1/2-y,z
1/2+x,-y,1/2-z
-x,1/2+y,1/2-z
-x,-y,-z
1/2+x,1/2+y,-z
1/2-x,y,1/2+z
x,1/2-y,1/2+z
loop_
_atom_site_type_symbol
_atom_site_label
_atom_site_fract_x
_atom_site_fract_y
_atom_site_fract_z
Si Si1 0.250000 0.750000 0.758015
Si Si2 0.871732 0.417569 0.185893
Si Si3 0.880659 0.469654 0.927144
Si Si4 0.390094 0.172786 0.852485
Si Si5 0.476567 0.464747 0.842167
O O1 0.130802 0.679874 0.805302
O O2 0.436114 0.705651 0.707922
O O3 0.642071 0.448468 0.155265
O O4 0.047310 0.463232 0.134987
O O5 0.884354 0.453822 0.268448
O O6 0.623929 0.458102 0.914434
O O7 0.973490 0.379222 0.910447
O O8 0.000000 0.500000 0.000000
O O9 0.250000 0.250000 0.878833
O O10 0.208565 0.104876 0.830652
#
# Coordination Sequence:
#
# PCOD9433230 Si02
#       5
#     4   8   8   8   8
#     4  12  22  38  62 106 126 164 226 292 332 390
#     4  11  21  36  65  93 124 164 219 277 329 406
#     4  11  25  43  61  93 136 175 221 277 347 412
#     4  11  21  37  67  94 127 169 224 275 339 400
#     4  11  20  39  66  92 123 174 223 274 333 404
#
# _framework density 19.764679000000001
#
# number of rings (size 3 to 8) (size 9 to 14) (size 15 to 20)
#    0.000    0.889    6.667    1.333    0.000    3.556 
#    0.000    5.556    0.000    0.000    0.000    0.000 
#    0.000    0.000    0.000    0.000    0.000    0.000 
#
# Total GULP energy -200550.715693 kJ/mol
# GULP energy per Si atom -5570.853214 kJ/mol
# Density = 1.971969 g / cm^3
# Si number density = 19.764679 Si / 1000 Ang^3
#
#
#
# Elastic Constant Matrix: (Units=GPa)
#
#
# Indices 1 2 3 4 5 6 
#
# 1 97.6762 24.3024 26.0336 0.0000 0.0000 0.0000
# 2 24.3024 125.7132 27.8500 0.0000 0.0000 0.0000
# 3 26.0336 27.8500 53.1342 0.0000 0.0000 0.0000
# 4 0.0000 0.0000 0.0000 21.5606 0.0000 0.0000
# 5 0.0000 0.0000 0.0000 0.0000 7.3432 0.0000
# 6 0.0000 0.0000 0.0000 0.0000 0.0000 36.7287
#
#
#
# Elastic Compliance Matrix: (Units=1/GPa)
#
#
# Indices 1 2 3 4 5 6 
#
# 1 0.011919 -0.001143 -0.005241 0.000000 0.000000 0.000000
# 2 -0.001143 0.009109 -0.004214 0.000000 0.000000 0.000000
# 3 -0.005241 -0.004214 0.023597 0.000000 0.000000 0.000000
# 4 0.000000 0.000000 0.000000 0.046381 0.000000 0.000000
# 5 0.000000 0.000000 0.000000 0.000000 0.136180 0.000000
# 6 0.000000 0.000000 0.000000 0.000000 0.000000 0.027227
#
#
# Mechanical properties :
#
#
# Convention : Reuss Voigt Hill
#
# Bulk Modulus (GPa) = 42.68266 48.09952 45.39109
# Shear Modulus (GPa) = 17.64170 26.34902 21.99536
#
# Velocity S-wave (km/s) = 2.99086 3.65518 3.33958
# Velocity P-wave (km/s) = 5.79390 6.49636 6.15516
#
# Compressibility (1/GPa) = 0.02342872
#
# Stress axis : x y z
#
# Youngs Moduli (GPa) = 83.89877 109.77838 42.37827
#
# Poissons Ratio (x) = 0.12549 0.22209
# Poissons Ratio (y) = 0.09591 0.17860
# Poissons Ratio (z) = 0.43969 0.46266
#
# Static dielectric constant tensor:
#      x y z
#    x 1.883020 0.000000 0.000000 
#    y 0.000000 1.700320 0.000000 
#    z 0.000000 0.000000 1.701590 
# 
# From -- ./inp_files/17363.got.cif
#   From: 2010.05.17/outbox.cif.g08.bks.cpg/sg56_9_cif.got.tgz:17363.got - 2010.06.03 13:42:01.
