data_PCOD9433404
_publ_section_title
;
Structure prediction by ZEFSAII (Michael W. Deem and Ramdas Pophale) SiO2 
 PCOD9433404
Probable space group: P C C N
;
_chemical_formula_sum "Si O2"
_cell_formula_units_Z 64
_cell_length_a 7.707808
_cell_length_b 29.873525
_cell_length_c 11.796171
_cell_angle_alpha 90.000000
_cell_angle_beta 90.000000
_cell_angle_gamma 90.000000
_cell_volume 2716.179198
_symmetry_space_group_name_H-M "P C C N"
_symmetry_group_IT_number 56
_symmetry_cell_setting 'orthorhombic'
loop_
_space_group_symop_operation_xyz
x,y,z
1/2-x,1/2-y,z
1/2+x,-y,1/2-z
-x,1/2+y,1/2-z
-x,-y,-z
1/2+x,1/2+y,-z
1/2-x,y,1/2+z
x,1/2-y,1/2+z
loop_
_atom_site_type_symbol
_atom_site_label
_atom_site_fract_x
_atom_site_fract_y
_atom_site_fract_z
Si Si1 0.136609 0.137992 0.554034
Si Si2 0.504316 0.784062 0.112760
Si Si3 0.031644 0.548772 0.051818
Si Si4 0.418275 0.917467 0.279618
Si Si5 0.024740 0.326291 0.666527
Si Si6 0.053195 0.949570 0.023029
Si Si7 0.883785 0.191982 0.942503
Si Si8 0.960476 0.108200 0.783267
O O1 0.327963 0.155647 0.583263
O O2 0.070344 0.178328 0.474567
O O3 0.083659 0.089836 0.497617
O O4 0.059959 0.130751 0.680290
O O5 0.570267 0.788802 0.242027
O O6 0.298315 0.793502 0.110333
O O7 0.519951 0.732591 0.073409
O O8 0.238775 0.557643 0.037254
O O9 0.007602 0.548849 0.187394
O O10 0.000000 0.500000 0.000000
O O11 0.476066 0.867378 0.251702
O O12 0.486178 0.926280 0.404365
O O13 0.210426 0.914534 0.271757
O O14 0.870772 0.315139 0.578471
O O15 0.961229 0.930284 0.135280
O O16 0.000000 0.000000 0.000000
O O17 0.926629 0.146959 0.875273
#
# Coordination Sequence:
#
# PCOD9433404 Si02
#       8
#     8   8   8   8   8   8   8   8
#     4  12  27  46  67 102 150 188 230 300 366 433
#     4  11  26  48  70 109 142 187 247 301 362 446
#     4  11  26  44  67 102 144 184 231 297 365 429
#     4  11  22  45  72  95 141 183 243 293 345 434
#     4  12  26  45  73 102 142 194 235 294 371 435
#     4  11  25  42  71 106 136 182 245 295 355 430
#     4  11  25  44  78 101 136 186 250 296 361 439
#     4  11  23  45  70  99 138 192 233 299 359 423
#
# _framework density 23.562512000000002
#
# number of rings (size 3 to 8) (size 9 to 14) (size 15 to 20)
#    0.000    0.750    5.000    1.500    7.000    2.500 
#    0.000    0.000    0.000    0.000    0.000    0.000 
#    0.000    0.000    0.000    0.000    0.000    0.000 
#
# Total GULP energy -357279.351918 kJ/mol
# GULP energy per Si atom -5582.489874 kJ/mol
# Density = 2.350888 g / cm^3
# Si number density = 23.562512 Si / 1000 Ang^3
#
#
#
# Elastic Constant Matrix: (Units=GPa)
#
#
# Indices 1 2 3 4 5 6 
#
# 1 45.5120 11.9058 14.4954 0.0000 0.0000 0.0000
# 2 11.9058 108.7562 25.7161 0.0000 0.0000 0.0000
# 3 14.4954 25.7161 125.3870 0.0000 0.0000 0.0000
# 4 0.0000 0.0000 0.0000 35.2228 0.0000 0.0000
# 5 0.0000 0.0000 0.0000 0.0000 24.4321 0.0000
# 6 0.0000 0.0000 0.0000 0.0000 0.0000 28.3897
#
#
#
# Elastic Compliance Matrix: (Units=1/GPa)
#
#
# Indices 1 2 3 4 5 6 
#
# 1 0.023221 -0.002004 -0.002273 0.000000 0.000000 0.000000
# 2 -0.002004 0.009837 -0.001786 0.000000 0.000000 0.000000
# 3 -0.002273 -0.001786 0.008604 0.000000 0.000000 0.000000
# 4 0.000000 0.000000 0.000000 0.028391 0.000000 0.000000
# 5 0.000000 0.000000 0.000000 0.000000 0.040930 0.000000
# 6 0.000000 0.000000 0.000000 0.000000 0.000000 0.035224
#
#
# Mechanical properties :
#
#
# Convention : Reuss Voigt Hill
#
# Bulk Modulus (GPa) = 33.85864 42.65443 38.25654
# Shear Modulus (GPa) = 29.73044 32.77812 31.25428
#
# Velocity S-wave (km/s) = 3.55599 3.73381 3.64598
# Velocity P-wave (km/s) = 5.59115 6.06056 5.83058
#
# Compressibility (1/GPa) = 0.02953456
#
# Stress axis : x y z
#
# Youngs Moduli (GPa) = 43.06513 101.66166 116.22026
#
# Poissons Ratio (x) = 0.20378 0.26421
# Poissons Ratio (y) = 0.08632 0.20753
# Poissons Ratio (z) = 0.09790 0.18154
#
# Static dielectric constant tensor:
#      x y z
#    x 1.987770 0.000000 0.000000 
#    y 0.000000 2.022630 0.000000 
#    z 0.000000 0.000000 1.888610 
# 
# From -- ./inp_files/6618.got.cif
#   From: 2010.05.17/outbox.cif.g08.bks.cpg/sg56_4_cif.got.tgz:6618.got - 2010.06.03 13:42:01.
