data_PCOD9433645
_publ_section_title
;
Structure prediction by ZEFSAII (Michael W. Deem and Ramdas Pophale) SiO2 
 PCOD9433645
Probable space group: P C C N
;
_chemical_formula_sum "Si O2"
_cell_formula_units_Z 48
_cell_length_a 9.316832
_cell_length_b 24.807060
_cell_length_c 9.058679
_cell_angle_alpha 90.000000
_cell_angle_beta 90.000000
_cell_angle_gamma 90.000000
_cell_volume 2093.670973
_symmetry_space_group_name_H-M "P C C N"
_symmetry_group_IT_number 56
_symmetry_cell_setting 'orthorhombic'
loop_
_space_group_symop_operation_xyz
x,y,z
1/2-x,1/2-y,z
1/2+x,-y,1/2-z
-x,1/2+y,1/2-z
-x,-y,-z
1/2+x,1/2+y,-z
1/2-x,y,1/2+z
x,1/2-y,1/2+z
loop_
_atom_site_type_symbol
_atom_site_label
_atom_site_fract_x
_atom_site_fract_y
_atom_site_fract_z
Si Si1 0.418649 0.641969 0.133387
Si Si2 0.187048 0.696053 0.347552
Si Si3 0.270355 0.139358 0.489829
Si Si4 0.646875 0.520129 0.569783
Si Si5 0.867494 0.797469 0.734955
Si Si6 0.117189 0.978912 0.113196
O O1 0.353130 0.652715 0.971319
O O2 0.312993 0.673836 0.242266
O O3 0.588459 0.653150 0.110659
O O4 0.416773 0.579488 0.175283
O O5 0.250000 0.750000 0.420820
O O6 0.035555 0.712090 0.269002
O O7 0.319334 0.154929 0.653273
O O8 0.149762 0.180128 0.430326
O O9 0.210295 0.078788 0.474706
O O10 0.500000 0.500000 0.500000
O O11 0.749576 0.476516 0.495051
O O12 0.641021 0.516763 0.746248
O O13 0.750000 0.750000 0.756328
O O14 0.000000 0.000000 0.000000
#
# Coordination Sequence:
#
# PCOD9433645 Si02
#       6
#     8   8   8   8   8   8
#     4  11  25  45  72 101 142 185 235 295 349 425
#     4  11  25  45  71 103 138 183 236 291 356 421
#     4  11  25  44  71 101 142 183 236 289 354 421
#     4  12  27  44  74 106 144 196 237 297 357 428
#     4  11  25  44  71 103 140 183 233 294 353 421
#     4  12  25  47  71 106 150 186 243 292 358 427
#
# _framework density 22.92624
#
# number of rings (size 3 to 8) (size 9 to 14) (size 15 to 20)
#    0.000    0.667    1.667    5.000    7.000    5.333 
#    0.000    0.000    0.000    0.000    0.000    0.000 
#    0.000    0.000    0.000    0.000    0.000    0.000 
#
# Total GULP energy -268105.681870 kJ/mol
# GULP energy per Si atom -5585.535039 kJ/mol
# Density = 2.287406 g / cm^3
# Si number density = 22.926240 Si / 1000 Ang^3
#
#
#
# Elastic Constant Matrix: (Units=GPa)
#
#
# Indices 1 2 3 4 5 6 
#
# 1 121.5097 19.1083 24.0360 0.0000 0.0000 0.0000
# 2 19.1083 82.5452 5.1390 0.0000 0.0000 0.0000
# 3 24.0360 5.1390 84.7399 0.0000 0.0000 0.0000
# 4 0.0000 0.0000 0.0000 33.4993 0.0000 0.0000
# 5 0.0000 0.0000 0.0000 0.0000 40.5913 0.0000
# 6 0.0000 0.0000 0.0000 0.0000 0.0000 39.8618
#
#
#
# Elastic Compliance Matrix: (Units=1/GPa)
#
#
# Indices 1 2 3 4 5 6 
#
# 1 0.009017 -0.001935 -0.002440 0.000000 0.000000 0.000000
# 2 -0.001935 0.012576 -0.000214 0.000000 0.000000 0.000000
# 3 -0.002440 -0.000214 0.012506 0.000000 0.000000 0.000000
# 4 0.000000 0.000000 0.000000 0.029851 0.000000 0.000000
# 5 0.000000 0.000000 0.000000 0.000000 0.024636 0.000000
# 6 0.000000 0.000000 0.000000 0.000000 0.000000 0.025087
#
#
# Mechanical properties :
#
#
# Convention : Reuss Voigt Hill
#
# Bulk Modulus (GPa) = 40.12824 42.81792 41.47308
# Shear Modulus (GPa) = 38.12200 38.82457 38.47328
#
# Velocity S-wave (km/s) = 4.08218 4.11963 4.10095
# Velocity P-wave (km/s) = 6.30556 6.43004 6.36810
#
# Compressibility (1/GPa) = 0.02492011
#
# Stress axis : x y z
#
# Youngs Moduli (GPa) = 110.90350 79.51714 79.96211
#
# Poissons Ratio (x) = 0.15390 0.19512
# Poissons Ratio (y) = 0.21464 0.01709
# Poissons Ratio (z) = 0.27063 0.01699
#
# Static dielectric constant tensor:
#      x y z
#    x 1.871180 0.000000 0.000000 
#    y 0.000000 1.843260 0.000000 
#    z 0.000000 0.000000 1.839740 
# 
# From -- ./inp_files/2234.got.cif
#   From: 2010.05.17/outbox.cif.g08.bks.cpg/sg56_2_cif.got.tgz:2234.got - 2010.06.03 13:42:01.
