data_PCOD9433869
_publ_section_title
;
Structure prediction by ZEFSAII (Michael W. Deem and Ramdas Pophale) SiO2 
 PCOD9433869
Probable space group: P C C N
;
_chemical_formula_sum "Si O2"
_cell_formula_units_Z 28
_cell_length_a 7.373262
_cell_length_b 7.636925
_cell_length_c 17.820069
_cell_angle_alpha 90.000000
_cell_angle_beta 90.000000
_cell_angle_gamma 90.000000
_cell_volume 1003.431137
_symmetry_space_group_name_H-M "P C C N"
_symmetry_group_IT_number 56
_symmetry_cell_setting 'orthorhombic'
loop_
_space_group_symop_operation_xyz
x,y,z
1/2-x,1/2-y,z
1/2+x,-y,1/2-z
-x,1/2+y,1/2-z
-x,-y,-z
1/2+x,1/2+y,-z
1/2-x,y,1/2+z
x,1/2-y,1/2+z
loop_
_atom_site_type_symbol
_atom_site_label
_atom_site_fract_x
_atom_site_fract_y
_atom_site_fract_z
Si Si1 0.110523 0.954958 0.668638
Si Si2 0.969264 0.777474 0.904509
Si Si3 0.750000 0.250000 0.465772
Si Si4 0.111893 0.380974 0.319873
O O1 0.207804 0.906328 0.590799
O O2 0.041319 0.765630 0.696128
O O3 0.967008 0.101909 0.640101
O O4 0.194377 0.051277 0.741063
O O5 0.750000 0.750000 0.906893
O O6 0.964490 0.048102 0.137632
O O7 0.073796 0.778489 0.983266
O O8 0.250000 0.250000 0.362396
#
# Coordination Sequence:
#
# PCOD9433869 Si02
#       4
#     8   8   4   8
#     4  12  27  49  83 126 174 234 303 376 451 550
#     4  12  28  57  89 129 181 234 303 380 463 553
#     4  12  30  52  90 132 184 238 298 378 478 558
#     4  12  28  50  86 127 176 239 307 384 458 549
#
# _framework density 27.904257000000001
#
# number of rings (size 3 to 8) (size 9 to 14) (size 15 to 20)
#    0.000    0.000    2.857    5.143    4.000    6.857 
#    0.000    4.286    0.000    0.000    0.000    0.000 
#    0.000    0.000    0.000    0.000    0.000    0.000 
#
# Total GULP energy -156639.672720 kJ/mol
# GULP energy per Si atom -5594.274026 kJ/mol
# Density = 2.784075 g / cm^3
# Si number density = 27.904257 Si / 1000 Ang^3
#
#
#
# Elastic Constant Matrix: (Units=GPa)
#
#
# Indices 1 2 3 4 5 6 
#
# 1 161.9596 66.0355 87.3185 0.0000 0.0000 0.0000
# 2 66.0355 308.4271 108.4548 0.0000 0.0000 0.0000
# 3 87.3185 108.4548 195.4182 0.0000 0.0000 0.0000
# 4 0.0000 0.0000 0.0000 41.0211 0.0000 0.0000
# 5 0.0000 0.0000 0.0000 0.0000 57.8706 0.0000
# 6 0.0000 0.0000 0.0000 0.0000 0.0000 44.8661
#
#
#
# Elastic Compliance Matrix: (Units=1/GPa)
#
#
# Indices 1 2 3 4 5 6 
#
# 1 0.008217 -0.000582 -0.003349 0.000000 0.000000 0.000000
# 2 -0.000582 0.004070 -0.001999 0.000000 0.000000 0.000000
# 3 -0.003349 -0.001999 0.007723 0.000000 0.000000 0.000000
# 4 0.000000 0.000000 0.000000 0.024378 0.000000 0.000000
# 5 0.000000 0.000000 0.000000 0.000000 0.017280 0.000000
# 6 0.000000 0.000000 0.000000 0.000000 0.000000 0.022289
#
#
# Mechanical properties :
#
#
# Convention : Reuss Voigt Hill
#
# Bulk Modulus (GPa) = 122.68238 132.15804 127.42021
# Shear Modulus (GPa) = 50.74553 55.68463 53.21508
#
# Velocity S-wave (km/s) = 4.26908 4.47202 4.37173
# Velocity P-wave (km/s) = 8.26807 8.60984 8.44068
#
# Compressibility (1/GPa) = 0.00815113
#
# Stress axis : x y z
#
# Youngs Moduli (GPa) = 121.69895 245.72363 129.48733
#
# Poissons Ratio (x) = 0.14295 0.43362
# Poissons Ratio (y) = 0.07080 0.25880
# Poissons Ratio (z) = 0.40754 0.49111
#
# Static dielectric constant tensor:
#      x y z
#    x 2.556110 0.000000 0.000000 
#    y 0.000000 2.178670 0.000000 
#    z 0.000000 0.000000 2.070930 
# 
# From -- ./inp_files/14300.got.cif
#   From: 2010.05.17/outbox.cif.g08.bks.cpg/sg56_8_cif.got.tgz:14300.got - 2010.06.03 13:42:01.
