data_PCOD9433370
_publ_section_title
;
Structure prediction by ZEFSAII (Michael W. Deem and Ramdas Pophale) SiO2 
 PCOD9433370
Probable space group: P C C N
;
_chemical_formula_sum "Si O2"
_cell_formula_units_Z 56
_cell_length_a 8.294397
_cell_length_b 18.636713
_cell_length_c 18.327244
_cell_angle_alpha 90.000000
_cell_angle_beta 90.000000
_cell_angle_gamma 90.000000
_cell_volume 2833.030810
_symmetry_space_group_name_H-M "P C C N"
_symmetry_group_IT_number 56
_symmetry_cell_setting 'orthorhombic'
loop_
_space_group_symop_operation_xyz
x,y,z
1/2-x,1/2-y,z
1/2+x,-y,1/2-z
-x,1/2+y,1/2-z
-x,-y,-z
1/2+x,1/2+y,-z
1/2-x,y,1/2+z
x,1/2-y,1/2+z
loop_
_atom_site_type_symbol
_atom_site_label
_atom_site_fract_x
_atom_site_fract_y
_atom_site_fract_z
Si Si1 0.206519 0.122956 0.913272
Si Si2 0.961541 0.657168 0.434428
Si Si3 0.717574 0.425761 0.790661
Si Si4 0.512031 0.791118 0.707532
Si Si5 0.077599 0.979617 0.846506
Si Si6 0.250000 0.250000 0.665849
Si Si7 0.250000 0.750000 0.985173
Si Si8 0.572458 0.341802 0.395309
O O1 0.394695 0.138286 0.922292
O O2 0.139457 0.171776 0.847397
O O3 0.171345 0.041511 0.890282
O O4 0.105976 0.143247 0.984799
O O5 0.816802 0.687124 0.385085
O O6 0.030304 0.585384 0.398802
O O7 0.104358 0.715670 0.439892
O O8 0.623668 0.350734 0.778230
O O9 0.584008 0.483510 0.814480
O O10 0.814530 0.451316 0.720214
O O11 0.840318 0.408137 0.856283
O O12 0.604205 0.771869 0.781149
O O13 0.447101 0.721285 0.665284
O O14 0.178279 0.689240 0.038891
#
# Coordination Sequence:
#
# PCOD9433370 Si02
#       8
#     8   8   8   8   8   4   4   8
#     4  11  23  45  70  95 136 188 224 273 353 420
#     4  12  27  45  65 102 142 180 229 285 346 412
#     4  11  24  41  69 102 132 182 230 285 344 403
#     4  11  22  41  71 100 134 174 230 288 344 403
#     4  11  26  45  67  96 145 178 234 282 342 416
#     4  12  26  40  70 102 138 174 228 300 344 400
#     4  12  24  42  68 102 138 184 222 288 348 406
#     4  12  20  42  72 102 129 177 233 280 342 419
#
# _framework density 19.766815999999999
#
# number of rings (size 3 to 8) (size 9 to 14) (size 15 to 20)
#    0.000    0.571    4.286    3.857    6.000    0.000 
#    0.000    1.429    0.000    0.000    0.000    0.000 
#    0.000    0.000    0.000    0.000    0.000    0.000 
#
# Total GULP energy -313423.653134 kJ/mol
# GULP energy per Si atom -5596.850949 kJ/mol
# Density = 1.972183 g / cm^3
# Si number density = 19.766816 Si / 1000 Ang^3
#
#
#
# Elastic Constant Matrix: (Units=GPa)
#
#
# Indices 1 2 3 4 5 6 
#
# 1 81.3448 13.4662 5.1607 0.0000 0.0000 0.0000
# 2 13.4662 56.8605 32.6141 0.0000 0.0000 0.0000
# 3 5.1607 32.6141 45.2145 0.0000 0.0000 0.0000
# 4 0.0000 0.0000 0.0000 34.5050 0.0000 0.0000
# 5 0.0000 0.0000 0.0000 0.0000 11.8845 0.0000
# 6 0.0000 0.0000 0.0000 0.0000 0.0000 30.4368
#
#
#
# Elastic Compliance Matrix: (Units=1/GPa)
#
#
# Indices 1 2 3 4 5 6 
#
# 1 0.012836 -0.003752 0.001241 0.000000 0.000000 0.000000
# 2 -0.003752 0.031095 -0.022001 0.000000 0.000000 0.000000
# 3 0.001241 -0.022001 0.037845 0.000000 0.000000 0.000000
# 4 0.000000 0.000000 0.000000 0.028981 0.000000 0.000000
# 5 0.000000 0.000000 0.000000 0.000000 0.084143 0.000000
# 6 0.000000 0.000000 0.000000 0.000000 0.000000 0.032855
#
#
# Mechanical properties :
#
#
# Convention : Reuss Voigt Hill
#
# Bulk Modulus (GPa) = 30.53239 31.76688 31.14963
# Shear Modulus (GPa) = 17.37947 24.17717 20.77832
#
# Velocity S-wave (km/s) = 2.96839 3.50111 3.24570
# Velocity P-wave (km/s) = 5.21807 5.69643 5.46249
#
# Compressibility (1/GPa) = 0.03275211
#
# Stress axis : x y z
#
# Youngs Moduli (GPa) = 77.90770 32.15969 26.42359
#
# Poissons Ratio (x) = 0.12066 -0.03280
# Poissons Ratio (y) = 0.29229 0.58135
# Poissons Ratio (z) = -0.09670 0.70755
#
# Static dielectric constant tensor:
#      x y z
#    x 1.659600 0.000000 0.000000 
#    y 0.000000 1.682620 0.000000 
#    z 0.000000 0.000000 1.657050 
# 
# From -- ./inp_files/10916.got.cif
#   From: 2010.05.17/outbox.cif.g08.bks.cpg/sg56_6_cif.got.tgz:10916.got - 2010.06.03 13:42:01.
