data_PCOD9433002
_publ_section_title
;
Structure prediction by ZEFSAII (Michael W. Deem and Ramdas Pophale) SiO2 
 PCOD9433002
Probable space group: P C C N
;
_chemical_formula_sum "Si O2"
_cell_formula_units_Z 56
_cell_length_a 14.993165
_cell_length_b 14.027712
_cell_length_c 10.956835
_cell_angle_alpha 90.000000
_cell_angle_beta 90.000000
_cell_angle_gamma 90.000000
_cell_volume 2304.439352
_symmetry_space_group_name_H-M "P C C N"
_symmetry_group_IT_number 56
_symmetry_cell_setting 'orthorhombic'
loop_
_space_group_symop_operation_xyz
x,y,z
1/2-x,1/2-y,z
1/2+x,-y,1/2-z
-x,1/2+y,1/2-z
-x,-y,-z
1/2+x,1/2+y,-z
1/2-x,y,1/2+z
x,1/2-y,1/2+z
loop_
_atom_site_type_symbol
_atom_site_label
_atom_site_fract_x
_atom_site_fract_y
_atom_site_fract_z
Si Si1 0.348121 0.710669 0.855474
Si Si2 0.784427 0.846975 0.558464
Si Si3 0.077493 0.105931 0.623189
Si Si4 0.582780 0.482697 0.757085
Si Si5 0.087032 0.301617 0.752858
Si Si6 0.438577 0.705552 0.110647
Si Si7 0.292892 0.499428 0.812344
O O1 0.250000 0.750000 0.876202
O O2 0.383580 0.753449 0.727813
O O3 0.339083 0.598066 0.841333
O O4 0.402087 0.732160 0.978749
O O5 0.750000 0.750000 0.497643
O O6 0.871641 0.897601 0.504125
O O7 0.814921 0.818317 0.694679
O O8 0.711133 0.928254 0.572004
O O9 0.076598 0.218056 0.656099
O O10 0.981737 0.058466 0.648924
O O11 0.147862 0.053889 0.712343
O O12 0.556369 0.592478 0.783484
O O13 0.562207 0.407865 0.865483
O O14 0.689267 0.479908 0.727205
O O15 0.033009 0.254749 0.865561
#
# Coordination Sequence:
#
# PCOD9433002 Si02
#       7
#     8   8   8   8   8   8   8
#     4  12  26  45  71 104 147 186 244 296 372 432
#     4  11  25  41  70 103 137 194 236 297 366 441
#     4  11  25  45  70 102 146 186 243 307 368 431
#     4  10  24  46  70 104 138 192 246 298 367 435
#     4  10  24  46  70 101 144 183 247 298 364 436
#     4  11  26  47  72 107 144 194 240 310 362 439
#     4  11  25  45  70 104 143 186 244 299 365 440
#
# _framework density 24.300920999999999
#
# number of rings (size 3 to 8) (size 9 to 14) (size 15 to 20)
#    0.000    1.143    2.857    1.286   10.000    3.429 
#    0.000    2.143    0.000    0.000    0.000    0.000 
#    0.000    0.000    0.000    0.000    0.000    0.000 
#
# Total GULP energy -312998.480709 kJ/mol
# GULP energy per Si atom -5589.258584 kJ/mol
# Density = 2.424561 g / cm^3
# Si number density = 24.300921 Si / 1000 Ang^3
#
#
#
# Elastic Constant Matrix: (Units=GPa)
#
#
# Indices 1 2 3 4 5 6 
#
# 1 82.9642 28.9444 22.0727 0.0000 0.0000 0.0000
# 2 28.9444 187.0618 40.5012 0.0000 0.0000 0.0000
# 3 22.0727 40.5012 86.8319 0.0000 0.0000 0.0000
# 4 0.0000 0.0000 0.0000 -3.2499 0.0000 0.0000
# 5 0.0000 0.0000 0.0000 0.0000 23.3562 0.0000
# 6 0.0000 0.0000 0.0000 0.0000 0.0000 39.8764
#
#
#
# Elastic Compliance Matrix: (Units=1/GPa)
#
#
# Indices 1 2 3 4 5 6 
#
# 1 0.013283 -0.001473 -0.002689 0.000000 0.000000 0.000000
# 2 -0.001473 0.006110 -0.002475 0.000000 0.000000 0.000000
# 3 -0.002689 -0.002475 0.013355 0.000000 0.000000 0.000000
# 4 0.000000 0.000000 0.000000 -0.307698 0.000000 0.000000
# 5 0.000000 0.000000 0.000000 0.000000 0.042815 0.000000
# 6 0.000000 0.000000 0.000000 0.000000 0.000000 0.025077
#
#
# Mechanical properties :
#
#
# Convention : Reuss Voigt Hill
#
# Bulk Modulus (GPa) = 51.35648 59.98827 55.67238
# Shear Modulus (GPa) = -26.69626 29.68585 1.49479
#
# Velocity S-wave (km/s) = -3.31806 3.49892 0.78514
# Velocity P-wave (km/s) = 2.54952 6.40800 4.87660
#
# Compressibility (1/GPa) = 0.01947174
#
# Stress axis : x y z
#
# Youngs Moduli (GPa) = 75.28528 163.67465 74.87979
#
# Poissons Ratio (x) = 0.24109 0.20139
# Poissons Ratio (y) = 0.11089 0.18535
# Poissons Ratio (z) = 0.20248 0.40515
#
# Static dielectric constant tensor:
#      x y z
#    x 1.996840 0.000000 0.000000 
#    y 0.000000 1.954860 0.000000 
#    z 0.000000 0.000000 1.958880 
# 
# From -- ./inp_files/7897.got.cif
#   From: 2010.05.17/outbox.cif.g08.bks.cpg/sg56_4_cif.got.tgz:7897.got - 2010.06.03 13:42:01.
