data_PCOD9433232
_publ_section_title
;
Structure prediction by ZEFSAII (Michael W. Deem and Ramdas Pophale) SiO2 
 PCOD9433232
Probable space group: P C C N
;
_chemical_formula_sum "Si O2"
_cell_formula_units_Z 64
_cell_length_a 15.534511
_cell_length_b 9.613059
_cell_length_c 20.236951
_cell_angle_alpha 90.000000
_cell_angle_beta 90.000000
_cell_angle_gamma 90.000000
_cell_volume 3022.068297
_symmetry_space_group_name_H-M "P C C N"
_symmetry_group_IT_number 56
_symmetry_cell_setting 'orthorhombic'
loop_
_space_group_symop_operation_xyz
x,y,z
1/2-x,1/2-y,z
1/2+x,-y,1/2-z
-x,1/2+y,1/2-z
-x,-y,-z
1/2+x,1/2+y,-z
1/2-x,y,1/2+z
x,1/2-y,1/2+z
loop_
_atom_site_type_symbol
_atom_site_label
_atom_site_fract_x
_atom_site_fract_y
_atom_site_fract_z
Si Si1 0.751452 0.082134 0.141242
Si Si2 0.068966 0.911128 0.394608
Si Si3 0.560256 0.542396 0.819126
Si Si4 0.921943 0.981679 0.072071
Si Si5 0.587882 0.110287 0.856884
Si Si6 0.047040 0.721679 0.521652
Si Si7 0.016417 0.789194 0.263332
Si Si8 0.243969 0.583233 0.700837
O O1 0.750000 0.250000 0.127256
O O2 0.664458 0.026235 0.106495
O O3 0.835638 0.005302 0.113380
O O4 0.747973 0.061052 0.220226
O O5 0.046869 0.830297 0.461451
O O6 0.070736 0.810202 0.330063
O O7 0.992749 0.016908 0.378296
O O8 0.503107 0.538039 0.884769
O O9 0.454050 0.328852 0.950128
O O10 0.507362 0.439319 0.769658
O O11 0.654925 0.480346 0.824421
O O12 0.062555 0.195226 0.212967
O O13 0.913466 0.081553 0.008912
O O14 0.600035 0.213624 0.918386
O O15 0.563606 0.199991 0.792519
O O16 0.672808 0.026127 0.837398
O O17 0.250000 0.750000 0.690407
#
# Coordination Sequence:
#
# PCOD9433232 Si02
#       8
#     8   8   8   8   8   8   8   8
#     4  11  20  39  68 102 126 167 231 281 328 404
#     4  12  24  44  69  97 137 179 225 280 344 414
#     4  12  22  42  69 102 139 173 227 287 348 403
#     4  11  23  41  69  95 136 177 225 285 335 400
#     4  12  24  42  69  97 139 177 222 280 342 407
#     4  11  24  44  64  96 133 184 227 274 343 405
#     4  12  21  40  70  98 133 178 221 284 348 395
#     4  11  21  38  69 106 129 171 231 285 332 407
#
# _framework density 21.177548999999999
#
# number of rings (size 3 to 8) (size 9 to 14) (size 15 to 20)
#    0.000    0.500    7.500    1.875    0.000    0.000 
#    9.000    1.250    5.500    0.000    0.000    0.000 
#    0.000    0.000    0.000    0.000    0.000    0.000 
#
# Total GULP energy -357404.681937 kJ/mol
# GULP energy per Si atom -5584.448155 kJ/mol
# Density = 2.112935 g / cm^3
# Si number density = 21.177549 Si / 1000 Ang^3
#
#
#
# Elastic Constant Matrix: (Units=GPa)
#
#
# Indices 1 2 3 4 5 6 
#
# 1 141.2777 30.6879 50.3360 0.0000 0.0000 0.0000
# 2 30.6879 41.3980 28.9680 0.0000 0.0000 0.0000
# 3 50.3360 28.9680 124.6696 0.0000 0.0000 0.0000
# 4 0.0000 0.0000 0.0000 25.8338 0.0000 0.0000
# 5 0.0000 0.0000 0.0000 0.0000 17.1110 0.0000
# 6 0.0000 0.0000 0.0000 0.0000 0.0000 31.1138
#
#
#
# Elastic Compliance Matrix: (Units=1/GPa)
#
#
# Indices 1 2 3 4 5 6 
#
# 1 0.009046 -0.004956 -0.002501 0.000000 0.000000 0.000000
# 2 -0.004956 0.031561 -0.005333 0.000000 0.000000 0.000000
# 3 -0.002501 -0.005333 0.010270 0.000000 0.000000 0.000000
# 4 0.000000 0.000000 0.000000 0.038709 0.000000 0.000000
# 5 0.000000 0.000000 0.000000 0.000000 0.058442 0.000000
# 6 0.000000 0.000000 0.000000 0.000000 0.000000 0.032140
#
#
# Mechanical properties :
#
#
# Convention : Reuss Voigt Hill
#
# Bulk Modulus (GPa) = 39.52795 58.59213 49.06004
# Shear Modulus (GPa) = 23.34505 27.96860 25.65682
#
# Velocity S-wave (km/s) = 3.32377 3.63805 3.48445
# Velocity P-wave (km/s) = 5.78234 6.73605 6.27733
#
# Compressibility (1/GPa) = 0.02529855
#
# Stress axis : x y z
#
# Youngs Moduli (GPa) = 110.54975 31.68500 97.37138
#
# Poissons Ratio (x) = 0.15702 0.24350
# Poissons Ratio (y) = 0.54784 0.51924
# Poissons Ratio (z) = 0.27646 0.16896
#
# Static dielectric constant tensor:
#      x y z
#    x 1.811420 0.000000 0.000000 
#    y 0.000000 1.813840 0.000000 
#    z 0.000000 0.000000 1.770680 
# 
# From -- ./inp_files/16350.got.cif
#   From: 2010.05.17/outbox.cif.g08.bks.cpg/sg56_9_cif.got.tgz:16350.got - 2010.06.03 13:42:01.
