data_PCOD9433993
_publ_section_title
;
Structure prediction by ZEFSAII (Michael W. Deem and Ramdas Pophale) SiO2 
 PCOD9433993
Probable space group: P B C M
;
_chemical_formula_sum "Si O2"
_cell_formula_units_Z 40
_cell_length_a 24.690859
_cell_length_b 5.389282
_cell_length_c 14.484968
_cell_angle_alpha 90.000000
_cell_angle_beta 90.000000
_cell_angle_gamma 90.000000
_cell_volume 1927.456780
_symmetry_space_group_name_H-M "P B C M"
_symmetry_group_IT_number 57
_symmetry_cell_setting 'orthorhombic'
loop_
_space_group_symop_operation_xyz
x,y,z
-x,-y,1/2+z
x,1/2-y,-z
-x,1/2+y,1/2-z
-x,-y,-z
x,y,1/2-z
-x,1/2+y,z
x,1/2-y,1/2+z
loop_
_atom_site_type_symbol
_atom_site_label
_atom_site_fract_x
_atom_site_fract_y
_atom_site_fract_z
Si Si1 0.034254 0.255808 0.250000
Si Si2 0.137888 0.345875 0.355905
Si Si3 0.464704 0.212716 0.750000
Si Si4 0.632111 0.749755 0.888794
Si Si5 0.695315 0.250407 0.388941
Si Si6 0.180174 0.845523 0.143735
O O1 0.075082 0.286889 0.337089
O O2 0.993527 0.487954 0.250000
O O3 0.161060 0.372445 0.250000
O O4 0.149102 0.612091 0.398681
O O5 0.167610 0.111978 0.399615
O O6 0.502703 0.454948 0.750000
O O7 0.424997 0.224558 0.661817
O O8 0.668688 0.511523 0.861950
O O9 0.660197 0.009525 0.861414
O O10 0.626303 0.750000 0.000000
O O11 0.697263 0.250000 0.500000
O O12 0.756572 0.285350 0.356536
O O13 0.160048 0.872261 0.250000
#
# Coordination Sequence:
#
# PCOD9433993 Si02
#       6
#     4   8   4   8   8   8
#     4  10  16  26  41  60  97 136 168 220 278 318
#     4   8  17  27  39  67  98 130 168 210 258 319
#     4  12  26  42  63  88 109 146 194 226 276 330
#     4  10  23  41  59  85 116 142 182 232 269 320
#     4  10  21  36  56  82 112 145 177 210 266 328
#     4  10  17  29  47  71 103 137 160 207 258 317
#
# _framework density 20.752735999999999
#
# number of rings (size 3 to 8) (size 9 to 14) (size 15 to 20)
#    0.600    1.600    0.000    3.600    2.800    0.800 
#    0.000    0.000    0.000    0.000    0.000    0.000 
#    0.000   16.000    0.000    0.000    0.000    0.000 
#
# Total GULP energy -223183.806871 kJ/mol
# GULP energy per Si atom -5579.595172 kJ/mol
# Density = 2.070550 g / cm^3
# Si number density = 20.752736 Si / 1000 Ang^3
#
#
#
# Elastic Constant Matrix: (Units=GPa)
#
#
# Indices 1 2 3 4 5 6 
#
# 1 93.3919 32.8500 5.6743 0.0000 0.0000 0.0000
# 2 32.8500 161.0203 16.3561 0.0000 0.0000 0.0000
# 3 5.6743 16.3561 65.1153 0.0000 0.0000 0.0000
# 4 0.0000 0.0000 0.0000 4.9358 0.0000 0.0000
# 5 0.0000 0.0000 0.0000 0.0000 4722.7131 0.0000
# 6 0.0000 0.0000 0.0000 0.0000 0.0000 53.0650
#
#
#
# Elastic Compliance Matrix: (Units=1/GPa)
#
#
# Indices 1 2 3 4 5 6 
#
# 1 0.011547 -0.002312 -0.000425 0.000000 0.000000 0.000000
# 2 -0.002312 0.006836 -0.001516 0.000000 0.000000 0.000000
# 3 -0.000425 -0.001516 0.015775 0.000000 0.000000 0.000000
# 4 0.000000 0.000000 0.000000 0.202601 0.000000 0.000000
# 5 0.000000 0.000000 0.000000 0.000000 0.000212 0.000000
# 6 0.000000 0.000000 0.000000 0.000000 0.000000 0.018845
#
#
# Mechanical properties :
#
#
# Convention : Reuss Voigt Hill
#
# Bulk Modulus (GPa) = 38.98460 47.69871 43.34165
# Shear Modulus (GPa) = 18.32352 973.78592 496.05472
#
# Velocity S-wave (km/s) = 2.97466 21.68528 15.47740
# Velocity P-wave (km/s) = 5.53391 25.49580 18.44804
#
# Compressibility (1/GPa) = 0.02565115
#
# Stress axis : x y z
#
# Youngs Moduli (GPa) = 86.60407 146.28178 63.39086
#
# Poissons Ratio (x) = 0.33827 0.02696
# Poissons Ratio (y) = 0.20027 0.09608
# Poissons Ratio (z) = 0.03684 0.22171
#
# Static dielectric constant tensor:
#      x y z
#    x 1.690260 0.000000 0.000000 
#    y 0.000000 1.790620 0.000000 
#    z 0.000000 0.000000 1.775070 
# 
# From -- ./inp_files/19447.got.cif
#   From: 2010.05.17/outbox.cif.g08.bks.cpg/sg57_10_cif.got.tgz:19447.got - 2010.06.03 13:58:18.
