data_PCOD9433066
_publ_section_title
;
Structure prediction by ZEFSAII (Michael W. Deem and Ramdas Pophale) SiO2 
 PCOD9433066
Probable space group: P C C N
;
_chemical_formula_sum "Si O2"
_cell_formula_units_Z 28
_cell_length_a 16.565082
_cell_length_b 8.308499
_cell_length_c 6.805139
_cell_angle_alpha 90.000000
_cell_angle_beta 90.000000
_cell_angle_gamma 90.000000
_cell_volume 936.597863
_symmetry_space_group_name_H-M "P C C N"
_symmetry_group_IT_number 56
_symmetry_cell_setting 'orthorhombic'
loop_
_space_group_symop_operation_xyz
x,y,z
1/2-x,1/2-y,z
1/2+x,-y,1/2-z
-x,1/2+y,1/2-z
-x,-y,-z
1/2+x,1/2+y,-z
1/2-x,y,1/2+z
x,1/2-y,1/2+z
loop_
_atom_site_type_symbol
_atom_site_label
_atom_site_fract_x
_atom_site_fract_y
_atom_site_fract_z
Si Si1 0.250000 0.750000 0.517660
Si Si2 0.093957 0.896083 0.912022
Si Si3 0.691036 0.597785 0.382839
Si Si4 0.552988 0.938823 0.182982
O O1 0.335812 0.763734 0.408883
O O2 0.257573 0.568727 0.602672
O O3 0.076226 0.550210 0.632069
O O4 0.013656 0.834163 0.802996
O O5 0.130193 0.048946 0.793405
O O6 0.750000 0.750000 0.364260
O O7 0.634367 0.617627 0.574660
O O8 0.500000 0.000000 0.000000
#
# Coordination Sequence:
#
# PCOD9433066 Si02
#       4
#     4   8   8   8
#     4  12  28  52  86 128 180 234 298 366 442 530
#     4  10  24  50  87 125 181 239 297 369 448 532
#     4  11  27  51  85 131 181 234 302 371 447 533
#     4   9  22  52  88 131 181 234 297 367 447 536
#
# _framework density 29.895434000000002
#
# number of rings (size 3 to 8) (size 9 to 14) (size 15 to 20)
#    0.000    1.714    0.000    0.857    8.000    2.286 
#    5.143    7.143    0.000    1.714    0.000    0.000 
#    0.000    0.000    0.000    0.000    0.000    0.000 
#
# Total GULP energy -156847.426056 kJ/mol
# GULP energy per Si atom -5601.693788 kJ/mol
# Density = 2.982739 g / cm^3
# Si number density = 29.895434 Si / 1000 Ang^3
#
#
#
# Elastic Constant Matrix: (Units=GPa)
#
#
# Indices 1 2 3 4 5 6 
#
# 1 220.8214 112.3882 106.6379 0.0000 0.0000 0.0000
# 2 112.3882 232.7299 87.9562 0.0000 0.0000 0.0000
# 3 106.6379 87.9562 235.5614 0.0000 0.0000 0.0000
# 4 0.0000 0.0000 0.0000 28.4030 0.0000 0.0000
# 5 0.0000 0.0000 0.0000 0.0000 89.5900 0.0000
# 6 0.0000 0.0000 0.0000 0.0000 0.0000 59.9808
#
#
#
# Elastic Compliance Matrix: (Units=1/GPa)
#
#
# Indices 1 2 3 4 5 6 
#
# 1 0.006840 -0.002483 -0.002169 0.000000 0.000000 0.000000
# 2 -0.002483 0.005904 -0.001080 0.000000 0.000000 0.000000
# 3 -0.002169 -0.001080 0.005631 0.000000 0.000000 0.000000
# 4 0.000000 0.000000 0.000000 0.035208 0.000000 0.000000
# 5 0.000000 0.000000 0.000000 0.000000 0.011162 0.000000
# 6 0.000000 0.000000 0.000000 0.000000 0.000000 0.016672
#
#
# Mechanical properties :
#
#
# Convention : Reuss Voigt Hill
#
# Bulk Modulus (GPa) = 144.73762 144.78635 144.76199
# Shear Modulus (GPa) = 52.52909 61.07012 56.79961
#
# Velocity S-wave (km/s) = 4.19632 4.52463 4.36356
# Velocity P-wave (km/s) = 8.48519 8.70818 8.59741
#
# Compressibility (1/GPa) = 0.00690905
#
# Stress axis : x y z
#
# Youngs Moduli (GPa) = 146.19945 169.36573 177.60120
#
# Poissons Ratio (x) = 0.42059 0.38525
# Poissons Ratio (y) = 0.36306 0.19189
# Poissons Ratio (z) = 0.31713 0.18299
#
# Static dielectric constant tensor:
#      x y z
#    x 2.350830 0.000000 0.000000 
#    y 0.000000 1.873980 0.000000 
#    z 0.000000 0.000000 2.461780 
# 
# From -- ./inp_files/3845.got.cif
#   From: 2010.05.17/outbox.cif.g08.bks.cpg/sg56_2_cif.got.tgz:3845.got - 2010.06.03 13:42:01.
