data_PCOD9433951
_publ_section_title
;
Structure prediction by ZEFSAII (Michael W. Deem and Ramdas Pophale) SiO2 
 PCOD9433951
Probable space group: P C C N
;
_chemical_formula_sum "Si O2"
_cell_formula_units_Z 56
_cell_length_a 30.000000
_cell_length_b 6.000000
_cell_length_c 15.000000
_cell_angle_alpha 90.000000
_cell_angle_beta 90.000000
_cell_angle_gamma 90.000000
_cell_volume 2700.000000
_symmetry_space_group_name_H-M "P C C N"
_symmetry_group_IT_number 56
_symmetry_cell_setting 'orthorhombic'
loop_
_space_group_symop_operation_xyz
x,y,z
1/2-x,1/2-y,z
1/2+x,-y,1/2-z
-x,1/2+y,1/2-z
-x,-y,-z
1/2+x,1/2+y,-z
1/2-x,y,1/2+z
x,1/2-y,1/2+z
loop_
_atom_site_type_symbol
_atom_site_label
_atom_site_fract_x
_atom_site_fract_y
_atom_site_fract_z
Si Si1 0.250000 0.250000 0.201934
Si Si2 0.250000 0.750000 0.096405
Si Si3 0.970632 0.018447 0.346173
Si Si4 0.832947 0.080512 0.510231
Si Si5 0.991684 0.481364 0.634912
Si Si6 0.161861 0.224241 0.317897
Si Si7 0.895952 0.480753 0.541776
Si Si8 0.119453 0.217353 0.628208
O O1 0.254672 0.500385 0.149248
O O2 0.207665 0.285962 0.267438
O O3 0.292543 0.776035 0.030832
O O4 0.983775 0.020010 0.241711
O O5 0.918065 0.970974 0.355882
O O6 0.989648 0.775061 0.383141
O O7 0.984628 0.270002 0.381431
O O8 0.875799 0.236964 0.525494
O O9 0.826581 0.965925 0.607720
O O10 0.841935 0.902421 0.430424
O O11 0.945272 0.489546 0.581912
O O12 0.135888 0.399371 0.382952
O O13 0.131682 0.186357 0.227035
O O14 0.895875 0.600877 0.444959
#
# Coordination Sequence:
#
# PCOD9433951 Si02
#       8
#     4   4   8   8   8   8   8   8
#     4  12  28  50  80 112 148 198 248 306 376 442
#     4  12  28  52  78 114 156 190 256 310 372 448
#     4  10  23  42  72 100 145 192 245 308 369 448
#     4  11  28  45  76 108 151 197 246 317 369 449
#     4  10  23  43  68 106 140 191 248 307 373 439
#     4  11  26  47  75 107 148 199 247 302 378 443
#     4  11  26  44  71 107 148 192 251 309 368 451
#     4  11  24  48  69 107 145 196 248 305 376 445
#
# _framework density 20.740741
#
# number of rings (size 3 to 8) (size 9 to 14) (size 15 to 20)
#    0.000    1.143    2.857    0.857   12.000    3.429 
#    0.000    0.000    0.000    0.000    0.000    0.000 
#    0.000    0.000    0.000    0.000    0.000    0.000 
#
# Total GULP energy -311773.777867 kJ/mol
# GULP energy per Si atom -5567.388890 kJ/mol
# Density = 2.069353 g / cm^3
# Si number density = 20.740741 Si / 1000 Ang^3
#
#
#
# Elastic Constant Matrix: (Units=GPa)
#
#
# Indices 1 2 3 4 5 6 
#
# 1 74.3007 18.2814 20.7636 0.0000 0.0000 0.0000
# 2 18.2814 117.6659 41.0667 0.0000 0.0000 0.0000
# 3 20.7636 41.0667 133.2110 0.0000 0.0000 0.0000
# 4 0.0000 0.0000 0.0000 40.1145 0.0000 0.0000
# 5 0.0000 0.0000 0.0000 0.0000 34.1796 0.0000
# 6 0.0000 0.0000 0.0000 0.0000 0.0000 41.3303
#
#
#
# Elastic Compliance Matrix: (Units=1/GPa)
#
#
# Indices 1 2 3 4 5 6 
#
# 1 0.014343 -0.001623 -0.001735 0.000000 0.000000 0.000000
# 2 -0.001623 0.009707 -0.002740 0.000000 0.000000 0.000000
# 3 -0.001735 -0.002740 0.008622 0.000000 0.000000 0.000000
# 4 0.000000 0.000000 0.000000 0.024929 0.000000 0.000000
# 5 0.000000 0.000000 0.000000 0.000000 0.029257 0.000000
# 6 0.000000 0.000000 0.000000 0.000000 0.000000 0.024195
#
#
# Mechanical properties :
#
#
# Convention : Reuss Voigt Hill
#
# Bulk Modulus (GPa) = 48.83641 53.93343 51.38492
# Shear Modulus (GPa) = 38.43968 39.46261 38.95114
#
# Velocity S-wave (km/s) = 4.30972 4.36668 4.33829
# Velocity P-wave (km/s) = 6.95429 7.17523 7.06562
#
# Compressibility (1/GPa) = 0.02047652
#
# Stress axis : x y z
#
# Youngs Moduli (GPa) = 69.72012 103.01954 115.98328
#
# Poissons Ratio (x) = 0.16718 0.20127
# Poissons Ratio (y) = 0.11314 0.31774
# Poissons Ratio (z) = 0.12099 0.28223
#
# Static dielectric constant tensor:
#      x y z
#    x 1.814810 0.000000 0.000000 
#    y 0.000000 1.793700 0.000000 
#    z 0.000000 0.000000 1.719060 
# 
# From -- ./inp_files/13498.got.cif
#   From: 2010.05.17/outbox.ucp.g08.bks.cvg/sg56_7_cif.got.tgz:13498.got - 2010.06.11 16:37:52.
