data_PCOD9433238
_publ_section_title
;
Structure prediction by ZEFSAII (Michael W. Deem and Ramdas Pophale) SiO2 
 PCOD9433238
Probable space group: P C C N
;
_chemical_formula_sum "Si O2"
_cell_formula_units_Z 48
_cell_length_a 8.031424
_cell_length_b 18.023786
_cell_length_c 14.225991
_cell_angle_alpha 90.000000
_cell_angle_beta 90.000000
_cell_angle_gamma 90.000000
_cell_volume 2059.307048
_symmetry_space_group_name_H-M "P C C N"
_symmetry_group_IT_number 56
_symmetry_cell_setting 'orthorhombic'
loop_
_space_group_symop_operation_xyz
x,y,z
1/2-x,1/2-y,z
1/2+x,-y,1/2-z
-x,1/2+y,1/2-z
-x,-y,-z
1/2+x,1/2+y,-z
1/2-x,y,1/2+z
x,1/2-y,1/2+z
loop_
_atom_site_type_symbol
_atom_site_label
_atom_site_fract_x
_atom_site_fract_y
_atom_site_fract_z
Si Si1 0.727176 0.011722 0.623353
Si Si2 0.004556 0.077525 0.740461
Si Si3 0.444860 0.276250 0.436428
Si Si4 0.335025 0.088177 0.042744
Si Si5 0.962912 0.347029 0.558580
Si Si6 0.949754 0.751575 0.767742
O O1 0.832556 0.039304 0.712535
O O2 0.656323 0.084223 0.572549
O O3 0.586946 0.957869 0.667259
O O4 0.829743 0.968410 0.543891
O O5 0.111478 0.062527 0.645468
O O6 0.997038 0.166572 0.747411
O O7 0.250000 0.250000 0.437415
O O8 0.451722 0.343877 0.508733
O O9 0.555188 0.207428 0.470384
O O10 0.478055 0.295793 0.328988
O O11 0.148093 0.119018 0.052730
O O12 0.960042 0.293232 0.648539
O O13 0.750000 0.750000 0.787966
#
# Coordination Sequence:
#
# PCOD9433238 Si02
#       6
#     8   8   8   8   8   8
#     4  12  28  42  70 100 147 181 233 290 359 420
#     4  12  25  45  68 101 139 186 230 288 351 415
#     4   9  19  35  69  98 125 172 235 277 334 410
#     4  11  22  44  69 100 132 185 231 287 349 422
#     4  11  21  42  69 101 132 176 232 291 346 413
#     4  11  20  40  72  99 132 178 236 280 343 422
#
# _framework density 23.308810000000001
#
# number of rings (size 3 to 8) (size 9 to 14) (size 15 to 20)
#    0.000    1.000    3.333    5.500    2.333    2.000 
#    0.000    0.000    3.667    0.000    0.000    0.000 
#    0.000    0.000    0.000    0.000    0.000    0.000 
#
# Total GULP energy -268660.761927 kJ/mol
# GULP energy per Si atom -5597.099207 kJ/mol
# Density = 2.325576 g / cm^3
# Si number density = 23.308810 Si / 1000 Ang^3
#
#
#
# Elastic Constant Matrix: (Units=GPa)
#
#
# Indices 1 2 3 4 5 6 
#
# 1 9.6736 16.6823 -7.3752 0.0000 0.0000 0.0000
# 2 16.6823 114.0147 17.8589 0.0000 0.0000 0.0000
# 3 -7.3752 17.8589 92.6906 0.0000 0.0000 0.0000
# 4 0.0000 0.0000 0.0000 29.7344 0.0000 0.0000
# 5 0.0000 0.0000 0.0000 0.0000 18.0361 0.0000
# 6 0.0000 0.0000 0.0000 0.0000 0.0000 28.0591
#
#
#
# Elastic Compliance Matrix: (Units=1/GPa)
#
#
# Indices 1 2 3 4 5 6 
#
# 1 0.163322 -0.026739 0.018147 0.000000 0.000000 0.000000
# 2 -0.026739 0.013422 -0.004714 0.000000 0.000000 0.000000
# 3 0.018147 -0.004714 0.013141 0.000000 0.000000 0.000000
# 4 0.000000 0.000000 0.000000 0.033631 0.000000 0.000000
# 5 0.000000 0.000000 0.000000 0.000000 0.055444 0.000000
# 6 0.000000 0.000000 0.000000 0.000000 0.000000 0.035639
#
#
# Mechanical properties :
#
#
# Convention : Reuss Voigt Hill
#
# Bulk Modulus (GPa) = 6.12471 30.07900 18.10186
# Shear Modulus (GPa) = 12.63792 27.78013 20.20902
#
# Velocity S-wave (km/s) = 2.33103 3.45603 2.94770
# Velocity P-wave (km/s) = 3.14298 5.37198 4.40093
#
# Compressibility (1/GPa) = 0.16327291
#
# Stress axis : x y z
#
# Youngs Moduli (GPa) = 6.12286 74.50704 76.09955
#
# Poissons Ratio (x) = 1.99227 -1.38099
# Poissons Ratio (y) = 0.16372 0.35870
# Poissons Ratio (z) = -0.11111 0.35119
#
# Static dielectric constant tensor:
#      x y z
#    x 1.913260 0.000000 0.000000 
#    y 0.000000 1.809310 0.000000 
#    z 0.000000 0.000000 1.838470 
# 
# From -- ./inp_files/10623.got.cif
#   From: 2010.05.17/outbox.cif.g08.bks.cpg/sg56_6_cif.got.tgz:10623.got - 2010.06.03 13:42:01.
