data_PCOD9433345
_publ_section_title
;
Structure prediction by ZEFSAII (Michael W. Deem and Ramdas Pophale) SiO2 
 PCOD9433345
Probable space group: P C C N
;
_chemical_formula_sum "Si O2"
_cell_formula_units_Z 32
_cell_length_a 4.540394
_cell_length_b 30.155692
_cell_length_c 8.263520
_cell_angle_alpha 90.000000
_cell_angle_beta 90.000000
_cell_angle_gamma 90.000000
_cell_volume 1131.430606
_symmetry_space_group_name_H-M "P C C N"
_symmetry_group_IT_number 56
_symmetry_cell_setting 'orthorhombic'
loop_
_space_group_symop_operation_xyz
x,y,z
1/2-x,1/2-y,z
1/2+x,-y,1/2-z
-x,1/2+y,1/2-z
-x,-y,-z
1/2+x,1/2+y,-z
1/2-x,y,1/2+z
x,1/2-y,1/2+z
loop_
_atom_site_type_symbol
_atom_site_label
_atom_site_fract_x
_atom_site_fract_y
_atom_site_fract_z
Si Si1 0.921181 0.406944 0.473636
Si Si2 0.486537 0.532465 0.752889
Si Si3 0.582135 0.157723 0.215528
Si Si4 0.996967 0.217342 0.443286
O O1 0.096940 0.438127 0.596575
O O2 0.690508 0.436929 0.372798
O O3 0.077758 0.374357 0.344967
O O4 0.749017 0.374666 0.593892
O O5 0.752060 0.503781 0.684299
O O6 0.818281 0.187224 0.315380
O O7 0.393576 0.188031 0.094678
O O8 0.750000 0.250000 0.513499
O O9 0.250000 0.250000 0.380006
#
# Coordination Sequence:
#
# PCOD9433345 Si02
#       4
#     8   8   8   8
#     4   9  20  42  65  95 134 176 222 276 338 406
#     4  11  22  40  65  96 131 174 223 276 333 400
#     4   9  21  44  67  96 134 178 224 280 347 408
#     4  11  24  44  68  97 130 172 226 284 339 406
#
# _framework density 28.282776999999999
#
# number of rings (size 3 to 8) (size 9 to 14) (size 15 to 20)
#    0.000    2.000    0.000    2.250    0.000    4.000 
#    0.000   53.750    0.000    0.000    0.000    0.000 
#    0.000    0.000    0.000    0.000    0.000    0.000 
#
# Total GULP energy -179481.439403 kJ/mol
# GULP energy per Si atom -5608.794981 kJ/mol
# Density = 2.821840 g / cm^3
# Si number density = 28.282777 Si / 1000 Ang^3
#
#
#
# Elastic Constant Matrix: (Units=GPa)
#
#
# Indices 1 2 3 4 5 6 
#
# 1 80.1841 46.0011 18.7916 0.0000 0.0000 0.0000
# 2 46.0011 157.1584 101.1816 0.0000 0.0000 0.0000
# 3 18.7916 101.1816 161.5197 0.0000 0.0000 0.0000
# 4 0.0000 0.0000 0.0000 106.3770 0.0000 0.0000
# 5 0.0000 0.0000 0.0000 0.0000 -9.4513 0.0000
# 6 0.0000 0.0000 0.0000 0.0000 0.0000 20.1791
#
#
#
# Elastic Compliance Matrix: (Units=1/GPa)
#
#
# Indices 1 2 3 4 5 6 
#
# 1 0.015266 -0.005572 0.001715 0.000000 0.000000 0.000000
# 2 -0.005572 0.012698 -0.007306 0.000000 0.000000 0.000000
# 3 0.001715 -0.007306 0.010569 0.000000 0.000000 0.000000
# 4 0.000000 0.000000 0.000000 0.009401 0.000000 0.000000
# 5 0.000000 0.000000 0.000000 0.000000 -0.105806 0.000000
# 6 0.000000 0.000000 0.000000 0.000000 0.000000 0.049556
#
#
# Mechanical properties :
#
#
# Convention : Reuss Voigt Hill
#
# Bulk Modulus (GPa) = 61.70952 81.20118 71.45535
# Shear Modulus (GPa) = 257.55870 38.94682 148.25276
#
# Velocity S-wave (km/s) = 9.55318 3.71489 7.24788
# Velocity P-wave (km/s) = 11.98126 6.86828 9.76534
#
# Compressibility (1/GPa) = 0.01620495
#
# Stress axis : x y z
#
# Youngs Moduli (GPa) = 65.50348 78.75309 94.62076
#
# Poissons Ratio (x) = 0.43885 -0.16224
# Poissons Ratio (y) = 0.36502 0.69131
# Poissons Ratio (z) = -0.11232 0.57538
#
# Static dielectric constant tensor:
#      x y z
#    x 2.130300 0.000000 0.000000 
#    y 0.000000 2.195950 0.000000 
#    z 0.000000 0.000000 2.109470 
# 
# From -- ./inp_files/1560.got.cif
#   From: 2010.05.17/outbox.cif.g08.bks.cpg/sg56_1_cif.got.tgz:1560.got - 2010.06.03 13:42:01.
