data_PCOD9433398
_publ_section_title
;
Structure prediction by ZEFSAII (Michael W. Deem and Ramdas Pophale) SiO2 
 PCOD9433398
Probable space group: P C C N
;
_chemical_formula_sum "Si O2"
_cell_formula_units_Z 56
_cell_length_a 26.149759
_cell_length_b 6.456581
_cell_length_c 14.515874
_cell_angle_alpha 90.000000
_cell_angle_beta 90.000000
_cell_angle_gamma 90.000000
_cell_volume 2450.831673
_symmetry_space_group_name_H-M "P C C N"
_symmetry_group_IT_number 56
_symmetry_cell_setting 'orthorhombic'
loop_
_space_group_symop_operation_xyz
x,y,z
1/2-x,1/2-y,z
1/2+x,-y,1/2-z
-x,1/2+y,1/2-z
-x,-y,-z
1/2+x,1/2+y,-z
1/2-x,y,1/2+z
x,1/2-y,1/2+z
loop_
_atom_site_type_symbol
_atom_site_label
_atom_site_fract_x
_atom_site_fract_y
_atom_site_fract_z
Si Si1 0.943843 0.910664 0.524443
Si Si2 0.830415 0.157412 0.179863
Si Si3 0.344952 0.811933 0.013149
Si Si4 0.036290 0.316938 0.651899
Si Si5 0.700205 0.882732 0.837205
Si Si6 0.867899 0.010973 0.821678
Si Si7 0.060365 0.432951 0.324018
O O1 0.937239 0.743466 0.443324
O O2 0.942904 0.778455 0.617570
O O3 0.898036 0.076182 0.517585
O O4 0.000000 0.000000 0.500000
O O5 0.842827 0.358515 0.240497
O O6 0.793789 0.019361 0.244372
O O7 0.883206 0.026662 0.172717
O O8 0.816721 0.227757 0.077435
O O9 0.356564 0.624856 0.082659
O O10 0.313858 0.973073 0.076493
O O11 0.071289 0.500965 0.691709
O O12 0.042085 0.125013 0.721109
O O13 0.979524 0.398421 0.638283
O O14 0.750000 0.750000 0.855982
O O15 0.654786 0.718820 0.821033
#
# Coordination Sequence:
#
# PCOD9433398 Si02
#       7
#     8   8   8   8   8   8   8
#     4  12  23  39  61 100 144 187 234 285 343 417
#     4  11  24  43  70 106 138 183 236 296 346 420
#     4  11  24  43  72 103 141 185 237 291 355 424
#     4  12  21  38  60  95 140 188 228 281 347 409
#     4  11  26  50  76 101 141 185 231 298 364 418
#     4  11  22  45  69  97 144 180 235 294 350 416
#     4  12  23  37  64  99 143 185 239 282 344 422
#
# _framework density 22.849388000000001
#
# number of rings (size 3 to 8) (size 9 to 14) (size 15 to 20)
#    0.000    0.571    2.857    6.429    0.000    2.286 
#    0.000    4.286    0.000    0.000    0.000    0.000 
#    0.000    0.000    0.000    0.000    0.000    0.000 
#
# Total GULP energy -313516.401769 kJ/mol
# GULP energy per Si atom -5598.507174 kJ/mol
# Density = 2.279738 g / cm^3
# Si number density = 22.849388 Si / 1000 Ang^3
#
#
#
# Elastic Constant Matrix: (Units=GPa)
#
#
# Indices 1 2 3 4 5 6 
#
# 1 76.8028 22.9570 20.1423 0.0000 0.0000 0.0000
# 2 22.9570 95.2772 53.3838 0.0000 0.0000 0.0000
# 3 20.1423 53.3838 139.8788 0.0000 0.0000 0.0000
# 4 0.0000 0.0000 0.0000 38.1517 0.0000 0.0000
# 5 0.0000 0.0000 0.0000 0.0000 11.5580 0.0000
# 6 0.0000 0.0000 0.0000 0.0000 0.0000 40.7919
#
#
#
# Elastic Compliance Matrix: (Units=1/GPa)
#
#
# Indices 1 2 3 4 5 6 
#
# 1 0.014126 -0.002880 -0.000935 0.000000 0.000000 0.000000
# 2 -0.002880 0.013938 -0.004904 0.000000 0.000000 0.000000
# 3 -0.000935 -0.004904 0.009155 0.000000 0.000000 0.000000
# 4 0.000000 0.000000 0.000000 0.026211 0.000000 0.000000
# 5 0.000000 0.000000 0.000000 0.000000 0.086520 0.000000
# 6 0.000000 0.000000 0.000000 0.000000 0.000000 0.024515
#
#
# Mechanical properties :
#
#
# Convention : Reuss Voigt Hill
#
# Bulk Modulus (GPa) = 50.55456 56.10278 53.32867
# Shear Modulus (GPa) = 25.18924 32.46538 28.82731
#
# Velocity S-wave (km/s) = 3.32385 3.77350 3.55579
# Velocity P-wave (km/s) = 6.07485 6.60245 6.34413
#
# Compressibility (1/GPa) = 0.01978061
#
# Stress axis : x y z
#
# Youngs Moduli (GPa) = 70.78947 71.74851 109.22435
#
# Poissons Ratio (x) = 0.20662 0.10214
# Poissons Ratio (y) = 0.20386 0.53569
# Poissons Ratio (z) = 0.06620 0.35189
#
# Static dielectric constant tensor:
#      x y z
#    x 1.910470 0.000000 0.000000 
#    y 0.000000 1.854630 0.000000 
#    z 0.000000 0.000000 1.866320 
# 
# From -- ./inp_files/13469.got.cif
#   From: 2010.05.17/outbox.cif.g08.bks.cpg/sg56_7_cif.got.tgz:13469.got - 2010.06.03 13:42:01.
