data_PCOD9433901
_publ_section_title
;
Structure prediction by ZEFSAII (Michael W. Deem and Ramdas Pophale) SiO2 
 PCOD9433901
Probable space group: P C C N
;
_chemical_formula_sum "Si O2"
_cell_formula_units_Z 44
_cell_length_a 9.000000
_cell_length_b 30.000000
_cell_length_c 9.000000
_cell_angle_alpha 90.000000
_cell_angle_beta 90.000000
_cell_angle_gamma 90.000000
_cell_volume 2430.000000
_symmetry_space_group_name_H-M "P C C N"
_symmetry_group_IT_number 56
_symmetry_cell_setting 'orthorhombic'
loop_
_space_group_symop_operation_xyz
x,y,z
1/2-x,1/2-y,z
1/2+x,-y,1/2-z
-x,1/2+y,1/2-z
-x,-y,-z
1/2+x,1/2+y,-z
1/2-x,y,1/2+z
x,1/2-y,1/2+z
loop_
_atom_site_type_symbol
_atom_site_label
_atom_site_fract_x
_atom_site_fract_y
_atom_site_fract_z
Si Si1 0.394931 0.907083 0.706786
Si Si2 0.802566 0.569010 0.564709
Si Si3 0.543688 0.905561 0.262645
Si Si4 0.750000 0.250000 0.007353
Si Si5 0.795221 0.460815 0.587683
Si Si6 0.326194 0.678279 0.740660
O O1 0.570355 0.909908 0.672918
O O2 0.353640 0.939466 0.843861
O O3 0.329340 0.932927 0.561721
O O4 0.315393 0.857779 0.726050
O O5 0.847850 0.587837 0.403998
O O6 0.642035 0.584594 0.619344
O O7 0.804774 0.514283 0.567424
O O8 0.420239 0.943623 0.295349
O O9 0.460538 0.857703 0.254316
O O10 0.677808 0.287344 0.118949
O O11 0.831554 0.285871 0.895955
#
# Coordination Sequence:
#
# PCOD9433901 Si02
#       6
#     8   8   8   4   8   8
#     4  10  20  34  55  79 114 143 187 230 269 315
#     4  11  20  34  53  80 117 158 182 218 261 317
#     4  10  22  35  53  79 116 144 185 222 267 319
#     4  10  20  38  68  82 102 128 182 230 288 344
#     4  10  19  34  52  80 114 156 193 221 251 308
#     4  10  21  39  60  87 102 136 177 234 281 331
#
# _framework density 18.106995999999999
#
# number of rings (size 3 to 8) (size 9 to 14) (size 15 to 20)
#    0.000    1.818    0.000    7.636    0.000    4.364 
#    0.000    6.364    0.000   18.545    0.000    0.000 
#    0.000    0.000    0.000    0.000    0.000    0.000 
#
# Total GULP energy -245006.905601 kJ/mol
# GULP energy per Si atom -5568.338764 kJ/mol
# Density = 1.806578 g / cm^3
# Si number density = 18.106996 Si / 1000 Ang^3
#
#
#
# Elastic Constant Matrix: (Units=GPa)
#
#
# Indices 1 2 3 4 5 6 
#
# 1 45.3160 35.0292 30.4158 0.0000 0.0000 0.0000
# 2 35.0292 174.7108 29.6149 0.0000 0.0000 0.0000
# 3 30.4158 29.6149 57.9833 0.0000 0.0000 0.0000
# 4 0.0000 0.0000 0.0000 41.6357 0.0000 0.0000
# 5 0.0000 0.0000 0.0000 0.0000 36.7572 0.0000
# 6 0.0000 0.0000 0.0000 0.0000 0.0000 27.7335
#
#
#
# Elastic Compliance Matrix: (Units=1/GPa)
#
#
# Indices 1 2 3 4 5 6 
#
# 1 0.037065 -0.004528 -0.017130 0.000000 0.000000 0.000000
# 2 -0.004528 0.006819 -0.001108 0.000000 0.000000 0.000000
# 3 -0.017130 -0.001108 0.026798 0.000000 0.000000 0.000000
# 4 0.000000 0.000000 0.000000 0.024018 0.000000 0.000000
# 5 0.000000 0.000000 0.000000 0.000000 0.027206 0.000000
# 6 0.000000 0.000000 0.000000 0.000000 0.000000 0.036057
#
#
# Mechanical properties :
#
#
# Convention : Reuss Voigt Hill
#
# Bulk Modulus (GPa) = 39.76061 52.01442 45.88752
# Shear Modulus (GPa) = 23.59844 33.42195 28.51020
#
# Velocity S-wave (km/s) = 3.61401 4.30094 3.97235
# Velocity P-wave (km/s) = 6.27862 7.31113 6.81446
#
# Compressibility (1/GPa) = 0.02515052
#
# Stress axis : x y z
#
# Youngs Moduli (GPa) = 26.97976 146.64173 37.31611
#
# Poissons Ratio (x) = 0.66395 0.63923
# Poissons Ratio (y) = 0.12216 0.04134
# Poissons Ratio (z) = 0.46217 0.16247
#
# Static dielectric constant tensor:
#      x y z
#    x 1.683770 0.000000 0.000000 
#    y 0.000000 1.569580 0.000000 
#    z 0.000000 0.000000 1.724260 
# 
# From -- ./inp_files/2178.got.cif
#   From: 2010.05.17/outbox.ucp.g08.bks.cvg/sg56_2_cif.got.tgz:2178.got - 2010.06.11 16:37:52.
