data_PCOD9433304
_publ_section_title
;
Structure prediction by ZEFSAII (Michael W. Deem and Ramdas Pophale) SiO2 
 PCOD9433304
Probable space group: P C C N
;
_chemical_formula_sum "Si O2"
_cell_formula_units_Z 32
_cell_length_a 6.879896
_cell_length_b 10.708897
_cell_length_c 19.008963
_cell_angle_alpha 90.000000
_cell_angle_beta 90.000000
_cell_angle_gamma 90.000000
_cell_volume 1400.506214
_symmetry_space_group_name_H-M "P C C N"
_symmetry_group_IT_number 56
_symmetry_cell_setting 'orthorhombic'
loop_
_space_group_symop_operation_xyz
x,y,z
1/2-x,1/2-y,z
1/2+x,-y,1/2-z
-x,1/2+y,1/2-z
-x,-y,-z
1/2+x,1/2+y,-z
1/2-x,y,1/2+z
x,1/2-y,1/2+z
loop_
_atom_site_type_symbol
_atom_site_label
_atom_site_fract_x
_atom_site_fract_y
_atom_site_fract_z
Si Si1 0.217343 0.519284 0.647802
Si Si2 0.490785 0.620766 0.950065
Si Si3 0.089413 0.355005 0.261349
Si Si4 0.250000 0.750000 0.557508
Si Si5 0.750000 0.250000 0.161992
O O1 0.320969 0.468803 0.716624
O O2 0.310144 0.631778 0.604559
O O3 0.180852 0.399915 0.597638
O O4 0.016513 0.584674 0.672078
O O5 0.324852 0.641402 0.890579
O O6 0.500000 0.500000 0.000000
O O7 0.434163 0.724589 0.006718
O O8 0.250000 0.250000 0.277272
O O9 0.925544 0.292481 0.211703
#
# Coordination Sequence:
#
# PCOD9433304 Si02
#       5
#     8   8   8   4   4
#     4  11  23  42  67  99 138 177 232 284 351 408
#     4   9  19  41  67  95 138 178 228 282 336 414
#     4  12  26  43  71 103 139 183 227 298 355 414
#     4   9  21  40  72  92 139 179 230 280 336 419
#     4  11  21  44  66  94 141 177 232 284 346 421
#
# _framework density 22.848879
#
# number of rings (size 3 to 8) (size 9 to 14) (size 15 to 20)
#    0.000    1.500    2.500    2.250    3.500    0.000 
#    0.000   13.750   22.000    0.000    0.000    0.000 
#    0.000    0.000    0.000    0.000    0.000    0.000 
#
# Total GULP energy -178460.135119 kJ/mol
# GULP energy per Si atom -5576.879222 kJ/mol
# Density = 2.279687 g / cm^3
# Si number density = 22.848879 Si / 1000 Ang^3
#
#
#
# Elastic Constant Matrix: (Units=GPa)
#
#
# Indices 1 2 3 4 5 6 
#
# 1 58.5502 48.0394 17.3487 0.0000 0.0000 0.0000
# 2 48.0394 114.4855 50.3685 0.0000 0.0000 0.0000
# 3 17.3487 50.3685 83.5278 0.0000 0.0000 0.0000
# 4 0.0000 0.0000 0.0000 0.6743 0.0000 0.0000
# 5 0.0000 0.0000 0.0000 0.0000 0.6308 0.0000
# 6 0.0000 0.0000 0.0000 0.0000 0.0000 42.2017
#
#
#
# Elastic Compliance Matrix: (Units=1/GPa)
#
#
# Indices 1 2 3 4 5 6 
#
# 1 0.026206 -0.011708 0.001617 0.000000 0.000000 0.000000
# 2 -0.011708 0.017119 -0.007892 0.000000 0.000000 0.000000
# 3 0.001617 -0.007892 0.016395 0.000000 0.000000 0.000000
# 4 0.000000 0.000000 0.000000 1.483001 0.000000 0.000000
# 5 0.000000 0.000000 0.000000 0.000000 1.585333 0.000000
# 6 0.000000 0.000000 0.000000 0.000000 0.000000 0.023696
#
#
# Mechanical properties :
#
#
# Convention : Reuss Voigt Hill
#
# Bulk Modulus (GPa) = 42.09496 54.23076 48.16286
# Shear Modulus (GPa) = 1.56463 18.08849 9.82656
#
# Velocity S-wave (km/s) = 0.82841 2.81669 2.07606
# Velocity P-wave (km/s) = 4.40207 5.86212 5.18375
#
# Compressibility (1/GPa) = 0.02375581
#
# Stress axis : x y z
#
# Youngs Moduli (GPa) = 38.15873 58.41324 60.99443
#
# Poissons Ratio (x) = 0.68389 -0.09863
# Poissons Ratio (y) = 0.44676 0.48134
# Poissons Ratio (z) = -0.06170 0.46097
#
# Static dielectric constant tensor:
#      x y z
#    x 1.873810 0.000000 0.000000 
#    y 0.000000 1.916260 0.000000 
#    z 0.000000 0.000000 1.845310 
# 
# From -- ./inp_files/17295.got.cif
#   From: 2010.05.17/outbox.cif.g08.bks.cpg/sg56_9_cif.got.tgz:17295.got - 2010.06.03 13:42:01.
