data_PCOD9433813
_publ_section_title
;
Structure prediction by ZEFSAII (Michael W. Deem and Ramdas Pophale) SiO2 
 PCOD9433813
Probable space group: P C C N
;
_chemical_formula_sum "Si O2"
_cell_formula_units_Z 28
_cell_length_a 19.273680
_cell_length_b 6.114393
_cell_length_c 10.201395
_cell_angle_alpha 90.000000
_cell_angle_beta 90.000000
_cell_angle_gamma 90.000000
_cell_volume 1202.202308
_symmetry_space_group_name_H-M "P C C N"
_symmetry_group_IT_number 56
_symmetry_cell_setting 'orthorhombic'
loop_
_space_group_symop_operation_xyz
x,y,z
1/2-x,1/2-y,z
1/2+x,-y,1/2-z
-x,1/2+y,1/2-z
-x,-y,-z
1/2+x,1/2+y,-z
1/2-x,y,1/2+z
x,1/2-y,1/2+z
loop_
_atom_site_type_symbol
_atom_site_label
_atom_site_fract_x
_atom_site_fract_y
_atom_site_fract_z
Si Si1 0.077414 0.036075 0.549049
Si Si2 0.381092 0.147858 0.317275
Si Si3 0.250000 0.250000 0.159240
Si Si4 0.322821 0.847717 0.503712
O O1 0.110217 0.165897 0.426109
O O2 0.071526 0.160715 0.688903
O O3 0.131115 0.835697 0.577677
O O4 0.000000 0.000000 0.500000
O O5 0.305304 0.148352 0.255737
O O6 0.380187 0.925778 0.399305
O O7 0.292527 0.439025 0.081191
O O8 0.250000 0.750000 0.451127
#
# Coordination Sequence:
#
# PCOD9433813 Si02
#       4
#     8   8   4   8
#     4  12  31  49  79 113 160 217 261 331 409 495
#     4  12  27  49  73 113 156 197 272 322 400 488
#     4  12  24  48  76 120 148 198 270 336 398 486
#     4  12  25  47  78 114 151 204 264 339 408 472
#
# _framework density 23.290588
#
# number of rings (size 3 to 8) (size 9 to 14) (size 15 to 20)
#    0.000    0.000    5.714    2.571   12.000    1.143 
#    0.000    0.000    0.000    0.000    0.000    0.000 
#    0.000    0.000    0.000    0.000    0.000    0.000 
#
# Total GULP energy -156011.746087 kJ/mol
# GULP energy per Si atom -5571.848075 kJ/mol
# Density = 2.323758 g / cm^3
# Si number density = 23.290588 Si / 1000 Ang^3
#
#
#
# Elastic Constant Matrix: (Units=GPa)
#
#
# Indices 1 2 3 4 5 6 
#
# 1 95.3047 31.3909 6.2017 0.0000 0.0000 0.0000
# 2 31.3909 92.7132 58.2548 0.0000 0.0000 0.0000
# 3 6.2017 58.2548 130.8136 0.0000 0.0000 0.0000
# 4 0.0000 0.0000 0.0000 26.9074 0.0000 0.0000
# 5 0.0000 0.0000 0.0000 0.0000 4.4639 0.0000
# 6 0.0000 0.0000 0.0000 0.0000 0.0000 16.7191
#
#
#
# Elastic Compliance Matrix: (Units=1/GPa)
#
#
# Indices 1 2 3 4 5 6 
#
# 1 0.012087 -0.005182 0.001735 0.000000 0.000000 0.000000
# 2 -0.005182 0.017199 -0.007413 0.000000 0.000000 0.000000
# 3 0.001735 -0.007413 0.010864 0.000000 0.000000 0.000000
# 4 0.000000 0.000000 0.000000 0.037164 0.000000 0.000000
# 5 0.000000 0.000000 0.000000 0.000000 0.224018 0.000000
# 6 0.000000 0.000000 0.000000 0.000000 0.000000 0.059812
#
#
# Mechanical properties :
#
#
# Convention : Reuss Voigt Hill
#
# Bulk Modulus (GPa) = 54.26765 56.72515 55.49640
# Shear Modulus (GPa) = 12.85322 24.48370 18.66846
#
# Velocity S-wave (km/s) = 2.35173 3.24578 2.83423
# Velocity P-wave (km/s) = 5.54301 6.20121 5.88133
#
# Compressibility (1/GPa) = 0.01842718
#
# Stress axis : x y z
#
# Youngs Moduli (GPa) = 82.73550 58.14416 92.05082
#
# Poissons Ratio (x) = 0.30132 -0.15969
# Poissons Ratio (y) = 0.42877 0.68240
# Poissons Ratio (z) = -0.14353 0.43104
#
# Static dielectric constant tensor:
#      x y z
#    x 1.798080 0.000000 0.000000 
#    y 0.000000 2.006040 0.000000 
#    z 0.000000 0.000000 1.959320 
# 
# From -- ./inp_files/8514.got.cif
#   From: 2010.05.17/outbox.cif.g08.bks.cpg/sg56_5_cif.got.tgz:8514.got - 2010.06.03 13:42:01.
