data_PCOD9433671
_publ_section_title
;
Structure prediction by ZEFSAII (Michael W. Deem and Ramdas Pophale) SiO2 
 PCOD9433671
Probable space group: P C C N
;
_chemical_formula_sum "Si O2"
_cell_formula_units_Z 32
_cell_length_a 12.395230
_cell_length_b 4.881620
_cell_length_c 20.456255
_cell_angle_alpha 90.000000
_cell_angle_beta 90.000000
_cell_angle_gamma 90.000000
_cell_volume 1237.783497
_symmetry_space_group_name_H-M "P C C N"
_symmetry_group_IT_number 56
_symmetry_cell_setting 'orthorhombic'
loop_
_space_group_symop_operation_xyz
x,y,z
1/2-x,1/2-y,z
1/2+x,-y,1/2-z
-x,1/2+y,1/2-z
-x,-y,-z
1/2+x,1/2+y,-z
1/2-x,y,1/2+z
x,1/2-y,1/2+z
loop_
_atom_site_type_symbol
_atom_site_label
_atom_site_fract_x
_atom_site_fract_y
_atom_site_fract_z
Si Si1 0.858405 0.947010 0.411975
Si Si2 0.070673 0.787122 0.962229
Si Si3 0.428792 0.915955 0.227653
Si Si4 0.250000 0.250000 0.306284
Si Si5 0.250000 0.750000 0.876390
O O1 0.750000 0.750000 0.409998
O O2 0.874987 0.119490 0.344939
O O3 0.978093 0.817869 0.413664
O O4 0.868851 0.102549 0.482388
O O5 0.163139 0.910945 0.918933
O O6 0.000000 0.000000 0.000000
O O7 0.523936 0.135064 0.243865
O O8 0.330644 0.056495 0.266808
O O9 0.310164 0.490417 0.345488
#
# Coordination Sequence:
#
# PCOD9433671 Si02
#       5
#     8   8   8   4   4
#     4  11  25  47  74 111 152 198 260 322 389 469
#     4  11  26  45  74 109 147 204 252 322 389 459
#     4  12  27  49  76 111 153 203 255 319 390 462
#     4  12  26  50  72 112 150 204 250 314 384 468
#     4  12  28  48  78 108 156 200 260 316 396 460
#
# _framework density 25.852664999999998
#
# number of rings (size 3 to 8) (size 9 to 14) (size 15 to 20)
#    0.000    0.500    1.250    6.000   15.750    0.000 
#    0.000    0.000    0.000    0.000    0.000    0.000 
#    0.000    0.000    0.000    0.000    0.000    0.000 
#
# Total GULP energy -178179.981694 kJ/mol
# GULP energy per Si atom -5568.124428 kJ/mol
# Density = 2.579382 g / cm^3
# Si number density = 25.852665 Si / 1000 Ang^3
#
#
#
# Elastic Constant Matrix: (Units=GPa)
#
#
# Indices 1 2 3 4 5 6 
#
# 1 150.5912 29.5070 43.2635 0.0000 0.0000 0.0000
# 2 29.5070 68.6458 11.4655 0.0000 0.0000 0.0000
# 3 43.2635 11.4655 56.8349 0.0000 0.0000 0.0000
# 4 0.0000 0.0000 0.0000 99.9357 0.0000 0.0000
# 5 0.0000 0.0000 0.0000 0.0000 71.9353 0.0000
# 6 0.0000 0.0000 0.0000 0.0000 0.0000 48.3252
#
#
#
# Elastic Compliance Matrix: (Units=1/GPa)
#
#
# Indices 1 2 3 4 5 6 
#
# 1 0.008997 -0.002818 -0.006280 0.000000 0.000000 0.000000
# 2 -0.002818 0.015958 -0.001074 0.000000 0.000000 0.000000
# 3 -0.006280 -0.001074 0.022592 0.000000 0.000000 0.000000
# 4 0.000000 0.000000 0.000000 0.010006 0.000000 0.000000
# 5 0.000000 0.000000 0.000000 0.000000 0.013901 0.000000
# 6 0.000000 0.000000 0.000000 0.000000 0.000000 0.020693
#
#
# Mechanical properties :
#
#
# Convention : Reuss Voigt Hill
#
# Bulk Modulus (GPa) = 36.76128 49.39375 43.07751
# Shear Modulus (GPa) = 41.13184 56.82832 48.98008
#
# Velocity S-wave (km/s) = 3.99307 4.69354 4.35741
# Velocity P-wave (km/s) = 5.95902 6.96561 6.48189
#
# Compressibility (1/GPa) = 0.02720253
#
# Stress axis : x y z
#
# Youngs Moduli (GPa) = 111.14914 62.66301 44.26363
#
# Poissons Ratio (x) = 0.17661 0.27798
# Poissons Ratio (y) = 0.31326 0.04754
# Poissons Ratio (z) = 0.69802 0.06730
#
# Static dielectric constant tensor:
#      x y z
#    x 2.024850 0.000000 0.000000 
#    y 0.000000 2.033690 0.000000 
#    z 0.000000 0.000000 2.800240 
# 
# From -- ./inp_files/17300.got.cif
#   From: 2010.05.17/outbox.cif.g08.bks.cpg/sg56_9_cif.got.tgz:17300.got - 2010.06.03 13:42:01.
