data_PCOD9433165
_publ_section_title
;
Structure prediction by ZEFSAII (Michael W. Deem and Ramdas Pophale) SiO2 
 PCOD9433165
Probable space group: P C C N
;
_chemical_formula_sum "Si O2"
_cell_formula_units_Z 20
_cell_length_a 5.108529
_cell_length_b 7.685711
_cell_length_c 19.016205
_cell_angle_alpha 90.000000
_cell_angle_beta 90.000000
_cell_angle_gamma 90.000000
_cell_volume 746.627125
_symmetry_space_group_name_H-M "P C C N"
_symmetry_group_IT_number 56
_symmetry_cell_setting 'orthorhombic'
loop_
_space_group_symop_operation_xyz
x,y,z
1/2-x,1/2-y,z
1/2+x,-y,1/2-z
-x,1/2+y,1/2-z
-x,-y,-z
1/2+x,1/2+y,-z
1/2-x,y,1/2+z
x,1/2-y,1/2+z
loop_
_atom_site_type_symbol
_atom_site_label
_atom_site_fract_x
_atom_site_fract_y
_atom_site_fract_z
Si Si1 0.087429 0.601732 0.590832
Si Si2 0.250000 0.250000 0.531964
Si Si3 0.735757 0.047097 0.205146
O O1 0.250000 0.750000 0.629714
O O2 0.259134 0.427599 0.576917
O O3 0.986769 0.696576 0.519779
O O4 0.834380 0.549069 0.635265
O O5 0.750000 0.250000 0.189266
O O6 0.457256 0.000605 0.237418
#
# Coordination Sequence:
#
# PCOD9433165 Si02
#       3
#     8   4   8
#     4  11  26  49  81 115 163 206 267 329 397 479
#     4  10  26  48  78 122 156 210 262 324 404 472
#     4  12  30  52  80 116 159 216 273 331 402 474
#
# _framework density 26.787133000000001
#
# number of rings (size 3 to 8) (size 9 to 14) (size 15 to 20)
#    0.000    0.800    0.000    3.600   16.800    6.400 
#    0.000    0.000    0.000    0.000    0.000    0.000 
#    0.000    0.000    0.000    0.000    0.000    0.000 
#
# Total GULP energy -112242.717791 kJ/mol
# GULP energy per Si atom -5612.135890 kJ/mol
# Density = 2.672616 g / cm^3
# Si number density = 26.787133 Si / 1000 Ang^3
#
#
#
# Elastic Constant Matrix: (Units=GPa)
#
#
# Indices 1 2 3 4 5 6 
#
# 1 19.9679 29.5458 9.5048 0.0000 0.0000 0.0000
# 2 29.5458 206.2161 33.1238 0.0000 0.0000 0.0000
# 3 9.5048 33.1238 90.8782 0.0000 0.0000 0.0000
# 4 0.0000 0.0000 0.0000 38.5897 0.0000 0.0000
# 5 0.0000 0.0000 0.0000 0.0000 -100.6076 0.0000
# 6 0.0000 0.0000 0.0000 0.0000 0.0000 57.2382
#
#
#
# Elastic Compliance Matrix: (Units=1/GPa)
#
#
# Indices 1 2 3 4 5 6 
#
# 1 0.064641 -0.008684 -0.003595 0.000000 0.000000 0.000000
# 2 -0.008684 0.006317 -0.001394 0.000000 0.000000 0.000000
# 3 -0.003595 -0.001394 0.011888 0.000000 0.000000 0.000000
# 4 0.000000 0.000000 0.000000 0.025914 0.000000 0.000000
# 5 0.000000 0.000000 0.000000 0.000000 -0.009940 0.000000
# 6 0.000000 0.000000 0.000000 0.000000 0.000000 0.017471
#
#
# Mechanical properties :
#
#
# Convention : Reuss Voigt Hill
#
# Bulk Modulus (GPa) = 18.01839 51.26789 34.64314
# Shear Modulus (GPa) = 30.83779 15.36993 23.10386
#
# Velocity S-wave (km/s) = 3.39664 2.39797 2.94002
# Velocity P-wave (km/s) = 4.70361 5.18146 4.94831
#
# Compressibility (1/GPa) = 0.05549885
#
# Stress axis : x y z
#
# Youngs Moduli (GPa) = 15.47004 158.29132 84.11834
#
# Poissons Ratio (x) = 1.37460 0.30245
# Poissons Ratio (y) = 0.13434 0.11729
# Poissons Ratio (z) = 0.05562 0.22072
#
# Static dielectric constant tensor:
#      x y z
#    x 2.064870 0.000000 0.000000 
#    y 0.000000 2.030960 0.000000 
#    z 0.000000 0.000000 2.176350 
# 
# From -- ./inp_files/17151.got.cif
#   From: 2010.05.17/outbox.cif.g08.bks.cpg/sg56_9_cif.got.tgz:17151.got - 2010.06.03 13:42:01.
