data_PCOD9433658
_publ_section_title
;
Structure prediction by ZEFSAII (Michael W. Deem and Ramdas Pophale) SiO2 
 PCOD9433658
Probable space group: P C C N
;
_chemical_formula_sum "Si O2"
_cell_formula_units_Z 48
_cell_length_a 9.786758
_cell_length_b 8.126275
_cell_length_c 26.812069
_cell_angle_alpha 90.000000
_cell_angle_beta 90.000000
_cell_angle_gamma 90.000000
_cell_volume 2132.360814
_symmetry_space_group_name_H-M "P C C N"
_symmetry_group_IT_number 56
_symmetry_cell_setting 'orthorhombic'
loop_
_space_group_symop_operation_xyz
x,y,z
1/2-x,1/2-y,z
1/2+x,-y,1/2-z
-x,1/2+y,1/2-z
-x,-y,-z
1/2+x,1/2+y,-z
1/2-x,y,1/2+z
x,1/2-y,1/2+z
loop_
_atom_site_type_symbol
_atom_site_label
_atom_site_fract_x
_atom_site_fract_y
_atom_site_fract_z
Si Si1 0.463513 0.629134 0.371543
Si Si2 0.129062 0.944935 0.031327
Si Si3 0.612063 0.650809 0.193679
Si Si4 0.750000 0.750000 0.405200
Si Si5 0.895392 0.284084 0.733291
Si Si6 0.250000 0.750000 0.448662
Si Si7 0.409783 0.261768 0.412647
O O1 0.622115 0.678035 0.374653
O O2 0.413994 0.669090 0.315672
O O3 0.378979 0.735983 0.412193
O O4 0.432744 0.443597 0.389647
O O5 0.051205 0.791949 0.059363
O O6 0.190614 0.093945 0.063570
O O7 0.237526 0.896825 0.988487
O O8 0.000000 0.000000 0.000000
O O9 0.750000 0.750000 0.201931
O O10 0.502582 0.753633 0.223974
O O11 0.604474 0.469181 0.214611
O O12 0.592668 0.640639 0.134623
O O13 0.750000 0.250000 0.756670
O O14 0.250000 0.250000 0.433664
#
# Coordination Sequence:
#
# PCOD9433658 Si02
#       7
#     8   8   8   4   8   4   8
#     4  12  26  45  74 104 144 188 239 296 367 429
#     4  12  26  44  70 103 143 185 244 296 365 424
#     4  11  25  45  74 107 142 187 240 293 359 428
#     4  12  28  46  68 108 142 192 238 310 356 434
#     4  12  24  47  73 107 144 189 233 295 362 439
#     4  12  26  44  72 100 140 190 240 296 354 438
#     4  11  25  47  75 107 144 192 241 302 360 436
#
# _framework density 22.510262999999998
#
# number of rings (size 3 to 8) (size 9 to 14) (size 15 to 20)
#    0.000    0.333    2.500    7.000    4.667    1.333 
#   10.500    0.000    0.000    0.000    0.000    0.000 
#    0.000    0.000    0.000    0.000    0.000    0.000 
#
# Total GULP energy -268103.919163 kJ/mol
# GULP energy per Si atom -5585.498316 kJ/mol
# Density = 2.245903 g / cm^3
# Si number density = 22.510263 Si / 1000 Ang^3
#
#
#
# Elastic Constant Matrix: (Units=GPa)
#
#
# Indices 1 2 3 4 5 6 
#
# 1 124.5611 -5.0487 40.7093 0.0000 0.0000 0.0000
# 2 -5.0487 73.6835 -4.8225 0.0000 0.0000 0.0000
# 3 40.7093 -4.8225 45.9975 0.0000 0.0000 0.0000
# 4 0.0000 0.0000 0.0000 40.5418 0.0000 0.0000
# 5 0.0000 0.0000 0.0000 0.0000 -17.7332 0.0000
# 6 0.0000 0.0000 0.0000 0.0000 0.0000 26.5211
#
#
#
# Elastic Compliance Matrix: (Units=1/GPa)
#
#
# Indices 1 2 3 4 5 6 
#
# 1 0.011296 0.000121 -0.009985 0.000000 0.000000 0.000000
# 2 0.000121 0.013667 0.001326 0.000000 0.000000 0.000000
# 3 -0.009985 0.001326 0.030716 0.000000 0.000000 0.000000
# 4 0.000000 0.000000 0.000000 0.024666 0.000000 0.000000
# 5 0.000000 0.000000 0.000000 0.000000 -0.056392 0.000000
# 6 0.000000 0.000000 0.000000 0.000000 0.000000 0.037706
#
#
# Mechanical properties :
#
#
# Convention : Reuss Voigt Hill
#
# Bulk Modulus (GPa) = 25.90491 33.99094 29.94793
# Shear Modulus (GPa) = 54.58283 24.09289 39.33786
#
# Velocity S-wave (km/s) = 4.92957 3.27510 4.18491
# Velocity P-wave (km/s) = 6.62826 5.42538 6.05676
#
# Compressibility (1/GPa) = 0.03860271
#
# Stress axis : x y z
#
# Youngs Moduli (GPa) = 88.52371 73.17105 32.55586
#
# Poissons Ratio (x) = -0.00882 0.32507
# Poissons Ratio (y) = -0.01067 -0.04317
# Poissons Ratio (z) = 0.88391 -0.09704
#
# Static dielectric constant tensor:
#      x y z
#    x 1.780930 0.000000 0.000000 
#    y 0.000000 1.950820 0.000000 
#    z 0.000000 0.000000 1.886900 
# 
# From -- ./inp_files/23279.got.cif
#   From: 2010.05.17/outbox.cif.g08.bks.cpg/sg56_12_cif.got.tgz:23279.got - 2010.06.03 13:42:01.
