data_PCOD9433305
_publ_section_title
;
Structure prediction by ZEFSAII (Michael W. Deem and Ramdas Pophale) SiO2 
 PCOD9433305
Probable space group: P C C N
;
_chemical_formula_sum "Si O2"
_cell_formula_units_Z 60
_cell_length_a 9.312736
_cell_length_b 12.025370
_cell_length_c 22.222087
_cell_angle_alpha 90.000000
_cell_angle_beta 90.000000
_cell_angle_gamma 90.000000
_cell_volume 2488.631437
_symmetry_space_group_name_H-M "P C C N"
_symmetry_group_IT_number 56
_symmetry_cell_setting 'orthorhombic'
loop_
_space_group_symop_operation_xyz
x,y,z
1/2-x,1/2-y,z
1/2+x,-y,1/2-z
-x,1/2+y,1/2-z
-x,-y,-z
1/2+x,1/2+y,-z
1/2-x,y,1/2+z
x,1/2-y,1/2+z
loop_
_atom_site_type_symbol
_atom_site_label
_atom_site_fract_x
_atom_site_fract_y
_atom_site_fract_z
Si Si1 0.455889 0.075618 0.127705
Si Si2 0.814097 0.580984 0.985129
Si Si3 0.855587 0.353628 0.487323
Si Si4 0.250000 0.250000 0.915380
Si Si5 0.149088 0.103313 0.326070
Si Si6 0.663020 0.517805 0.805323
Si Si7 0.435708 0.172758 0.598881
Si Si8 0.912753 0.204491 0.853646
O O1 0.448707 0.050440 0.056248
O O2 0.320014 0.021335 0.162698
O O3 0.450624 0.208216 0.130807
O O4 0.596359 0.015881 0.151448
O O5 0.712301 0.642208 0.935496
O O6 0.726779 0.469312 0.997797
O O7 0.837358 0.670928 0.037610
O O8 0.750000 0.250000 0.486948
O O9 0.933196 0.347486 0.421605
O O10 0.956105 0.337604 0.544188
O O11 0.221082 0.151701 0.866036
O O12 0.178265 0.085007 0.256367
O O13 0.020745 0.193540 0.339268
O O14 0.554912 0.583693 0.848587
O O15 0.599170 0.393709 0.804362
O O16 0.750000 0.250000 0.855875
#
# Coordination Sequence:
#
# PCOD9433305 Si02
#       8
#     8   8   8   4   8   8   8   8
#     4  11  23  48  72  96 138 196 234 283 372 429
#     4  11  21  44  68 102 140 181 231 291 360 431
#     4  11  23  40  68 104 141 177 233 295 360 430
#     4  12  28  42  68 112 146 174 240 310 352 412
#     4  12  29  44  73 106 143 188 241 305 347 433
#     4  11  25  46  70  97 138 192 240 283 350 437
#     4  11  23  41  70  99 135 186 233 284 357 431
#     4  11  22  48  72 101 135 186 235 287 367 428
#
# _framework density 24.109638
#
# number of rings (size 3 to 8) (size 9 to 14) (size 15 to 20)
#    0.000    0.800    5.333    3.200    7.467    0.533 
#    0.000    0.667    0.000    0.000    0.000    0.000 
#    0.000    0.000    0.000    0.000    0.000    0.000 
#
# Total GULP energy -334989.519339 kJ/mol
# GULP energy per Si atom -5583.158656 kJ/mol
# Density = 2.405476 g / cm^3
# Si number density = 24.109638 Si / 1000 Ang^3
#
#
#
# Elastic Constant Matrix: (Units=GPa)
#
#
# Indices 1 2 3 4 5 6 
#
# 1 44.3835 26.1593 19.3384 0.0000 0.0000 0.0000
# 2 26.1593 139.4188 28.8816 0.0000 0.0000 0.0000
# 3 19.3384 28.8816 151.3633 0.0000 0.0000 0.0000
# 4 0.0000 0.0000 0.0000 42.9979 0.0000 0.0000
# 5 0.0000 0.0000 0.0000 0.0000 20.2213 0.0000
# 6 0.0000 0.0000 0.0000 0.0000 0.0000 33.8091
#
#
#
# Elastic Compliance Matrix: (Units=1/GPa)
#
#
# Indices 1 2 3 4 5 6 
#
# 1 0.026218 -0.004399 -0.002510 0.000000 0.000000 0.000000
# 2 -0.004399 0.008206 -0.001004 0.000000 0.000000 0.000000
# 3 -0.002510 -0.001004 0.007119 0.000000 0.000000 0.000000
# 4 0.000000 0.000000 0.000000 0.023257 0.000000 0.000000
# 5 0.000000 0.000000 0.000000 0.000000 0.049453 0.000000
# 6 0.000000 0.000000 0.000000 0.000000 0.000000 0.029578
#
#
# Mechanical properties :
#
#
# Convention : Reuss Voigt Hill
#
# Bulk Modulus (GPa) = 38.88617 53.76936 46.32776
# Shear Modulus (GPa) = 29.72155 36.79143 33.25649
#
# Velocity S-wave (km/s) = 3.51489 3.91065 3.71804
# Velocity P-wave (km/s) = 5.71283 6.53769 6.13913
#
# Compressibility (1/GPa) = 0.02571609
#
# Stress axis : x y z
#
# Youngs Moduli (GPa) = 38.14245 121.86213 140.47216
#
# Poissons Ratio (x) = 0.53610 0.35261
# Poissons Ratio (y) = 0.16780 0.14100
# Poissons Ratio (z) = 0.09574 0.12232
#
# Static dielectric constant tensor:
#      x y z
#    x 2.206740 0.000000 0.000000 
#    y 0.000000 1.916720 0.000000 
#    z 0.000000 0.000000 1.923740 
# 
# From -- ./inp_files/18817.got.cif
#   From: 2010.05.17/outbox.cif.g08.bks.cpg/sg56_10_cif.got.tgz:18817.got - 2010.06.03 13:42:01.
