data_PCOD9433235
_publ_section_title
;
Structure prediction by ZEFSAII (Michael W. Deem and Ramdas Pophale) SiO2 
 PCOD9433235
Probable space group: P C C N
;
_chemical_formula_sum "Si O2"
_cell_formula_units_Z 36
_cell_length_a 10.344231
_cell_length_b 12.764557
_cell_length_c 9.935839
_cell_angle_alpha 90.000000
_cell_angle_beta 90.000000
_cell_angle_gamma 90.000000
_cell_volume 1311.923474
_symmetry_space_group_name_H-M "P C C N"
_symmetry_group_IT_number 56
_symmetry_cell_setting 'orthorhombic'
loop_
_space_group_symop_operation_xyz
x,y,z
1/2-x,1/2-y,z
1/2+x,-y,1/2-z
-x,1/2+y,1/2-z
-x,-y,-z
1/2+x,1/2+y,-z
1/2-x,y,1/2+z
x,1/2-y,1/2+z
loop_
_atom_site_type_symbol
_atom_site_label
_atom_site_fract_x
_atom_site_fract_y
_atom_site_fract_z
Si Si1 0.984588 0.583220 0.622053
Si Si2 0.523061 0.693773 0.703952
Si Si3 0.211216 0.455520 0.915449
Si Si4 0.735942 0.135493 0.873191
Si Si5 0.250000 0.250000 0.096241
O O1 0.973111 0.709427 0.598175
O O2 0.842582 0.549179 0.675853
O O3 0.000000 0.500000 0.500000
O O4 0.129290 0.590739 0.686282
O O5 0.583183 0.584982 0.655668
O O6 0.375628 0.664890 0.733773
O O7 0.621593 0.735406 0.814292
O O8 0.196997 0.556139 0.008698
O O9 0.236912 0.356639 0.014040
O O10 0.750000 0.250000 0.939945
#
# Coordination Sequence:
#
# PCOD9433235 Si02
#       5
#     8   8   8   8   4
#     4   9  17  36  65  81 117 158 194 247 310 352
#     4  11  20  40  60  89 122 156 207 251 298 370
#     4  11  20  40  64  90 119 161 208 247 308 375
#     4   9  21  38  65  87 117 160 200 256 314 355
#     4  12  22  36  64  90 122 162 202 246 302 376
#
# _framework density 27.440625000000001
#
# number of rings (size 3 to 8) (size 9 to 14) (size 15 to 20)
#    0.000    1.778    4.444    0.667    0.000    0.000 
#   12.000    0.000   14.667    0.000    0.000    0.000 
#    0.000    0.000    0.000    0.000    0.000    0.000 
#
# Total GULP energy -200901.070994 kJ/mol
# GULP energy per Si atom -5580.585305 kJ/mol
# Density = 2.737817 g / cm^3
# Si number density = 27.440625 Si / 1000 Ang^3
#
#
#
# Elastic Constant Matrix: (Units=GPa)
#
#
# Indices 1 2 3 4 5 6 
#
# 1 222.1530 1.9962 17.7233 0.0000 0.0000 0.0000
# 2 1.9962 244.2423 33.3176 0.0000 0.0000 0.0000
# 3 17.7233 33.3176 44.2228 0.0000 0.0000 0.0000
# 4 0.0000 0.0000 0.0000 40.7868 0.0000 0.0000
# 5 0.0000 0.0000 0.0000 0.0000 3.2640 0.0000
# 6 0.0000 0.0000 0.0000 0.0000 0.0000 47.6704
#
#
#
# Elastic Compliance Matrix: (Units=1/GPa)
#
#
# Indices 1 2 3 4 5 6 
#
# 1 0.004663 0.000242 -0.002051 0.000000 0.000000 0.000000
# 2 0.000242 0.004576 -0.003544 0.000000 0.000000 0.000000
# 3 -0.002051 -0.003544 0.026105 0.000000 0.000000 0.000000
# 4 0.000000 0.000000 0.000000 0.024518 0.000000 0.000000
# 5 0.000000 0.000000 0.000000 0.000000 0.306376 0.000000
# 6 0.000000 0.000000 0.000000 0.000000 0.000000 0.020977
#
#
# Mechanical properties :
#
#
# Convention : Reuss Voigt Hill
#
# Bulk Modulus (GPa) = 40.58979 68.52138 54.55559
# Shear Modulus (GPa) = 12.31121 48.84963 30.58042
#
# Velocity S-wave (km/s) = 2.12043 4.22381 3.34192
# Velocity P-wave (km/s) = 4.56278 6.98659 5.90048
#
# Compressibility (1/GPa) = 0.02463674
#
# Stress axis : x y z
#
# Youngs Moduli (GPa) = 214.46141 218.54096 38.30692
#
# Poissons Ratio (x) = -0.05281 0.07856
# Poissons Ratio (y) = -0.05182 0.13577
# Poissons Ratio (z) = 0.43982 0.77457
#
# Static dielectric constant tensor:
#      x y z
#    x 2.325220 0.000000 0.000000 
#    y 0.000000 2.105790 0.000000 
#    z 0.000000 0.000000 2.183990 
# 
# From -- ./inp_files/6857.got.cif
#   From: 2010.05.17/outbox.cif.g08.bks.cpg/sg56_4_cif.got.tgz:6857.got - 2010.06.03 13:42:01.
