data_PCOD9433459
_publ_section_title
;
Structure prediction by ZEFSAII (Michael W. Deem and Ramdas Pophale) SiO2 
 PCOD9433459
Probable space group: P C C N
;
_chemical_formula_sum "Si O2"
_cell_formula_units_Z 48
_cell_length_a 28.760142
_cell_length_b 8.981069
_cell_length_c 8.800569
_cell_angle_alpha 90.000000
_cell_angle_beta 90.000000
_cell_angle_gamma 90.000000
_cell_volume 2273.158985
_symmetry_space_group_name_H-M "P C C N"
_symmetry_group_IT_number 56
_symmetry_cell_setting 'orthorhombic'
loop_
_space_group_symop_operation_xyz
x,y,z
1/2-x,1/2-y,z
1/2+x,-y,1/2-z
-x,1/2+y,1/2-z
-x,-y,-z
1/2+x,1/2+y,-z
1/2-x,y,1/2+z
x,1/2-y,1/2+z
loop_
_atom_site_type_symbol
_atom_site_label
_atom_site_fract_x
_atom_site_fract_y
_atom_site_fract_z
Si Si1 0.538624 0.557278 0.886872
Si Si2 0.805709 0.126267 0.486146
Si Si3 0.986000 0.905821 0.353959
Si Si4 0.637718 0.635125 0.999281
Si Si5 0.380500 0.441741 0.660443
Si Si6 0.787089 0.056589 0.842408
O O1 0.529597 0.446061 0.749781
O O2 0.524172 0.729464 0.857496
O O3 0.500000 0.500000 0.000000
O O4 0.591081 0.552297 0.942933
O O5 0.796430 0.092072 0.664352
O O6 0.767171 0.038788 0.384282
O O7 0.800096 0.299342 0.444947
O O8 0.855312 0.077059 0.421989
O O9 0.935009 0.966823 0.306992
O O10 0.000000 0.000000 0.500000
O O11 0.641995 0.604861 0.178402
O O12 0.626894 0.805822 0.957738
O O13 0.681457 0.576918 0.903989
#
# Coordination Sequence:
#
# PCOD9433459 Si02
#       6
#     8   8   8   8   8   8
#     4  11  23  44  63  94 130 173 219 272 325 389
#     4  11  23  42  67  95 131 164 214 260 326 377
#     4  11  25  40  67  92 132 173 221 270 330 388
#     4  11  24  42  66  91 131 167 215 264 324 382
#     4  11  24  43  64  94 127 170 213 267 321 387
#     4  11  23  42  67  96 129 168 208 268 316 387
#
# _framework density 21.115991000000001
#
# number of rings (size 3 to 8) (size 9 to 14) (size 15 to 20)
#    0.000    1.000    1.667    6.000    9.333    3.333 
#    0.000    3.333    0.000    0.000    0.000    0.000 
#    0.000    0.000    0.000    0.000    0.000    0.000 
#
# Total GULP energy -267880.897871 kJ/mol
# GULP energy per Si atom -5580.852039 kJ/mol
# Density = 2.106793 g / cm^3
# Si number density = 21.115991 Si / 1000 Ang^3
#
#
#
# Elastic Constant Matrix: (Units=GPa)
#
#
# Indices 1 2 3 4 5 6 
#
# 1 56.6166 14.9579 -23.2641 0.0000 0.0000 0.0000
# 2 14.9579 25.5659 -14.6638 0.0000 0.0000 0.0000
# 3 -23.2641 -14.6638 92.3421 0.0000 0.0000 0.0000
# 4 0.0000 0.0000 0.0000 27.6427 0.0000 0.0000
# 5 0.0000 0.0000 0.0000 0.0000 35.2510 0.0000
# 6 0.0000 0.0000 0.0000 0.0000 0.0000 39.6785
#
#
#
# Elastic Compliance Matrix: (Units=1/GPa)
#
#
# Indices 1 2 3 4 5 6 
#
# 1 0.022077 -0.010701 0.003863 0.000000 0.000000 0.000000
# 2 -0.010701 0.048221 0.004961 0.000000 0.000000 0.000000
# 3 0.003863 0.004961 0.012590 0.000000 0.000000 0.000000
# 4 0.000000 0.000000 0.000000 0.036176 0.000000 0.000000
# 5 0.000000 0.000000 0.000000 0.000000 0.028368 0.000000
# 6 0.000000 0.000000 0.000000 0.000000 0.000000 0.025203
#
#
# Mechanical properties :
#
#
# Convention : Reuss Voigt Hill
#
# Bulk Modulus (GPa) = 12.63673 14.28719 13.46196
# Shear Modulus (GPa) = 24.65878 33.68075 29.16977
#
# Velocity S-wave (km/s) = 3.42098 3.99812 3.72076
# Velocity P-wave (km/s) = 4.64775 5.30038 4.98476
#
# Compressibility (1/GPa) = 0.07913437
#
# Stress axis : x y z
#
# Youngs Moduli (GPa) = 45.29586 20.73774 79.42622
#
# Poissons Ratio (x) = 0.22192 -0.30679
# Poissons Ratio (y) = 0.48472 -0.39407
# Poissons Ratio (z) = -0.17496 -0.10289
#
# Static dielectric constant tensor:
#      x y z
#    x 1.738240 0.000000 0.000000 
#    y 0.000000 1.748150 0.000000 
#    z 0.000000 0.000000 1.713680 
# 
# From -- ./inp_files/4938.got.cif
#   From: 2010.05.17/outbox.cif.g08.bks.cpg/sg56_3_cif.got.tgz:4938.got - 2010.06.03 13:42:01.
