data_PCOD9433903
_publ_section_title
;
Structure prediction by ZEFSAII (Michael W. Deem and Ramdas Pophale) SiO2 
 PCOD9433903
Probable space group: P C C N
;
_chemical_formula_sum "Si O2"
_cell_formula_units_Z 56
_cell_length_a 21.000000
_cell_length_b 9.000000
_cell_length_c 15.000000
_cell_angle_alpha 90.000000
_cell_angle_beta 90.000000
_cell_angle_gamma 90.000000
_cell_volume 2835.000000
_symmetry_space_group_name_H-M "P C C N"
_symmetry_group_IT_number 56
_symmetry_cell_setting 'orthorhombic'
loop_
_space_group_symop_operation_xyz
x,y,z
1/2-x,1/2-y,z
1/2+x,-y,1/2-z
-x,1/2+y,1/2-z
-x,-y,-z
1/2+x,1/2+y,-z
1/2-x,y,1/2+z
x,1/2-y,1/2+z
loop_
_atom_site_type_symbol
_atom_site_label
_atom_site_fract_x
_atom_site_fract_y
_atom_site_fract_z
Si Si1 0.178015 0.021906 0.085494
Si Si2 0.362149 0.281218 0.714356
Si Si3 0.456659 0.850098 0.002619
Si Si4 0.991780 0.305238 0.679861
Si Si5 0.546864 0.130694 0.349236
Si Si6 0.672177 0.498996 0.435799
Si Si7 0.174663 0.265515 0.421937
O O1 0.177908 0.152269 0.161672
O O2 0.251232 0.961837 0.071248
O O3 0.117992 0.921825 0.118769
O O4 0.161165 0.096802 0.989332
O O5 0.436050 0.253892 0.691889
O O6 0.343362 0.430728 0.661316
O O7 0.354100 0.275534 0.821930
O O8 0.483615 0.730137 0.072740
O O9 0.384355 0.885628 0.036266
O O10 0.461025 0.768952 0.907496
O O11 0.500000 0.000000 0.000000
O O12 0.004297 0.483113 0.671365
O O13 0.952938 0.240018 0.763851
O O14 0.661652 0.623886 0.513579
O O15 0.250000 0.250000 0.405850
#
# Coordination Sequence:
#
# PCOD9433903 Si02
#       7
#     8   8   8   8   8   8   8
#     4   9  21  40  62 100 134 184 232 289 349 408
#     4  10  19  35  65  97 139 180 236 286 341 419
#     4  12  25  44  67  98 139 183 226 290 350 415
#     4  11  25  42  68 102 133 182 232 283 357 416
#     4  11  26  46  70  99 142 176 234 291 344 430
#     4  10  21  38  65  96 138 183 232 287 353 419
#     4   9  18  34  63  98 134 181 234 283 343 416
#
# _framework density 19.753086
#
# number of rings (size 3 to 8) (size 9 to 14) (size 15 to 20)
#    0.000    1.714    1.429    3.429    6.000    1.714 
#    0.000    0.000    0.000    1.714    0.000    0.000 
#    0.000    0.000    0.000    0.000    0.000    0.000 
#
# Total GULP energy -312381.651997 kJ/mol
# GULP energy per Si atom -5578.243786 kJ/mol
# Density = 1.970813 g / cm^3
# Si number density = 19.753086 Si / 1000 Ang^3
#
#
#
# Elastic Constant Matrix: (Units=GPa)
#
#
# Indices 1 2 3 4 5 6 
#
# 1 100.0339 41.0760 27.0250 0.0000 0.0000 0.0000
# 2 41.0760 105.2320 48.3847 0.0000 0.0000 0.0000
# 3 27.0250 48.3847 178.6730 0.0000 0.0000 0.0000
# 4 0.0000 0.0000 0.0000 37.9582 0.0000 0.0000
# 5 0.0000 0.0000 0.0000 0.0000 41.9987 0.0000
# 6 0.0000 0.0000 0.0000 0.0000 0.0000 35.6692
#
#
#
# Elastic Compliance Matrix: (Units=1/GPa)
#
#
# Indices 1 2 3 4 5 6 
#
# 1 0.011965 -0.004384 -0.000623 0.000000 0.000000 0.000000
# 2 -0.004384 0.012461 -0.002711 0.000000 0.000000 0.000000
# 3 -0.000623 -0.002711 0.006425 0.000000 0.000000 0.000000
# 4 0.000000 0.000000 0.000000 0.026345 0.000000 0.000000
# 5 0.000000 0.000000 0.000000 0.000000 0.023810 0.000000
# 6 0.000000 0.000000 0.000000 0.000000 0.000000 0.028035
#
#
# Mechanical properties :
#
#
# Convention : Reuss Voigt Hill
#
# Bulk Modulus (GPa) = 64.87167 68.54560 66.70863
# Shear Modulus (GPa) = 38.57562 40.95544 39.76553
#
# Velocity S-wave (km/s) = 4.42395 4.55837 4.49166
# Velocity P-wave (km/s) = 7.68164 7.90452 7.79388
#
# Compressibility (1/GPa) = 0.01541505
#
# Stress axis : x y z
#
# Youngs Moduli (GPa) = 83.57696 80.25217 155.63765
#
# Poissons Ratio (x) = 0.35184 0.09689
# Poissons Ratio (y) = 0.36642 0.42197
# Poissons Ratio (z) = 0.05203 0.21758
#
# Static dielectric constant tensor:
#      x y z
#    x 1.723230 0.000000 0.000000 
#    y 0.000000 1.748720 0.000000 
#    z 0.000000 0.000000 1.692840 
# 
# From -- ./inp_files/13059.got.cif
#   From: 2010.05.17/outbox.ucp.g08.bks.cvg/sg56_7_cif.got.tgz:13059.got - 2010.06.11 16:37:52.
