data_PCOD9433174
_publ_section_title
;
Structure prediction by ZEFSAII (Michael W. Deem and Ramdas Pophale) SiO2 
 PCOD9433174
Probable space group: P C C N
;
_chemical_formula_sum "Si O2"
_cell_formula_units_Z 28
_cell_length_a 18.983917
_cell_length_b 5.387258
_cell_length_c 9.525929
_cell_angle_alpha 90.000000
_cell_angle_beta 90.000000
_cell_angle_gamma 90.000000
_cell_volume 974.228749
_symmetry_space_group_name_H-M "P C C N"
_symmetry_group_IT_number 56
_symmetry_cell_setting 'orthorhombic'
loop_
_space_group_symop_operation_xyz
x,y,z
1/2-x,1/2-y,z
1/2+x,-y,1/2-z
-x,1/2+y,1/2-z
-x,-y,-z
1/2+x,1/2+y,-z
1/2-x,y,1/2+z
x,1/2-y,1/2+z
loop_
_atom_site_type_symbol
_atom_site_label
_atom_site_fract_x
_atom_site_fract_y
_atom_site_fract_z
Si Si1 0.900694 0.064970 0.515564
Si Si2 0.095126 0.300943 0.264811
Si Si3 0.250000 0.250000 0.230949
Si Si4 0.500000 0.500000 0.000000
Si Si5 0.250000 0.750000 0.061402
O O1 0.952163 0.264572 0.453007
O O2 0.820480 0.157486 0.514572
O O3 0.910406 0.831072 0.403582
O O4 0.918761 0.965247 0.667958
O O5 0.178168 0.336730 0.304158
O O6 0.048241 0.486255 0.353130
O O7 0.270673 0.499947 0.146513
#
# Coordination Sequence:
#
# PCOD9433174 Si02
#       5
#     8   8   4   4   4
#     4  11  29  52  87 125 171 231 291 370 446 533
#     4  11  29  50  86 122 174 224 293 362 448 523
#     4  10  26  50  84 128 166 228 286 372 440 528
#     4  12  30  48  84 128 174 226 288 364 446 536
#     4  10  26  50  90 124 174 218 302 358 448 526
#
# _framework density 28.740683000000001
#
# number of rings (size 3 to 8) (size 9 to 14) (size 15 to 20)
#    0.000    1.143    0.000    0.857   24.000    1.143 
#    0.000    0.000    0.000    0.000    0.000    0.000 
#    0.000    0.000    0.000    0.000    0.000    0.000 
#
# Total GULP energy -156163.684026 kJ/mol
# GULP energy per Si atom -5577.274429 kJ/mol
# Density = 2.867527 g / cm^3
# Si number density = 28.740683 Si / 1000 Ang^3
#
#
#
# Elastic Constant Matrix: (Units=GPa)
#
#
# Indices 1 2 3 4 5 6 
#
# 1 173.1022 7.3490 64.3501 0.0000 0.0000 0.0000
# 2 7.3490 163.1824 82.3676 0.0000 0.0000 0.0000
# 3 64.3501 82.3676 156.3702 0.0000 0.0000 0.0000
# 4 0.0000 0.0000 0.0000 56.5550 0.0000 0.0000
# 5 0.0000 0.0000 0.0000 0.0000 49.0437 0.0000
# 6 0.0000 0.0000 0.0000 0.0000 0.0000 51.9559
#
#
#
# Elastic Compliance Matrix: (Units=1/GPa)
#
#
# Indices 1 2 3 4 5 6 
#
# 1 0.007105 0.001575 -0.003753 0.000000 0.000000 0.000000
# 2 0.001575 0.008696 -0.005229 0.000000 0.000000 0.000000
# 3 -0.003753 -0.005229 0.010694 0.000000 0.000000 0.000000
# 4 0.000000 0.000000 0.000000 0.017682 0.000000 0.000000
# 5 0.000000 0.000000 0.000000 0.000000 0.020390 0.000000
# 6 0.000000 0.000000 0.000000 0.000000 0.000000 0.019247
#
#
# Mechanical properties :
#
#
# Convention : Reuss Voigt Hill
#
# Bulk Modulus (GPa) = 85.61280 88.97646 87.29463
# Shear Modulus (GPa) = 48.76916 54.08346 51.42631
#
# Velocity S-wave (km/s) = 4.12378 4.34265 4.23463
# Velocity P-wave (km/s) = 7.24753 7.49469 7.37215
#
# Compressibility (1/GPa) = 0.01168050
#
# Stress axis : x y z
#
# Youngs Moduli (GPa) = 140.73766 114.98881 93.51043
#
# Poissons Ratio (x) = -0.18106 0.35099
# Poissons Ratio (y) = -0.22160 0.48895
# Poissons Ratio (z) = 0.52825 0.60126
#
# Static dielectric constant tensor:
#      x y z
#    x 1.695250 0.000000 0.000000 
#    y 0.000000 1.954900 0.000000 
#    z 0.000000 0.000000 -1.049780 
# 
# From -- ./inp_files/4655.got.cif
#   From: 2010.05.17/outbox.cif.g08.bks.cpg/sg56_3_cif.got.tgz:4655.got - 2010.06.03 13:42:01.
