data_PCOD9433569
_publ_section_title
;
Structure prediction by ZEFSAII (Michael W. Deem and Ramdas Pophale) SiO2 
 PCOD9433569
Probable space group: P C C N
;
_chemical_formula_sum "Si O2"
_cell_formula_units_Z 40
_cell_length_a 28.103949
_cell_length_b 5.266968
_cell_length_c 9.109238
_cell_angle_alpha 90.000000
_cell_angle_beta 90.000000
_cell_angle_gamma 90.000000
_cell_volume 1348.373093
_symmetry_space_group_name_H-M "P C C N"
_symmetry_group_IT_number 56
_symmetry_cell_setting 'orthorhombic'
loop_
_space_group_symop_operation_xyz
x,y,z
1/2-x,1/2-y,z
1/2+x,-y,1/2-z
-x,1/2+y,1/2-z
-x,-y,-z
1/2+x,1/2+y,-z
1/2-x,y,1/2+z
x,1/2-y,1/2+z
loop_
_atom_site_type_symbol
_atom_site_label
_atom_site_fract_x
_atom_site_fract_y
_atom_site_fract_z
Si Si1 0.001364 0.792591 0.847602
Si Si2 0.600300 0.176380 0.161553
Si Si3 0.699434 0.386632 0.054180
Si Si4 0.302586 0.286014 0.180395
Si Si5 0.902764 0.829063 0.346579
O O1 0.051148 0.731385 0.925626
O O2 0.999001 0.572008 0.722788
O O3 0.950911 0.752457 0.928422
O O4 0.650700 0.244534 0.093405
O O5 0.593697 0.388241 0.286973
O O6 0.600393 0.889827 0.220559
O O7 0.750000 0.250000 0.080880
O O8 0.698909 0.634055 0.165888
O O9 0.694273 0.422583 0.875812
O O10 0.250000 0.250000 0.115104
O O11 0.349315 0.189636 0.094177
#
# Coordination Sequence:
#
# PCOD9433569 Si02
#       5
#     8   8   8   8   8
#     4   8  14  28  54  88 128 175 225 279 344 417
#     4   9  18  35  60  92 134 181 229 286 351 422
#     4  11  25  45  70 102 141 188 240 299 364 434
#     4  11  24  44  67  98 138 182 234 295 357 426
#     4   9  18  34  60  94 133 180 231 285 351 423
#
# _framework density 29.665381
#
# number of rings (size 3 to 8) (size 9 to 14) (size 15 to 20)
#    0.000    2.400    0.000    1.800    0.000    5.600 
#    0.000    2.000    0.000    0.000    0.000   56.000 
#    0.000    0.000    0.000    0.400    0.000    0.000 
#
# Total GULP energy -223241.805689 kJ/mol
# GULP energy per Si atom -5581.045142 kJ/mol
# Density = 2.959786 g / cm^3
# Si number density = 29.665381 Si / 1000 Ang^3
#
#
#
# Elastic Constant Matrix: (Units=GPa)
#
#
# Indices 1 2 3 4 5 6 
#
# 1 305.7229 34.4251 70.8267 0.0000 0.0000 0.0000
# 2 34.4251 174.3173 86.4230 0.0000 0.0000 0.0000
# 3 70.8267 86.4230 115.5841 0.0000 0.0000 0.0000
# 4 0.0000 0.0000 0.0000 70.5735 0.0000 0.0000
# 5 0.0000 0.0000 0.0000 0.0000 -28.1085 0.0000
# 6 0.0000 0.0000 0.0000 0.0000 0.0000 43.8636
#
#
#
# Elastic Compliance Matrix: (Units=1/GPa)
#
#
# Indices 1 2 3 4 5 6 
#
# 1 0.003858 0.000652 -0.002852 0.000000 0.000000 0.000000
# 2 0.000652 0.009226 -0.007298 0.000000 0.000000 0.000000
# 3 -0.002852 -0.007298 0.015856 0.000000 0.000000 0.000000
# 4 0.000000 0.000000 0.000000 0.014170 0.000000 0.000000
# 5 0.000000 0.000000 0.000000 0.000000 -0.035576 0.000000
# 6 0.000000 0.000000 0.000000 0.000000 0.000000 0.022798
#
#
# Mechanical properties :
#
#
# Convention : Reuss Voigt Hill
#
# Bulk Modulus (GPa) = 100.55474 108.77486 104.66480
# Shear Modulus (GPa) = 94.98308 44.19567 69.58937
#
# Velocity S-wave (km/s) = 5.66460 3.86399 4.84861
# Velocity P-wave (km/s) = 8.76091 7.52689 8.16724
#
# Compressibility (1/GPa) = 0.00994483
#
# Stress axis : x y z
#
# Youngs Moduli (GPa) = 259.19144 108.38896 63.06910
#
# Poissons Ratio (x) = -0.07065 0.17984
# Poissons Ratio (y) = -0.16894 0.46026
# Poissons Ratio (z) = 0.73909 0.79100
#
# Static dielectric constant tensor:
#      x y z
#    x 2.347040 0.000000 0.000000 
#    y 0.000000 2.338930 0.000000 
#    z 0.000000 0.000000 2.252650 
# 
# From -- ./inp_files/8997.got.cif
#   From: 2010.05.17/outbox.cif.g08.bks.cpg/sg56_5_cif.got.tgz:8997.got - 2010.06.03 13:42:01.
