data_PCOD9433371
_publ_section_title
;
Structure prediction by ZEFSAII (Michael W. Deem and Ramdas Pophale) SiO2 
 PCOD9433371
Probable space group: P C C N
;
_chemical_formula_sum "Si O2"
_cell_formula_units_Z 64
_cell_length_a 11.328436
_cell_length_b 32.296350
_cell_length_c 8.466527
_cell_angle_alpha 90.000000
_cell_angle_beta 90.000000
_cell_angle_gamma 90.000000
_cell_volume 3097.623968
_symmetry_space_group_name_H-M "P C C N"
_symmetry_group_IT_number 56
_symmetry_cell_setting 'orthorhombic'
loop_
_space_group_symop_operation_xyz
x,y,z
1/2-x,1/2-y,z
1/2+x,-y,1/2-z
-x,1/2+y,1/2-z
-x,-y,-z
1/2+x,1/2+y,-z
1/2-x,y,1/2+z
x,1/2-y,1/2+z
loop_
_atom_site_type_symbol
_atom_site_label
_atom_site_fract_x
_atom_site_fract_y
_atom_site_fract_z
Si Si1 0.525852 0.378007 0.218331
Si Si2 0.403710 0.714434 0.317126
Si Si3 0.038631 0.357878 0.071215
Si Si4 0.412546 0.569675 0.279251
Si Si5 0.351691 0.698258 0.949297
Si Si6 0.711931 0.594261 0.932306
Si Si7 0.327725 0.550300 0.925823
Si Si8 0.152282 0.460413 0.279792
O O1 0.519160 0.365687 0.400570
O O2 0.593924 0.343854 0.116142
O O3 0.392471 0.382906 0.157318
O O4 0.591878 0.421180 0.186799
O O5 0.517821 0.689329 0.377308
O O6 0.288429 0.699083 0.414896
O O7 0.407138 0.763244 0.352166
O O8 0.378032 0.705785 0.133345
O O9 0.170586 0.377227 0.062296
O O10 0.962388 0.384313 0.197059
O O11 0.307413 0.562612 0.399780
O O12 0.526906 0.541333 0.307413
O O13 0.367718 0.559198 0.104049
O O14 0.746904 0.551483 0.843608
O O15 0.662801 0.578160 0.098814
O O16 0.338392 0.503117 0.870701
#
# Coordination Sequence:
#
# PCOD9433371 Si02
#       8
#     8   8   8   8   8   8   8   8
#     4  12  24  41  65  96 129 174 217 277 332 398
#     4  11  22  42  67 102 136 178 214 270 325 403
#     4  11  24  42  66  92 132 172 229 266 334 402
#     4  11  24  40  60  93 124 168 213 279 327 393
#     4  11  23  40  70  99 144 174 217 270 337 384
#     4  11  24  43  66  89 128 175 222 277 338 396
#     4  12  24  39  65  90 131 165 226 275 340 395
#     4  11  24  43  64  89 126 174 221 278 336 399
#
# _framework density 20.660996999999998
#
# number of rings (size 3 to 8) (size 9 to 14) (size 15 to 20)
#    0.000    0.750    2.500    6.375    3.500    0.000 
#    0.000    3.750    0.000    3.000    0.000    0.000 
#    0.000    0.000    0.000    0.000    0.000    0.000 
#
# Total GULP energy -357897.681637 kJ/mol
# GULP energy per Si atom -5592.151276 kJ/mol
# Density = 2.061397 g / cm^3
# Si number density = 20.660997 Si / 1000 Ang^3
#
#
#
# Elastic Constant Matrix: (Units=GPa)
#
#
# Indices 1 2 3 4 5 6 
#
# 1 60.0357 21.9132 -11.0593 0.0000 0.0000 0.0000
# 2 21.9132 72.7372 8.6283 0.0000 0.0000 0.0000
# 3 -11.0593 8.6283 81.0118 0.0000 0.0000 0.0000
# 4 0.0000 0.0000 0.0000 27.2487 0.0000 0.0000
# 5 0.0000 0.0000 0.0000 0.0000 31.9434 0.0000
# 6 0.0000 0.0000 0.0000 0.0000 0.0000 3.3307
#
#
#
# Elastic Compliance Matrix: (Units=1/GPa)
#
#
# Indices 1 2 3 4 5 6 
#
# 1 0.019569 -0.006292 0.003342 0.000000 0.000000 0.000000
# 2 -0.006292 0.015947 -0.002557 0.000000 0.000000 0.000000
# 3 0.003342 -0.002557 0.013072 0.000000 0.000000 0.000000
# 4 0.000000 0.000000 0.000000 0.036699 0.000000 0.000000
# 5 0.000000 0.000000 0.000000 0.000000 0.031305 0.000000
# 6 0.000000 0.000000 0.000000 0.000000 0.000000 0.300235
#
#
# Mechanical properties :
#
#
# Convention : Reuss Voigt Hill
#
# Bulk Modulus (GPa) = 26.61486 28.08324 27.34905
# Shear Modulus (GPa) = 11.35416 25.45805 18.40610
#
# Velocity S-wave (km/s) = 2.34678 3.51405 2.98797
# Velocity P-wave (km/s) = 4.50032 5.48513 5.01694
#
# Compressibility (1/GPa) = 0.03757300
#
# Stress axis : x y z
#
# Youngs Moduli (GPa) = 51.10161 62.70776 76.49682
#
# Poissons Ratio (x) = 0.39455 -0.25562
# Poissons Ratio (y) = 0.32152 0.19563
# Poissons Ratio (z) = -0.17076 0.16037
#
# Static dielectric constant tensor:
#      x y z
#    x 1.731780 0.000000 0.000000 
#    y 0.000000 1.754520 0.000000 
#    z 0.000000 0.000000 1.758620 
# 
# From -- ./inp_files/2987.got.cif
#   From: 2010.05.17/outbox.cif.g08.bks.cpg/sg56_2_cif.got.tgz:2987.got - 2010.06.03 13:42:01.
