data_PCOD9433518
_publ_section_title
;
Structure prediction by ZEFSAII (Michael W. Deem and Ramdas Pophale) SiO2 
 PCOD9433518
Probable space group: P C C N
;
_chemical_formula_sum "Si O2"
_cell_formula_units_Z 40
_cell_length_a 17.171179
_cell_length_b 8.678038
_cell_length_c 11.637613
_cell_angle_alpha 90.000000
_cell_angle_beta 90.000000
_cell_angle_gamma 90.000000
_cell_volume 1734.145663
_symmetry_space_group_name_H-M "P C C N"
_symmetry_group_IT_number 56
_symmetry_cell_setting 'orthorhombic'
loop_
_space_group_symop_operation_xyz
x,y,z
1/2-x,1/2-y,z
1/2+x,-y,1/2-z
-x,1/2+y,1/2-z
-x,-y,-z
1/2+x,1/2+y,-z
1/2-x,y,1/2+z
x,1/2-y,1/2+z
loop_
_atom_site_type_symbol
_atom_site_label
_atom_site_fract_x
_atom_site_fract_y
_atom_site_fract_z
Si Si1 0.337376 0.319431 0.608591
Si Si2 0.893649 0.377294 0.532513
Si Si3 0.725204 0.930138 0.670497
Si Si4 0.117533 0.530339 0.898495
Si Si5 0.454591 0.046968 0.677173
O O1 0.250000 0.250000 0.589936
O O2 0.324328 0.436951 0.713525
O O3 0.371302 0.401632 0.496256
O O4 0.397724 0.191625 0.653021
O O5 0.822806 0.490119 0.568267
O O6 0.879965 0.197411 0.546860
O O7 0.920916 0.412561 0.403853
O O8 0.962241 0.417435 0.622294
O O9 0.750000 0.750000 0.656619
O O10 0.806032 0.018361 0.681207
O O11 0.047186 0.496267 0.811261
#
# Coordination Sequence:
#
# PCOD9433518 Si02
#       5
#     8   8   8   8   8
#     4  11  24  44  72 102 138 187 238 282 352 425
#     4  11  28  45  69 106 147 177 242 296 350 420
#     4  11  23  46  72  98 138 189 234 290 350 424
#     4  12  25  44  76 100 139 187 235 294 351 411
#     4  11  26  47  69 105 146 184 234 291 356 428
#
# _framework density 23.066113999999999
#
# number of rings (size 3 to 8) (size 9 to 14) (size 15 to 20)
#    0.000    0.800    4.000    3.600    5.600    2.400 
#    0.000    0.000    0.000    0.000    0.000    0.000 
#    0.000    0.000    0.000    0.000    0.000    0.000 
#
# Total GULP energy -223816.347684 kJ/mol
# GULP energy per Si atom -5595.408692 kJ/mol
# Density = 2.301361 g / cm^3
# Si number density = 23.066114 Si / 1000 Ang^3
#
#
#
# Elastic Constant Matrix: (Units=GPa)
#
#
# Indices 1 2 3 4 5 6 
#
# 1 39.2499 9.0773 -22.4392 0.0000 0.0000 0.0000
# 2 9.0773 106.1613 27.6920 0.0000 0.0000 0.0000
# 3 -22.4392 27.6920 70.7076 0.0000 0.0000 0.0000
# 4 0.0000 0.0000 0.0000 20.8254 0.0000 0.0000
# 5 0.0000 0.0000 0.0000 0.0000 32.3676 0.0000
# 6 0.0000 0.0000 0.0000 0.0000 0.0000 26.6701
#
#
#
# Elastic Compliance Matrix: (Units=1/GPa)
#
#
# Indices 1 2 3 4 5 6 
#
# 1 0.034746 -0.006513 0.013577 0.000000 0.000000 0.000000
# 2 -0.006513 0.011712 -0.006654 0.000000 0.000000 0.000000
# 3 0.013577 -0.006654 0.021057 0.000000 0.000000 0.000000
# 4 0.000000 0.000000 0.000000 0.048018 0.000000 0.000000
# 5 0.000000 0.000000 0.000000 0.000000 0.030895 0.000000
# 6 0.000000 0.000000 0.000000 0.000000 0.000000 0.037495
#
#
# Mechanical properties :
#
#
# Convention : Reuss Voigt Hill
#
# Bulk Modulus (GPa) = 14.63318 27.19766 20.91542
# Shear Modulus (GPa) = 24.28581 29.42519 26.85550
#
# Velocity S-wave (km/s) = 3.24833 3.57555 3.41586
# Velocity P-wave (km/s) = 4.51958 5.37242 4.96435
#
# Compressibility (1/GPa) = 0.06833783
#
# Stress axis : x y z
#
# Youngs Moduli (GPa) = 28.78015 85.38183 47.48915
#
# Poissons Ratio (x) = 0.55606 -0.64478
# Poissons Ratio (y) = 0.18743 0.31598
# Poissons Ratio (z) = -0.39076 0.56811
#
# Static dielectric constant tensor:
#      x y z
#    x 1.895400 0.000000 0.000000 
#    y 0.000000 1.839340 0.000000 
#    z 0.000000 0.000000 1.907310 
# 
# From -- ./inp_files/8178.got.cif
#   From: 2010.05.17/outbox.cif.g08.bks.cpg/sg56_5_cif.got.tgz:8178.got - 2010.06.03 13:42:01.
