data_PCOD9433744
_publ_section_title
;
Structure prediction by ZEFSAII (Michael W. Deem and Ramdas Pophale) SiO2 
 PCOD9433744
Probable space group: P C C N
;
_chemical_formula_sum "Si O2"
_cell_formula_units_Z 36
_cell_length_a 12.827198
_cell_length_b 4.804631
_cell_length_c 22.296959
_cell_angle_alpha 90.000000
_cell_angle_beta 90.000000
_cell_angle_gamma 90.000000
_cell_volume 1374.160539
_symmetry_space_group_name_H-M "P C C N"
_symmetry_group_IT_number 56
_symmetry_cell_setting 'orthorhombic'
loop_
_space_group_symop_operation_xyz
x,y,z
1/2-x,1/2-y,z
1/2+x,-y,1/2-z
-x,1/2+y,1/2-z
-x,-y,-z
1/2+x,1/2+y,-z
1/2-x,y,1/2+z
x,1/2-y,1/2+z
loop_
_atom_site_type_symbol
_atom_site_label
_atom_site_fract_x
_atom_site_fract_y
_atom_site_fract_z
Si Si1 0.317902 0.521938 0.849683
Si Si2 0.750000 0.750000 0.827344
Si Si3 0.657357 0.029813 0.941851
Si Si4 0.075642 0.586201 0.749786
Si Si5 0.558922 0.711739 0.042957
O O1 0.250000 0.250000 0.831134
O O2 0.366136 0.715672 0.797764
O O3 0.508899 0.681509 0.725950
O O4 0.400404 0.421484 0.897007
O O5 0.667117 0.554674 0.791186
O O6 0.750000 0.250000 0.952594
O O7 0.682682 0.920620 0.875474
O O8 0.535373 0.095717 0.937015
O O9 0.647973 0.844163 0.001802
O O10 0.250000 0.750000 0.884634
O O11 0.500000 0.500000 0.000000
#
# Coordination Sequence:
#
# PCOD9433744 Si02
#       5
#     8   4   8   8   8
#     4  12  32  57  88 131 186 240 300 385 468 560
#     4  12  32  56  94 136 184 246 320 384 470 566
#     4  11  28  53  89 131 181 240 303 384 460 564
#     4  12  33  61  92 132 186 250 319 387 468 567
#     4  11  29  52  85 134 179 233 303 374 469 551
#
# _framework density 26.197814000000001
#
# number of rings (size 3 to 8) (size 9 to 14) (size 15 to 20)
#    0.000    0.444    0.000    2.667   24.889    0.000 
#    4.000    0.000    0.000    0.000    0.000    0.000 
#    0.000    0.000    0.000    0.000    0.000    0.000 
#
# Total GULP energy -201262.555908 kJ/mol
# GULP energy per Si atom -5590.626553 kJ/mol
# Density = 2.613819 g / cm^3
# Si number density = 26.197814 Si / 1000 Ang^3
#
#
#
# Elastic Constant Matrix: (Units=GPa)
#
#
# Indices 1 2 3 4 5 6 
#
# 1 216.4978 112.0789 121.8554 0.0000 0.0000 0.0000
# 2 112.0789 194.6117 106.8154 0.0000 0.0000 0.0000
# 3 121.8554 106.8154 194.2837 0.0000 0.0000 0.0000
# 4 0.0000 0.0000 0.0000 94.5391 0.0000 0.0000
# 5 0.0000 0.0000 0.0000 0.0000 48.8394 0.0000
# 6 0.0000 0.0000 0.0000 0.0000 0.0000 84.4584
#
#
#
# Elastic Compliance Matrix: (Units=1/GPa)
#
#
# Indices 1 2 3 4 5 6 
#
# 1 0.007993 -0.002652 -0.003555 0.000000 0.000000 0.000000
# 2 -0.002652 0.008239 -0.002866 0.000000 0.000000 0.000000
# 3 -0.003555 -0.002866 0.008953 0.000000 0.000000 0.000000
# 4 0.000000 0.000000 0.000000 0.010578 0.000000 0.000000
# 5 0.000000 0.000000 0.000000 0.000000 0.020475 0.000000
# 6 0.000000 0.000000 0.000000 0.000000 0.000000 0.011840
#
#
# Mechanical properties :
#
#
# Convention : Reuss Voigt Hill
#
# Bulk Modulus (GPa) = 142.09144 142.98806 142.53975
# Shear Modulus (GPa) = 56.45212 63.21027 59.83119
#
# Velocity S-wave (km/s) = 4.64706 4.91736 4.78412
# Velocity P-wave (km/s) = 9.11862 9.32412 9.22194
#
# Compressibility (1/GPa) = 0.00703772
#
# Stress axis : x y z
#
# Youngs Moduli (GPa) = 125.11182 121.37445 111.69588
#
# Poissons Ratio (x) = 0.32187 0.39710
# Poissons Ratio (y) = 0.33178 0.32017
# Poissons Ratio (z) = 0.44479 0.34791
#
# Static dielectric constant tensor:
#      x y z
#    x 1.979590 0.000000 0.000000 
#    y 0.000000 2.155430 0.000000 
#    z 0.000000 0.000000 2.008070 
# 
# From -- ./inp_files/20828.got.cif
#   From: 2010.05.17/outbox.cif.g08.bks.cpg/sg56_11_cif.got.tgz:20828.got - 2010.06.03 13:42:01.
