data_PCOD9433560
_publ_section_title
;
Structure prediction by ZEFSAII (Michael W. Deem and Ramdas Pophale) SiO2 
 PCOD9433560
Probable space group: P C C N
;
_chemical_formula_sum "Si O2"
_cell_formula_units_Z 64
_cell_length_a 13.860594
_cell_length_b 24.034838
_cell_length_c 9.574191
_cell_angle_alpha 90.000000
_cell_angle_beta 90.000000
_cell_angle_gamma 90.000000
_cell_volume 3189.518525
_symmetry_space_group_name_H-M "P C C N"
_symmetry_group_IT_number 56
_symmetry_cell_setting 'orthorhombic'
loop_
_space_group_symop_operation_xyz
x,y,z
1/2-x,1/2-y,z
1/2+x,-y,1/2-z
-x,1/2+y,1/2-z
-x,-y,-z
1/2+x,1/2+y,-z
1/2-x,y,1/2+z
x,1/2-y,1/2+z
loop_
_atom_site_type_symbol
_atom_site_label
_atom_site_fract_x
_atom_site_fract_y
_atom_site_fract_z
Si Si1 0.240296 0.992545 0.895606
Si Si2 0.518337 0.264707 0.094090
Si Si3 0.381314 0.900513 0.784027
Si Si4 0.209830 0.072779 0.647837
Si Si5 0.152838 0.784214 0.164805
Si Si6 0.583936 0.630620 0.803936
Si Si7 0.550296 0.059412 0.499348
Si Si8 0.458874 0.358337 0.520620
O O1 0.316849 0.954071 0.815650
O O2 0.160612 0.951434 0.958605
O O3 0.194852 0.036279 0.786645
O O4 0.284587 0.029191 0.019891
O O5 0.587125 0.249019 0.223989
O O6 0.435595 0.307019 0.142283
O O7 0.472129 0.207481 0.039679
O O8 0.587724 0.289475 0.973838
O O9 0.326497 0.844697 0.732664
O O10 0.451156 0.914839 0.654723
O O11 0.442804 0.885372 0.920810
O O12 0.311782 0.104764 0.662974
O O13 0.126714 0.116677 0.614396
O O14 0.250000 0.750000 0.135679
O O15 0.504543 0.595635 0.887434
O O16 0.563568 0.627956 0.639329
O O17 0.500000 0.000000 0.500000
#
# Coordination Sequence:
#
# PCOD9433560 Si02
#       8
#     8   8   8   8   8   8   8   8
#     4  12  25  44  66 105 143 179 233 279 343 419
#     4  11  24  45  69 101 137 175 231 286 342 409
#     4  11  26  43  68 103 139 184 226 281 348 409
#     4  12  26  46  69 100 138 183 233 284 343 412
#     4  11  24  43  68 101 140 181 222 276 342 415
#     4  12  25  46  71 100 135 184 232 286 348 408
#     4  12  24  43  69 100 140 185 226 284 344 405
#     4  11  27  47  70 101 139 180 231 294 349 409
#
# _framework density 20.065723999999999
#
# number of rings (size 3 to 8) (size 9 to 14) (size 15 to 20)
#    0.000    0.500    6.250    1.125    3.500    3.000 
#    0.000    1.250    0.000    0.000    0.000    0.000 
#    0.000    0.000    0.000    0.000    0.000    0.000 
#
# Total GULP energy -357956.500757 kJ/mol
# GULP energy per Si atom -5593.070324 kJ/mol
# Density = 2.002005 g / cm^3
# Si number density = 20.065724 Si / 1000 Ang^3
#
#
#
# Elastic Constant Matrix: (Units=GPa)
#
#
# Indices 1 2 3 4 5 6 
#
# 1 59.1620 24.0443 9.3744 0.0000 0.0000 0.0000
# 2 24.0443 82.6523 14.8400 0.0000 0.0000 0.0000
# 3 9.3744 14.8400 87.1450 0.0000 0.0000 0.0000
# 4 0.0000 0.0000 0.0000 29.0112 0.0000 0.0000
# 5 0.0000 0.0000 0.0000 0.0000 25.8001 0.0000
# 6 0.0000 0.0000 0.0000 0.0000 0.0000 36.2319
#
#
#
# Elastic Compliance Matrix: (Units=1/GPa)
#
#
# Indices 1 2 3 4 5 6 
#
# 1 0.019281 -0.005402 -0.001154 0.000000 0.000000 0.000000
# 2 -0.005402 0.013994 -0.001802 0.000000 0.000000 0.000000
# 3 -0.001154 -0.001802 0.011906 0.000000 0.000000 0.000000
# 4 0.000000 0.000000 0.000000 0.034469 0.000000 0.000000
# 5 0.000000 0.000000 0.000000 0.000000 0.038760 0.000000
# 6 0.000000 0.000000 0.000000 0.000000 0.000000 0.027600
#
#
# Mechanical properties :
#
#
# Convention : Reuss Voigt Hill
#
# Bulk Modulus (GPa) = 35.13075 36.16407 35.64741
# Shear Modulus (GPa) = 29.03362 30.25535 29.64449
#
# Velocity S-wave (km/s) = 3.80797 3.88727 3.84783
# Velocity P-wave (km/s) = 6.07290 6.18140 6.12739
#
# Compressibility (1/GPa) = 0.02846509
#
# Stress axis : x y z
#
# Youngs Moduli (GPa) = 51.86460 71.46007 83.99029
#
# Poissons Ratio (x) = 0.38601 0.09694
# Poissons Ratio (y) = 0.28016 0.15135
# Poissons Ratio (z) = 0.05986 0.12877
#
# Static dielectric constant tensor:
#      x y z
#    x 1.626980 0.000000 0.000000 
#    y 0.000000 2.061530 0.000000 
#    z 0.000000 0.000000 1.705710 
# 
# From -- ./inp_files/3708.got.cif
#   From: 2010.05.17/outbox.cif.g08.bks.cpg/sg56_2_cif.got.tgz:3708.got - 2010.06.03 13:42:01.
