data_PCOD9433277
_publ_section_title
;
Structure prediction by ZEFSAII (Michael W. Deem and Ramdas Pophale) SiO2 
 PCOD9433277
Probable space group: P C C N
;
_chemical_formula_sum "Si O2"
_cell_formula_units_Z 64
_cell_length_a 13.700535
_cell_length_b 11.363257
_cell_length_c 18.024633
_cell_angle_alpha 90.000000
_cell_angle_beta 90.000000
_cell_angle_gamma 90.000000
_cell_volume 2806.123536
_symmetry_space_group_name_H-M "P C C N"
_symmetry_group_IT_number 56
_symmetry_cell_setting 'orthorhombic'
loop_
_space_group_symop_operation_xyz
x,y,z
1/2-x,1/2-y,z
1/2+x,-y,1/2-z
-x,1/2+y,1/2-z
-x,-y,-z
1/2+x,1/2+y,-z
1/2-x,y,1/2+z
x,1/2-y,1/2+z
loop_
_atom_site_type_symbol
_atom_site_label
_atom_site_fract_x
_atom_site_fract_y
_atom_site_fract_z
Si Si1 0.360383 0.244789 0.866310
Si Si2 0.844977 0.495644 0.469799
Si Si3 0.892330 0.995028 0.701557
Si Si4 0.415606 0.479352 0.782716
Si Si5 0.002915 0.690530 0.518716
Si Si6 0.496056 0.098882 0.062200
Si Si7 0.715641 0.117644 0.625659
Si Si8 0.799174 0.622749 0.858844
O O1 0.250000 0.250000 0.895785
O O2 0.368324 0.142908 0.805538
O O3 0.388806 0.370465 0.834687
O O4 0.442110 0.224430 0.927636
O O5 0.922765 0.598638 0.488653
O O6 0.791752 0.454176 0.547132
O O7 0.776342 0.542050 0.404566
O O8 0.910572 0.384472 0.446230
O O9 0.792070 0.061260 0.684862
O O10 0.968629 0.017248 0.767125
O O11 0.955101 0.039004 0.632093
O O12 0.384437 0.595132 0.828668
O O13 0.350545 0.447355 0.709455
O O14 0.048942 0.780214 0.460100
O O15 0.387936 0.140933 0.083886
O O16 0.500000 0.000000 0.000000
O O17 0.750000 0.250000 0.613763
O O18 0.750000 0.750000 0.840062
#
# Coordination Sequence:
#
# PCOD9433277 Si02
#       8
#     8   8   8   8   8   8   8   8
#     4  12  23  46  74  99 138 188 247 291 360 439
#     4  11  24  44  68 105 136 183 233 294 364 430
#     4  11  25  43  71 100 137 190 232 300 351 431
#     4  11  27  46  67 107 139 186 250 288 363 433
#     4  11  23  40  70 103 136 176 232 301 355 429
#     4  11  21  39  66 100 134 172 230 282 355 421
#     4  12  26  49  71 100 147 195 235 297 369 434
#     4  11  24  43  69 101 138 179 234 302 353 428
#
# _framework density 22.807265000000001
#
# number of rings (size 3 to 8) (size 9 to 14) (size 15 to 20)
#    0.000    0.750    5.000    1.875    3.500    1.000 
#    0.000    0.000    0.000    0.000    0.000    0.000 
#    0.000    0.000    0.000    0.000    0.000    0.000 
#
# Total GULP energy -357493.116020 kJ/mol
# GULP energy per Si atom -5585.829938 kJ/mol
# Density = 2.275535 g / cm^3
# Si number density = 22.807265 Si / 1000 Ang^3
#
#
#
# Elastic Constant Matrix: (Units=GPa)
#
#
# Indices 1 2 3 4 5 6 
#
# 1 90.5613 16.4058 25.2047 0.0000 0.0000 0.0000
# 2 16.4058 121.9962 25.3929 0.0000 0.0000 0.0000
# 3 25.2047 25.3929 73.3434 0.0000 0.0000 0.0000
# 4 0.0000 0.0000 0.0000 12.5787 0.0000 0.0000
# 5 0.0000 0.0000 0.0000 0.0000 25.5029 0.0000
# 6 0.0000 0.0000 0.0000 0.0000 0.0000 26.6504
#
#
#
# Elastic Compliance Matrix: (Units=1/GPa)
#
#
# Indices 1 2 3 4 5 6 
#
# 1 0.012288 -0.000834 -0.003934 0.000000 0.000000 0.000000
# 2 -0.000834 0.008890 -0.002791 0.000000 0.000000 0.000000
# 3 -0.003934 -0.002791 0.015953 0.000000 0.000000 0.000000
# 4 0.000000 0.000000 0.000000 0.079500 0.000000 0.000000
# 5 0.000000 0.000000 0.000000 0.000000 0.039211 0.000000
# 6 0.000000 0.000000 0.000000 0.000000 0.000000 0.037523
#
#
# Mechanical properties :
#
#
# Convention : Reuss Voigt Hill
#
# Bulk Modulus (GPa) = 45.42842 46.65639 46.04241
# Shear Modulus (GPa) = 23.16730 27.53954 25.35342
#
# Velocity S-wave (km/s) = 3.19060 3.47867 3.33774
# Velocity P-wave (km/s) = 5.79093 6.05277 5.92330
#
# Compressibility (1/GPa) = 0.02201265
#
# Stress axis : x y z
#
# Youngs Moduli (GPa) = 81.37864 112.48461 62.68420
#
# Poissons Ratio (x) = 0.09377 0.24662
# Poissons Ratio (y) = 0.06784 0.17498
# Poissons Ratio (z) = 0.32017 0.31400
#
# Static dielectric constant tensor:
#      x y z
#    x 1.938120 0.000000 0.000000 
#    y 0.000000 1.821750 0.000000 
#    z 0.000000 0.000000 1.925500 
# 
# From -- ./inp_files/16354.got.cif
#   From: 2010.05.17/outbox.cif.g08.bks.cpg/sg56_9_cif.got.tgz:16354.got - 2010.06.03 13:42:01.
