data_PCOD9433670
_publ_section_title
;
Structure prediction by ZEFSAII (Michael W. Deem and Ramdas Pophale) SiO2 
 PCOD9433670
Probable space group: P C C N
;
_chemical_formula_sum "Si O2"
_cell_formula_units_Z 40
_cell_length_a 9.041115
_cell_length_b 17.074297
_cell_length_c 11.394511
_cell_angle_alpha 90.000000
_cell_angle_beta 90.000000
_cell_angle_gamma 90.000000
_cell_volume 1758.978442
_symmetry_space_group_name_H-M "P C C N"
_symmetry_group_IT_number 56
_symmetry_cell_setting 'orthorhombic'
loop_
_space_group_symop_operation_xyz
x,y,z
1/2-x,1/2-y,z
1/2+x,-y,1/2-z
-x,1/2+y,1/2-z
-x,-y,-z
1/2+x,1/2+y,-z
1/2-x,y,1/2+z
x,1/2-y,1/2+z
loop_
_atom_site_type_symbol
_atom_site_label
_atom_site_fract_x
_atom_site_fract_y
_atom_site_fract_z
Si Si1 0.029171 0.965448 0.627909
Si Si2 0.637143 0.323545 0.262327
Si Si3 0.753317 0.914263 0.275387
Si Si4 0.505759 0.590451 0.956633
Si Si5 0.108658 0.215770 0.867938
O O1 0.869998 0.944282 0.683321
O O2 0.145314 0.892339 0.638387
O O3 0.000000 0.000000 0.500000
O O4 0.107697 0.029501 0.708931
O O5 0.750000 0.250000 0.249798
O O6 0.606236 0.373753 0.142837
O O7 0.490826 0.280814 0.308792
O O8 0.666245 0.907322 0.395934
O O9 0.816686 0.833013 0.234638
O O10 0.500000 0.500000 0.000000
O O11 0.511146 0.654506 0.059064
O O12 0.250000 0.250000 0.938117
#
# Coordination Sequence:
#
# PCOD9433670 Si02
#       5
#     8   8   8   8   8
#     4  11  25  47  75 106 148 201 249 303 384 462
#     4  11  28  49  72 114 152 190 256 327 383 449
#     4  11  25  47  72 106 146 194 253 304 367 475
#     4  11  26  48  74 106 148 203 250 303 388 469
#     4  12  24  46  73 103 144 190 245 309 380 447
#
# _framework density 22.740473000000001
#
# number of rings (size 3 to 8) (size 9 to 14) (size 15 to 20)
#    0.000    0.800    4.000    3.600    8.400    0.800 
#    0.000    0.000    0.000    0.000    0.000    0.000 
#    0.000    0.000    0.000    0.000    0.000    0.000 
#
# Total GULP energy -223152.602619 kJ/mol
# GULP energy per Si atom -5578.815065 kJ/mol
# Density = 2.268871 g / cm^3
# Si number density = 22.740473 Si / 1000 Ang^3
#
#
#
# Elastic Constant Matrix: (Units=GPa)
#
#
# Indices 1 2 3 4 5 6 
#
# 1 48.0017 33.9115 23.2003 0.0000 0.0000 0.0000
# 2 33.9115 166.7350 63.5809 0.0000 0.0000 0.0000
# 3 23.2003 63.5809 92.9113 0.0000 0.0000 0.0000
# 4 0.0000 0.0000 0.0000 39.4751 0.0000 0.0000
# 5 0.0000 0.0000 0.0000 0.0000 26.1565 0.0000
# 6 0.0000 0.0000 0.0000 0.0000 0.0000 56.3728
#
#
#
# Elastic Compliance Matrix: (Units=1/GPa)
#
#
# Indices 1 2 3 4 5 6 
#
# 1 0.025272 -0.003699 -0.003779 0.000000 0.000000 0.000000
# 2 -0.003699 0.008657 -0.005000 0.000000 0.000000 0.000000
# 3 -0.003779 -0.005000 0.015128 0.000000 0.000000 0.000000
# 4 0.000000 0.000000 0.000000 0.025332 0.000000 0.000000
# 5 0.000000 0.000000 0.000000 0.000000 0.038231 0.000000
# 6 0.000000 0.000000 0.000000 0.000000 0.000000 0.017739
#
#
# Mechanical properties :
#
#
# Convention : Reuss Voigt Hill
#
# Bulk Modulus (GPa) = 41.49310 61.00373 51.24842
# Shear Modulus (GPa) = 30.60897 36.86456 33.73676
#
# Velocity S-wave (km/s) = 3.67278 4.03066 3.85587
# Velocity P-wave (km/s) = 6.02261 6.96749 6.51221
#
# Compressibility (1/GPa) = 0.02410039
#
# Stress axis : x y z
#
# Youngs Moduli (GPa) = 39.56886 115.51920 66.10063
#
# Poissons Ratio (x) = 0.42729 0.24982
# Poissons Ratio (y) = 0.14636 0.33052
# Poissons Ratio (z) = 0.14955 0.57762
#
# Static dielectric constant tensor:
#      x y z
#    x 1.877140 0.000000 0.000000 
#    y 0.000000 1.904900 0.000000 
#    z 0.000000 0.000000 1.939960 
# 
# From -- ./inp_files/6215.got.cif
#   From: 2010.05.17/outbox.cif.g08.bks.cpg/sg56_4_cif.got.tgz:6215.got - 2010.06.03 13:42:01.
