data_PCOD9433269
_publ_section_title
;
Structure prediction by ZEFSAII (Michael W. Deem and Ramdas Pophale) SiO2 
 PCOD9433269
Probable space group: P C C N
;
_chemical_formula_sum "Si O2"
_cell_formula_units_Z 36
_cell_length_a 6.871671
_cell_length_b 19.729214
_cell_length_c 14.272882
_cell_angle_alpha 90.000000
_cell_angle_beta 90.000000
_cell_angle_gamma 90.000000
_cell_volume 1935.012688
_symmetry_space_group_name_H-M "P C C N"
_symmetry_group_IT_number 56
_symmetry_cell_setting 'orthorhombic'
loop_
_space_group_symop_operation_xyz
x,y,z
1/2-x,1/2-y,z
1/2+x,-y,1/2-z
-x,1/2+y,1/2-z
-x,-y,-z
1/2+x,1/2+y,-z
1/2-x,y,1/2+z
x,1/2-y,1/2+z
loop_
_atom_site_type_symbol
_atom_site_label
_atom_site_fract_x
_atom_site_fract_y
_atom_site_fract_z
Si Si1 0.013046 0.354046 0.812907
Si Si2 0.250000 0.750000 0.598591
Si Si3 0.906472 0.921255 0.193411
Si Si4 0.755336 0.069707 0.172821
Si Si5 0.280710 0.895802 0.540583
O O1 0.241756 0.364295 0.814655
O O2 0.923047 0.280733 0.837620
O O3 0.921269 0.382275 0.717161
O O4 0.912797 0.400494 0.894720
O O5 0.315055 0.814351 0.538078
O O6 0.052948 0.908844 0.279244
O O7 0.799642 0.993037 0.204309
O O8 0.042309 0.925046 0.101363
O O9 0.754772 0.074656 0.061414
#
# Coordination Sequence:
#
# PCOD9433269 Si02
#       5
#     8   4   8   8   8
#     4   9  21  39  59  86 124 158 197 256 300 365
#     4   8  20  44  54  84 122 156 212 242 294 380
#     4  11  21  38  62  92 122 156 203 258 315 364
#     4  11  21  38  61  93 122 154 207 255 316 368
#     4   9  22  39  60  84 121 165 200 257 301 366
#
# _framework density 18.604528999999999
#
# number of rings (size 3 to 8) (size 9 to 14) (size 15 to 20)
#    1.333    0.889    2.222    0.667    0.000    4.444 
#    0.000    0.000    0.000    0.000    0.000    0.000 
#    0.000    0.000    0.000    0.000    0.000    0.000 
#
# Total GULP energy -200467.430650 kJ/mol
# GULP energy per Si atom -5568.539740 kJ/mol
# Density = 1.856218 g / cm^3
# Si number density = 18.604529 Si / 1000 Ang^3
#
#
#
# Elastic Constant Matrix: (Units=GPa)
#
#
# Indices 1 2 3 4 5 6 
#
# 1 130.6355 10.9512 47.7989 0.0000 0.0000 0.0000
# 2 10.9512 41.5448 -14.2017 0.0000 0.0000 0.0000
# 3 47.7989 -14.2017 87.0209 0.0000 0.0000 0.0000
# 4 0.0000 0.0000 0.0000 20.3914 0.0000 0.0000
# 5 0.0000 0.0000 0.0000 0.0000 3.9134 0.0000
# 6 0.0000 0.0000 0.0000 0.0000 0.0000 -145.5231
#
#
#
# Elastic Compliance Matrix: (Units=1/GPa)
#
#
# Indices 1 2 3 4 5 6 
#
# 1 0.010480 -0.005010 -0.006574 0.000000 0.000000 0.000000
# 2 -0.005010 0.027888 0.007303 0.000000 0.000000 0.000000
# 3 -0.006574 0.007303 0.016294 0.000000 0.000000 0.000000
# 4 0.000000 0.000000 0.000000 0.049040 0.000000 0.000000
# 5 0.000000 0.000000 0.000000 0.000000 0.255533 0.000000
# 6 0.000000 0.000000 0.000000 0.000000 0.000000 -0.006872
#
#
# Mechanical properties :
#
#
# Convention : Reuss Voigt Hill
#
# Bulk Modulus (GPa) = 21.69194 38.69978 30.19586
# Shear Modulus (GPa) = 13.28751 -9.93348 1.67702
#
# Velocity S-wave (km/s) = 2.67537 -2.31319 0.95045
# Velocity P-wave (km/s) = 4.60741 3.70296 4.17972
#
# Compressibility (1/GPa) = 0.04610006
#
# Stress axis : x y z
#
# Youngs Moduli (GPa) = 95.41640 35.85828 61.37047
#
# Poissons Ratio (x) = 0.17965 0.40347
# Poissons Ratio (y) = 0.47804 -0.44820
# Poissons Ratio (z) = 0.62730 -0.26188
#
# Static dielectric constant tensor:
#      x y z
#    x 1.651010 0.000000 0.000000 
#    y 0.000000 1.669220 0.000000 
#    z 0.000000 0.000000 1.618370 
# 
# From -- ./inp_files/9504.got.cif
#   From: 2010.05.17/outbox.cif.g08.bks.cpg/sg56_5_cif.got.tgz:9504.got - 2010.06.03 13:42:01.
