data_PCOD9433733
_publ_section_title
;
Structure prediction by ZEFSAII (Michael W. Deem and Ramdas Pophale) SiO2 
 PCOD9433733
Probable space group: P C C N
;
_chemical_formula_sum "Si O2"
_cell_formula_units_Z 28
_cell_length_a 7.888527
_cell_length_b 9.092220
_cell_length_c 14.287864
_cell_angle_alpha 90.000000
_cell_angle_beta 90.000000
_cell_angle_gamma 90.000000
_cell_volume 1024.785943
_symmetry_space_group_name_H-M "P C C N"
_symmetry_group_IT_number 56
_symmetry_cell_setting 'orthorhombic'
loop_
_space_group_symop_operation_xyz
x,y,z
1/2-x,1/2-y,z
1/2+x,-y,1/2-z
-x,1/2+y,1/2-z
-x,-y,-z
1/2+x,1/2+y,-z
1/2-x,y,1/2+z
x,1/2-y,1/2+z
loop_
_atom_site_type_symbol
_atom_site_label
_atom_site_fract_x
_atom_site_fract_y
_atom_site_fract_z
Si Si1 0.682921 0.468531 0.130177
Si Si2 0.072750 0.536022 0.176053
Si Si3 0.043633 0.706956 0.537573
Si Si4 0.250000 0.250000 0.112521
O O1 0.620734 0.008621 0.154136
O O2 0.599003 0.394660 0.221208
O O3 0.564627 0.610232 0.111633
O O4 0.663644 0.386884 0.031437
O O5 0.203095 0.397646 0.169869
O O6 0.108778 0.657927 0.098508
O O7 0.906056 0.750306 0.459431
#
# Coordination Sequence:
#
# PCOD9433733 Si02
#       4
#     8   8   8   4
#     4  11  27  52  85 126 165 223 288 350 437 514
#     4  12  27  54  86 124 172 222 286 358 426 524
#     4  11  26  53  80 122 166 219 281 358 429 507
#     4  12  26  50  84 114 168 224 274 346 430 504
#
# _framework density 27.322779000000001
#
# number of rings (size 3 to 8) (size 9 to 14) (size 15 to 20)
#    0.000    0.571    2.857    2.571    8.000    1.143 
#   10.286    0.000    0.000    0.000    0.000    0.000 
#    0.000    0.000    0.000    0.000    0.000    0.000 
#
# Total GULP energy -156903.357453 kJ/mol
# GULP energy per Si atom -5603.691338 kJ/mol
# Density = 2.726059 g / cm^3
# Si number density = 27.322779 Si / 1000 Ang^3
#
#
#
# Elastic Constant Matrix: (Units=GPa)
#
#
# Indices 1 2 3 4 5 6 
#
# 1 166.2486 62.2173 96.6549 0.0000 0.0000 0.0000
# 2 62.2173 137.6124 64.4299 0.0000 0.0000 0.0000
# 3 96.6549 64.4299 197.7729 0.0000 0.0000 0.0000
# 4 0.0000 0.0000 0.0000 294.3825 0.0000 0.0000
# 5 0.0000 0.0000 0.0000 0.0000 57.0625 0.0000
# 6 0.0000 0.0000 0.0000 0.0000 0.0000 42.5514
#
#
#
# Elastic Compliance Matrix: (Units=1/GPa)
#
#
# Indices 1 2 3 4 5 6 
#
# 1 0.009016 -0.002376 -0.003632 0.000000 0.000000 0.000000
# 2 -0.002376 0.009201 -0.001836 0.000000 0.000000 0.000000
# 3 -0.003632 -0.001836 0.007430 0.000000 0.000000 0.000000
# 4 0.000000 0.000000 0.000000 0.003397 0.000000 0.000000
# 5 0.000000 0.000000 0.000000 0.000000 0.017525 0.000000
# 6 0.000000 0.000000 0.000000 0.000000 0.000000 0.023501
#
#
# Mechanical properties :
#
#
# Convention : Reuss Voigt Hill
#
# Bulk Modulus (GPa) = 100.42480 105.35978 102.89229
# Shear Modulus (GPa) = 56.13144 97.35473 76.74308
#
# Velocity S-wave (km/s) = 4.53745 5.97568 5.30552
# Velocity P-wave (km/s) = 8.01785 9.28744 8.67590
#
# Compressibility (1/GPa) = 0.00995770
#
# Stress axis : x y z
#
# Youngs Moduli (GPa) = 110.91479 108.68815 134.59471
#
# Poissons Ratio (x) = 0.25820 0.48889
# Poissons Ratio (y) = 0.26349 0.24716
# Poissons Ratio (z) = 0.40288 0.19959
#
# Static dielectric constant tensor:
#      x y z
#    x 2.416020 0.000000 0.000000 
#    y 0.000000 2.281760 0.000000 
#    z 0.000000 0.000000 2.023370 
# 
# From -- ./inp_files/9997.got.cif
#   From: 2010.05.17/outbox.cif.g08.bks.cpg/sg56_5_cif.got.tgz:9997.got - 2010.06.03 13:42:01.
