data_PCOD9433237
_publ_section_title
;
Structure prediction by ZEFSAII (Michael W. Deem and Ramdas Pophale) SiO2 
 PCOD9433237
Probable space group: P C C N
;
_chemical_formula_sum "Si O2"
_cell_formula_units_Z 56
_cell_length_a 13.287759
_cell_length_b 11.621030
_cell_length_c 15.610384
_cell_angle_alpha 90.000000
_cell_angle_beta 90.000000
_cell_angle_gamma 90.000000
_cell_volume 2410.515628
_symmetry_space_group_name_H-M "P C C N"
_symmetry_group_IT_number 56
_symmetry_cell_setting 'orthorhombic'
loop_
_space_group_symop_operation_xyz
x,y,z
1/2-x,1/2-y,z
1/2+x,-y,1/2-z
-x,1/2+y,1/2-z
-x,-y,-z
1/2+x,1/2+y,-z
1/2-x,y,1/2+z
x,1/2-y,1/2+z
loop_
_atom_site_type_symbol
_atom_site_label
_atom_site_fract_x
_atom_site_fract_y
_atom_site_fract_z
Si Si1 0.165323 0.852672 0.493675
Si Si2 0.657921 0.338951 0.319090
Si Si3 0.683852 0.982726 0.557914
Si Si4 0.850994 0.923942 0.858157
Si Si5 0.949281 0.202222 0.108343
Si Si6 0.057254 0.851299 0.237257
Si Si7 0.834623 0.576757 0.739541
O O1 0.250000 0.750000 0.489750
O O2 0.166258 0.899369 0.589577
O O3 0.207775 0.955146 0.436695
O O4 0.061576 0.792398 0.468982
O O5 0.750000 0.250000 0.312940
O O6 0.560499 0.257836 0.325833
O O7 0.662734 0.437463 0.249312
O O8 0.601558 0.083827 0.575561
O O9 0.668175 0.941124 0.460268
O O10 0.677497 0.897386 0.638483
O O11 0.754630 0.885515 0.802499
O O12 0.943320 0.835163 0.856205
O O13 0.889162 0.041801 0.810108
O O14 0.895476 0.281724 0.181475
O O15 0.946720 0.887595 0.264184
#
# Coordination Sequence:
#
# PCOD9433237 Si02
#       7
#     8   8   8   8   8   8   8
#     4   9  19  34  63  99 127 166 222 294 342 399
#     4  11  20  40  64  98 134 175 230 292 346 405
#     4  11  21  41  71 106 133 178 240 299 348 411
#     4  12  24  44  71 102 146 186 240 299 348 423
#     4  11  23  38  66 102 138 182 238 287 357 416
#     4  12  23  40  65 101 142 185 225 292 349 420
#     4  12  25  40  69 103 142 184 235 289 358 426
#
# _framework density 23.231544
#
# number of rings (size 3 to 8) (size 9 to 14) (size 15 to 20)
#    0.000    0.857    5.714    3.000    2.000    0.571 
#    0.000    0.714    6.286    1.714    0.000    0.000 
#    0.000    0.000    0.000    0.000    0.000    0.000 
#
# Total GULP energy -312093.341356 kJ/mol
# GULP energy per Si atom -5573.095381 kJ/mol
# Density = 2.317867 g / cm^3
# Si number density = 23.231544 Si / 1000 Ang^3
#
#
#
# Elastic Constant Matrix: (Units=GPa)
#
#
# Indices 1 2 3 4 5 6 
#
# 1 90.9753 23.3653 15.3290 0.0000 0.0000 0.0000
# 2 23.3653 55.9775 22.7005 0.0000 0.0000 0.0000
# 3 15.3290 22.7005 118.8009 0.0000 0.0000 0.0000
# 4 0.0000 0.0000 0.0000 -2.0933 0.0000 0.0000
# 5 0.0000 0.0000 0.0000 0.0000 22.5217 0.0000
# 6 0.0000 0.0000 0.0000 0.0000 0.0000 30.0412
#
#
#
# Elastic Compliance Matrix: (Units=1/GPa)
#
#
# Indices 1 2 3 4 5 6 
#
# 1 0.012359 -0.004891 -0.000660 0.000000 0.000000 0.000000
# 2 -0.004891 0.021301 -0.003439 0.000000 0.000000 0.000000
# 3 -0.000660 -0.003439 0.009160 0.000000 0.000000 0.000000
# 4 0.000000 0.000000 0.000000 -0.477710 0.000000 0.000000
# 5 0.000000 0.000000 0.000000 0.000000 0.044402 0.000000
# 6 0.000000 0.000000 0.000000 0.000000 0.000000 0.033288
#
#
# Mechanical properties :
#
#
# Convention : Reuss Voigt Hill
#
# Bulk Modulus (GPa) = 40.25913 43.17145 41.71529
# Shear Modulus (GPa) = -15.10846 23.71785 4.30470
#
# Velocity S-wave (km/s) = -2.55295 3.19867 1.36271
# Velocity P-wave (km/s) = 2.94569 5.68027 4.52452
#
# Compressibility (1/GPa) = 0.02483909
#
# Stress axis : x y z
#
# Youngs Moduli (GPa) = 80.90983 46.94720 109.17332
#
# Poissons Ratio (x) = 0.22963 0.07207
# Poissons Ratio (y) = 0.39574 0.37545
# Poissons Ratio (z) = 0.05341 0.16145
#
# Static dielectric constant tensor:
#      x y z
#    x 1.956680 0.000000 0.000000 
#    y 0.000000 1.891750 0.000000 
#    z 0.000000 0.000000 2.079580 
# 
# From -- ./inp_files/12254.got.cif
#   From: 2010.05.17/outbox.cif.g08.bks.cpg/sg56_7_cif.got.tgz:12254.got - 2010.06.03 13:42:01.
