data_PCOD9433526
_publ_section_title
;
Structure prediction by ZEFSAII (Michael W. Deem and Ramdas Pophale) SiO2 
 PCOD9433526
Probable space group: P C C N
;
_chemical_formula_sum "Si O2"
_cell_formula_units_Z 60
_cell_length_a 8.471213
_cell_length_b 18.441334
_cell_length_c 16.158609
_cell_angle_alpha 90.000000
_cell_angle_beta 90.000000
_cell_angle_gamma 90.000000
_cell_volume 2524.305465
_symmetry_space_group_name_H-M "P C C N"
_symmetry_group_IT_number 56
_symmetry_cell_setting 'orthorhombic'
loop_
_space_group_symop_operation_xyz
x,y,z
1/2-x,1/2-y,z
1/2+x,-y,1/2-z
-x,1/2+y,1/2-z
-x,-y,-z
1/2+x,1/2+y,-z
1/2-x,y,1/2+z
x,1/2-y,1/2+z
loop_
_atom_site_type_symbol
_atom_site_label
_atom_site_fract_x
_atom_site_fract_y
_atom_site_fract_z
Si Si1 0.994083 0.147188 0.197256
Si Si2 0.233150 0.831276 0.031030
Si Si3 0.523326 0.296206 0.610778
Si Si4 0.955574 0.921117 0.973137
Si Si5 0.270699 0.400176 0.398679
Si Si6 0.661347 0.902973 0.772503
Si Si7 0.388843 0.940756 0.154928
Si Si8 0.750000 0.750000 0.022025
O O1 0.943669 0.225581 0.166320
O O2 0.176786 0.144021 0.226114
O O3 0.885781 0.113242 0.266915
O O4 0.004155 0.092527 0.120600
O O5 0.250000 0.750000 0.068193
O O6 0.053606 0.856546 0.017351
O O7 0.303251 0.897365 0.082796
O O8 0.332448 0.824322 0.945643
O O9 0.461863 0.357583 0.673368
O O10 0.390122 0.267908 0.545139
O O11 0.778743 0.917923 0.006915
O O12 0.000000 0.000000 0.000000
O O13 0.141094 0.414975 0.326503
O O14 0.426959 0.442809 0.372197
O O15 0.283290 0.314590 0.412365
O O16 0.674061 0.981496 0.816264
#
# Coordination Sequence:
#
# PCOD9433526 Si02
#       8
#     8   8   8   8   8   8   8   4
#     4  11  23  47  69 104 143 187 241 300 363 439
#     4  12  26  48  68 107 144 191 244 300 376 436
#     4  12  23  43  73 104 140 184 245 306 359 440
#     4  12  25  45  71 100 148 194 236 296 366 437
#     4  11  25  44  74 102 141 187 241 293 366 428
#     4  11  25  43  72 109 138 187 243 300 364 436
#     4  11  27  46  72 104 150 184 245 299 364 441
#     4  12  20  42  74 104 132 184 242 306 344 430
#
# _framework density 23.768913999999999
#
# number of rings (size 3 to 8) (size 9 to 14) (size 15 to 20)
#    0.000    0.533    5.333    1.600    5.600    1.600 
#    4.800    0.000    0.000    0.000    0.000    0.000 
#    0.000    0.000    0.000    0.000    0.000    0.000 
#
# Total GULP energy -334961.229028 kJ/mol
# GULP energy per Si atom -5582.687150 kJ/mol
# Density = 2.371482 g / cm^3
# Si number density = 23.768914 Si / 1000 Ang^3
#
#
#
# Elastic Constant Matrix: (Units=GPa)
#
#
# Indices 1 2 3 4 5 6 
#
# 1 30.9952 -3.9332 22.3552 0.0000 0.0000 0.0000
# 2 -3.9332 93.0987 10.1604 0.0000 0.0000 0.0000
# 3 22.3552 10.1604 69.2345 0.0000 0.0000 0.0000
# 4 0.0000 0.0000 0.0000 39.2636 0.0000 0.0000
# 5 0.0000 0.0000 0.0000 0.0000 7.8555 0.0000
# 6 0.0000 0.0000 0.0000 0.0000 0.0000 27.7339
#
#
#
# Elastic Compliance Matrix: (Units=1/GPa)
#
#
# Indices 1 2 3 4 5 6 
#
# 1 0.043087 0.003393 -0.014410 0.000000 0.000000 0.000000
# 2 0.003393 0.011183 -0.002737 0.000000 0.000000 0.000000
# 3 -0.014410 -0.002737 0.019498 0.000000 0.000000 0.000000
# 4 0.000000 0.000000 0.000000 0.025469 0.000000 0.000000
# 5 0.000000 0.000000 0.000000 0.000000 0.127300 0.000000
# 6 0.000000 0.000000 0.000000 0.000000 0.000000 0.036057
#
#
# Mechanical properties :
#
#
# Convention : Reuss Voigt Hill
#
# Bulk Modulus (GPa) = 21.61676 27.83258 24.72467
# Shear Modulus (GPa) = 16.36541 25.95368 21.15954
#
# Velocity S-wave (km/s) = 2.62682 3.30800 2.98689
# Velocity P-wave (km/s) = 4.27955 5.13085 4.72441
#
# Compressibility (1/GPa) = 0.04626039
#
# Stress axis : x y z
#
# Youngs Moduli (GPa) = 23.20883 89.41897 51.28661
#
# Poissons Ratio (x) = -0.30340 0.73906
# Poissons Ratio (y) = -0.07875 0.14036
# Poissons Ratio (z) = 0.33445 0.24472
#
# Static dielectric constant tensor:
#      x y z
#    x 1.783080 0.000000 0.000000 
#    y 0.000000 1.554010 0.000000 
#    z 0.000000 0.000000 2.044700 
# 
# From -- ./inp_files/15102.got.cif
#   From: 2010.05.17/outbox.cif.g08.bks.cpg/sg56_8_cif.got.tgz:15102.got - 2010.06.03 13:42:01.
