data_PCOD9433639
_publ_section_title
;
Structure prediction by ZEFSAII (Michael W. Deem and Ramdas Pophale) SiO2 
 PCOD9433639
Probable space group: P C C N
;
_chemical_formula_sum "Si O2"
_cell_formula_units_Z 32
_cell_length_a 7.688547
_cell_length_b 10.101951
_cell_length_c 17.629503
_cell_angle_alpha 90.000000
_cell_angle_beta 90.000000
_cell_angle_gamma 90.000000
_cell_volume 1369.271599
_symmetry_space_group_name_H-M "P C C N"
_symmetry_group_IT_number 56
_symmetry_cell_setting 'orthorhombic'
loop_
_space_group_symop_operation_xyz
x,y,z
1/2-x,1/2-y,z
1/2+x,-y,1/2-z
-x,1/2+y,1/2-z
-x,-y,-z
1/2+x,1/2+y,-z
1/2-x,y,1/2+z
x,1/2-y,1/2+z
loop_
_atom_site_type_symbol
_atom_site_label
_atom_site_fract_x
_atom_site_fract_y
_atom_site_fract_z
Si Si1 0.106184 0.342023 0.405753
Si Si2 0.109649 0.557860 0.289700
Si Si3 0.999647 0.340063 0.181131
Si Si4 0.076567 0.358163 0.008898
O O1 0.250000 0.250000 0.361263
O O2 0.040349 0.462555 0.357217
O O3 0.482994 0.738113 0.552644
O O4 0.225852 0.379366 0.478512
O O5 0.303479 0.601624 0.313702
O O6 0.007545 0.695672 0.279146
O O7 0.110490 0.457357 0.219122
O O8 0.054336 0.315108 0.094936
O O9 0.000000 0.500000 0.000000
#
# Coordination Sequence:
#
# PCOD9433639 Si02
#       4
#     8   8   8   8
#     4   8  20  37  65  91 124 173 211 275 327 377
#     4  11  25  42  66  99 133 177 215 273 329 399
#     4  11  25  42  68  97 135 173 222 268 332 396
#     4   9  18  38  66  90 126 170 216 267 325 381
#
# _framework density 23.370090999999999
#
# number of rings (size 3 to 8) (size 9 to 14) (size 15 to 20)
#    1.500    0.500    2.500    0.000    7.000    5.000 
#    0.000    0.000    0.000    0.000    0.000    0.000 
#    0.000    0.000    0.000    0.000    0.000    0.000 
#
# Total GULP energy -178139.088602 kJ/mol
# GULP energy per Si atom -5566.846519 kJ/mol
# Density = 2.331690 g / cm^3
# Si number density = 23.370091 Si / 1000 Ang^3
#
#
#
# Elastic Constant Matrix: (Units=GPa)
#
#
# Indices 1 2 3 4 5 6 
#
# 1 27.8130 11.2509 1.2688 0.0000 0.0000 0.0000
# 2 11.2509 170.7213 39.1948 0.0000 0.0000 0.0000
# 3 1.2688 39.1948 79.9375 0.0000 0.0000 0.0000
# 4 0.0000 0.0000 0.0000 49.4712 0.0000 0.0000
# 5 0.0000 0.0000 0.0000 0.0000 1.5731 0.0000
# 6 0.0000 0.0000 0.0000 0.0000 0.0000 25.2452
#
#
#
# Elastic Compliance Matrix: (Units=1/GPa)
#
#
# Indices 1 2 3 4 5 6 
#
# 1 0.036972 -0.002594 0.000685 0.000000 0.000000 0.000000
# 2 -0.002594 0.006782 -0.003284 0.000000 0.000000 0.000000
# 3 0.000685 -0.003284 0.014109 0.000000 0.000000 0.000000
# 4 0.000000 0.000000 0.000000 0.020214 0.000000 0.000000
# 5 0.000000 0.000000 0.000000 0.000000 0.635702 0.000000
# 6 0.000000 0.000000 0.000000 0.000000 0.000000 0.039611
#
#
# Mechanical properties :
#
#
# Convention : Reuss Voigt Hill
#
# Bulk Modulus (GPa) = 21.06253 42.43342 31.74797
# Shear Modulus (GPa) = 6.41351 30.37505 18.39428
#
# Velocity S-wave (km/s) = 1.65840 3.60910 2.80855
# Velocity P-wave (km/s) = 3.56359 5.96356 4.91240
#
# Compressibility (1/GPa) = 0.04747769
#
# Stress axis : x y z
#
# Youngs Moduli (GPa) = 27.04715 147.43874 70.87527
#
# Poissons Ratio (x) = 0.38243 -0.04854
# Poissons Ratio (y) = 0.07016 0.23278
# Poissons Ratio (z) = -0.01853 0.48425
#
# Static dielectric constant tensor:
#      x y z
#    x 1.952190 0.000000 0.000000 
#    y 0.000000 1.897990 0.000000 
#    z 0.000000 0.000000 1.930290 
# 
# From -- ./inp_files/11265.got.cif
#   From: 2010.05.17/outbox.cif.g08.bks.cpg/sg56_6_cif.got.tgz:11265.got - 2010.06.03 13:42:01.
