data_PCOD9433703
_publ_section_title
;
Structure prediction by ZEFSAII (Michael W. Deem and Ramdas Pophale) SiO2 
 PCOD9433703
Probable space group: P C C N
;
_chemical_formula_sum "Si O2"
_cell_formula_units_Z 48
_cell_length_a 8.768392
_cell_length_b 14.998232
_cell_length_c 16.605390
_cell_angle_alpha 90.000000
_cell_angle_beta 90.000000
_cell_angle_gamma 90.000000
_cell_volume 2183.781107
_symmetry_space_group_name_H-M "P C C N"
_symmetry_group_IT_number 56
_symmetry_cell_setting 'orthorhombic'
loop_
_space_group_symop_operation_xyz
x,y,z
1/2-x,1/2-y,z
1/2+x,-y,1/2-z
-x,1/2+y,1/2-z
-x,-y,-z
1/2+x,1/2+y,-z
1/2-x,y,1/2+z
x,1/2-y,1/2+z
loop_
_atom_site_type_symbol
_atom_site_label
_atom_site_fract_x
_atom_site_fract_y
_atom_site_fract_z
Si Si1 0.615464 0.093931 0.824020
Si Si2 0.613373 0.417849 0.508397
Si Si3 0.576788 0.734863 0.230658
Si Si4 0.074864 0.247335 0.575707
Si Si5 0.561318 0.060935 0.571151
Si Si6 0.057265 0.958826 0.226296
O O1 0.667037 0.099256 0.916604
O O2 0.535140 0.187179 0.800698
O O3 0.765375 0.067135 0.773594
O O4 0.498983 0.012703 0.804833
O O5 0.500000 0.500000 0.500000
O O6 0.518608 0.333942 0.539493
O O7 0.756311 0.438487 0.565268
O O8 0.750000 0.750000 0.202089
O O9 0.575414 0.739612 0.327584
O O10 0.527244 0.634543 0.210959
O O11 0.250000 0.250000 0.547688
O O12 0.993871 0.339276 0.555382
O O13 0.500000 0.000000 0.500000
O O14 0.486681 0.025442 0.653516
#
# Coordination Sequence:
#
# PCOD9433703 Si02
#       6
#     8   8   8   8   8   8
#     4  12  27  47  72 111 142 191 246 298 365 442
#     4  12  28  45  75 107 146 186 247 298 367 434
#     4  11  26  46  73 105 145 193 245 302 368 437
#     4  11  26  49  73 106 149 193 242 302 371 436
#     4  12  26  48  73 105 145 196 237 303 364 433
#     4  12  27  46  76 103 149 187 247 302 363 441
#
# _framework density 21.980224
#
# number of rings (size 3 to 8) (size 9 to 14) (size 15 to 20)
#    0.000    0.333    3.333    4.000   11.667    3.333 
#    0.000    0.000    0.000    0.000    0.000    0.000 
#    0.000    0.000    0.000    0.000    0.000    0.000 
#
# Total GULP energy -268847.390176 kJ/mol
# GULP energy per Si atom -5600.987295 kJ/mol
# Density = 2.193020 g / cm^3
# Si number density = 21.980224 Si / 1000 Ang^3
#
#
#
# Elastic Constant Matrix: (Units=GPa)
#
#
# Indices 1 2 3 4 5 6 
#
# 1 116.1296 53.4559 6.6252 0.0000 0.0000 0.0000
# 2 53.4559 179.2633 0.1526 0.0000 0.0000 0.0000
# 3 6.6252 0.1526 49.4955 0.0000 0.0000 0.0000
# 4 0.0000 0.0000 0.0000 33.5082 0.0000 0.0000
# 5 0.0000 0.0000 0.0000 0.0000 32.7634 0.0000
# 6 0.0000 0.0000 0.0000 0.0000 0.0000 49.1495
#
#
#
# Elastic Compliance Matrix: (Units=1/GPa)
#
#
# Indices 1 2 3 4 5 6 
#
# 1 0.010069 -0.003001 -0.001339 0.000000 0.000000 0.000000
# 2 -0.003001 0.006473 0.000382 0.000000 0.000000 0.000000
# 3 -0.001339 0.000382 0.020382 0.000000 0.000000 0.000000
# 4 0.000000 0.000000 0.000000 0.029843 0.000000 0.000000
# 5 0.000000 0.000000 0.000000 0.000000 0.030522 0.000000
# 6 0.000000 0.000000 0.000000 0.000000 0.000000 0.020346
#
#
# Mechanical properties :
#
#
# Convention : Reuss Voigt Hill
#
# Bulk Modulus (GPa) = 34.47367 51.70620 43.08993
# Shear Modulus (GPa) = 36.97654 42.06120 39.51887
#
# Velocity S-wave (km/s) = 4.10599 4.37921 4.24480
# Velocity P-wave (km/s) = 6.18036 7.01035 6.60840
#
# Compressibility (1/GPa) = 0.02900764
#
# Stress axis : x y z
#
# Youngs Moduli (GPa) = 99.31447 154.48600 49.06329
#
# Poissons Ratio (x) = 0.46368 0.06567
# Poissons Ratio (y) = 0.29808 -0.01873
# Poissons Ratio (z) = 0.13294 -0.05898
#
# Static dielectric constant tensor:
#      x y z
#    x 1.804800 0.000000 0.000000 
#    y 0.000000 1.746060 0.000000 
#    z 0.000000 0.000000 1.817840 
# 
# From -- ./inp_files/14825.got.cif
#   From: 2010.05.17/outbox.cif.g08.bks.cpg/sg56_8_cif.got.tgz:14825.got - 2010.06.03 13:42:01.
