data_PCOD9433581
_publ_section_title
;
Structure prediction by ZEFSAII (Michael W. Deem and Ramdas Pophale) SiO2 
 PCOD9433581
Probable space group: P C C N
;
_chemical_formula_sum "Si O2"
_cell_formula_units_Z 60
_cell_length_a 24.566654
_cell_length_b 12.312536
_cell_length_c 8.707743
_cell_angle_alpha 90.000000
_cell_angle_beta 90.000000
_cell_angle_gamma 90.000000
_cell_volume 2633.899048
_symmetry_space_group_name_H-M "P C C N"
_symmetry_group_IT_number 56
_symmetry_cell_setting 'orthorhombic'
loop_
_space_group_symop_operation_xyz
x,y,z
1/2-x,1/2-y,z
1/2+x,-y,1/2-z
-x,1/2+y,1/2-z
-x,-y,-z
1/2+x,1/2+y,-z
1/2-x,y,1/2+z
x,1/2-y,1/2+z
loop_
_atom_site_type_symbol
_atom_site_label
_atom_site_fract_x
_atom_site_fract_y
_atom_site_fract_z
Si Si1 0.637931 0.114141 0.293289
Si Si2 0.511132 0.421545 0.855295
Si Si3 0.938754 0.709905 0.126506
Si Si4 0.366896 0.278672 0.636001
Si Si5 0.187182 0.710854 0.400513
Si Si6 0.316681 0.024318 0.280726
Si Si7 0.796386 0.585366 0.365059
Si Si8 0.000000 0.000000 0.500000
O O1 0.575618 0.103730 0.341413
O O2 0.648343 0.189939 0.147108
O O3 0.672660 0.170996 0.429035
O O4 0.663376 0.995243 0.272726
O O5 0.478464 0.311438 0.887030
O O6 0.494162 0.465471 0.687498
O O7 0.500000 0.500000 0.000000
O O8 0.918644 0.710943 0.301192
O O9 0.880396 0.718638 0.042393
O O10 0.967132 0.607101 0.054427
O O11 0.362681 0.398307 0.708673
O O12 0.312963 0.208896 0.663901
O O13 0.250000 0.750000 0.389348
O O14 0.175750 0.605566 0.292534
O O15 0.263574 0.050638 0.181430
O O16 0.306313 0.061292 0.455491
#
# Coordination Sequence:
#
# PCOD9433581 Si02
#       8
#     8   8   8   8   8   8   8   4
#     4  11  26  45  75 108 151 200 254 320 390 468
#     4  12  29  52  79 115 160 205 271 338 397 488
#     4  12  26  49  75 108 152 194 265 323 391 478
#     4  12  25  47  71 104 147 196 245 324 385 462
#     4  11  24  47  73 112 155 197 256 322 390 477
#     4  11  26  41  73 103 148 193 248 311 388 465
#     4  11  24  45  66 103 143 193 245 312 375 460
#     4  12  28  50  84 108 152 218 256 330 418 458
#
# _framework density 22.779916
#
# number of rings (size 3 to 8) (size 9 to 14) (size 15 to 20)
#    0.000    0.533    4.000    3.200    7.467    2.133 
#    0.000    0.000    0.000    0.000    0.000    0.000 
#    0.000    0.000    0.000    0.000    0.000    0.000 
#
# Total GULP energy -334506.868329 kJ/mol
# GULP energy per Si atom -5575.114472 kJ/mol
# Density = 2.272807 g / cm^3
# Si number density = 22.779916 Si / 1000 Ang^3
#
#
#
# Elastic Constant Matrix: (Units=GPa)
#
#
# Indices 1 2 3 4 5 6 
#
# 1 78.9563 30.8200 14.6460 0.0000 0.0000 0.0000
# 2 30.8200 73.2288 14.5194 0.0000 0.0000 0.0000
# 3 14.6460 14.5194 73.6511 0.0000 0.0000 0.0000
# 4 0.0000 0.0000 0.0000 35.8064 0.0000 0.0000
# 5 0.0000 0.0000 0.0000 0.0000 30.1850 0.0000
# 6 0.0000 0.0000 0.0000 0.0000 0.0000 26.3967
#
#
#
# Elastic Compliance Matrix: (Units=1/GPa)
#
#
# Indices 1 2 3 4 5 6 
#
# 1 0.015395 -0.006111 -0.001857 0.000000 0.000000 0.000000
# 2 -0.006111 0.016637 -0.002065 0.000000 0.000000 0.000000
# 3 -0.001857 -0.002065 0.014354 0.000000 0.000000 0.000000
# 4 0.000000 0.000000 0.000000 0.027928 0.000000 0.000000
# 5 0.000000 0.000000 0.000000 0.000000 0.033129 0.000000
# 6 0.000000 0.000000 0.000000 0.000000 0.000000 0.037883
#
#
# Mechanical properties :
#
#
# Convention : Reuss Voigt Hill
#
# Bulk Modulus (GPa) = 37.99228 38.42300 38.20764
# Shear Modulus (GPa) = 28.70836 29.53434 29.12135
#
# Velocity S-wave (km/s) = 3.55385 3.60461 3.57932
# Velocity P-wave (km/s) = 5.79258 5.85047 5.82159
#
# Compressibility (1/GPa) = 0.02632114
#
# Stress axis : x y z
#
# Youngs Moduli (GPa) = 64.95564 60.10607 69.66824
#
# Poissons Ratio (x) = 0.36732 0.12935
# Poissons Ratio (y) = 0.39696 0.14383
# Poissons Ratio (z) = 0.12060 0.12409
#
# Static dielectric constant tensor:
#      x y z
#    x 1.843350 0.000000 0.000000 
#    y 0.000000 1.886310 0.000000 
#    z 0.000000 0.000000 1.821040 
# 
# From -- ./inp_files/4968.got.cif
#   From: 2010.05.17/outbox.cif.g08.bks.cpg/sg56_3_cif.got.tgz:4968.got - 2010.06.03 13:42:01.
