data_PCOD9433408
_publ_section_title
;
Structure prediction by ZEFSAII (Michael W. Deem and Ramdas Pophale) SiO2 
 PCOD9433408
Probable space group: P C C N
;
_chemical_formula_sum "Si O2"
_cell_formula_units_Z 56
_cell_length_a 9.210747
_cell_length_b 18.758961
_cell_length_c 13.494913
_cell_angle_alpha 90.000000
_cell_angle_beta 90.000000
_cell_angle_gamma 90.000000
_cell_volume 2331.705638
_symmetry_space_group_name_H-M "P C C N"
_symmetry_group_IT_number 56
_symmetry_cell_setting 'orthorhombic'
loop_
_space_group_symop_operation_xyz
x,y,z
1/2-x,1/2-y,z
1/2+x,-y,1/2-z
-x,1/2+y,1/2-z
-x,-y,-z
1/2+x,1/2+y,-z
1/2-x,y,1/2+z
x,1/2-y,1/2+z
loop_
_atom_site_type_symbol
_atom_site_label
_atom_site_fract_x
_atom_site_fract_y
_atom_site_fract_z
Si Si1 0.003446 0.853211 0.436072
Si Si2 0.081456 0.946227 0.172268
Si Si3 0.526123 0.872933 0.149022
Si Si4 0.917363 0.273287 0.677051
Si Si5 0.183594 0.674563 0.522725
Si Si6 0.671270 0.995330 0.932012
Si Si7 0.253399 0.012829 0.837226
O O1 0.923709 0.926214 0.411731
O O2 0.939404 0.833113 0.545309
O O3 0.174151 0.855705 0.465660
O O4 0.173476 0.949057 0.274173
O O5 0.991323 0.798123 0.346023
O O6 0.113483 0.874985 0.107123
O O7 0.916326 0.972093 0.178978
O O8 0.464542 0.821340 0.232027
O O9 0.663953 0.914380 0.190360
O O10 0.414731 0.937327 0.116372
O O11 0.750000 0.250000 0.691136
O O12 0.923509 0.312042 0.569342
O O13 0.250000 0.750000 0.561221
O O14 0.830253 0.993382 0.887044
O O15 0.703401 0.997303 0.048568
#
# Coordination Sequence:
#
# PCOD9433408 Si02
#       7
#     8   8   8   8   8   8   8
#     4   9  19  43  73 110 151 204 245 319 387 455
#     4  12  25  47  77 110 159 196 264 325 394 456
#     4  11  22  45  74 114 157 203 261 319 385 458
#     4   9  22  44  75 118 157 204 266 306 387 473
#     4   9  21  44  77 114 149 206 262 308 384 469
#     4  11  24  46  76 112 156 199 259 319 395 454
#     4  11  27  45  72 118 154 203 256 333 393 464
#
# _framework density 24.016753999999999
#
# number of rings (size 3 to 8) (size 9 to 14) (size 15 to 20)
#    0.000    2.000    1.429    3.000    2.000    5.714 
#   10.286    0.000    3.143   21.429    0.000    0.000 
#    0.000    0.000    0.000    0.000    0.000    0.000 
#
# Total GULP energy -312759.462212 kJ/mol
# GULP energy per Si atom -5584.990397 kJ/mol
# Density = 2.396209 g / cm^3
# Si number density = 24.016754 Si / 1000 Ang^3
#
#
#
# Elastic Constant Matrix: (Units=GPa)
#
#
# Indices 1 2 3 4 5 6 
#
# 1 151.6467 72.2800 53.7118 0.0000 0.0000 0.0000
# 2 72.2800 144.9038 102.9090 0.0000 0.0000 0.0000
# 3 53.7118 102.9090 177.9644 0.0000 0.0000 0.0000
# 4 0.0000 0.0000 0.0000 59.8736 0.0000 0.0000
# 5 0.0000 0.0000 0.0000 0.0000 22.5209 0.0000
# 6 0.0000 0.0000 0.0000 0.0000 0.0000 30.6466
#
#
#
# Elastic Compliance Matrix: (Units=1/GPa)
#
#
# Indices 1 2 3 4 5 6 
#
# 1 0.008655 -0.004178 -0.000196 0.000000 0.000000 0.000000
# 2 -0.004178 0.013727 -0.006677 0.000000 0.000000 0.000000
# 3 -0.000196 -0.006677 0.009539 0.000000 0.000000 0.000000
# 4 0.000000 0.000000 0.000000 0.016702 0.000000 0.000000
# 5 0.000000 0.000000 0.000000 0.000000 0.044403 0.000000
# 6 0.000000 0.000000 0.000000 0.000000 0.000000 0.032630
#
#
# Mechanical properties :
#
#
# Convention : Reuss Voigt Hill
#
# Bulk Modulus (GPa) = 101.83971 103.59074 102.71523
# Shear Modulus (GPa) = 33.10574 38.98248 36.04411
#
# Velocity S-wave (km/s) = 3.71677 4.03319 3.87821
# Velocity P-wave (km/s) = 7.80479 8.05699 7.93190
#
# Compressibility (1/GPa) = 0.00981935
#
# Stress axis : x y z
#
# Youngs Moduli (GPa) = 115.53844 72.85012 104.83054
#
# Poissons Ratio (x) = 0.30436 0.02058
# Poissons Ratio (y) = 0.48270 0.69992
# Poissons Ratio (z) = 0.02269 0.48640
#
# Static dielectric constant tensor:
#      x y z
#    x 1.922880 0.000000 0.000000 
#    y 0.000000 2.037140 0.000000 
#    z 0.000000 0.000000 2.058140 
# 
# From -- ./inp_files/7266.got.cif
#   From: 2010.05.17/outbox.cif.g08.bks.cpg/sg56_4_cif.got.tgz:7266.got - 2010.06.03 13:42:01.
