data_PCOD9433402
_publ_section_title
;
Structure prediction by ZEFSAII (Michael W. Deem and Ramdas Pophale) SiO2 
 PCOD9433402
Probable space group: P C C N
;
_chemical_formula_sum "Si O2"
_cell_formula_units_Z 40
_cell_length_a 17.853230
_cell_length_b 8.809396
_cell_length_c 11.545620
_cell_angle_alpha 90.000000
_cell_angle_beta 90.000000
_cell_angle_gamma 90.000000
_cell_volume 1815.850928
_symmetry_space_group_name_H-M "P C C N"
_symmetry_group_IT_number 56
_symmetry_cell_setting 'orthorhombic'
loop_
_space_group_symop_operation_xyz
x,y,z
1/2-x,1/2-y,z
1/2+x,-y,1/2-z
-x,1/2+y,1/2-z
-x,-y,-z
1/2+x,1/2+y,-z
1/2-x,y,1/2+z
x,1/2-y,1/2+z
loop_
_atom_site_type_symbol
_atom_site_label
_atom_site_fract_x
_atom_site_fract_y
_atom_site_fract_z
Si Si1 0.579207 0.270652 0.689759
Si Si2 0.571485 0.948124 0.783437
Si Si3 0.836991 0.439080 0.002470
Si Si4 0.674723 0.680373 0.687354
Si Si5 0.796959 0.105806 0.843575
O O1 0.505373 0.372208 0.676050
O O2 0.633031 0.299605 0.579377
O O3 0.620346 0.334572 0.807201
O O4 0.559707 0.093390 0.700709
O O5 0.620189 0.811610 0.729587
O O6 0.618342 0.021877 0.887300
O O7 0.750233 0.420033 0.962495
O O8 0.856758 0.577885 0.086193
O O9 0.750000 0.750000 0.638072
O O10 0.702015 0.559714 0.784571
O O11 0.750000 0.250000 0.791366
#
# Coordination Sequence:
#
# PCOD9433402 Si02
#       5
#     8   8   8   8   8
#     4  11  25  47  75 104 143 197 233 306 368 422
#     4  12  25  52  72 107 151 182 250 305 360 436
#     4  11  25  44  74 100 146 186 244 293 364 431
#     4  11  24  43  72 105 142 189 240 294 358 422
#     4  11  22  45  71 103 145 186 241 295 355 429
#
# _framework density 22.028241000000001
#
# number of rings (size 3 to 8) (size 9 to 14) (size 15 to 20)
#    0.000    0.800    4.000    3.000    2.800    4.800 
#    0.000    2.000    0.000    0.000    0.000    0.000 
#    0.000    0.000    0.000    0.000    0.000    0.000 
#
# Total GULP energy -222870.100522 kJ/mol
# GULP energy per Si atom -5571.752513 kJ/mol
# Density = 2.197810 g / cm^3
# Si number density = 22.028241 Si / 1000 Ang^3
#
#
#
# Elastic Constant Matrix: (Units=GPa)
#
#
# Indices 1 2 3 4 5 6 
#
# 1 66.1435 8.9705 4.8739 0.0000 0.0000 0.0000
# 2 8.9705 143.6465 32.7368 0.0000 0.0000 0.0000
# 3 4.8739 32.7368 63.8337 0.0000 0.0000 0.0000
# 4 0.0000 0.0000 0.0000 -11.3527 0.0000 0.0000
# 5 0.0000 0.0000 0.0000 0.0000 12.0956 0.0000
# 6 0.0000 0.0000 0.0000 0.0000 0.0000 51.7016
#
#
#
# Elastic Compliance Matrix: (Units=1/GPa)
#
#
# Indices 1 2 3 4 5 6 
#
# 1 0.015281 -0.000779 -0.000767 0.000000 0.000000 0.000000
# 2 -0.000779 0.007923 -0.004004 0.000000 0.000000 0.000000
# 3 -0.000767 -0.004004 0.017777 0.000000 0.000000 0.000000
# 4 0.000000 0.000000 0.000000 -0.088085 0.000000 0.000000
# 5 0.000000 0.000000 0.000000 0.000000 0.082675 0.000000
# 6 0.000000 0.000000 0.000000 0.000000 0.000000 0.019342
#
#
# Mechanical properties :
#
#
# Convention : Reuss Voigt Hill
#
# Bulk Modulus (GPa) = 33.46617 40.75401 37.11009
# Shear Modulus (GPa) = 65.81277 25.62507 45.71892
#
# Velocity S-wave (km/s) = 5.47187 3.41439 4.56067
# Velocity P-wave (km/s) = 7.42612 5.83824 6.67953
#
# Compressibility (1/GPa) = 0.02988092
#
# Stress axis : x y z
#
# Youngs Moduli (GPa) = 65.44128 126.22100 56.25096
#
# Poissons Ratio (x) = 0.09839 0.04314
# Poissons Ratio (y) = 0.05101 0.22520
# Poissons Ratio (z) = 0.05019 0.50533
#
# Static dielectric constant tensor:
#      x y z
#    x 1.820860 0.000000 0.000000 
#    y 0.000000 1.827240 0.000000 
#    z 0.000000 0.000000 1.829510 
# 
# From -- ./inp_files/8176.got.cif
#   From: 2010.05.17/outbox.cif.g08.bks.cpg/sg56_5_cif.got.tgz:8176.got - 2010.06.03 13:42:01.
