data_PCOD9433665
_publ_section_title
;
Structure prediction by ZEFSAII (Michael W. Deem and Ramdas Pophale) SiO2 
 PCOD9433665
Probable space group: P C C N
;
_chemical_formula_sum "Si O2"
_cell_formula_units_Z 36
_cell_length_a 11.126986
_cell_length_b 5.302774
_cell_length_c 24.345192
_cell_angle_alpha 90.000000
_cell_angle_beta 90.000000
_cell_angle_gamma 90.000000
_cell_volume 1436.461081
_symmetry_space_group_name_H-M "P C C N"
_symmetry_group_IT_number 56
_symmetry_cell_setting 'orthorhombic'
loop_
_space_group_symop_operation_xyz
x,y,z
1/2-x,1/2-y,z
1/2+x,-y,1/2-z
-x,1/2+y,1/2-z
-x,-y,-z
1/2+x,1/2+y,-z
1/2-x,y,1/2+z
x,1/2-y,1/2+z
loop_
_atom_site_type_symbol
_atom_site_label
_atom_site_fract_x
_atom_site_fract_y
_atom_site_fract_z
Si Si1 0.413458 0.808311 0.468802
Si Si2 0.320048 0.503433 0.861667
Si Si3 0.033773 0.014782 0.218192
Si Si4 0.641497 0.952375 0.930738
Si Si5 0.750000 0.250000 0.332391
O O1 0.329961 0.961744 0.427348
O O2 0.359243 0.629147 0.515447
O O3 0.506261 0.652240 0.430942
O O4 0.500000 0.000000 0.500000
O O5 0.250000 0.750000 0.840537
O O6 0.451164 0.495567 0.835647
O O7 0.250000 0.250000 0.848053
O O8 0.982626 0.793978 0.257715
O O9 0.169172 0.937482 0.203255
O O10 0.750000 0.750000 0.935894
O O11 0.665256 0.098003 0.874412
#
# Coordination Sequence:
#
# PCOD9433665 Si02
#       5
#     8   8   8   8   4
#     4  11  27  45  72 117 162 213 268 319 394 492
#     4  12  30  50  80 117 164 207 263 337 407 485
#     4  12  31  56  85 119 154 212 278 350 422 484
#     4  11  25  46  76 113 164 213 270 324 402 489
#     4  12  30  52  84 114 164 212 280 346 406 520
#
# _framework density 25.061591
#
# number of rings (size 3 to 8) (size 9 to 14) (size 15 to 20)
#    0.000    0.444    0.000    5.333   24.889    0.000 
#    0.000    0.000    0.000    0.000    0.000    0.000 
#    0.000    0.000    0.000    0.000    0.000    0.000 
#
# Total GULP energy -201974.390338 kJ/mol
# GULP energy per Si atom -5610.399732 kJ/mol
# Density = 2.500455 g / cm^3
# Si number density = 25.061591 Si / 1000 Ang^3
#
#
#
# Elastic Constant Matrix: (Units=GPa)
#
#
# Indices 1 2 3 4 5 6 
#
# 1 67.6948 9.4564 1.4451 0.0000 0.0000 0.0000
# 2 9.4564 103.1190 9.2521 0.0000 0.0000 0.0000
# 3 1.4451 9.2521 82.5964 0.0000 0.0000 0.0000
# 4 0.0000 0.0000 0.0000 29.1269 0.0000 0.0000
# 5 0.0000 0.0000 0.0000 0.0000 48.6362 0.0000
# 6 0.0000 0.0000 0.0000 0.0000 0.0000 60.9002
#
#
#
# Elastic Compliance Matrix: (Units=1/GPa)
#
#
# Indices 1 2 3 4 5 6 
#
# 1 0.014965 -0.001363 -0.000109 0.000000 0.000000 0.000000
# 2 -0.001363 0.009920 -0.001087 0.000000 0.000000 0.000000
# 3 -0.000109 -0.001087 0.012231 0.000000 0.000000 0.000000
# 4 0.000000 0.000000 0.000000 0.034333 0.000000 0.000000
# 5 0.000000 0.000000 0.000000 0.000000 0.020561 0.000000
# 6 0.000000 0.000000 0.000000 0.000000 0.000000 0.016420
#
#
# Mechanical properties :
#
#
# Convention : Reuss Voigt Hill
#
# Bulk Modulus (GPa) = 31.25246 32.63526 31.94386
# Shear Modulus (GPa) = 40.25332 43.28310 41.76821
#
# Velocity S-wave (km/s) = 4.01206 4.16031 4.08686
# Velocity P-wave (km/s) = 5.82748 6.01065 5.91977
#
# Compressibility (1/GPa) = 0.03199748
#
# Stress axis : x y z
#
# Youngs Moduli (GPa) = 66.82328 100.80598 81.76094
#
# Poissons Ratio (x) = 0.13735 0.00893
# Poissons Ratio (y) = 0.09105 0.08890
# Poissons Ratio (z) = 0.00730 0.10961
#
# Static dielectric constant tensor:
#      x y z
#    x 1.986450 0.000000 0.000000 
#    y 0.000000 1.990130 0.000000 
#    z 0.000000 0.000000 1.954750 
# 
# From -- ./inp_files/20781.got.cif
#   From: 2010.05.17/outbox.cif.g08.bks.cpg/sg56_11_cif.got.tgz:20781.got - 2010.06.03 13:42:01.
