data_PCOD9433336
_publ_section_title
;
Structure prediction by ZEFSAII (Michael W. Deem and Ramdas Pophale) SiO2 
 PCOD9433336
Probable space group: P C C N
;
_chemical_formula_sum "Si O2"
_cell_formula_units_Z 60
_cell_length_a 16.939989
_cell_length_b 17.622657
_cell_length_c 10.207193
_cell_angle_alpha 90.000000
_cell_angle_beta 90.000000
_cell_angle_gamma 90.000000
_cell_volume 3047.128990
_symmetry_space_group_name_H-M "P C C N"
_symmetry_group_IT_number 56
_symmetry_cell_setting 'orthorhombic'
loop_
_space_group_symop_operation_xyz
x,y,z
1/2-x,1/2-y,z
1/2+x,-y,1/2-z
-x,1/2+y,1/2-z
-x,-y,-z
1/2+x,1/2+y,-z
1/2-x,y,1/2+z
x,1/2-y,1/2+z
loop_
_atom_site_type_symbol
_atom_site_label
_atom_site_fract_x
_atom_site_fract_y
_atom_site_fract_z
Si Si1 0.095631 0.777851 0.869509
Si Si2 0.741196 0.979044 0.076314
Si Si3 0.306005 0.620018 0.051522
Si Si4 0.750000 0.250000 0.785037
Si Si5 0.902290 0.018287 0.748793
Si Si6 0.842592 0.556588 0.817043
Si Si7 0.492395 0.134710 0.084907
Si Si8 0.536678 0.082491 0.798083
O O1 0.172331 0.739754 0.802656
O O2 0.028205 0.718422 0.905078
O O3 0.065410 0.841902 0.770962
O O4 0.130425 0.821891 0.993871
O O5 0.659158 0.977670 0.153311
O O6 0.804501 0.939947 0.172509
O O7 0.723532 0.947283 0.931245
O O8 0.765478 0.067698 0.058149
O O9 0.244748 0.673765 0.127961
O O10 0.352189 0.560303 0.141122
O O11 0.970210 0.959396 0.789590
O O12 0.949165 0.081872 0.668505
O O13 0.892481 0.477534 0.821364
O O14 0.905787 0.621062 0.854925
O O15 0.498489 0.103601 0.937407
#
# Coordination Sequence:
#
# PCOD9433336 Si02
#       8
#     8   8   8   4   8   8   8   8
#     4  12  25  39  61  95 132 174 216 264 329 400
#     4  12  21  39  65  97 124 164 221 269 321 380
#     4  12  24  36  59  98 135 165 209 269 322 395
#     4  12  24  40  58  92 144 176 204 250 332 402
#     4  11  22  39  62  90 124 171 217 263 319 390
#     4  11  22  41  67  96 127 170 221 273 323 389
#     4  11  23  41  62  90 134 177 214 259 336 405
#     4  11  22  42  64  89 128 174 214 262 327 397
#
# _framework density 19.690666
#
# number of rings (size 3 to 8) (size 9 to 14) (size 15 to 20)
#    0.000    0.533    6.667    3.600    1.867    0.533 
#    0.000    0.000    0.000    0.800    3.467    0.000 
#    0.000    0.000    0.000    0.000    0.000    0.000 
#
# Total GULP energy -335320.082926 kJ/mol
# GULP energy per Si atom -5588.668049 kJ/mol
# Density = 1.964585 g / cm^3
# Si number density = 19.690666 Si / 1000 Ang^3
#
#
#
# Elastic Constant Matrix: (Units=GPa)
#
#
# Indices 1 2 3 4 5 6 
#
# 1 87.4108 36.8970 40.4469 0.0000 0.0000 0.0000
# 2 36.8970 52.6010 12.6897 0.0000 0.0000 0.0000
# 3 40.4469 12.6897 62.2964 0.0000 0.0000 0.0000
# 4 0.0000 0.0000 0.0000 16.5946 0.0000 0.0000
# 5 0.0000 0.0000 0.0000 0.0000 19.0663 0.0000
# 6 0.0000 0.0000 0.0000 0.0000 0.0000 36.6213
#
#
#
# Elastic Compliance Matrix: (Units=1/GPa)
#
#
# Indices 1 2 3 4 5 6 
#
# 1 0.022357 -0.012810 -0.011906 0.000000 0.000000 0.000000
# 2 -0.012810 0.027333 0.002749 0.000000 0.000000 0.000000
# 3 -0.011906 0.002749 0.023222 0.000000 0.000000 0.000000
# 4 0.000000 0.000000 0.000000 0.060260 0.000000 0.000000
# 5 0.000000 0.000000 0.000000 0.000000 0.052449 0.000000
# 6 0.000000 0.000000 0.000000 0.000000 0.000000 0.027306
#
#
# Mechanical properties :
#
#
# Convention : Reuss Voigt Hill
#
# Bulk Modulus (GPa) = 34.50767 42.48618 38.49692
# Shear Modulus (GPa) = 18.76028 21.94142 20.35085
#
# Velocity S-wave (km/s) = 3.09001 3.34174 3.21834
# Velocity P-wave (km/s) = 5.50398 6.04262 5.77958
#
# Compressibility (1/GPa) = 0.02897907
#
# Stress axis : x y z
#
# Youngs Moduli (GPa) = 44.72969 36.58546 43.06181
#
# Poissons Ratio (x) = 0.46865 0.51269
# Poissons Ratio (y) = 0.57298 -0.11838
# Poissons Ratio (z) = 0.53255 -0.10058
#
# Static dielectric constant tensor:
#      x y z
#    x 1.715560 0.000000 0.000000 
#    y 0.000000 1.689350 0.000000 
#    z 0.000000 0.000000 1.736740 
# 
# From -- ./inp_files/4124.got.cif
#   From: 2010.05.17/outbox.cif.g08.bks.cpg/sg56_3_cif.got.tgz:4124.got - 2010.06.03 13:42:01.
