data_PCOD9433881
_publ_section_title
;
Structure prediction by ZEFSAII (Michael W. Deem and Ramdas Pophale) SiO2 
 PCOD9433881
Probable space group: P C C N
;
_chemical_formula_sum "Si O2"
_cell_formula_units_Z 32
_cell_length_a 8.000350
_cell_length_b 5.061510
_cell_length_c 30.488004
_cell_angle_alpha 90.000000
_cell_angle_beta 90.000000
_cell_angle_gamma 90.000000
_cell_volume 1234.576707
_symmetry_space_group_name_H-M "P C C N"
_symmetry_group_IT_number 56
_symmetry_cell_setting 'orthorhombic'
loop_
_space_group_symop_operation_xyz
x,y,z
1/2-x,1/2-y,z
1/2+x,-y,1/2-z
-x,1/2+y,1/2-z
-x,-y,-z
1/2+x,1/2+y,-z
1/2-x,y,1/2+z
x,1/2-y,1/2+z
loop_
_atom_site_type_symbol
_atom_site_label
_atom_site_fract_x
_atom_site_fract_y
_atom_site_fract_z
Si Si1 0.250000 0.250000 0.066041
Si Si2 0.750000 0.750000 0.113580
Si Si3 0.750000 0.250000 0.551296
Si Si4 0.000000 0.500000 0.500000
Si Si5 0.949506 0.234169 0.223076
Si Si6 0.906121 0.440750 0.854444
O O1 0.132883 0.413781 0.099835
O O2 0.346986 0.452805 0.035080
O O3 0.728217 0.503922 0.081296
O O4 0.580760 0.783393 0.140695
O O5 0.590059 0.258703 0.521149
O O6 0.750000 0.250000 0.214511
O O7 0.995833 0.445369 0.261088
O O8 0.054368 0.338078 0.181757
O O9 0.750000 0.250000 0.844265
#
# Coordination Sequence:
#
# PCOD9433881 Si02
#       6
#     4   4   4   4   8   8
#     4  12  29  56  85 126 178 246 304 391 456 547
#     4  12  29  54  81 126 166 230 296 373 452 527
#     4  12  28  50  80 114 166 218 296 370 446 528
#     4  12  28  50  80 118 168 228 298 370 454 524
#     4  12  31  56  90 135 186 240 301 373 463 561
#     4  12  31  55  90 129 179 242 309 377 462 550
#
# _framework density 25.919813999999999
#
# number of rings (size 3 to 8) (size 9 to 14) (size 15 to 20)
#    0.000    0.000    2.500    3.750   17.500    2.000 
#    0.000    0.000    0.000    0.000    0.000    0.000 
#    0.000    0.000    0.000    0.000    0.000    0.000 
#
# Total GULP energy -178635.257438 kJ/mol
# GULP energy per Si atom -5582.351795 kJ/mol
# Density = 2.586082 g / cm^3
# Si number density = 25.919814 Si / 1000 Ang^3
#
#
#
# Elastic Constant Matrix: (Units=GPa)
#
#
# Indices 1 2 3 4 5 6 
#
# 1 179.4280 32.6829 55.8908 0.0000 0.0000 0.0000
# 2 32.6829 100.2038 39.5890 0.0000 0.0000 0.0000
# 3 55.8908 39.5890 151.8398 0.0000 0.0000 0.0000
# 4 0.0000 0.0000 0.0000 9.7184 0.0000 0.0000
# 5 0.0000 0.0000 0.0000 0.0000 47.2087 0.0000
# 6 0.0000 0.0000 0.0000 0.0000 0.0000 56.4888
#
#
#
# Elastic Compliance Matrix: (Units=1/GPa)
#
#
# Indices 1 2 3 4 5 6 
#
# 1 0.006443 -0.001298 -0.002033 0.000000 0.000000 0.000000
# 2 -0.001298 0.011387 -0.002491 0.000000 0.000000 0.000000
# 3 -0.002033 -0.002491 0.007984 0.000000 0.000000 0.000000
# 4 0.000000 0.000000 0.000000 0.102898 0.000000 0.000000
# 5 0.000000 0.000000 0.000000 0.000000 0.021183 0.000000
# 6 0.000000 0.000000 0.000000 0.000000 0.000000 0.017703
#
#
# Mechanical properties :
#
#
# Convention : Reuss Voigt Hill
#
# Bulk Modulus (GPa) = 70.57596 76.42189 73.49892
# Shear Modulus (GPa) = 27.17909 42.90377 35.04143
#
# Velocity S-wave (km/s) = 3.24170 4.07289 3.68083
# Velocity P-wave (km/s) = 6.42644 7.18790 6.81781
#
# Compressibility (1/GPa) = 0.01416913
#
# Stress axis : x y z
#
# Youngs Moduli (GPa) = 155.20596 87.81709 125.25398
#
# Poissons Ratio (x) = 0.11401 0.25466
# Poissons Ratio (y) = 0.20149 0.31202
# Poissons Ratio (z) = 0.31556 0.21876
#
# Static dielectric constant tensor:
#      x y z
#    x 2.090680 0.000000 0.000000 
#    y 0.000000 1.968570 0.000000 
#    z 0.000000 0.000000 2.062660 
# 
# From -- ./inp_files/23109.got.cif
#   From: 2010.05.17/outbox.cif.g08.bks.cpg/sg56_12_cif.got.tgz:23109.got - 2010.06.03 13:42:01.
