data_PCOD9433731
_publ_section_title
;
Structure prediction by ZEFSAII (Michael W. Deem and Ramdas Pophale) SiO2 
 PCOD9433731
Probable space group: P C C N
;
_chemical_formula_sum "Si O2"
_cell_formula_units_Z 40
_cell_length_a 5.286677
_cell_length_b 12.367665
_cell_length_c 28.684098
_cell_angle_alpha 90.000000
_cell_angle_beta 90.000000
_cell_angle_gamma 90.000000
_cell_volume 1875.476764
_symmetry_space_group_name_H-M "P C C N"
_symmetry_group_IT_number 56
_symmetry_cell_setting 'orthorhombic'
loop_
_space_group_symop_operation_xyz
x,y,z
1/2-x,1/2-y,z
1/2+x,-y,1/2-z
-x,1/2+y,1/2-z
-x,-y,-z
1/2+x,1/2+y,-z
1/2-x,y,1/2+z
x,1/2-y,1/2+z
loop_
_atom_site_type_symbol
_atom_site_label
_atom_site_fract_x
_atom_site_fract_y
_atom_site_fract_z
Si Si1 0.745043 0.529694 0.970640
Si Si2 0.750000 0.750000 0.916193
Si Si3 0.750000 0.750000 0.253706
Si Si4 0.566633 0.163361 0.163440
Si Si5 0.309724 0.630278 0.115397
Si Si6 0.684695 0.918281 0.172569
O O1 0.706286 0.653285 0.953903
O O2 0.734217 0.453429 0.925531
O O3 0.500000 0.500000 0.000000
O O4 0.000000 0.500000 0.000000
O O5 0.647646 0.835724 0.875757
O O6 0.527663 0.717441 0.288957
O O7 0.710185 0.853562 0.220790
O O8 0.750000 0.250000 0.139567
O O9 0.690041 0.048426 0.174022
O O10 0.250000 0.750000 0.097481
O O11 0.587114 0.619874 0.138752
O O12 0.093705 0.609475 0.153871
#
# Coordination Sequence:
#
# PCOD9433731 Si02
#       6
#     8   4   4   8   8   8
#     4  12  29  47  78 111 143 189 245 311 368 449
#     4  11  26  52  73 108 152 190 251 298 380 449
#     4  11  28  44  69 114 142 196 249 310 356 435
#     4  11  27  46  77 102 148 204 245 303 368 441
#     4  12  25  49  75 106 147 193 235 302 381 434
#     4  12  26  48  74 106 150 190 249 297 365 440
#
# _framework density 21.327908999999998
#
# number of rings (size 3 to 8) (size 9 to 14) (size 15 to 20)
#    0.000    0.400    4.000    2.400   14.000    0.000 
#    0.000    0.000    0.000    0.000    0.000    0.000 
#    0.000    0.000    0.000    0.000    0.000    0.000 
#
# Total GULP energy -222790.767860 kJ/mol
# GULP energy per Si atom -5569.769196 kJ/mol
# Density = 2.127937 g / cm^3
# Si number density = 21.327909 Si / 1000 Ang^3
#
#
#
# Elastic Constant Matrix: (Units=GPa)
#
#
# Indices 1 2 3 4 5 6 
#
# 1 81.1375 21.5328 31.0150 0.0000 0.0000 0.0000
# 2 21.5328 207.9985 47.3285 0.0000 0.0000 0.0000
# 3 31.0150 47.3285 107.5320 0.0000 0.0000 0.0000
# 4 0.0000 0.0000 0.0000 -10.2999 0.0000 0.0000
# 5 0.0000 0.0000 0.0000 0.0000 -99.3374 0.0000
# 6 0.0000 0.0000 0.0000 0.0000 0.0000 21.3617
#
#
#
# Elastic Compliance Matrix: (Units=1/GPa)
#
#
# Indices 1 2 3 4 5 6 
#
# 1 0.013916 -0.000586 -0.003756 0.000000 0.000000 0.000000
# 2 -0.000586 0.005367 -0.002193 0.000000 0.000000 0.000000
# 3 -0.003756 -0.002193 0.011348 0.000000 0.000000 0.000000
# 4 0.000000 0.000000 0.000000 -0.097088 0.000000 0.000000
# 5 0.000000 0.000000 0.000000 0.000000 -0.010067 0.000000
# 6 0.000000 0.000000 0.000000 0.000000 0.000000 0.046813
#
#
# Mechanical properties :
#
#
# Convention : Reuss Voigt Hill
#
# Bulk Modulus (GPa) = 56.94363 66.26895 61.60629
# Shear Modulus (GPa) = -463.53439 2.13100 -230.70169
#
# Velocity S-wave (km/s) = -14.75835 1.00066 -10.41171
# Velocity P-wave (km/s) = 16.23745 5.69860 10.75129
#
# Compressibility (1/GPa) = 0.01756123
#
# Stress axis : x y z
#
# Youngs Moduli (GPa) = 71.86009 186.30699 88.11962
#
# Poissons Ratio (x) = 0.10918 0.33096
# Poissons Ratio (y) = 0.04211 0.19328
# Poissons Ratio (z) = 0.26989 0.40864
#
# Static dielectric constant tensor:
#      x y z
#    x 1.800570 0.000000 0.000000 
#    y 0.000000 1.852780 0.000000 
#    z 0.000000 0.000000 1.036880 
# 
# From -- ./inp_files/21543.got.cif
#   From: 2010.05.17/outbox.cif.g08.bks.cpg/sg56_11_cif.got.tgz:21543.got - 2010.06.03 13:42:01.
