data_PCOD9433034
_publ_section_title
;
Structure prediction by ZEFSAII (Michael W. Deem and Ramdas Pophale) SiO2 
 PCOD9433034
Probable space group: P C C N
;
_chemical_formula_sum "Si O2"
_cell_formula_units_Z 48
_cell_length_a 14.905583
_cell_length_b 4.964398
_cell_length_c 23.954020
_cell_angle_alpha 90.000000
_cell_angle_beta 90.000000
_cell_angle_gamma 90.000000
_cell_volume 1772.531521
_symmetry_space_group_name_H-M "P C C N"
_symmetry_group_IT_number 56
_symmetry_cell_setting 'orthorhombic'
loop_
_space_group_symop_operation_xyz
x,y,z
1/2-x,1/2-y,z
1/2+x,-y,1/2-z
-x,1/2+y,1/2-z
-x,-y,-z
1/2+x,1/2+y,-z
1/2-x,y,1/2+z
x,1/2-y,1/2+z
loop_
_atom_site_type_symbol
_atom_site_label
_atom_site_fract_x
_atom_site_fract_y
_atom_site_fract_z
Si Si1 0.495159 0.473504 0.432750
Si Si2 0.396475 0.538746 0.284195
Si Si3 0.897005 0.535144 0.432719
Si Si4 0.656975 0.123863 0.554907
Si Si5 0.900182 0.536689 0.789026
Si Si6 0.750000 0.250000 0.861873
Si Si7 0.750000 0.750000 0.143071
O O1 0.500000 0.500000 0.500000
O O2 0.575699 0.669277 0.414446
O O3 0.404291 0.635424 0.421326
O O4 0.521607 0.170487 0.418123
O O5 0.393590 0.850044 0.266792
O O6 0.496586 0.487762 0.309149
O O7 0.312346 0.441599 0.319634
O O8 0.392733 0.348015 0.228811
O O9 0.883368 0.513312 0.499492
O O10 0.809951 0.437538 0.401188
O O11 0.750000 0.250000 0.534489
O O12 0.684557 0.920401 0.603163
O O13 0.818389 0.424376 0.824769
#
# Coordination Sequence:
#
# PCOD9433034 Si02
#       7
#     8   8   8   8   8   4   4
#     4  10  24  47  69  91 141 203 240 293 358 421
#     4  10  24  49  71 105 144 187 237 314 370 452
#     4  11  26  47  69 101 150 190 247 299 355 427
#     4  11  26  42  66 103 145 191 237 296 357 426
#     4  10  24  47  76 101 145 186 240 304 387 437
#     4  12  26  44  78 112 140 198 246 312 364 464
#     4  12  28  40  76 106 142 190 250 300 366 448
#
# _framework density 27.079910999999999
#
# number of rings (size 3 to 8) (size 9 to 14) (size 15 to 20)
#    0.000    1.333    0.833    3.000   11.667    3.333 
#    3.000    0.000    0.000    0.000    0.000    0.000 
#    0.000    0.000    0.000    0.000    0.000    0.000 
#
# Total GULP energy -269518.249943 kJ/mol
# GULP energy per Si atom -5614.963540 kJ/mol
# Density = 2.701828 g / cm^3
# Si number density = 27.079911 Si / 1000 Ang^3
#
#
#
# Elastic Constant Matrix: (Units=GPa)
#
#
# Indices 1 2 3 4 5 6 
#
# 1 177.0700 25.2850 57.9723 0.0000 0.0000 0.0000
# 2 25.2850 94.3185 9.0107 0.0000 0.0000 0.0000
# 3 57.9723 9.0107 77.2509 0.0000 0.0000 0.0000
# 4 0.0000 0.0000 0.0000 37.9437 0.0000 0.0000
# 5 0.0000 0.0000 0.0000 0.0000 62.8818 0.0000
# 6 0.0000 0.0000 0.0000 0.0000 0.0000 54.1118
#
#
#
# Elastic Compliance Matrix: (Units=1/GPa)
#
#
# Indices 1 2 3 4 5 6 
#
# 1 0.007699 -0.001529 -0.005599 0.000000 0.000000 0.000000
# 2 -0.001529 0.011026 -0.000139 0.000000 0.000000 0.000000
# 3 -0.005599 -0.000139 0.017163 0.000000 0.000000 0.000000
# 4 0.000000 0.000000 0.000000 0.026355 0.000000 0.000000
# 5 0.000000 0.000000 0.000000 0.000000 0.015903 0.000000
# 6 0.000000 0.000000 0.000000 0.000000 0.000000 0.018480
#
#
# Mechanical properties :
#
#
# Convention : Reuss Voigt Hill
#
# Bulk Modulus (GPa) = 46.83045 59.24171 53.03608
# Shear Modulus (GPa) = 42.27355 48.07888 45.17621
#
# Velocity S-wave (km/s) = 3.95532 4.21817 4.08886
# Velocity P-wave (km/s) = 6.17984 6.75634 6.47451
#
# Compressibility (1/GPa) = 0.02135363
#
# Stress axis : x y z
#
# Youngs Moduli (GPa) = 129.88640 90.69873 58.26495
#
# Poissons Ratio (x) = 0.13868 0.32624
# Poissons Ratio (y) = 0.19860 0.00807
# Poissons Ratio (z) = 0.72728 0.01257
#
# Static dielectric constant tensor:
#      x y z
#    x 2.094610 0.000000 0.000000 
#    y 0.000000 2.028530 0.000000 
#    z 0.000000 0.000000 2.175010 
# 
# From -- ./inp_files/22446.got.cif
#   From: 2010.05.17/outbox.cif.g08.bks.cpg/sg56_12_cif.got.tgz:22446.got - 2010.06.03 13:42:01.
