data_PCOD9433212
_publ_section_title
;
Structure prediction by ZEFSAII (Michael W. Deem and Ramdas Pophale) SiO2 
 PCOD9433212
Probable space group: P C C N
;
_chemical_formula_sum "Si O2"
_cell_formula_units_Z 44
_cell_length_a 9.279244
_cell_length_b 15.825388
_cell_length_c 14.093265
_cell_angle_alpha 90.000000
_cell_angle_beta 90.000000
_cell_angle_gamma 90.000000
_cell_volume 2069.562658
_symmetry_space_group_name_H-M "P C C N"
_symmetry_group_IT_number 56
_symmetry_cell_setting 'orthorhombic'
loop_
_space_group_symop_operation_xyz
x,y,z
1/2-x,1/2-y,z
1/2+x,-y,1/2-z
-x,1/2+y,1/2-z
-x,-y,-z
1/2+x,1/2+y,-z
1/2-x,y,1/2+z
x,1/2-y,1/2+z
loop_
_atom_site_type_symbol
_atom_site_label
_atom_site_fract_x
_atom_site_fract_y
_atom_site_fract_z
Si Si1 0.750000 0.250000 0.714651
Si Si2 0.871125 0.365528 0.359804
Si Si3 0.214996 0.515375 0.872784
Si Si4 0.695392 0.942890 0.432178
Si Si5 0.081074 0.433488 0.219856
Si Si6 0.094985 0.833784 0.935738
O O1 0.744992 0.328150 0.787532
O O2 0.614813 0.237528 0.643539
O O3 0.840896 0.461574 0.394856
O O4 0.890802 0.310234 0.454101
O O5 0.012021 0.368092 0.293713
O O6 0.322357 0.491451 0.788102
O O7 0.269574 0.605216 0.912015
O O8 0.054055 0.520658 0.831600
O O9 0.241438 0.453366 0.961930
O O10 0.813183 0.903319 0.362541
O O11 0.549391 0.889218 0.429192
#
# Coordination Sequence:
#
# PCOD9433212 Si02
#       6
#     4   8   8   8   8   8
#     4  12  24  40  66  98 132 172 218 266 334 408
#     4  11  22  38  64  92 127 171 216 264 327 392
#     4  11  20  36  60  97 127 164 217 272 319 382
#     4  11  22  38  66  95 132 166 222 278 320 381
#     4  12  19  36  62  97 127 164 214 270 329 378
#     4  11  21  41  63  91 130 173 213 271 326 388
#
# _framework density 21.260529999999999
#
# number of rings (size 3 to 8) (size 9 to 14) (size 15 to 20)
#    0.000    0.727    7.273    2.182    0.000    0.000 
#    0.000    0.909    0.000    2.182    0.000    0.000 
#    0.000    0.000    0.000    0.000    0.000    0.000 
#
# Total GULP energy -245495.455082 kJ/mol
# GULP energy per Si atom -5579.442161 kJ/mol
# Density = 2.121214 g / cm^3
# Si number density = 21.260530 Si / 1000 Ang^3
#
#
#
# Elastic Constant Matrix: (Units=GPa)
#
#
# Indices 1 2 3 4 5 6 
#
# 1 98.2010 16.6333 82.1374 0.0000 0.0000 0.0000
# 2 16.6333 22.1718 39.9601 0.0000 0.0000 0.0000
# 3 82.1374 39.9601 204.7407 0.0000 0.0000 0.0000
# 4 0.0000 0.0000 0.0000 26.6100 0.0000 0.0000
# 5 0.0000 0.0000 0.0000 0.0000 43.8867 0.0000
# 6 0.0000 0.0000 0.0000 0.0000 0.0000 15.2590
#
#
#
# Elastic Compliance Matrix: (Units=1/GPa)
#
#
# Indices 1 2 3 4 5 6 
#
# 1 0.015332 -0.000642 -0.006025 0.000000 0.000000 0.000000
# 2 -0.000642 0.069603 -0.013327 0.000000 0.000000 0.000000
# 3 -0.006025 -0.013327 0.009903 0.000000 0.000000 0.000000
# 4 0.000000 0.000000 0.000000 0.037580 0.000000 0.000000
# 5 0.000000 0.000000 0.000000 0.000000 0.022786 0.000000
# 6 0.000000 0.000000 0.000000 0.000000 0.000000 0.065535
#
#
# Mechanical properties :
#
#
# Convention : Reuss Voigt Hill
#
# Bulk Modulus (GPa) = 18.23217 66.95279 42.59248
# Shear Modulus (GPa) = 17.92045 29.57668 23.74856
#
# Velocity S-wave (km/s) = 2.90642 3.73386 3.34582
# Velocity P-wave (km/s) = 4.45615 7.08159 5.91634
#
# Compressibility (1/GPa) = 0.05484811
#
# Stress axis : x y z
#
# Youngs Moduli (GPa) = 65.22404 14.36710 100.98370
#
# Poissons Ratio (x) = 0.00923 0.60847
# Poissons Ratio (y) = 0.04190 1.34582
# Poissons Ratio (z) = 0.39300 0.19147
#
# Static dielectric constant tensor:
#      x y z
#    x 1.765680 0.000000 0.000000 
#    y 0.000000 1.876510 0.000000 
#    z 0.000000 0.000000 1.814880 
# 
# From -- ./inp_files/10583.got.cif
#   From: 2010.05.17/outbox.cif.g08.bks.cpg/sg56_6_cif.got.tgz:10583.got - 2010.06.03 13:42:01.
