data_PCOD9433710
_publ_section_title
;
Structure prediction by ZEFSAII (Michael W. Deem and Ramdas Pophale) SiO2 
 PCOD9433710
Probable space group: P C C N
;
_chemical_formula_sum "Si O2"
_cell_formula_units_Z 32
_cell_length_a 8.811115
_cell_length_b 8.338058
_cell_length_c 19.079864
_cell_angle_alpha 90.000000
_cell_angle_beta 90.000000
_cell_angle_gamma 90.000000
_cell_volume 1401.751586
_symmetry_space_group_name_H-M "P C C N"
_symmetry_group_IT_number 56
_symmetry_cell_setting 'orthorhombic'
loop_
_space_group_symop_operation_xyz
x,y,z
1/2-x,1/2-y,z
1/2+x,-y,1/2-z
-x,1/2+y,1/2-z
-x,-y,-z
1/2+x,1/2+y,-z
1/2-x,y,1/2+z
x,1/2-y,1/2+z
loop_
_atom_site_type_symbol
_atom_site_label
_atom_site_fract_x
_atom_site_fract_y
_atom_site_fract_z
Si Si1 0.559927 0.064075 0.426311
Si Si2 0.621241 0.369045 0.191862
Si Si3 0.115918 0.364392 0.201910
Si Si4 0.573168 0.063720 0.928287
O O1 0.742934 0.054004 0.428087
O O2 0.524518 0.252494 0.417899
O O3 0.500000 0.000000 0.500000
O O4 0.477113 0.958178 0.367211
O O5 0.750000 0.250000 0.163890
O O6 0.508513 0.252850 0.235361
O O7 0.679698 0.504625 0.244672
O O8 0.250000 0.250000 0.176319
O O9 0.033906 0.452390 0.137574
O O10 0.500000 0.000000 0.000000
#
# Coordination Sequence:
#
# PCOD9433710 Si02
#       4
#     8   8   8   8
#     4  11  26  47  72 107 146 190 248 303 367 445
#     4  12  27  45  75 110 149 193 247 305 376 440
#     4  12  25  48  74 106 148 195 249 302 365 440
#     4  11  26  47  75 102 145 195 245 304 367 439
#
# _framework density 22.828582000000001
#
# number of rings (size 3 to 8) (size 9 to 14) (size 15 to 20)
#    0.000    0.500    2.500    4.500   10.500    0.000 
#    0.000    0.000    0.000    0.000    0.000    0.000 
#    0.000    0.000    0.000    0.000    0.000    0.000 
#
# Total GULP energy -179062.947114 kJ/mol
# GULP energy per Si atom -5595.717097 kJ/mol
# Density = 2.277662 g / cm^3
# Si number density = 22.828582 Si / 1000 Ang^3
#
#
#
# Elastic Constant Matrix: (Units=GPa)
#
#
# Indices 1 2 3 4 5 6 
#
# 1 73.7907 75.6098 27.4787 0.0000 0.0000 0.0000
# 2 75.6098 192.1460 74.1021 0.0000 0.0000 0.0000
# 3 27.4787 74.1021 126.2698 0.0000 0.0000 0.0000
# 4 0.0000 0.0000 0.0000 43.1835 0.0000 0.0000
# 5 0.0000 0.0000 0.0000 0.0000 30.3489 0.0000
# 6 0.0000 0.0000 0.0000 0.0000 0.0000 50.7842
#
#
#
# Elastic Compliance Matrix: (Units=1/GPa)
#
#
# Indices 1 2 3 4 5 6 
#
# 1 0.022723 -0.009092 0.000391 0.000000 0.000000 0.000000
# 2 -0.009092 0.010365 -0.004104 0.000000 0.000000 0.000000
# 3 0.000391 -0.004104 0.010243 0.000000 0.000000 0.000000
# 4 0.000000 0.000000 0.000000 0.023157 0.000000 0.000000
# 5 0.000000 0.000000 0.000000 0.000000 0.032950 0.000000
# 6 0.000000 0.000000 0.000000 0.000000 0.000000 0.019691
#
#
# Mechanical properties :
#
#
# Convention : Reuss Voigt Hill
#
# Bulk Modulus (GPa) = 56.43398 82.95419 69.69408
# Shear Modulus (GPa) = 33.19042 39.19771 36.19407
#
# Velocity S-wave (km/s) = 3.81714 4.14822 3.98612
# Velocity P-wave (km/s) = 6.64844 7.70457 7.19591
#
# Compressibility (1/GPa) = 0.01771982
#
# Stress axis : x y z
#
# Youngs Moduli (GPa) = 44.00921 96.47957 97.62781
#
# Poissons Ratio (x) = 0.87720 -0.03816
# Poissons Ratio (y) = 0.40014 0.40067
# Poissons Ratio (z) = -0.01720 0.39596
#
# Static dielectric constant tensor:
#      x y z
#    x 1.924310 0.000000 0.000000 
#    y 0.000000 1.903380 0.000000 
#    z 0.000000 0.000000 1.795390 
# 
# From -- ./inp_files/17768.got.cif
#   From: 2010.05.17/outbox.cif.g08.bks.cpg/sg56_9_cif.got.tgz:17768.got - 2010.06.03 13:42:01.
