data_PCOD9433637
_publ_section_title
;
Structure prediction by ZEFSAII (Michael W. Deem and Ramdas Pophale) SiO2 
 PCOD9433637
Probable space group: P C C N
;
_chemical_formula_sum "Si O2"
_cell_formula_units_Z 60
_cell_length_a 12.264767
_cell_length_b 7.876145
_cell_length_c 23.967303
_cell_angle_alpha 90.000000
_cell_angle_beta 90.000000
_cell_angle_gamma 90.000000
_cell_volume 2315.219499
_symmetry_space_group_name_H-M "P C C N"
_symmetry_group_IT_number 56
_symmetry_cell_setting 'orthorhombic'
loop_
_space_group_symop_operation_xyz
x,y,z
1/2-x,1/2-y,z
1/2+x,-y,1/2-z
-x,1/2+y,1/2-z
-x,-y,-z
1/2+x,1/2+y,-z
1/2-x,y,1/2+z
x,1/2-y,1/2+z
loop_
_atom_site_type_symbol
_atom_site_label
_atom_site_fract_x
_atom_site_fract_y
_atom_site_fract_z
Si Si1 0.399880 0.129563 0.791593
Si Si2 0.750000 0.750000 0.022138
Si Si3 0.803693 0.430706 0.669324
Si Si4 0.991024 0.390895 0.372672
Si Si5 0.394288 0.434631 0.717808
Si Si6 0.483929 0.299498 0.994248
Si Si7 0.250177 0.453871 0.611174
Si Si8 0.319746 0.912847 0.987692
O O1 0.476003 0.264258 0.823692
O O2 0.372746 0.237781 0.735762
O O3 0.293069 0.071154 0.825175
O O4 0.476241 0.966778 0.784307
O O5 0.639484 0.722346 0.988957
O O6 0.778983 0.570487 0.049313
O O7 0.750000 0.250000 0.657405
O O8 0.908943 0.473451 0.630835
O O9 0.850826 0.445355 0.732408
O O10 0.003788 0.279565 0.428297
O O11 0.870910 0.472410 0.374795
O O12 0.334572 0.489661 0.661269
O O13 0.559383 0.157745 0.021171
O O14 0.500000 0.500000 0.000000
O O15 0.250000 0.250000 0.609974
O O16 0.290739 0.537129 0.552263
O O17 0.250000 0.750000 0.974786
#
# Coordination Sequence:
#
# PCOD9433637 Si02
#       8
#     8   4   8   8   8   8   8   8
#     4  11  25  45  67 100 145 186 236 299 357 427
#     4  12  26  48  80 110 144 198 228 308 378 446
#     4  11  26  45  67  98 146 185 240 293 355 432
#     4  11  26  48  69 103 146 183 237 304 362 425
#     4  11  25  40  70  99 137 189 244 286 355 424
#     4  12  26  49  79 109 147 190 246 298 373 448
#     4  12  26  43  75 105 141 191 246 295 358 431
#     4  12  24  50  73 112 150 185 245 305 360 433
#
# _framework density 25.915468000000001
#
# number of rings (size 3 to 8) (size 9 to 14) (size 15 to 20)
#    0.000    0.533    3.333    4.400   13.067    0.000 
#    2.400    0.000    0.000    0.000    0.000    0.000 
#    0.000    0.000    0.000    0.000    0.000    0.000 
#
# Total GULP energy -335627.729871 kJ/mol
# GULP energy per Si atom -5593.795498 kJ/mol
# Density = 2.585648 g / cm^3
# Si number density = 25.915468 Si / 1000 Ang^3
#
#
#
# Elastic Constant Matrix: (Units=GPa)
#
#
# Indices 1 2 3 4 5 6 
#
# 1 198.5211 64.7989 17.0809 0.0000 0.0000 0.0000
# 2 64.7989 161.9104 -6.1232 0.0000 0.0000 0.0000
# 3 17.0809 -6.1232 91.9529 0.0000 0.0000 0.0000
# 4 0.0000 0.0000 0.0000 15.2781 0.0000 0.0000
# 5 0.0000 0.0000 0.0000 0.0000 29.8126 0.0000
# 6 0.0000 0.0000 0.0000 0.0000 0.0000 65.9585
#
#
#
# Elastic Compliance Matrix: (Units=1/GPa)
#
#
# Indices 1 2 3 4 5 6 
#
# 1 0.005937 -0.002424 -0.001264 0.000000 0.000000 0.000000
# 2 -0.002424 0.007181 0.000928 0.000000 0.000000 0.000000
# 3 -0.001264 0.000928 0.011172 0.000000 0.000000 0.000000
# 4 0.000000 0.000000 0.000000 0.065453 0.000000 0.000000
# 5 0.000000 0.000000 0.000000 0.000000 0.033543 0.000000
# 6 0.000000 0.000000 0.000000 0.000000 0.000000 0.015161
#
#
# Mechanical properties :
#
#
# Convention : Reuss Voigt Hill
#
# Bulk Modulus (GPa) = 53.27381 67.09976 60.18678
# Shear Modulus (GPa) = 33.28363 47.31838 40.30100
#
# Velocity S-wave (km/s) = 3.58762 4.27766 3.94775
# Velocity P-wave (km/s) = 6.14514 7.09548 6.63734
#
# Compressibility (1/GPa) = 0.01877095
#
# Stress axis : x y z
#
# Youngs Moduli (GPa) = 168.42850 139.24700 89.51100
#
# Poissons Ratio (x) = 0.33753 0.11317
# Poissons Ratio (y) = 0.40827 -0.08311
# Poissons Ratio (z) = 0.21294 -0.12929
#
# Static dielectric constant tensor:
#      x y z
#    x 2.009080 0.000000 0.000000 
#    y 0.000000 1.970410 0.000000 
#    z 0.000000 0.000000 2.116600 
# 
# From -- ./inp_files/22335.got.cif
#   From: 2010.05.17/outbox.cif.g08.bks.cpg/sg56_12_cif.got.tgz:22335.got - 2010.06.03 13:42:01.
