data_PCOD9433457
_publ_section_title
;
Structure prediction by ZEFSAII (Michael W. Deem and Ramdas Pophale) SiO2 
 PCOD9433457
Probable space group: P C C N
;
_chemical_formula_sum "Si O2"
_cell_formula_units_Z 48
_cell_length_a 17.375747
_cell_length_b 14.634554
_cell_length_c 8.727568
_cell_angle_alpha 90.000000
_cell_angle_beta 90.000000
_cell_angle_gamma 90.000000
_cell_volume 2219.301042
_symmetry_space_group_name_H-M "P C C N"
_symmetry_group_IT_number 56
_symmetry_cell_setting 'orthorhombic'
loop_
_space_group_symop_operation_xyz
x,y,z
1/2-x,1/2-y,z
1/2+x,-y,1/2-z
-x,1/2+y,1/2-z
-x,-y,-z
1/2+x,1/2+y,-z
1/2-x,y,1/2+z
x,1/2-y,1/2+z
loop_
_atom_site_type_symbol
_atom_site_label
_atom_site_fract_x
_atom_site_fract_y
_atom_site_fract_z
Si Si1 0.135486 0.483148 0.642718
Si Si2 0.283259 0.502290 0.471112
Si Si3 0.911375 0.808801 0.031305
Si Si4 0.679425 0.677136 0.337254
Si Si5 0.927165 0.175863 0.814318
Si Si6 0.830226 0.291305 0.034855
O O1 0.192090 0.509037 0.501866
O O2 0.185367 0.477189 0.801074
O O3 0.093069 0.391309 0.591215
O O4 0.078747 0.566933 0.670037
O O5 0.304931 0.420347 0.586055
O O6 0.315233 0.603152 0.510046
O O7 0.847047 0.827067 0.161881
O O8 0.991291 0.797318 0.118322
O O9 0.888368 0.719786 0.938253
O O10 0.750000 0.750000 0.349095
O O11 0.904559 0.204702 0.644391
O O12 0.856724 0.222961 0.903904
O O13 0.750000 0.250000 0.100146
#
# Coordination Sequence:
#
# PCOD9433457 Si02
#       6
#     8   8   8   8   8   8
#     4  11  23  42  66  97 132 170 219 271 327 383
#     4  11  24  41  69 101 127 169 228 273 318 387
#     4  12  25  44  66  97 138 173 218 270 333 389
#     4  12  25  43  68  97 129 177 222 273 320 392
#     4  11  25  43  67 100 134 176 215 270 333 389
#     4  11  23  43  70  98 131 173 222 272 322 391
#
# _framework density 21.628432
#
# number of rings (size 3 to 8) (size 9 to 14) (size 15 to 20)
#    0.000    0.667    3.333    4.500    2.333    1.333 
#    0.000    9.167    0.000    0.000    0.000    0.000 
#    0.000    0.000    0.000    0.000    0.000    0.000 
#
# Total GULP energy -268123.146383 kJ/mol
# GULP energy per Si atom -5585.898883 kJ/mol
# Density = 2.157920 g / cm^3
# Si number density = 21.628432 Si / 1000 Ang^3
#
#
#
# Elastic Constant Matrix: (Units=GPa)
#
#
# Indices 1 2 3 4 5 6 
#
# 1 54.5808 -0.0740 6.1210 0.0000 0.0000 0.0000
# 2 -0.0740 112.8529 29.5169 0.0000 0.0000 0.0000
# 3 6.1210 29.5169 63.3314 0.0000 0.0000 0.0000
# 4 0.0000 0.0000 0.0000 10.1839 0.0000 0.0000
# 5 0.0000 0.0000 0.0000 0.0000 23.8071 0.0000
# 6 0.0000 0.0000 0.0000 0.0000 0.0000 18.7242
#
#
#
# Elastic Compliance Matrix: (Units=1/GPa)
#
#
# Indices 1 2 3 4 5 6 
#
# 1 0.018552 0.000548 -0.002048 0.000000 0.000000 0.000000
# 2 0.000548 0.010107 -0.004764 0.000000 0.000000 0.000000
# 3 -0.002048 -0.004764 0.018208 0.000000 0.000000 0.000000
# 4 0.000000 0.000000 0.000000 0.098194 0.000000 0.000000
# 5 0.000000 0.000000 0.000000 0.000000 0.042004 0.000000
# 6 0.000000 0.000000 0.000000 0.000000 0.000000 0.053407
#
#
# Mechanical properties :
#
#
# Convention : Reuss Voigt Hill
#
# Bulk Modulus (GPa) = 29.12135 33.54366 31.33250
# Shear Modulus (GPa) = 18.90735 23.55646 21.23190
#
# Velocity S-wave (km/s) = 2.95988 3.30380 3.13655
# Velocity P-wave (km/s) = 5.01745 5.48600 5.25694
#
# Compressibility (1/GPa) = 0.03433907
#
# Stress axis : x y z
#
# Youngs Moduli (GPa) = 53.90279 98.93721 54.92035
#
# Poissons Ratio (x) = -0.05421 0.11250
# Poissons Ratio (y) = -0.02954 0.26163
# Poissons Ratio (z) = 0.11042 0.47131
#
# Static dielectric constant tensor:
#      x y z
#    x 1.806100 0.000000 0.000000 
#    y 0.000000 1.782810 0.000000 
#    z 0.000000 0.000000 1.794310 
# 
# From -- ./inp_files/4002.got.cif
#   From: 2010.05.17/outbox.cif.g08.bks.cpg/sg56_3_cif.got.tgz:4002.got - 2010.06.03 13:42:01.
