data_PCOD9433635
_publ_section_title
;
Structure prediction by ZEFSAII (Michael W. Deem and Ramdas Pophale) SiO2 
 PCOD9433635
Probable space group: P C C N
;
_chemical_formula_sum "Si O2"
_cell_formula_units_Z 36
_cell_length_a 7.144157
_cell_length_b 10.625694
_cell_length_c 17.804112
_cell_angle_alpha 90.000000
_cell_angle_beta 90.000000
_cell_angle_gamma 90.000000
_cell_volume 1351.539094
_symmetry_space_group_name_H-M "P C C N"
_symmetry_group_IT_number 56
_symmetry_cell_setting 'orthorhombic'
loop_
_space_group_symop_operation_xyz
x,y,z
1/2-x,1/2-y,z
1/2+x,-y,1/2-z
-x,1/2+y,1/2-z
-x,-y,-z
1/2+x,1/2+y,-z
1/2-x,y,1/2+z
x,1/2-y,1/2+z
loop_
_atom_site_type_symbol
_atom_site_label
_atom_site_fract_x
_atom_site_fract_y
_atom_site_fract_z
Si Si1 0.193471 0.473935 0.543133
Si Si2 0.250000 0.750000 0.893796
Si Si3 0.500251 0.687993 0.530843
Si Si4 0.969935 0.284391 0.308094
Si Si5 0.999136 0.573438 0.305929
O O1 0.332549 0.591765 0.551631
O O2 0.311577 0.382448 0.490585
O O3 0.150059 0.427510 0.626501
O O4 0.190671 0.630807 0.343151
O O5 0.943460 0.827833 0.741597
O O6 0.076369 0.735522 0.950496
O O7 0.521918 0.772149 0.604395
O O8 0.750000 0.250000 0.304238
O O9 0.012751 0.427187 0.282567
O O10 0.000000 0.500000 0.500000
#
# Coordination Sequence:
#
# PCOD9433635 Si02
#       5
#     8   4   8   8   8
#     4  11  24  50  86 124 168 228 294 362 444 529
#     4  12  24  50  84 124 164 220 296 364 436 532
#     4  11  25  48  90 125 171 221 300 376 439 527
#     4  12  27  56  86 129 181 234 298 371 455 552
#     4  12  28  53  87 122 183 231 293 369 450 542
#
# _framework density 26.636302000000001
#
# number of rings (size 3 to 8) (size 9 to 14) (size 15 to 20)
#    0.000    0.444    6.667    0.000    0.000    6.222 
#    4.000    2.222    0.000    0.000    0.000    0.000 
#    0.000    0.000    0.000    0.000    0.000    0.000 
#
# Total GULP energy -201836.374588 kJ/mol
# GULP energy per Si atom -5606.565961 kJ/mol
# Density = 2.657568 g / cm^3
# Si number density = 26.636302 Si / 1000 Ang^3
#
#
#
# Elastic Constant Matrix: (Units=GPa)
#
#
# Indices 1 2 3 4 5 6 
#
# 1 147.6427 53.0802 50.6236 0.0000 0.0000 0.0000
# 2 53.0802 233.9918 88.7441 0.0000 0.0000 0.0000
# 3 50.6236 88.7441 157.0592 0.0000 0.0000 0.0000
# 4 0.0000 0.0000 0.0000 70.3400 0.0000 0.0000
# 5 0.0000 0.0000 0.0000 0.0000 36.4026 0.0000
# 6 0.0000 0.0000 0.0000 0.0000 0.0000 45.3584
#
#
#
# Elastic Compliance Matrix: (Units=1/GPa)
#
#
# Indices 1 2 3 4 5 6 
#
# 1 0.007808 -0.001040 -0.001929 0.000000 0.000000 0.000000
# 2 -0.001040 0.005578 -0.002817 0.000000 0.000000 0.000000
# 3 -0.001929 -0.002817 0.008580 0.000000 0.000000 0.000000
# 4 0.000000 0.000000 0.000000 0.014217 0.000000 0.000000
# 5 0.000000 0.000000 0.000000 0.000000 0.027471 0.000000
# 6 0.000000 0.000000 0.000000 0.000000 0.000000 0.022047
#
#
# Mechanical properties :
#
#
# Convention : Reuss Voigt Hill
#
# Bulk Modulus (GPa) = 96.19609 102.62106 99.40858
# Shear Modulus (GPa) = 49.63448 53.50325 51.56887
#
# Velocity S-wave (km/s) = 4.32141 4.48667 4.40482
# Velocity P-wave (km/s) = 7.81617 8.09016 7.95434
#
# Compressibility (1/GPa) = 0.01039543
#
# Stress axis : x y z
#
# Youngs Moduli (GPa) = 128.06706 179.28642 116.54527
#
# Poissons Ratio (x) = 0.18638 0.22487
# Poissons Ratio (y) = 0.13313 0.32825
# Poissons Ratio (z) = 0.24710 0.50496
#
# Static dielectric constant tensor:
#      x y z
#    x 2.102740 0.000000 0.000000 
#    y 0.000000 2.251960 0.000000 
#    z 0.000000 0.000000 2.027180 
# 
# From -- ./inp_files/10480.got.cif
#   From: 2010.05.17/outbox.cif.g08.bks.cpg/sg56_6_cif.got.tgz:10480.got - 2010.06.03 13:42:01.
