data_PCOD9433935
_publ_section_title
;
Structure prediction by ZEFSAII (Michael W. Deem and Ramdas Pophale) SiO2 
 PCOD9433935
Probable space group: P C C N
;
_chemical_formula_sum "Si O2"
_cell_formula_units_Z 64
_cell_length_a 24.000000
_cell_length_b 15.000000
_cell_length_c 9.000000
_cell_angle_alpha 90.000000
_cell_angle_beta 90.000000
_cell_angle_gamma 90.000000
_cell_volume 3240.000000
_symmetry_space_group_name_H-M "P C C N"
_symmetry_group_IT_number 56
_symmetry_cell_setting 'orthorhombic'
loop_
_space_group_symop_operation_xyz
x,y,z
1/2-x,1/2-y,z
1/2+x,-y,1/2-z
-x,1/2+y,1/2-z
-x,-y,-z
1/2+x,1/2+y,-z
1/2-x,y,1/2+z
x,1/2-y,1/2+z
loop_
_atom_site_type_symbol
_atom_site_label
_atom_site_fract_x
_atom_site_fract_y
_atom_site_fract_z
Si Si1 0.365870 0.168895 0.050973
Si Si2 0.121939 0.655669 0.477376
Si Si3 0.483775 0.089910 0.087480
Si Si4 0.347604 0.360316 0.905989
Si Si5 0.446526 0.009532 0.398548
Si Si6 0.902316 0.335534 0.177728
Si Si7 0.717045 0.483877 0.950607
Si Si8 0.678449 0.497254 0.615252
O O1 0.431722 0.148140 0.031528
O O2 0.350400 0.155244 0.226673
O O3 0.349084 0.266198 0.990946
O O4 0.338733 0.092732 0.948516
O O5 0.081975 0.587186 0.389479
O O6 0.126656 0.748796 0.392560
O O7 0.098038 0.670880 0.643499
O O8 0.177866 0.598005 0.500035
O O9 0.464991 0.049533 0.243903
O O10 0.536151 0.153980 0.112021
O O11 0.500000 0.000000 0.000000
O O12 0.400950 0.419772 0.956892
O O13 0.298034 0.426141 0.957130
O O14 0.500000 0.000000 0.500000
O O15 0.871661 0.427706 0.135359
O O16 0.706653 0.502229 0.777424
O O17 0.779343 0.459024 0.993127
#
# Coordination Sequence:
#
# PCOD9433935 Si02
#       8
#     8   8   8   8   8   8   8   8
#     4  11  23  39  63  94 127 165 204 255 303 375
#     4  10  24  41  62  91 126 164 209 259 306 369
#     4  11  23  38  61  92 128 168 204 253 302 364
#     4  10  23  39  61  94 125 161 209 249 311 366
#     4  10  21  40  59  85 127 170 208 247 302 361
#     4  11  24  40  62  95 125 164 210 252 311 369
#     4  10  23  44  66  90 122 162 204 265 314 366
#     4  11  23  43  67  89 123 160 209 259 315 370
#
# _framework density 19.753086
#
# number of rings (size 3 to 8) (size 9 to 14) (size 15 to 20)
#    0.000    1.500    2.500    1.500    3.500    4.000 
#    0.000    5.000    0.000    0.000    0.000    0.000 
#    0.000    0.000    0.000    0.000    0.000    0.000 
#
# Total GULP energy -357349.263078 kJ/mol
# GULP energy per Si atom -5583.582236 kJ/mol
# Density = 1.970813 g / cm^3
# Si number density = 19.753086 Si / 1000 Ang^3
#
#
#
# Elastic Constant Matrix: (Units=GPa)
#
#
# Indices 1 2 3 4 5 6 
#
# 1 47.8552 -12.6473 16.1616 0.0000 0.0000 0.0000
# 2 -12.6473 96.6681 27.1170 0.0000 0.0000 0.0000
# 3 16.1616 27.1170 58.9598 0.0000 0.0000 0.0000
# 4 0.0000 0.0000 0.0000 36.0389 0.0000 0.0000
# 5 0.0000 0.0000 0.0000 0.0000 25.2697 0.0000
# 6 0.0000 0.0000 0.0000 0.0000 0.0000 9.8046
#
#
#
# Elastic Compliance Matrix: (Units=1/GPa)
#
#
# Indices 1 2 3 4 5 6 
#
# 1 0.025883 0.006173 -0.009934 0.000000 0.000000 0.000000
# 2 0.006173 0.013349 -0.007832 0.000000 0.000000 0.000000
# 3 -0.009934 -0.007832 0.023286 0.000000 0.000000 0.000000
# 4 0.000000 0.000000 0.000000 0.027748 0.000000 0.000000
# 5 0.000000 0.000000 0.000000 0.000000 0.039573 0.000000
# 6 0.000000 0.000000 0.000000 0.000000 0.000000 0.101993
#
#
# Mechanical properties :
#
#
# Convention : Reuss Voigt Hill
#
# Bulk Modulus (GPa) = 25.42443 29.41619 27.42031
# Shear Modulus (GPa) = 18.64787 25.74609 22.19698
#
# Velocity S-wave (km/s) = 3.07587 3.61417 3.35583
# Velocity P-wave (km/s) = 5.05111 5.68688 5.37840
#
# Compressibility (1/GPa) = 0.03933225
#
# Stress axis : x y z
#
# Youngs Moduli (GPa) = 38.63606 74.91093 42.94489
#
# Poissons Ratio (x) = -0.46241 0.42660
# Poissons Ratio (y) = -0.23849 0.33633
# Poissons Ratio (z) = 0.38380 0.58668
#
# Static dielectric constant tensor:
#      x y z
#    x 1.767480 0.000000 0.000000 
#    y 0.000000 1.644240 0.000000 
#    z 0.000000 0.000000 1.674830 
# 
# From -- ./inp_files/4813.got.cif
#   From: 2010.05.17/outbox.ucp.g08.bks.cvg/sg56_3_cif.got.tgz:4813.got - 2010.06.11 16:37:52.
