data_PCOD9433186
_publ_section_title
;
Structure prediction by ZEFSAII (Michael W. Deem and Ramdas Pophale) SiO2 
 PCOD9433186
Probable space group: P C C N
;
_chemical_formula_sum "Si O2"
_cell_formula_units_Z 56
_cell_length_a 22.605047
_cell_length_b 19.336762
_cell_length_c 7.214126
_cell_angle_alpha 90.000000
_cell_angle_beta 90.000000
_cell_angle_gamma 90.000000
_cell_volume 3153.355173
_symmetry_space_group_name_H-M "P C C N"
_symmetry_group_IT_number 56
_symmetry_cell_setting 'orthorhombic'
loop_
_space_group_symop_operation_xyz
x,y,z
1/2-x,1/2-y,z
1/2+x,-y,1/2-z
-x,1/2+y,1/2-z
-x,-y,-z
1/2+x,1/2+y,-z
1/2-x,y,1/2+z
x,1/2-y,1/2+z
loop_
_atom_site_type_symbol
_atom_site_label
_atom_site_fract_x
_atom_site_fract_y
_atom_site_fract_z
Si Si1 0.310536 0.914787 0.005102
Si Si2 0.818357 0.113079 0.919297
Si Si3 0.549748 0.100448 0.584133
Si Si4 0.494880 0.597043 0.311511
Si Si5 0.847813 0.260510 0.910419
Si Si6 0.079898 0.994228 0.584583
Si Si7 0.561750 0.252425 0.663292
O O1 0.327077 0.908249 0.791340
O O2 0.240194 0.924225 0.010159
O O3 0.328176 0.840573 0.097381
O O4 0.351098 0.974954 0.089689
O O5 0.804741 0.195145 0.924059
O O6 0.881290 0.103665 0.017899
O O7 0.509614 0.085994 0.407936
O O8 0.548899 0.044791 0.744053
O O9 0.534166 0.176119 0.661887
O O10 0.447845 0.545841 0.409470
O O11 0.557306 0.572475 0.397171
O O12 0.474233 0.676056 0.341646
O O13 0.863684 0.244192 0.663653
O O14 0.921764 0.249742 0.912003
#
# Coordination Sequence:
#
# PCOD9433186 Si02
#       7
#     8   8   8   8   8   8   8
#     4  12  21  34  43  72  99 139 176 209 252 297
#     4  11  23  30  49  68 102 132 177 221 240 300
#     4  11  20  36  54  76  97 139 179 219 258 304
#     4  11  21  36  51  74  99 137 180 216 260 306
#     4  11  18  30  46  66  96 133 172 210 247 283
#     4  11  22  35  53  69 102 140 177 217 259 305
#     4  11  17  31  51  69 100 129 177 217 250 293
#
# _framework density 17.758861
#
# number of rings (size 3 to 8) (size 9 to 14) (size 15 to 20)
#    0.000    0.857    8.571    1.714    2.000    1.143 
#    0.000    0.000    0.000    0.000    0.000    0.000 
#    0.000    0.000    0.000   27.000    0.000    0.000 
#
# Total GULP energy -311918.111649 kJ/mol
# GULP energy per Si atom -5569.966279 kJ/mol
# Density = 1.771844 g / cm^3
# Si number density = 17.758861 Si / 1000 Ang^3
#
#
#
# Elastic Constant Matrix: (Units=GPa)
#
#
# Indices 1 2 3 4 5 6 
#
# 1 54.7254 28.7900 -5.2164 0.0000 0.0000 0.0000
# 2 28.7900 60.4330 10.1264 0.0000 0.0000 0.0000
# 3 -5.2164 10.1264 85.4467 0.0000 0.0000 0.0000
# 4 0.0000 0.0000 0.0000 23.3129 0.0000 0.0000
# 5 0.0000 0.0000 0.0000 0.0000 16.7353 0.0000
# 6 0.0000 0.0000 0.0000 0.0000 0.0000 34.6033
#
#
#
# Elastic Compliance Matrix: (Units=1/GPa)
#
#
# Indices 1 2 3 4 5 6 
#
# 1 0.025122 -0.012473 0.003012 0.000000 0.000000 0.000000
# 2 -0.012473 0.023075 -0.003496 0.000000 0.000000 0.000000
# 3 0.003012 -0.003496 0.012301 0.000000 0.000000 0.000000
# 4 0.000000 0.000000 0.000000 0.042895 0.000000 0.000000
# 5 0.000000 0.000000 0.000000 0.000000 0.059754 0.000000
# 6 0.000000 0.000000 0.000000 0.000000 0.000000 0.028899
#
#
# Mechanical properties :
#
#
# Convention : Reuss Voigt Hill
#
# Bulk Modulus (GPa) = 28.91479 29.77834 29.34656
# Shear Modulus (GPa) = 21.78770 26.05730 23.92250
#
# Velocity S-wave (km/s) = 3.50646 3.83467 3.67423
# Velocity P-wave (km/s) = 5.71935 6.03414 5.87885
#
# Compressibility (1/GPa) = 0.03458438
#
# Stress axis : x y z
#
# Youngs Moduli (GPa) = 39.80625 43.33714 81.29161
#
# Poissons Ratio (x) = 0.54052 -0.24483
# Poissons Ratio (y) = 0.49648 0.28420
# Poissons Ratio (z) = -0.11989 0.15151
#
# Static dielectric constant tensor:
#      x y z
#    x 1.629840 0.000000 0.000000 
#    y 0.000000 1.561150 0.000000 
#    z 0.000000 0.000000 2.703210 
# 
# From -- ./inp_files/4844.got.cif
#   From: 2010.05.17/outbox.cif.g08.bks.cpg/sg56_3_cif.got.tgz:4844.got - 2010.06.03 13:42:01.
