data_PCOD9433362
_publ_section_title
;
Structure prediction by ZEFSAII (Michael W. Deem and Ramdas Pophale) SiO2 
 PCOD9433362
Probable space group: P C C N
;
_chemical_formula_sum "Si O2"
_cell_formula_units_Z 48
_cell_length_a 19.091587
_cell_length_b 13.967720
_cell_length_c 8.659934
_cell_angle_alpha 90.000000
_cell_angle_beta 90.000000
_cell_angle_gamma 90.000000
_cell_volume 2309.309454
_symmetry_space_group_name_H-M "P C C N"
_symmetry_group_IT_number 56
_symmetry_cell_setting 'orthorhombic'
loop_
_space_group_symop_operation_xyz
x,y,z
1/2-x,1/2-y,z
1/2+x,-y,1/2-z
-x,1/2+y,1/2-z
-x,-y,-z
1/2+x,1/2+y,-z
1/2-x,y,1/2+z
x,1/2-y,1/2+z
loop_
_atom_site_type_symbol
_atom_site_label
_atom_site_fract_x
_atom_site_fract_y
_atom_site_fract_z
Si Si1 0.579600 0.901053 0.908690
Si Si2 0.992326 0.269106 0.679330
Si Si3 0.815387 0.461498 0.783059
Si Si4 0.107385 0.779871 0.565367
Si Si5 0.665317 0.075326 0.419921
Si Si6 0.459683 0.031958 0.752439
O O1 0.558586 0.793718 0.865069
O O2 0.652288 0.939742 0.844043
O O3 0.520459 0.963735 0.818573
O O4 0.573952 0.923297 0.090984
O O5 0.006704 0.381309 0.653226
O O6 0.968878 0.264672 0.856868
O O7 0.920357 0.225072 0.608715
O O8 0.857863 0.376665 0.873602
O O9 0.827072 0.450107 0.600621
O O10 0.734632 0.453130 0.827456
O O11 0.156847 0.689814 0.588740
O O12 0.597848 0.024911 0.344704
#
# Coordination Sequence:
#
# PCOD9433362 Si02
#       6
#     8   8   8   8   8   8
#     4  11  22  41  66  95 133 170 218 271 324 390
#     4  12  23  40  67 102 130 167 217 271 329 383
#     4  12  27  43  64  96 133 180 218 271 335 393
#     4  12  23  40  66  99 133 166 212 270 330 392
#     4  12  27  42  65  94 135 176 220 269 332 401
#     4  11  23  41  67  96 131 172 218 272 324 389
#
# _framework density 20.785435
#
# number of rings (size 3 to 8) (size 9 to 14) (size 15 to 20)
#    0.000    0.333    6.667    2.500    4.667    2.667 
#    0.000    0.833    0.000    4.000    0.000    0.000 
#    0.000    0.000    0.000    0.000    0.000    0.000 
#
# Total GULP energy -268282.248398 kJ/mol
# GULP energy per Si atom -5589.213508 kJ/mol
# Density = 2.073813 g / cm^3
# Si number density = 20.785435 Si / 1000 Ang^3
#
#
#
# Elastic Constant Matrix: (Units=GPa)
#
#
# Indices 1 2 3 4 5 6 
#
# 1 67.2459 14.0370 11.4304 0.0000 0.0000 0.0000
# 2 14.0370 59.3730 12.1906 0.0000 0.0000 0.0000
# 3 11.4304 12.1906 68.8539 0.0000 0.0000 0.0000
# 4 0.0000 0.0000 0.0000 24.9082 0.0000 0.0000
# 5 0.0000 0.0000 0.0000 0.0000 35.6917 0.0000
# 6 0.0000 0.0000 0.0000 0.0000 0.0000 40.3063
#
#
#
# Elastic Compliance Matrix: (Units=1/GPa)
#
#
# Indices 1 2 3 4 5 6 
#
# 1 0.015917 -0.003342 -0.002051 0.000000 0.000000 0.000000
# 2 -0.003342 0.018180 -0.002664 0.000000 0.000000 0.000000
# 3 -0.002051 -0.002664 0.015336 0.000000 0.000000 0.000000
# 4 0.000000 0.000000 0.000000 0.040147 0.000000 0.000000
# 5 0.000000 0.000000 0.000000 0.000000 0.028018 0.000000
# 6 0.000000 0.000000 0.000000 0.000000 0.000000 0.024810
#
#
# Mechanical properties :
#
#
# Convention : Reuss Voigt Hill
#
# Bulk Modulus (GPa) = 30.01285 30.08765 30.05025
# Shear Modulus (GPa) = 29.47642 30.70223 30.08933
#
# Velocity S-wave (km/s) = 3.76989 3.84748 3.80888
# Velocity P-wave (km/s) = 5.78102 5.85186 5.81654
#
# Compressibility (1/GPa) = 0.03331906
#
# Stress axis : x y z
#
# Youngs Moduli (GPa) = 62.82595 55.00626 65.20786
#
# Poissons Ratio (x) = 0.18383 0.13372
# Poissons Ratio (y) = 0.20997 0.17371
# Poissons Ratio (z) = 0.12884 0.14653
#
# Static dielectric constant tensor:
#      x y z
#    x 1.714440 0.000000 0.000000 
#    y 0.000000 1.770170 0.000000 
#    z 0.000000 0.000000 1.755410 
# 
# From -- ./inp_files/3479.got.cif
#   From: 2010.05.17/outbox.cif.g08.bks.cpg/sg56_2_cif.got.tgz:3479.got - 2010.06.03 13:42:01.
