data_PCOD9433184
_publ_section_title
;
Structure prediction by ZEFSAII (Michael W. Deem and Ramdas Pophale) SiO2 
 PCOD9433184
Probable space group: P C C N
;
_chemical_formula_sum "Si O2"
_cell_formula_units_Z 28
_cell_length_a 4.833803
_cell_length_b 23.637953
_cell_length_c 9.230597
_cell_angle_alpha 90.000000
_cell_angle_beta 90.000000
_cell_angle_gamma 90.000000
_cell_volume 1054.699165
_symmetry_space_group_name_H-M "P C C N"
_symmetry_group_IT_number 56
_symmetry_cell_setting 'orthorhombic'
loop_
_space_group_symop_operation_xyz
x,y,z
1/2-x,1/2-y,z
1/2+x,-y,1/2-z
-x,1/2+y,1/2-z
-x,-y,-z
1/2+x,1/2+y,-z
1/2-x,y,1/2+z
x,1/2-y,1/2+z
loop_
_atom_site_type_symbol
_atom_site_label
_atom_site_fract_x
_atom_site_fract_y
_atom_site_fract_z
Si Si1 0.481047 0.099451 0.008740
Si Si2 0.263019 0.002251 0.323140
Si Si3 0.750000 0.750000 0.739495
Si Si4 0.005335 0.677957 0.481030
O O1 0.361160 0.060775 0.880552
O O2 0.637873 0.053669 0.105899
O O3 0.209503 0.129619 0.068382
O O4 0.700789 0.149662 0.985312
O O5 0.593047 0.001969 0.329308
O O6 0.893036 0.705781 0.629517
O O7 0.528010 0.722103 0.849475
#
# Coordination Sequence:
#
# PCOD9433184 Si02
#       4
#     8   8   4   8
#     4  11  26  43  72 105 139 189 232 289 369 417
#     4  11  24  43  70 108 142 181 236 289 346 455
#     4  10  28  48  72 108 140 184 256 292 352 418
#     4  11  26  47  74 103 143 188 235 304 352 419
#
# _framework density 26.547851999999999
#
# number of rings (size 3 to 8) (size 9 to 14) (size 15 to 20)
#    0.000    1.143    0.000    3.429   12.000   11.429 
#    0.000    0.000    0.000    0.000    0.000    0.000 
#    0.000    0.000    0.000    0.000    0.000    0.000 
#
# Total GULP energy -156743.190580 kJ/mol
# GULP energy per Si atom -5597.971092 kJ/mol
# Density = 2.648743 g / cm^3
# Si number density = 26.547852 Si / 1000 Ang^3
#
#
#
# Elastic Constant Matrix: (Units=GPa)
#
#
# Indices 1 2 3 4 5 6 
#
# 1 155.4941 45.4321 9.8135 0.0000 0.0000 0.0000
# 2 45.4321 120.1741 50.6923 0.0000 0.0000 0.0000
# 3 9.8135 50.6923 94.4081 0.0000 0.0000 0.0000
# 4 0.0000 0.0000 0.0000 30.5529 0.0000 0.0000
# 5 0.0000 0.0000 0.0000 0.0000 27.6955 0.0000
# 6 0.0000 0.0000 0.0000 0.0000 0.0000 55.9951
#
#
#
# Elastic Compliance Matrix: (Units=1/GPa)
#
#
# Indices 1 2 3 4 5 6 
#
# 1 0.007293 -0.003151 0.000934 0.000000 0.000000 0.000000
# 2 -0.003151 0.012119 -0.006180 0.000000 0.000000 0.000000
# 3 0.000934 -0.006180 0.013814 0.000000 0.000000 0.000000
# 4 0.000000 0.000000 0.000000 0.032730 0.000000 0.000000
# 5 0.000000 0.000000 0.000000 0.000000 0.036107 0.000000
# 6 0.000000 0.000000 0.000000 0.000000 0.000000 0.017859
#
#
# Mechanical properties :
#
#
# Convention : Reuss Voigt Hill
#
# Bulk Modulus (GPa) = 60.85844 64.66134 62.75989
# Shear Modulus (GPa) = 35.16351 40.45793 37.81072
#
# Velocity S-wave (km/s) = 3.64336 3.90803 3.77802
# Velocity P-wave (km/s) = 6.37751 6.69126 6.53627
#
# Compressibility (1/GPa) = 0.01643157
#
# Stress axis : x y z
#
# Youngs Moduli (GPa) = 137.12105 82.51273 72.39276
#
# Poissons Ratio (x) = 0.26000 -0.06760
# Poissons Ratio (y) = 0.43207 0.44738
# Poissons Ratio (z) = -0.12805 0.50992
#
# Static dielectric constant tensor:
#      x y z
#    x 2.040140 0.000000 0.000000 
#    y 0.000000 2.129970 0.000000 
#    z 0.000000 0.000000 2.243620 
# 
# From -- ./inp_files/1515.got.cif
#   From: 2010.05.17/outbox.cif.g08.bks.cpg/sg56_1_cif.got.tgz:1515.got - 2010.06.03 13:42:01.
