data_PCOD9433337
_publ_section_title
;
Structure prediction by ZEFSAII (Michael W. Deem and Ramdas Pophale) SiO2 
 PCOD9433337
Probable space group: P C C N
;
_chemical_formula_sum "Si O2"
_cell_formula_units_Z 32
_cell_length_a 19.307033
_cell_length_b 8.397966
_cell_length_c 8.060340
_cell_angle_alpha 90.000000
_cell_angle_beta 90.000000
_cell_angle_gamma 90.000000
_cell_volume 1306.901969
_symmetry_space_group_name_H-M "P C C N"
_symmetry_group_IT_number 56
_symmetry_cell_setting 'orthorhombic'
loop_
_space_group_symop_operation_xyz
x,y,z
1/2-x,1/2-y,z
1/2+x,-y,1/2-z
-x,1/2+y,1/2-z
-x,-y,-z
1/2+x,1/2+y,-z
1/2-x,y,1/2+z
x,1/2-y,1/2+z
loop_
_atom_site_type_symbol
_atom_site_label
_atom_site_fract_x
_atom_site_fract_y
_atom_site_fract_z
Si Si1 0.161126 0.633681 0.092322
Si Si2 0.297673 0.969106 0.724863
Si Si3 0.461582 0.036456 0.235979
Si Si4 0.582166 0.864799 0.398081
O O1 0.177604 0.819717 0.111746
O O2 0.215087 0.537465 0.209433
O O3 0.083700 0.600166 0.150306
O O4 0.178270 0.572960 0.909376
O O5 0.338219 0.121958 0.657394
O O6 0.451036 0.192003 0.125073
O O7 0.429300 0.077396 0.415584
O O8 0.538696 0.979669 0.275087
#
# Coordination Sequence:
#
# PCOD9433337 Si02
#       4
#     8   8   8   8
#     4  11  22  39  63  90 122 158 199 244 295 353
#     4  11  22  39  63  90 122 158 199 244 295 353
#     4  11  24  41  62  89 121 157 199 246 297 353
#     4  11  24  41  62  89 121 157 199 246 297 353
#
# _framework density 24.485386999999999
#
# number of rings (size 3 to 8) (size 9 to 14) (size 15 to 20)
#    0.000    1.000    0.000    9.000    0.000    9.000 
#    0.000    5.000    0.000    0.000    0.000    0.000 
#    0.000    0.000    0.000    0.000    0.000    0.000 
#
# Total GULP energy -179370.136960 kJ/mol
# GULP energy per Si atom -5605.316780 kJ/mol
# Density = 2.442966 g / cm^3
# Si number density = 24.485387 Si / 1000 Ang^3
#
#
#
# Elastic Constant Matrix: (Units=GPa)
#
#
# Indices 1 2 3 4 5 6 
#
# 1 80.3802 -0.1303 13.0521 0.0000 0.0000 0.0000
# 2 -0.1303 52.8681 -19.6161 0.0000 0.0000 0.0000
# 3 13.0521 -19.6161 105.4011 0.0000 0.0000 0.0000
# 4 0.0000 0.0000 0.0000 23.2293 0.0000 0.0000
# 5 0.0000 0.0000 0.0000 0.0000 35.4038 0.0000
# 6 0.0000 0.0000 0.0000 0.0000 0.0000 39.9474
#
#
#
# Elastic Compliance Matrix: (Units=1/GPa)
#
#
# Indices 1 2 3 4 5 6 
#
# 1 0.012713 -0.000594 -0.001685 0.000000 0.000000 0.000000
# 2 -0.000594 0.020346 0.003860 0.000000 0.000000 0.000000
# 3 -0.001685 0.003860 0.010415 0.000000 0.000000 0.000000
# 4 0.000000 0.000000 0.000000 0.043049 0.000000 0.000000
# 5 0.000000 0.000000 0.000000 0.000000 0.028246 0.000000
# 6 0.000000 0.000000 0.000000 0.000000 0.000000 0.025033
#
#
# Mechanical properties :
#
#
# Convention : Reuss Voigt Hill
#
# Bulk Modulus (GPa) = 21.44239 25.02900 23.23569
# Shear Modulus (GPa) = 32.85492 36.07233 34.46363
#
# Velocity S-wave (km/s) = 3.66706 3.84242 3.75576
# Velocity P-wave (km/s) = 5.16778 5.47081 5.32145
#
# Compressibility (1/GPa) = 0.04663660
#
# Stress axis : x y z
#
# Youngs Moduli (GPa) = 78.65657 49.15032 96.01906
#
# Poissons Ratio (x) = 0.02919 0.16178
# Poissons Ratio (y) = 0.04671 -0.37064
# Poissons Ratio (z) = 0.13253 -0.18972
#
# Static dielectric constant tensor:
#      x y z
#    x 1.896620 0.000000 0.000000 
#    y 0.000000 1.931350 0.000000 
#    z 0.000000 0.000000 1.904910 
# 
# From -- ./inp_files/1906.got.cif
#   From: 2010.05.17/outbox.cif.g08.bks.cpg/sg56_1_cif.got.tgz:1906.got - 2010.06.03 13:42:01.
