data_PCOD9433133
_publ_section_title
;
Structure prediction by ZEFSAII (Michael W. Deem and Ramdas Pophale) SiO2 
 PCOD9433133
Probable space group: P C C N
;
_chemical_formula_sum "Si O2"
_cell_formula_units_Z 40
_cell_length_a 11.947835
_cell_length_b 5.316990
_cell_length_c 27.843208
_cell_angle_alpha 90.000000
_cell_angle_beta 90.000000
_cell_angle_gamma 90.000000
_cell_volume 1768.782088
_symmetry_space_group_name_H-M "P C C N"
_symmetry_group_IT_number 56
_symmetry_cell_setting 'orthorhombic'
loop_
_space_group_symop_operation_xyz
x,y,z
1/2-x,1/2-y,z
1/2+x,-y,1/2-z
-x,1/2+y,1/2-z
-x,-y,-z
1/2+x,1/2+y,-z
1/2-x,y,1/2+z
x,1/2-y,1/2+z
loop_
_atom_site_type_symbol
_atom_site_label
_atom_site_fract_x
_atom_site_fract_y
_atom_site_fract_z
Si Si1 0.450861 0.937893 0.447967
Si Si2 0.551971 0.059061 0.128608
Si Si3 0.250000 0.250000 0.687683
Si Si4 0.521337 0.733864 0.776214
Si Si5 0.860351 0.335914 0.382053
Si Si6 0.250000 0.250000 0.401404
O O1 0.437915 0.656934 0.426658
O O2 0.500000 0.000000 0.500000
O O3 0.553203 0.019273 0.414381
O O4 0.335981 0.082375 0.433725
O O5 0.540254 0.258497 0.171815
O O6 0.439314 0.893673 0.134527
O O7 0.666205 0.905651 0.132600
O O8 0.147160 0.160538 0.718978
O O9 0.195609 0.475184 0.656286
O O10 0.531728 0.450758 0.756848
O O11 0.750000 0.250000 0.410702
#
# Coordination Sequence:
#
# PCOD9433133 Si02
#       6
#     8   8   4   8   8   4
#     4  11  25  45  73 107 146 193 253 309 383 471
#     4  11  24  47  70 104 153 197 248 313 384 453
#     4  12  24  48  72 108 152 198 254 322 370 464
#     4  12  28  47  76 113 152 201 266 321 387 461
#     4  11  21  40  75 102 145 196 243 308 379 441
#     4  10  26  44  72 102 156 196 242 312 394 448
#
# _framework density 22.614429999999999
#
# number of rings (size 3 to 8) (size 9 to 14) (size 15 to 20)
#    0.000    0.800    4.000    1.800    2.800    8.000 
#    3.600    0.000    0.000    0.000    0.000    0.000 
#    0.000    0.000    0.000    0.000    0.000    0.000 
#
# Total GULP energy -222947.668888 kJ/mol
# GULP energy per Si atom -5573.691722 kJ/mol
# Density = 2.256296 g / cm^3
# Si number density = 22.614430 Si / 1000 Ang^3
#
#
#
# Elastic Constant Matrix: (Units=GPa)
#
#
# Indices 1 2 3 4 5 6 
#
# 1 176.2317 13.1435 12.8311 0.0000 0.0000 0.0000
# 2 13.1435 65.5298 11.3299 0.0000 0.0000 0.0000
# 3 12.8311 11.3299 79.0132 0.0000 0.0000 0.0000
# 4 0.0000 0.0000 0.0000 13.6294 0.0000 0.0000
# 5 0.0000 0.0000 0.0000 0.0000 24.8268 0.0000
# 6 0.0000 0.0000 0.0000 0.0000 0.0000 40.7706
#
#
#
# Elastic Compliance Matrix: (Units=1/GPa)
#
#
# Indices 1 2 3 4 5 6 
#
# 1 0.005809 -0.001027 -0.000796 0.000000 0.000000 0.000000
# 2 -0.001027 0.015830 -0.002103 0.000000 0.000000 0.000000
# 3 -0.000796 -0.002103 0.013087 0.000000 0.000000 0.000000
# 4 0.000000 0.000000 0.000000 0.073371 0.000000 0.000000
# 5 0.000000 0.000000 0.000000 0.000000 0.040279 0.000000
# 6 0.000000 0.000000 0.000000 0.000000 0.000000 0.024527
#
#
# Mechanical properties :
#
#
# Convention : Reuss Voigt Hill
#
# Bulk Modulus (GPa) = 37.21240 43.93153 40.57197
# Shear Modulus (GPa) = 26.35550 34.74337 30.54944
#
# Velocity S-wave (km/s) = 3.41754 3.92386 3.67942
# Velocity P-wave (km/s) = 5.66248 6.32435 6.00255
#
# Compressibility (1/GPa) = 0.02687276
#
# Stress axis : x y z
#
# Youngs Moduli (GPa) = 172.14867 63.17147 76.41211
#
# Poissons Ratio (x) = 0.06491 0.06082
# Poissons Ratio (y) = 0.17688 0.16070
# Poissons Ratio (z) = 0.13703 0.13285
#
# Static dielectric constant tensor:
#      x y z
#    x 1.903920 0.000000 0.000000 
#    y 0.000000 2.557800 0.000000 
#    z 0.000000 0.000000 1.892200 
# 
# From -- ./inp_files/22200.got.cif
#   From: 2010.05.17/outbox.cif.g08.bks.cpg/sg56_12_cif.got.tgz:22200.got - 2010.06.03 13:42:01.
