data_PCOD9433338
_publ_section_title
;
Structure prediction by ZEFSAII (Michael W. Deem and Ramdas Pophale) SiO2 
 PCOD9433338
Probable space group: P C C N
;
_chemical_formula_sum "Si O2"
_cell_formula_units_Z 48
_cell_length_a 7.760359
_cell_length_b 14.947790
_cell_length_c 18.196600
_cell_angle_alpha 90.000000
_cell_angle_beta 90.000000
_cell_angle_gamma 90.000000
_cell_volume 2110.809542
_symmetry_space_group_name_H-M "P C C N"
_symmetry_group_IT_number 56
_symmetry_cell_setting 'orthorhombic'
loop_
_space_group_symop_operation_xyz
x,y,z
1/2-x,1/2-y,z
1/2+x,-y,1/2-z
-x,1/2+y,1/2-z
-x,-y,-z
1/2+x,1/2+y,-z
1/2-x,y,1/2+z
x,1/2-y,1/2+z
loop_
_atom_site_type_symbol
_atom_site_label
_atom_site_fract_x
_atom_site_fract_y
_atom_site_fract_z
Si Si1 0.870101 0.162696 0.549663
Si Si2 0.804586 0.503492 0.145375
Si Si3 0.880978 0.681467 0.079206
Si Si4 0.143842 0.163989 0.676193
Si Si5 0.407861 0.810089 0.688705
Si Si6 0.293565 0.978683 0.188689
O O1 0.750000 0.250000 0.540992
O O2 0.974064 0.143636 0.475100
O O3 0.019986 0.182379 0.608444
O O4 0.782088 0.074527 0.585050
O O5 0.766129 0.601771 0.113658
O O6 0.718182 0.475901 0.222373
O O7 0.008159 0.518748 0.163621
O O8 0.750000 0.750000 0.039972
O O9 0.981154 0.742943 0.138726
O O10 0.250000 0.250000 0.693843
O O11 0.022421 0.150842 0.746391
O O12 0.265098 0.078001 0.665824
O O13 0.250000 0.750000 0.719205
O O14 0.314608 0.897428 0.654866
#
# Coordination Sequence:
#
# PCOD9433338 Si02
#       6
#     8   8   8   8   8   8
#     4  11  25  46  67  95 136 184 230 275 344 407
#     4  11  24  43  70  99 140 171 226 289 340 404
#     4  12  26  45  67  97 137 182 232 280 342 408
#     4  11  24  41  67  98 139 175 221 288 341 395
#     4  12  22  39  68  98 130 175 230 283 334 405
#     4  11  22  39  64 102 129 168 223 274 346 390
#
# _framework density 22.740089999999999
#
# number of rings (size 3 to 8) (size 9 to 14) (size 15 to 20)
#    0.000    0.667    5.000    4.500    0.000    0.000 
#    0.000    0.833    0.000    0.000    0.000    0.000 
#    0.000    0.000    0.000    0.000    0.000    0.000 
#
# Total GULP energy -268181.920870 kJ/mol
# GULP energy per Si atom -5587.123351 kJ/mol
# Density = 2.268833 g / cm^3
# Si number density = 22.740090 Si / 1000 Ang^3
#
#
#
# Elastic Constant Matrix: (Units=GPa)
#
#
# Indices 1 2 3 4 5 6 
#
# 1 20.6838 23.3822 3.1849 0.0000 0.0000 0.0000
# 2 23.3822 117.6982 -16.8390 0.0000 0.0000 0.0000
# 3 3.1849 -16.8390 64.6084 0.0000 0.0000 0.0000
# 4 0.0000 0.0000 0.0000 29.7711 0.0000 0.0000
# 5 0.0000 0.0000 0.0000 0.0000 34.8888 0.0000
# 6 0.0000 0.0000 0.0000 0.0000 0.0000 34.5349
#
#
#
# Elastic Compliance Matrix: (Units=1/GPa)
#
#
# Indices 1 2 3 4 5 6 
#
# 1 0.065133 -0.013918 -0.006838 0.000000 0.000000 0.000000
# 2 -0.013918 0.011799 0.003761 0.000000 0.000000 0.000000
# 3 -0.006838 0.003761 0.016795 0.000000 0.000000 0.000000
# 4 0.000000 0.000000 0.000000 0.033590 0.000000 0.000000
# 5 0.000000 0.000000 0.000000 0.000000 0.028663 0.000000
# 6 0.000000 0.000000 0.000000 0.000000 0.000000 0.028956
#
#
# Mechanical properties :
#
#
# Convention : Reuss Voigt Hill
#
# Bulk Modulus (GPa) = 16.73957 24.71628 20.72793
# Shear Modulus (GPa) = 20.93461 32.72311 26.82886
#
# Velocity S-wave (km/s) = 3.03744 3.79754 3.43855
# Velocity P-wave (km/s) = 4.43606 5.48826 4.98997
#
# Compressibility (1/GPa) = 0.05973868
#
# Stress axis : x y z
#
# Youngs Moduli (GPa) = 15.35309 84.74994 59.54051
#
# Poissons Ratio (x) = 1.17954 0.40715
# Poissons Ratio (y) = 0.21368 -0.22396
# Poissons Ratio (z) = 0.10499 -0.31878
#
# Static dielectric constant tensor:
#      x y z
#    x 1.888250 0.000000 0.000000 
#    y 0.000000 1.925820 0.000000 
#    z 0.000000 0.000000 1.825310 
# 
# From -- ./inp_files/14823.got.cif
#   From: 2010.05.17/outbox.cif.g08.bks.cpg/sg56_8_cif.got.tgz:14823.got - 2010.06.03 13:42:01.
