data_PCOD9433745
_publ_section_title
;
Structure prediction by ZEFSAII (Michael W. Deem and Ramdas Pophale) SiO2 
 PCOD9433745
Probable space group: P C C N
;
_chemical_formula_sum "Si O2"
_cell_formula_units_Z 32
_cell_length_a 23.306796
_cell_length_b 5.167363
_cell_length_c 9.690868
_cell_angle_alpha 90.000000
_cell_angle_beta 90.000000
_cell_angle_gamma 90.000000
_cell_volume 1167.116541
_symmetry_space_group_name_H-M "P C C N"
_symmetry_group_IT_number 56
_symmetry_cell_setting 'orthorhombic'
loop_
_space_group_symop_operation_xyz
x,y,z
1/2-x,1/2-y,z
1/2+x,-y,1/2-z
-x,1/2+y,1/2-z
-x,-y,-z
1/2+x,1/2+y,-z
1/2-x,y,1/2+z
x,1/2-y,1/2+z
loop_
_atom_site_type_symbol
_atom_site_label
_atom_site_fract_x
_atom_site_fract_y
_atom_site_fract_z
Si Si1 0.556164 0.750049 0.156168
Si Si2 0.652939 0.436418 0.501323
Si Si3 0.750000 0.750000 0.369092
Si Si4 0.750000 0.250000 0.181314
Si Si5 0.931447 0.405423 0.406190
O O1 0.487695 0.762550 0.130760
O O2 0.565372 0.832746 0.315174
O O3 0.568596 0.490410 0.067343
O O4 0.599563 0.950027 0.084649
O O5 0.694206 0.670618 0.456062
O O6 0.694651 0.246019 0.584217
O O7 0.624213 0.268263 0.380323
O O8 0.757717 0.501667 0.273560
#
# Coordination Sequence:
#
# PCOD9433745 Si02
#       5
#     8   8   4   4   8
#     4  11  29  50  82 122 169 218 288 358 447 524
#     4  12  29  52  82 123 170 229 293 363 442 526
#     4  12  30  52  84 120 172 230 292 360 436 514
#     4  12  30  52  80 124 172 228 296 360 432 518
#     4  11  29  51  84 126 169 226 284 368 444 537
#
# _framework density 27.417998999999998
#
# number of rings (size 3 to 8) (size 9 to 14) (size 15 to 20)
#    0.000    0.500    0.000    3.750   24.500    0.000 
#    0.000    0.000    0.000    0.000    0.000    0.000 
#    0.000    0.000    0.000    0.000    0.000    0.000 
#
# Total GULP energy -179350.401429 kJ/mol
# GULP energy per Si atom -5604.700045 kJ/mol
# Density = 2.735559 g / cm^3
# Si number density = 27.417999 Si / 1000 Ang^3
#
#
#
# Elastic Constant Matrix: (Units=GPa)
#
#
# Indices 1 2 3 4 5 6 
#
# 1 139.4274 89.0450 83.7537 0.0000 0.0000 0.0000
# 2 89.0450 161.1934 62.6932 0.0000 0.0000 0.0000
# 3 83.7537 62.6932 119.2550 0.0000 0.0000 0.0000
# 4 0.0000 0.0000 0.0000 30.9406 0.0000 0.0000
# 5 0.0000 0.0000 0.0000 0.0000 25.6773 0.0000
# 6 0.0000 0.0000 0.0000 0.0000 0.0000 66.9783
#
#
#
# Elastic Compliance Matrix: (Units=1/GPa)
#
#
# Indices 1 2 3 4 5 6 
#
# 1 0.015431 -0.005417 -0.007990 0.000000 0.000000 0.000000
# 2 -0.005417 0.009700 -0.001295 0.000000 0.000000 0.000000
# 3 -0.007990 -0.001295 0.014677 0.000000 0.000000 0.000000
# 4 0.000000 0.000000 0.000000 0.032320 0.000000 0.000000
# 5 0.000000 0.000000 0.000000 0.000000 0.038945 0.000000
# 6 0.000000 0.000000 0.000000 0.000000 0.000000 0.014930
#
#
# Mechanical properties :
#
#
# Convention : Reuss Voigt Hill
#
# Bulk Modulus (GPa) = 96.10545 98.98439 97.54492
# Shear Modulus (GPa) = 31.47140 37.01147 34.24143
#
# Velocity S-wave (km/s) = 3.39165 3.67808 3.53776
# Velocity P-wave (km/s) = 7.10393 7.36329 7.23477
#
# Compressibility (1/GPa) = 0.01040524
#
# Stress axis : x y z
#
# Youngs Moduli (GPa) = 64.80460 103.09624 68.13227
#
# Poissons Ratio (x) = 0.55845 0.54435
# Poissons Ratio (y) = 0.35104 0.08823
# Poissons Ratio (z) = 0.51777 0.13350
#
# Static dielectric constant tensor:
#      x y z
#    x 2.119560 0.000000 0.000000 
#    y 0.000000 2.100190 0.000000 
#    z 0.000000 0.000000 2.203860 
# 
# From -- ./inp_files/8562.got.cif
#   From: 2010.05.17/outbox.cif.g08.bks.cpg/sg56_5_cif.got.tgz:8562.got - 2010.06.03 13:42:01.
