data_PCOD9433573
_publ_section_title
;
Structure prediction by ZEFSAII (Michael W. Deem and Ramdas Pophale) SiO2 
 PCOD9433573
Probable space group: P C C N
;
_chemical_formula_sum "Si O2"
_cell_formula_units_Z 60
_cell_length_a 11.209652
_cell_length_b 20.918495
_cell_length_c 11.818809
_cell_angle_alpha 90.000000
_cell_angle_beta 90.000000
_cell_angle_gamma 90.000000
_cell_volume 2771.381286
_symmetry_space_group_name_H-M "P C C N"
_symmetry_group_IT_number 56
_symmetry_cell_setting 'orthorhombic'
loop_
_space_group_symop_operation_xyz
x,y,z
1/2-x,1/2-y,z
1/2+x,-y,1/2-z
-x,1/2+y,1/2-z
-x,-y,-z
1/2+x,1/2+y,-z
1/2-x,y,1/2+z
x,1/2-y,1/2+z
loop_
_atom_site_type_symbol
_atom_site_label
_atom_site_fract_x
_atom_site_fract_y
_atom_site_fract_z
Si Si1 0.006760 0.659910 0.702264
Si Si2 0.496232 0.957138 0.313886
Si Si3 0.104898 0.429285 0.455064
Si Si4 0.638807 0.990560 0.082408
Si Si5 0.006094 0.105385 0.560181
Si Si6 0.937251 0.212553 0.404253
Si Si7 0.229710 0.867716 0.753150
Si Si8 0.250000 0.750000 0.922351
O O1 0.959575 0.637724 0.823308
O O2 0.019316 0.735813 0.686008
O O3 0.137546 0.625242 0.700229
O O4 0.918078 0.637588 0.604867
O O5 0.571149 0.921519 0.412873
O O6 0.569909 0.968638 0.197585
O O7 0.367231 0.922854 0.287900
O O8 0.479259 0.023676 0.380705
O O9 0.229701 0.462549 0.426900
O O10 0.622004 0.067568 0.071307
O O11 0.583267 0.955474 0.973266
O O12 0.017990 0.159404 0.464740
O O13 0.839106 0.169868 0.344192
O O14 0.868659 0.250511 0.502419
O O15 0.249873 0.814555 0.850125
#
# Coordination Sequence:
#
# PCOD9433573 Si02
#       8
#     8   8   8   8   8   8   8   4
#     4  12  23  41  66 103 141 180 227 291 356 425
#     4  11  25  43  68 100 137 182 232 291 347 414
#     4  11  27  43  67 105 140 182 231 292 354 417
#     4  11  25  47  72 100 139 189 239 291 350 432
#     4  11  24  44  70 101 133 192 236 287 354 423
#     4  12  22  38  64  99 136 177 233 289 358 418
#     4  12  22  38  64 101 137 177 232 289 356 415
#     4  12  20  36  60  98 140 178 220 298 356 418
#
# _framework density 21.649854000000001
#
# number of rings (size 3 to 8) (size 9 to 14) (size 15 to 20)
#    0.000    0.533    6.667    1.600    1.867    1.067 
#    0.000    0.667    0.000    1.600    0.000    0.000 
#    0.000    0.000    0.000    0.000    0.000    0.000 
#
# Total GULP energy -334364.251468 kJ/mol
# GULP energy per Si atom -5572.737524 kJ/mol
# Density = 2.160058 g / cm^3
# Si number density = 21.649854 Si / 1000 Ang^3
#
#
#
# Elastic Constant Matrix: (Units=GPa)
#
#
# Indices 1 2 3 4 5 6 
#
# 1 30.0852 21.1563 17.5994 0.0000 0.0000 0.0000
# 2 21.1563 89.2019 31.1998 0.0000 0.0000 0.0000
# 3 17.5994 31.1998 107.9726 0.0000 0.0000 0.0000
# 4 0.0000 0.0000 0.0000 45.3309 0.0000 0.0000
# 5 0.0000 0.0000 0.0000 0.0000 22.0538 0.0000
# 6 0.0000 0.0000 0.0000 0.0000 0.0000 21.3045
#
#
#
# Elastic Compliance Matrix: (Units=1/GPa)
#
#
# Indices 1 2 3 4 5 6 
#
# 1 0.041674 -0.008352 -0.004379 0.000000 0.000000 0.000000
# 2 -0.008352 0.014145 -0.002726 0.000000 0.000000 0.000000
# 3 -0.004379 -0.002726 0.010763 0.000000 0.000000 0.000000
# 4 0.000000 0.000000 0.000000 0.022060 0.000000 0.000000
# 5 0.000000 0.000000 0.000000 0.000000 0.045344 0.000000
# 6 0.000000 0.000000 0.000000 0.000000 0.000000 0.046938
#
#
# Mechanical properties :
#
#
# Convention : Reuss Voigt Hill
#
# Bulk Modulus (GPa) = 28.03699 40.79675 34.41687
# Shear Modulus (GPa) = 22.34850 28.22478 25.28664
#
# Velocity S-wave (km/s) = 3.21638 3.61459 3.42128
# Velocity P-wave (km/s) = 5.17415 6.02537 5.61591
#
# Compressibility (1/GPa) = 0.03566716
#
# Stress axis : x y z
#
# Youngs Moduli (GPa) = 23.99563 70.69691 92.90978
#
# Poissons Ratio (x) = 0.59048 0.40689
# Poissons Ratio (y) = 0.20042 0.25326
# Poissons Ratio (z) = 0.10509 0.19271
#
# Static dielectric constant tensor:
#      x y z
#    x 1.903730 0.000000 0.000000 
#    y 0.000000 1.848040 0.000000 
#    z 0.000000 0.000000 1.834180 
# 
# From -- ./inp_files/7344.got.cif
#   From: 2010.05.17/outbox.cif.g08.bks.cpg/sg56_4_cif.got.tgz:7344.got - 2010.06.03 13:42:01.
