data_PCOD9433857
_publ_section_title
;
Structure prediction by ZEFSAII (Michael W. Deem and Ramdas Pophale) SiO2 
 PCOD9433857
Probable space group: P C C N
;
_chemical_formula_sum "Si O2"
_cell_formula_units_Z 32
_cell_length_a 10.887202
_cell_length_b 14.935580
_cell_length_c 7.884131
_cell_angle_alpha 90.000000
_cell_angle_beta 90.000000
_cell_angle_gamma 90.000000
_cell_volume 1282.012339
_symmetry_space_group_name_H-M "P C C N"
_symmetry_group_IT_number 56
_symmetry_cell_setting 'orthorhombic'
loop_
_space_group_symop_operation_xyz
x,y,z
1/2-x,1/2-y,z
1/2+x,-y,1/2-z
-x,1/2+y,1/2-z
-x,-y,-z
1/2+x,1/2+y,-z
1/2-x,y,1/2+z
x,1/2-y,1/2+z
loop_
_atom_site_type_symbol
_atom_site_label
_atom_site_fract_x
_atom_site_fract_y
_atom_site_fract_z
Si Si1 0.997390 0.130076 0.733913
Si Si2 0.614244 0.707401 0.603541
Si Si3 0.225869 0.854061 0.078525
Si Si4 0.944429 0.423994 0.722393
O O1 0.032727 0.205086 0.870769
O O2 0.077318 0.160463 0.572197
O O3 0.850525 0.139057 0.742304
O O4 0.028429 0.028541 0.776761
O O5 0.750000 0.750000 0.611663
O O6 0.567265 0.635639 0.745065
O O7 0.250000 0.750000 0.046075
O O8 0.354057 0.902406 0.119460
O O9 0.134545 0.898149 0.942355
#
# Coordination Sequence:
#
# PCOD9433857 Si02
#       4
#     8   8   8   8
#     4  12  28  49  82 116 160 211 265 325 404 471
#     4  12  28  51  77 116 165 209 259 329 403 477
#     4  12  26  50  82 116 159 209 272 334 390 475
#     4  12  28  49  85 120 160 211 270 329 406 474
#
# _framework density 24.960757999999998
#
# number of rings (size 3 to 8) (size 9 to 14) (size 15 to 20)
#    0.000    0.000    2.500    6.000    7.000    0.000 
#    0.000    1.250    0.000    0.000    0.000    0.000 
#    0.000    0.000    0.000    0.000    0.000    0.000 
#
# Total GULP energy -179116.015910 kJ/mol
# GULP energy per Si atom -5597.375497 kJ/mol
# Density = 2.490395 g / cm^3
# Si number density = 24.960758 Si / 1000 Ang^3
#
#
#
# Elastic Constant Matrix: (Units=GPa)
#
#
# Indices 1 2 3 4 5 6 
#
# 1 85.6272 33.0958 -14.4964 0.0000 0.0000 0.0000
# 2 33.0958 243.8723 26.8507 0.0000 0.0000 0.0000
# 3 -14.4964 26.8507 87.4181 0.0000 0.0000 0.0000
# 4 0.0000 0.0000 0.0000 34.8983 0.0000 0.0000
# 5 0.0000 0.0000 0.0000 0.0000 29.5298 0.0000
# 6 0.0000 0.0000 0.0000 0.0000 0.0000 18.7719
#
#
#
# Elastic Compliance Matrix: (Units=1/GPa)
#
#
# Indices 1 2 3 4 5 6 
#
# 1 0.012947 -0.002063 0.002781 0.000000 0.000000 0.000000
# 2 -0.002063 0.004573 -0.001747 0.000000 0.000000 0.000000
# 3 0.002781 -0.001747 0.012437 0.000000 0.000000 0.000000
# 4 0.000000 0.000000 0.000000 0.028655 0.000000 0.000000
# 5 0.000000 0.000000 0.000000 0.000000 0.033864 0.000000
# 6 0.000000 0.000000 0.000000 0.000000 0.000000 0.053271
#
#
# Mechanical properties :
#
#
# Convention : Reuss Voigt Hill
#
# Bulk Modulus (GPa) = 35.84483 56.42419 46.13451
# Shear Modulus (GPa) = 31.82607 41.40452 36.61529
#
# Velocity S-wave (km/s) = 3.57465 4.07724 3.83419
# Velocity P-wave (km/s) = 5.60617 6.69473 6.17448
#
# Compressibility (1/GPa) = 0.02789802
#
# Stress axis : x y z
#
# Youngs Moduli (GPa) = 77.23972 218.68411 80.40599
#
# Poissons Ratio (x) = 0.45118 -0.22358
# Poissons Ratio (y) = 0.15936 0.14044
# Poissons Ratio (z) = -0.21478 0.38197
#
# Static dielectric constant tensor:
#      x y z
#    x 2.095180 0.000000 0.000000 
#    y 0.000000 1.839300 0.000000 
#    z 0.000000 0.000000 2.169270 
# 
# From -- ./inp_files/2423.got.cif
#   From: 2010.05.17/outbox.cif.g08.bks.cpg/sg56_2_cif.got.tgz:2423.got - 2010.06.03 13:42:01.
