data_PCOD9433990
_publ_section_title
;
Structure prediction by ZEFSAII (Michael W. Deem and Ramdas Pophale) SiO2 
 PCOD9433990
Probable space group: P B C M
;
_chemical_formula_sum "Si O2"
_cell_formula_units_Z 28
_cell_length_a 15.657285
_cell_length_b 18.132438
_cell_length_c 5.440191
_cell_angle_alpha 90.000000
_cell_angle_beta 90.000000
_cell_angle_gamma 90.000000
_cell_volume 1544.496063
_symmetry_space_group_name_H-M "P B C M"
_symmetry_group_IT_number 57
_symmetry_cell_setting 'orthorhombic'
loop_
_space_group_symop_operation_xyz
x,y,z
-x,-y,1/2+z
x,1/2-y,-z
-x,1/2+y,1/2-z
-x,-y,-z
x,y,1/2-z
-x,1/2+y,z
x,1/2-y,1/2+z
loop_
_atom_site_type_symbol
_atom_site_label
_atom_site_fract_x
_atom_site_fract_y
_atom_site_fract_z
Si Si1 0.131680 0.132003 0.750000
Si Si2 0.082871 0.383629 0.750000
Si Si3 0.897712 0.456280 0.750000
Si Si4 0.189171 0.967716 0.250000
Si Si5 0.690382 0.703396 0.750000
Si Si6 0.612831 0.007010 0.750000
Si Si7 0.436062 0.421186 0.250000
O O1 0.094480 0.161769 0.497178
O O2 0.232937 0.143786 0.750000
O O3 0.103966 0.045686 0.750000
O O4 0.158170 0.446072 0.750000
O O5 0.993669 0.426822 0.750000
O O6 0.850309 0.434401 0.498877
O O7 0.290781 0.964578 0.250000
O O8 0.698873 0.750000 0.500000
O O9 0.600966 0.660610 0.750000
O O10 0.597975 0.960123 0.499962
O O11 0.538083 0.068224 0.750000
#
# Coordination Sequence:
#
# PCOD9433990 Si02
#       7
#     4   4   4   4   4   4   4
#     4  10  18  30  46  64  95 132 170 203 231 284
#     4  10  17  28  46  71 101 134 159 194 252 299
#     4  10  18  27  45  71 103 134 157 193 250 303
#     4  10  16  25  40  66  98 125 159 193 240 311
#     4  12  24  37  52  74 106 146 182 209 251 313
#     4  10  19  32  54  75  99 135 168 217 280 316
#     4  10  20  35  51  73 100 132 175 217 264 322
#
# _framework density 18.128889999999998
#
# number of rings (size 3 to 8) (size 9 to 14) (size 15 to 20)
#    0.000    1.714    0.000   10.286    0.000    0.000 
#    0.000    0.000    0.000    0.000    0.000    0.000 
#    0.000   38.857    0.000    0.000    0.000    0.000 
#
# Total GULP energy -156198.937144 kJ/mol
# GULP energy per Si atom -5578.533469 kJ/mol
# Density = 1.808763 g / cm^3
# Si number density = 18.128890 Si / 1000 Ang^3
#
#
#
# Elastic Constant Matrix: (Units=GPa)
#
#
# Indices 1 2 3 4 5 6 
#
# 1 139.5012 32.2543 49.4094 0.0000 0.0000 0.0000
# 2 32.2543 33.4165 15.7525 0.0000 0.0000 0.0000
# 3 49.4094 15.7525 194.6549 0.0000 0.0000 0.0000
# 4 0.0000 0.0000 0.0000 10.2546 0.0000 0.0000
# 5 0.0000 0.0000 0.0000 0.0000 26.9299 0.0000
# 6 0.0000 0.0000 0.0000 0.0000 0.0000 3.4714
#
#
#
# Elastic Compliance Matrix: (Units=1/GPa)
#
#
# Indices 1 2 3 4 5 6 
#
# 1 0.009792 -0.008609 -0.001789 0.000000 0.000000 0.000000
# 2 -0.008609 0.038680 -0.000945 0.000000 0.000000 0.000000
# 3 -0.001789 -0.000945 0.005668 0.000000 0.000000 0.000000
# 4 0.000000 0.000000 0.000000 0.097517 0.000000 0.000000
# 5 0.000000 0.000000 0.000000 0.000000 0.037133 0.000000
# 6 0.000000 0.000000 0.000000 0.000000 0.000000 0.288069
#
#
# Mechanical properties :
#
#
# Convention : Reuss Voigt Hill
#
# Bulk Modulus (GPa) = 31.79128 62.48945 47.14036
# Shear Modulus (GPa) = 9.80334 26.14159 17.97246
#
# Velocity S-wave (km/s) = 2.32794 3.80147 3.15202
# Velocity P-wave (km/s) = 4.97997 7.33571 6.26948
#
# Compressibility (1/GPa) = 0.03145517
#
# Stress axis : x y z
#
# Youngs Moduli (GPa) = 102.11971 25.85311 176.43299
#
# Poissons Ratio (x) = 0.22256 0.31563
# Poissons Ratio (y) = 0.87910 0.16674
# Poissons Ratio (z) = 0.18269 0.02443
#
# Static dielectric constant tensor:
#      x y z
#    x 1.599710 0.000000 0.000000 
#    y 0.000000 1.595700 0.000000 
#    z 0.000000 0.000000 1.754500 
# 
# From -- ./inp_files/315.got.cif
#   From: 2010.05.17/outbox.cif.g08.bks.cpg/sg57_1_cif.got.tgz:315.got - 2010.06.03 13:58:18.
