data_PCOD9433180
_publ_section_title
;
Structure prediction by ZEFSAII (Michael W. Deem and Ramdas Pophale) SiO2 
 PCOD9433180
Probable space group: P C C N
;
_chemical_formula_sum "Si O2"
_cell_formula_units_Z 48
_cell_length_a 4.988503
_cell_length_b 19.989442
_cell_length_c 19.358338
_cell_angle_alpha 90.000000
_cell_angle_beta 90.000000
_cell_angle_gamma 90.000000
_cell_volume 1930.362967
_symmetry_space_group_name_H-M "P C C N"
_symmetry_group_IT_number 56
_symmetry_cell_setting 'orthorhombic'
loop_
_space_group_symop_operation_xyz
x,y,z
1/2-x,1/2-y,z
1/2+x,-y,1/2-z
-x,1/2+y,1/2-z
-x,-y,-z
1/2+x,1/2+y,-z
1/2-x,y,1/2+z
x,1/2-y,1/2+z
loop_
_atom_site_type_symbol
_atom_site_label
_atom_site_fract_x
_atom_site_fract_y
_atom_site_fract_z
Si Si1 0.750000 0.750000 0.807422
Si Si2 0.750000 0.250000 0.094921
Si Si3 0.722941 0.870154 0.709951
Si Si4 0.887940 0.109073 0.080745
Si Si5 0.869708 0.558276 0.841889
Si Si6 0.805830 0.047528 0.454829
Si Si7 0.272505 0.668886 0.628365
O O1 0.500765 0.740550 0.856295
O O2 0.646766 0.809036 0.759087
O O3 0.763527 0.179657 0.057213
O O4 0.679310 0.934339 0.759746
O O5 0.521263 0.861562 0.645865
O O6 0.026920 0.851313 0.690587
O O7 0.670321 0.076143 0.133350
O O8 0.168079 0.110023 0.120479
O O9 0.921071 0.065845 0.011216
O O10 0.782270 0.490515 0.881301
O O11 0.897533 0.121817 0.431364
O O12 0.000000 0.000000 0.500000
O O13 0.250000 0.750000 0.619181
#
# Coordination Sequence:
#
# PCOD9433180 Si02
#       7
#     4   4   8   8   8   8   8
#     4  12  20  38  62 102 144 164 222 276 346 416
#     4  12  20  34  66 102 128 180 222 282 340 404
#     4  12  23  41  69 101 138 173 224 284 350 420
#     4  11  22  39  66  97 133 172 230 278 334 395
#     4  11  23  42  68  98 131 180 221 278 338 407
#     4  10  27  49  69  96 141 187 238 284 341 415
#     4  12  26  44  70 102 139 180 223 288 356 415
#
# _framework density 24.865790000000001
#
# number of rings (size 3 to 8) (size 9 to 14) (size 15 to 20)
#    0.000    0.667    5.000    2.500    1.167    6.667 
#    0.000    0.000    0.000    0.000    0.000    0.000 
#    0.000    0.000    0.000    0.000    0.000    0.000 
#
# Total GULP energy -267663.134516 kJ/mol
# GULP energy per Si atom -5576.315302 kJ/mol
# Density = 2.480919 g / cm^3
# Si number density = 24.865790 Si / 1000 Ang^3
#
#
#
# Elastic Constant Matrix: (Units=GPa)
#
#
# Indices 1 2 3 4 5 6 
#
# 1 95.2175 5.9672 9.0252 0.0000 0.0000 0.0000
# 2 5.9672 123.6754 45.1824 0.0000 0.0000 0.0000
# 3 9.0252 45.1824 69.0153 0.0000 0.0000 0.0000
# 4 0.0000 0.0000 0.0000 47.9401 0.0000 0.0000
# 5 0.0000 0.0000 0.0000 0.0000 7.7429 0.0000
# 6 0.0000 0.0000 0.0000 0.0000 0.0000 24.7219
#
#
#
# Elastic Compliance Matrix: (Units=1/GPa)
#
#
# Indices 1 2 3 4 5 6 
#
# 1 0.010634 -0.000007 -0.001386 0.000000 0.000000 0.000000
# 2 -0.000007 0.010627 -0.006957 0.000000 0.000000 0.000000
# 3 -0.001386 -0.006957 0.019225 0.000000 0.000000 0.000000
# 4 0.000000 0.000000 0.000000 0.020859 0.000000 0.000000
# 5 0.000000 0.000000 0.000000 0.000000 0.129151 0.000000
# 6 0.000000 0.000000 0.000000 0.000000 0.000000 0.040450
#
#
# Mechanical properties :
#
#
# Convention : Reuss Voigt Hill
#
# Bulk Modulus (GPa) = 42.03872 45.36196 43.70034
# Shear Modulus (GPa) = 19.56373 31.26321 25.41347
#
# Velocity S-wave (km/s) = 2.80799 3.54966 3.20038
# Velocity P-wave (km/s) = 5.23985 5.92304 5.59189
#
# Compressibility (1/GPa) = 0.02378759
#
# Stress axis : x y z
#
# Youngs Moduli (GPa) = 94.03720 94.09567 52.01520
#
# Poissons Ratio (x) = 0.00062 0.07211
# Poissons Ratio (y) = 0.00062 0.36185
# Poissons Ratio (z) = 0.13036 0.65459
#
# Static dielectric constant tensor:
#      x y z
#    x 2.013180 0.000000 0.000000 
#    y 0.000000 2.167740 0.000000 
#    z 0.000000 0.000000 2.038770 
# 
# From -- ./inp_files/17533.got.cif
#   From: 2010.05.17/outbox.cif.g08.bks.cpg/sg56_9_cif.got.tgz:17533.got - 2010.06.03 13:42:01.
