data_PCOD9433467
_publ_section_title
;
Structure prediction by ZEFSAII (Michael W. Deem and Ramdas Pophale) SiO2 
 PCOD9433467
Probable space group: P C C N
;
_chemical_formula_sum "Si O2"
_cell_formula_units_Z 52
_cell_length_a 8.096233
_cell_length_b 15.644688
_cell_length_c 17.097378
_cell_angle_alpha 90.000000
_cell_angle_beta 90.000000
_cell_angle_gamma 90.000000
_cell_volume 2165.605861
_symmetry_space_group_name_H-M "P C C N"
_symmetry_group_IT_number 56
_symmetry_cell_setting 'orthorhombic'
loop_
_space_group_symop_operation_xyz
x,y,z
1/2-x,1/2-y,z
1/2+x,-y,1/2-z
-x,1/2+y,1/2-z
-x,-y,-z
1/2+x,1/2+y,-z
1/2-x,y,1/2+z
x,1/2-y,1/2+z
loop_
_atom_site_type_symbol
_atom_site_label
_atom_site_fract_x
_atom_site_fract_y
_atom_site_fract_z
Si Si1 0.277188 0.156807 0.618842
Si Si2 0.101837 0.792684 0.550159
Si Si3 0.118967 0.985190 0.571519
Si Si4 0.593078 0.616563 0.226327
Si Si5 0.250000 0.250000 0.390215
Si Si6 0.141873 0.819473 0.888209
Si Si7 0.337226 0.534644 0.315970
O O1 0.250000 0.250000 0.579622
O O2 0.153121 0.156639 0.691649
O O3 0.466059 0.155515 0.645812
O O4 0.241220 0.067105 0.575356
O O5 0.250000 0.750000 0.600163
O O6 0.172631 0.889190 0.553944
O O7 0.101408 0.731758 0.470372
O O8 0.907481 0.797691 0.570429
O O9 0.000000 0.000000 0.500000
O O10 0.000407 0.991028 0.647455
O O11 0.644502 0.682429 0.160130
O O12 0.406067 0.587029 0.241281
O O13 0.704389 0.534027 0.209018
O O14 0.250000 0.750000 0.842345
O O15 0.256158 0.902984 0.880821
#
# Coordination Sequence:
#
# PCOD9433467 Si02
#       7
#     8   8   8   8   4   8   8
#     4  11  23  42  73 106 147 197 247 310 381 459
#     4  11  26  48  71 106 155 194 255 319 386 460
#     4  11  23  43  71 106 144 194 245 312 378 452
#     4  11  24  46  71 109 148 194 255 307 388 463
#     4  12  26  48  74 108 150 208 248 322 396 472
#     4  11  24  44  70 108 145 194 251 308 386 460
#     4  11  24  45  70 103 147 188 252 313 370 469
#
# _framework density 24.011755999999998
#
# number of rings (size 3 to 8) (size 9 to 14) (size 15 to 20)
#    0.000    0.923    2.308    5.538    3.231    3.692 
#    2.769    4.615    0.000    0.000    0.000    0.000 
#    0.000    0.000    0.000    0.000    0.000    0.000 
#
# Total GULP energy -289611.691577 kJ/mol
# GULP energy per Si atom -5569.455607 kJ/mol
# Density = 2.395710 g / cm^3
# Si number density = 24.011756 Si / 1000 Ang^3
#
#
#
# Elastic Constant Matrix: (Units=GPa)
#
#
# Indices 1 2 3 4 5 6 
#
# 1 86.2188 51.1592 -4.5488 0.0000 0.0000 0.0000
# 2 51.1592 200.1752 33.4687 0.0000 0.0000 0.0000
# 3 -4.5488 33.4687 32.6403 0.0000 0.0000 0.0000
# 4 0.0000 0.0000 0.0000 22.5488 0.0000 0.0000
# 5 0.0000 0.0000 0.0000 0.0000 20.0747 0.0000
# 6 0.0000 0.0000 0.0000 0.0000 0.0000 51.1618
#
#
#
# Elastic Compliance Matrix: (Units=1/GPa)
#
#
# Indices 1 2 3 4 5 6 
#
# 1 0.014971 -0.005039 0.007253 0.000000 0.000000 0.000000
# 2 -0.005039 0.007725 -0.008624 0.000000 0.000000 0.000000
# 3 0.007253 -0.008624 0.040490 0.000000 0.000000 0.000000
# 4 0.000000 0.000000 0.000000 0.044348 0.000000 0.000000
# 5 0.000000 0.000000 0.000000 0.000000 0.049814 0.000000
# 6 0.000000 0.000000 0.000000 0.000000 0.000000 0.019546
#
#
# Mechanical properties :
#
#
# Convention : Reuss Voigt Hill
#
# Bulk Modulus (GPa) = 19.85394 53.24361 36.54877
# Shear Modulus (GPa) = 24.21280 34.68740 29.45010
#
# Velocity S-wave (km/s) = 3.17893 3.80491 3.50592
# Velocity P-wave (km/s) = 4.66482 6.44401 5.62520
#
# Compressibility (1/GPa) = 0.05036784
#
# Stress axis : x y z
#
# Youngs Moduli (GPa) = 66.79605 129.44566 24.69734
#
# Poissons Ratio (x) = 0.65226 -0.17913
# Poissons Ratio (y) = 0.33658 0.21298
# Poissons Ratio (z) = -0.48448 1.11628
#
# Static dielectric constant tensor:
#      x y z
#    x 1.936400 0.000000 0.000000 
#    y 0.000000 1.895270 0.000000 
#    z 0.000000 0.000000 2.072200 
# 
# From -- ./inp_files/18125.got.cif
#   From: 2010.05.17/outbox.cif.g08.bks.cpg/sg56_10_cif.got.tgz:18125.got - 2010.06.03 13:42:01.
