data_PCOD9433522
_publ_section_title
;
Structure prediction by ZEFSAII (Michael W. Deem and Ramdas Pophale) SiO2 
 PCOD9433522
Probable space group: P C C N
;
_chemical_formula_sum "Si O2"
_cell_formula_units_Z 60
_cell_length_a 18.137930
_cell_length_b 8.719773
_cell_length_c 17.127217
_cell_angle_alpha 90.000000
_cell_angle_beta 90.000000
_cell_angle_gamma 90.000000
_cell_volume 2708.817216
_symmetry_space_group_name_H-M "P C C N"
_symmetry_group_IT_number 56
_symmetry_cell_setting 'orthorhombic'
loop_
_space_group_symop_operation_xyz
x,y,z
1/2-x,1/2-y,z
1/2+x,-y,1/2-z
-x,1/2+y,1/2-z
-x,-y,-z
1/2+x,1/2+y,-z
1/2-x,y,1/2+z
x,1/2-y,1/2+z
loop_
_atom_site_type_symbol
_atom_site_label
_atom_site_fract_x
_atom_site_fract_y
_atom_site_fract_z
Si Si1 0.750000 0.250000 0.047134
Si Si2 0.921050 0.967574 0.272150
Si Si3 0.501921 0.800309 0.317383
Si Si4 0.450806 0.144592 0.510765
Si Si5 0.019393 0.074090 0.416682
Si Si6 0.281006 0.076301 0.539963
Si Si7 0.745199 0.432261 0.295138
Si Si8 0.360870 0.883451 0.837104
O O1 0.679822 0.232453 0.104050
O O2 0.745709 0.415925 0.002594
O O3 0.976590 0.032582 0.206883
O O4 0.837092 0.021676 0.268233
O O5 0.956907 0.036699 0.352532
O O6 0.930935 0.783936 0.274441
O O7 0.521055 0.783271 0.407800
O O8 0.428370 0.704718 0.296655
O O9 0.467367 0.251231 0.437610
O O10 0.366766 0.096472 0.521204
O O11 0.500000 0.000000 0.500000
O O12 0.097065 0.010214 0.386737
O O13 0.000000 0.000000 0.500000
O O14 0.250000 0.250000 0.522520
O O15 0.266175 0.035819 0.630705
O O16 0.750000 0.250000 0.316421
O O17 0.802537 0.447241 0.224185
#
# Coordination Sequence:
#
# PCOD9433522 Si02
#       8
#     4   8   8   8   8   8   8   8
#     4  12  24  46  80 100 156 198 248 320 384 444
#     4  11  25  43  73 102 145 193 237 306 373 447
#     4  11  24  44  70 103 144 183 246 299 366 443
#     4  12  27  45  72 111 143 189 260 310 377 454
#     4  11  25  46  77 103 150 193 243 316 382 436
#     4  12  29  47  73 110 153 200 253 311 386 462
#     4  12  25  46  74 105 145 198 252 300 377 460
#     4  11  23  46  74 111 143 194 254 308 375 454
#
# _framework density 22.149888000000001
#
# number of rings (size 3 to 8) (size 9 to 14) (size 15 to 20)
#    0.000    0.533    5.333    2.400    9.333    0.000 
#    0.000    0.667    0.000    0.000    0.000    0.000 
#    0.000    0.000    0.000    0.000    0.000    0.000 
#
# Total GULP energy -335051.955962 kJ/mol
# GULP energy per Si atom -5584.199266 kJ/mol
# Density = 2.209947 g / cm^3
# Si number density = 22.149888 Si / 1000 Ang^3
#
#
#
# Elastic Constant Matrix: (Units=GPa)
#
#
# Indices 1 2 3 4 5 6 
#
# 1 137.0145 51.3093 25.6970 0.0000 0.0000 0.0000
# 2 51.3093 112.0459 19.1265 0.0000 0.0000 0.0000
# 3 25.6970 19.1265 67.3755 0.0000 0.0000 0.0000
# 4 0.0000 0.0000 0.0000 38.9703 0.0000 0.0000
# 5 0.0000 0.0000 0.0000 0.0000 34.0297 0.0000
# 6 0.0000 0.0000 0.0000 0.0000 0.0000 38.2623
#
#
#
# Elastic Compliance Matrix: (Units=1/GPa)
#
#
# Indices 1 2 3 4 5 6 
#
# 1 0.009171 -0.003786 -0.002423 0.000000 0.000000 0.000000
# 2 -0.003786 0.010942 -0.001662 0.000000 0.000000 0.000000
# 3 -0.002423 -0.001662 0.016238 0.000000 0.000000 0.000000
# 4 0.000000 0.000000 0.000000 0.025661 0.000000 0.000000
# 5 0.000000 0.000000 0.000000 0.000000 0.029386 0.000000
# 6 0.000000 0.000000 0.000000 0.000000 0.000000 0.026135
#
#
# Mechanical properties :
#
#
# Convention : Reuss Voigt Hill
#
# Bulk Modulus (GPa) = 48.52300 56.52240 52.52270
# Shear Modulus (GPa) = 35.67722 36.93932 36.30827
#
# Velocity S-wave (km/s) = 4.01773 4.08818 4.05311
# Velocity P-wave (km/s) = 6.59371 6.91793 6.75777
#
# Compressibility (1/GPa) = 0.02060878
#
# Stress axis : x y z
#
# Youngs Moduli (GPa) = 109.04311 91.38776 61.58309
#
# Poissons Ratio (x) = 0.34599 0.14921
# Poissons Ratio (y) = 0.41283 0.10237
# Poissons Ratio (z) = 0.26421 0.15192
#
# Static dielectric constant tensor:
#      x y z
#    x 1.799600 0.000000 0.000000 
#    y 0.000000 1.866260 0.000000 
#    z 0.000000 0.000000 1.893580 
# 
# From -- ./inp_files/16648.got.cif
#   From: 2010.05.17/outbox.cif.g08.bks.cpg/sg56_9_cif.got.tgz:16648.got - 2010.06.03 13:42:01.
