data_PCOD9433870
_publ_section_title
;
Structure prediction by ZEFSAII (Michael W. Deem and Ramdas Pophale) SiO2 
 PCOD9433870
Probable space group: P C C N
;
_chemical_formula_sum "Si O2"
_cell_formula_units_Z 36
_cell_length_a 12.176854
_cell_length_b 5.363611
_cell_length_c 22.383243
_cell_angle_alpha 90.000000
_cell_angle_beta 90.000000
_cell_angle_gamma 90.000000
_cell_volume 1461.892309
_symmetry_space_group_name_H-M "P C C N"
_symmetry_group_IT_number 56
_symmetry_cell_setting 'orthorhombic'
loop_
_space_group_symop_operation_xyz
x,y,z
1/2-x,1/2-y,z
1/2+x,-y,1/2-z
-x,1/2+y,1/2-z
-x,-y,-z
1/2+x,1/2+y,-z
1/2-x,y,1/2+z
x,1/2-y,1/2+z
loop_
_atom_site_type_symbol
_atom_site_label
_atom_site_fract_x
_atom_site_fract_y
_atom_site_fract_z
Si Si1 0.314459 0.002690 0.349105
Si Si2 0.166794 0.437974 0.116763
Si Si3 0.250000 0.750000 0.014796
Si Si4 0.934718 0.110855 0.265563
Si Si5 0.535782 0.168470 0.555075
O O1 0.250000 0.750000 0.361592
O O2 0.422748 0.995861 0.389483
O O3 0.250000 0.250000 0.364250
O O4 0.343895 0.987758 0.280140
O O5 0.250000 0.250000 0.149949
O O6 0.247347 0.530892 0.063617
O O7 0.115875 0.617060 0.167885
O O8 0.059615 0.337218 0.081967
O O9 0.144069 0.706342 0.973804
O O10 0.023770 0.881834 0.258678
O O11 0.500000 0.000000 0.500000
#
# Coordination Sequence:
#
# PCOD9433870 Si02
#       5
#     8   8   4   8   8
#     4  12  28  50  79 110 153 208 261 327 395 475
#     4  12  28  50  78 116 155 211 264 335 400 478
#     4  12  28  46  82 108 160 208 268 328 402 478
#     4  12  28  50  80 114 156 206 264 330 396 468
#     4  12  27  50  76 115 157 208 266 327 400 486
#
# _framework density 24.625616999999998
#
# number of rings (size 3 to 8) (size 9 to 14) (size 15 to 20)
#    0.000    0.000    5.556    2.667   10.889    0.000 
#    0.000    0.000    0.000    0.000    0.000    0.000 
#    0.000    0.000    0.000    0.000    0.000    0.000 
#
# Total GULP energy -201121.263587 kJ/mol
# GULP energy per Si atom -5586.701766 kJ/mol
# Density = 2.456957 g / cm^3
# Si number density = 24.625617 Si / 1000 Ang^3
#
#
#
# Elastic Constant Matrix: (Units=GPa)
#
#
# Indices 1 2 3 4 5 6 
#
# 1 63.8777 14.3297 25.0211 0.0000 0.0000 0.0000
# 2 14.3297 79.2196 -1.1422 0.0000 0.0000 0.0000
# 3 25.0211 -1.1422 142.2474 0.0000 0.0000 0.0000
# 4 0.0000 0.0000 0.0000 38.0142 0.0000 0.0000
# 5 0.0000 0.0000 0.0000 0.0000 53.4328 0.0000
# 6 0.0000 0.0000 0.0000 0.0000 0.0000 38.2974
#
#
#
# Elastic Compliance Matrix: (Units=1/GPa)
#
#
# Indices 1 2 3 4 5 6 
#
# 1 0.017602 -0.003229 -0.003122 0.000000 0.000000 0.000000
# 2 -0.003229 0.013217 0.000674 0.000000 0.000000 0.000000
# 3 -0.003122 0.000674 0.007585 0.000000 0.000000 0.000000
# 4 0.000000 0.000000 0.000000 0.026306 0.000000 0.000000
# 5 0.000000 0.000000 0.000000 0.000000 0.018715 0.000000
# 6 0.000000 0.000000 0.000000 0.000000 0.000000 0.026111
#
#
# Mechanical properties :
#
#
# Convention : Reuss Voigt Hill
#
# Bulk Modulus (GPa) = 36.96898 40.19575 38.58236
# Shear Modulus (GPa) = 38.48911 42.42463 40.45687
#
# Velocity S-wave (km/s) = 3.95773 4.15515 4.05764
# Velocity P-wave (km/s) = 5.99415 6.27523 6.13630
#
# Compressibility (1/GPa) = 0.02704971
#
# Stress axis : x y z
#
# Youngs Moduli (GPa) = 56.81098 75.66046 131.84623
#
# Poissons Ratio (x) = 0.24431 0.41164
# Poissons Ratio (y) = 0.18344 -0.08888
# Poissons Ratio (z) = 0.17737 -0.05100
#
# Static dielectric constant tensor:
#      x y z
#    x 2.098110 0.000000 0.000000 
#    y 0.000000 1.854760 0.000000 
#    z 0.000000 0.000000 1.908910 
# 
# From -- ./inp_files/19885.got.cif
#   From: 2010.05.17/outbox.cif.g08.bks.cpg/sg56_10_cif.got.tgz:19885.got - 2010.06.03 13:42:01.
