data_PCOD9433587
_publ_section_title
;
Structure prediction by ZEFSAII (Michael W. Deem and Ramdas Pophale) SiO2 
 PCOD9433587
Probable space group: P C C N
;
_chemical_formula_sum "Si O2"
_cell_formula_units_Z 40
_cell_length_a 8.672790
_cell_length_b 14.349012
_cell_length_c 14.437831
_cell_angle_alpha 90.000000
_cell_angle_beta 90.000000
_cell_angle_gamma 90.000000
_cell_volume 1796.729851
_symmetry_space_group_name_H-M "P C C N"
_symmetry_group_IT_number 56
_symmetry_cell_setting 'orthorhombic'
loop_
_space_group_symop_operation_xyz
x,y,z
1/2-x,1/2-y,z
1/2+x,-y,1/2-z
-x,1/2+y,1/2-z
-x,-y,-z
1/2+x,1/2+y,-z
1/2-x,y,1/2+z
x,1/2-y,1/2+z
loop_
_atom_site_type_symbol
_atom_site_label
_atom_site_fract_x
_atom_site_fract_y
_atom_site_fract_z
Si Si1 0.607771 0.806770 0.809159
Si Si2 0.567298 0.246929 0.038098
Si Si3 0.977820 0.044486 0.102812
Si Si4 0.588684 0.305429 0.336697
Si Si5 0.728995 0.493445 0.265721
O O1 0.750000 0.750000 0.850089
O O2 0.488636 0.828906 0.889517
O O3 0.526359 0.739019 0.736624
O O4 0.665277 0.902378 0.768581
O O5 0.750000 0.250000 0.035895
O O6 0.510917 0.346115 0.077300
O O7 0.518061 0.218594 0.935990
O O8 0.813848 0.032597 0.157946
O O9 0.108553 0.004628 0.175876
O O10 0.000000 0.000000 0.000000
O O11 0.750000 0.250000 0.326492
O O12 0.632537 0.412884 0.319590
#
# Coordination Sequence:
#
# PCOD9433587 Si02
#       5
#     8   8   8   8   8
#     4  12  24  44  67 105 151 184 243 316 375 448
#     4  11  24  45  70 100 147 196 242 312 379 450
#     4  12  26  49  76 113 152 199 258 321 381 457
#     4  11  24  46  74 102 140 201 254 306 379 455
#     4  12  25  47  76 110 146 202 253 311 389 453
#
# _framework density 22.262667
#
# number of rings (size 3 to 8) (size 9 to 14) (size 15 to 20)
#    0.000    0.400    4.000    5.400    2.800    1.600 
#    7.200    0.000    0.000    0.000    0.000    0.000 
#    0.000    0.000    0.000    0.000    0.000    0.000 
#
# Total GULP energy -223018.863668 kJ/mol
# GULP energy per Si atom -5575.471592 kJ/mol
# Density = 2.221200 g / cm^3
# Si number density = 22.262667 Si / 1000 Ang^3
#
#
#
# Elastic Constant Matrix: (Units=GPa)
#
#
# Indices 1 2 3 4 5 6 
#
# 1 71.9267 24.9656 56.9453 0.0000 0.0000 0.0000
# 2 24.9656 111.9783 13.4716 0.0000 0.0000 0.0000
# 3 56.9453 13.4716 149.9005 0.0000 0.0000 0.0000
# 4 0.0000 0.0000 0.0000 -9.3596 0.0000 0.0000
# 5 0.0000 0.0000 0.0000 0.0000 29.0200 0.0000
# 6 0.0000 0.0000 0.0000 0.0000 0.0000 41.0962
#
#
#
# Elastic Compliance Matrix: (Units=1/GPa)
#
#
# Indices 1 2 3 4 5 6 
#
# 1 0.021396 -0.003834 -0.007784 0.000000 0.000000 0.000000
# 2 -0.003834 0.009715 0.000583 0.000000 0.000000 0.000000
# 3 -0.007784 0.000583 0.009576 0.000000 0.000000 0.000000
# 4 0.000000 0.000000 0.000000 -0.106843 0.000000 0.000000
# 5 0.000000 0.000000 0.000000 0.000000 0.034459 0.000000
# 6 0.000000 0.000000 0.000000 0.000000 0.000000 0.024333
#
#
# Mechanical properties :
#
#
# Convention : Reuss Voigt Hill
#
# Bulk Modulus (GPa) = 53.71031 58.28561 55.99796
# Shear Modulus (GPa) = 239.11736 28.04620 133.58178
#
# Velocity S-wave (km/s) = 10.37499 3.55320 7.75454
# Velocity P-wave (km/s) = 12.94986 6.56287 10.26572
#
# Compressibility (1/GPa) = 0.01861840
#
# Stress axis : x y z
#
# Youngs Moduli (GPa) = 46.73744 102.93482 104.43278
#
# Poissons Ratio (x) = 0.39464 0.81286
# Poissons Ratio (y) = 0.17919 -0.06092
# Poissons Ratio (z) = 0.36378 -0.06005
#
# Static dielectric constant tensor:
#      x y z
#    x 1.843280 0.000000 0.000000 
#    y 0.000000 1.803470 0.000000 
#    z 0.000000 0.000000 1.912420 
# 
# From -- ./inp_files/10365.got.cif
#   From: 2010.05.17/outbox.cif.g08.bks.cpg/sg56_6_cif.got.tgz:10365.got - 2010.06.03 13:42:01.
