data_PCOD9433898
_publ_section_title
;
Structure prediction by ZEFSAII (Michael W. Deem and Ramdas Pophale) SiO2 
 PCOD9433898
Probable space group: P C C N
;
_chemical_formula_sum "Si O2"
_cell_formula_units_Z 52
_cell_length_a 9.000000
_cell_length_b 18.000000
_cell_length_c 18.000000
_cell_angle_alpha 90.000000
_cell_angle_beta 90.000000
_cell_angle_gamma 90.000000
_cell_volume 2916.000000
_symmetry_space_group_name_H-M "P C C N"
_symmetry_group_IT_number 56
_symmetry_cell_setting 'orthorhombic'
loop_
_space_group_symop_operation_xyz
x,y,z
1/2-x,1/2-y,z
1/2+x,-y,1/2-z
-x,1/2+y,1/2-z
-x,-y,-z
1/2+x,1/2+y,-z
1/2-x,y,1/2+z
x,1/2-y,1/2+z
loop_
_atom_site_type_symbol
_atom_site_label
_atom_site_fract_x
_atom_site_fract_y
_atom_site_fract_z
Si Si1 0.250000 0.750000 0.914485
Si Si2 0.400930 0.466594 0.757348
Si Si3 0.774758 0.004152 0.596280
Si Si4 0.192406 0.529857 0.644671
Si Si5 0.501575 0.361553 0.633190
Si Si6 0.249276 0.396905 0.530070
Si Si7 0.091888 0.617178 0.501989
O O1 0.122124 0.705637 0.867612
O O2 0.327603 0.688493 0.966787
O O3 0.285984 0.470495 0.826627
O O4 0.339316 0.527445 0.697513
O O5 0.557041 0.481008 0.798072
O O6 0.425782 0.389813 0.710467
O O7 0.902858 0.065136 0.609339
O O8 0.642713 0.048708 0.552304
O O9 0.822107 0.939210 0.540059
O O10 0.212954 0.458547 0.592441
O O11 0.150290 0.594555 0.584899
O O12 0.372096 0.346734 0.572034
O O13 0.086245 0.370611 0.502561
#
# Coordination Sequence:
#
# PCOD9433898 Si02
#       7
#     4   8   8   8   8   8   8
#     4  10  24  42  52  78 116 164 210 238 270 342
#     4  11  18  31  56  88 121 142 178 237 315 351
#     4  10  17  32  55  87 118 139 177 251 307 343
#     4  10  19  32  54  90 117 146 175 242 305 352
#     4  10  22  34  55  85 117 156 194 237 289 352
#     4  10  18  32  59  86 108 142 199 243 291 338
#     4  10  19  36  58  77 116 156 197 235 281 349
#
# _framework density 17.832647000000001
#
# number of rings (size 3 to 8) (size 9 to 14) (size 15 to 20)
#    0.000    1.846    4.615    1.385    0.000    1.846 
#    0.000    0.769    0.000    0.000    8.000    0.000 
#    0.000    0.000    0.000    0.000    0.000    0.000 
#
# Total GULP energy -289527.584588 kJ/mol
# GULP energy per Si atom -5567.838165 kJ/mol
# Density = 1.779206 g / cm^3
# Si number density = 17.832647 Si / 1000 Ang^3
#
#
#
# Elastic Constant Matrix: (Units=GPa)
#
#
# Indices 1 2 3 4 5 6 
#
# 1 73.0196 21.3726 33.2469 0.0000 0.0000 0.0000
# 2 21.3726 49.9198 31.4771 0.0000 0.0000 0.0000
# 3 33.2469 31.4771 125.2819 0.0000 0.0000 0.0000
# 4 0.0000 0.0000 0.0000 19.8087 0.0000 0.0000
# 5 0.0000 0.0000 0.0000 0.0000 37.3589 0.0000
# 6 0.0000 0.0000 0.0000 0.0000 0.0000 27.6570
#
#
#
# Elastic Compliance Matrix: (Units=1/GPa)
#
#
# Indices 1 2 3 4 5 6 
#
# 1 0.016622 -0.005151 -0.003117 0.000000 0.000000 0.000000
# 2 -0.005151 0.025399 -0.005015 0.000000 0.000000 0.000000
# 3 -0.003117 -0.005015 0.010069 0.000000 0.000000 0.000000
# 4 0.000000 0.000000 0.000000 0.050483 0.000000 0.000000
# 5 0.000000 0.000000 0.000000 0.000000 0.026767 0.000000
# 6 0.000000 0.000000 0.000000 0.000000 0.000000 0.036157
#
#
# Mechanical properties :
#
#
# Convention : Reuss Voigt Hill
#
# Bulk Modulus (GPa) = 39.17695 46.71272 42.94484
# Shear Modulus (GPa) = 24.92878 27.77323 26.35101
#
# Velocity S-wave (km/s) = 3.74295 3.95072 3.84824
# Velocity P-wave (km/s) = 6.37938 6.86024 6.62417
#
# Compressibility (1/GPa) = 0.02552521
#
# Stress axis : x y z
#
# Youngs Moduli (GPa) = 60.16201 39.37086 99.31410
#
# Poissons Ratio (x) = 0.20280 0.30954
# Poissons Ratio (y) = 0.30990 0.49803
# Poissons Ratio (z) = 0.18751 0.19743
#
# Static dielectric constant tensor:
#      x y z
#    x 1.679680 0.000000 0.000000 
#    y 0.000000 1.601970 0.000000 
#    z 0.000000 0.000000 1.627500 
# 
# From -- ./inp_files/15035.got.cif
#   From: 2010.05.17/outbox.ucp.g08.bks.cvg/sg56_8_cif.got.tgz:15035.got - 2010.06.11 16:37:52.
