data_PCOD9433968
_publ_section_title
;
Structure prediction by ZEFSAII (Michael W. Deem and Ramdas Pophale) SiO2 
 PCOD9433968
Probable space group: P C C N
;
_chemical_formula_sum "Si O2"
_cell_formula_units_Z 56
_cell_length_a 21.000000
_cell_length_b 15.000000
_cell_length_c 9.000000
_cell_angle_alpha 90.000000
_cell_angle_beta 90.000000
_cell_angle_gamma 90.000000
_cell_volume 2835.000000
_symmetry_space_group_name_H-M "P C C N"
_symmetry_group_IT_number 56
_symmetry_cell_setting 'orthorhombic'
loop_
_space_group_symop_operation_xyz
x,y,z
1/2-x,1/2-y,z
1/2+x,-y,1/2-z
-x,1/2+y,1/2-z
-x,-y,-z
1/2+x,1/2+y,-z
1/2-x,y,1/2+z
x,1/2-y,1/2+z
loop_
_atom_site_type_symbol
_atom_site_label
_atom_site_fract_x
_atom_site_fract_y
_atom_site_fract_z
Si Si1 0.968289 0.337025 0.167763
Si Si2 0.776233 0.524596 0.065900
Si Si3 0.589422 0.968162 0.247841
Si Si4 0.620606 0.823412 0.790444
Si Si5 0.836524 0.649457 0.463991
Si Si6 0.666801 0.476156 0.293689
Si Si7 0.957033 0.143225 0.316178
O O1 0.936630 0.428759 0.237234
O O2 0.950418 0.240651 0.239052
O O3 0.045427 0.332769 0.178762
O O4 0.952150 0.342965 0.993354
O O5 0.844409 0.544494 0.149555
O O6 0.721625 0.482029 0.170377
O O7 0.734264 0.608004 0.995208
O O8 0.796398 0.451748 0.944032
O O9 0.617881 0.930150 0.402589
O O10 0.526590 0.906001 0.210901
O O11 0.633679 0.816699 0.616499
O O12 0.654953 0.736602 0.860231
O O13 0.648179 0.920747 0.829088
O O14 0.602428 0.420256 0.267544
#
# Coordination Sequence:
#
# PCOD9433968 Si02
#       7
#     8   8   8   8   8   8   8
#     4  12  25  43  74 107 140 186 237 302 359 422
#     4  11  24  46  70 101 137 191 234 285 367 422
#     4  12  24  46  76 100 143 193 236 299 363 431
#     4  11  24  42  67 109 143 186 233 287 368 427
#     4  11  26  43  68 104 148 187 237 294 353 446
#     4  11  24  46  70  99 142 184 235 289 356 430
#     4  12  26  45  73 107 137 184 244 297 359 431
#
# _framework density 19.753086
#
# number of rings (size 3 to 8) (size 9 to 14) (size 15 to 20)
#    0.000    0.571    5.714    2.143    2.000    3.429 
#    2.571    0.714    3.143    0.000    0.000    0.000 
#    0.000    0.000    0.000    0.000    0.000    0.000 
#
# Total GULP energy -312211.864050 kJ/mol
# GULP energy per Si atom -5575.211858 kJ/mol
# Density = 1.970813 g / cm^3
# Si number density = 19.753086 Si / 1000 Ang^3
#
#
#
# Elastic Constant Matrix: (Units=GPa)
#
#
# Indices 1 2 3 4 5 6 
#
# 1 170.5525 65.8031 45.3772 0.0000 0.0000 0.0000
# 2 65.8031 144.7539 38.9464 0.0000 0.0000 0.0000
# 3 45.3772 38.9464 102.1626 0.0000 0.0000 0.0000
# 4 0.0000 0.0000 0.0000 28.8422 0.0000 0.0000
# 5 0.0000 0.0000 0.0000 0.0000 27.4786 0.0000
# 6 0.0000 0.0000 0.0000 0.0000 0.0000 25.7261
#
#
#
# Elastic Compliance Matrix: (Units=1/GPa)
#
#
# Indices 1 2 3 4 5 6 
#
# 1 0.007559 -0.002822 -0.002282 0.000000 0.000000 0.000000
# 2 -0.002822 0.008752 -0.002083 0.000000 0.000000 0.000000
# 3 -0.002282 -0.002083 0.011596 0.000000 0.000000 0.000000
# 4 0.000000 0.000000 0.000000 0.034671 0.000000 0.000000
# 5 0.000000 0.000000 0.000000 0.000000 0.036392 0.000000
# 6 0.000000 0.000000 0.000000 0.000000 0.000000 0.038871
#
#
# Mechanical properties :
#
#
# Convention : Reuss Voigt Hill
#
# Bulk Modulus (GPa) = 73.89251 79.74695 76.81973
# Shear Modulus (GPa) = 31.90288 34.23220 33.06754
#
# Velocity S-wave (km/s) = 4.02317 4.16745 4.09595
# Velocity P-wave (km/s) = 7.68573 7.97599 7.83221
#
# Compressibility (1/GPa) = 0.01353317
#
# Stress axis : x y z
#
# Youngs Moduli (GPa) = 132.28699 114.26367 86.23904
#
# Poissons Ratio (x) = 0.32251 0.19676
# Poissons Ratio (y) = 0.37338 0.17961
# Poissons Ratio (z) = 0.30183 0.23797
#
# Static dielectric constant tensor:
#      x y z
#    x 1.719080 0.000000 0.000000 
#    y 0.000000 1.698930 0.000000 
#    z 0.000000 0.000000 1.837830 
# 
# From -- ./inp_files/4481.got.cif
#   From: 2010.05.17/outbox.ucp.g08.bks.cvg/sg56_3_cif.got.tgz:4481.got - 2010.06.11 16:37:52.
