data_PCOD9433418
_publ_section_title
;
Structure prediction by ZEFSAII (Michael W. Deem and Ramdas Pophale) SiO2 
 PCOD9433418
Probable space group: P C C N
;
_chemical_formula_sum "Si O2"
_cell_formula_units_Z 56
_cell_length_a 12.998468
_cell_length_b 11.421592
_cell_length_c 14.692898
_cell_angle_alpha 90.000000
_cell_angle_beta 90.000000
_cell_angle_gamma 90.000000
_cell_volume 2181.354627
_symmetry_space_group_name_H-M "P C C N"
_symmetry_group_IT_number 56
_symmetry_cell_setting 'orthorhombic'
loop_
_space_group_symop_operation_xyz
x,y,z
1/2-x,1/2-y,z
1/2+x,-y,1/2-z
-x,1/2+y,1/2-z
-x,-y,-z
1/2+x,1/2+y,-z
1/2-x,y,1/2+z
x,1/2-y,1/2+z
loop_
_atom_site_type_symbol
_atom_site_label
_atom_site_fract_x
_atom_site_fract_y
_atom_site_fract_z
Si Si1 0.876865 0.923732 0.918371
Si Si2 0.818044 0.999985 0.105868
Si Si3 0.145359 0.374854 0.785291
Si Si4 0.412257 0.722450 0.956532
Si Si5 0.433270 0.361071 0.769110
Si Si6 0.142360 0.807167 0.152886
Si Si7 0.504881 0.041825 0.104249
O O1 0.852188 0.862399 0.823387
O O2 0.983391 0.858740 0.951196
O O3 0.859161 0.058620 0.883857
O O4 0.811373 0.927595 0.011732
O O5 0.733314 0.958177 0.176214
O O6 0.922278 0.966810 0.159985
O O7 0.825368 0.135462 0.081040
O O8 0.138295 0.239461 0.811421
O O9 0.048357 0.441151 0.830111
O O10 0.424858 0.843203 0.905112
O O11 0.389609 0.758134 0.060323
O O12 0.547581 0.307126 0.777600
O O13 0.412105 0.406627 0.666933
O O14 0.250000 0.750000 0.184056
O O15 0.500000 0.000000 0.000000
#
# Coordination Sequence:
#
# PCOD9433418 Si02
#       7
#     8   8   8   8   8   8   8
#     4  11  22  49  72 108 152 205 264 329 410 485
#     4  11  25  46  80 108 149 209 271 323 408 514
#     4  12  27  46  74 117 153 212 269 330 419 492
#     4  11  22  48  79 105 157 210 259 341 413 477
#     4  12  24  51  74 110 162 207 260 339 423 490
#     4  11  23  42  78 115 149 202 267 322 408 487
#     4  12  28  46  74 115 158 206 271 346 412 493
#
# _framework density 25.672121000000001
#
# number of rings (size 3 to 8) (size 9 to 14) (size 15 to 20)
#    0.000    0.571    5.714    2.143    4.000    2.286 
#    0.000    1.429    0.000    0.000    0.000    0.000 
#    0.000    0.000    0.000    0.000    0.000    0.000 
#
# Total GULP energy -312390.765006 kJ/mol
# GULP energy per Si atom -5578.406518 kJ/mol
# Density = 2.561369 g / cm^3
# Si number density = 25.672121 Si / 1000 Ang^3
#
#
#
# Elastic Constant Matrix: (Units=GPa)
#
#
# Indices 1 2 3 4 5 6 
#
# 1 87.3342 9.6813 23.5677 0.0000 0.0000 0.0000
# 2 9.6813 99.4651 31.2459 0.0000 0.0000 0.0000
# 3 23.5677 31.2459 172.7192 0.0000 0.0000 0.0000
# 4 0.0000 0.0000 0.0000 10.6653 0.0000 0.0000
# 5 0.0000 0.0000 0.0000 0.0000 24.2248 0.0000
# 6 0.0000 0.0000 0.0000 0.0000 0.0000 29.2974
#
#
#
# Elastic Compliance Matrix: (Units=1/GPa)
#
#
# Indices 1 2 3 4 5 6 
#
# 1 0.011932 -0.000689 -0.001504 0.000000 0.000000 0.000000
# 2 -0.000689 0.010699 -0.001842 0.000000 0.000000 0.000000
# 3 -0.001504 -0.001842 0.006328 0.000000 0.000000 0.000000
# 4 0.000000 0.000000 0.000000 0.093762 0.000000 0.000000
# 5 0.000000 0.000000 0.000000 0.000000 0.041280 0.000000
# 6 0.000000 0.000000 0.000000 0.000000 0.000000 0.034133
#
#
# Mechanical properties :
#
#
# Convention : Reuss Voigt Hill
#
# Bulk Modulus (GPa) = 47.86647 54.27868 51.07258
# Shear Modulus (GPa) = 23.45580 32.50575 27.98077
#
# Velocity S-wave (km/s) = 3.02597 3.56221 3.30499
# Velocity P-wave (km/s) = 5.55828 6.17318 5.87378
#
# Compressibility (1/GPa) = 0.02089145
#
# Stress axis : x y z
#
# Youngs Moduli (GPa) = 83.80550 93.46363 158.02669
#
# Poissons Ratio (x) = 0.06441 0.23760
# Poissons Ratio (y) = 0.05775 0.29101
# Poissons Ratio (z) = 0.12600 0.17212
#
# Static dielectric constant tensor:
#      x y z
#    x 2.264040 0.000000 0.000000 
#    y 0.000000 2.027010 0.000000 
#    z 0.000000 0.000000 2.026170 
# 
# From -- ./inp_files/12293.got.cif
#   From: 2010.05.17/outbox.cif.g08.bks.cpg/sg56_7_cif.got.tgz:12293.got - 2010.06.03 13:42:01.
