data_PCOD9433654
_publ_section_title
;
Structure prediction by ZEFSAII (Michael W. Deem and Ramdas Pophale) SiO2 
 PCOD9433654
Probable space group: P C C N
;
_chemical_formula_sum "Si O2"
_cell_formula_units_Z 40
_cell_length_a 8.809625
_cell_length_b 10.260336
_cell_length_c 18.133758
_cell_angle_alpha 90.000000
_cell_angle_beta 90.000000
_cell_angle_gamma 90.000000
_cell_volume 1639.105173
_symmetry_space_group_name_H-M "P C C N"
_symmetry_group_IT_number 56
_symmetry_cell_setting 'orthorhombic'
loop_
_space_group_symop_operation_xyz
x,y,z
1/2-x,1/2-y,z
1/2+x,-y,1/2-z
-x,1/2+y,1/2-z
-x,-y,-z
1/2+x,1/2+y,-z
1/2-x,y,1/2+z
x,1/2-y,1/2+z
loop_
_atom_site_type_symbol
_atom_site_label
_atom_site_fract_x
_atom_site_fract_y
_atom_site_fract_z
Si Si1 0.923475 0.705592 0.680859
Si Si2 0.134487 0.086488 0.968388
Si Si3 0.173926 0.621052 0.883213
Si Si4 0.359663 0.936035 0.240219
Si Si5 0.812733 0.878678 0.381780
O O1 0.750000 0.750000 0.688713
O O2 0.936983 0.685629 0.591714
O O3 0.937638 0.563959 0.721202
O O4 0.029576 0.818724 0.715294
O O5 0.257053 0.003388 0.922917
O O6 0.225364 0.122950 0.041565
O O7 0.000000 0.000000 0.000000
O O8 0.250000 0.750000 0.916585
O O9 0.239044 0.610107 0.800511
O O10 0.994026 0.629229 0.889250
O O11 0.282968 0.993935 0.166831
O O12 0.750000 0.750000 0.342027
#
# Coordination Sequence:
#
# PCOD9433654 Si02
#       5
#     8   8   8   8   8
#     4  11  25  49  77 114 159 206 261 332 407 483
#     4  11  26  46  72 111 156 205 258 317 394 481
#     4  11  25  45  72 107 147 194 255 321 389 467
#     4  11  25  46  77 113 149 201 266 335 407 482
#     4  12  26  46  72 103 148 202 254 315 387 471
#
# _framework density 24.403559000000001
#
# number of rings (size 3 to 8) (size 9 to 14) (size 15 to 20)
#    0.000    0.800    0.000    6.600    0.000   14.400 
#    0.000    0.000    0.000    0.000    0.000    0.000 
#    0.000    0.000    0.000    0.000    0.000    0.000 
#
# Total GULP energy -223973.332295 kJ/mol
# GULP energy per Si atom -5599.333307 kJ/mol
# Density = 2.434802 g / cm^3
# Si number density = 24.403559 Si / 1000 Ang^3
#
#
#
# Elastic Constant Matrix: (Units=GPa)
#
#
# Indices 1 2 3 4 5 6 
#
# 1 177.4752 62.5561 59.1249 0.0000 0.0000 0.0000
# 2 62.5561 149.2601 62.0904 0.0000 0.0000 0.0000
# 3 59.1249 62.0904 177.2398 0.0000 0.0000 0.0000
# 4 0.0000 0.0000 0.0000 30.6757 0.0000 0.0000
# 5 0.0000 0.0000 0.0000 0.0000 30.9621 0.0000
# 6 0.0000 0.0000 0.0000 0.0000 0.0000 49.9648
#
#
#
# Elastic Compliance Matrix: (Units=1/GPa)
#
#
# Indices 1 2 3 4 5 6 
#
# 1 0.006943 -0.002279 -0.001518 0.000000 0.000000 0.000000
# 2 -0.002279 0.008590 -0.002249 0.000000 0.000000 0.000000
# 3 -0.001518 -0.002249 0.006936 0.000000 0.000000 0.000000
# 4 0.000000 0.000000 0.000000 0.032599 0.000000 0.000000
# 5 0.000000 0.000000 0.000000 0.000000 0.032298 0.000000
# 6 0.000000 0.000000 0.000000 0.000000 0.000000 0.020014
#
#
# Mechanical properties :
#
#
# Convention : Reuss Voigt Hill
#
# Bulk Modulus (GPa) = 96.35287 96.83534 96.59410
# Shear Modulus (GPa) = 40.67283 43.66744 42.17013
#
# Velocity S-wave (km/s) = 4.08692 4.23471 4.16147
# Velocity P-wave (km/s) = 7.86380 7.97980 7.92202
#
# Compressibility (1/GPa) = 0.01037852
#
# Stress axis : x y z
#
# Youngs Moduli (GPa) = 144.02045 116.40977 144.16659
#
# Poissons Ratio (x) = 0.26525 0.21885
# Poissons Ratio (y) = 0.32816 0.32427
# Poissons Ratio (z) = 0.21863 0.26183
#
# Static dielectric constant tensor:
#      x y z
#    x 1.915340 0.000000 0.000000 
#    y 0.000000 2.075990 0.000000 
#    z 0.000000 0.000000 2.016650 
# 
# From -- ./inp_files/14485.got.cif
#   From: 2010.05.17/outbox.cif.g08.bks.cpg/sg56_8_cif.got.tgz:14485.got - 2010.06.03 13:42:01.
