data_PCOD9433672
_publ_section_title
;
Structure prediction by ZEFSAII (Michael W. Deem and Ramdas Pophale) SiO2 
 PCOD9433672
Probable space group: P C C N
;
_chemical_formula_sum "Si O2"
_cell_formula_units_Z 40
_cell_length_a 29.972809
_cell_length_b 4.846809
_cell_length_c 9.074390
_cell_angle_alpha 90.000000
_cell_angle_beta 90.000000
_cell_angle_gamma 90.000000
_cell_volume 1318.259144
_symmetry_space_group_name_H-M "P C C N"
_symmetry_group_IT_number 56
_symmetry_cell_setting 'orthorhombic'
loop_
_space_group_symop_operation_xyz
x,y,z
1/2-x,1/2-y,z
1/2+x,-y,1/2-z
-x,1/2+y,1/2-z
-x,-y,-z
1/2+x,1/2+y,-z
1/2-x,y,1/2+z
x,1/2-y,1/2+z
loop_
_atom_site_type_symbol
_atom_site_label
_atom_site_fract_x
_atom_site_fract_y
_atom_site_fract_z
Si Si1 0.699033 0.187259 0.510278
Si Si2 0.953122 0.306439 0.305718
Si Si3 0.871933 0.483734 0.213356
Si Si4 0.453483 0.167909 0.427198
Si Si5 0.798331 0.626119 0.769002
O O1 0.750000 0.250000 0.562126
O O2 0.658473 0.331636 0.595943
O O3 0.660129 0.819929 0.308177
O O4 0.696752 0.890427 0.591341
O O5 0.953476 0.600710 0.399937
O O6 0.953339 0.130480 0.152277
O O7 0.999979 0.193127 0.373684
O O8 0.912138 0.651257 0.130731
O O9 0.899235 0.278352 0.321182
O O10 0.800901 0.166308 0.351415
O O11 0.750000 0.750000 0.805683
#
# Coordination Sequence:
#
# PCOD9433672 Si02
#       5
#     8   8   8   8   8
#     4  12  28  52  81 114 156 205 265 323 398 475
#     4  11  25  47  74 113 155 206 259 322 393 468
#     4  12  26  48  80 117 150 210 257 334 386 478
#     4  11  25  47  77 111 158 203 262 324 392 465
#     4  12  29  53  81 115 161 208 267 332 397 468
#
# _framework density 30.343049000000001
#
# number of rings (size 3 to 8) (size 9 to 14) (size 15 to 20)
#    0.000    0.400    4.000    3.000    2.800    8.800 
#    0.000    0.000    0.000    0.000    0.000    0.000 
#    0.000    0.000    0.000    0.000    0.000    0.000 
#
# Total GULP energy -222917.080214 kJ/mol
# GULP energy per Si atom -5572.927005 kJ/mol
# Density = 3.027399 g / cm^3
# Si number density = 30.343049 Si / 1000 Ang^3
#
#
#
# Elastic Constant Matrix: (Units=GPa)
#
#
# Indices 1 2 3 4 5 6 
#
# 1 267.6955 36.0570 63.8768 0.0000 0.0000 0.0000
# 2 36.0570 96.7105 31.4196 0.0000 0.0000 0.0000
# 3 63.8768 31.4196 178.2709 0.0000 0.0000 0.0000
# 4 0.0000 0.0000 0.0000 44.0583 0.0000 0.0000
# 5 0.0000 0.0000 0.0000 0.0000 48.4367 0.0000
# 6 0.0000 0.0000 0.0000 0.0000 0.0000 65.8486
#
#
#
# Elastic Compliance Matrix: (Units=1/GPa)
#
#
# Indices 1 2 3 4 5 6 
#
# 1 0.004201 -0.001143 -0.001304 0.000000 0.000000 0.000000
# 2 -0.001143 0.011279 -0.001578 0.000000 0.000000 0.000000
# 3 -0.001304 -0.001578 0.006355 0.000000 0.000000 0.000000
# 4 0.000000 0.000000 0.000000 0.022697 0.000000 0.000000
# 5 0.000000 0.000000 0.000000 0.000000 0.020645 0.000000
# 6 0.000000 0.000000 0.000000 0.000000 0.000000 0.015186
#
#
# Mechanical properties :
#
#
# Convention : Reuss Voigt Hill
#
# Bulk Modulus (GPa) = 72.54396 89.48709 81.01552
# Shear Modulus (GPa) = 53.75890 59.09029 56.42459
#
# Velocity S-wave (km/s) = 4.21373 4.41773 4.31693
# Velocity P-wave (km/s) = 6.90173 7.45504 7.18371
#
# Compressibility (1/GPa) = 0.01378475
#
# Stress axis : x y z
#
# Youngs Moduli (GPa) = 238.06231 88.66078 157.36152
#
# Poissons Ratio (x) = 0.10130 0.20516
# Poissons Ratio (y) = 0.27200 0.24839
# Poissons Ratio (z) = 0.31037 0.13995
#
# Static dielectric constant tensor:
#      x y z
#    x 2.336770 0.000000 0.000000 
#    y 0.000000 2.572600 0.000000 
#    z 0.000000 0.000000 2.594730 
# 
# From -- ./inp_files/9001.got.cif
#   From: 2010.05.17/outbox.cif.g08.bks.cpg/sg56_5_cif.got.tgz:9001.got - 2010.06.03 13:42:01.
