data_PCOD9433175
_publ_section_title
;
Structure prediction by ZEFSAII (Michael W. Deem and Ramdas Pophale) SiO2 
 PCOD9433175
Probable space group: P C C N
;
_chemical_formula_sum "Si O2"
_cell_formula_units_Z 40
_cell_length_a 5.095621
_cell_length_b 15.595837
_cell_length_c 18.059176
_cell_angle_alpha 90.000000
_cell_angle_beta 90.000000
_cell_angle_gamma 90.000000
_cell_volume 1435.171286
_symmetry_space_group_name_H-M "P C C N"
_symmetry_group_IT_number 56
_symmetry_cell_setting 'orthorhombic'
loop_
_space_group_symop_operation_xyz
x,y,z
1/2-x,1/2-y,z
1/2+x,-y,1/2-z
-x,1/2+y,1/2-z
-x,-y,-z
1/2+x,1/2+y,-z
1/2-x,y,1/2+z
x,1/2-y,1/2+z
loop_
_atom_site_type_symbol
_atom_site_label
_atom_site_fract_x
_atom_site_fract_y
_atom_site_fract_z
Si Si1 0.250000 0.750000 0.271602
Si Si2 0.013464 0.850789 0.140104
Si Si3 0.950696 0.327463 0.585970
Si Si4 0.665343 0.491724 0.299204
Si Si5 0.750000 0.750000 0.523656
Si Si6 0.348136 0.505663 0.423324
O O1 0.453277 0.697009 0.219552
O O2 0.073903 0.691407 0.326559
O O3 0.793111 0.920527 0.112584
O O4 0.975699 0.775553 0.081303
O O5 0.267942 0.910139 0.148954
O O6 0.750000 0.250000 0.558842
O O7 0.867140 0.422226 0.565889
O O8 0.218427 0.321815 0.539128
O O9 0.437266 0.481985 0.238280
O O10 0.529054 0.550053 0.359577
O O11 0.500000 0.500000 0.500000
#
# Coordination Sequence:
#
# PCOD9433175 Si02
#       6
#     4   8   8   8   4   8
#     4  10  28  52  78 124 180 246 302 392 476 570
#     4  12  29  52  88 132 185 245 317 386 488 568
#     4  10  26  52  79 127 175 234 306 378 477 558
#     4  12  27  52  86 135 182 239 310 391 466 570
#     4  12  28  52  88 120 180 238 304 382 464 560
#     4  12  27  53  92 134 184 244 321 396 481 576
#
# _framework density 27.871234999999999
#
# number of rings (size 3 to 8) (size 9 to 14) (size 15 to 20)
#    0.600    0.000    2.000    3.600    4.200    5.600 
#    3.600    0.000    0.000    0.000    0.000    0.000 
#    0.000    0.000    0.000    0.000    0.000    0.000 
#
# Total GULP energy -222899.442472 kJ/mol
# GULP energy per Si atom -5572.486062 kJ/mol
# Density = 2.780780 g / cm^3
# Si number density = 27.871235 Si / 1000 Ang^3
#
#
#
# Elastic Constant Matrix: (Units=GPa)
#
#
# Indices 1 2 3 4 5 6 
#
# 1 177.1572 63.7244 83.5581 0.0000 0.0000 0.0000
# 2 63.7244 106.1678 63.6175 0.0000 0.0000 0.0000
# 3 83.5581 63.6175 226.7214 0.0000 0.0000 0.0000
# 4 0.0000 0.0000 0.0000 86.9215 0.0000 0.0000
# 5 0.0000 0.0000 0.0000 0.0000 50.1170 0.0000
# 6 0.0000 0.0000 0.0000 0.0000 0.0000 45.1832
#
#
#
# Elastic Compliance Matrix: (Units=1/GPa)
#
#
# Indices 1 2 3 4 5 6 
#
# 1 0.007813 -0.003563 -0.001880 0.000000 0.000000 0.000000
# 2 -0.003563 0.012948 -0.002320 0.000000 0.000000 0.000000
# 3 -0.001880 -0.002320 0.005754 0.000000 0.000000 0.000000
# 4 0.000000 0.000000 0.000000 0.011505 0.000000 0.000000
# 5 0.000000 0.000000 0.000000 0.000000 0.019953 0.000000
# 6 0.000000 0.000000 0.000000 0.000000 0.000000 0.022132
#
#
# Mechanical properties :
#
#
# Convention : Reuss Voigt Hill
#
# Bulk Modulus (GPa) = 90.99414 103.53850 97.26632
# Shear Modulus (GPa) = 50.35545 56.38745 53.37145
#
# Velocity S-wave (km/s) = 4.25516 4.50281 4.38074
# Velocity P-wave (km/s) = 7.54061 8.01644 7.78216
#
# Compressibility (1/GPa) = 0.01098972
#
# Stress axis : x y z
#
# Youngs Moduli (GPa) = 127.99246 77.23254 173.77990
#
# Poissons Ratio (x) = 0.27520 0.32664
# Poissons Ratio (y) = 0.45606 0.40316
# Poissons Ratio (z) = 0.24058 0.17917
#
# Static dielectric constant tensor:
#      x y z
#    x 3.331980 0.000000 0.000000 
#    y 0.000000 3.240200 0.000000 
#    z 0.000000 0.000000 2.217930 
# 
# From -- ./inp_files/13872.got.cif
#   From: 2010.05.17/outbox.cif.g08.bks.cpg/sg56_7_cif.got.tgz:13872.got - 2010.06.03 13:42:01.
