data_PCOD9433042
_publ_section_title
;
Structure prediction by ZEFSAII (Michael W. Deem and Ramdas Pophale) SiO2 
 PCOD9433042
Probable space group: P C C N
;
_chemical_formula_sum "Si O2"
_cell_formula_units_Z 36
_cell_length_a 8.180750
_cell_length_b 15.230635
_cell_length_c 10.074215
_cell_angle_alpha 90.000000
_cell_angle_beta 90.000000
_cell_angle_gamma 90.000000
_cell_volume 1255.227215
_symmetry_space_group_name_H-M "P C C N"
_symmetry_group_IT_number 56
_symmetry_cell_setting 'orthorhombic'
loop_
_space_group_symop_operation_xyz
x,y,z
1/2-x,1/2-y,z
1/2+x,-y,1/2-z
-x,1/2+y,1/2-z
-x,-y,-z
1/2+x,1/2+y,-z
1/2-x,y,1/2+z
x,1/2-y,1/2+z
loop_
_atom_site_type_symbol
_atom_site_label
_atom_site_fract_x
_atom_site_fract_y
_atom_site_fract_z
Si Si1 0.731541 0.926954 0.690192
Si Si2 0.591939 0.153505 0.350444
Si Si3 0.750000 0.250000 0.653483
Si Si4 0.665438 0.664381 0.936416
Si Si5 0.652229 0.070949 0.011307
O O1 0.044410 0.096097 0.775563
O O2 0.734980 0.016766 0.612193
O O3 0.749234 0.092684 0.875055
O O4 0.772787 0.860103 0.567563
O O5 0.609671 0.244447 0.270963
O O6 0.510264 0.171600 0.494644
O O7 0.670103 0.330486 0.572142
O O8 0.750000 0.750000 0.878661
O O9 0.667099 0.593022 0.820841
O O10 0.500000 0.000000 0.000000
#
# Coordination Sequence:
#
# PCOD9433042 Si02
#       5
#     8   8   4   8   8
#     4  10  26  48  88 125 185 248 318 410 512 595
#     4  10  28  50  84 124 182 246 320 403 502 616
#     4  12  30  52  90 122 184 252 322 402 508 614
#     4  10  24  47  85 133 183 244 322 413 506 611
#     4  12  30  54  86 133 195 253 337 421 516 613
#
# _framework density 28.680067999999999
#
# number of rings (size 3 to 8) (size 9 to 14) (size 15 to 20)
#    1.333    0.000    0.000    2.000    9.333    3.556 
#    0.000    0.000    0.000    0.000    0.000    0.000 
#    0.000    0.000    0.000    0.000    0.000    0.000 
#
# Total GULP energy -200438.533611 kJ/mol
# GULP energy per Si atom -5567.737045 kJ/mol
# Density = 2.861479 g / cm^3
# Si number density = 28.680068 Si / 1000 Ang^3
#
#
#
# Elastic Constant Matrix: (Units=GPa)
#
#
# Indices 1 2 3 4 5 6 
#
# 1 129.8473 62.2726 20.5185 0.0000 0.0000 0.0000
# 2 62.2726 181.7636 49.2500 0.0000 0.0000 0.0000
# 3 20.5185 49.2500 128.8307 0.0000 0.0000 0.0000
# 4 0.0000 0.0000 0.0000 61.9020 0.0000 0.0000
# 5 0.0000 0.0000 0.0000 0.0000 51.5634 0.0000
# 6 0.0000 0.0000 0.0000 0.0000 0.0000 59.3511
#
#
#
# Elastic Compliance Matrix: (Units=1/GPa)
#
#
# Indices 1 2 3 4 5 6 
#
# 1 0.009225 -0.003082 -0.000291 0.000000 0.000000 0.000000
# 2 -0.003082 0.007167 -0.002249 0.000000 0.000000 0.000000
# 3 -0.000291 -0.002249 0.008668 0.000000 0.000000 0.000000
# 4 0.000000 0.000000 0.000000 0.016155 0.000000 0.000000
# 5 0.000000 0.000000 0.000000 0.000000 0.019394 0.000000
# 6 0.000000 0.000000 0.000000 0.000000 0.000000 0.016849
#
#
# Mechanical properties :
#
#
# Convention : Reuss Voigt Hill
#
# Bulk Modulus (GPa) = 72.37644 78.28042 75.32843
# Shear Modulus (GPa) = 53.58672 55.12332 54.35502
#
# Velocity S-wave (km/s) = 4.32722 4.38883 4.35813
# Velocity P-wave (km/s) = 7.08922 7.28258 7.18655
#
# Compressibility (1/GPa) = 0.01381665
#
# Stress axis : x y z
#
# Youngs Moduli (GPa) = 108.39756 139.53196 115.36368
#
# Poissons Ratio (x) = 0.43000 0.03359
# Poissons Ratio (y) = 0.33405 0.25945
# Poissons Ratio (z) = 0.03157 0.31380
#
# Static dielectric constant tensor:
#      x y z
#    x 2.434040 0.000000 0.000000 
#    y 0.000000 2.491600 0.000000 
#    z 0.000000 0.000000 2.412710 
# 
# From -- ./inp_files/17953.got.cif
#   From: 2010.05.17/outbox.cif.g08.bks.cpg/sg56_9_cif.got.tgz:17953.got - 2010.06.03 13:42:01.
