data_PCOD9433904
_publ_section_title
;
Structure prediction by ZEFSAII (Michael W. Deem and Ramdas Pophale) SiO2 
 PCOD9433904
Probable space group: P C C N
;
_chemical_formula_sum "Si O2"
_cell_formula_units_Z 64
_cell_length_a 18.000000
_cell_length_b 21.000000
_cell_length_c 9.000000
_cell_angle_alpha 90.000000
_cell_angle_beta 90.000000
_cell_angle_gamma 90.000000
_cell_volume 3402.000000
_symmetry_space_group_name_H-M "P C C N"
_symmetry_group_IT_number 56
_symmetry_cell_setting 'orthorhombic'
loop_
_space_group_symop_operation_xyz
x,y,z
1/2-x,1/2-y,z
1/2+x,-y,1/2-z
-x,1/2+y,1/2-z
-x,-y,-z
1/2+x,1/2+y,-z
1/2-x,y,1/2+z
x,1/2-y,1/2+z
loop_
_atom_site_type_symbol
_atom_site_label
_atom_site_fract_x
_atom_site_fract_y
_atom_site_fract_z
Si Si1 0.682922 0.799098 0.467469
Si Si2 0.380592 0.829063 0.408570
Si Si3 0.274174 0.016733 0.809741
Si Si4 0.927818 0.271609 0.284902
Si Si5 0.402937 0.201836 0.226005
Si Si6 0.194749 0.401199 0.081923
Si Si7 0.270990 0.816697 0.744387
Si Si8 0.188414 0.565305 0.551048
O O1 0.750000 0.750000 0.004094
O O2 0.632144 0.766647 0.341785
O O3 0.633885 0.808992 0.613224
O O4 0.727739 0.861445 0.418753
O O5 0.421253 0.802241 0.263464
O O6 0.411238 0.785797 0.542779
O O7 0.293376 0.821563 0.366212
O O8 0.381690 0.900620 0.472383
O O9 0.207693 0.048479 0.714124
O O10 0.325405 0.985435 0.682484
O O11 0.311934 0.066868 0.920843
O O12 0.238816 0.965961 0.924048
O O13 0.856888 0.306984 0.207533
O O14 0.008737 0.295403 0.239792
O O15 0.371695 0.146242 0.120485
O O16 0.250000 0.750000 0.664710
O O17 0.269898 0.878292 0.641162
#
# Coordination Sequence:
#
# PCOD9433904 Si02
#       8
#     8   8   8   8   8   8   8   8
#     4  10  20  34  57  87 122 155 195 243 296 351
#     4  10  20  38  54  85 115 154 191 244 298 359
#     4  10  20  35  58  91 116 155 207 256 282 343
#     4  10  22  36  56  87 121 150 186 234 309 368
#     4  11  21  36  58  89 126 156 188 244 304 363
#     4  10  20  36  59  90 119 158 205 244 292 351
#     4   9  19  35  58  83 113 146 189 249 305 351
#     4  10  19  36  56  90 117 143 200 260 296 336
#
# _framework density 18.812463000000001
#
# number of rings (size 3 to 8) (size 9 to 14) (size 15 to 20)
#    0.000    2.000    2.500    1.875    1.750   12.000 
#    0.000    0.000    0.000    6.000    0.000    0.000 
#    0.000    0.000    0.000    0.000    0.000    0.000 
#
# Total GULP energy -356287.489075 kJ/mol
# GULP energy per Si atom -5566.992017 kJ/mol
# Density = 1.876965 g / cm^3
# Si number density = 18.812463 Si / 1000 Ang^3
#
#
#
# Elastic Constant Matrix: (Units=GPa)
#
#
# Indices 1 2 3 4 5 6 
#
# 1 103.8682 19.3823 18.0901 0.0000 0.0000 0.0000
# 2 19.3823 70.3110 24.5028 0.0000 0.0000 0.0000
# 3 18.0901 24.5028 61.6848 0.0000 0.0000 0.0000
# 4 0.0000 0.0000 0.0000 41.7636 0.0000 0.0000
# 5 0.0000 0.0000 0.0000 0.0000 20.1542 0.0000
# 6 0.0000 0.0000 0.0000 0.0000 0.0000 5.7618
#
#
#
# Elastic Compliance Matrix: (Units=1/GPa)
#
#
# Indices 1 2 3 4 5 6 
#
# 1 0.010405 -0.002095 -0.002219 0.000000 0.000000 0.000000
# 2 -0.002095 0.016929 -0.006110 0.000000 0.000000 0.000000
# 3 -0.002219 -0.006110 0.019290 0.000000 0.000000 0.000000
# 4 0.000000 0.000000 0.000000 0.023944 0.000000 0.000000
# 5 0.000000 0.000000 0.000000 0.000000 0.049618 0.000000
# 6 0.000000 0.000000 0.000000 0.000000 0.000000 0.173556
#
#
# Mechanical properties :
#
#
# Convention : Reuss Voigt Hill
#
# Bulk Modulus (GPa) = 38.79773 39.97938 39.38855
# Shear Modulus (GPa) = 15.47111 25.12850 20.29981
#
# Velocity S-wave (km/s) = 2.87084 3.65874 3.28847
# Velocity P-wave (km/s) = 5.62647 6.25669 5.94993
#
# Compressibility (1/GPa) = 0.02577471
#
# Stress axis : x y z
#
# Youngs Moduli (GPa) = 96.10737 59.06868 51.84165
#
# Poissons Ratio (x) = 0.12374 0.11505
# Poissons Ratio (y) = 0.20134 0.31678
# Poissons Ratio (z) = 0.21329 0.36094
#
# Static dielectric constant tensor:
#      x y z
#    x 1.624130 0.000000 0.000000 
#    y 0.000000 1.753090 0.000000 
#    z 0.000000 0.000000 1.703670 
# 
# From -- ./inp_files/4216.got.cif
#   From: 2010.05.17/outbox.ucp.g08.bks.cvg/sg56_3_cif.got.tgz:4216.got - 2010.06.11 16:37:52.
