data_PCOD9433736
_publ_section_title
;
Structure prediction by ZEFSAII (Michael W. Deem and Ramdas Pophale) SiO2 
 PCOD9433736
Probable space group: P C C N
;
_chemical_formula_sum "Si O2"
_cell_formula_units_Z 32
_cell_length_a 8.666838
_cell_length_b 16.403584
_cell_length_c 9.455609
_cell_angle_alpha 90.000000
_cell_angle_beta 90.000000
_cell_angle_gamma 90.000000
_cell_volume 1344.277504
_symmetry_space_group_name_H-M "P C C N"
_symmetry_group_IT_number 56
_symmetry_cell_setting 'orthorhombic'
loop_
_space_group_symop_operation_xyz
x,y,z
1/2-x,1/2-y,z
1/2+x,-y,1/2-z
-x,1/2+y,1/2-z
-x,-y,-z
1/2+x,1/2+y,-z
1/2-x,y,1/2+z
x,1/2-y,1/2+z
loop_
_atom_site_type_symbol
_atom_site_label
_atom_site_fract_x
_atom_site_fract_y
_atom_site_fract_z
Si Si1 0.929175 0.934579 0.194258
Si Si2 0.752239 0.012399 0.939243
Si Si3 0.571369 0.742124 0.296661
Si Si4 0.386879 0.688511 0.570350
O O1 0.941976 0.837448 0.197293
O O2 0.092985 0.972606 0.152593
O O3 0.869197 0.962369 0.346854
O O4 0.807280 0.965429 0.078097
O O5 0.682380 0.101213 0.969060
O O6 0.750000 0.750000 0.334304
O O7 0.471661 0.725948 0.435038
O O8 0.502819 0.815745 0.203796
O O9 0.250000 0.750000 0.613365
#
# Coordination Sequence:
#
# PCOD9433736 Si02
#       4
#     8   8   8   8
#     4  11  27  48  73 111 145 195 246 308 366 445
#     4  11  27  47  77 105 149 194 250 302 375 439
#     4  12  29  46  75 111 151 188 246 308 371 436
#     4  12  27  50  76 107 148 203 244 302 373 456
#
# _framework density 23.80461
#
# number of rings (size 3 to 8) (size 9 to 14) (size 15 to 20)
#    0.000    0.500    2.500    3.000   14.000    2.000 
#    0.000    0.000    0.000    0.000    0.000    0.000 
#    0.000    0.000    0.000    0.000    0.000    0.000 
#
# Total GULP energy -179582.605331 kJ/mol
# GULP energy per Si atom -5611.956417 kJ/mol
# Density = 2.375043 g / cm^3
# Si number density = 23.804610 Si / 1000 Ang^3
#
#
#
# Elastic Constant Matrix: (Units=GPa)
#
#
# Indices 1 2 3 4 5 6 
#
# 1 106.7455 7.8872 46.9651 0.0000 0.0000 0.0000
# 2 7.8872 55.3666 4.2657 0.0000 0.0000 0.0000
# 3 46.9651 4.2657 90.9425 0.0000 0.0000 0.0000
# 4 0.0000 0.0000 0.0000 26.2059 0.0000 0.0000
# 5 0.0000 0.0000 0.0000 0.0000 40.9086 0.0000
# 6 0.0000 0.0000 0.0000 0.0000 0.0000 42.8393
#
#
#
# Elastic Compliance Matrix: (Units=1/GPa)
#
#
# Indices 1 2 3 4 5 6 
#
# 1 0.012209 -0.001258 -0.006246 0.000000 0.000000 0.000000
# 2 -0.001258 0.018257 -0.000207 0.000000 0.000000 0.000000
# 3 -0.006246 -0.000207 0.014231 0.000000 0.000000 0.000000
# 4 0.000000 0.000000 0.000000 0.038159 0.000000 0.000000
# 5 0.000000 0.000000 0.000000 0.000000 0.024445 0.000000
# 6 0.000000 0.000000 0.000000 0.000000 0.000000 0.023343
#
#
# Mechanical properties :
#
#
# Convention : Reuss Voigt Hill
#
# Bulk Modulus (GPa) = 34.15833 41.25450 37.70642
# Shear Modulus (GPa) = 32.08745 34.91988 33.50367
#
# Velocity S-wave (km/s) = 3.67543 3.83422 3.75566
# Velocity P-wave (km/s) = 5.69142 6.08027 5.88906
#
# Compressibility (1/GPa) = 0.02927543
#
# Stress axis : x y z
#
# Youngs Moduli (GPa) = 81.90585 54.77486 70.26767
#
# Poissons Ratio (x) = 0.06891 0.43890
# Poissons Ratio (y) = 0.10304 0.01452
# Poissons Ratio (z) = 0.51159 0.01132
#
# Static dielectric constant tensor:
#      x y z
#    x 1.888200 0.000000 0.000000 
#    y 0.000000 1.881580 0.000000 
#    z 0.000000 0.000000 1.852640 
# 
# From -- ./inp_files/1939.got.cif
#   From: 2010.05.17/outbox.cif.g08.bks.cpg/sg56_1_cif.got.tgz:1939.got - 2010.06.03 13:42:01.
