data_PCOD9433918
_publ_section_title
;
Structure prediction by ZEFSAII (Michael W. Deem and Ramdas Pophale) SiO2 
 PCOD9433918
Probable space group: P C C N
;
_chemical_formula_sum "Si O2"
_cell_formula_units_Z 56
_cell_length_a 12.000000
_cell_length_b 15.000000
_cell_length_c 15.000000
_cell_angle_alpha 90.000000
_cell_angle_beta 90.000000
_cell_angle_gamma 90.000000
_cell_volume 2700.000000
_symmetry_space_group_name_H-M "P C C N"
_symmetry_group_IT_number 56
_symmetry_cell_setting 'orthorhombic'
loop_
_space_group_symop_operation_xyz
x,y,z
1/2-x,1/2-y,z
1/2+x,-y,1/2-z
-x,1/2+y,1/2-z
-x,-y,-z
1/2+x,1/2+y,-z
1/2-x,y,1/2+z
x,1/2-y,1/2+z
loop_
_atom_site_type_symbol
_atom_site_label
_atom_site_fract_x
_atom_site_fract_y
_atom_site_fract_z
Si Si1 0.750000 0.750000 0.925853
Si Si2 0.595355 0.107318 0.128543
Si Si3 0.958127 0.282987 0.802942
Si Si4 0.860546 0.890485 0.805784
Si Si5 0.250000 0.750000 0.785542
Si Si6 0.510919 0.069179 0.318144
Si Si7 0.422251 0.345791 0.478106
Si Si8 0.242351 0.048035 0.875490
O O1 0.772928 0.836509 0.865598
O O2 0.864097 0.741356 0.981241
O O3 0.654778 0.199340 0.158492
O O4 0.524538 0.064628 0.210210
O O5 0.508018 0.114367 0.049070
O O6 0.705338 0.049097 0.111388
O O7 0.831157 0.308803 0.777371
O O8 0.041853 0.320484 0.725637
O O9 0.960123 0.175860 0.826726
O O10 0.006079 0.329529 0.890376
O O11 0.792713 0.916222 0.717301
O O12 0.912090 0.983262 0.845252
O O13 0.390170 0.054968 0.363205
O O14 0.309560 0.398294 0.451127
#
# Coordination Sequence:
#
# PCOD9433918 Si02
#       8
#     4   8   8   8   4   8   8   8
#     4  12  22  38  60  84 118 158 196 248 298 354
#     4  10  21  37  60  88 117 152 204 251 298 366
#     4  10  21  39  60  87 122 158 201 249 304 367
#     4  10  21  37  62  87 115 160 209 247 297 365
#     4  10  20  38  60  82 112 156 198 246 296 350
#     4  10  20  38  62  89 116 157 211 251 292 366
#     4  11  23  37  57  87 120 157 197 247 310 363
#     4  10  20  37  58  83 118 155 193 252 308 352
#
# _framework density 20.740741
#
# number of rings (size 3 to 8) (size 9 to 14) (size 15 to 20)
#    0.000    1.714    0.000    5.571    0.000    2.857 
#    0.000   10.000    0.000    0.000    0.000    0.000 
#    0.000    0.000    0.000    0.000    0.000    0.000 
#
# Total GULP energy -311753.420166 kJ/mol
# GULP energy per Si atom -5567.025360 kJ/mol
# Density = 2.069353 g / cm^3
# Si number density = 20.740741 Si / 1000 Ang^3
#
#
#
# Elastic Constant Matrix: (Units=GPa)
#
#
# Indices 1 2 3 4 5 6 
#
# 1 96.2538 3.1783 22.9464 0.0000 0.0000 0.0000
# 2 3.1783 66.2311 3.4909 0.0000 0.0000 0.0000
# 3 22.9464 3.4909 62.4834 0.0000 0.0000 0.0000
# 4 0.0000 0.0000 0.0000 -2.1390 0.0000 0.0000
# 5 0.0000 0.0000 0.0000 0.0000 29.7405 0.0000
# 6 0.0000 0.0000 0.0000 0.0000 0.0000 41.4729
#
#
#
# Elastic Compliance Matrix: (Units=1/GPa)
#
#
# Indices 1 2 3 4 5 6 
#
# 1 0.011393 -0.000327 -0.004166 0.000000 0.000000 0.000000
# 2 -0.000327 0.015153 -0.000726 0.000000 0.000000 0.000000
# 3 -0.004166 -0.000726 0.017575 0.000000 0.000000 0.000000
# 4 0.000000 0.000000 0.000000 -0.467506 0.000000 0.000000
# 5 0.000000 0.000000 0.000000 0.000000 0.033624 0.000000
# 6 0.000000 0.000000 0.000000 0.000000 0.000000 0.024112
#
#
# Mechanical properties :
#
#
# Convention : Reuss Voigt Hill
#
# Bulk Modulus (GPa) = 29.68965 31.57772 30.63369
# Shear Modulus (GPa) = -14.53558 26.83839 6.15141
#
# Velocity S-wave (km/s) = -2.65018 3.60112 1.72403
# Velocity P-wave (km/s) = 2.23185 5.70515 4.33185
#
# Compressibility (1/GPa) = 0.03368177
#
# Stress axis : x y z
#
# Youngs Moduli (GPa) = 87.77253 65.99516 56.90012
#
# Poissons Ratio (x) = 0.02159 0.23703
# Poissons Ratio (y) = 0.02872 0.04133
# Poissons Ratio (z) = 0.36564 0.04794
#
# Static dielectric constant tensor:
#      x y z
#    x 1.710330 0.000000 0.000000 
#    y 0.000000 1.900050 0.000000 
#    z 0.000000 0.000000 1.824770 
# 
# From -- ./inp_files/11715.got.cif
#   From: 2010.05.17/outbox.ucp.g08.bks.cvg/sg56_6_cif.got.tgz:11715.got - 2010.06.11 16:37:52.
