data_PCOD9433024
_publ_section_title
;
Structure prediction by ZEFSAII (Michael W. Deem and Ramdas Pophale) SiO2 
 PCOD9433024
Probable space group: P C C N
;
_chemical_formula_sum "Si O2"
_cell_formula_units_Z 32
_cell_length_a 9.777729
_cell_length_b 13.912710
_cell_length_c 9.656047
_cell_angle_alpha 90.000000
_cell_angle_beta 90.000000
_cell_angle_gamma 90.000000
_cell_volume 1313.557534
_symmetry_space_group_name_H-M "P C C N"
_symmetry_group_IT_number 56
_symmetry_cell_setting 'orthorhombic'
loop_
_space_group_symop_operation_xyz
x,y,z
1/2-x,1/2-y,z
1/2+x,-y,1/2-z
-x,1/2+y,1/2-z
-x,-y,-z
1/2+x,1/2+y,-z
1/2-x,y,1/2+z
x,1/2-y,1/2+z
loop_
_atom_site_type_symbol
_atom_site_label
_atom_site_fract_x
_atom_site_fract_y
_atom_site_fract_z
Si Si1 0.858318 0.498149 0.790649
Si Si2 0.556177 0.888313 0.050849
Si Si3 0.659890 0.158999 0.162864
Si Si4 0.875768 0.700208 0.693744
O O1 0.008030 0.445811 0.810569
O O2 0.749251 0.418390 0.746737
O O3 0.847552 0.586136 0.679613
O O4 0.852400 0.558624 0.935058
O O5 0.609355 0.781826 0.076896
O O6 0.407927 0.879782 0.976750
O O7 0.750000 0.250000 0.128616
O O8 0.527441 0.196396 0.244462
O O9 0.750000 0.750000 0.776369
#
# Coordination Sequence:
#
# PCOD9433024 Si02
#       4
#     8   8   8   8
#     4  10  24  46  76 102 152 194 255 313 380 449
#     4  10  24  47  73 110 152 199 250 318 383 455
#     4  11  24  45  76 111 149 198 259 312 379 460
#     4  11  26  46  74 108 155 196 252 318 387 452
#
# _framework density 24.361324
#
# number of rings (size 3 to 8) (size 9 to 14) (size 15 to 20)
#    0.000    1.500    2.500    0.000   14.000    4.000 
#    0.000    2.500    0.000    0.000    0.000    0.000 
#    0.000    0.000    0.000    0.000    0.000    0.000 
#
# Total GULP energy -178189.791300 kJ/mol
# GULP energy per Si atom -5568.430978 kJ/mol
# Density = 2.430588 g / cm^3
# Si number density = 24.361324 Si / 1000 Ang^3
#
#
#
# Elastic Constant Matrix: (Units=GPa)
#
#
# Indices 1 2 3 4 5 6 
#
# 1 61.0965 44.6996 20.7304 0.0000 0.0000 0.0000
# 2 44.6996 173.8148 67.1193 0.0000 0.0000 0.0000
# 3 20.7304 67.1193 58.6226 0.0000 0.0000 0.0000
# 4 0.0000 0.0000 0.0000 43.4465 0.0000 0.0000
# 5 0.0000 0.0000 0.0000 0.0000 30.8548 0.0000
# 6 0.0000 0.0000 0.0000 0.0000 0.0000 59.6945
#
#
#
# Elastic Compliance Matrix: (Units=1/GPa)
#
#
# Indices 1 2 3 4 5 6 
#
# 1 0.020312 -0.004391 -0.002155 0.000000 0.000000 0.000000
# 2 -0.004391 0.011262 -0.011342 0.000000 0.000000 0.000000
# 3 -0.002155 -0.011342 0.030806 0.000000 0.000000 0.000000
# 4 0.000000 0.000000 0.000000 0.023017 0.000000 0.000000
# 5 0.000000 0.000000 0.000000 0.000000 0.032410 0.000000
# 6 0.000000 0.000000 0.000000 0.000000 0.000000 0.016752
#
#
# Mechanical properties :
#
#
# Convention : Reuss Voigt Hill
#
# Bulk Modulus (GPa) = 37.58854 62.07027 49.82941
# Shear Modulus (GPa) = 27.90152 37.53146 32.71649
#
# Velocity S-wave (km/s) = 3.38793 3.92933 3.66863
# Velocity P-wave (km/s) = 5.54682 6.79121 6.20031
#
# Compressibility (1/GPa) = 0.02660385
#
# Stress axis : x y z
#
# Youngs Moduli (GPa) = 49.23313 88.79262 32.46149
#
# Poissons Ratio (x) = 0.38992 0.06995
# Poissons Ratio (y) = 0.21620 0.36817
# Poissons Ratio (z) = 0.10609 1.00705
#
# Static dielectric constant tensor:
#      x y z
#    x 1.996510 0.000000 0.000000 
#    y 0.000000 2.088400 0.000000 
#    z 0.000000 0.000000 2.039930 
# 
# From -- ./inp_files/5942.got.cif
#   From: 2010.05.17/outbox.cif.g08.bks.cpg/sg56_3_cif.got.tgz:5942.got - 2010.06.03 13:42:01.
