data_PCOD9433772
_publ_section_title
;
Structure prediction by ZEFSAII (Michael W. Deem and Ramdas Pophale) SiO2 
 PCOD9433772
Probable space group: P C C N
;
_chemical_formula_sum "Si O2"
_cell_formula_units_Z 32
_cell_length_a 10.892527
_cell_length_b 9.293099
_cell_length_c 13.858099
_cell_angle_alpha 90.000000
_cell_angle_beta 90.000000
_cell_angle_gamma 90.000000
_cell_volume 1402.790669
_symmetry_space_group_name_H-M "P C C N"
_symmetry_group_IT_number 56
_symmetry_cell_setting 'orthorhombic'
loop_
_space_group_symop_operation_xyz
x,y,z
1/2-x,1/2-y,z
1/2+x,-y,1/2-z
-x,1/2+y,1/2-z
-x,-y,-z
1/2+x,1/2+y,-z
1/2-x,y,1/2+z
x,1/2-y,1/2+z
loop_
_atom_site_type_symbol
_atom_site_label
_atom_site_fract_x
_atom_site_fract_y
_atom_site_fract_z
Si Si1 0.750000 0.250000 0.492324
Si Si2 0.209808 0.052962 0.592382
Si Si3 0.750000 0.750000 0.568507
Si Si4 0.538129 0.289576 0.640170
Si Si5 0.117045 0.086055 0.268455
O O1 0.712925 0.385119 0.427480
O O2 0.633940 0.229054 0.563074
O O3 0.287213 0.123283 0.504808
O O4 0.268846 0.086826 0.695005
O O5 0.077967 0.130113 0.590162
O O6 0.851436 0.818476 0.638269
O O7 0.595087 0.422285 0.700349
O O8 0.491863 0.162612 0.709792
#
# Coordination Sequence:
#
# PCOD9433772 Si02
#       5
#     4   8   4   8   8
#     4  12  30  44  78 112 150 198 258 308 374 462
#     4  12  27  52  75 109 152 198 252 314 378 447
#     4  12  22  52  76 102 146 194 250 308 378 444
#     4  12  28  49  74 114 148 202 251 312 374 451
#     4  12  28  47  79 106 152 198 250 312 384 446
#
# _framework density 22.811669999999999
#
# number of rings (size 3 to 8) (size 9 to 14) (size 15 to 20)
#    0.000    0.000    7.500    0.750   10.500    1.000 
#    0.000    0.000    0.000    0.000    0.000    0.000 
#    0.000    0.000    0.000    0.000    0.000    0.000 
#
# Total GULP energy -179094.250444 kJ/mol
# GULP energy per Si atom -5596.695326 kJ/mol
# Density = 2.275975 g / cm^3
# Si number density = 22.811670 Si / 1000 Ang^3
#
#
#
# Elastic Constant Matrix: (Units=GPa)
#
#
# Indices 1 2 3 4 5 6 
#
# 1 76.6632 -11.2407 20.2517 0.0000 0.0000 0.0000
# 2 -11.2407 34.7700 2.7790 0.0000 0.0000 0.0000
# 3 20.2517 2.7790 100.0181 0.0000 0.0000 0.0000
# 4 0.0000 0.0000 0.0000 -27.8707 0.0000 0.0000
# 5 0.0000 0.0000 0.0000 0.0000 17.3440 0.0000
# 6 0.0000 0.0000 0.0000 0.0000 0.0000 32.9078
#
#
#
# Elastic Compliance Matrix: (Units=1/GPa)
#
#
# Indices 1 2 3 4 5 6 
#
# 1 0.014589 0.004963 -0.003092 0.000000 0.000000 0.000000
# 2 0.004963 0.030513 -0.001853 0.000000 0.000000 0.000000
# 3 -0.003092 -0.001853 0.010676 0.000000 0.000000 0.000000
# 4 0.000000 0.000000 0.000000 -0.035880 0.000000 0.000000
# 5 0.000000 0.000000 0.000000 0.000000 0.057657 0.000000
# 6 0.000000 0.000000 0.000000 0.000000 0.000000 0.030388
#
#
# Mechanical properties :
#
#
# Convention : Reuss Voigt Hill
#
# Bulk Modulus (GPa) = 17.91634 26.11459 22.01547
# Shear Modulus (GPa) = 39.52271 17.78698 28.65484
#
# Velocity S-wave (km/s) = 4.16693 2.79540 3.54806
# Velocity P-wave (km/s) = 5.56975 4.67886 5.14363
#
# Compressibility (1/GPa) = 0.05581496
#
# Stress axis : x y z
#
# Youngs Moduli (GPa) = 68.54688 32.77282 93.67070
#
# Poissons Ratio (x) = -0.16266 0.28961
# Poissons Ratio (y) = -0.34022 0.17355
# Poissons Ratio (z) = 0.21193 0.06072
#
# Static dielectric constant tensor:
#      x y z
#    x 1.904690 0.000000 0.000000 
#    y 0.000000 2.147680 0.000000 
#    z 0.000000 0.000000 1.835470 
# 
# From -- ./inp_files/10124.got.cif
#   From: 2010.05.17/outbox.cif.g08.bks.cpg/sg56_6_cif.got.tgz:10124.got - 2010.06.03 13:42:01.
