data_PCOD9433890
_publ_section_title
;
Structure prediction by ZEFSAII (Michael W. Deem and Ramdas Pophale) SiO2 
 PCOD9433890
Probable space group: P C C N
;
_chemical_formula_sum "Si O2"
_cell_formula_units_Z 48
_cell_length_a 32.892879
_cell_length_b 6.480283
_cell_length_c 7.823489
_cell_angle_alpha 90.000000
_cell_angle_beta 90.000000
_cell_angle_gamma 90.000000
_cell_volume 1667.617086
_symmetry_space_group_name_H-M "P C C N"
_symmetry_group_IT_number 56
_symmetry_cell_setting 'orthorhombic'
loop_
_space_group_symop_operation_xyz
x,y,z
1/2-x,1/2-y,z
1/2+x,-y,1/2-z
-x,1/2+y,1/2-z
-x,-y,-z
1/2+x,1/2+y,-z
1/2-x,y,1/2+z
x,1/2-y,1/2+z
loop_
_atom_site_type_symbol
_atom_site_label
_atom_site_fract_x
_atom_site_fract_y
_atom_site_fract_z
Si Si1 0.217113 0.512473 0.019312
Si Si2 0.962700 0.800395 0.355306
Si Si3 0.616659 0.587308 0.208018
Si Si4 0.551394 0.086250 0.189468
Si Si5 0.197378 0.038157 0.914257
Si Si6 0.135411 0.549414 0.904787
O O1 0.207429 0.278850 0.954228
O O2 0.264952 0.562620 0.012262
O O3 0.182136 0.624815 0.904571
O O4 0.206928 0.504126 0.217490
O O5 0.948432 0.562818 0.353613
O O6 0.956543 0.935280 0.525355
O O7 0.932095 0.906276 0.219606
O O8 0.009875 0.787646 0.302777
O O9 0.648780 0.505055 0.066268
O O10 0.628022 0.503287 0.396029
O O11 0.628970 0.832676 0.194869
O O12 0.596241 0.179313 0.160736
#
# Coordination Sequence:
#
# PCOD9433890 Si02
#       6
#     8   8   8   8   8   8
#     4   9  14  19  28  43  65  92 121 150 182 222
#     4   9  17  29  44  61  82 108 137 168 202 240
#     4   8  14  23  34  49  70  97 126 155 189 229
#     4   9  17  29  44  61  82 108 137 168 202 240
#     4   9  14  19  28  43  65  92 121 150 182 222
#     4   8  14  23  34  49  70  97 126 155 189 229
#
# _framework density 28.783584000000001
#
# number of rings (size 3 to 8) (size 9 to 14) (size 15 to 20)
#    0.000    3.333    0.000    2.000    0.000    2.000 
#    0.000    0.000    0.000    0.000    0.000    0.000 
#    0.000    1.333    0.000   16.667    0.000    5.000 
#
# Total GULP energy -268010.264333 kJ/mol
# GULP energy per Si atom -5583.547174 kJ/mol
# Density = 2.871807 g / cm^3
# Si number density = 28.783584 Si / 1000 Ang^3
#
#
#
# Elastic Constant Matrix: (Units=GPa)
#
#
# Indices 1 2 3 4 5 6 
#
# 1 200.3091 19.0958 29.8490 0.0000 0.0000 0.0000
# 2 19.0958 47.7225 18.7715 0.0000 0.0000 0.0000
# 3 29.8490 18.7715 116.9921 0.0000 0.0000 0.0000
# 4 0.0000 0.0000 0.0000 -125.5108 0.0000 0.0000
# 5 0.0000 0.0000 0.0000 0.0000 52.6270 0.0000
# 6 0.0000 0.0000 0.0000 0.0000 0.0000 63.9521
#
#
#
# Elastic Compliance Matrix: (Units=1/GPa)
#
#
# Indices 1 2 3 4 5 6 
#
# 1 0.005316 -0.001701 -0.001083 0.000000 0.000000 0.000000
# 2 -0.001701 0.022910 -0.003242 0.000000 0.000000 0.000000
# 3 -0.001083 -0.003242 0.009344 0.000000 0.000000 0.000000
# 4 0.000000 0.000000 0.000000 -0.007967 0.000000 0.000000
# 5 0.000000 0.000000 0.000000 0.000000 0.019002 0.000000
# 6 0.000000 0.000000 0.000000 0.000000 0.000000 0.015637
#
#
# Mechanical properties :
#
#
# Convention : Reuss Voigt Hill
#
# Bulk Modulus (GPa) = 39.18846 55.60625 47.39736
# Shear Modulus (GPa) = 58.96234 18.03414 38.49824
#
# Velocity S-wave (km/s) = 4.53091 2.50580 3.66116
# Velocity P-wave (km/s) = 6.40443 5.26619 5.86299
#
# Compressibility (1/GPa) = 0.02551772
#
# Stress axis : x y z
#
# Youngs Moduli (GPa) = 188.11574 43.64842 107.01856
#
# Poissons Ratio (x) = 0.07424 0.11594
# Poissons Ratio (y) = 0.31998 0.34695
# Poissons Ratio (z) = 0.20380 0.14151
#
# Static dielectric constant tensor:
#      x y z
#    x 1.991000 0.000000 0.000000 
#    y 0.000000 3.193440 0.000000 
#    z 0.000000 0.000000 2.094520 
# 
# From -- ./inp_files/5157.got.cif
#   From: 2010.05.17/outbox.cif.g08.bks.cpg/sg56_3_cif.got.tgz:5157.got - 2010.06.03 13:42:01.
