data_PCOD9433219
_publ_section_title
;
Structure prediction by ZEFSAII (Michael W. Deem and Ramdas Pophale) SiO2 
 PCOD9433219
Probable space group: P C C N
;
_chemical_formula_sum "Si O2"
_cell_formula_units_Z 64
_cell_length_a 14.733107
_cell_length_b 9.572872
_cell_length_c 23.514020
_cell_angle_alpha 90.000000
_cell_angle_beta 90.000000
_cell_angle_gamma 90.000000
_cell_volume 3316.373820
_symmetry_space_group_name_H-M "P C C N"
_symmetry_group_IT_number 56
_symmetry_cell_setting 'orthorhombic'
loop_
_space_group_symop_operation_xyz
x,y,z
1/2-x,1/2-y,z
1/2+x,-y,1/2-z
-x,1/2+y,1/2-z
-x,-y,-z
1/2+x,1/2+y,-z
1/2-x,y,1/2+z
x,1/2-y,1/2+z
loop_
_atom_site_type_symbol
_atom_site_label
_atom_site_fract_x
_atom_site_fract_y
_atom_site_fract_z
Si Si1 0.994491 0.209820 0.051824
Si Si2 0.844742 0.320149 0.453153
Si Si3 0.048183 0.730199 0.155793
Si Si4 0.756810 0.908871 0.585913
Si Si5 0.859149 0.237160 0.223889
Si Si6 0.061847 0.953701 0.367396
Si Si7 0.924407 0.498098 0.644152
Si Si8 0.692560 0.629332 0.960403
O O1 0.983439 0.357059 0.083959
O O2 0.985137 0.094660 0.101595
O O3 0.093480 0.190843 0.024728
O O4 0.916322 0.183626 0.005208
O O5 0.750000 0.250000 0.470531
O O6 0.891017 0.242581 0.400585
O O7 0.823493 0.478550 0.433465
O O8 0.108968 0.751340 0.211493
O O9 0.000600 0.579320 0.154351
O O10 0.973241 0.854444 0.154150
O O11 0.750000 0.750000 0.606837
O O12 0.848956 0.978876 0.604923
O O13 0.746479 0.904080 0.518174
O O14 0.670428 0.985921 0.611396
O O15 0.750000 0.250000 0.218556
O O16 0.905128 0.354397 0.183842
O O17 0.898743 0.090872 0.199730
O O18 0.750000 0.750000 0.929087
#
# Coordination Sequence:
#
# PCOD9433219 Si02
#       8
#     8   8   8   8   8   8   8   8
#     4  11  24  42  64  98 130 176 216 269 333 386
#     4  12  25  41  64  95 137 178 216 267 329 407
#     4  12  25  43  65  94 133 174 218 266 341 396
#     4  11  20  37  65 100 125 162 214 277 317 374
#     4  11  24  44  67  94 126 169 221 282 334 390
#     4  11  25  41  69  98 128 165 231 278 323 394
#     4  11  21  41  70  88 128 168 219 270 324 393
#     4  11  24  40  64  95 137 174 216 264 327 394
#
# _framework density 19.298186000000001
#
# number of rings (size 3 to 8) (size 9 to 14) (size 15 to 20)
#    0.000    0.750    5.000    3.000    3.500    0.500 
#    0.000    0.000    0.000    0.750    0.000    0.000 
#    0.000    0.000    0.000    0.000    0.000    0.000 
#
# Total GULP energy -357642.046103 kJ/mol
# GULP energy per Si atom -5588.156970 kJ/mol
# Density = 1.925426 g / cm^3
# Si number density = 19.298186 Si / 1000 Ang^3
#
#
#
# Elastic Constant Matrix: (Units=GPa)
#
#
# Indices 1 2 3 4 5 6 
#
# 1 90.7881 32.0880 5.9366 0.0000 0.0000 0.0000
# 2 32.0880 109.8817 10.1318 0.0000 0.0000 0.0000
# 3 5.9366 10.1318 65.2668 0.0000 0.0000 0.0000
# 4 0.0000 0.0000 0.0000 11.3303 0.0000 0.0000
# 5 0.0000 0.0000 0.0000 0.0000 12.6589 0.0000
# 6 0.0000 0.0000 0.0000 0.0000 0.0000 31.2808
#
#
#
# Elastic Compliance Matrix: (Units=1/GPa)
#
#
# Indices 1 2 3 4 5 6 
#
# 1 0.012303 -0.003540 -0.000569 0.000000 0.000000 0.000000
# 2 -0.003540 0.010252 -0.001269 0.000000 0.000000 0.000000
# 3 -0.000569 -0.001269 0.015571 0.000000 0.000000 0.000000
# 4 0.000000 0.000000 0.000000 0.088259 0.000000 0.000000
# 5 0.000000 0.000000 0.000000 0.000000 0.078996 0.000000
# 6 0.000000 0.000000 0.000000 0.000000 0.000000 0.031968
#
#
# Mechanical properties :
#
#
# Convention : Reuss Voigt Hill
#
# Bulk Modulus (GPa) = 36.54042 40.24993 38.39517
# Shear Modulus (GPa) = 19.43790 25.57269 22.50529
#
# Velocity S-wave (km/s) = 3.17715 3.64419 3.41865
# Velocity P-wave (km/s) = 5.69515 6.21361 5.96002
#
# Compressibility (1/GPa) = 0.02736695
#
# Stress axis : x y z
#
# Youngs Moduli (GPa) = 81.27981 97.54584 64.22370
#
# Poissons Ratio (x) = 0.34534 0.03658
# Poissons Ratio (y) = 0.28776 0.08153
# Poissons Ratio (z) = 0.04629 0.12382
#
# Static dielectric constant tensor:
#      x y z
#    x 1.666370 0.000000 0.000000 
#    y 0.000000 1.735940 0.000000 
#    z 0.000000 0.000000 1.648120 
# 
# From -- ./inp_files/21172.got.cif
#   From: 2010.05.17/outbox.cif.g08.bks.cpg/sg56_11_cif.got.tgz:21172.got - 2010.06.03 13:42:01.
