data_PCOD9433958
_publ_section_title
;
Structure prediction by ZEFSAII (Michael W. Deem and Ramdas Pophale) SiO2 
 PCOD9433958
Probable space group: P C C N
;
_chemical_formula_sum "Si O2"
_cell_formula_units_Z 64
_cell_length_a 18.000000
_cell_length_b 15.000000
_cell_length_c 12.000000
_cell_angle_alpha 90.000000
_cell_angle_beta 90.000000
_cell_angle_gamma 90.000000
_cell_volume 3240.000000
_symmetry_space_group_name_H-M "P C C N"
_symmetry_group_IT_number 56
_symmetry_cell_setting 'orthorhombic'
loop_
_space_group_symop_operation_xyz
x,y,z
1/2-x,1/2-y,z
1/2+x,-y,1/2-z
-x,1/2+y,1/2-z
-x,-y,-z
1/2+x,1/2+y,-z
1/2-x,y,1/2+z
x,1/2-y,1/2+z
loop_
_atom_site_type_symbol
_atom_site_label
_atom_site_fract_x
_atom_site_fract_y
_atom_site_fract_z
Si Si1 0.113169 0.419537 0.288949
Si Si2 0.599000 0.216538 0.194405
Si Si3 0.299629 0.498293 0.600088
Si Si4 0.437792 0.074376 0.965786
Si Si5 0.947065 0.015491 0.758360
Si Si6 0.169012 0.792375 0.563920
Si Si7 0.863428 0.918518 0.947161
Si Si8 0.564420 0.735335 0.369686
O O1 0.177672 0.473525 0.226411
O O2 0.124174 0.415485 0.420392
O O3 0.104756 0.325114 0.224450
O O4 0.034861 0.467708 0.264652
O O5 0.588753 0.109834 0.217983
O O6 0.632083 0.256299 0.315117
O O7 0.516915 0.258891 0.178702
O O8 0.634585 0.223865 0.065052
O O9 0.359699 0.451254 0.520553
O O10 0.315498 0.602392 0.579827
O O11 0.218954 0.457205 0.575765
O O12 0.432081 0.061420 0.833337
O O13 0.453381 0.170139 0.023171
O O14 0.500000 0.000000 0.000000
O O15 0.916311 0.985396 0.877628
O O16 0.250000 0.750000 0.559731
O O17 0.885690 0.819634 0.903394
#
# Coordination Sequence:
#
# PCOD9433958 Si02
#       8
#     8   8   8   8   8   8   8   8
#     4  10  25  47  67 101 142 177 243 292 350 438
#     4  11  25  43  75 105 145 189 246 303 368 440
#     4  11  25  46  68  96 141 196 227 287 373 433
#     4  11  19  45  75  97 136 189 240 274 345 453
#     4  11  23  45  73 104 136 194 238 288 365 432
#     4  12  26  44  71 107 146 189 241 306 372 446
#     4  12  28  41  71 106 143 184 235 311 363 424
#     4  10  25  44  71 106 138 183 246 295 364 428
#
# _framework density 19.753086
#
# number of rings (size 3 to 8) (size 9 to 14) (size 15 to 20)
#    0.000    1.000    5.000    1.500    8.750    5.000 
#    0.000    2.500    0.000    0.000    0.000    0.000 
#    0.000    0.000    0.000    0.000    0.000    0.000 
#
# Total GULP energy -356899.940780 kJ/mol
# GULP energy per Si atom -5576.561575 kJ/mol
# Density = 1.970813 g / cm^3
# Si number density = 19.753086 Si / 1000 Ang^3
#
#
#
# Elastic Constant Matrix: (Units=GPa)
#
#
# Indices 1 2 3 4 5 6 
#
# 1 85.0434 39.5006 43.2024 0.0000 0.0000 0.0000
# 2 39.5006 80.6811 45.4974 0.0000 0.0000 0.0000
# 3 43.2024 45.4974 187.8599 0.0000 0.0000 0.0000
# 4 0.0000 0.0000 0.0000 35.6927 0.0000 0.0000
# 5 0.0000 0.0000 0.0000 0.0000 37.7911 0.0000
# 6 0.0000 0.0000 0.0000 0.0000 0.0000 29.0344
#
#
#
# Elastic Compliance Matrix: (Units=1/GPa)
#
#
# Indices 1 2 3 4 5 6 
#
# 1 0.015872 -0.006616 -0.002048 0.000000 0.000000 0.000000
# 2 -0.006616 0.017113 -0.002623 0.000000 0.000000 0.000000
# 3 -0.002048 -0.002623 0.006429 0.000000 0.000000 0.000000
# 4 0.000000 0.000000 0.000000 0.028017 0.000000 0.000000
# 5 0.000000 0.000000 0.000000 0.000000 0.026461 0.000000
# 6 0.000000 0.000000 0.000000 0.000000 0.000000 0.034442
#
#
# Mechanical properties :
#
#
# Convention : Reuss Voigt Hill
#
# Bulk Modulus (GPa) = 59.38074 67.77612 63.57843
# Shear Modulus (GPa) = 31.94459 35.52925 33.73692
#
# Velocity S-wave (km/s) = 4.02580 4.24567 4.13720
# Velocity P-wave (km/s) = 7.19279 7.64333 7.42148
#
# Compressibility (1/GPa) = 0.01684048
#
# Stress axis : x y z
#
# Youngs Moduli (GPa) = 63.00429 58.43604 155.53765
#
# Poissons Ratio (x) = 0.38661 0.31851
# Poissons Ratio (y) = 0.41683 0.40798
# Poissons Ratio (z) = 0.12902 0.15328
#
# Static dielectric constant tensor:
#      x y z
#    x 1.696500 0.000000 0.000000 
#    y 0.000000 1.771800 0.000000 
#    z 0.000000 0.000000 1.739200 
# 
# From -- ./inp_files/8418.got.cif
#   From: 2010.05.17/outbox.ucp.g08.bks.cvg/sg56_5_cif.got.tgz:8418.got - 2010.06.11 16:37:52.
