data_PCOD9433111
_publ_section_title
;
Structure prediction by ZEFSAII (Michael W. Deem and Ramdas Pophale) SiO2 
 PCOD9433111
Probable space group: P C C N
;
_chemical_formula_sum "Si O2"
_cell_formula_units_Z 40
_cell_length_a 5.192390
_cell_length_b 28.144531
_cell_length_c 9.659645
_cell_angle_alpha 90.000000
_cell_angle_beta 90.000000
_cell_angle_gamma 90.000000
_cell_volume 1411.635225
_symmetry_space_group_name_H-M "P C C N"
_symmetry_group_IT_number 56
_symmetry_cell_setting 'orthorhombic'
loop_
_space_group_symop_operation_xyz
x,y,z
1/2-x,1/2-y,z
1/2+x,-y,1/2-z
-x,1/2+y,1/2-z
-x,-y,-z
1/2+x,1/2+y,-z
1/2-x,y,1/2+z
x,1/2-y,1/2+z
loop_
_atom_site_type_symbol
_atom_site_label
_atom_site_fract_x
_atom_site_fract_y
_atom_site_fract_z
Si Si1 0.772944 0.303355 0.467518
Si Si2 0.448046 0.548130 0.840524
Si Si3 0.225616 0.196881 0.273343
Si Si4 0.820984 0.939014 0.113167
Si Si5 0.458418 0.879016 0.839117
O O1 0.750000 0.250000 0.525279
O O2 0.537798 0.310379 0.357859
O O3 0.732320 0.340978 0.589032
O O4 0.038167 0.304490 0.383072
O O5 0.423928 0.491523 0.848588
O O6 0.549017 0.563761 0.690912
O O7 0.189462 0.573002 0.890799
O O8 0.669941 0.563865 0.948842
O O9 0.250000 0.250000 0.211991
O O10 0.289888 0.155715 0.162958
O O11 0.999436 0.899566 0.182587
#
# Coordination Sequence:
#
# PCOD9433111 Si02
#       5
#     8   8   8   8   8
#     4  10  25  47  71 106 153 201 264 334 407 484
#     4  11  26  49  72 117 159 227 270 360 407 514
#     4  10  25  47  72 108 153 204 266 338 404 485
#     4  11  26  47  75 111 167 212 289 340 431 490
#     4  12  26  44  78 110 154 212 276 335 420 499
#
# _framework density 28.335932
#
# number of rings (size 3 to 8) (size 9 to 14) (size 15 to 20)
#    0.000    1.200    2.000    1.200    8.400    7.200 
#    0.000    0.000    0.000    0.000    0.000    0.000 
#    0.000    0.000    0.000    0.000    0.000    0.000 
#
# Total GULP energy -223507.458274 kJ/mol
# GULP energy per Si atom -5587.686457 kJ/mol
# Density = 2.827144 g / cm^3
# Si number density = 28.335932 Si / 1000 Ang^3
#
#
#
# Elastic Constant Matrix: (Units=GPa)
#
#
# Indices 1 2 3 4 5 6 
#
# 1 173.7590 -11.0050 70.4688 0.0000 0.0000 0.0000
# 2 -11.0050 178.9222 43.0520 0.0000 0.0000 0.0000
# 3 70.4688 43.0520 95.4168 0.0000 0.0000 0.0000
# 4 0.0000 0.0000 0.0000 42.6324 0.0000 0.0000
# 5 0.0000 0.0000 0.0000 0.0000 45.5710 0.0000
# 6 0.0000 0.0000 0.0000 0.0000 0.0000 32.6526
#
#
#
# Elastic Compliance Matrix: (Units=1/GPa)
#
#
# Indices 1 2 3 4 5 6 
#
# 1 0.009072 0.002434 -0.007798 0.000000 0.000000 0.000000
# 2 0.002434 0.006923 -0.004922 0.000000 0.000000 0.000000
# 3 -0.007798 -0.004922 0.018460 0.000000 0.000000 0.000000
# 4 0.000000 0.000000 0.000000 0.023456 0.000000 0.000000
# 5 0.000000 0.000000 0.000000 0.000000 0.021944 0.000000
# 6 0.000000 0.000000 0.000000 0.000000 0.000000 0.030625
#
#
# Mechanical properties :
#
#
# Convention : Reuss Voigt Hill
#
# Bulk Modulus (GPa) = 72.02412 72.56993 72.29702
# Shear Modulus (GPa) = 36.85145 47.21002 42.03073
#
# Velocity S-wave (km/s) = 3.61018 4.08620 3.85554
# Velocity P-wave (km/s) = 6.54607 6.92307 6.73721
#
# Compressibility (1/GPa) = 0.01388424
#
# Stress axis : x y z
#
# Youngs Moduli (GPa) = 110.22985 144.44657 54.17025
#
# Poissons Ratio (x) = -0.35164 0.42244
# Poissons Ratio (y) = -0.26835 0.26660
# Poissons Ratio (z) = 0.85961 0.71090
#
# Static dielectric constant tensor:
#      x y z
#    x 2.574710 0.000000 0.000000 
#    y 0.000000 2.620150 0.000000 
#    z 0.000000 0.000000 2.172650 
# 
# From -- ./inp_files/5683.got.cif
#   From: 2010.05.17/outbox.cif.g08.bks.cpg/sg56_3_cif.got.tgz:5683.got - 2010.06.03 13:42:01.
