data_PCOD9433023
_publ_section_title
;
Structure prediction by ZEFSAII (Michael W. Deem and Ramdas Pophale) SiO2 
 PCOD9433023
Probable space group: P C C N
;
_chemical_formula_sum "Si O2"
_cell_formula_units_Z 60
_cell_length_a 15.255589
_cell_length_b 18.805426
_cell_length_c 9.281537
_cell_angle_alpha 90.000000
_cell_angle_beta 90.000000
_cell_angle_gamma 90.000000
_cell_volume 2662.760195
_symmetry_space_group_name_H-M "P C C N"
_symmetry_group_IT_number 56
_symmetry_cell_setting 'orthorhombic'
loop_
_space_group_symop_operation_xyz
x,y,z
1/2-x,1/2-y,z
1/2+x,-y,1/2-z
-x,1/2+y,1/2-z
-x,-y,-z
1/2+x,1/2+y,-z
1/2-x,y,1/2+z
x,1/2-y,1/2+z
loop_
_atom_site_type_symbol
_atom_site_label
_atom_site_fract_x
_atom_site_fract_y
_atom_site_fract_z
Si Si1 0.116360 0.729971 0.782498
Si Si2 0.776439 0.361677 0.762932
Si Si3 0.499183 0.699790 0.030790
Si Si4 0.271786 0.538200 0.978390
Si Si5 0.069593 0.449148 0.579202
Si Si6 0.915818 0.531479 0.079843
Si Si7 0.750000 0.750000 0.261432
Si Si8 0.856373 0.814429 0.521518
O O1 0.197849 0.679460 0.819341
O O2 0.155889 0.799247 0.700178
O O3 0.064703 0.763697 0.914585
O O4 0.054708 0.685787 0.675846
O O5 0.814741 0.421049 0.656755
O O6 0.736808 0.403516 0.896428
O O7 0.545601 0.630837 0.965679
O O8 0.570704 0.758432 0.068763
O O9 0.173729 0.513473 0.938732
O O10 0.333711 0.473958 0.028301
O O11 0.065388 0.458721 0.750840
O O12 0.000000 0.500000 0.500000
O O13 0.895130 0.607921 0.011459
O O14 0.000000 0.500000 0.000000
O O15 0.817793 0.786543 0.371049
O O16 0.713355 0.809420 0.151839
#
# Coordination Sequence:
#
# PCOD9433023 Si02
#       8
#     8   8   8   8   8   8   4   8
#     4  11  24  44  76 109 149 186 253 301 389 444
#     4  11  24  46  74 108 144 204 239 313 371 457
#     4  12  26  45  75 108 147 190 241 323 371 453
#     4  12  27  47  74 107 157 200 254 304 382 450
#     4  12  28  50  75 114 151 199 250 309 386 454
#     4  12  31  48  75 109 152 206 254 314 375 453
#     4  10  24  46  76 102 142 194 240 316 370 450
#     4  11  26  46  73 105 145 188 254 302 380 440
#
# _framework density 22.533010000000001
#
# number of rings (size 3 to 8) (size 9 to 14) (size 15 to 20)
#    0.000    0.533    1.333    5.600   13.067    3.200 
#    0.000    0.000    0.000    0.000    0.000    0.000 
#    0.000    0.000    0.000    0.000    0.000    0.000 
#
# Total GULP energy -336031.118048 kJ/mol
# GULP energy per Si atom -5600.518634 kJ/mol
# Density = 2.248172 g / cm^3
# Si number density = 22.533010 Si / 1000 Ang^3
#
#
#
# Elastic Constant Matrix: (Units=GPa)
#
#
# Indices 1 2 3 4 5 6 
#
# 1 70.8310 27.8433 6.2064 0.0000 0.0000 0.0000
# 2 27.8433 108.4212 31.1099 0.0000 0.0000 0.0000
# 3 6.2064 31.1099 -120.8457 0.0000 0.0000 0.0000
# 4 0.0000 0.0000 0.0000 22.6774 0.0000 0.0000
# 5 0.0000 0.0000 0.0000 0.0000 36.3534 0.0000
# 6 0.0000 0.0000 0.0000 0.0000 0.0000 46.6207
#
#
#
# Elastic Compliance Matrix: (Units=1/GPa)
#
#
# Indices 1 2 3 4 5 6 
#
# 1 0.015697 -0.003969 -0.000216 0.000000 0.000000 0.000000
# 2 -0.003969 0.009593 0.002266 0.000000 0.000000 0.000000
# 3 -0.000216 0.002266 -0.007703 0.000000 0.000000 0.000000
# 4 0.000000 0.000000 0.000000 0.044097 0.000000 0.000000
# 5 0.000000 0.000000 0.000000 0.000000 0.027508 0.000000
# 6 0.000000 0.000000 0.000000 0.000000 0.000000 0.021450
#
#
# Mechanical properties :
#
#
# Convention : Reuss Voigt Hill
#
# Bulk Modulus (GPa) = 72.73615 20.96953 46.85284
# Shear Modulus (GPa) = 41.99463 20.68007 31.33735
#
# Velocity S-wave (km/s) = 4.32174 3.03275 3.73330
# Velocity P-wave (km/s) = 7.56658 4.64648 6.27865
#
# Compressibility (1/GPa) = 0.01374832
#
# Stress axis : x y z
#
# Youngs Moduli (GPa) = 63.70515 104.24760 -129.82213
#
# Poissons Ratio (x) = 0.41379 -0.02800
# Poissons Ratio (y) = 0.25286 0.29413
# Poissons Ratio (z) = 0.01374 -0.23618
#
# Static dielectric constant tensor:
#      x y z
#    x 1.853200 0.000000 0.000000 
#    y 0.000000 1.939350 0.000000 
#    z 0.000000 0.000000 1.768230 
# 
# From -- ./inp_files/4131.got.cif
#   From: 2010.05.17/outbox.cif.g08.bks.cpg/sg56_3_cif.got.tgz:4131.got - 2010.06.03 13:42:01.
