data_PCOD9433067
_publ_section_title
;
Structure prediction by ZEFSAII (Michael W. Deem and Ramdas Pophale) SiO2 
 PCOD9433067
Probable space group: P C C N
;
_chemical_formula_sum "Si O2"
_cell_formula_units_Z 60
_cell_length_a 30.762365
_cell_length_b 10.396421
_cell_length_c 8.890463
_cell_angle_alpha 90.000000
_cell_angle_beta 90.000000
_cell_angle_gamma 90.000000
_cell_volume 2843.334519
_symmetry_space_group_name_H-M "P C C N"
_symmetry_group_IT_number 56
_symmetry_cell_setting 'orthorhombic'
loop_
_space_group_symop_operation_xyz
x,y,z
1/2-x,1/2-y,z
1/2+x,-y,1/2-z
-x,1/2+y,1/2-z
-x,-y,-z
1/2+x,1/2+y,-z
1/2-x,y,1/2+z
x,1/2-y,1/2+z
loop_
_atom_site_type_symbol
_atom_site_label
_atom_site_fract_x
_atom_site_fract_y
_atom_site_fract_z
Si Si1 0.022542 0.834295 0.621471
Si Si2 0.568324 0.946528 0.071724
Si Si3 0.793433 0.084782 0.964070
Si Si4 0.883882 0.974123 0.877158
Si Si5 0.750000 0.250000 0.709742
Si Si6 0.291622 0.173939 0.356583
Si Si7 0.648781 0.686843 0.412890
Si Si8 0.458177 0.919383 0.456442
O O1 0.041674 0.699863 0.569597
O O2 0.035683 0.867440 0.789964
O O3 0.969971 0.842814 0.605458
O O4 0.043857 0.940476 0.514404
O O5 0.589003 0.997398 0.226171
O O6 0.607685 0.891963 0.971851
O O7 0.785849 0.188675 0.097276
O O8 0.780060 0.946532 0.035735
O O9 0.766847 0.137435 0.820544
O O10 0.842375 0.063237 0.906552
O O11 0.868352 0.827368 0.864888
O O12 0.915833 0.994919 0.017489
O O13 0.250000 0.250000 0.294336
O O14 0.323745 0.128036 0.224217
O O15 0.318066 0.279181 0.453264
O O16 0.500000 0.000000 0.500000
#
# Coordination Sequence:
#
# PCOD9433067 Si02
#       8
#     8   8   8   8   4   8   8   8
#     4  11  27  42  71 105 135 193 231 290 355 419
#     4  11  24  45  68 101 145 182 238 284 357 420
#     4  10  26  45  75 101 141 186 241 286 358 425
#     4  11  24  46  66 106 135 185 236 293 345 427
#     4  10  24  52  70 102 140 196 230 292 356 428
#     4  11  25  43  69 111 139 183 236 299 359 429
#     4  11  24  42  71 101 141 186 226 293 360 418
#     4  12  25  45  71  99 145 180 236 292 350 421
#
# _framework density 21.101984999999999
#
# number of rings (size 3 to 8) (size 9 to 14) (size 15 to 20)
#    0.000    1.067    2.667    2.000   11.200    2.133 
#    2.400    0.000    0.000    0.000    0.000    0.000 
#    0.000    0.000    0.000    0.000    0.000    0.000 
#
# Total GULP energy -335434.663545 kJ/mol
# GULP energy per Si atom -5590.577726 kJ/mol
# Density = 2.105396 g / cm^3
# Si number density = 21.101985 Si / 1000 Ang^3
#
#
#
# Elastic Constant Matrix: (Units=GPa)
#
#
# Indices 1 2 3 4 5 6 
#
# 1 105.9343 25.4615 36.3861 0.0000 0.0000 0.0000
# 2 25.4615 57.8523 9.5097 0.0000 0.0000 0.0000
# 3 36.3861 9.5097 87.0693 0.0000 0.0000 0.0000
# 4 0.0000 0.0000 0.0000 -9.0092 0.0000 0.0000
# 5 0.0000 0.0000 0.0000 0.0000 35.8892 0.0000
# 6 0.0000 0.0000 0.0000 0.0000 0.0000 23.8783
#
#
#
# Elastic Compliance Matrix: (Units=1/GPa)
#
#
# Indices 1 2 3 4 5 6 
#
# 1 0.012106 -0.004579 -0.004559 0.000000 0.000000 0.000000
# 2 -0.004579 0.019333 -0.000198 0.000000 0.000000 0.000000
# 3 -0.004559 -0.000198 0.013412 0.000000 0.000000 0.000000
# 4 0.000000 0.000000 0.000000 -0.110998 0.000000 0.000000
# 5 0.000000 0.000000 0.000000 0.000000 0.027864 0.000000
# 6 0.000000 0.000000 0.000000 0.000000 0.000000 0.041879
#
#
# Mechanical properties :
#
#
# Convention : Reuss Voigt Hill
#
# Bulk Modulus (GPa) = 38.19781 43.73004 40.96393
# Shear Modulus (GPa) = 161.32146 22.11825 91.71986
#
# Velocity S-wave (km/s) = 8.75297 3.24104 6.59995
# Velocity P-wave (km/s) = 10.96784 5.89695 8.80532
#
# Compressibility (1/GPa) = 0.02617951
#
# Stress axis : x y z
#
# Youngs Moduli (GPa) = 82.60192 51.72480 74.56017
#
# Poissons Ratio (x) = 0.23683 0.33993
# Poissons Ratio (y) = 0.37821 0.01477
# Poissons Ratio (z) = 0.37659 0.01025
#
# Static dielectric constant tensor:
#      x y z
#    x 1.758610 0.000000 0.000000 
#    y 0.000000 1.749620 0.000000 
#    z 0.000000 0.000000 1.760730 
# 
# From -- ./inp_files/4964.got.cif
#   From: 2010.05.17/outbox.cif.g08.bks.cpg/sg56_3_cif.got.tgz:4964.got - 2010.06.03 13:42:01.
