data_PCOD9433081
_publ_section_title
;
Structure prediction by ZEFSAII (Michael W. Deem and Ramdas Pophale) SiO2 
 PCOD9433081
Probable space group: P C C N
;
_chemical_formula_sum "Si O2"
_cell_formula_units_Z 56
_cell_length_a 18.877328
_cell_length_b 9.031891
_cell_length_c 13.246522
_cell_angle_alpha 90.000000
_cell_angle_beta 90.000000
_cell_angle_gamma 90.000000
_cell_volume 2258.505096
_symmetry_space_group_name_H-M "P C C N"
_symmetry_group_IT_number 56
_symmetry_cell_setting 'orthorhombic'
loop_
_space_group_symop_operation_xyz
x,y,z
1/2-x,1/2-y,z
1/2+x,-y,1/2-z
-x,1/2+y,1/2-z
-x,-y,-z
1/2+x,1/2+y,-z
1/2-x,y,1/2+z
x,1/2-y,1/2+z
loop_
_atom_site_type_symbol
_atom_site_label
_atom_site_fract_x
_atom_site_fract_y
_atom_site_fract_z
Si Si1 0.791651 0.102958 0.364666
Si Si2 0.134258 0.576418 0.931010
Si Si3 0.063236 0.173294 0.537102
Si Si4 0.090779 0.435145 0.256781
Si Si5 0.433429 0.636479 0.926800
Si Si6 0.323289 0.338698 0.291216
Si Si7 0.843075 0.568773 0.424405
O O1 0.750000 0.250000 0.332000
O O2 0.839435 0.137370 0.461566
O O3 0.840549 0.029858 0.280001
O O4 0.737156 0.985136 0.413492
O O5 0.108845 0.724833 0.878267
O O6 0.187363 0.471593 0.869836
O O7 0.072134 0.461352 0.960535
O O8 0.055673 0.113589 0.651871
O O9 0.137019 0.266679 0.538504
O O10 0.000316 0.288063 0.519417
O O11 0.045761 0.530514 0.334506
O O12 0.121098 0.291542 0.314198
O O13 0.386391 0.543545 0.005597
O O14 0.250000 0.250000 0.270727
O O15 0.359052 0.419255 0.194872
#
# Coordination Sequence:
#
# PCOD9433081 Si02
#       7
#     8   8   8   8   8   8   8
#     4  11  23  44  68 104 144 173 232 298 362 417
#     4  11  26  40  70 103 137 190 230 300 357 416
#     4  10  25  47  71 100 140 187 243 290 346 420
#     4  10  25  44  68 102 136 185 232 291 350 417
#     4  12  25  46  71 104 142 190 242 283 356 426
#     4  11  24  42  67 103 139 179 233 286 355 427
#     4  11  24  44  70 101 140 187 229 294 357 417
#
# _framework density 24.795161
#
# number of rings (size 3 to 8) (size 9 to 14) (size 15 to 20)
#    0.000    1.143    2.857    1.714    6.000    2.286 
#    0.000    2.857    0.000    0.000    0.000    0.000 
#    0.000    0.000    0.000    0.000    0.000    0.000 
#
# Total GULP energy -312924.136308 kJ/mol
# GULP energy per Si atom -5587.931006 kJ/mol
# Density = 2.473873 g / cm^3
# Si number density = 24.795161 Si / 1000 Ang^3
#
#
#
# Elastic Constant Matrix: (Units=GPa)
#
#
# Indices 1 2 3 4 5 6 
#
# 1 61.5752 22.3899 -0.5416 0.0000 0.0000 0.0000
# 2 22.3899 128.6120 42.7545 0.0000 0.0000 0.0000
# 3 -0.5416 42.7545 82.0843 0.0000 0.0000 0.0000
# 4 0.0000 0.0000 0.0000 44.3109 0.0000 0.0000
# 5 0.0000 0.0000 0.0000 0.0000 21.9719 0.0000
# 6 0.0000 0.0000 0.0000 0.0000 0.0000 45.8130
#
#
#
# Elastic Compliance Matrix: (Units=1/GPa)
#
#
# Indices 1 2 3 4 5 6 
#
# 1 0.017625 -0.003758 0.002073 0.000000 0.000000 0.000000
# 2 -0.003758 0.010205 -0.005340 0.000000 0.000000 0.000000
# 3 0.002073 -0.005340 0.014978 0.000000 0.000000 0.000000
# 4 0.000000 0.000000 0.000000 0.022568 0.000000 0.000000
# 5 0.000000 0.000000 0.000000 0.000000 0.045513 0.000000
# 6 0.000000 0.000000 0.000000 0.000000 0.000000 0.021828
#
#
# Mechanical properties :
#
#
# Convention : Reuss Voigt Hill
#
# Bulk Modulus (GPa) = 34.77175 44.60856 39.69015
# Shear Modulus (GPa) = 31.97952 36.26374 34.12163
#
# Velocity S-wave (km/s) = 3.59520 3.82846 3.71366
# Velocity P-wave (km/s) = 5.59357 6.12965 5.86774
#
# Compressibility (1/GPa) = 0.02875898
#
# Stress axis : x y z
#
# Youngs Moduli (GPa) = 56.73798 97.99451 66.76606
#
# Poissons Ratio (x) = 0.36822 -0.13844
# Poissons Ratio (y) = 0.21320 0.35653
# Poissons Ratio (z) = -0.11764 0.52329
#
# Static dielectric constant tensor:
#      x y z
#    x 2.031090 0.000000 0.000000 
#    y 0.000000 1.973210 0.000000 
#    z 0.000000 0.000000 1.969790 
# 
# From -- ./inp_files/13088.got.cif
#   From: 2010.05.17/outbox.cif.g08.bks.cpg/sg56_7_cif.got.tgz:13088.got - 2010.06.03 13:42:01.
