data_PCOD9433428
_publ_section_title
;
Structure prediction by ZEFSAII (Michael W. Deem and Ramdas Pophale) SiO2 
 PCOD9433428
Probable space group: P C C N
;
_chemical_formula_sum "Si O2"
_cell_formula_units_Z 60
_cell_length_a 11.484339
_cell_length_b 11.865743
_cell_length_c 20.263100
_cell_angle_alpha 90.000000
_cell_angle_beta 90.000000
_cell_angle_gamma 90.000000
_cell_volume 2761.256996
_symmetry_space_group_name_H-M "P C C N"
_symmetry_group_IT_number 56
_symmetry_cell_setting 'orthorhombic'
loop_
_space_group_symop_operation_xyz
x,y,z
1/2-x,1/2-y,z
1/2+x,-y,1/2-z
-x,1/2+y,1/2-z
-x,-y,-z
1/2+x,1/2+y,-z
1/2-x,y,1/2+z
x,1/2-y,1/2+z
loop_
_atom_site_type_symbol
_atom_site_label
_atom_site_fract_x
_atom_site_fract_y
_atom_site_fract_z
Si Si1 0.695787 0.128004 0.445317
Si Si2 0.678955 0.467261 0.741339
Si Si3 0.250000 0.750000 0.840217
Si Si4 0.066160 0.329793 0.796094
Si Si5 0.368851 0.509373 0.645723
Si Si6 0.434319 0.615759 0.920637
Si Si7 0.506363 0.599543 0.158113
Si Si8 0.609763 0.747488 0.351769
O O1 0.750000 0.250000 0.458768
O O2 0.800084 0.047454 0.420371
O O3 0.617888 0.092474 0.507649
O O4 0.605280 0.135876 0.385121
O O5 0.714616 0.354756 0.704751
O O6 0.665975 0.577234 0.696690
O O7 0.771110 0.497084 0.797509
O O8 0.552780 0.445784 0.774783
O O9 0.353734 0.708688 0.886125
O O10 0.081504 0.209578 0.829522
O O11 0.060757 0.298535 0.717555
O O12 0.955236 0.392476 0.828818
O O13 0.422809 0.384344 0.638936
O O14 0.431820 0.501861 0.878641
O O15 0.561710 0.671239 0.909888
O O16 0.750000 0.750000 0.348975
#
# Coordination Sequence:
#
# PCOD9433428 Si02
#       8
#     8   8   4   8   8   8   8   8
#     4  11  23  48  71 100 132 191 247 292 339 420
#     4  11  23  39  65 101 138 184 216 283 354 434
#     4  12  26  42  66 104 146 186 234 294 360 428
#     4  12  22  39  68 104 144 176 220 288 361 431
#     4  11  23  43  70 100 139 180 238 281 356 422
#     4  12  25  46  71 101 139 189 246 291 347 418
#     4  11  23  40  67  99 137 180 233 283 349 421
#     4  12  24  43  67 107 148 187 227 294 368 428
#
# _framework density 21.729234000000002
#
# number of rings (size 3 to 8) (size 9 to 14) (size 15 to 20)
#    0.000    0.533    4.667    5.200    3.733    0.000 
#    0.000    2.000    0.000    2.400    0.000    0.000 
#    0.000    0.000    0.000    0.000    0.000    0.000 
#
# Total GULP energy -335553.956517 kJ/mol
# GULP energy per Si atom -5592.565942 kJ/mol
# Density = 2.167978 g / cm^3
# Si number density = 21.729234 Si / 1000 Ang^3
#
#
#
# Elastic Constant Matrix: (Units=GPa)
#
#
# Indices 1 2 3 4 5 6 
#
# 1 63.7252 44.6584 34.7091 0.0000 0.0000 0.0000
# 2 44.6584 174.2895 37.2712 0.0000 0.0000 0.0000
# 3 34.7091 37.2712 79.6332 0.0000 0.0000 0.0000
# 4 0.0000 0.0000 0.0000 19.7295 0.0000 0.0000
# 5 0.0000 0.0000 0.0000 0.0000 31.7892 0.0000
# 6 0.0000 0.0000 0.0000 0.0000 0.0000 39.3010
#
#
#
# Elastic Compliance Matrix: (Units=1/GPa)
#
#
# Indices 1 2 3 4 5 6 
#
# 1 0.023015 -0.004169 -0.008080 0.000000 0.000000 0.000000
# 2 -0.004169 0.007131 -0.001520 0.000000 0.000000 0.000000
# 3 -0.008080 -0.001520 0.016791 0.000000 0.000000 0.000000
# 4 0.000000 0.000000 0.000000 0.050685 0.000000 0.000000
# 5 0.000000 0.000000 0.000000 0.000000 0.031457 0.000000
# 6 0.000000 0.000000 0.000000 0.000000 0.000000 0.025445
#
#
# Mechanical properties :
#
#
# Convention : Reuss Voigt Hill
#
# Bulk Modulus (GPa) = 51.55245 61.21394 56.38319
# Shear Modulus (GPa) = 26.52103 31.56457 29.04280
#
# Velocity S-wave (km/s) = 3.49739 3.81548 3.65989
# Velocity P-wave (km/s) = 6.33130 6.90238 6.62300
#
# Compressibility (1/GPa) = 0.01939772
#
# Stress axis : x y z
#
# Youngs Moduli (GPa) = 43.44964 140.23280 59.55597
#
# Poissons Ratio (x) = 0.58467 0.48122
# Poissons Ratio (y) = 0.18115 0.09054
# Poissons Ratio (z) = 0.35108 0.21320
#
# Static dielectric constant tensor:
#      x y z
#    x 1.869260 0.000000 0.000000 
#    y 0.000000 1.801800 0.000000 
#    z 0.000000 0.000000 1.799800 
# 
# From -- ./inp_files/18832.got.cif
#   From: 2010.05.17/outbox.cif.g08.bks.cpg/sg56_10_cif.got.tgz:18832.got - 2010.06.03 13:42:01.
