data_PCOD9433193
_publ_section_title
;
Structure prediction by ZEFSAII (Michael W. Deem and Ramdas Pophale) SiO2 
 PCOD9433193
Probable space group: P C C N
;
_chemical_formula_sum "Si O2"
_cell_formula_units_Z 48
_cell_length_a 15.143536
_cell_length_b 18.301049
_cell_length_c 8.921658
_cell_angle_alpha 90.000000
_cell_angle_beta 90.000000
_cell_angle_gamma 90.000000
_cell_volume 2472.571444
_symmetry_space_group_name_H-M "P C C N"
_symmetry_group_IT_number 56
_symmetry_cell_setting 'orthorhombic'
loop_
_space_group_symop_operation_xyz
x,y,z
1/2-x,1/2-y,z
1/2+x,-y,1/2-z
-x,1/2+y,1/2-z
-x,-y,-z
1/2+x,1/2+y,-z
1/2-x,y,1/2+z
x,1/2-y,1/2+z
loop_
_atom_site_type_symbol
_atom_site_label
_atom_site_fract_x
_atom_site_fract_y
_atom_site_fract_z
Si Si1 0.042086 0.094922 0.115169
Si Si2 0.711810 0.058112 0.117893
Si Si3 0.934469 0.468524 0.877361
Si Si4 0.294601 0.171949 0.535082
Si Si5 0.119517 0.930393 0.075634
Si Si6 0.691477 0.579865 0.244865
O O1 0.114765 0.158158 0.124805
O O2 0.986973 0.084689 0.267511
O O3 0.093656 0.017442 0.085012
O O4 0.970823 0.105713 0.982568
O O5 0.661093 0.090990 0.262821
O O6 0.737545 0.977232 0.177876
O O7 0.647921 0.060194 0.974037
O O8 0.805860 0.084232 0.051291
O O9 0.896033 0.533585 0.774892
O O10 0.000000 0.500000 0.000000
O O11 0.250000 0.250000 0.542375
O O12 0.317754 0.146403 0.368398
O O13 0.226359 0.113374 0.601999
#
# Coordination Sequence:
#
# PCOD9433193 Si02
#       6
#     8   8   8   8   8   8
#     4  11  20  34  51  79 112 161 206 250 305 365
#     4  12  18  32  53  83 117 153 191 249 331 376
#     4  12  21  31  56  85 116 159 199 264 323 374
#     4  12  25  39  55  77 117 177 215 243 292 374
#     4  11  19  31  52  79 114 155 193 249 320 374
#     4  12  20  39  55  81 120 161 208 249 308 381
#
# _framework density 19.412989
#
# number of rings (size 3 to 8) (size 9 to 14) (size 15 to 20)
#    0.000    0.333   10.000    1.500    0.000    0.000 
#    0.000    0.000    0.000    0.000    0.000    0.000 
#    0.000    1.333   30.000    1.000    0.000    0.000 
#
# Total GULP energy -267781.141593 kJ/mol
# GULP energy per Si atom -5578.773783 kJ/mol
# Density = 1.936880 g / cm^3
# Si number density = 19.412989 Si / 1000 Ang^3
#
#
#
# Elastic Constant Matrix: (Units=GPa)
#
#
# Indices 1 2 3 4 5 6 
#
# 1 120.4170 31.4951 36.5409 0.0000 0.0000 0.0000
# 2 31.4951 47.2838 21.5882 0.0000 0.0000 0.0000
# 3 36.5409 21.5882 106.2878 0.0000 0.0000 0.0000
# 4 0.0000 0.0000 0.0000 8.9672 0.0000 0.0000
# 5 0.0000 0.0000 0.0000 0.0000 52.5146 0.0000
# 6 0.0000 0.0000 0.0000 0.0000 0.0000 29.5198
#
#
#
# Elastic Compliance Matrix: (Units=1/GPa)
#
#
# Indices 1 2 3 4 5 6 
#
# 1 0.010599 -0.005948 -0.002436 0.000000 0.000000 0.000000
# 2 -0.005948 0.026648 -0.003368 0.000000 0.000000 0.000000
# 3 -0.002436 -0.003368 0.010930 0.000000 0.000000 0.000000
# 4 0.000000 0.000000 0.000000 0.111518 0.000000 0.000000
# 5 0.000000 0.000000 0.000000 0.000000 0.019042 0.000000
# 6 0.000000 0.000000 0.000000 0.000000 0.000000 0.033876
#
#
# Mechanical properties :
#
#
# Convention : Reuss Voigt Hill
#
# Bulk Modulus (GPa) = 40.52772 50.35967 45.44370
# Shear Modulus (GPa) = 20.46320 30.49127 25.47723
#
# Velocity S-wave (km/s) = 3.25021 3.96746 3.62661
# Velocity P-wave (km/s) = 5.91668 6.85457 6.40282
#
# Compressibility (1/GPa) = 0.02467447
#
# Stress axis : x y z
#
# Youngs Moduli (GPa) = 94.34562 37.52583 91.49239
#
# Poissons Ratio (x) = 0.22320 0.22286
# Poissons Ratio (y) = 0.56116 0.30812
# Poissons Ratio (z) = 0.22981 0.12638
#
# Static dielectric constant tensor:
#      x y z
#    x 1.747500 0.000000 0.000000 
#    y 0.000000 1.657450 0.000000 
#    z 0.000000 0.000000 1.764570 
# 
# From -- ./inp_files/3387.got.cif
#   From: 2010.05.17/outbox.cif.g08.bks.cpg/sg56_2_cif.got.tgz:3387.got - 2010.06.03 13:42:01.
