data_PCOD9433684
_publ_section_title
;
Structure prediction by ZEFSAII (Michael W. Deem and Ramdas Pophale) SiO2 
 PCOD9433684
Probable space group: P C C N
;
_chemical_formula_sum "Si O2"
_cell_formula_units_Z 40
_cell_length_a 14.802849
_cell_length_b 11.050680
_cell_length_c 9.570592
_cell_angle_alpha 90.000000
_cell_angle_beta 90.000000
_cell_angle_gamma 90.000000
_cell_volume 1565.572249
_symmetry_space_group_name_H-M "P C C N"
_symmetry_group_IT_number 56
_symmetry_cell_setting 'orthorhombic'
loop_
_space_group_symop_operation_xyz
x,y,z
1/2-x,1/2-y,z
1/2+x,-y,1/2-z
-x,1/2+y,1/2-z
-x,-y,-z
1/2+x,1/2+y,-z
1/2-x,y,1/2+z
x,1/2-y,1/2+z
loop_
_atom_site_type_symbol
_atom_site_label
_atom_site_fract_x
_atom_site_fract_y
_atom_site_fract_z
Si Si1 0.250000 0.250000 0.182920
Si Si2 0.937581 0.347018 0.912725
Si Si3 0.559624 0.036042 0.200408
Si Si4 0.250000 0.750000 0.065464
Si Si5 0.191623 0.010358 0.048401
Si Si6 0.080474 0.317577 0.360075
O O1 0.254125 0.126724 0.090277
O O2 0.162033 0.250130 0.282035
O O3 0.844306 0.288063 0.861719
O O4 0.992393 0.422084 0.798996
O O5 0.017183 0.257778 0.964905
O O6 0.913465 0.435287 0.041737
O O7 0.495494 0.142018 0.252634
O O8 0.641466 0.018808 0.305725
O O9 0.275386 0.620999 0.994250
O O10 0.123467 0.068721 0.938356
#
# Coordination Sequence:
#
# PCOD9433684 Si02
#       6
#     4   8   8   4   8   8
#     4  12  26  48  78 112 152 200 258 316 372 472
#     4  11  26  47  74 110 155 205 253 316 389 457
#     4  11  25  48  74 106 156 201 250 319 383 459
#     4  12  28  46  76 118 156 194 256 324 380 458
#     4  12  27  48  77 113 150 204 255 317 390 454
#     4  12  25  46  79 107 149 205 256 307 385 471
#
# _framework density 25.549762000000001
#
# number of rings (size 3 to 8) (size 9 to 14) (size 15 to 20)
#    0.000    0.400    4.000    3.600    2.800    2.400 
#    0.000    0.000    0.000    0.000    0.000    0.000 
#    0.000    0.000    0.000    0.000    0.000    0.000 
#
# Total GULP energy -223368.300835 kJ/mol
# GULP energy per Si atom -5584.207521 kJ/mol
# Density = 2.549161 g / cm^3
# Si number density = 25.549762 Si / 1000 Ang^3
#
#
#
# Elastic Constant Matrix: (Units=GPa)
#
#
# Indices 1 2 3 4 5 6 
#
# 1 117.0710 34.0658 5.7444 0.0000 0.0000 0.0000
# 2 34.0658 157.0167 25.7847 0.0000 0.0000 0.0000
# 3 5.7444 25.7847 46.9416 0.0000 0.0000 0.0000
# 4 0.0000 0.0000 0.0000 26.3427 0.0000 0.0000
# 5 0.0000 0.0000 0.0000 0.0000 -0.9240 0.0000
# 6 0.0000 0.0000 0.0000 0.0000 0.0000 62.2776
#
#
#
# Elastic Compliance Matrix: (Units=1/GPa)
#
#
# Indices 1 2 3 4 5 6 
#
# 1 0.009117 -0.001973 -0.000032 0.000000 0.000000 0.000000
# 2 -0.001973 0.007427 -0.003838 0.000000 0.000000 0.000000
# 3 -0.000032 -0.003838 0.023415 0.000000 0.000000 0.000000
# 4 0.000000 0.000000 0.000000 0.037961 0.000000 0.000000
# 5 0.000000 0.000000 0.000000 0.000000 -1.082202 0.000000
# 6 0.000000 0.000000 0.000000 0.000000 0.000000 0.016057
#
#
# Mechanical properties :
#
#
# Convention : Reuss Voigt Hill
#
# Bulk Modulus (GPa) = 35.36869 50.24657 42.80763
# Shear Modulus (GPa) = -5.17002 34.56822 14.69910
#
# Velocity S-wave (km/s) = -1.42405 3.68227 2.40117
# Velocity P-wave (km/s) = 3.34204 6.14717 4.94757
#
# Compressibility (1/GPa) = 0.02827360
#
# Stress axis : x y z
#
# Youngs Moduli (GPa) = 109.67964 134.64269 42.70711
#
# Poissons Ratio (x) = 0.26563 0.00137
# Poissons Ratio (y) = 0.21638 0.16392
# Poissons Ratio (z) = 0.00352 0.51679
#
# Static dielectric constant tensor:
#      x y z
#    x 1.997970 0.000000 0.000000 
#    y 0.000000 2.228310 0.000000 
#    z 0.000000 0.000000 2.019110 
# 
# From -- ./inp_files/7694.got.cif
#   From: 2010.05.17/outbox.cif.g08.bks.cpg/sg56_4_cif.got.tgz:7694.got - 2010.06.03 13:42:01.
