data_PCOD9433681
_publ_section_title
;
Structure prediction by ZEFSAII (Michael W. Deem and Ramdas Pophale) SiO2 
 PCOD9433681
Probable space group: P C C N
;
_chemical_formula_sum "Si O2"
_cell_formula_units_Z 60
_cell_length_a 9.287806
_cell_length_b 24.748373
_cell_length_c 11.711683
_cell_angle_alpha 90.000000
_cell_angle_beta 90.000000
_cell_angle_gamma 90.000000
_cell_volume 2692.025053
_symmetry_space_group_name_H-M "P C C N"
_symmetry_group_IT_number 56
_symmetry_cell_setting 'orthorhombic'
loop_
_space_group_symop_operation_xyz
x,y,z
1/2-x,1/2-y,z
1/2+x,-y,1/2-z
-x,1/2+y,1/2-z
-x,-y,-z
1/2+x,1/2+y,-z
1/2-x,y,1/2+z
x,1/2-y,1/2+z
loop_
_atom_site_type_symbol
_atom_site_label
_atom_site_fract_x
_atom_site_fract_y
_atom_site_fract_z
Si Si1 0.557661 0.408965 0.964444
Si Si2 0.115038 0.544743 0.780562
Si Si3 0.344747 0.854362 0.940563
Si Si4 0.509325 0.152038 0.815486
Si Si5 0.309094 0.340000 0.854806
Si Si6 0.750000 0.750000 0.469107
Si Si7 0.510176 0.235466 0.196271
Si Si8 0.077028 0.543655 0.303178
O O1 0.682944 0.368903 0.014894
O O2 0.514957 0.446426 0.071125
O O3 0.622524 0.437521 0.852353
O O4 0.413599 0.381770 0.916148
O O5 0.095818 0.596684 0.861327
O O6 0.265054 0.520399 0.820546
O O7 0.001091 0.497135 0.780681
O O8 0.367574 0.800143 0.865669
O O9 0.442152 0.849977 0.053360
O O10 0.338055 0.140977 0.794480
O O11 0.550646 0.210966 0.766348
O O12 0.588508 0.102952 0.752367
O O13 0.414171 0.304377 0.775420
O O14 0.243129 0.301262 0.950374
O O15 0.894180 0.745148 0.396649
#
# Coordination Sequence:
#
# PCOD9433681 Si02
#       8
#     8   8   8   8   8   4   8   8
#     4  11  25  48  71 104 145 185 236 306 362 438
#     4  11  25  49  73 102 144 186 242 304 361 438
#     4  11  25  48  74 103 149 190 236 301 363 434
#     4  12  24  44  72 109 144 189 242 295 360 436
#     4  12  23  39  70 102 137 185 237 289 350 425
#     4  12  20  40  62 104 142 178 232 286 334 416
#     4  12  22  42  72 101 145 189 235 291 356 425
#     4  11  27  46  73 105 141 186 241 301 368 435
#
# _framework density 22.288053000000001
#
# number of rings (size 3 to 8) (size 9 to 14) (size 15 to 20)
#    0.000    0.533    6.667    1.200    1.867    1.600 
#    0.000   14.667    0.000    0.000    0.000    0.000 
#    0.000    0.000    0.000    0.000    0.000    0.000 
#
# Total GULP energy -335272.005040 kJ/mol
# GULP energy per Si atom -5587.866751 kJ/mol
# Density = 2.223732 g / cm^3
# Si number density = 22.288053 Si / 1000 Ang^3
#
#
#
# Elastic Constant Matrix: (Units=GPa)
#
#
# Indices 1 2 3 4 5 6 
#
# 1 45.4119 12.4263 -15.2198 0.0000 0.0000 0.0000
# 2 12.4263 34.3901 -8.5958 0.0000 0.0000 0.0000
# 3 -15.2198 -8.5958 66.3628 0.0000 0.0000 0.0000
# 4 0.0000 0.0000 0.0000 38.9709 0.0000 0.0000
# 5 0.0000 0.0000 0.0000 0.0000 249.1746 0.0000
# 6 0.0000 0.0000 0.0000 0.0000 0.0000 26.9577
#
#
#
# Elastic Compliance Matrix: (Units=1/GPa)
#
#
# Indices 1 2 3 4 5 6 
#
# 1 0.025882 -0.008132 0.004883 0.000000 0.000000 0.000000
# 2 -0.008132 0.032606 0.002358 0.000000 0.000000 0.000000
# 3 0.004883 0.002358 0.016494 0.000000 0.000000 0.000000
# 4 0.000000 0.000000 0.000000 0.025660 0.000000 0.000000
# 5 0.000000 0.000000 0.000000 0.000000 0.004013 0.000000
# 6 0.000000 0.000000 0.000000 0.000000 0.000000 0.037095
#
#
# Mechanical properties :
#
#
# Convention : Reuss Voigt Hill
#
# Bulk Modulus (GPa) = 13.66109 13.70959 13.68534
# Shear Modulus (GPa) = 29.77394 73.52425 51.64909
#
# Velocity S-wave (km/s) = 3.65892 5.74977 4.81910
# Velocity P-wave (km/s) = 4.89826 7.08831 6.09250
#
# Compressibility (1/GPa) = 0.07320061
#
# Stress axis : x y z
#
# Youngs Moduli (GPa) = 38.63664 30.66930 60.62832
#
# Poissons Ratio (x) = 0.24939 -0.29602
# Poissons Ratio (y) = 0.31418 -0.14299
# Poissons Ratio (z) = -0.18865 -0.07233
#
# Static dielectric constant tensor:
#      x y z
#    x 0.987640 0.000000 0.000000 
#    y 0.000000 1.852480 0.000000 
#    z 0.000000 0.000000 1.833160 
# 
# From -- ./inp_files/6553.got.cif
#   From: 2010.05.17/outbox.cif.g08.bks.cpg/sg56_4_cif.got.tgz:6553.got - 2010.06.03 13:42:01.
