data_PCOD9433877
_publ_section_title
;
Structure prediction by ZEFSAII (Michael W. Deem and Ramdas Pophale) SiO2 
 PCOD9433877
Probable space group: P C C N
;
_chemical_formula_sum "Si O2"
_cell_formula_units_Z 32
_cell_length_a 8.277307
_cell_length_b 11.588526
_cell_length_c 12.250988
_cell_angle_alpha 90.000000
_cell_angle_beta 90.000000
_cell_angle_gamma 90.000000
_cell_volume 1175.136666
_symmetry_space_group_name_H-M "P C C N"
_symmetry_group_IT_number 56
_symmetry_cell_setting 'orthorhombic'
loop_
_space_group_symop_operation_xyz
x,y,z
1/2-x,1/2-y,z
1/2+x,-y,1/2-z
-x,1/2+y,1/2-z
-x,-y,-z
1/2+x,1/2+y,-z
1/2-x,y,1/2+z
x,1/2-y,1/2+z
loop_
_atom_site_type_symbol
_atom_site_label
_atom_site_fract_x
_atom_site_fract_y
_atom_site_fract_z
Si Si1 0.649559 0.078119 0.887447
Si Si2 0.683796 0.619219 0.021146
Si Si3 0.008820 0.916135 0.233616
Si Si4 0.565611 0.248451 0.077848
O O1 0.699427 0.976519 0.971913
O O2 0.517172 0.033332 0.802116
O O3 0.020445 0.181852 0.675352
O O4 0.815945 0.099204 0.821524
O O5 0.750000 0.750000 0.013278
O O6 0.520614 0.631225 0.947798
O O7 0.627762 0.593068 0.142366
O O8 0.583135 0.181006 0.961925
O O9 0.750000 0.250000 0.114731
#
# Coordination Sequence:
#
# PCOD9433877 Si02
#       4
#     8   8   8   8
#     4  12  28  52  72 116 148 196 252 312 370 452
#     4  12  28  50  74 110 151 195 254 309 368 453
#     4  12  28  46  82 102 154 198 240 310 384 436
#     4  12  28  50  74 110 151 195 254 309 368 453
#
# _framework density 27.230874
#
# number of rings (size 3 to 8) (size 9 to 14) (size 15 to 20)
#    0.000    0.000    5.000    3.000   14.000    0.000 
#    0.000    0.000    0.000    0.000    0.000    0.000 
#    0.000    0.000    0.000    0.000    0.000    0.000 
#
# Total GULP energy -179714.635882 kJ/mol
# GULP energy per Si atom -5616.082371 kJ/mol
# Density = 2.716890 g / cm^3
# Si number density = 27.230874 Si / 1000 Ang^3
#
#
#
# Elastic Constant Matrix: (Units=GPa)
#
#
# Indices 1 2 3 4 5 6 
#
# 1 106.7447 17.4935 38.8732 0.0000 0.0000 0.0000
# 2 17.4935 86.5153 42.5801 0.0000 0.0000 0.0000
# 3 38.8732 42.5801 182.0112 0.0000 0.0000 0.0000
# 4 0.0000 0.0000 0.0000 37.7324 0.0000 0.0000
# 5 0.0000 0.0000 0.0000 0.0000 53.5689 0.0000
# 6 0.0000 0.0000 0.0000 0.0000 0.0000 51.4381
#
#
#
# Elastic Compliance Matrix: (Units=1/GPa)
#
#
# Indices 1 2 3 4 5 6 
#
# 1 0.010254 -0.001125 -0.001927 0.000000 0.000000 0.000000
# 2 -0.001125 0.013186 -0.002844 0.000000 0.000000 0.000000
# 3 -0.001927 -0.002844 0.006571 0.000000 0.000000 0.000000
# 4 0.000000 0.000000 0.000000 0.026502 0.000000 0.000000
# 5 0.000000 0.000000 0.000000 0.000000 0.018668 0.000000
# 6 0.000000 0.000000 0.000000 0.000000 0.000000 0.019441
#
#
# Mechanical properties :
#
#
# Convention : Reuss Voigt Hill
#
# Bulk Modulus (GPa) = 54.88888 63.68497 59.28692
# Shear Modulus (GPa) = 44.44917 46.96950 45.70933
#
# Velocity S-wave (km/s) = 4.04457 4.15765 4.10150
# Velocity P-wave (km/s) = 6.48166 6.81806 6.65199
#
# Compressibility (1/GPa) = 0.01821863
#
# Stress axis : x y z
#
# Youngs Moduli (GPa) = 97.52072 75.83740 152.18051
#
# Poissons Ratio (x) = 0.08532 0.29323
# Poissons Ratio (y) = 0.10972 0.43288
# Poissons Ratio (z) = 0.18791 0.21572
#
# Static dielectric constant tensor:
#      x y z
#    x 2.263230 0.000000 0.000000 
#    y 0.000000 2.134360 0.000000 
#    z 0.000000 0.000000 2.038690 
# 
# From -- ./inp_files/10060.got.cif
#   From: 2010.05.17/outbox.cif.g08.bks.cpg/sg56_6_cif.got.tgz:10060.got - 2010.06.03 13:42:01.
