data_PCOD9433091
_publ_section_title
;
Structure prediction by ZEFSAII (Michael W. Deem and Ramdas Pophale) SiO2 
 PCOD9433091
Probable space group: P C C N
;
_chemical_formula_sum "Si O2"
_cell_formula_units_Z 40
_cell_length_a 5.422813
_cell_length_b 18.598939
_cell_length_c 16.120504
_cell_angle_alpha 90.000000
_cell_angle_beta 90.000000
_cell_angle_gamma 90.000000
_cell_volume 1625.890952
_symmetry_space_group_name_H-M "P C C N"
_symmetry_group_IT_number 56
_symmetry_cell_setting 'orthorhombic'
loop_
_space_group_symop_operation_xyz
x,y,z
1/2-x,1/2-y,z
1/2+x,-y,1/2-z
-x,1/2+y,1/2-z
-x,-y,-z
1/2+x,1/2+y,-z
1/2-x,y,1/2+z
x,1/2-y,1/2+z
loop_
_atom_site_type_symbol
_atom_site_label
_atom_site_fract_x
_atom_site_fract_y
_atom_site_fract_z
Si Si1 0.997944 0.785828 0.821445
Si Si2 0.650650 0.074168 0.596192
Si Si3 0.502955 0.727859 0.133980
Si Si4 0.637282 0.421662 0.905877
Si Si5 0.007718 0.501071 0.196973
O O1 0.250000 0.750000 0.853134
O O2 0.015047 0.868676 0.845854
O O3 0.750000 0.750000 0.854572
O O4 0.996551 0.769875 0.722205
O O5 0.660830 0.099195 0.501662
O O6 0.921159 0.062130 0.635354
O O7 0.512481 0.996791 0.595241
O O8 0.750000 0.750000 0.088198
O O9 0.492896 0.642136 0.144282
O O10 0.250000 0.750000 0.090962
O O11 0.901360 0.435331 0.863169
O O12 0.755566 0.512302 0.249267
#
# Coordination Sequence:
#
# PCOD9433091 Si02
#       5
#     8   8   8   8   8
#     4  10  25  45  72 107 154 206 259 320 384 473
#     4  11  27  50  79 117 162 206 265 334 406 473
#     4  10  25  45  72 107 154 206 259 320 384 473
#     4  11  27  50  79 117 162 206 265 334 406 473
#     4  12  27  44  77 114 156 206 264 330 393 478
#
# _framework density 24.601896
#
# number of rings (size 3 to 8) (size 9 to 14) (size 15 to 20)
#    0.000    1.200    2.000    0.600   11.200    4.800 
#    0.000    0.000    0.000    0.000    0.000    0.000 
#    0.000    0.000    0.000    0.000    0.000    0.000 
#
# Total GULP energy -223621.122978 kJ/mol
# GULP energy per Si atom -5590.528074 kJ/mol
# Density = 2.454590 g / cm^3
# Si number density = 24.601896 Si / 1000 Ang^3
#
#
#
# Elastic Constant Matrix: (Units=GPa)
#
#
# Indices 1 2 3 4 5 6 
#
# 1 200.7284 52.8062 22.1651 0.0000 0.0000 0.0000
# 2 52.8062 155.2558 33.5845 0.0000 0.0000 0.0000
# 3 22.1651 33.5845 133.6607 0.0000 0.0000 0.0000
# 4 0.0000 0.0000 0.0000 24.3440 0.0000 0.0000
# 5 0.0000 0.0000 0.0000 0.0000 -8.5742 0.0000
# 6 0.0000 0.0000 0.0000 0.0000 0.0000 49.3291
#
#
#
# Elastic Compliance Matrix: (Units=1/GPa)
#
#
# Indices 1 2 3 4 5 6 
#
# 1 0.005499 -0.001769 -0.000467 0.000000 0.000000 0.000000
# 2 -0.001769 0.007380 -0.001561 0.000000 0.000000 0.000000
# 3 -0.000467 -0.001561 0.007951 0.000000 0.000000 0.000000
# 4 0.000000 0.000000 0.000000 0.041078 0.000000 0.000000
# 5 0.000000 0.000000 0.000000 0.000000 -0.116629 0.000000
# 6 0.000000 0.000000 0.000000 0.000000 0.000000 0.020272
#
#
# Mechanical properties :
#
#
# Convention : Reuss Voigt Hill
#
# Bulk Modulus (GPa) = 75.55464 78.52848 77.04156
# Shear Modulus (GPa) = -222.80085 38.42573 -92.18756
#
# Velocity S-wave (km/s) = -9.52676 3.95638 -6.12806
# Velocity P-wave (km/s) = 9.49919 7.27046 4.32290
#
# Compressibility (1/GPa) = 0.01323545
#
# Stress axis : x y z
#
# Youngs Moduli (GPa) = 181.85475 135.49363 125.76443
#
# Poissons Ratio (x) = 0.23972 0.05878
# Poissons Ratio (y) = 0.32174 0.19633
# Poissons Ratio (z) = 0.08499 0.21151
#
# Static dielectric constant tensor:
#      x y z
#    x 2.051420 0.000000 0.000000 
#    y 0.000000 2.010900 0.000000 
#    z 0.000000 0.000000 1.988960 
# 
# From -- ./inp_files/13825.got.cif
#   From: 2010.05.17/outbox.cif.g08.bks.cpg/sg56_7_cif.got.tgz:13825.got - 2010.06.03 13:42:01.
