data_PCOD9433535
_publ_section_title
;
Structure prediction by ZEFSAII (Michael W. Deem and Ramdas Pophale) SiO2 
 PCOD9433535
Probable space group: P C C N
;
_chemical_formula_sum "Si O2"
_cell_formula_units_Z 40
_cell_length_a 7.104835
_cell_length_b 14.702258
_cell_length_c 14.074056
_cell_angle_alpha 90.000000
_cell_angle_beta 90.000000
_cell_angle_gamma 90.000000
_cell_volume 1470.135317
_symmetry_space_group_name_H-M "P C C N"
_symmetry_group_IT_number 56
_symmetry_cell_setting 'orthorhombic'
loop_
_space_group_symop_operation_xyz
x,y,z
1/2-x,1/2-y,z
1/2+x,-y,1/2-z
-x,1/2+y,1/2-z
-x,-y,-z
1/2+x,1/2+y,-z
1/2-x,y,1/2+z
x,1/2-y,1/2+z
loop_
_atom_site_type_symbol
_atom_site_label
_atom_site_fract_x
_atom_site_fract_y
_atom_site_fract_z
Si Si1 0.214431 0.349361 0.424943
Si Si2 0.217145 0.905156 0.079972
Si Si3 0.339803 0.545002 0.368891
Si Si4 0.743029 0.889721 0.859037
Si Si5 0.900579 0.327561 0.744220
O O1 0.250000 0.250000 0.383721
O O2 0.314590 0.436455 0.376387
O O3 0.273527 0.349840 0.535126
O O4 0.990530 0.364848 0.425152
O O5 0.350711 0.843534 0.145471
O O6 0.189262 0.006414 0.122262
O O7 0.306526 0.919441 0.976146
O O8 0.470118 0.410980 0.673633
O O9 0.175529 0.581521 0.304687
O O10 0.888318 0.828901 0.798251
O O11 0.750000 0.250000 0.711843
#
# Coordination Sequence:
#
# PCOD9433535 Si02
#       5
#     8   8   8   8   8
#     4  11  23  47  85 120 154 210 278 333 404 486
#     4  11  24  51  79 113 160 213 263 327 404 477
#     4  11  25  52  85 112 161 216 262 333 408 483
#     4  11  25  51  80 110 157 212 264 328 406 474
#     4  12  29  49  78 120 162 207 272 333 400 490
#
# _framework density 27.208382
#
# number of rings (size 3 to 8) (size 9 to 14) (size 15 to 20)
#    0.000    0.800    4.000    3.600    5.600    4.000 
#    7.200    0.000    0.000    0.000    0.000    0.000 
#    0.000    0.000    0.000    0.000    0.000    0.000 
#
# Total GULP energy -224163.373165 kJ/mol
# GULP energy per Si atom -5604.084329 kJ/mol
# Density = 2.714645 g / cm^3
# Si number density = 27.208382 Si / 1000 Ang^3
#
#
#
# Elastic Constant Matrix: (Units=GPa)
#
#
# Indices 1 2 3 4 5 6 
#
# 1 176.9878 34.6602 4.5268 0.0000 0.0000 0.0000
# 2 34.6602 132.0345 15.6405 0.0000 0.0000 0.0000
# 3 4.5268 15.6405 92.6492 0.0000 0.0000 0.0000
# 4 0.0000 0.0000 0.0000 43.8848 0.0000 0.0000
# 5 0.0000 0.0000 0.0000 0.0000 18.8713 0.0000
# 6 0.0000 0.0000 0.0000 0.0000 0.0000 57.3628
#
#
#
# Elastic Compliance Matrix: (Units=1/GPa)
#
#
# Indices 1 2 3 4 5 6 
#
# 1 0.005956 -0.001560 -0.000028 0.000000 0.000000 0.000000
# 2 -0.001560 0.008137 -0.001297 0.000000 0.000000 0.000000
# 3 -0.000028 -0.001297 0.011014 0.000000 0.000000 0.000000
# 4 0.000000 0.000000 0.000000 0.022787 0.000000 0.000000
# 5 0.000000 0.000000 0.000000 0.000000 0.052991 0.000000
# 6 0.000000 0.000000 0.000000 0.000000 0.000000 0.017433
#
#
# Mechanical properties :
#
#
# Convention : Reuss Voigt Hill
#
# Bulk Modulus (GPa) = 51.71570 56.81405 54.26488
# Shear Modulus (GPa) = 38.30422 47.14670 42.72546
#
# Velocity S-wave (km/s) = 3.75615 4.16721 3.96701
# Velocity P-wave (km/s) = 6.15305 6.63932 6.40081
#
# Compressibility (1/GPa) = 0.01933649
#
# Stress axis : x y z
#
# Youngs Moduli (GPa) = 167.88721 122.89441 90.79538
#
# Poissons Ratio (x) = 0.19176 0.00251
# Poissons Ratio (y) = 0.26196 0.11780
# Poissons Ratio (z) = 0.00464 0.15945
#
# Static dielectric constant tensor:
#      x y z
#    x 2.235750 0.000000 0.000000 
#    y 0.000000 2.153780 0.000000 
#    z 0.000000 0.000000 2.145940 
# 
# From -- ./inp_files/10400.got.cif
#   From: 2010.05.17/outbox.cif.g08.bks.cpg/sg56_6_cif.got.tgz:10400.got - 2010.06.03 13:42:01.
