data_PCOD9433784
_publ_section_title
;
Structure prediction by ZEFSAII (Michael W. Deem and Ramdas Pophale) SiO2 
 PCOD9433784
Probable space group: P C C N
;
_chemical_formula_sum "Si O2"
_cell_formula_units_Z 36
_cell_length_a 5.199461
_cell_length_b 13.014695
_cell_length_c 22.630476
_cell_angle_alpha 90.000000
_cell_angle_beta 90.000000
_cell_angle_gamma 90.000000
_cell_volume 1531.390712
_symmetry_space_group_name_H-M "P C C N"
_symmetry_group_IT_number 56
_symmetry_cell_setting 'orthorhombic'
loop_
_space_group_symop_operation_xyz
x,y,z
1/2-x,1/2-y,z
1/2+x,-y,1/2-z
-x,1/2+y,1/2-z
-x,-y,-z
1/2+x,1/2+y,-z
1/2-x,y,1/2+z
x,1/2-y,1/2+z
loop_
_atom_site_type_symbol
_atom_site_label
_atom_site_fract_x
_atom_site_fract_y
_atom_site_fract_z
Si Si1 0.974267 0.562130 0.931085
Si Si2 0.970519 0.932610 0.080907
Si Si3 0.004313 0.688610 0.821716
Si Si4 0.750000 0.750000 0.507687
Si Si5 0.949549 0.946469 0.222892
O O1 0.745103 0.480391 0.934713
O O2 0.989046 0.589634 0.862036
O O3 0.245976 0.508349 0.942984
O O4 0.905094 0.667092 0.966726
O O5 0.923016 0.822564 0.050102
O O6 0.945917 0.935159 0.152461
O O7 0.750000 0.750000 0.833277
O O8 0.250000 0.750000 0.842119
O O9 0.022867 0.660609 0.753539
O O10 0.174981 0.021866 0.247697
#
# Coordination Sequence:
#
# PCOD9433784 Si02
#       5
#     8   8   8   4   8
#     4  12  26  49  76 103 146 193 242 297 358 433
#     4  12  27  50  72 110 145 191 242 301 366 430
#     4  12  24  42  73 107 143 187 242 288 353 442
#     4  12  30  48  76 106 144 192 248 302 358 424
#     4  12  23  45  72 103 145 185 231 295 364 427
#
# _framework density 23.508044000000002
#
# number of rings (size 3 to 8) (size 9 to 14) (size 15 to 20)
#    0.000    0.000    5.556    4.000    1.556    2.667 
#    0.000    0.000    0.000    0.000    0.000    0.000 
#    0.000    0.000    0.000    0.000    0.000    0.000 
#
# Total GULP energy -201416.918864 kJ/mol
# GULP energy per Si atom -5594.914413 kJ/mol
# Density = 2.345454 g / cm^3
# Si number density = 23.508044 Si / 1000 Ang^3
#
#
#
# Elastic Constant Matrix: (Units=GPa)
#
#
# Indices 1 2 3 4 5 6 
#
# 1 769.4650 630.1395 194.7814 0.0000 0.0000 0.0000
# 2 630.1395 636.3396 196.5036 0.0000 0.0000 0.0000
# 3 194.7814 196.5036 241.9850 0.0000 0.0000 0.0000
# 4 0.0000 0.0000 0.0000 54.4859 0.0000 0.0000
# 5 0.0000 0.0000 0.0000 0.0000 136.1870 0.0000
# 6 0.0000 0.0000 0.0000 0.0000 0.0000 35.9612
#
#
#
# Elastic Compliance Matrix: (Units=1/GPa)
#
#
# Indices 1 2 3 4 5 6 
#
# 1 0.006875 -0.006805 -0.000007 0.000000 0.000000 0.000000
# 2 -0.006805 0.008834 -0.001696 0.000000 0.000000 0.000000
# 3 -0.000007 -0.001696 0.005516 0.000000 0.000000 0.000000
# 4 0.000000 0.000000 0.000000 0.018353 0.000000 0.000000
# 5 0.000000 0.000000 0.000000 0.000000 0.007343 0.000000
# 6 0.000000 0.000000 0.000000 0.000000 0.000000 0.027808
#
#
# Mechanical properties :
#
#
# Convention : Reuss Voigt Hill
#
# Bulk Modulus (GPa) = 237.69118 410.07095 323.88106
# Shear Modulus (GPa) = 53.67813 87.08449 70.38131
#
# Velocity S-wave (km/s) = 4.78367 6.09303 5.47761
# Velocity P-wave (km/s) = 11.48222 14.97722 13.34464
#
# Compressibility (1/GPa) = 0.00420714
#
# Stress axis : x y z
#
# Youngs Moduli (GPa) = 145.46504 113.19665 181.30383
#
# Poissons Ratio (x) = 0.77033 0.00132
# Poissons Ratio (y) = 0.98993 0.30749
# Poissons Ratio (z) = 0.00106 0.19198
#
# Static dielectric constant tensor:
#      x y z
#    x 1.873240 0.000000 0.000000 
#    y 0.000000 1.913810 0.000000 
#    z 0.000000 0.000000 1.921790 
# 
# From -- ./inp_files/19880.got.cif
#   From: 2010.05.17/outbox.cif.g08.bks.cpg/sg56_10_cif.got.tgz:19880.got - 2010.06.03 13:42:01.
