data_PCOD9433727
_publ_section_title
;
Structure prediction by ZEFSAII (Michael W. Deem and Ramdas Pophale) SiO2 
 PCOD9433727
Probable space group: P C C N
;
_chemical_formula_sum "Si O2"
_cell_formula_units_Z 24
_cell_length_a 5.112906
_cell_length_b 13.875293
_cell_length_c 12.628001
_cell_angle_alpha 90.000000
_cell_angle_beta 90.000000
_cell_angle_gamma 90.000000
_cell_volume 895.869144
_symmetry_space_group_name_H-M "P C C N"
_symmetry_group_IT_number 56
_symmetry_cell_setting 'orthorhombic'
loop_
_space_group_symop_operation_xyz
x,y,z
1/2-x,1/2-y,z
1/2+x,-y,1/2-z
-x,1/2+y,1/2-z
-x,-y,-z
1/2+x,1/2+y,-z
1/2-x,y,1/2+z
x,1/2-y,1/2+z
loop_
_atom_site_type_symbol
_atom_site_label
_atom_site_fract_x
_atom_site_fract_y
_atom_site_fract_z
Si Si1 0.664965 0.529720 0.896344
Si Si2 0.116797 0.648550 0.218664
Si Si3 0.513049 0.814583 0.989649
O O1 0.693187 0.432888 0.828375
O O2 0.520095 0.603299 0.819030
O O3 0.500000 0.500000 0.000000
O O4 0.936719 0.584126 0.929436
O O5 0.250000 0.750000 0.244204
O O6 0.941219 0.665248 0.114346
O O7 0.750000 0.750000 0.951347
O O8 0.250000 0.750000 0.983760
#
# Coordination Sequence:
#
# PCOD9433727 Si02
#       3
#     8   8   8
#     4  12  26  48  82 121 166 224 283 351 430 515
#     4  11  27  50  77 118 163 213 277 346 415 503
#     4  11  26  50  81 119 164 217 274 339 420 506
#
# _framework density 26.789625999999998
#
# number of rings (size 3 to 8) (size 9 to 14) (size 15 to 20)
#    0.000    0.667    0.000    7.000    0.000   12.000 
#    0.000    1.667    0.000    0.000    0.000    0.000 
#    0.000    0.000    0.000    0.000    0.000    0.000 
#
# Total GULP energy -134562.148454 kJ/mol
# GULP energy per Si atom -5606.756186 kJ/mol
# Density = 2.672865 g / cm^3
# Si number density = 26.789626 Si / 1000 Ang^3
#
#
#
# Elastic Constant Matrix: (Units=GPa)
#
#
# Indices 1 2 3 4 5 6 
#
# 1 137.6427 92.3391 60.1695 0.0000 0.0000 0.0000
# 2 92.3391 260.7055 101.7640 0.0000 0.0000 0.0000
# 3 60.1695 101.7640 200.3731 0.0000 0.0000 0.0000
# 4 0.0000 0.0000 0.0000 32.2583 0.0000 0.0000
# 5 0.0000 0.0000 0.0000 0.0000 12.0964 0.0000
# 6 0.0000 0.0000 0.0000 0.0000 0.0000 67.2238
#
#
#
# Elastic Compliance Matrix: (Units=1/GPa)
#
#
# Indices 1 2 3 4 5 6 
#
# 1 0.009870 -0.002917 -0.001482 0.000000 0.000000 0.000000
# 2 -0.002917 0.005646 -0.001992 0.000000 0.000000 0.000000
# 3 -0.001482 -0.001992 0.006447 0.000000 0.000000 0.000000
# 4 0.000000 0.000000 0.000000 0.031000 0.000000 0.000000
# 5 0.000000 0.000000 0.000000 0.000000 0.082669 0.000000
# 6 0.000000 0.000000 0.000000 0.000000 0.000000 0.014876
#
#
# Mechanical properties :
#
#
# Convention : Reuss Voigt Hill
#
# Bulk Modulus (GPa) = 108.91460 123.02963 115.97211
# Shear Modulus (GPa) = 30.05674 45.27893 37.66783
#
# Velocity S-wave (km/s) = 3.35319 4.11562 3.75382
# Velocity P-wave (km/s) = 7.46563 8.28303 7.88493
#
# Compressibility (1/GPa) = 0.00918151
#
# Stress axis : x y z
#
# Youngs Moduli (GPa) = 101.31400 177.10203 155.10371
#
# Poissons Ratio (x) = 0.51667 0.22991
# Poissons Ratio (y) = 0.29557 0.30891
# Poissons Ratio (z) = 0.15018 0.35272
#
# Static dielectric constant tensor:
#      x y z
#    x 2.175040 0.000000 0.000000 
#    y 0.000000 2.212770 0.000000 
#    z 0.000000 0.000000 2.048790 
# 
# From -- ./inp_files/9289.got.cif
#   From: 2010.05.17/outbox.cif.g08.bks.cpg/sg56_5_cif.got.tgz:9289.got - 2010.06.03 13:42:01.
