data_PCOD9433778
_publ_section_title
;
Structure prediction by ZEFSAII (Michael W. Deem and Ramdas Pophale) SiO2 
 PCOD9433778
Probable space group: P C C N
;
_chemical_formula_sum "Si O2"
_cell_formula_units_Z 40
_cell_length_a 7.593710
_cell_length_b 6.646661
_cell_length_c 27.789489
_cell_angle_alpha 90.000000
_cell_angle_beta 90.000000
_cell_angle_gamma 90.000000
_cell_volume 1402.613768
_symmetry_space_group_name_H-M "P C C N"
_symmetry_group_IT_number 56
_symmetry_cell_setting 'orthorhombic'
loop_
_space_group_symop_operation_xyz
x,y,z
1/2-x,1/2-y,z
1/2+x,-y,1/2-z
-x,1/2+y,1/2-z
-x,-y,-z
1/2+x,1/2+y,-z
1/2-x,y,1/2+z
x,1/2-y,1/2+z
loop_
_atom_site_type_symbol
_atom_site_label
_atom_site_fract_x
_atom_site_fract_y
_atom_site_fract_z
Si Si1 0.387647 0.874089 0.896389
Si Si2 0.250000 0.750000 0.568666
Si Si3 0.000000 0.000000 0.500000
Si Si4 0.111354 0.876087 0.213574
Si Si5 0.611968 0.623727 0.304461
Si Si6 0.892818 0.874461 0.123670
O O1 0.426128 0.878536 0.953053
O O2 0.553448 0.878392 0.860005
O O3 0.156255 0.878783 0.888343
O O4 0.338741 0.126975 0.887339
O O5 0.159150 0.912349 0.534232
O O6 0.408938 0.852997 0.599050
O O7 0.160215 0.625812 0.205214
O O8 0.160367 0.124464 0.203056
O O9 0.933381 0.875909 0.180668
O O10 0.059050 0.876145 0.269586
#
# Coordination Sequence:
#
# PCOD9433778 Si02
#       6
#     8   4   4   8   8   8
#     4  12  26  48  71 108 148 197 250 312 379 449
#     4  12  26  52  74 116 146 196 256 314 386 448
#     4  12  26  50  76 108 148 196 260 310 390 440
#     4  12  23  42  71 106 146 190 242 298 370 446
#     4  12  25  45  69 108 149 198 243 305 374 450
#     4  12  24  47  77 110 149 192 248 309 373 452
#
# _framework density 28.518186
#
# number of rings (size 3 to 8) (size 9 to 14) (size 15 to 20)
#    0.000    0.000    4.000    7.200    0.000    0.800 
#    7.200    0.000    0.000    0.000    0.000    0.000 
#    0.000    0.000    0.000    0.000    0.000    0.000 
#
# Total GULP energy -222808.955385 kJ/mol
# GULP energy per Si atom -5570.223885 kJ/mol
# Density = 2.845328 g / cm^3
# Si number density = 28.518186 Si / 1000 Ang^3
#
#
#
# Elastic Constant Matrix: (Units=GPa)
#
#
# Indices 1 2 3 4 5 6 
#
# 1 233.4275 116.3483 77.1852 0.0000 0.0000 0.0000
# 2 116.3483 282.2638 2.7843 0.0000 0.0000 0.0000
# 3 77.1852 2.7843 142.1285 0.0000 0.0000 0.0000
# 4 0.0000 0.0000 0.0000-1887.8557 0.0000 0.0000
# 5 0.0000 0.0000 0.0000 0.0000 21.4389 0.0000
# 6 0.0000 0.0000 0.0000 0.0000 0.0000 108.7651
#
#
#
# Elastic Compliance Matrix: (Units=1/GPa)
#
#
# Indices 1 2 3 4 5 6 
#
# 1 0.006907 -0.002811 -0.003696 0.000000 0.000000 0.000000
# 2 -0.002811 0.004687 0.001434 0.000000 0.000000 0.000000
# 3 -0.003696 0.001434 0.009015 0.000000 0.000000 0.000000
# 4 0.000000 0.000000 0.000000 -0.000530 0.000000 0.000000
# 5 0.000000 0.000000 0.000000 0.000000 0.046644 0.000000
# 6 0.000000 0.000000 0.000000 0.000000 0.000000 0.009194
#
#
# Mechanical properties :
#
#
# Convention : Reuss Voigt Hill
#
# Bulk Modulus (GPa) = 95.55568 116.71728 106.13648
# Shear Modulus (GPa) = 55.83487 -320.76354 -132.46433
#
# Velocity S-wave (km/s) = 4.42958 -10.61702 -6.82275
# Velocity P-wave (km/s) = 7.72925 10.45364 4.97681
#
# Compressibility (1/GPa) = 0.01046510
#
# Stress axis : x y z
#
# Youngs Moduli (GPa) = 144.78181 213.34968 110.92769
#
# Poissons Ratio (x) = 0.59963 0.40997
# Poissons Ratio (y) = 0.40692 -0.15913
# Poissons Ratio (z) = 0.53509 -0.30605
#
# Static dielectric constant tensor:
#      x y z
#    x 2.153160 0.000000 0.000000 
#    y 0.000000 2.477020 0.000000 
#    z 0.000000 0.000000 1.848710 
# 
# From -- ./inp_files/21995.got.cif
#   From: 2010.05.17/outbox.cif.g08.bks.cpg/sg56_11_cif.got.tgz:21995.got - 2010.06.03 13:42:01.
