data_PCOD9433351
_publ_section_title
;
Structure prediction by ZEFSAII (Michael W. Deem and Ramdas Pophale) SiO2 
 PCOD9433351
Probable space group: P C C N
;
_chemical_formula_sum "Si O2"
_cell_formula_units_Z 48
_cell_length_a 18.096372
_cell_length_b 13.715364
_cell_length_c 8.169429
_cell_angle_alpha 90.000000
_cell_angle_beta 90.000000
_cell_angle_gamma 90.000000
_cell_volume 2027.638627
_symmetry_space_group_name_H-M "P C C N"
_symmetry_group_IT_number 56
_symmetry_cell_setting 'orthorhombic'
loop_
_space_group_symop_operation_xyz
x,y,z
1/2-x,1/2-y,z
1/2+x,-y,1/2-z
-x,1/2+y,1/2-z
-x,-y,-z
1/2+x,1/2+y,-z
1/2-x,y,1/2+z
x,1/2-y,1/2+z
loop_
_atom_site_type_symbol
_atom_site_label
_atom_site_fract_x
_atom_site_fract_y
_atom_site_fract_z
Si Si1 0.963324 0.716068 0.158178
Si Si2 0.674253 0.032213 0.015733
Si Si3 0.934775 0.519925 0.303835
Si Si4 0.135147 0.778354 0.666745
Si Si5 0.426136 0.396808 0.677359
Si Si6 0.334673 0.903202 0.488649
O O1 0.951286 0.634400 0.298784
O O2 0.914928 0.811436 0.191484
O O3 0.048600 0.747500 0.165075
O O4 0.948749 0.660637 0.988813
O O5 0.649665 0.142458 0.974924
O O6 0.761858 0.032702 0.027230
O O7 0.642466 0.964386 0.870530
O O8 0.633141 0.997151 0.178269
O O9 0.905561 0.469390 0.468513
O O10 0.005439 0.464864 0.228985
O O11 0.176924 0.677713 0.631971
O O12 0.153462 0.836101 0.830985
#
# Coordination Sequence:
#
# PCOD9433351 Si02
#       6
#     8   8   8   8   8   8
#     4  11  22  40  67  98 125 169 219 262 316 371
#     4  11  23  43  60  90 132 174 207 262 326 376
#     4  11  22  43  66  92 130 175 213 262 315 382
#     4  12  22  39  62  99 134 164 208 263 321 389
#     4  11  22  42  67  90 131 169 215 268 312 380
#     4  12  26  38  64  97 135 168 210 260 328 391
#
# _framework density 23.672858999999999
#
# number of rings (size 3 to 8) (size 9 to 14) (size 15 to 20)
#    0.000    0.667    5.000    4.500    0.000    3.333 
#    0.000    0.833    0.000    4.000    0.000    0.000 
#    0.000    0.000    0.000    0.000    0.000    0.000 
#
# Total GULP energy -269119.044859 kJ/mol
# GULP energy per Si atom -5606.646768 kJ/mol
# Density = 2.361898 g / cm^3
# Si number density = 23.672859 Si / 1000 Ang^3
#
#
#
# Elastic Constant Matrix: (Units=GPa)
#
#
# Indices 1 2 3 4 5 6 
#
# 1 76.7841 22.5896 26.5774 0.0000 0.0000 0.0000
# 2 22.5896 113.7286 6.3736 0.0000 0.0000 0.0000
# 3 26.5774 6.3736 77.7720 0.0000 0.0000 0.0000
# 4 0.0000 0.0000 0.0000 42.3600 0.0000 0.0000
# 5 0.0000 0.0000 0.0000 0.0000 24.9976 0.0000
# 6 0.0000 0.0000 0.0000 0.0000 0.0000 35.5449
#
#
#
# Elastic Compliance Matrix: (Units=1/GPa)
#
#
# Indices 1 2 3 4 5 6 
#
# 1 0.015620 -0.002816 -0.005107 0.000000 0.000000 0.000000
# 2 -0.002816 0.009341 0.000197 0.000000 0.000000 0.000000
# 3 -0.005107 0.000197 0.014587 0.000000 0.000000 0.000000
# 4 0.000000 0.000000 0.000000 0.023607 0.000000 0.000000
# 5 0.000000 0.000000 0.000000 0.000000 0.040004 0.000000
# 6 0.000000 0.000000 0.000000 0.000000 0.000000 0.028133
#
#
# Mechanical properties :
#
#
# Convention : Reuss Voigt Hill
#
# Bulk Modulus (GPa) = 41.50179 42.15178 41.82679
# Shear Modulus (GPa) = 32.30449 34.76344 33.53396
#
# Velocity S-wave (km/s) = 3.69809 3.83625 3.76780
# Velocity P-wave (km/s) = 5.98364 6.12103 6.05272
#
# Compressibility (1/GPa) = 0.02409534
#
# Stress axis : x y z
#
# Youngs Moduli (GPa) = 64.02143 107.05235 68.55329
#
# Poissons Ratio (x) = 0.30149 0.35010
# Poissons Ratio (y) = 0.18030 -0.01350
# Poissons Ratio (z) = 0.32696 -0.02108
#
# Static dielectric constant tensor:
#      x y z
#    x 1.847060 0.000000 0.000000 
#    y 0.000000 1.868050 0.000000 
#    z 0.000000 0.000000 2.037500 
# 
# From -- ./inp_files/4006.got.cif
#   From: 2010.05.17/outbox.cif.g08.bks.cpg/sg56_3_cif.got.tgz:4006.got - 2010.06.03 13:42:01.
