data_PCOD9433924
_publ_section_title
;
Structure prediction by ZEFSAII (Michael W. Deem and Ramdas Pophale) SiO2 
 PCOD9433924
Probable space group: P C C N
;
_chemical_formula_sum "Si O2"
_cell_formula_units_Z 48
_cell_length_a 9.000000
_cell_length_b 15.000000
_cell_length_c 18.000000
_cell_angle_alpha 90.000000
_cell_angle_beta 90.000000
_cell_angle_gamma 90.000000
_cell_volume 2430.000000
_symmetry_space_group_name_H-M "P C C N"
_symmetry_group_IT_number 56
_symmetry_cell_setting 'orthorhombic'
loop_
_space_group_symop_operation_xyz
x,y,z
1/2-x,1/2-y,z
1/2+x,-y,1/2-z
-x,1/2+y,1/2-z
-x,-y,-z
1/2+x,1/2+y,-z
1/2-x,y,1/2+z
x,1/2-y,1/2+z
loop_
_atom_site_type_symbol
_atom_site_label
_atom_site_fract_x
_atom_site_fract_y
_atom_site_fract_z
Si Si1 0.238664 0.493821 0.345692
Si Si2 0.421382 0.477567 0.697918
Si Si3 0.622074 0.326067 0.322533
Si Si4 0.881641 0.317354 0.656146
Si Si5 0.854828 0.665063 0.066256
Si Si6 0.107013 0.189110 0.593448
O O1 0.402614 0.507514 0.310943
O O2 0.127081 0.463283 0.281957
O O3 0.178065 0.588878 0.372181
O O4 0.261074 0.418100 0.405241
O O5 0.336665 0.568063 0.670270
O O6 0.388183 0.388056 0.653689
O O7 0.750000 0.250000 0.329823
O O8 0.552202 0.326954 0.239052
O O9 0.491434 0.311945 0.380589
O O10 0.750000 0.250000 0.671381
O O11 0.981615 0.263060 0.601261
O O12 0.750000 0.750000 0.061655
O O13 0.912303 0.642302 0.985043
O O14 0.250000 0.250000 0.599023
#
# Coordination Sequence:
#
# PCOD9433924 Si02
#       6
#     8   8   8   8   8   8
#     4  10  22  39  66  93 121 160 210 258 306 371
#     4  10  22  39  63  93 120 159 206 254 309 368
#     4   9  21  39  62  90 119 157 207 256 301 362
#     4  10  20  40  63  90 118 161 212 252 304 370
#     4  10  24  42  57  91 125 161 205 251 318 367
#     4  11  25  41  59  90 128 166 202 251 316 374
#
# _framework density 19.753086
#
# number of rings (size 3 to 8) (size 9 to 14) (size 15 to 20)
#    0.000    2.000    1.667    0.000    9.333    3.333 
#    3.000    1.667    0.000    0.000    0.000    0.000 
#    0.000    0.000    0.000    0.000    0.000    0.000 
#
# Total GULP energy -267235.554505 kJ/mol
# GULP energy per Si atom -5567.407386 kJ/mol
# Density = 1.970813 g / cm^3
# Si number density = 19.753086 Si / 1000 Ang^3
#
#
#
# Elastic Constant Matrix: (Units=GPa)
#
#
# Indices 1 2 3 4 5 6 
#
# 1 -7.0259 26.5268 15.3072 0.0000 0.0000 0.0000
# 2 26.5268 142.0648 56.4125 0.0000 0.0000 0.0000
# 3 15.3072 56.4125 25.1075 0.0000 0.0000 0.0000
# 4 0.0000 0.0000 0.0000 32.3411 0.0000 0.0000
# 5 0.0000 0.0000 0.0000 0.0000 322.9580 0.0000
# 6 0.0000 0.0000 0.0000 0.0000 0.0000 35.3749
#
#
#
# Elastic Compliance Matrix: (Units=1/GPa)
#
#
# Indices 1 2 3 4 5 6 
#
# 1 -0.049024 -0.025179 0.086461 0.000000 0.000000 0.000000
# 2 -0.025179 0.052363 -0.102300 0.000000 0.000000 0.000000
# 3 0.086461 -0.102300 0.216969 0.000000 0.000000 0.000000
# 4 0.000000 0.000000 0.000000 0.030920 0.000000 0.000000
# 5 0.000000 0.000000 0.000000 0.000000 0.003096 0.000000
# 6 0.000000 0.000000 0.000000 0.000000 0.000000 0.028269
#
#
# Mechanical properties :
#
#
# Convention : Reuss Voigt Hill
#
# Bulk Modulus (GPa) = 7.23215 39.62660 23.42938
# Shear Modulus (GPa) = 12.17374 82.26146 47.21760
#
# Velocity S-wave (km/s) = 2.48522 6.46028 4.89447
# Velocity P-wave (km/s) = 3.45027 8.70354 6.62027
#
# Compressibility (1/GPa) = 0.13827146
#
# Stress axis : x y z
#
# Youngs Moduli (GPa) = -20.39814 19.09745 4.60896
#
# Poissons Ratio (x) = 0.48085 -0.39850
# Poissons Ratio (y) = -0.51360 0.47150
# Poissons Ratio (z) = 1.76365 1.95368
#
# Static dielectric constant tensor:
#      x y z
#    x 1.685030 0.000000 0.000000 
#    y 0.000000 1.724980 0.000000 
#    z 0.000000 0.000000 1.744220 
# 
# From -- ./inp_files/14806.got.cif
#   From: 2010.05.17/outbox.ucp.g08.bks.cvg/sg56_8_cif.got.tgz:14806.got - 2010.06.11 16:37:52.
