data_PCOD9433793
_publ_section_title
;
Structure prediction by ZEFSAII (Michael W. Deem and Ramdas Pophale) SiO2 
 PCOD9433793
Probable space group: P C C N
;
_chemical_formula_sum "Si O2"
_cell_formula_units_Z 24
_cell_length_a 10.296508
_cell_length_b 4.510860
_cell_length_c 18.994432
_cell_angle_alpha 90.000000
_cell_angle_beta 90.000000
_cell_angle_gamma 90.000000
_cell_volume 882.217404
_symmetry_space_group_name_H-M "P C C N"
_symmetry_group_IT_number 56
_symmetry_cell_setting 'orthorhombic'
loop_
_space_group_symop_operation_xyz
x,y,z
1/2-x,1/2-y,z
1/2+x,-y,1/2-z
-x,1/2+y,1/2-z
-x,-y,-z
1/2+x,1/2+y,-z
1/2-x,y,1/2+z
x,1/2-y,1/2+z
loop_
_atom_site_type_symbol
_atom_site_label
_atom_site_fract_x
_atom_site_fract_y
_atom_site_fract_z
Si Si1 0.611392 0.189534 0.538713
Si Si2 0.347014 0.908270 0.725214
Si Si3 0.938655 0.776887 0.634760
O O1 0.750000 0.250000 0.500530
O O2 0.549005 0.479945 0.573595
O O3 0.500000 0.000000 0.500000
O O4 0.654888 0.976058 0.603882
O O5 0.595767 0.541340 0.704881
O O6 0.436051 0.919665 0.657760
O O7 0.308699 0.547985 0.724691
#
# Coordination Sequence:
#
# PCOD9433793 Si02
#       3
#     8   8   8
#     4  12  27  49  76 106 147 201 257 313 372 446
#     4  12  24  42  72 111 150 189 239 307 382 457
#     4  12  25  45  74 109 148 196 249 308 383 455
#
# _framework density 27.204177999999999
#
# number of rings (size 3 to 8) (size 9 to 14) (size 15 to 20)
#    0.000    0.000    0.000   13.000    0.000    1.333 
#    0.000   10.000    0.000    0.000    0.000    0.000 
#    0.000    0.000    0.000    0.000    0.000    0.000 
#
# Total GULP energy -133624.524210 kJ/mol
# GULP energy per Si atom -5567.688509 kJ/mol
# Density = 2.714226 g / cm^3
# Si number density = 27.204178 Si / 1000 Ang^3
#
#
#
# Elastic Constant Matrix: (Units=GPa)
#
#
# Indices 1 2 3 4 5 6 
#
# 1 148.2616 35.3841 48.4534 0.0000 0.0000 0.0000
# 2 35.3841 131.0702 49.9770 0.0000 0.0000 0.0000
# 3 48.4534 49.9770 94.8396 0.0000 0.0000 0.0000
# 4 0.0000 0.0000 0.0000 50.2385 0.0000 0.0000
# 5 0.0000 0.0000 0.0000 0.0000 40.6618 0.0000
# 6 0.0000 0.0000 0.0000 0.0000 0.0000 50.4442
#
#
#
# Elastic Compliance Matrix: (Units=1/GPa)
#
#
# Indices 1 2 3 4 5 6 
#
# 1 0.008158 -0.000767 -0.003764 0.000000 0.000000 0.000000
# 2 -0.000767 0.009620 -0.004677 0.000000 0.000000 0.000000
# 3 -0.003764 -0.004677 0.014932 0.000000 0.000000 0.000000
# 4 0.000000 0.000000 0.000000 0.019905 0.000000 0.000000
# 5 0.000000 0.000000 0.000000 0.000000 0.024593 0.000000
# 6 0.000000 0.000000 0.000000 0.000000 0.000000 0.019824
#
#
# Mechanical properties :
#
#
# Convention : Reuss Voigt Hill
#
# Bulk Modulus (GPa) = 69.96311 71.31116 70.63714
# Shear Modulus (GPa) = 41.59290 44.29269 42.94279
#
# Velocity S-wave (km/s) = 3.91438 4.03942 3.97739
# Velocity P-wave (km/s) = 6.79731 6.93009 6.86402
#
# Compressibility (1/GPa) = 0.01429325
#
# Stress axis : x y z
#
# Youngs Moduli (GPa) = 122.58021 103.94847 66.97146
#
# Poissons Ratio (x) = 0.07976 0.25205
# Poissons Ratio (y) = 0.09406 0.31326
# Poissons Ratio (z) = 0.46133 0.48621
#
# Static dielectric constant tensor:
#      x y z
#    x 2.239180 0.000000 0.000000 
#    y 0.000000 2.268220 0.000000 
#    z 0.000000 0.000000 2.117740 
# 
# From -- ./inp_files/17153.got.cif
#   From: 2010.05.17/outbox.cif.g08.bks.cpg/sg56_9_cif.got.tgz:17153.got - 2010.06.03 13:42:01.
