data_PCOD9433187
_publ_section_title
;
Structure prediction by ZEFSAII (Michael W. Deem and Ramdas Pophale) SiO2 
 PCOD9433187
Probable space group: P C C N
;
_chemical_formula_sum "Si O2"
_cell_formula_units_Z 48
_cell_length_a 17.553485
_cell_length_b 7.339536
_cell_length_c 14.259661
_cell_angle_alpha 90.000000
_cell_angle_beta 90.000000
_cell_angle_gamma 90.000000
_cell_volume 1837.135369
_symmetry_space_group_name_H-M "P C C N"
_symmetry_group_IT_number 56
_symmetry_cell_setting 'orthorhombic'
loop_
_space_group_symop_operation_xyz
x,y,z
1/2-x,1/2-y,z
1/2+x,-y,1/2-z
-x,1/2+y,1/2-z
-x,-y,-z
1/2+x,1/2+y,-z
1/2-x,y,1/2+z
x,1/2-y,1/2+z
loop_
_atom_site_type_symbol
_atom_site_label
_atom_site_fract_x
_atom_site_fract_y
_atom_site_fract_z
Si Si1 0.425509 0.116116 0.014438
Si Si2 0.234909 0.465383 0.943435
Si Si3 0.377588 0.608048 0.063633
Si Si4 0.047818 0.017319 0.895769
Si Si5 0.367300 0.358568 0.716863
Si Si6 0.706267 0.025143 0.263416
O O1 0.416781 0.150651 0.124103
O O2 0.347366 0.012420 0.989793
O O3 0.427542 0.297594 0.951562
O O4 0.500000 0.000000 0.000000
O O5 0.250000 0.250000 0.925284
O O6 0.228957 0.565451 0.843717
O O7 0.301797 0.525227 0.013441
O O8 0.456828 0.530167 0.108978
O O9 0.335524 0.661160 0.163425
O O10 0.420812 0.645471 0.961650
O O11 0.088922 0.031170 0.796952
O O12 0.348680 0.151578 0.746344
O O13 0.285424 0.447335 0.695744
#
# Coordination Sequence:
#
# PCOD9433187 Si02
#       6
#     8   8   8   8   8   8
#     4  12  25  40  60  93 128 162 205 267 313 368
#     4  12  19  38  61  93 120 158 213 255 307 372
#     4  11  22  36  63  89 128 158 203 257 317 367
#     4  11  23  39  56  96 128 161 202 261 322 369
#     4  11  20  35  62  92 120 155 210 257 308 363
#     4  11  18  33  63  91 114 155 208 260 299 367
#
# _framework density 26.127634
#
# number of rings (size 3 to 8) (size 9 to 14) (size 15 to 20)
#    0.000    0.667   10.000    0.000    2.333    0.000 
#    0.000    0.833    0.000    0.000    4.333    0.000 
#    0.000    0.000    0.000    0.000    0.000    0.000 
#
# Total GULP energy -267587.451798 kJ/mol
# GULP energy per Si atom -5574.738579 kJ/mol
# Density = 2.606817 g / cm^3
# Si number density = 26.127634 Si / 1000 Ang^3
#
#
#
# Elastic Constant Matrix: (Units=GPa)
#
#
# Indices 1 2 3 4 5 6 
#
# 1 200.1635 22.6812 56.5259 0.0000 0.0000 0.0000
# 2 22.6812 63.8734 24.5397 0.0000 0.0000 0.0000
# 3 56.5259 24.5397 165.7773 0.0000 0.0000 0.0000
# 4 0.0000 0.0000 0.0000 -9.6491 0.0000 0.0000
# 5 0.0000 0.0000 0.0000 0.0000 57.9784 0.0000
# 6 0.0000 0.0000 0.0000 0.0000 0.0000 28.4313
#
#
#
# Elastic Compliance Matrix: (Units=1/GPa)
#
#
# Indices 1 2 3 4 5 6 
#
# 1 0.005634 -0.001339 -0.001723 0.000000 0.000000 0.000000
# 2 -0.001339 0.016918 -0.002048 0.000000 0.000000 0.000000
# 3 -0.001723 -0.002048 0.006923 0.000000 0.000000 0.000000
# 4 0.000000 0.000000 0.000000 -0.103637 0.000000 0.000000
# 5 0.000000 0.000000 0.000000 0.000000 0.017248 0.000000
# 6 0.000000 0.000000 0.000000 0.000000 0.000000 0.035172
#
#
# Mechanical properties :
#
#
# Convention : Reuss Voigt Hill
#
# Bulk Modulus (GPa) = 51.93188 70.81199 61.37194
# Shear Modulus (GPa) = -979.72552 37.08996 -471.31778
#
# Velocity S-wave (km/s) = -19.38532 3.77180 -13.44552
# Velocity P-wave (km/s) = 21.93479 6.79190 14.74797
#
# Compressibility (1/GPa) = 0.01925599
#
# Stress axis : x y z
#
# Youngs Moduli (GPa) = 177.48851 59.10820 144.44997
#
# Poissons Ratio (x) = 0.07913 0.24888
# Poissons Ratio (y) = 0.23761 0.29582
# Poissons Ratio (z) = 0.30580 0.12105
#
# Static dielectric constant tensor:
#      x y z
#    x 1.973150 0.000000 0.000000 
#    y 0.000000 2.297180 0.000000 
#    z 0.000000 0.000000 2.030120 
# 
# From -- ./inp_files/12221.got.cif
#   From: 2010.05.17/outbox.cif.g08.bks.cpg/sg56_7_cif.got.tgz:12221.got - 2010.06.03 13:42:01.
