data_PCOD9433713
_publ_section_title
;
Structure prediction by ZEFSAII (Michael W. Deem and Ramdas Pophale) SiO2 
 PCOD9433713
Probable space group: P C C N
;
_chemical_formula_sum "Si O2"
_cell_formula_units_Z 48
_cell_length_a 12.410151
_cell_length_b 11.867014
_cell_length_c 14.774762
_cell_angle_alpha 90.000000
_cell_angle_beta 90.000000
_cell_angle_gamma 90.000000
_cell_volume 2175.900411
_symmetry_space_group_name_H-M "P C C N"
_symmetry_group_IT_number 56
_symmetry_cell_setting 'orthorhombic'
loop_
_space_group_symop_operation_xyz
x,y,z
1/2-x,1/2-y,z
1/2+x,-y,1/2-z
-x,1/2+y,1/2-z
-x,-y,-z
1/2+x,1/2+y,-z
1/2-x,y,1/2+z
x,1/2-y,1/2+z
loop_
_atom_site_type_symbol
_atom_site_label
_atom_site_fract_x
_atom_site_fract_y
_atom_site_fract_z
Si Si1 0.750000 0.250000 0.216896
Si Si2 0.155180 0.610464 0.438527
Si Si3 0.750000 0.750000 0.881248
Si Si4 0.596860 0.319248 0.875934
Si Si5 0.829422 0.538205 0.984821
Si Si6 0.939008 0.920588 0.832139
Si Si7 0.004878 0.901782 0.627140
O O1 0.723588 0.349697 0.147692
O O2 0.845582 0.273956 0.286011
O O3 0.153140 0.689671 0.526524
O O4 0.213952 0.499179 0.475856
O O5 0.033092 0.609820 0.403034
O O6 0.817634 0.659712 0.939219
O O7 0.838920 0.832107 0.832837
O O8 0.587689 0.451463 0.859031
O O9 0.497783 0.233366 0.884714
O O10 0.881611 0.450877 0.911856
O O11 0.912841 0.541299 0.067297
O O12 0.988251 0.926845 0.731886
#
# Coordination Sequence:
#
# PCOD9433713 Si02
#       7
#     4   8   4   8   8   8   8
#     4  12  24  44  74 106 142 196 254 312 376 458
#     4  12  25  46  75 109 148 201 252 313 384 466
#     4  12  28  48  74 112 150 202 256 324 394 464
#     4  12  25  46  72 107 147 196 251 316 378 457
#     4  11  26  47  75 108 152 203 252 320 395 454
#     4  12  28  47  74 111 151 200 255 317 386 468
#     4  11  26  48  74 108 154 198 257 322 382 467
#
# _framework density 22.059832
#
# number of rings (size 3 to 8) (size 9 to 14) (size 15 to 20)
#    0.000    0.333    3.333    5.000    4.667    4.667 
#    0.000    0.000    0.000    0.000    0.000    0.000 
#    0.000    0.000    0.000    0.000    0.000    0.000 
#
# Total GULP energy -267861.748373 kJ/mol
# GULP energy per Si atom -5580.453091 kJ/mol
# Density = 2.200962 g / cm^3
# Si number density = 22.059832 Si / 1000 Ang^3
#
#
#
# Elastic Constant Matrix: (Units=GPa)
#
#
# Indices 1 2 3 4 5 6 
#
# 1 78.8706 38.2363 42.5464 0.0000 0.0000 0.0000
# 2 38.2363 98.9260 50.8390 0.0000 0.0000 0.0000
# 3 42.5464 50.8390 170.2907 0.0000 0.0000 0.0000
# 4 0.0000 0.0000 0.0000 26.8224 0.0000 0.0000
# 5 0.0000 0.0000 0.0000 0.0000 36.8584 0.0000
# 6 0.0000 0.0000 0.0000 0.0000 0.0000 30.1294
#
#
#
# Elastic Compliance Matrix: (Units=1/GPa)
#
#
# Indices 1 2 3 4 5 6 
#
# 1 0.016541 -0.005043 -0.002627 0.000000 0.000000 0.000000
# 2 -0.005043 0.013478 -0.002764 0.000000 0.000000 0.000000
# 3 -0.002627 -0.002764 0.007354 0.000000 0.000000 0.000000
# 4 0.000000 0.000000 0.000000 0.037282 0.000000 0.000000
# 5 0.000000 0.000000 0.000000 0.000000 0.027131 0.000000
# 6 0.000000 0.000000 0.000000 0.000000 0.000000 0.033190
#
#
# Mechanical properties :
#
#
# Convention : Reuss Voigt Hill
#
# Bulk Modulus (GPa) = 60.58842 67.92564 64.25703
# Shear Modulus (GPa) = 30.98924 33.19308 32.09116
#
# Velocity S-wave (km/s) = 3.75211 3.88323 3.81823
# Velocity P-wave (km/s) = 6.80413 7.13894 6.97354
#
# Compressibility (1/GPa) = 0.01650480
#
# Stress axis : x y z
#
# Youngs Moduli (GPa) = 60.45531 74.19391 135.98439
#
# Poissons Ratio (x) = 0.37418 0.35724
# Poissons Ratio (y) = 0.30489 0.37583
# Poissons Ratio (z) = 0.15882 0.20505
#
# Static dielectric constant tensor:
#      x y z
#    x 1.901170 0.000000 0.000000 
#    y 0.000000 1.848910 0.000000 
#    z 0.000000 0.000000 1.754400 
# 
# From -- ./inp_files/12239.got.cif
#   From: 2010.05.17/outbox.cif.g08.bks.cpg/sg56_7_cif.got.tgz:12239.got - 2010.06.03 13:42:01.
