data_PCOD9433045
_publ_section_title
;
Structure prediction by ZEFSAII (Michael W. Deem and Ramdas Pophale) SiO2 
 PCOD9433045
Probable space group: P C C N
;
_chemical_formula_sum "Si O2"
_cell_formula_units_Z 40
_cell_length_a 15.605526
_cell_length_b 11.889723
_cell_length_c 9.781313
_cell_angle_alpha 90.000000
_cell_angle_beta 90.000000
_cell_angle_gamma 90.000000
_cell_volume 1814.877451
_symmetry_space_group_name_H-M "P C C N"
_symmetry_group_IT_number 56
_symmetry_cell_setting 'orthorhombic'
loop_
_space_group_symop_operation_xyz
x,y,z
1/2-x,1/2-y,z
1/2+x,-y,1/2-z
-x,1/2+y,1/2-z
-x,-y,-z
1/2+x,1/2+y,-z
1/2-x,y,1/2+z
x,1/2-y,1/2+z
loop_
_atom_site_type_symbol
_atom_site_label
_atom_site_fract_x
_atom_site_fract_y
_atom_site_fract_z
Si Si1 0.046914 0.389901 0.944940
Si Si2 0.294370 0.630273 0.818299
Si Si3 0.045916 0.660387 0.517084
Si Si4 0.288627 0.480740 0.554850
Si Si5 0.602689 0.548950 0.854744
O O1 0.074284 0.403067 0.788630
O O2 0.982480 0.286441 0.956463
O O3 0.136487 0.391346 0.028203
O O4 0.000000 0.500000 0.000000
O O5 0.250000 0.750000 0.794002
O O6 0.312170 0.566607 0.676772
O O7 0.382380 0.650346 0.900146
O O8 0.234898 0.552217 0.917712
O O9 0.085481 0.586073 0.639922
O O10 0.958437 0.601265 0.469322
O O11 0.199838 0.427544 0.605464
#
# Coordination Sequence:
#
# PCOD9433045 Si02
#       5
#     8   8   8   8   8
#     4  12  25  43  73 107 138 192 241 293 358 434
#     4  11  22  42  70 103 139 190 237 300 357 419
#     4  10  25  44  73 101 145 187 236 307 352 429
#     4  11  23  43  69 103 147 181 239 297 358 433
#     4  10  24  48  68 104 144 188 239 292 365 428
#
# _framework density 22.040056
#
# number of rings (size 3 to 8) (size 9 to 14) (size 15 to 20)
#    0.000    1.200    2.000    3.000    2.800    4.000 
#    0.000    2.000    0.000    0.000    0.000    0.000 
#    0.000    0.000    0.000    0.000    0.000    0.000 
#
# Total GULP energy -223829.266383 kJ/mol
# GULP energy per Si atom -5595.731660 kJ/mol
# Density = 2.198989 g / cm^3
# Si number density = 22.040056 Si / 1000 Ang^3
#
#
#
# Elastic Constant Matrix: (Units=GPa)
#
#
# Indices 1 2 3 4 5 6 
#
# 1 116.1751 3.2676 -1.5955 0.0000 0.0000 0.0000
# 2 3.2676 53.4148 -3.1466 0.0000 0.0000 0.0000
# 3 -1.5955 -3.1466 74.9216 0.0000 0.0000 0.0000
# 4 0.0000 0.0000 0.0000 12.1937 0.0000 0.0000
# 5 0.0000 0.0000 0.0000 0.0000 24.7673 0.0000
# 6 0.0000 0.0000 0.0000 0.0000 0.0000 29.6442
#
#
#
# Elastic Compliance Matrix: (Units=1/GPa)
#
#
# Indices 1 2 3 4 5 6 
#
# 1 0.008624 -0.000518 0.000162 0.000000 0.000000 0.000000
# 2 -0.000518 0.018799 0.000779 0.000000 0.000000 0.000000
# 3 0.000162 0.000779 0.013383 0.000000 0.000000 0.000000
# 4 0.000000 0.000000 0.000000 0.082010 0.000000 0.000000
# 5 0.000000 0.000000 0.000000 0.000000 0.040376 0.000000
# 6 0.000000 0.000000 0.000000 0.000000 0.000000 0.033733
#
#
# Mechanical properties :
#
#
# Convention : Reuss Voigt Hill
#
# Bulk Modulus (GPa) = 24.00870 26.84028 25.42449
# Shear Modulus (GPa) = 23.81351 29.72010 26.76681
#
# Velocity S-wave (km/s) = 3.29061 3.67612 3.48869
# Velocity P-wave (km/s) = 5.03531 5.49753 5.27149
#
# Compressibility (1/GPa) = 0.04165157
#
# Stress axis : x y z
#
# Youngs Moduli (GPa) = 115.94891 53.19445 74.71922
#
# Poissons Ratio (x) = 0.02756 -0.01210
# Poissons Ratio (y) = 0.06007 -0.05817
# Poissons Ratio (z) = -0.01877 -0.04141
#
# Static dielectric constant tensor:
#      x y z
#    x 1.817680 0.000000 0.000000 
#    y 0.000000 1.823400 0.000000 
#    z 0.000000 0.000000 1.790590 
# 
# From -- ./inp_files/3883.got.cif
#   From: 2010.05.17/outbox.cif.g08.bks.cpg/sg56_2_cif.got.tgz:3883.got - 2010.06.03 13:42:01.
