data_PCOD9433683
_publ_section_title
;
Structure prediction by ZEFSAII (Michael W. Deem and Ramdas Pophale) SiO2 
 PCOD9433683
Probable space group: P C C N
;
_chemical_formula_sum "Si O2"
_cell_formula_units_Z 32
_cell_length_a 8.330126
_cell_length_b 15.810577
_cell_length_c 9.861439
_cell_angle_alpha 90.000000
_cell_angle_beta 90.000000
_cell_angle_gamma 90.000000
_cell_volume 1298.791934
_symmetry_space_group_name_H-M "P C C N"
_symmetry_group_IT_number 56
_symmetry_cell_setting 'orthorhombic'
loop_
_space_group_symop_operation_xyz
x,y,z
1/2-x,1/2-y,z
1/2+x,-y,1/2-z
-x,1/2+y,1/2-z
-x,-y,-z
1/2+x,1/2+y,-z
1/2-x,y,1/2+z
x,1/2-y,1/2+z
loop_
_atom_site_type_symbol
_atom_site_label
_atom_site_fract_x
_atom_site_fract_y
_atom_site_fract_z
Si Si1 0.868173 0.680969 0.471425
Si Si2 0.267586 0.605705 0.283006
Si Si3 0.194821 0.002007 0.529869
Si Si4 0.473112 0.744853 0.220116
O O1 0.750000 0.750000 0.532718
O O2 0.782822 0.591516 0.490302
O O3 0.898793 0.706186 0.315824
O O4 0.015748 0.705612 0.569002
O O5 0.227586 0.565174 0.426233
O O6 0.245115 0.529912 0.177992
O O7 0.433885 0.657060 0.299720
O O8 0.157375 0.680496 0.225643
O O9 0.000000 0.000000 0.500000
#
# Coordination Sequence:
#
# PCOD9433683 Si02
#       4
#     8   8   8   8
#     4  12  27  44  73 107 147 195 246 307 372 454
#     4  11  26  48  75 108 150 194 247 318 364 455
#     4  12  29  46  75 115 150 196 256 313 374 443
#     4  11  25  48  74 106 147 199 248 298 388 436
#
# _framework density 24.638280999999999
#
# number of rings (size 3 to 8) (size 9 to 14) (size 15 to 20)
#    0.000    0.500    0.000    6.750   14.000    6.000 
#    0.000    0.000    0.000    0.000    0.000    0.000 
#    0.000    0.000    0.000    0.000    0.000    0.000 
#
# Total GULP energy -178317.669125 kJ/mol
# GULP energy per Si atom -5572.427160 kJ/mol
# Density = 2.458220 g / cm^3
# Si number density = 24.638281 Si / 1000 Ang^3
#
#
#
# Elastic Constant Matrix: (Units=GPa)
#
#
# Indices 1 2 3 4 5 6 
#
# 1 42.5425 46.7005 8.6670 0.0000 0.0000 0.0000
# 2 46.7005 151.6803 20.0208 0.0000 0.0000 0.0000
# 3 8.6670 20.0208 99.7945 0.0000 0.0000 0.0000
# 4 0.0000 0.0000 0.0000 147.4375 0.0000 0.0000
# 5 0.0000 0.0000 0.0000 0.0000 -49.5021 0.0000
# 6 0.0000 0.0000 0.0000 0.0000 0.0000 46.9702
#
#
#
# Elastic Compliance Matrix: (Units=1/GPa)
#
#
# Indices 1 2 3 4 5 6 
#
# 1 0.035588 -0.010836 -0.000917 0.000000 0.000000 0.000000
# 2 -0.010836 0.010072 -0.001079 0.000000 0.000000 0.000000
# 3 -0.000917 -0.001079 0.010317 0.000000 0.000000 0.000000
# 4 0.000000 0.000000 0.000000 0.006783 0.000000 0.000000
# 5 0.000000 0.000000 0.000000 0.000000 -0.020201 0.000000
# 6 0.000000 0.000000 0.000000 0.000000 0.000000 0.021290
#
#
# Mechanical properties :
#
#
# Convention : Reuss Voigt Hill
#
# Bulk Modulus (GPa) = 32.99080 49.42156 41.20618
# Shear Modulus (GPa) = 50.19270 43.55638 46.87454
#
# Velocity S-wave (km/s) = 4.51841 4.20912 4.36651
# Velocity P-wave (km/s) = 6.37499 6.61246 6.49481
#
# Compressibility (1/GPa) = 0.03031148
#
# Stress axis : x y z
#
# Youngs Moduli (GPa) = 28.09954 99.28933 96.92947
#
# Poissons Ratio (x) = 1.07590 0.08887
# Poissons Ratio (y) = 0.30449 0.10463
# Poissons Ratio (z) = 0.02576 0.10718
#
# Static dielectric constant tensor:
#      x y z
#    x 2.202160 0.000000 0.000000 
#    y 0.000000 1.930460 0.000000 
#    z 0.000000 0.000000 1.828660 
# 
# From -- ./inp_files/6073.got.cif
#   From: 2010.05.17/outbox.cif.g08.bks.cpg/sg56_4_cif.got.tgz:6073.got - 2010.06.03 13:42:01.
