data_PCOD9433967
_publ_section_title
;
Structure prediction by ZEFSAII (Michael W. Deem and Ramdas Pophale) SiO2 
 PCOD9433967
Probable space group: P C C N
;
_chemical_formula_sum "Si O2"
_cell_formula_units_Z 48
_cell_length_a 12.000000
_cell_length_b 24.000000
_cell_length_c 9.000000
_cell_angle_alpha 90.000000
_cell_angle_beta 90.000000
_cell_angle_gamma 90.000000
_cell_volume 2592.000000
_symmetry_space_group_name_H-M "P C C N"
_symmetry_group_IT_number 56
_symmetry_cell_setting 'orthorhombic'
loop_
_space_group_symop_operation_xyz
x,y,z
1/2-x,1/2-y,z
1/2+x,-y,1/2-z
-x,1/2+y,1/2-z
-x,-y,-z
1/2+x,1/2+y,-z
1/2-x,y,1/2+z
x,1/2-y,1/2+z
loop_
_atom_site_type_symbol
_atom_site_label
_atom_site_fract_x
_atom_site_fract_y
_atom_site_fract_z
Si Si1 0.307950 0.188549 0.733731
Si Si2 0.943859 0.312917 0.872567
Si Si3 0.603855 0.847844 0.588744
Si Si4 0.079576 0.556409 0.511524
Si Si5 0.591631 0.203359 0.214109
Si Si6 0.733299 0.101941 0.765740
O O1 0.250000 0.250000 0.747985
O O2 0.427217 0.182185 0.818748
O O3 0.212655 0.147054 0.802108
O O4 0.342389 0.177426 0.562044
O O5 0.883170 0.265399 0.772997
O O6 0.867490 0.368609 0.858955
O O7 0.942970 0.293901 0.042821
O O8 0.519662 0.897928 0.538469
O O9 0.514972 0.812084 0.683633
O O10 0.175567 0.562886 0.644043
O O11 0.160467 0.572039 0.367790
O O12 0.000000 0.500000 0.500000
O O13 0.686074 0.154986 0.223996
#
# Coordination Sequence:
#
# PCOD9433967 Si02
#       6
#     8   8   8   8   8   8
#     4  12  23  37  62  97 148 185 226 263 328 414
#     4  12  23  39  65 100 148 186 223 270 337 408
#     4  11  24  41  64  98 138 187 230 283 334 404
#     4  11  26  50  74  99 131 173 240 301 361 403
#     4  11  24  38  65 102 139 185 223 267 339 414
#     4  11  24  46  72 100 134 175 226 290 342 422
#
# _framework density 18.518519000000001
#
# number of rings (size 3 to 8) (size 9 to 14) (size 15 to 20)
#    0.000    0.667    5.000    3.000    2.333    2.667 
#    0.000    0.833    0.000    0.000    0.000    0.000 
#    0.000    0.000    0.000    0.000    0.000    0.000 
#
# Total GULP energy -267262.443383 kJ/mol
# GULP energy per Si atom -5567.967570 kJ/mol
# Density = 1.847637 g / cm^3
# Si number density = 18.518519 Si / 1000 Ang^3
#
#
#
# Elastic Constant Matrix: (Units=GPa)
#
#
# Indices 1 2 3 4 5 6 
#
# 1 173.8095 50.5448 52.8910 0.0000 0.0000 0.0000
# 2 50.5448 73.2998 31.2405 0.0000 0.0000 0.0000
# 3 52.8910 31.2405 135.6165 0.0000 0.0000 0.0000
# 4 0.0000 0.0000 0.0000 21.3017 0.0000 0.0000
# 5 0.0000 0.0000 0.0000 0.0000 48.8891 0.0000
# 6 0.0000 0.0000 0.0000 0.0000 0.0000 48.5097
#
#
#
# Elastic Compliance Matrix: (Units=1/GPa)
#
#
# Indices 1 2 3 4 5 6 
#
# 1 0.007638 -0.004433 -0.001958 0.000000 0.000000 0.000000
# 2 -0.004433 0.017700 -0.002349 0.000000 0.000000 0.000000
# 3 -0.001958 -0.002349 0.008678 0.000000 0.000000 0.000000
# 4 0.000000 0.000000 0.000000 0.046945 0.000000 0.000000
# 5 0.000000 0.000000 0.000000 0.000000 0.020454 0.000000
# 6 0.000000 0.000000 0.000000 0.000000 0.000000 0.020614
#
#
# Mechanical properties :
#
#
# Convention : Reuss Voigt Hill
#
# Bulk Modulus (GPa) = 60.46494 72.45316 66.45905
# Shear Modulus (GPa) = 34.47768 40.27672 37.37720
#
# Velocity S-wave (km/s) = 4.31953 4.66869 4.49750
# Velocity P-wave (km/s) = 7.58945 8.26268 7.93321
#
# Compressibility (1/GPa) = 0.01653851
#
# Stress axis : x y z
#
# Youngs Moduli (GPa) = 130.92032 56.49663 115.22931
#
# Poissons Ratio (x) = 0.25043 0.22560
# Poissons Ratio (y) = 0.58032 0.27064
# Poissons Ratio (z) = 0.25632 0.13269
#
# Static dielectric constant tensor:
#      x y z
#    x 1.641460 0.000000 0.000000 
#    y 0.000000 1.685410 0.000000 
#    z 0.000000 0.000000 1.673840 
# 
# From -- ./inp_files/2791.got.cif
#   From: 2010.05.17/outbox.ucp.g08.bks.cvg/sg56_2_cif.got.tgz:2791.got - 2010.06.11 16:37:52.
