data_PCOD9433470
_publ_section_title
;
Structure prediction by ZEFSAII (Michael W. Deem and Ramdas Pophale) SiO2 
 PCOD9433470
Probable space group: P C C N
;
_chemical_formula_sum "Si O2"
_cell_formula_units_Z 36
_cell_length_a 5.999800
_cell_length_b 16.980245
_cell_length_c 18.979166
_cell_angle_alpha 90.000000
_cell_angle_beta 90.000000
_cell_angle_gamma 90.000000
_cell_volume 1933.560877
_symmetry_space_group_name_H-M "P C C N"
_symmetry_group_IT_number 56
_symmetry_cell_setting 'orthorhombic'
loop_
_space_group_symop_operation_xyz
x,y,z
1/2-x,1/2-y,z
1/2+x,-y,1/2-z
-x,1/2+y,1/2-z
-x,-y,-z
1/2+x,1/2+y,-z
1/2-x,y,1/2+z
x,1/2-y,1/2+z
loop_
_atom_site_type_symbol
_atom_site_label
_atom_site_fract_x
_atom_site_fract_y
_atom_site_fract_z
Si Si1 0.750000 0.250000 0.481294
Si Si2 0.510082 0.385180 0.069032
Si Si3 0.075190 0.178089 0.368116
Si Si4 0.001727 0.792480 0.791501
Si Si5 0.295830 0.040026 0.960611
O O1 0.872815 0.311971 0.530777
O O2 0.600927 0.300694 0.428234
O O3 0.481531 0.359636 0.149333
O O4 0.640515 0.467249 0.061436
O O5 0.296734 0.401476 0.020743
O O6 0.250000 0.250000 0.370738
O O7 0.167388 0.093921 0.392273
O O8 0.983903 0.177630 0.288870
O O9 0.250000 0.750000 0.803692
O O10 0.750000 0.750000 0.796143
O O11 0.500000 0.000000 0.000000
#
# Coordination Sequence:
#
# PCOD9433470 Si02
#       5
#     4   8   8   8   8
#     4  12  20  38  74  92 126 174 230 276 332 396
#     4  11  25  41  67 100 130 176 229 282 337 399
#     4  11  23  43  66  94 133 177 221 272 342 398
#     4  11  26  45  70 102 135 176 229 281 336 406
#     4  11  24  42  64  98 134 173 225 279 337 407
#
# _framework density 18.618499
#
# number of rings (size 3 to 8) (size 9 to 14) (size 15 to 20)
#    0.000    0.889    6.667    0.000    6.222    0.000 
#    4.000    0.000    0.000    0.000    0.000    0.000 
#    0.000    0.000    0.000    0.000    0.000    0.000 
#
# Total GULP energy -200414.517069 kJ/mol
# GULP energy per Si atom -5567.069919 kJ/mol
# Density = 1.857612 g / cm^3
# Si number density = 18.618499 Si / 1000 Ang^3
#
#
#
# Elastic Constant Matrix: (Units=GPa)
#
#
# Indices 1 2 3 4 5 6 
#
# 1 69.3720 33.3432 28.3818 0.0000 0.0000 0.0000
# 2 33.3432 100.0374 56.3155 0.0000 0.0000 0.0000
# 3 28.3818 56.3155 127.9785 0.0000 0.0000 0.0000
# 4 0.0000 0.0000 0.0000 -110.9671 0.0000 0.0000
# 5 0.0000 0.0000 0.0000 0.0000 44.0281 0.0000
# 6 0.0000 0.0000 0.0000 0.0000 0.0000 26.7493
#
#
#
# Elastic Compliance Matrix: (Units=1/GPa)
#
#
# Indices 1 2 3 4 5 6 
#
# 1 0.017452 -0.004836 -0.001742 0.000000 0.000000 0.000000
# 2 -0.004836 0.014628 -0.005364 0.000000 0.000000 0.000000
# 3 -0.001742 -0.005364 0.010561 0.000000 0.000000 0.000000
# 4 0.000000 0.000000 0.000000 -0.009012 0.000000 0.000000
# 5 0.000000 0.000000 0.000000 0.000000 0.022713 0.000000
# 6 0.000000 0.000000 0.000000 0.000000 0.000000 0.037384
#
#
# Mechanical properties :
#
#
# Convention : Reuss Voigt Hill
#
# Bulk Modulus (GPa) = 53.31798 59.27430 56.29614
# Shear Modulus (GPa) = 40.36687 3.91855 22.14271
#
# Velocity S-wave (km/s) = 4.66134 1.45232 3.45234
# Velocity P-wave (km/s) = 7.59408 5.89217 6.79661
#
# Compressibility (1/GPa) = 0.01875540
#
# Stress axis : x y z
#
# Youngs Moduli (GPa) = 57.29889 68.36185 94.69033
#
# Poissons Ratio (x) = 0.33061 0.16498
# Poissons Ratio (y) = 0.27711 0.50796
# Poissons Ratio (z) = 0.09983 0.36672
#
# Static dielectric constant tensor:
#      x y z
#    x 1.695120 0.000000 0.000000 
#    y 0.000000 1.575100 0.000000 
#    z 0.000000 0.000000 1.608250 
# 
# From -- ./inp_files/17355.got.cif
#   From: 2010.05.17/outbox.cif.g08.bks.cpg/sg56_9_cif.got.tgz:17355.got - 2010.06.03 13:42:01.
