data_PCOD9433027
_publ_section_title
;
Structure prediction by ZEFSAII (Michael W. Deem and Ramdas Pophale) SiO2 
 PCOD9433027
Probable space group: P C C N
;
_chemical_formula_sum "Si O2"
_cell_formula_units_Z 64
_cell_length_a 8.077461
_cell_length_b 28.983244
_cell_length_c 11.295441
_cell_angle_alpha 90.000000
_cell_angle_beta 90.000000
_cell_angle_gamma 90.000000
_cell_volume 2644.387248
_symmetry_space_group_name_H-M "P C C N"
_symmetry_group_IT_number 56
_symmetry_cell_setting 'orthorhombic'
loop_
_space_group_symop_operation_xyz
x,y,z
1/2-x,1/2-y,z
1/2+x,-y,1/2-z
-x,1/2+y,1/2-z
-x,-y,-z
1/2+x,1/2+y,-z
1/2-x,y,1/2+z
x,1/2-y,1/2+z
loop_
_atom_site_type_symbol
_atom_site_label
_atom_site_fract_x
_atom_site_fract_y
_atom_site_fract_z
Si Si1 0.436029 0.854132 0.054803
Si Si2 0.066055 0.272223 0.565598
Si Si3 0.052094 0.855243 0.054457
Si Si4 0.061835 0.231368 0.325768
Si Si5 0.544301 0.550387 0.955875
Si Si6 0.880776 0.525467 0.906536
Si Si7 0.866943 0.433914 0.781866
Si Si8 0.036775 0.614014 0.799996
O O1 0.242643 0.839138 0.055019
O O2 0.545622 0.821977 0.138235
O O3 0.437423 0.905178 0.108772
O O4 0.487874 0.856788 0.918671
O O5 0.250000 0.250000 0.566683
O O6 0.984053 0.254255 0.443536
O O7 0.989998 0.261834 0.694171
O O8 0.056174 0.326890 0.539567
O O9 0.981584 0.855962 0.187537
O O10 0.052130 0.909217 0.021503
O O11 0.250000 0.250000 0.320402
O O12 0.738951 0.553113 0.974925
O O13 0.500779 0.556117 0.818457
O O14 0.500000 0.500000 0.000000
O O15 0.805824 0.483335 0.829109
O O16 0.958419 0.563708 0.820749
O O17 0.000000 0.500000 0.000000
O O18 0.727909 0.400544 0.724399
#
# Coordination Sequence:
#
# PCOD9433027 Si02
#       8
#     8   8   8   8   8   8   8   8
#     4  11  23  45  74 104 144 191 246 310 376 460
#     4  10  24  49  74 108 148 190 245 312 383 463
#     4  11  25  45  73 110 143 197 254 301 386 453
#     4  10  24  46  76 106 145 189 235 307 382 455
#     4  12  24  43  70 102 150 199 251 310 372 452
#     4  12  24  41  65 104 151 200 256 314 378 444
#     4  11  22  44  70  99 146 197 252 311 371 446
#     4  11  24  44  69 106 145 196 253 311 373 450
#
# _framework density 24.202203000000001
#
# number of rings (size 3 to 8) (size 9 to 14) (size 15 to 20)
#    0.000    1.000    2.500    4.500    3.500    3.500 
#    9.000    1.250    0.000    0.000    0.000    0.000 
#    0.000    0.000    0.000    0.000    0.000    0.000 
#
# Total GULP energy -357714.395403 kJ/mol
# GULP energy per Si atom -5589.287428 kJ/mol
# Density = 2.414712 g / cm^3
# Si number density = 24.202203 Si / 1000 Ang^3
#
#
#
# Elastic Constant Matrix: (Units=GPa)
#
#
# Indices 1 2 3 4 5 6 
#
# 1 78.7373 23.0344 8.7256 0.0000 0.0000 0.0000
# 2 23.0344 90.9419 25.9631 0.0000 0.0000 0.0000
# 3 8.7256 25.9631 180.6975 0.0000 0.0000 0.0000
# 4 0.0000 0.0000 0.0000 30.0703 0.0000 0.0000
# 5 0.0000 0.0000 0.0000 0.0000 22.6352 0.0000
# 6 0.0000 0.0000 0.0000 0.0000 0.0000 37.0303
#
#
#
# Elastic Compliance Matrix: (Units=1/GPa)
#
#
# Indices 1 2 3 4 5 6 
#
# 1 0.013722 -0.003427 -0.000170 0.000000 0.000000 0.000000
# 2 -0.003427 0.012322 -0.001605 0.000000 0.000000 0.000000
# 3 -0.000170 -0.001605 0.005773 0.000000 0.000000 0.000000
# 4 0.000000 0.000000 0.000000 0.033255 0.000000 0.000000
# 5 0.000000 0.000000 0.000000 0.000000 0.044179 0.000000
# 6 0.000000 0.000000 0.000000 0.000000 0.000000 0.027005
#
#
# Mechanical properties :
#
#
# Convention : Reuss Voigt Hill
#
# Bulk Modulus (GPa) = 46.70130 51.75809 49.22970
# Shear Modulus (GPa) = 32.51010 37.45739 34.98374
#
# Velocity S-wave (km/s) = 3.66904 3.93833 3.80607
# Velocity P-wave (km/s) = 6.10634 6.48943 6.30080
#
# Compressibility (1/GPa) = 0.02141268
#
# Stress axis : x y z
#
# Youngs Moduli (GPa) = 72.87627 81.15397 173.22189
#
# Poissons Ratio (x) = 0.27811 0.02948
# Poissons Ratio (y) = 0.24975 0.27802
# Poissons Ratio (z) = 0.01240 0.13025
#
# Static dielectric constant tensor:
#      x y z
#    x 2.059600 0.000000 0.000000 
#    y 0.000000 1.991240 0.000000 
#    z 0.000000 0.000000 2.084810 
# 
# From -- ./inp_files/6630.got.cif
#   From: 2010.05.17/outbox.cif.g08.bks.cpg/sg56_4_cif.got.tgz:6630.got - 2010.06.03 13:42:01.
