data_PCOD9433579
_publ_section_title
;
Structure prediction by ZEFSAII (Michael W. Deem and Ramdas Pophale) SiO2 
 PCOD9433579
Probable space group: P C C N
;
_chemical_formula_sum "Si O2"
_cell_formula_units_Z 32
_cell_length_a 10.104154
_cell_length_b 8.465352
_cell_length_c 14.226743
_cell_angle_alpha 90.000000
_cell_angle_beta 90.000000
_cell_angle_gamma 90.000000
_cell_volume 1216.887596
_symmetry_space_group_name_H-M "P C C N"
_symmetry_group_IT_number 56
_symmetry_cell_setting 'orthorhombic'
loop_
_space_group_symop_operation_xyz
x,y,z
1/2-x,1/2-y,z
1/2+x,-y,1/2-z
-x,1/2+y,1/2-z
-x,-y,-z
1/2+x,1/2+y,-z
1/2-x,y,1/2+z
x,1/2-y,1/2+z
loop_
_atom_site_type_symbol
_atom_site_label
_atom_site_fract_x
_atom_site_fract_y
_atom_site_fract_z
Si Si1 0.227468 0.923815 0.872417
Si Si2 0.066617 0.177474 0.100387
Si Si3 0.293668 0.578831 0.582321
Si Si4 0.750000 0.750000 0.236684
Si Si5 0.500000 0.500000 0.500000
O O1 0.250000 0.750000 0.826908
O O2 0.074508 0.908805 0.901099
O O3 0.249470 0.083921 0.817867
O O4 0.324167 0.924288 0.966194
O O5 0.117420 0.250042 0.198839
O O6 0.180059 0.045752 0.090380
O O7 0.063584 0.312112 0.021430
O O8 0.250000 0.750000 0.608830
O O9 0.443224 0.549179 0.607678
#
# Coordination Sequence:
#
# PCOD9433579 Si02
#       5
#     8   8   8   4   4
#     4  11  27  48  71 106 145 197 246 306 382 458
#     4  12  26  49  72 112 144 198 259 310 384 456
#     4  11  24  44  74 107 140 189 252 313 369 441
#     4  12  30  46  72 106 154 198 240 310 392 458
#     4  12  22  44  78 102 148 180 256 314 354 442
#
# _framework density 26.296595
#
# number of rings (size 3 to 8) (size 9 to 14) (size 15 to 20)
#    0.000    0.500    7.500    0.750    7.000    1.000 
#    0.000    0.000    0.000    0.000    0.000    0.000 
#    0.000    0.000    0.000    0.000    0.000    0.000 
#
# Total GULP energy -178139.317934 kJ/mol
# GULP energy per Si atom -5566.853685 kJ/mol
# Density = 2.623674 g / cm^3
# Si number density = 26.296595 Si / 1000 Ang^3
#
#
#
# Elastic Constant Matrix: (Units=GPa)
#
#
# Indices 1 2 3 4 5 6 
#
# 1 159.8161 45.1173 12.7232 0.0000 0.0000 0.0000
# 2 45.1173 235.5763 55.8808 0.0000 0.0000 0.0000
# 3 12.7232 55.8808 86.6619 0.0000 0.0000 0.0000
# 4 0.0000 0.0000 0.0000 31.1252 0.0000 0.0000
# 5 0.0000 0.0000 0.0000 0.0000 26.9596 0.0000
# 6 0.0000 0.0000 0.0000 0.0000 0.0000 55.3113
#
#
#
# Elastic Compliance Matrix: (Units=1/GPa)
#
#
# Indices 1 2 3 4 5 6 
#
# 1 0.006617 -0.001224 -0.000182 0.000000 0.000000 0.000000
# 2 -0.001224 0.005238 -0.003198 0.000000 0.000000 0.000000
# 3 -0.000182 -0.003198 0.013628 0.000000 0.000000 0.000000
# 4 0.000000 0.000000 0.000000 0.032128 0.000000 0.000000
# 5 0.000000 0.000000 0.000000 0.000000 0.037093 0.000000
# 6 0.000000 0.000000 0.000000 0.000000 0.000000 0.018080
#
#
# Mechanical properties :
#
#
# Convention : Reuss Voigt Hill
#
# Bulk Modulus (GPa) = 61.44445 78.83301 70.13873
# Shear Modulus (GPa) = 39.24143 47.23474 43.23808
#
# Velocity S-wave (km/s) = 3.86717 4.24279 4.05933
# Velocity P-wave (km/s) = 6.58458 7.35155 6.97861
#
# Compressibility (1/GPa) = 0.01627486
#
# Stress axis : x y z
#
# Youngs Moduli (GPa) = 151.11961 190.91675 73.37945
#
# Poissons Ratio (x) = 0.23370 0.01337
# Poissons Ratio (y) = 0.18499 0.23465
# Poissons Ratio (z) = 0.02753 0.61050
#
# Static dielectric constant tensor:
#      x y z
#    x 2.553390 0.000000 0.000000 
#    y 0.000000 2.286270 0.000000 
#    z 0.000000 0.000000 2.246220 
# 
# From -- ./inp_files/11285.got.cif
#   From: 2010.05.17/outbox.cif.g08.bks.cpg/sg56_6_cif.got.tgz:11285.got - 2010.06.03 13:42:01.
