data_PCOD9433551
_publ_section_title
;
Structure prediction by ZEFSAII (Michael W. Deem and Ramdas Pophale) SiO2 
 PCOD9433551
Probable space group: P C C N
;
_chemical_formula_sum "Si O2"
_cell_formula_units_Z 60
_cell_length_a 8.709605
_cell_length_b 15.547739
_cell_length_c 19.342194
_cell_angle_alpha 90.000000
_cell_angle_beta 90.000000
_cell_angle_gamma 90.000000
_cell_volume 2619.216727
_symmetry_space_group_name_H-M "P C C N"
_symmetry_group_IT_number 56
_symmetry_cell_setting 'orthorhombic'
loop_
_space_group_symop_operation_xyz
x,y,z
1/2-x,1/2-y,z
1/2+x,-y,1/2-z
-x,1/2+y,1/2-z
-x,-y,-z
1/2+x,1/2+y,-z
1/2-x,y,1/2+z
x,1/2-y,1/2+z
loop_
_atom_site_type_symbol
_atom_site_label
_atom_site_fract_x
_atom_site_fract_y
_atom_site_fract_z
Si Si1 0.585799 0.725040 0.291020
Si Si2 0.250000 0.250000 0.974829
Si Si3 0.018229 0.727264 0.937000
Si Si4 0.052865 0.936498 0.240010
Si Si5 0.253959 0.646313 0.623442
Si Si6 0.708398 0.512257 0.150993
Si Si7 0.809556 0.110711 0.023373
Si Si8 0.588899 0.824535 0.146154
O O1 0.750000 0.750000 0.319834
O O2 0.470244 0.735776 0.354154
O O3 0.575036 0.625290 0.272724
O O4 0.571183 0.779612 0.220641
O O5 0.384931 0.244553 0.914957
O O6 0.354840 0.197519 0.031281
O O7 0.050395 0.824072 0.962841
O O8 0.153526 0.665264 0.962481
O O9 0.158565 0.877924 0.190784
O O10 0.160205 0.973091 0.299505
O O11 0.953201 0.998154 0.191155
O O12 0.250000 0.750000 0.611985
O O13 0.190357 0.594242 0.558093
O O14 0.432378 0.624796 0.632978
O O15 0.694060 0.467085 0.076857
O O16 0.768522 0.609857 0.142119
#
# Coordination Sequence:
#
# PCOD9433551 Si02
#       8
#     8   4   8   8   8   8   8   8
#     4  12  23  42  72 104 130 180 239 288 338 407
#     4  12  22  46  72 102 136 182 232 292 334 410
#     4  11  24  42  70 101 135 176 235 285 341 408
#     4  12  27  45  70 100 142 185 234 289 352 418
#     4  12  24  45  74 101 130 183 241 285 339 414
#     4  12  28  46  65 103 147 180 225 290 361 422
#     4  11  25  44  66  99 140 177 226 286 348 417
#     4  12  25  43  72 101 138 181 232 288 343 415
#
# _framework density 22.907612
#
# number of rings (size 3 to 8) (size 9 to 14) (size 15 to 20)
#    0.000    0.267    8.000    0.800    5.600    1.067 
#    0.000    0.000    0.000    0.000    0.000    0.000 
#    0.000    0.000    0.000    0.000    0.000    0.000 
#
# Total GULP energy -334609.673799 kJ/mol
# GULP energy per Si atom -5576.827897 kJ/mol
# Density = 2.285547 g / cm^3
# Si number density = 22.907612 Si / 1000 Ang^3
#
#
#
# Elastic Constant Matrix: (Units=GPa)
#
#
# Indices 1 2 3 4 5 6 
#
# 1 47.1218 4.1986 -12.3061 0.0000 0.0000 0.0000
# 2 4.1986 50.3263 27.2472 0.0000 0.0000 0.0000
# 3 -12.3061 27.2472 116.8238 0.0000 0.0000 0.0000
# 4 0.0000 0.0000 0.0000 6.1091 0.0000 0.0000
# 5 0.0000 0.0000 0.0000 0.0000 24.3044 0.0000
# 6 0.0000 0.0000 0.0000 0.0000 0.0000 27.1571
#
#
#
# Elastic Compliance Matrix: (Units=1/GPa)
#
#
# Indices 1 2 3 4 5 6 
#
# 1 0.022377 -0.003597 0.003196 0.000000 0.000000 0.000000
# 2 -0.003597 0.023320 -0.005818 0.000000 0.000000 0.000000
# 3 0.003196 -0.005818 0.010254 0.000000 0.000000 0.000000
# 4 0.000000 0.000000 0.000000 0.163690 0.000000 0.000000
# 5 0.000000 0.000000 0.000000 0.000000 0.041145 0.000000
# 6 0.000000 0.000000 0.000000 0.000000 0.000000 0.036823
#
#
# Mechanical properties :
#
#
# Convention : Reuss Voigt Hill
#
# Bulk Modulus (GPa) = 22.98192 28.06124 25.52158
# Shear Modulus (GPa) = 15.40590 24.52294 19.96442
#
# Velocity S-wave (km/s) = 2.59612 3.27542 2.95535
# Velocity P-wave (km/s) = 4.36356 5.15566 4.77606
#
# Compressibility (1/GPa) = 0.04351247
#
# Stress axis : x y z
#
# Youngs Moduli (GPa) = 44.68912 42.88096 97.52739
#
# Poissons Ratio (x) = 0.15425 -0.31171
# Poissons Ratio (y) = 0.16076 0.56742
# Poissons Ratio (z) = -0.14283 0.24948
#
# Static dielectric constant tensor:
#      x y z
#    x 1.905320 0.000000 0.000000 
#    y 0.000000 1.888130 0.000000 
#    z 0.000000 0.000000 1.858510 
# 
# From -- ./inp_files/15096.got.cif
#   From: 2010.05.17/outbox.cif.g08.bks.cpg/sg56_8_cif.got.tgz:15096.got - 2010.06.03 13:42:01.
