data_PCOD9433231
_publ_section_title
;
Structure prediction by ZEFSAII (Michael W. Deem and Ramdas Pophale) SiO2 
 PCOD9433231
Probable space group: P C C N
;
_chemical_formula_sum "Si O2"
_cell_formula_units_Z 56
_cell_length_a 8.757476
_cell_length_b 13.716041
_cell_length_c 21.655143
_cell_angle_alpha 90.000000
_cell_angle_beta 90.000000
_cell_angle_gamma 90.000000
_cell_volume 2601.170299
_symmetry_space_group_name_H-M "P C C N"
_symmetry_group_IT_number 56
_symmetry_cell_setting 'orthorhombic'
loop_
_space_group_symop_operation_xyz
x,y,z
1/2-x,1/2-y,z
1/2+x,-y,1/2-z
-x,1/2+y,1/2-z
-x,-y,-z
1/2+x,1/2+y,-z
1/2-x,y,1/2+z
x,1/2-y,1/2+z
loop_
_atom_site_type_symbol
_atom_site_label
_atom_site_fract_x
_atom_site_fract_y
_atom_site_fract_z
Si Si1 0.984181 0.160308 0.522169
Si Si2 0.995958 0.986696 0.697384
Si Si3 0.730636 0.364548 0.222102
Si Si4 0.758941 0.581053 0.892302
Si Si5 0.163830 0.347869 0.903505
Si Si6 0.214032 0.988861 0.987816
Si Si7 0.437704 0.652238 0.903443
O O1 0.873191 0.068057 0.526023
O O2 0.139369 0.141350 0.559550
O O3 0.027397 0.179929 0.451229
O O4 0.916405 0.248152 0.560498
O O5 0.900010 0.917341 0.650582
O O6 0.090755 0.916851 0.742938
O O7 0.880861 0.066465 0.727418
O O8 0.127463 0.045377 0.660225
O O9 0.750000 0.250000 0.240466
O O10 0.683803 0.363563 0.150150
O O11 0.606797 0.638954 0.874734
O O12 0.709077 0.494106 0.938269
O O13 0.250000 0.250000 0.882447
O O14 0.274173 0.412682 0.947489
O O15 0.082781 0.925878 0.957488
#
# Coordination Sequence:
#
# PCOD9433231 Si02
#       7
#     8   8   8   8   8   8   8
#     4  11  20  39  67 102 142 185 224 287 360 419
#     4  12  25  51  73  99 144 187 239 307 359 409
#     4  12  28  50  75 102 140 190 243 295 355 433
#     4  11  21  39  65 100 140 177 227 283 347 415
#     4  11  22  41  68  99 140 184 234 288 360 423
#     4  11  20  40  64 100 144 176 218 289 349 409
#     4  12  23  39  68 105 135 183 231 277 346 434
#
# _framework density 21.528772
#
# number of rings (size 3 to 8) (size 9 to 14) (size 15 to 20)
#    0.000    0.571    4.286    6.429    0.000    1.143 
#    5.143    2.857    0.000    0.000    0.000    0.000 
#    0.000    0.000    0.000    0.000    0.000    0.000 
#
# Total GULP energy -312676.223108 kJ/mol
# GULP energy per Si atom -5583.503984 kJ/mol
# Density = 2.147977 g / cm^3
# Si number density = 21.528772 Si / 1000 Ang^3
#
#
#
# Elastic Constant Matrix: (Units=GPa)
#
#
# Indices 1 2 3 4 5 6 
#
# 1 95.7821 36.0537 4.0088 0.0000 0.0000 0.0000
# 2 36.0537 108.1831 24.4244 0.0000 0.0000 0.0000
# 3 4.0088 24.4244 56.7244 0.0000 0.0000 0.0000
# 4 0.0000 0.0000 0.0000 18.9737 0.0000 0.0000
# 5 0.0000 0.0000 0.0000 0.0000 19.8351 0.0000
# 6 0.0000 0.0000 0.0000 0.0000 0.0000 31.4759
#
#
#
# Elastic Compliance Matrix: (Units=1/GPa)
#
#
# Indices 1 2 3 4 5 6 
#
# 1 0.011986 -0.004213 0.000967 0.000000 0.000000 0.000000
# 2 -0.004213 0.011720 -0.004749 0.000000 0.000000 0.000000
# 3 0.000967 -0.004749 0.019605 0.000000 0.000000 0.000000
# 4 0.000000 0.000000 0.000000 0.052705 0.000000 0.000000
# 5 0.000000 0.000000 0.000000 0.000000 0.050416 0.000000
# 6 0.000000 0.000000 0.000000 0.000000 0.000000 0.031770
#
#
# Mechanical properties :
#
#
# Convention : Reuss Voigt Hill
#
# Bulk Modulus (GPa) = 36.60062 43.29591 39.94827
# Shear Modulus (GPa) = 24.59453 27.13711 25.86582
#
# Velocity S-wave (km/s) = 3.38361 3.55421 3.46996
# Velocity P-wave (km/s) = 5.68356 6.08256 5.88644
#
# Compressibility (1/GPa) = 0.02732194
#
# Stress axis : x y z
#
# Youngs Moduli (GPa) = 83.43346 85.32721 51.00640
#
# Poissons Ratio (x) = 0.35946 -0.04932
# Poissons Ratio (y) = 0.35148 0.24220
# Poissons Ratio (z) = -0.08067 0.40518
#
# Static dielectric constant tensor:
#      x y z
#    x 1.849090 0.000000 0.000000 
#    y 0.000000 1.863350 0.000000 
#    z 0.000000 0.000000 1.781260 
# 
# From -- ./inp_files/18232.got.cif
#   From: 2010.05.17/outbox.cif.g08.bks.cpg/sg56_10_cif.got.tgz:18232.got - 2010.06.03 13:42:01.
