data_PCOD9433797
_publ_section_title
;
Structure prediction by ZEFSAII (Michael W. Deem and Ramdas Pophale) SiO2 
 PCOD9433797
Probable space group: P C C N
;
_chemical_formula_sum "Si O2"
_cell_formula_units_Z 32
_cell_length_a 9.120439
_cell_length_b 5.564277
_cell_length_c 24.643291
_cell_angle_alpha 90.000000
_cell_angle_beta 90.000000
_cell_angle_gamma 90.000000
_cell_volume 1250.613724
_symmetry_space_group_name_H-M "P C C N"
_symmetry_group_IT_number 56
_symmetry_cell_setting 'orthorhombic'
loop_
_space_group_symop_operation_xyz
x,y,z
1/2-x,1/2-y,z
1/2+x,-y,1/2-z
-x,1/2+y,1/2-z
-x,-y,-z
1/2+x,1/2+y,-z
1/2-x,y,1/2+z
x,1/2-y,1/2+z
loop_
_atom_site_type_symbol
_atom_site_label
_atom_site_fract_x
_atom_site_fract_y
_atom_site_fract_z
Si Si1 0.424806 0.755023 0.478820
Si Si2 0.104434 0.338852 0.831038
Si Si3 0.627226 0.058445 0.278390
Si Si4 0.905865 0.698747 0.877286
O O1 0.250000 0.750000 0.489335
O O2 0.500000 0.500000 0.500000
O O3 0.461271 0.784753 0.414761
O O4 0.500000 0.000000 0.500000
O O5 0.250000 0.250000 0.860613
O O6 0.151320 0.529035 0.785538
O O7 0.035919 0.152748 0.788560
O O8 0.967967 0.432043 0.865832
O O9 0.750000 0.250000 0.295744
O O10 0.619246 0.840104 0.321244
O O11 0.750000 0.750000 0.906484
#
# Coordination Sequence:
#
# PCOD9433797 Si02
#       4
#     8   8   8   8
#     4  12  30  56  88 121 158 204 265 335 407 481
#     4  12  26  41  70 107 155 203 265 317 378 458
#     4  12  24  44  68 103 155 209 258 315 383 465
#     4  12  27  47  73 108 151 208 258 319 395 471
#
# _framework density 25.587437000000001
#
# number of rings (size 3 to 8) (size 9 to 14) (size 15 to 20)
#    0.000    0.000    5.000    4.500    7.000    1.000 
#    0.000    0.000    0.000    0.000    0.000    0.000 
#    0.000    0.000    0.000    0.000    0.000    0.000 
#
# Total GULP energy -178249.752027 kJ/mol
# GULP energy per Si atom -5570.304751 kJ/mol
# Density = 2.552920 g / cm^3
# Si number density = 25.587437 Si / 1000 Ang^3
#
#
#
# Elastic Constant Matrix: (Units=GPa)
#
#
# Indices 1 2 3 4 5 6 
#
# 1 223.6216 76.1150 3.7076 0.0000 0.0000 0.0000
# 2 76.1150 93.1201 0.8608 0.0000 0.0000 0.0000
# 3 3.7076 0.8608 44.6103 0.0000 0.0000 0.0000
# 4 0.0000 0.0000 0.0000 23.3327 0.0000 0.0000
# 5 0.0000 0.0000 0.0000 0.0000 5.8072 0.0000
# 6 0.0000 0.0000 0.0000 0.0000 0.0000 65.8751
#
#
#
# Elastic Compliance Matrix: (Units=1/GPa)
#
#
# Indices 1 2 3 4 5 6 
#
# 1 0.006203 -0.005067 -0.000418 0.000000 0.000000 0.000000
# 2 -0.005067 0.014879 0.000134 0.000000 0.000000 0.000000
# 3 -0.000418 0.000134 0.022448 0.000000 0.000000 0.000000
# 4 0.000000 0.000000 0.000000 0.042858 0.000000 0.000000
# 5 0.000000 0.000000 0.000000 0.000000 0.172201 0.000000
# 6 0.000000 0.000000 0.000000 0.000000 0.000000 0.015180
#
#
# Mechanical properties :
#
#
# Convention : Reuss Voigt Hill
#
# Bulk Modulus (GPa) = 30.46005 58.07986 44.26995
# Shear Modulus (GPa) = 16.92535 37.71422 27.31979
#
# Velocity S-wave (km/s) = 2.57470 3.84335 3.27112
# Velocity P-wave (km/s) = 4.55729 6.51483 5.62192
#
# Compressibility (1/GPa) = 0.03282989
#
# Stress axis : x y z
#
# Youngs Moduli (GPa) = 161.20400 67.20893 44.54643
#
# Poissons Ratio (x) = 0.34052 0.01861
# Poissons Ratio (y) = 0.81676 -0.00597
# Poissons Ratio (z) = 0.06735 -0.00901
#
# Static dielectric constant tensor:
#      x y z
#    x 2.255570 0.000000 0.000000 
#    y 0.000000 2.128790 0.000000 
#    z 0.000000 0.000000 2.051420 
# 
# From -- ./inp_files/22647.got.cif
#   From: 2010.05.17/outbox.cif.g08.bks.cpg/sg56_12_cif.got.tgz:22647.got - 2010.06.03 13:42:01.
