data_PCOD9433246
_publ_section_title
;
Structure prediction by ZEFSAII (Michael W. Deem and Ramdas Pophale) SiO2 
 PCOD9433246
Probable space group: P C C N
;
_chemical_formula_sum "Si O2"
_cell_formula_units_Z 32
_cell_length_a 10.625147
_cell_length_b 8.176103
_cell_length_c 15.520396
_cell_angle_alpha 90.000000
_cell_angle_beta 90.000000
_cell_angle_gamma 90.000000
_cell_volume 1348.292439
_symmetry_space_group_name_H-M "P C C N"
_symmetry_group_IT_number 56
_symmetry_cell_setting 'orthorhombic'
loop_
_space_group_symop_operation_xyz
x,y,z
1/2-x,1/2-y,z
1/2+x,-y,1/2-z
-x,1/2+y,1/2-z
-x,-y,-z
1/2+x,1/2+y,-z
1/2-x,y,1/2+z
x,1/2-y,1/2+z
loop_
_atom_site_type_symbol
_atom_site_label
_atom_site_fract_x
_atom_site_fract_y
_atom_site_fract_z
Si Si1 0.980381 0.068967 0.905149
Si Si2 0.636077 0.878379 0.075423
Si Si3 0.803219 0.430155 0.708828
Si Si4 0.791763 0.561105 0.889582
O O1 0.022597 0.257742 0.900234
O O2 0.072313 0.954434 0.849011
O O3 0.834285 0.046504 0.889200
O O4 0.000000 0.000000 0.000000
O O5 0.750000 0.750000 0.064333
O O6 0.688346 0.987275 0.153742
O O7 0.632886 0.959259 0.979726
O O8 0.750000 0.250000 0.723998
O O9 0.846367 0.517545 0.796896
O O10 0.750000 0.750000 0.884935
#
# Coordination Sequence:
#
# PCOD9433246 Si02
#       4
#     8   8   8   8
#     4  11  20  44  72  95 131 187 234 284 369 408
#     4   9  19  40  68  94 134 179 230 288 342 421
#     4  11  25  40  62 102 146 177 238 291 346 432
#     4  11  21  40  72 100 135 181 234 292 350 427
#
# _framework density 23.733720999999999
#
# number of rings (size 3 to 8) (size 9 to 14) (size 15 to 20)
#    0.000    1.500    7.500    2.250    0.000    5.000 
#    0.000    1.250    0.000    0.000    0.000    0.000 
#    0.000    0.000    0.000    0.000    0.000    0.000 
#
# Total GULP energy -178746.882049 kJ/mol
# GULP energy per Si atom -5585.840064 kJ/mol
# Density = 2.367970 g / cm^3
# Si number density = 23.733721 Si / 1000 Ang^3
#
#
#
# Elastic Constant Matrix: (Units=GPa)
#
#
# Indices 1 2 3 4 5 6 
#
# 1 88.4756 25.9252 30.2164 0.0000 0.0000 0.0000
# 2 25.9252 101.8984 26.3443 0.0000 0.0000 0.0000
# 3 30.2164 26.3443 93.6769 0.0000 0.0000 0.0000
# 4 0.0000 0.0000 0.0000 -27.9735 0.0000 0.0000
# 5 0.0000 0.0000 0.0000 0.0000 32.7643 0.0000
# 6 0.0000 0.0000 0.0000 0.0000 0.0000 44.3237
#
#
#
# Elastic Compliance Matrix: (Units=1/GPa)
#
#
# Indices 1 2 3 4 5 6 
#
# 1 0.013242 -0.002442 -0.003585 0.000000 0.000000 0.000000
# 2 -0.002442 0.011034 -0.002315 0.000000 0.000000 0.000000
# 3 -0.003585 -0.002315 0.012482 0.000000 0.000000 0.000000
# 4 0.000000 0.000000 0.000000 -0.035748 0.000000 0.000000
# 5 0.000000 0.000000 0.000000 0.000000 0.030521 0.000000
# 6 0.000000 0.000000 0.000000 0.000000 0.000000 0.022561
#
#
# Mechanical properties :
#
#
# Convention : Reuss Voigt Hill
#
# Bulk Modulus (GPa) = 49.81541 49.89142 49.85342
# Shear Modulus (GPa) = 64.54256 23.26057 43.90157
#
# Velocity S-wave (km/s) = 5.22049 3.13399 4.30554
# Velocity P-wave (km/s) = 7.57449 5.84490 6.76519
#
# Compressibility (1/GPa) = 0.02007411
#
# Stress axis : x y z
#
# Youngs Moduli (GPa) = 75.51469 90.63193 80.11340
#
# Poissons Ratio (x) = 0.22136 0.28718
# Poissons Ratio (y) = 0.18444 0.18547
# Poissons Ratio (z) = 0.27069 0.20982
#
# Static dielectric constant tensor:
#      x y z
#    x 1.846570 0.000000 0.000000 
#    y 0.000000 2.448760 0.000000 
#    z 0.000000 0.000000 2.103770 
# 
# From -- ./inp_files/10098.got.cif
#   From: 2010.05.17/outbox.cif.g08.bks.cpg/sg56_6_cif.got.tgz:10098.got - 2010.06.03 13:42:01.
