data_PCOD9433626
_publ_section_title
;
Structure prediction by ZEFSAII (Michael W. Deem and Ramdas Pophale) SiO2 
 PCOD9433626
Probable space group: P C C N
;
_chemical_formula_sum "Si O2"
_cell_formula_units_Z 40
_cell_length_a 21.632103
_cell_length_b 7.269118
_cell_length_c 9.287564
_cell_angle_alpha 90.000000
_cell_angle_beta 90.000000
_cell_angle_gamma 90.000000
_cell_volume 1460.435161
_symmetry_space_group_name_H-M "P C C N"
_symmetry_group_IT_number 56
_symmetry_cell_setting 'orthorhombic'
loop_
_space_group_symop_operation_xyz
x,y,z
1/2-x,1/2-y,z
1/2+x,-y,1/2-z
-x,1/2+y,1/2-z
-x,-y,-z
1/2+x,1/2+y,-z
1/2-x,y,1/2+z
x,1/2-y,1/2+z
loop_
_atom_site_type_symbol
_atom_site_label
_atom_site_fract_x
_atom_site_fract_y
_atom_site_fract_z
Si Si1 0.647678 0.690286 0.501377
Si Si2 0.706010 0.983356 0.283924
Si Si3 0.046569 0.746368 0.913406
Si Si4 0.345754 0.882226 0.221152
Si Si5 0.968469 0.679889 0.161256
O O1 0.684804 0.837838 0.405633
O O2 0.685767 0.591481 0.627960
O O3 0.986111 0.685274 0.326372
O O4 0.591187 0.775439 0.593347
O O5 0.778423 0.024354 0.260211
O O6 0.673301 0.175510 0.325816
O O7 0.126059 0.473697 0.106644
O O8 0.028612 0.758393 0.079624
O O9 0.107698 0.840403 0.852202
O O10 0.045059 0.531013 0.875011
#
# Coordination Sequence:
#
# PCOD9433626 Si02
#       5
#     8   8   8   8   8
#     4  12  26  54  81 122 167 215 286 346 424 504
#     4  11  28  51  84 119 161 222 275 348 417 502
#     4  11  24  48  76 116 162 212 269 343 417 498
#     4  11  26  49  77 118 166 214 276 339 418 498
#     4  11  25  48  77 119 162 212 274 346 423 494
#
# _framework density 27.389095999999999
#
# number of rings (size 3 to 8) (size 9 to 14) (size 15 to 20)
#    0.000    0.800    2.000    4.200    0.000    8.800 
#    3.600    0.000    0.000    4.800    0.000    0.000 
#    0.000    0.000    0.000    0.000    0.000    0.000 
#
# Total GULP energy -224150.590249 kJ/mol
# GULP energy per Si atom -5603.764756 kJ/mol
# Density = 2.732676 g / cm^3
# Si number density = 27.389096 Si / 1000 Ang^3
#
#
#
# Elastic Constant Matrix: (Units=GPa)
#
#
# Indices 1 2 3 4 5 6 
#
# 1 145.6176 52.8214 16.1516 0.0000 0.0000 0.0000
# 2 52.8214 177.0427 46.1455 0.0000 0.0000 0.0000
# 3 16.1516 46.1455 93.5704 0.0000 0.0000 0.0000
# 4 0.0000 0.0000 0.0000 41.7851 0.0000 0.0000
# 5 0.0000 0.0000 0.0000 0.0000 47.0117 0.0000
# 6 0.0000 0.0000 0.0000 0.0000 0.0000 36.1250
#
#
#
# Elastic Compliance Matrix: (Units=1/GPa)
#
#
# Indices 1 2 3 4 5 6 
#
# 1 0.007705 -0.002240 -0.000225 0.000000 0.000000 0.000000
# 2 -0.002240 0.007133 -0.003131 0.000000 0.000000 0.000000
# 3 -0.000225 -0.003131 0.012270 0.000000 0.000000 0.000000
# 4 0.000000 0.000000 0.000000 0.023932 0.000000 0.000000
# 5 0.000000 0.000000 0.000000 0.000000 0.021271 0.000000
# 6 0.000000 0.000000 0.000000 0.000000 0.000000 0.027682
#
#
# Mechanical properties :
#
#
# Convention : Reuss Voigt Hill
#
# Bulk Modulus (GPa) = 62.83309 71.82971 67.33140
# Shear Modulus (GPa) = 42.92208 45.05852 43.99030
#
# Velocity S-wave (km/s) = 3.96298 4.06042 4.01200
# Velocity P-wave (km/s) = 6.62805 6.94732 6.78956
#
# Compressibility (1/GPa) = 0.01591518
#
# Stress axis : x y z
#
# Youngs Moduli (GPa) = 129.78841 140.19830 81.49900
#
# Poissons Ratio (x) = 0.31405 0.01836
# Poissons Ratio (y) = 0.29073 0.25517
# Poissons Ratio (z) = 0.02923 0.43895
#
# Static dielectric constant tensor:
#      x y z
#    x 2.230510 0.000000 0.000000 
#    y 0.000000 2.118470 0.000000 
#    z 0.000000 0.000000 2.082910 
# 
# From -- ./inp_files/3951.got.cif
#   From: 2010.05.17/outbox.cif.g08.bks.cpg/sg56_2_cif.got.tgz:3951.got - 2010.06.03 13:42:01.
