data_PCOD9433933
_publ_section_title
;
Structure prediction by ZEFSAII (Michael W. Deem and Ramdas Pophale) SiO2 
 PCOD9433933
Probable space group: P C C N
;
_chemical_formula_sum "Si O2"
_cell_formula_units_Z 56
_cell_length_a 12.000000
_cell_length_b 15.000000
_cell_length_c 15.000000
_cell_angle_alpha 90.000000
_cell_angle_beta 90.000000
_cell_angle_gamma 90.000000
_cell_volume 2700.000000
_symmetry_space_group_name_H-M "P C C N"
_symmetry_group_IT_number 56
_symmetry_cell_setting 'orthorhombic'
loop_
_space_group_symop_operation_xyz
x,y,z
1/2-x,1/2-y,z
1/2+x,-y,1/2-z
-x,1/2+y,1/2-z
-x,-y,-z
1/2+x,1/2+y,-z
1/2-x,y,1/2+z
x,1/2-y,1/2+z
loop_
_atom_site_type_symbol
_atom_site_label
_atom_site_fract_x
_atom_site_fract_y
_atom_site_fract_z
Si Si1 0.003956 0.714516 0.992895
Si Si2 0.658137 0.059172 0.060693
Si Si3 0.219213 0.932156 0.646798
Si Si4 0.885365 0.355048 0.620225
Si Si5 0.250000 0.750000 0.238334
Si Si6 0.629851 0.597595 0.826377
Si Si7 0.750000 0.750000 0.433243
Si Si8 0.024158 0.400600 0.848790
O O1 0.870550 0.726962 0.978670
O O2 0.061082 0.634270 0.936471
O O3 0.080930 0.798014 0.967188
O O4 0.016432 0.682240 0.093298
O O5 0.772045 0.087482 0.111312
O O6 0.596624 0.970086 0.093317
O O7 0.698625 0.054543 0.958445
O O8 0.265268 0.836338 0.676695
O O9 0.092592 0.943735 0.684818
O O10 0.308561 0.003966 0.678074
O O11 0.851124 0.282244 0.696295
O O12 0.003274 0.405154 0.635210
O O13 0.711314 0.664260 0.877389
O O14 0.604642 0.631896 0.728031
#
# Coordination Sequence:
#
# PCOD9433933 Si02
#       8
#     8   8   8   8   4   8   4   8
#     4  10  21  39  64  89 122 171 214 260 318 398
#     4  11  22  40  66  94 124 175 216 268 324 396
#     4  11  25  42  66  93 135 167 221 270 327 391
#     4  11  23  40  67  93 129 167 221 269 332 380
#     4  12  22  42  64 102 126 170 218 272 324 396
#     4  11  24  43  61  99 130 170 213 279 326 385
#     4  10  22  42  66  88 138 168 214 270 340 380
#     4  11  23  39  67  94 125 169 225 258 332 394
#
# _framework density 20.740741
#
# number of rings (size 3 to 8) (size 9 to 14) (size 15 to 20)
#    0.000    1.143    2.857    4.286    4.000    1.143 
#    0.000    0.000    0.000    0.000    0.000    0.000 
#    0.000    0.000    0.000    0.000    0.000    0.000 
#
# Total GULP energy -312085.049417 kJ/mol
# GULP energy per Si atom -5572.947311 kJ/mol
# Density = 2.069353 g / cm^3
# Si number density = 20.740741 Si / 1000 Ang^3
#
#
#
# Elastic Constant Matrix: (Units=GPa)
#
#
# Indices 1 2 3 4 5 6 
#
# 1 139.4544 32.2131 10.6129 0.0000 0.0000 0.0000
# 2 32.2131 69.8451 13.4256 0.0000 0.0000 0.0000
# 3 10.6129 13.4256 43.1332 0.0000 0.0000 0.0000
# 4 0.0000 0.0000 0.0000 18.4843 0.0000 0.0000
# 5 0.0000 0.0000 0.0000 0.0000 -18.0320 0.0000
# 6 0.0000 0.0000 0.0000 0.0000 0.0000 33.8306
#
#
#
# Elastic Compliance Matrix: (Units=1/GPa)
#
#
# Indices 1 2 3 4 5 6 
#
# 1 0.008057 -0.003547 -0.000878 0.000000 0.000000 0.000000
# 2 -0.003547 0.016790 -0.004353 0.000000 0.000000 0.000000
# 3 -0.000878 -0.004353 0.024755 0.000000 0.000000 0.000000
# 4 0.000000 0.000000 0.000000 0.054100 0.000000 0.000000
# 5 0.000000 0.000000 0.000000 0.000000 -0.055457 0.000000
# 6 0.000000 0.000000 0.000000 0.000000 0.000000 0.029559
#
#
# Mechanical properties :
#
#
# Convention : Reuss Voigt Hill
#
# Bulk Modulus (GPa) = 31.20641 40.54843 35.87742
# Shear Modulus (GPa) = 47.15051 19.93532 33.54292
#
# Velocity S-wave (km/s) = 4.77312 3.10363 4.02586
# Velocity P-wave (km/s) = 6.74207 5.69526 6.24065
#
# Compressibility (1/GPa) = 0.03204470
#
# Stress axis : x y z
#
# Youngs Moduli (GPa) = 124.11550 59.55877 40.39572
#
# Poissons Ratio (x) = 0.21126 0.03548
# Poissons Ratio (y) = 0.44025 0.17585
# Poissons Ratio (z) = 0.10902 0.25928
#
# Static dielectric constant tensor:
#      x y z
#    x 1.710370 0.000000 0.000000 
#    y 0.000000 1.722680 0.000000 
#    z 0.000000 0.000000 1.848210 
# 
# From -- ./inp_files/11717.got.cif
#   From: 2010.05.17/outbox.ucp.g08.bks.cvg/sg56_6_cif.got.tgz:11717.got - 2010.06.11 16:37:52.
