data_PCOD9433695
_publ_section_title
;
Structure prediction by ZEFSAII (Michael W. Deem and Ramdas Pophale) SiO2 
 PCOD9433695
Probable space group: P C C N
;
_chemical_formula_sum "Si O2"
_cell_formula_units_Z 32
_cell_length_a 13.030922
_cell_length_b 5.130591
_cell_length_c 19.878165
_cell_angle_alpha 90.000000
_cell_angle_beta 90.000000
_cell_angle_gamma 90.000000
_cell_volume 1328.981182
_symmetry_space_group_name_H-M "P C C N"
_symmetry_group_IT_number 56
_symmetry_cell_setting 'orthorhombic'
loop_
_space_group_symop_operation_xyz
x,y,z
1/2-x,1/2-y,z
1/2+x,-y,1/2-z
-x,1/2+y,1/2-z
-x,-y,-z
1/2+x,1/2+y,-z
1/2-x,y,1/2+z
x,1/2-y,1/2+z
loop_
_atom_site_type_symbol
_atom_site_label
_atom_site_fract_x
_atom_site_fract_y
_atom_site_fract_z
Si Si1 0.750000 0.750000 0.046501
Si Si2 0.646552 0.163623 0.943931
Si Si3 0.933592 0.656228 0.380329
Si Si4 0.750000 0.750000 0.281667
Si Si5 0.342191 0.553100 0.840832
O O1 0.663826 0.651116 0.097885
O O2 0.798692 0.510444 0.003599
O O3 0.750000 0.250000 0.905759
O O4 0.583152 0.434683 0.938442
O O5 0.577610 0.942950 0.911096
O O6 0.840197 0.634244 0.327574
O O7 0.041978 0.647141 0.343139
O O8 0.690450 0.559011 0.230891
O O9 0.250000 0.750000 0.857406
#
# Coordination Sequence:
#
# PCOD9433695 Si02
#       5
#     4   8   8   4   8
#     4  11  25  52  74 118 165 197 262 312 404 455
#     4  12  23  49  78 114 152 199 253 327 370 472
#     4  12  28  48  82 114 151 204 264 312 393 451
#     4  11  27  50  78 112 155 203 266 320 382 465
#     4  11  30  49  76 114 164 207 253 329 382 467
#
# _framework density 24.078596000000001
#
# number of rings (size 3 to 8) (size 9 to 14) (size 15 to 20)
#    0.000    0.500    5.000    0.750   14.000    2.000 
#    0.000    0.000    0.000    0.000    0.000    0.000 
#    0.000    0.000    0.000    0.000    0.000    0.000 
#
# Total GULP energy -178443.629290 kJ/mol
# GULP energy per Si atom -5576.363415 kJ/mol
# Density = 2.402379 g / cm^3
# Si number density = 24.078596 Si / 1000 Ang^3
#
#
#
# Elastic Constant Matrix: (Units=GPa)
#
#
# Indices 1 2 3 4 5 6 
#
# 1 182.1657 46.8555 55.5263 0.0000 0.0000 0.0000
# 2 46.8555 146.2354 40.8760 0.0000 0.0000 0.0000
# 3 55.5263 40.8760 98.1120 0.0000 0.0000 0.0000
# 4 0.0000 0.0000 0.0000 51.7757 0.0000 0.0000
# 5 0.0000 0.0000 0.0000 0.0000 -18.2317 0.0000
# 6 0.0000 0.0000 0.0000 0.0000 0.0000 34.5912
#
#
#
# Elastic Compliance Matrix: (Units=1/GPa)
#
#
# Indices 1 2 3 4 5 6 
#
# 1 0.006831 -0.001254 -0.003344 0.000000 0.000000 0.000000
# 2 -0.001254 0.007970 -0.002611 0.000000 0.000000 0.000000
# 3 -0.003344 -0.002611 0.013172 0.000000 0.000000 0.000000
# 4 0.000000 0.000000 0.000000 0.019314 0.000000 0.000000
# 5 0.000000 0.000000 0.000000 0.000000 -0.054850 0.000000
# 6 0.000000 0.000000 0.000000 0.000000 0.000000 0.028909
#
#
# Mechanical properties :
#
#
# Convention : Reuss Voigt Hill
#
# Bulk Modulus (GPa) = 73.76461 79.22543 76.49502
# Shear Modulus (GPa) = 124.12176 32.51071 78.31624
#
# Velocity S-wave (km/s) = 7.18752 3.67848 5.70928
# Velocity P-wave (km/s) = 9.97908 7.14254 8.67750
#
# Compressibility (1/GPa) = 0.01355664
#
# Stress axis : x y z
#
# Youngs Moduli (GPa) = 146.38536 125.47229 75.91627
#
# Poissons Ratio (x) = 0.15737 0.25383
# Poissons Ratio (y) = 0.18360 0.19819
# Poissons Ratio (z) = 0.48946 0.32756
#
# Static dielectric constant tensor:
#      x y z
#    x 2.434090 0.000000 0.000000 
#    y 0.000000 1.928510 0.000000 
#    z 0.000000 0.000000 1.943410 
# 
# From -- ./inp_files/20766.got.cif
#   From: 2010.05.17/outbox.cif.g08.bks.cpg/sg56_11_cif.got.tgz:20766.got - 2010.06.03 13:42:01.
