data_PCOD9433397
_publ_section_title
;
Structure prediction by ZEFSAII (Michael W. Deem and Ramdas Pophale) SiO2 
 PCOD9433397
Probable space group: P C C N
;
_chemical_formula_sum "Si O2"
_cell_formula_units_Z 48
_cell_length_a 23.981735
_cell_length_b 8.645427
_cell_length_c 9.049781
_cell_angle_alpha 90.000000
_cell_angle_beta 90.000000
_cell_angle_gamma 90.000000
_cell_volume 1876.312265
_symmetry_space_group_name_H-M "P C C N"
_symmetry_group_IT_number 56
_symmetry_cell_setting 'orthorhombic'
loop_
_space_group_symop_operation_xyz
x,y,z
1/2-x,1/2-y,z
1/2+x,-y,1/2-z
-x,1/2+y,1/2-z
-x,-y,-z
1/2+x,1/2+y,-z
1/2-x,y,1/2+z
x,1/2-y,1/2+z
loop_
_atom_site_type_symbol
_atom_site_label
_atom_site_fract_x
_atom_site_fract_y
_atom_site_fract_z
Si Si1 0.091515 0.750559 0.535071
Si Si2 0.405326 0.452690 0.716368
Si Si3 0.537249 0.448543 0.714234
Si Si4 0.381059 0.302052 0.417868
Si Si5 0.204817 0.614458 0.460332
Si Si6 0.774744 0.586134 0.255638
O O1 0.063110 0.621815 0.636897
O O2 0.049097 0.827006 0.418634
O O3 0.144798 0.692001 0.446246
O O4 0.113128 0.887203 0.642683
O O5 0.471793 0.471683 0.730053
O O6 0.388844 0.327089 0.591018
O O7 0.384303 0.374428 0.866019
O O8 0.568885 0.603028 0.661458
O O9 0.323885 0.378384 0.360871
O O10 0.250000 0.750000 0.482401
O O11 0.203505 0.508778 0.605844
O O12 0.227473 0.513898 0.324720
O O13 0.750000 0.750000 0.305156
#
# Coordination Sequence:
#
# PCOD9433397 Si02
#       6
#     8   8   8   8   8   8
#     4  11  25  43  72 102 145 183 238 291 343 422
#     4  11  24  43  73 104 143 190 229 287 351 419
#     4  11  22  45  69 106 143 187 232 287 348 418
#     4  11  25  45  67 102 143 183 237 289 353 417
#     4  12  27  48  74 103 138 186 244 295 359 421
#     4  12  29  48  73 102 143 185 240 300 359 421
#
# _framework density 25.582096
#
# number of rings (size 3 to 8) (size 9 to 14) (size 15 to 20)
#    0.000    0.667    1.667    7.000    9.333    1.333 
#    0.000    3.333    0.000    0.000    0.000    0.000 
#    0.000    0.000    0.000    0.000    0.000    0.000 
#
# Total GULP energy -269697.602099 kJ/mol
# GULP energy per Si atom -5618.700044 kJ/mol
# Density = 2.552387 g / cm^3
# Si number density = 25.582096 Si / 1000 Ang^3
#
#
#
# Elastic Constant Matrix: (Units=GPa)
#
#
# Indices 1 2 3 4 5 6 
#
# 1 78.9273 26.8119 9.0314 0.0000 0.0000 0.0000
# 2 26.8119 101.6966 21.4187 0.0000 0.0000 0.0000
# 3 9.0314 21.4187 86.6294 0.0000 0.0000 0.0000
# 4 0.0000 0.0000 0.0000 52.6392 0.0000 0.0000
# 5 0.0000 0.0000 0.0000 0.0000 23.8137 0.0000
# 6 0.0000 0.0000 0.0000 0.0000 0.0000 30.1671
#
#
#
# Elastic Compliance Matrix: (Units=1/GPa)
#
#
# Indices 1 2 3 4 5 6 
#
# 1 0.013943 -0.003555 -0.000575 0.000000 0.000000 0.000000
# 2 -0.003555 0.011280 -0.002418 0.000000 0.000000 0.000000
# 3 -0.000575 -0.002418 0.012201 0.000000 0.000000 0.000000
# 4 0.000000 0.000000 0.000000 0.018997 0.000000 0.000000
# 5 0.000000 0.000000 0.000000 0.000000 0.041993 0.000000
# 6 0.000000 0.000000 0.000000 0.000000 0.000000 0.033149
#
#
# Mechanical properties :
#
#
# Convention : Reuss Voigt Hill
#
# Bulk Modulus (GPa) = 41.10427 42.41970 41.76199
# Shear Modulus (GPa) = 32.72929 35.32341 34.02635
#
# Velocity S-wave (km/s) = 3.58073 3.71992 3.65099
# Velocity P-wave (km/s) = 5.76177 5.92184 5.84235
#
# Compressibility (1/GPa) = 0.02432837
#
# Stress axis : x y z
#
# Youngs Moduli (GPa) = 71.71896 88.65434 81.95888
#
# Poissons Ratio (x) = 0.31517 0.04710
# Poissons Ratio (y) = 0.25497 0.19820
# Poissons Ratio (z) = 0.04121 0.21439
#
# Static dielectric constant tensor:
#      x y z
#    x 1.995750 0.000000 0.000000 
#    y 0.000000 1.885190 0.000000 
#    z 0.000000 0.000000 1.986820 
# 
# From -- ./inp_files/8880.got.cif
#   From: 2010.05.17/outbox.cif.g08.bks.cpg/sg56_5_cif.got.tgz:8880.got - 2010.06.03 13:42:01.
