data_PCOD9433585
_publ_section_title
;
Structure prediction by ZEFSAII (Michael W. Deem and Ramdas Pophale) SiO2 
 PCOD9433585
Probable space group: P C C N
;
_chemical_formula_sum "Si O2"
_cell_formula_units_Z 48
_cell_length_a 13.519455
_cell_length_b 11.820644
_cell_length_c 13.759803
_cell_angle_alpha 90.000000
_cell_angle_beta 90.000000
_cell_angle_gamma 90.000000
_cell_volume 2198.935743
_symmetry_space_group_name_H-M "P C C N"
_symmetry_group_IT_number 56
_symmetry_cell_setting 'orthorhombic'
loop_
_space_group_symop_operation_xyz
x,y,z
1/2-x,1/2-y,z
1/2+x,-y,1/2-z
-x,1/2+y,1/2-z
-x,-y,-z
1/2+x,1/2+y,-z
1/2-x,y,1/2+z
x,1/2-y,1/2+z
loop_
_atom_site_type_symbol
_atom_site_label
_atom_site_fract_x
_atom_site_fract_y
_atom_site_fract_z
Si Si1 0.498277 0.679052 0.126096
Si Si2 0.090767 0.407818 0.858364
Si Si3 0.537401 0.338102 0.650569
Si Si4 0.699846 0.578596 0.053706
Si Si5 0.651013 0.686032 0.846979
Si Si6 0.665610 0.173484 0.525571
O O1 0.512126 0.813266 0.111349
O O2 0.458244 0.658997 0.233080
O O3 0.605990 0.623098 0.114408
O O4 0.422253 0.637726 0.046096
O O5 0.053969 0.533324 0.882336
O O6 0.194138 0.378250 0.910676
O O7 0.109573 0.388096 0.742607
O O8 0.431919 0.279796 0.627042
O O9 0.618833 0.254046 0.607080
O O10 0.706661 0.443649 0.065295
O O11 0.678379 0.615555 0.942921
O O12 0.750000 0.750000 0.813774
O O13 0.750000 0.250000 0.475901
#
# Coordination Sequence:
#
# PCOD9433585 Si02
#       6
#     8   8   8   8   8   8
#     4  11  25  43  74  98 134 184 233 276 351 410
#     4  11  24  45  69 107 137 176 231 291 342 414
#     4  11  25  45  67  99 141 178 230 283 350 407
#     4  12  24  45  73  98 142 178 234 285 343 418
#     4  11  24  45  74 104 137 185 235 287 349 413
#     4  12  26  46  64 102 139 182 228 286 349 414
#
# _framework density 21.828741000000001
#
# number of rings (size 3 to 8) (size 9 to 14) (size 15 to 20)
#    0.000    0.667    3.333    5.000    4.667    2.667 
#    3.000    0.000    0.000    0.000    0.000    0.000 
#    0.000    0.000    0.000    0.000    0.000    0.000 
#
# Total GULP energy -268651.455089 kJ/mol
# GULP energy per Si atom -5596.905314 kJ/mol
# Density = 2.177906 g / cm^3
# Si number density = 21.828741 Si / 1000 Ang^3
#
#
#
# Elastic Constant Matrix: (Units=GPa)
#
#
# Indices 1 2 3 4 5 6 
#
# 1 75.5922 16.8864 -2.8415 0.0000 0.0000 0.0000
# 2 16.8864 110.5491 -7.2232 0.0000 0.0000 0.0000
# 3 -2.8415 -7.2232 69.5274 0.0000 0.0000 0.0000
# 4 0.0000 0.0000 0.0000 21.3755 0.0000 0.0000
# 5 0.0000 0.0000 0.0000 0.0000 27.4355 0.0000
# 6 0.0000 0.0000 0.0000 0.0000 0.0000 34.1588
#
#
#
# Elastic Compliance Matrix: (Units=1/GPa)
#
#
# Indices 1 2 3 4 5 6 
#
# 1 0.013704 -0.002071 0.000345 0.000000 0.000000 0.000000
# 2 -0.002071 0.009420 0.000894 0.000000 0.000000 0.000000
# 3 0.000345 0.000894 0.014490 0.000000 0.000000 0.000000
# 4 0.000000 0.000000 0.000000 0.046782 0.000000 0.000000
# 5 0.000000 0.000000 0.000000 0.000000 0.036449 0.000000
# 6 0.000000 0.000000 0.000000 0.000000 0.000000 0.029275
#
#
# Mechanical properties :
#
#
# Convention : Reuss Voigt Hill
#
# Bulk Modulus (GPa) = 27.81556 29.92357 28.86957
# Shear Modulus (GPa) = 30.53086 33.18375 31.85731
#
# Velocity S-wave (km/s) = 3.74392 3.90319 3.82438
# Velocity P-wave (km/s) = 5.60888 5.83534 5.72323
#
# Compressibility (1/GPa) = 0.03595110
#
# Stress axis : x y z
#
# Youngs Moduli (GPa) = 72.96906 106.15155 69.01406
#
# Poissons Ratio (x) = 0.21982 -0.02381
# Poissons Ratio (y) = 0.15111 -0.06170
# Poissons Ratio (z) = -0.02517 -0.09491
#
# Static dielectric constant tensor:
#      x y z
#    x 1.763070 0.000000 0.000000 
#    y 0.000000 1.774880 0.000000 
#    z 0.000000 0.000000 1.790400 
# 
# From -- ./inp_files/12206.got.cif
#   From: 2010.05.17/outbox.cif.g08.bks.cpg/sg56_7_cif.got.tgz:12206.got - 2010.06.03 13:42:01.
