data_PCOD9433589
_publ_section_title
;
Structure prediction by ZEFSAII (Michael W. Deem and Ramdas Pophale) SiO2 
 PCOD9433589
Probable space group: P C C N
;
_chemical_formula_sum "Si O2"
_cell_formula_units_Z 40
_cell_length_a 4.886832
_cell_length_b 12.508602
_cell_length_c 25.811947
_cell_angle_alpha 90.000000
_cell_angle_beta 90.000000
_cell_angle_gamma 90.000000
_cell_volume 1577.818152
_symmetry_space_group_name_H-M "P C C N"
_symmetry_group_IT_number 56
_symmetry_cell_setting 'orthorhombic'
loop_
_space_group_symop_operation_xyz
x,y,z
1/2-x,1/2-y,z
1/2+x,-y,1/2-z
-x,1/2+y,1/2-z
-x,-y,-z
1/2+x,1/2+y,-z
1/2-x,y,1/2+z
x,1/2-y,1/2+z
loop_
_atom_site_type_symbol
_atom_site_label
_atom_site_fract_x
_atom_site_fract_y
_atom_site_fract_z
Si Si1 0.750000 0.250000 0.001497
Si Si2 0.071272 0.351050 0.095236
Si Si3 0.001344 0.827060 0.150562
Si Si4 0.843418 0.071153 0.255841
Si Si5 0.932068 0.046241 0.942608
Si Si6 0.750000 0.250000 0.680518
O O1 0.851362 0.159906 0.964331
O O2 0.548209 0.189028 0.040638
O O3 0.250000 0.250000 0.112806
O O4 0.228234 0.459827 0.083202
O O5 0.851760 0.342652 0.140656
O O6 0.250000 0.750000 0.132073
O O7 0.160662 0.888946 0.196021
O O8 0.894411 0.912374 0.107081
O O9 0.750000 0.750000 0.165722
O O10 0.917307 0.174163 0.220340
O O11 0.621766 0.990056 0.229921
O O12 0.000000 0.000000 0.000000
#
# Coordination Sequence:
#
# PCOD9433589 Si02
#       6
#     4   8   8   8   8   4
#     4  11  24  45  72 104 146 211 256 323 392 466
#     4  11  25  45  71 111 152 199 266 316 402 473
#     4  12  28  50  78 116 156 205 265 326 399 481
#     4  12  28  50  83 115 155 207 263 327 408 473
#     4  12  26  45  78 109 157 206 265 331 392 481
#     4  11  28  47  78 110 156 199 258 337 396 486
#
# _framework density 25.351465999999999
#
# number of rings (size 3 to 8) (size 9 to 14) (size 15 to 20)
#    0.000    0.400    4.000    3.000    8.400    1.600 
#    0.000    0.000    0.000    0.000    0.000    0.000 
#    0.000    0.000    0.000    0.000    0.000    0.000 
#
# Total GULP energy -222830.757176 kJ/mol
# GULP energy per Si atom -5570.768929 kJ/mol
# Density = 2.529376 g / cm^3
# Si number density = 25.351466 Si / 1000 Ang^3
#
#
#
# Elastic Constant Matrix: (Units=GPa)
#
#
# Indices 1 2 3 4 5 6 
#
# 1 79.3468 37.7094 12.5606 0.0000 0.0000 0.0000
# 2 37.7094 189.2892 47.4764 0.0000 0.0000 0.0000
# 3 12.5606 47.4764 143.9625 0.0000 0.0000 0.0000
# 4 0.0000 0.0000 0.0000 34.7248 0.0000 0.0000
# 5 0.0000 0.0000 0.0000 0.0000 9.7225 0.0000
# 6 0.0000 0.0000 0.0000 0.0000 0.0000 56.9152
#
#
#
# Elastic Compliance Matrix: (Units=1/GPa)
#
#
# Indices 1 2 3 4 5 6 
#
# 1 0.013935 -0.002694 -0.000327 0.000000 0.000000 0.000000
# 2 -0.002694 0.006280 -0.001836 0.000000 0.000000 0.000000
# 3 -0.000327 -0.001836 0.007580 0.000000 0.000000 0.000000
# 4 0.000000 0.000000 0.000000 0.028798 0.000000 0.000000
# 5 0.000000 0.000000 0.000000 0.000000 0.102854 0.000000
# 6 0.000000 0.000000 0.000000 0.000000 0.000000 0.017570
#
#
# Mechanical properties :
#
#
# Convention : Reuss Voigt Hill
#
# Bulk Modulus (GPa) = 55.30769 67.56571 61.43670
# Shear Modulus (GPa) = 25.93910 41.26262 33.60086
#
# Velocity S-wave (km/s) = 3.20219 4.03876 3.64456
# Velocity P-wave (km/s) = 5.96119 6.96119 6.48051
#
# Compressibility (1/GPa) = 0.01808067
#
# Stress axis : x y z
#
# Youngs Moduli (GPa) = 71.76159 159.23298 131.92071
#
# Poissons Ratio (x) = 0.42897 0.04319
# Poissons Ratio (y) = 0.19332 0.24221
# Poissons Ratio (z) = 0.02349 0.29236
#
# Static dielectric constant tensor:
#      x y z
#    x 2.151030 0.000000 0.000000 
#    y 0.000000 2.158460 0.000000 
#    z 0.000000 0.000000 2.012300 
# 
# From -- ./inp_files/21541.got.cif
#   From: 2010.05.17/outbox.cif.g08.bks.cpg/sg56_11_cif.got.tgz:21541.got - 2010.06.03 13:42:01.
