data_PCOD9433173
_publ_section_title
;
Structure prediction by ZEFSAII (Michael W. Deem and Ramdas Pophale) SiO2 
 PCOD9433173
Probable space group: P C C N
;
_chemical_formula_sum "Si O2"
_cell_formula_units_Z 20
_cell_length_a 17.876755
_cell_length_b 5.083866
_cell_length_c 9.017932
_cell_angle_alpha 90.000000
_cell_angle_beta 90.000000
_cell_angle_gamma 90.000000
_cell_volume 819.576957
_symmetry_space_group_name_H-M "P C C N"
_symmetry_group_IT_number 56
_symmetry_cell_setting 'orthorhombic'
loop_
_space_group_symop_operation_xyz
x,y,z
1/2-x,1/2-y,z
1/2+x,-y,1/2-z
-x,1/2+y,1/2-z
-x,-y,-z
1/2+x,1/2+y,-z
1/2-x,y,1/2+z
x,1/2-y,1/2+z
loop_
_atom_site_type_symbol
_atom_site_label
_atom_site_fract_x
_atom_site_fract_y
_atom_site_fract_z
Si Si1 0.025501 0.093884 0.336907
Si Si2 0.322688 0.423428 0.841543
Si Si3 0.250000 0.750000 0.094393
O O1 0.105391 0.239509 0.345599
O O2 0.976016 0.329192 0.263376
O O3 0.000000 0.000000 0.500000
O O4 0.250000 0.250000 0.830821
O O5 0.309798 0.601483 0.697859
O O6 0.305571 0.585797 0.989223
#
# Coordination Sequence:
#
# PCOD9433173 Si02
#       3
#     8   8   4
#     4  12  32  56  86 125 176 226 281 350 434 510
#     4  11  27  48  85 118 167 221 286 348 419 506
#     4  10  26  50  82 120 166 216 298 346 420 490
#
# _framework density 24.402836000000001
#
# number of rings (size 3 to 8) (size 9 to 14) (size 15 to 20)
#    0.000    0.800    0.000    2.400   22.400    0.000 
#    0.000    0.000    0.000    0.000    0.000    0.000 
#    0.000    0.000    0.000    0.000    0.000    0.000 
#
# Total GULP energy -111991.656362 kJ/mol
# GULP energy per Si atom -5599.582818 kJ/mol
# Density = 2.434729 g / cm^3
# Si number density = 24.402836 Si / 1000 Ang^3
#
#
#
# Elastic Constant Matrix: (Units=GPa)
#
#
# Indices 1 2 3 4 5 6 
#
# 1 175.4312 74.9050 88.5643 0.0000 0.0000 0.0000
# 2 74.9050 195.4198 141.6499 0.0000 0.0000 0.0000
# 3 88.5643 141.6499 237.8363 0.0000 0.0000 0.0000
# 4 0.0000 0.0000 0.0000 -21.5812 0.0000 0.0000
# 5 0.0000 0.0000 0.0000 0.0000 6.6229 0.0000
# 6 0.0000 0.0000 0.0000 0.0000 0.0000 69.9344
#
#
#
# Elastic Compliance Matrix: (Units=1/GPa)
#
#
# Indices 1 2 3 4 5 6 
#
# 1 0.007245 -0.001445 -0.001837 0.000000 0.000000 0.000000
# 2 -0.001445 0.009293 -0.004996 0.000000 0.000000 0.000000
# 3 -0.001837 -0.004996 0.007864 0.000000 0.000000 0.000000
# 4 0.000000 0.000000 0.000000 -0.046337 0.000000 0.000000
# 5 0.000000 0.000000 0.000000 0.000000 0.150991 0.000000
# 6 0.000000 0.000000 0.000000 0.000000 0.000000 0.014299
#
#
# Mechanical properties :
#
#
# Convention : Reuss Voigt Hill
#
# Bulk Modulus (GPa) = 127.47804 135.43617 131.45711
# Shear Modulus (GPa) = 30.76401 31.23310 30.99856
#
# Velocity S-wave (km/s) = 3.55445 3.58145 3.56797
# Velocity P-wave (km/s) = 8.31853 8.52778 8.42380
#
# Compressibility (1/GPa) = 0.00784449
#
# Stress axis : x y z
#
# Youngs Moduli (GPa) = 138.03110 107.60975 127.15719
#
# Poissons Ratio (x) = 0.15555 0.23357
# Poissons Ratio (y) = 0.19952 0.63532
# Poissons Ratio (z) = 0.25354 0.53766
#
# Static dielectric constant tensor:
#      x y z
#    x 1.957590 0.000000 0.000000 
#    y 0.000000 1.714850 0.000000 
#    z 0.000000 0.000000 1.855950 
# 
# From -- ./inp_files/1443.got.cif
#   From: 2010.05.17/outbox.cif.g08.bks.cpg/sg56_1_cif.got.tgz:1443.got - 2010.06.03 13:42:01.
