data_PCOD9433035
_publ_section_title
;
Structure prediction by ZEFSAII (Michael W. Deem and Ramdas Pophale) SiO2 
 PCOD9433035
Probable space group: P C C N
;
_chemical_formula_sum "Si O2"
_cell_formula_units_Z 40
_cell_length_a 8.202948
_cell_length_b 23.211074
_cell_length_c 8.095542
_cell_angle_alpha 90.000000
_cell_angle_beta 90.000000
_cell_angle_gamma 90.000000
_cell_volume 1541.384988
_symmetry_space_group_name_H-M "P C C N"
_symmetry_group_IT_number 56
_symmetry_cell_setting 'orthorhombic'
loop_
_space_group_symop_operation_xyz
x,y,z
1/2-x,1/2-y,z
1/2+x,-y,1/2-z
-x,1/2+y,1/2-z
-x,-y,-z
1/2+x,1/2+y,-z
1/2-x,y,1/2+z
x,1/2-y,1/2+z
loop_
_atom_site_type_symbol
_atom_site_label
_atom_site_fract_x
_atom_site_fract_y
_atom_site_fract_z
Si Si1 0.540612 0.550289 0.871672
Si Si2 0.284164 0.314903 0.342477
Si Si3 0.395986 0.107461 0.126417
Si Si4 0.064316 0.824724 0.902005
Si Si5 0.500000 0.000000 0.000000
Si Si6 0.750000 0.250000 0.348561
O O1 0.734808 0.565587 0.889454
O O2 0.435694 0.606740 0.919306
O O3 0.511251 0.534365 0.680498
O O4 0.500000 0.500000 0.000000
O O5 0.250000 0.250000 0.384497
O O6 0.132233 0.356245 0.293079
O O7 0.391119 0.347279 0.477940
O O8 0.385352 0.313611 0.171937
O O9 0.536169 0.061599 0.099581
O O10 0.184952 0.802347 0.760163
O O11 0.110186 0.779810 0.043909
#
# Coordination Sequence:
#
# PCOD9433035 Si02
#       6
#     8   8   8   8   4   4
#     4  11  26  47  71 106 144 195 247 300 363 441
#     4  11  24  41  74 106 141 188 243 309 371 438
#     4  11  23  46  65 105 139 180 247 296 370 430
#     4  10  24  47  70 107 146 191 251 301 374 446
#     4  12  24  48  72 100 154 184 244 306 358 446
#     4  10  24  48  70 106 150 192 246 304 380 450
#
# _framework density 25.950688
#
# number of rings (size 3 to 8) (size 9 to 14) (size 15 to 20)
#    0.000    1.200    4.000    1.800    8.400    1.600 
#    7.200    0.000    0.000    0.000    0.000    0.000 
#    0.000    0.000    0.000    0.000    0.000    0.000 
#
# Total GULP energy -222945.435467 kJ/mol
# GULP energy per Si atom -5573.635887 kJ/mol
# Density = 2.589162 g / cm^3
# Si number density = 25.950688 Si / 1000 Ang^3
#
#
#
# Elastic Constant Matrix: (Units=GPa)
#
#
# Indices 1 2 3 4 5 6 
#
# 1 49.4483 12.8768 5.9285 0.0000 0.0000 0.0000
# 2 12.8768 208.0508 41.3526 0.0000 0.0000 0.0000
# 3 5.9285 41.3526 84.2194 0.0000 0.0000 0.0000
# 4 0.0000 0.0000 0.0000 64.8867 0.0000 0.0000
# 5 0.0000 0.0000 0.0000 0.0000 19.3173 0.0000
# 6 0.0000 0.0000 0.0000 0.0000 0.0000 26.7719
#
#
#
# Elastic Compliance Matrix: (Units=1/GPa)
#
#
# Indices 1 2 3 4 5 6 
#
# 1 0.020618 -0.001094 -0.000914 0.000000 0.000000 0.000000
# 2 -0.001094 0.005384 -0.002567 0.000000 0.000000 0.000000
# 3 -0.000914 -0.002567 0.013198 0.000000 0.000000 0.000000
# 4 0.000000 0.000000 0.000000 0.015411 0.000000 0.000000
# 5 0.000000 0.000000 0.000000 0.000000 0.051767 0.000000
# 6 0.000000 0.000000 0.000000 0.000000 0.000000 0.037353
#
#
# Mechanical properties :
#
#
# Convention : Reuss Voigt Hill
#
# Bulk Modulus (GPa) = 33.27765 51.33714 42.30740
# Shear Modulus (GPa) = 30.69390 40.96589 35.82989
#
# Velocity S-wave (km/s) = 3.44288 3.97748 3.71980
# Velocity P-wave (km/s) = 5.35312 6.39682 5.89810
#
# Compressibility (1/GPa) = 0.03005020
#
# Stress axis : x y z
#
# Youngs Moduli (GPa) = 48.50195 185.72064 75.76681
#
# Poissons Ratio (x) = 0.20326 0.06925
# Poissons Ratio (y) = 0.05308 0.19448
# Poissons Ratio (z) = 0.04433 0.47670
#
# Static dielectric constant tensor:
#      x y z
#    x 2.348230 0.000000 0.000000 
#    y 0.000000 2.039120 0.000000 
#    z 0.000000 0.000000 2.125160 
# 
# From -- ./inp_files/2090.got.cif
#   From: 2010.05.17/outbox.cif.g08.bks.cpg/sg56_2_cif.got.tgz:2090.got - 2010.06.03 13:42:01.
