data_PCOD9433722
_publ_section_title
;
Structure prediction by ZEFSAII (Michael W. Deem and Ramdas Pophale) SiO2 
 PCOD9433722
Probable space group: P C C N
;
_chemical_formula_sum "Si O2"
_cell_formula_units_Z 32
_cell_length_a 14.533818
_cell_length_b 4.867690
_cell_length_c 15.078212
_cell_angle_alpha 90.000000
_cell_angle_beta 90.000000
_cell_angle_gamma 90.000000
_cell_volume 1066.725004
_symmetry_space_group_name_H-M "P C C N"
_symmetry_group_IT_number 56
_symmetry_cell_setting 'orthorhombic'
loop_
_space_group_symop_operation_xyz
x,y,z
1/2-x,1/2-y,z
1/2+x,-y,1/2-z
-x,1/2+y,1/2-z
-x,-y,-z
1/2+x,1/2+y,-z
1/2-x,y,1/2+z
x,1/2-y,1/2+z
loop_
_atom_site_type_symbol
_atom_site_label
_atom_site_fract_x
_atom_site_fract_y
_atom_site_fract_z
Si Si1 0.250000 0.250000 0.384507
Si Si2 0.500000 0.500000 0.500000
Si Si3 0.009379 0.048235 0.712610
Si Si4 0.339020 0.937365 0.526636
Si Si5 0.665258 0.049308 0.277582
O O1 0.166412 0.335238 0.449692
O O2 0.287492 0.471497 0.316965
O O3 0.503083 0.430691 0.608471
O O4 0.428455 0.752447 0.520275
O O5 0.921608 0.278779 0.761371
O O6 0.069313 0.313454 0.750115
O O7 0.250000 0.750000 0.508447
O O8 0.339512 0.084362 0.621170
O O9 0.750000 0.250000 0.309025
#
# Coordination Sequence:
#
# PCOD9433722 Si02
#       5
#     4   4   8   8   8
#     4  12  24  44  86 116 164 220 304 370 456 548
#     4  12  26  52  82 114 180 226 296 366 462 544
#     4  12  29  50  78 120 163 221 283 360 442 537
#     4  11  26  51  78 124 164 233 297 367 464 565
#     4  11  26  49  75 112 164 216 285 362 444 539
#
# _framework density 29.998359000000001
#
# number of rings (size 3 to 8) (size 9 to 14) (size 15 to 20)
#    0.000    0.500    2.500    4.500    7.000    5.000 
#    0.000    0.000    0.000    0.000    0.000    0.000 
#    0.000    0.000    0.000    0.000    0.000    0.000 
#
# Total GULP energy -178319.271258 kJ/mol
# GULP energy per Si atom -5572.477227 kJ/mol
# Density = 2.993008 g / cm^3
# Si number density = 29.998359 Si / 1000 Ang^3
#
#
#
# Elastic Constant Matrix: (Units=GPa)
#
#
# Indices 1 2 3 4 5 6 
#
# 1 147.5139 42.2791 18.8188 0.0000 0.0000 0.0000
# 2 42.2791 185.6694 47.8617 0.0000 0.0000 0.0000
# 3 18.8188 47.8617 320.1238 0.0000 0.0000 0.0000
# 4 0.0000 0.0000 0.0000 55.2450 0.0000 0.0000
# 5 0.0000 0.0000 0.0000 0.0000 -48.2908 0.0000
# 6 0.0000 0.0000 0.0000 0.0000 0.0000 85.6373
#
#
#
# Elastic Compliance Matrix: (Units=1/GPa)
#
#
# Indices 1 2 3 4 5 6 
#
# 1 0.007263 -0.001606 -0.000187 0.000000 0.000000 0.000000
# 2 -0.001606 0.005957 -0.000796 0.000000 0.000000 0.000000
# 3 -0.000187 -0.000796 0.003254 0.000000 0.000000 0.000000
# 4 0.000000 0.000000 0.000000 0.018101 0.000000 0.000000
# 5 0.000000 0.000000 0.000000 0.000000 -0.020708 0.000000
# 6 0.000000 0.000000 0.000000 0.000000 0.000000 0.011677
#
#
# Mechanical properties :
#
#
# Convention : Reuss Voigt Hill
#
# Bulk Modulus (GPa) = 88.52636 96.80292 92.66464
# Shear Modulus (GPa) = 144.98151 54.80814 99.89482
#
# Velocity S-wave (km/s) = 6.95951 4.27902 5.77688
# Velocity P-wave (km/s) = 9.70330 7.53345 8.68640
#
# Compressibility (1/GPa) = 0.01129607
#
# Stress axis : x y z
#
# Youngs Moduli (GPa) = 137.68267 167.87536 307.33119
#
# Poissons Ratio (x) = 0.26956 0.05744
# Poissons Ratio (y) = 0.22108 0.24470
# Poissons Ratio (z) = 0.02573 0.13366
#
# Static dielectric constant tensor:
#      x y z
#    x 0.092600 0.000000 0.000000 
#    y 0.000000 0.133980 0.000000 
#    z 0.000000 0.000000 2.046290 
# 
# From -- ./inp_files/12529.got.cif
#   From: 2010.05.17/outbox.cif.g08.bks.cpg/sg56_7_cif.got.tgz:12529.got - 2010.06.03 13:42:01.
