data_PCOD9433006
_publ_section_title
;
Structure prediction by ZEFSAII (Michael W. Deem and Ramdas Pophale) SiO2 
 PCOD9433006
Probable space group: P C C N
;
_chemical_formula_sum "Si O2"
_cell_formula_units_Z 40
_cell_length_a 12.577561
_cell_length_b 7.108248
_cell_length_c 18.633057
_cell_angle_alpha 90.000000
_cell_angle_beta 90.000000
_cell_angle_gamma 90.000000
_cell_volume 1665.877707
_symmetry_space_group_name_H-M "P C C N"
_symmetry_group_IT_number 56
_symmetry_cell_setting 'orthorhombic'
loop_
_space_group_symop_operation_xyz
x,y,z
1/2-x,1/2-y,z
1/2+x,-y,1/2-z
-x,1/2+y,1/2-z
-x,-y,-z
1/2+x,1/2+y,-z
1/2-x,y,1/2+z
x,1/2-y,1/2+z
loop_
_atom_site_type_symbol
_atom_site_label
_atom_site_fract_x
_atom_site_fract_y
_atom_site_fract_z
Si Si1 0.187433 0.557632 0.122435
Si Si2 0.750000 0.250000 0.116352
Si Si3 0.825803 0.992903 0.736886
Si Si4 0.750000 0.750000 0.992202
Si Si5 0.501994 0.226662 0.311746
Si Si6 0.081586 0.508141 0.435640
O O1 0.250000 0.750000 0.101936
O O2 0.250011 0.487167 0.193860
O O3 0.197972 0.405497 0.060190
O O4 0.067783 0.616613 0.143491
O O5 0.734689 0.070335 0.167689
O O6 0.645433 0.297314 0.071286
O O7 0.914386 0.153070 0.753604
O O8 0.893963 0.808670 0.720271
O O9 0.665735 0.650508 0.042837
O O10 0.477328 0.051125 0.363109
O O11 0.000000 0.500000 0.500000
#
# Coordination Sequence:
#
# PCOD9433006 Si02
#       6
#     8   4   8   4   8   8
#     4  10  24  46  71 106 146 184 244 310 364 441
#     4  12  26  48  72 106 150 190 242 328 356 446
#     4  11  23  45  70 109 140 183 246 316 376 433
#     4  12  28  46  74 108 144 208 240 300 366 446
#     4  11  24  43  73 103 141 196 241 309 379 440
#     4  12  29  48  72 107 151 200 254 296 371 457
#
# _framework density 24.011365999999999
#
# number of rings (size 3 to 8) (size 9 to 14) (size 15 to 20)
#    0.000    0.800    3.000    4.800    9.800    0.800 
#    0.000    0.000    0.000    0.000    0.000    0.000 
#    0.000    0.000    0.000    0.000    0.000    0.000 
#
# Total GULP energy -224239.235994 kJ/mol
# GULP energy per Si atom -5605.980900 kJ/mol
# Density = 2.395672 g / cm^3
# Si number density = 24.011366 Si / 1000 Ang^3
#
#
#
# Elastic Constant Matrix: (Units=GPa)
#
#
# Indices 1 2 3 4 5 6 
#
# 1 76.9007 3.7523 19.8506 0.0000 0.0000 0.0000
# 2 3.7523 59.1007 18.9698 0.0000 0.0000 0.0000
# 3 19.8506 18.9698 68.3878 0.0000 0.0000 0.0000
# 4 0.0000 0.0000 0.0000 47.6804 0.0000 0.0000
# 5 0.0000 0.0000 0.0000 0.0000 38.9375 0.0000
# 6 0.0000 0.0000 0.0000 0.0000 0.0000 55.0767
#
#
#
# Elastic Compliance Matrix: (Units=1/GPa)
#
#
# Indices 1 2 3 4 5 6 
#
# 1 0.014068 0.000458 -0.004211 0.000000 0.000000 0.000000
# 2 0.000458 0.018589 -0.005289 0.000000 0.000000 0.000000
# 3 -0.004211 -0.005289 0.017312 0.000000 0.000000 0.000000
# 4 0.000000 0.000000 0.000000 0.020973 0.000000 0.000000
# 5 0.000000 0.000000 0.000000 0.000000 0.025682 0.000000
# 6 0.000000 0.000000 0.000000 0.000000 0.000000 0.018156
#
#
# Mechanical properties :
#
#
# Convention : Reuss Voigt Hill
#
# Bulk Modulus (GPa) = 31.36198 32.17052 31.76625
# Shear Modulus (GPa) = 34.84494 39.12667 36.98581
#
# Velocity S-wave (km/s) = 3.81358 4.04109 3.92898
# Velocity P-wave (km/s) = 5.69919 5.93305 5.81730
#
# Compressibility (1/GPa) = 0.03188574
#
# Stress axis : x y z
#
# Youngs Moduli (GPa) = 71.08163 53.79546 57.76371
#
# Poissons Ratio (x) = -0.02466 0.24322
# Poissons Ratio (y) = -0.03258 0.30553
# Poissons Ratio (z) = 0.29930 0.28454
#
# Static dielectric constant tensor:
#      x y z
#    x 1.929450 0.000000 0.000000 
#    y 0.000000 1.927420 0.000000 
#    z 0.000000 0.000000 1.878130 
# 
# From -- ./inp_files/15450.got.cif
#   From: 2010.05.17/outbox.cif.g08.bks.cpg/sg56_8_cif.got.tgz:15450.got - 2010.06.03 13:42:01.
