data_PCOD9433021
_publ_section_title
;
Structure prediction by ZEFSAII (Michael W. Deem and Ramdas Pophale) SiO2 
 PCOD9433021
Probable space group: P C C N
;
_chemical_formula_sum "Si O2"
_cell_formula_units_Z 32
_cell_length_a 9.248520
_cell_length_b 13.945085
_cell_length_c 9.602646
_cell_angle_alpha 90.000000
_cell_angle_beta 90.000000
_cell_angle_gamma 90.000000
_cell_volume 1238.466675
_symmetry_space_group_name_H-M "P C C N"
_symmetry_group_IT_number 56
_symmetry_cell_setting 'orthorhombic'
loop_
_space_group_symop_operation_xyz
x,y,z
1/2-x,1/2-y,z
1/2+x,-y,1/2-z
-x,1/2+y,1/2-z
-x,-y,-z
1/2+x,1/2+y,-z
1/2-x,y,1/2+z
x,1/2-y,1/2+z
loop_
_atom_site_type_symbol
_atom_site_label
_atom_site_fract_x
_atom_site_fract_y
_atom_site_fract_z
Si Si1 0.027472 0.852993 0.740074
Si Si2 0.392299 0.456543 0.841834
Si Si3 0.839434 0.486559 0.936956
Si Si4 0.413506 0.263499 0.004244
O O1 0.168938 0.886528 0.651463
O O2 0.929609 0.817300 0.613600
O O3 0.994069 0.957523 0.809400
O O4 0.019124 0.775579 0.862997
O O5 0.330416 0.436429 0.687965
O O6 0.439118 0.360766 0.916467
O O7 0.274636 0.504462 0.942435
O O8 0.000000 0.500000 0.000000
O O9 0.250000 0.250000 0.055441
#
# Coordination Sequence:
#
# PCOD9433021 Si02
#       4
#     8   8   8   8
#     4  10  27  45  71 110 154 192 249 316 386 444
#     4  10  26  46  77 105 155 197 254 308 389 443
#     4  10  24  46  75 106 146 202 249 306 382 457
#     4  12  25  44  77 117 145 198 262 322 369 456
#
# _framework density 25.838403
#
# number of rings (size 3 to 8) (size 9 to 14) (size 15 to 20)
#    1.500    0.000    0.000    3.000   14.000    0.000 
#    0.000    3.750    0.000    0.000    0.000    0.000 
#    0.000    0.000    0.000    0.000    0.000    0.000 
#
# Total GULP energy -178418.427701 kJ/mol
# GULP energy per Si atom -5575.575866 kJ/mol
# Density = 2.577959 g / cm^3
# Si number density = 25.838403 Si / 1000 Ang^3
#
#
#
# Elastic Constant Matrix: (Units=GPa)
#
#
# Indices 1 2 3 4 5 6 
#
# 1 50.6269 39.3662 58.2157 0.0000 0.0000 0.0000
# 2 39.3662 103.6574 52.2900 0.0000 0.0000 0.0000
# 3 58.2157 52.2900 223.1196 0.0000 0.0000 0.0000
# 4 0.0000 0.0000 0.0000 63.5915 0.0000 0.0000
# 5 0.0000 0.0000 0.0000 0.0000 42.7116 0.0000
# 6 0.0000 0.0000 0.0000 0.0000 0.0000 25.5295
#
#
#
# Elastic Compliance Matrix: (Units=1/GPa)
#
#
# Indices 1 2 3 4 5 6 
#
# 1 0.035463 -0.009980 -0.006914 0.000000 0.000000 0.000000
# 2 -0.009980 0.013749 -0.000618 0.000000 0.000000 0.000000
# 3 -0.006914 -0.000618 0.006431 0.000000 0.000000 0.000000
# 4 0.000000 0.000000 0.000000 0.015725 0.000000 0.000000
# 5 0.000000 0.000000 0.000000 0.000000 0.023413 0.000000
# 6 0.000000 0.000000 0.000000 0.000000 0.000000 0.039170
#
#
# Mechanical properties :
#
#
# Convention : Reuss Voigt Hill
#
# Bulk Modulus (GPa) = 48.50061 75.23863 61.86962
# Shear Modulus (GPa) = 28.43347 41.53533 34.98440
#
# Velocity S-wave (km/s) = 3.32088 4.01372 3.68362
# Velocity P-wave (km/s) = 5.78928 7.11773 6.48760
#
# Compressibility (1/GPa) = 0.02061830
#
# Stress axis : x y z
#
# Youngs Moduli (GPa) = 28.19839 72.73145 155.50234
#
# Poissons Ratio (x) = 0.72587 1.07514
# Poissons Ratio (y) = 0.28142 0.09614
# Poissons Ratio (z) = 0.19496 0.04497
#
# Static dielectric constant tensor:
#      x y z
#    x 2.071270 0.000000 0.000000 
#    y 0.000000 2.181220 0.000000 
#    z 0.000000 0.000000 2.030830 
# 
# From -- ./inp_files/2428.got.cif
#   From: 2010.05.17/outbox.cif.g08.bks.cpg/sg56_2_cif.got.tgz:2428.got - 2010.06.03 13:42:01.
