data_PCOD9433425
_publ_section_title
;
Structure prediction by ZEFSAII (Michael W. Deem and Ramdas Pophale) SiO2 
 PCOD9433425
Probable space group: P C C N
;
_chemical_formula_sum "Si O2"
_cell_formula_units_Z 60
_cell_length_a 11.480507
_cell_length_b 11.313561
_cell_length_c 20.643277
_cell_angle_alpha 90.000000
_cell_angle_beta 90.000000
_cell_angle_gamma 90.000000
_cell_volume 2681.260626
_symmetry_space_group_name_H-M "P C C N"
_symmetry_group_IT_number 56
_symmetry_cell_setting 'orthorhombic'
loop_
_space_group_symop_operation_xyz
x,y,z
1/2-x,1/2-y,z
1/2+x,-y,1/2-z
-x,1/2+y,1/2-z
-x,-y,-z
1/2+x,1/2+y,-z
1/2-x,y,1/2+z
x,1/2-y,1/2+z
loop_
_atom_site_type_symbol
_atom_site_label
_atom_site_fract_x
_atom_site_fract_y
_atom_site_fract_z
Si Si1 0.622041 0.262876 0.455852
Si Si2 0.665885 0.460687 0.784657
Si Si3 0.250000 0.750000 0.800861
Si Si4 0.089815 0.321927 0.786850
Si Si5 0.398194 0.534084 0.631626
Si Si6 0.408946 0.638215 0.909595
Si Si7 0.549099 0.609048 0.129859
Si Si8 0.889011 0.765439 0.356134
O O1 0.750000 0.250000 0.425773
O O2 0.592271 0.397407 0.436773
O O3 0.627989 0.212955 0.528060
O O4 0.533094 0.178084 0.419647
O O5 0.686877 0.343299 0.744473
O O6 0.673735 0.570780 0.735018
O O7 0.768595 0.469523 0.837461
O O8 0.538626 0.451154 0.817541
O O9 0.340568 0.685768 0.847604
O O10 0.073934 0.259361 0.717631
O O11 0.979590 0.390124 0.819105
O O12 0.119837 0.213712 0.834780
O O13 0.430935 0.396918 0.625995
O O14 0.389503 0.497544 0.908167
O O15 0.544750 0.669997 0.899887
O O16 0.750000 0.750000 0.361508
#
# Coordination Sequence:
#
# PCOD9433425 Si02
#       8
#     8   8   4   8   8   8   8   8
#     4  11  23  45  69  96 128 184 244 292 334 409
#     4  12  22  40  66  99 140 176 217 281 349 429
#     4  12  26  40  66 104 142 176 224 294 354 414
#     4  11  23  38  66 101 137 174 219 280 352 425
#     4  11  23  42  68  95 134 180 231 280 345 424
#     4  12  25  45  68  99 133 181 238 292 345 409
#     4  11  23  41  67  99 137 178 233 277 350 421
#     4  12  24  42  65 101 139 182 223 283 367 425
#
# _framework density 22.377534000000001
#
# number of rings (size 3 to 8) (size 9 to 14) (size 15 to 20)
#    0.000    0.533    4.667    5.200    1.867    0.533 
#    0.000    0.000    0.000    3.200    0.000    0.000 
#    0.000    0.000    0.000    0.000    0.000    0.000 
#
# Total GULP energy -335287.383894 kJ/mol
# GULP energy per Si atom -5588.123065 kJ/mol
# Density = 2.232660 g / cm^3
# Si number density = 22.377534 Si / 1000 Ang^3
#
#
#
# Elastic Constant Matrix: (Units=GPa)
#
#
# Indices 1 2 3 4 5 6 
#
# 1 62.3094 13.6678 0.8912 0.0000 0.0000 0.0000
# 2 13.6678 185.0943 41.3650 0.0000 0.0000 0.0000
# 3 0.8912 41.3650 58.0480 0.0000 0.0000 0.0000
# 4 0.0000 0.0000 0.0000 54.5805 0.0000 0.0000
# 5 0.0000 0.0000 0.0000 0.0000 15.8398 0.0000
# 6 0.0000 0.0000 0.0000 0.0000 0.0000 26.9895
#
#
#
# Elastic Compliance Matrix: (Units=1/GPa)
#
#
# Indices 1 2 3 4 5 6 
#
# 1 0.016339 -0.001368 0.000724 0.000000 0.000000 0.000000
# 2 -0.001368 0.006541 -0.004640 0.000000 0.000000 0.000000
# 3 0.000724 -0.004640 0.020522 0.000000 0.000000 0.000000
# 4 0.000000 0.000000 0.000000 0.018322 0.000000 0.000000
# 5 0.000000 0.000000 0.000000 0.000000 0.063132 0.000000
# 6 0.000000 0.000000 0.000000 0.000000 0.000000 0.037051
#
#
# Mechanical properties :
#
#
# Convention : Reuss Voigt Hill
#
# Bulk Modulus (GPa) = 30.45642 46.36665 38.41153
# Shear Modulus (GPa) = 27.25997 36.11715 31.68856
#
# Velocity S-wave (km/s) = 3.49404 4.02181 3.76718
# Velocity P-wave (km/s) = 5.46969 6.50629 6.01038
#
# Compressibility (1/GPa) = 0.03283380
#
# Stress axis : x y z
#
# Youngs Moduli (GPa) = 61.20427 152.89099 48.72738
#
# Poissons Ratio (x) = 0.20921 -0.03529
# Poissons Ratio (y) = 0.08375 0.22609
# Poissons Ratio (z) = -0.04433 0.70939
#
# Static dielectric constant tensor:
#      x y z
#    x 1.888270 0.000000 0.000000 
#    y 0.000000 1.874610 0.000000 
#    z 0.000000 0.000000 1.818710 
# 
# From -- ./inp_files/18831.got.cif
#   From: 2010.05.17/outbox.cif.g08.bks.cpg/sg56_10_cif.got.tgz:18831.got - 2010.06.03 13:42:01.
