data_PCOD9433095
_publ_section_title
;
Structure prediction by ZEFSAII (Michael W. Deem and Ramdas Pophale) SiO2 
 PCOD9433095
Probable space group: P C C N
;
_chemical_formula_sum "Si O2"
_cell_formula_units_Z 40
_cell_length_a 7.803136
_cell_length_b 20.009509
_cell_length_c 10.493575
_cell_angle_alpha 90.000000
_cell_angle_beta 90.000000
_cell_angle_gamma 90.000000
_cell_volume 1638.434481
_symmetry_space_group_name_H-M "P C C N"
_symmetry_group_IT_number 56
_symmetry_cell_setting 'orthorhombic'
loop_
_space_group_symop_operation_xyz
x,y,z
1/2-x,1/2-y,z
1/2+x,-y,1/2-z
-x,1/2+y,1/2-z
-x,-y,-z
1/2+x,1/2+y,-z
1/2-x,y,1/2+z
x,1/2-y,1/2+z
loop_
_atom_site_type_symbol
_atom_site_label
_atom_site_fract_x
_atom_site_fract_y
_atom_site_fract_z
Si Si1 0.076489 0.238532 0.709911
Si Si2 0.906961 0.368700 0.367907
Si Si3 0.042044 0.625544 0.183001
Si Si4 0.067685 0.483263 0.641556
Si Si5 0.744944 0.869661 0.976276
O O1 0.250000 0.250000 0.793537
O O2 0.939658 0.188707 0.766939
O O3 0.160630 0.193724 0.595843
O O4 0.991695 0.311363 0.723546
O O5 0.063038 0.358537 0.467067
O O6 0.708065 0.363038 0.405703
O O7 0.917138 0.442208 0.306356
O O8 0.056486 0.561071 0.272698
O O9 0.878990 0.613784 0.093011
O O10 0.228890 0.433506 0.617240
O O11 0.000000 0.500000 0.500000
#
# Coordination Sequence:
#
# PCOD9433095 Si02
#       5
#     8   8   8   8   8
#     4  12  25  47  75 102 150 201 246 307 384 442
#     4  11  27  48  74 111 148 194 256 314 372 456
#     4  12  27  47  77 110 154 198 258 313 371 459
#     4  10  25  45  76 111 150 198 252 308 386 446
#     4  11  25  48  74 110 148 204 250 311 383 450
#
# _framework density 24.413547000000001
#
# number of rings (size 3 to 8) (size 9 to 14) (size 15 to 20)
#    0.000    0.800    4.000    0.600   11.200    4.000 
#    3.600    0.000    0.000    0.000    0.000    0.000 
#    0.000    0.000    0.000    0.000    0.000    0.000 
#
# Total GULP energy -222966.216911 kJ/mol
# GULP energy per Si atom -5574.155423 kJ/mol
# Density = 2.435798 g / cm^3
# Si number density = 24.413547 Si / 1000 Ang^3
#
#
#
# Elastic Constant Matrix: (Units=GPa)
#
#
# Indices 1 2 3 4 5 6 
#
# 1 141.5086 1.9023 38.1975 0.0000 0.0000 0.0000
# 2 1.9023 160.2677 9.7125 0.0000 0.0000 0.0000
# 3 38.1975 9.7125 31.3880 0.0000 0.0000 0.0000
# 4 0.0000 0.0000 0.0000 33.1113 0.0000 0.0000
# 5 0.0000 0.0000 0.0000 0.0000 15.8150 0.0000
# 6 0.0000 0.0000 0.0000 0.0000 0.0000 19.4980
#
#
#
# Elastic Compliance Matrix: (Units=1/GPa)
#
#
# Indices 1 2 3 4 5 6 
#
# 1 0.010593 0.000668 -0.013098 0.000000 0.000000 0.000000
# 2 0.000668 0.006401 -0.002794 0.000000 0.000000 0.000000
# 3 -0.013098 -0.002794 0.048664 0.000000 0.000000 0.000000
# 4 0.000000 0.000000 0.000000 0.030201 0.000000 0.000000
# 5 0.000000 0.000000 0.000000 0.000000 0.063231 0.000000
# 6 0.000000 0.000000 0.000000 0.000000 0.000000 0.051287
#
#
# Mechanical properties :
#
#
# Convention : Reuss Voigt Hill
#
# Bulk Modulus (GPa) = 28.40083 48.08766 38.24424
# Shear Modulus (GPa) = 19.79714 32.57501 26.18607
#
# Velocity S-wave (km/s) = 2.85073 3.65677 3.27862
# Velocity P-wave (km/s) = 4.74279 6.12937 5.48011
#
# Compressibility (1/GPa) = 0.03521024
#
# Stress axis : x y z
#
# Youngs Moduli (GPa) = 94.39895 156.22727 20.54922
#
# Poissons Ratio (x) = -0.10437 0.26916
# Poissons Ratio (y) = -0.06306 0.05741
# Poissons Ratio (z) = 1.23646 0.43644
#
# Static dielectric constant tensor:
#      x y z
#    x 2.000840 0.000000 0.000000 
#    y 0.000000 2.042960 0.000000 
#    z 0.000000 0.000000 2.031410 
# 
# From -- ./inp_files/6207.got.cif
#   From: 2010.05.17/outbox.cif.g08.bks.cpg/sg56_4_cif.got.tgz:6207.got - 2010.06.03 13:42:01.
