data_PCOD9433576
_publ_section_title
;
Structure prediction by ZEFSAII (Michael W. Deem and Ramdas Pophale) SiO2 
 PCOD9433576
Probable space group: P C C N
;
_chemical_formula_sum "Si O2"
_cell_formula_units_Z 48
_cell_length_a 8.749030
_cell_length_b 21.639150
_cell_length_c 10.240815
_cell_angle_alpha 90.000000
_cell_angle_beta 90.000000
_cell_angle_gamma 90.000000
_cell_volume 1938.807200
_symmetry_space_group_name_H-M "P C C N"
_symmetry_group_IT_number 56
_symmetry_cell_setting 'orthorhombic'
loop_
_space_group_symop_operation_xyz
x,y,z
1/2-x,1/2-y,z
1/2+x,-y,1/2-z
-x,1/2+y,1/2-z
-x,-y,-z
1/2+x,1/2+y,-z
1/2-x,y,1/2+z
x,1/2-y,1/2+z
loop_
_atom_site_type_symbol
_atom_site_label
_atom_site_fract_x
_atom_site_fract_y
_atom_site_fract_z
Si Si1 0.632024 0.577642 0.194342
Si Si2 0.896422 0.373541 0.981201
Si Si3 0.055063 0.605011 0.433386
Si Si4 0.134252 0.302436 0.167896
Si Si5 0.899946 0.284643 0.740462
Si Si6 0.950999 0.523512 0.191121
O O1 0.704869 0.639387 0.255979
O O2 0.771192 0.530988 0.170998
O O3 0.516345 0.545116 0.295537
O O4 0.536472 0.593936 0.066212
O O5 0.855401 0.327849 0.860641
O O6 0.968658 0.434550 0.916901
O O7 0.738024 0.393620 0.047400
O O8 0.020302 0.334071 0.063382
O O9 0.029256 0.672066 0.370609
O O10 0.995862 0.554586 0.330172
O O11 0.250000 0.250000 0.118244
O O12 0.025648 0.266685 0.270942
O O13 0.750000 0.250000 0.690555
#
# Coordination Sequence:
#
# PCOD9433576 Si02
#       6
#     8   8   8   8   8   8
#     4  12  28  50  79 109 156 202 256 330 381 467
#     4  11  26  45  79 106 158 199 258 318 384 461
#     4  11  25  49  76 112 153 201 255 318 384 460
#     4  12  28  46  74 113 156 203 255 317 389 453
#     4  11  24  44  71 111 145 201 253 309 382 464
#     4  11  28  50  77 112 147 198 262 312 395 457
#
# _framework density 24.757489
#
# number of rings (size 3 to 8) (size 9 to 14) (size 15 to 20)
#    0.000    0.667    1.667    4.500   14.000    1.333 
#    0.000    0.000    0.000    0.000    0.000    0.000 
#    0.000    0.000    0.000    0.000    0.000    0.000 
#
# Total GULP energy -268964.692537 kJ/mol
# GULP energy per Si atom -5603.431095 kJ/mol
# Density = 2.470114 g / cm^3
# Si number density = 24.757489 Si / 1000 Ang^3
#
#
#
# Elastic Constant Matrix: (Units=GPa)
#
#
# Indices 1 2 3 4 5 6 
#
# 1 141.8429 52.1019 29.6091 0.0000 0.0000 0.0000
# 2 52.1019 148.1122 44.2808 0.0000 0.0000 0.0000
# 3 29.6091 44.2808 96.2026 0.0000 0.0000 0.0000
# 4 0.0000 0.0000 0.0000 19.2772 0.0000 0.0000
# 5 0.0000 0.0000 0.0000 0.0000 35.3817 0.0000
# 6 0.0000 0.0000 0.0000 0.0000 0.0000 47.8618
#
#
#
# Elastic Compliance Matrix: (Units=1/GPa)
#
#
# Indices 1 2 3 4 5 6 
#
# 1 0.008255 -0.002486 -0.001396 0.000000 0.000000 0.000000
# 2 -0.002486 0.008578 -0.003183 0.000000 0.000000 0.000000
# 3 -0.001396 -0.003183 0.012290 0.000000 0.000000 0.000000
# 4 0.000000 0.000000 0.000000 0.051875 0.000000 0.000000
# 5 0.000000 0.000000 0.000000 0.000000 0.028263 0.000000
# 6 0.000000 0.000000 0.000000 0.000000 0.000000 0.020893
#
#
# Mechanical properties :
#
#
# Convention : Reuss Voigt Hill
#
# Bulk Modulus (GPa) = 66.70667 70.90460 68.80563
# Shear Modulus (GPa) = 33.49368 37.84855 35.67111
#
# Velocity S-wave (km/s) = 3.68213 3.91419 3.79993
# Velocity P-wave (km/s) = 6.71416 7.00926 6.86330
#
# Compressibility (1/GPa) = 0.01499100
#
# Stress axis : x y z
#
# Youngs Moduli (GPa) = 121.14144 116.57847 81.36990
#
# Poissons Ratio (x) = 0.28986 0.11361
# Poissons Ratio (y) = 0.30121 0.25900
# Poissons Ratio (z) = 0.16914 0.37107
#
# Static dielectric constant tensor:
#      x y z
#    x 1.964360 0.000000 0.000000 
#    y 0.000000 1.958290 0.000000 
#    z 0.000000 0.000000 1.939200 
# 
# From -- ./inp_files/6419.got.cif
#   From: 2010.05.17/outbox.cif.g08.bks.cpg/sg56_4_cif.got.tgz:6419.got - 2010.06.03 13:42:01.
