data_PCOD9433076
_publ_section_title
;
Structure prediction by ZEFSAII (Michael W. Deem and Ramdas Pophale) SiO2 
 PCOD9433076
Probable space group: P C C N
;
_chemical_formula_sum "Si O2"
_cell_formula_units_Z 64
_cell_length_a 14.862943
_cell_length_b 9.078371
_cell_length_c 22.941975
_cell_angle_alpha 90.000000
_cell_angle_beta 90.000000
_cell_angle_gamma 90.000000
_cell_volume 3095.590757
_symmetry_space_group_name_H-M "P C C N"
_symmetry_group_IT_number 56
_symmetry_cell_setting 'orthorhombic'
loop_
_space_group_symop_operation_xyz
x,y,z
1/2-x,1/2-y,z
1/2+x,-y,1/2-z
-x,1/2+y,1/2-z
-x,-y,-z
1/2+x,1/2+y,-z
1/2-x,y,1/2+z
x,1/2-y,1/2+z
loop_
_atom_site_type_symbol
_atom_site_label
_atom_site_fract_x
_atom_site_fract_y
_atom_site_fract_z
Si Si1 0.678592 0.867638 0.736318
Si Si2 0.055565 0.435552 0.077969
Si Si3 0.882582 0.108013 0.318305
Si Si4 0.528500 0.341189 0.138717
Si Si5 0.063007 0.396885 0.749888
Si Si6 0.369427 0.103598 0.949275
Si Si7 0.158555 0.824745 0.270878
Si Si8 0.328496 0.428761 0.900635
O O1 0.750000 0.750000 0.757152
O O2 0.587434 0.774459 0.745517
O O3 0.686798 0.901921 0.668302
O O4 0.678867 0.006902 0.777387
O O5 0.115947 0.544575 0.117458
O O6 0.032909 0.275460 0.104749
O O7 0.957029 0.515151 0.074281
O O8 0.108974 0.408782 0.017951
O O9 0.858485 0.269780 0.295698
O O10 0.981941 0.078069 0.293833
O O11 0.467608 0.433743 0.184177
O O12 0.587763 0.248288 0.184900
O O13 0.595572 0.442055 0.099772
O O14 0.142449 0.502095 0.771817
O O15 0.365474 0.274424 0.927608
O O16 0.270364 0.042332 0.929600
O O17 0.250000 0.750000 0.291062
#
# Coordination Sequence:
#
# PCOD9433076 Si02
#       8
#     8   8   8   8   8   8   8   8
#     4  12  21  35  60  95 126 164 203 258 327 377
#     4  11  23  45  65  92 126 175 219 267 324 373
#     4  11  21  37  60  89 127 164 203 258 328 394
#     4  11  24  37  67  95 130 167 209 271 323 384
#     4  11  21  36  57 100 133 167 198 255 329 402
#     4  10  25  43  69  89 122 177 227 271 308 373
#     4  11  23  35  56  97 134 167 205 252 328 393
#     4  11  23  42  65  98 124 165 220 268 312 380
#
# _framework density 20.674567
#
# number of rings (size 3 to 8) (size 9 to 14) (size 15 to 20)
#    0.000    1.000    6.250    2.250    3.500    0.500 
#    2.250    0.000    5.500    0.000    0.000    0.000 
#    0.000    0.000    0.000    0.000    0.000    0.000 
#
# Total GULP energy -356925.735280 kJ/mol
# GULP energy per Si atom -5576.964614 kJ/mol
# Density = 2.062751 g / cm^3
# Si number density = 20.674567 Si / 1000 Ang^3
#
#
#
# Elastic Constant Matrix: (Units=GPa)
#
#
# Indices 1 2 3 4 5 6 
#
# 1 72.0290 -1.6004 21.6528 0.0000 0.0000 0.0000
# 2 -1.6004 68.5778 8.8804 0.0000 0.0000 0.0000
# 3 21.6528 8.8804 108.1594 0.0000 0.0000 0.0000
# 4 0.0000 0.0000 0.0000 -17.8744 0.0000 0.0000
# 5 0.0000 0.0000 0.0000 0.0000 29.7255 0.0000
# 6 0.0000 0.0000 0.0000 0.0000 0.0000 30.8152
#
#
#
# Elastic Compliance Matrix: (Units=1/GPa)
#
#
# Indices 1 2 3 4 5 6 
#
# 1 0.014809 0.000737 -0.003025 0.000000 0.000000 0.000000
# 2 0.000737 0.014775 -0.001361 0.000000 0.000000 0.000000
# 3 -0.003025 -0.001361 0.009963 0.000000 0.000000 0.000000
# 4 0.000000 0.000000 0.000000 -0.055946 0.000000 0.000000
# 5 0.000000 0.000000 0.000000 0.000000 0.033641 0.000000
# 6 0.000000 0.000000 0.000000 0.000000 0.000000 0.032451
#
#
# Mechanical properties :
#
#
# Convention : Reuss Voigt Hill
#
# Bulk Modulus (GPa) = 31.00752 34.07018 32.53885
# Shear Modulus (GPa) = 73.81022 23.18884 48.49953
#
# Velocity S-wave (km/s) = 5.98151 3.35268 4.84866
# Velocity P-wave (km/s) = 7.92055 5.61269 6.86431
#
# Compressibility (1/GPa) = 0.03225024
#
# Stress axis : x y z
#
# Youngs Moduli (GPa) = 67.52602 67.68013 100.37175
#
# Poissons Ratio (x) = -0.04990 0.30365
# Poissons Ratio (y) = -0.04979 0.13658
# Poissons Ratio (z) = 0.20428 0.09209
#
# Static dielectric constant tensor:
#      x y z
#    x 1.894020 0.000000 0.000000 
#    y 0.000000 1.793800 0.000000 
#    z 0.000000 0.000000 1.724910 
# 
# From -- ./inp_files/21191.got.cif
#   From: 2010.05.17/outbox.cif.g08.bks.cpg/sg56_11_cif.got.tgz:21191.got - 2010.06.03 13:42:01.
