data_PCOD9433266
_publ_section_title
;
Structure prediction by ZEFSAII (Michael W. Deem and Ramdas Pophale) SiO2 
 PCOD9433266
Probable space group: P C C N
;
_chemical_formula_sum "Si O2"
_cell_formula_units_Z 40
_cell_length_a 8.929543
_cell_length_b 15.361223
_cell_length_c 12.483141
_cell_angle_alpha 90.000000
_cell_angle_beta 90.000000
_cell_angle_gamma 90.000000
_cell_volume 1712.296239
_symmetry_space_group_name_H-M "P C C N"
_symmetry_group_IT_number 56
_symmetry_cell_setting 'orthorhombic'
loop_
_space_group_symop_operation_xyz
x,y,z
1/2-x,1/2-y,z
1/2+x,-y,1/2-z
-x,1/2+y,1/2-z
-x,-y,-z
1/2+x,1/2+y,-z
1/2-x,y,1/2+z
x,1/2-y,1/2+z
loop_
_atom_site_type_symbol
_atom_site_label
_atom_site_fract_x
_atom_site_fract_y
_atom_site_fract_z
Si Si1 0.157043 0.325958 0.630786
Si Si2 0.455248 0.340959 0.555625
Si Si3 0.896899 0.396159 0.276808
Si Si4 0.398391 0.949597 0.334768
Si Si5 0.247193 0.654669 0.520657
O O1 0.250000 0.250000 0.695268
O O2 0.288577 0.379893 0.571278
O O3 0.078302 0.262068 0.544592
O O4 0.032744 0.380967 0.690057
O O5 0.536680 0.354561 0.669856
O O6 0.577411 0.372543 0.471237
O O7 0.746036 0.446484 0.240871
O O8 0.837342 0.333568 0.368402
O O9 0.022062 0.458305 0.326872
O O10 0.337090 0.916749 0.449243
O O11 0.250000 0.750000 0.465638
#
# Coordination Sequence:
#
# PCOD9433266 Si02
#       5
#     8   8   8   8   8
#     4   8  17  36  65  75 124 159 195 250 322 335
#     4   8  19  38  59  89 120 163 197 258 302 362
#     4  11  24  36  65  88 126 164 216 241 326 369
#     4  11  22  42  59  91 127 165 200 272 309 368
#     4  11  21  37  64  94 124 160 209 259 311 374
#
# _framework density 23.360444999999999
#
# number of rings (size 3 to 8) (size 9 to 14) (size 15 to 20)
#    1.200    0.800    2.000    1.800    2.800    0.000 
#    0.000   13.000    8.800    0.000    0.000    0.000 
#    0.000    0.000    0.000    0.000    0.000    0.000 
#
# Total GULP energy -222702.353951 kJ/mol
# GULP energy per Si atom -5567.558849 kJ/mol
# Density = 2.330728 g / cm^3
# Si number density = 23.360445 Si / 1000 Ang^3
#
#
#
# Elastic Constant Matrix: (Units=GPa)
#
#
# Indices 1 2 3 4 5 6 
#
# 1 172.9790 25.7897 18.4384 0.0000 0.0000 0.0000
# 2 25.7897 37.6910 1.0501 0.0000 0.0000 0.0000
# 3 18.4384 1.0501 33.4230 0.0000 0.0000 0.0000
# 4 0.0000 0.0000 0.0000 7.3114 0.0000 0.0000
# 5 0.0000 0.0000 0.0000 0.0000 6.2525 0.0000
# 6 0.0000 0.0000 0.0000 0.0000 0.0000 52.8511
#
#
#
# Elastic Compliance Matrix: (Units=1/GPa)
#
#
# Indices 1 2 3 4 5 6 
#
# 1 0.006853 -0.004588 -0.003636 0.000000 0.000000 0.000000
# 2 -0.004588 0.029626 0.001600 0.000000 0.000000 0.000000
# 3 -0.003636 0.001600 0.031875 0.000000 0.000000 0.000000
# 4 0.000000 0.000000 0.000000 0.136772 0.000000 0.000000
# 5 0.000000 0.000000 0.000000 0.000000 0.159936 0.000000
# 6 0.000000 0.000000 0.000000 0.000000 0.000000 0.018921
#
#
# Mechanical properties :
#
#
# Convention : Reuss Voigt Hill
#
# Bulk Modulus (GPa) = 18.14677 37.18329 27.66503
# Shear Modulus (GPa) = 12.03081 26.53732 19.28406
#
# Velocity S-wave (km/s) = 2.27184 3.37411 2.87627
# Velocity P-wave (km/s) = 3.82971 5.57954 4.78529
#
# Compressibility (1/GPa) = 0.05510622
#
# Stress axis : x y z
#
# Youngs Moduli (GPa) = 145.92981 33.75419 31.37233
#
# Poissons Ratio (x) = 0.15485 0.11408
# Poissons Ratio (y) = 0.66946 -0.05020
# Poissons Ratio (z) = 0.53064 -0.05401
#
# Static dielectric constant tensor:
#      x y z
#    x 2.008070 0.000000 0.000000 
#    y 0.000000 1.898520 0.000000 
#    z 0.000000 0.000000 1.884740 
# 
# From -- ./inp_files/10535.got.cif
#   From: 2010.05.17/outbox.cif.g08.bks.cpg/sg56_6_cif.got.tgz:10535.got - 2010.06.03 13:42:01.
