data_PCOD9433751
_publ_section_title
;
Structure prediction by ZEFSAII (Michael W. Deem and Ramdas Pophale) SiO2 
 PCOD9433751
Probable space group: P C C N
;
_chemical_formula_sum "Si O2"
_cell_formula_units_Z 36
_cell_length_a 12.381675
_cell_length_b 9.660061
_cell_length_c 12.469204
_cell_angle_alpha 90.000000
_cell_angle_beta 90.000000
_cell_angle_gamma 90.000000
_cell_volume 1491.413257
_symmetry_space_group_name_H-M "P C C N"
_symmetry_group_IT_number 56
_symmetry_cell_setting 'orthorhombic'
loop_
_space_group_symop_operation_xyz
x,y,z
1/2-x,1/2-y,z
1/2+x,-y,1/2-z
-x,1/2+y,1/2-z
-x,-y,-z
1/2+x,1/2+y,-z
1/2-x,y,1/2+z
x,1/2-y,1/2+z
loop_
_atom_site_type_symbol
_atom_site_label
_atom_site_fract_x
_atom_site_fract_y
_atom_site_fract_z
Si Si1 0.166072 0.988692 0.023781
Si Si2 0.392112 0.515395 0.428747
Si Si3 0.910470 0.190740 0.160365
Si Si4 0.365655 0.324216 0.222085
Si Si5 0.250000 0.750000 0.166641
O O1 0.179671 0.852915 0.096681
O O2 0.129534 0.106356 0.104660
O O3 0.286104 0.034751 0.990280
O O4 0.098083 0.941474 0.919514
O O5 0.500000 0.500000 0.500000
O O6 0.370436 0.676593 0.405747
O O7 0.388978 0.433263 0.316859
O O8 0.828598 0.161665 0.257263
O O9 0.019974 0.253444 0.213481
O O10 0.250000 0.250000 0.237802
#
# Coordination Sequence:
#
# PCOD9433751 Si02
#       5
#     8   8   8   8   4
#     4  12  23  47  73 105 142 191 253 303 364 450
#     4  12  25  44  72 105 144 196 248 307 370 444
#     4  12  24  45  72 106 138 195 250 303 367 444
#     4  12  29  47  70 110 159 193 239 315 387 446
#     4  12  20  46  74 104 134 182 254 304 360 430
#
# _framework density 24.138178
#
# number of rings (size 3 to 8) (size 9 to 14) (size 15 to 20)
#    0.000    0.000    6.667    3.333    0.000    4.444 
#    0.000    0.000    0.000    0.000    0.000    0.000 
#    0.000    0.000    0.000    0.000    0.000    0.000 
#
# Total GULP energy -201114.261200 kJ/mol
# GULP energy per Si atom -5586.507256 kJ/mol
# Density = 2.408324 g / cm^3
# Si number density = 24.138178 Si / 1000 Ang^3
#
#
#
# Elastic Constant Matrix: (Units=GPa)
#
#
# Indices 1 2 3 4 5 6 
#
# 1 159.4446 1.2302 48.8641 0.0000 0.0000 0.0000
# 2 1.2302 24.5650 0.3126 0.0000 0.0000 0.0000
# 3 48.8641 0.3126 93.9665 0.0000 0.0000 0.0000
# 4 0.0000 0.0000 0.0000 26.2168 0.0000 0.0000
# 5 0.0000 0.0000 0.0000 0.0000 39.0380 0.0000
# 6 0.0000 0.0000 0.0000 0.0000 0.0000 23.8446
#
#
#
# Elastic Compliance Matrix: (Units=1/GPa)
#
#
# Indices 1 2 3 4 5 6 
#
# 1 0.007463 -0.000324 -0.003880 0.000000 0.000000 0.000000
# 2 -0.000324 0.040724 0.000033 0.000000 0.000000 0.000000
# 3 -0.003880 0.000033 0.012660 0.000000 0.000000 0.000000
# 4 0.000000 0.000000 0.000000 0.038144 0.000000 0.000000
# 5 0.000000 0.000000 0.000000 0.000000 0.025616 0.000000
# 6 0.000000 0.000000 0.000000 0.000000 0.000000 0.041938
#
#
# Mechanical properties :
#
#
# Convention : Reuss Voigt Hill
#
# Bulk Modulus (GPa) = 19.04588 42.08778 30.56683
# Shear Modulus (GPa) = 25.98902 32.99114 29.49008
#
# Velocity S-wave (km/s) = 3.28484 3.70099 3.49910
# Velocity P-wave (km/s) = 4.72169 5.97805 5.38662
#
# Compressibility (1/GPa) = 0.05250479
#
# Stress axis : x y z
#
# Youngs Moduli (GPa) = 133.98804 24.55546 78.99122
#
# Poissons Ratio (x) = 0.00797 0.30648
# Poissons Ratio (y) = 0.04346 -0.00262
# Poissons Ratio (z) = 0.51987 -0.00082
#
# Static dielectric constant tensor:
#      x y z
#    x 2.044920 0.000000 0.000000 
#    y 0.000000 1.949680 0.000000 
#    z 0.000000 0.000000 1.989450 
# 
# From -- ./inp_files/6839.got.cif
#   From: 2010.05.17/outbox.cif.g08.bks.cpg/sg56_4_cif.got.tgz:6839.got - 2010.06.03 13:42:01.
