data_PCOD9433786
_publ_section_title
;
Structure prediction by ZEFSAII (Michael W. Deem and Ramdas Pophale) SiO2 
 PCOD9433786
Probable space group: P C C N
;
_chemical_formula_sum "Si O2"
_cell_formula_units_Z 32
_cell_length_a 5.330362
_cell_length_b 10.843946
_cell_length_c 21.516121
_cell_angle_alpha 90.000000
_cell_angle_beta 90.000000
_cell_angle_gamma 90.000000
_cell_volume 1243.678219
_symmetry_space_group_name_H-M "P C C N"
_symmetry_group_IT_number 56
_symmetry_cell_setting 'orthorhombic'
loop_
_space_group_symop_operation_xyz
x,y,z
1/2-x,1/2-y,z
1/2+x,-y,1/2-z
-x,1/2+y,1/2-z
-x,-y,-z
1/2+x,1/2+y,-z
1/2-x,y,1/2+z
x,1/2-y,1/2+z
loop_
_atom_site_type_symbol
_atom_site_label
_atom_site_fract_x
_atom_site_fract_y
_atom_site_fract_z
Si Si1 0.750000 0.750000 0.365222
Si Si2 0.086863 0.345937 0.373975
Si Si3 0.884400 0.438981 0.061809
Si Si4 0.649741 0.980050 0.288932
Si Si5 0.250000 0.750000 0.522062
O O1 0.573889 0.655358 0.404253
O O2 0.604976 0.847637 0.321256
O O3 0.250000 0.250000 0.334180
O O4 0.258346 0.460517 0.394946
O O5 0.856324 0.411711 0.340490
O O6 0.980804 0.263757 0.430561
O O7 0.680168 0.356836 0.026669
O O8 0.000000 0.500000 0.000000
O O9 0.414902 0.013823 0.245356
#
# Coordination Sequence:
#
# PCOD9433786 Si02
#       5
#     4   8   8   8   4
#     4  12  28  54  82 118 166 204 288 334 404 498
#     4  12  27  48  76 119 157 206 272 327 400 496
#     4  12  23  47  76 119 157 213 251 324 409 488
#     4  12  31  55  83 114 155 216 273 343 411 462
#     4  12  24  42  80 110 168 200 264 318 406 488
#
# _framework density 25.730128000000001
#
# number of rings (size 3 to 8) (size 9 to 14) (size 15 to 20)
#    0.000    0.000    2.500    6.750    5.250    3.000 
#    0.000    0.000    0.000    0.000    0.000    0.000 
#    0.000    0.000    0.000    0.000    0.000    0.000 
#
# Total GULP energy -178876.390905 kJ/mol
# GULP energy per Si atom -5589.887216 kJ/mol
# Density = 2.567157 g / cm^3
# Si number density = 25.730128 Si / 1000 Ang^3
#
#
#
# Elastic Constant Matrix: (Units=GPa)
#
#
# Indices 1 2 3 4 5 6 
#
# 1 108.1785 33.0819 35.2739 0.0000 0.0000 0.0000
# 2 33.0819 138.6968 48.8415 0.0000 0.0000 0.0000
# 3 35.2739 48.8415 86.2718 0.0000 0.0000 0.0000
# 4 0.0000 0.0000 0.0000 49.2655 0.0000 0.0000
# 5 0.0000 0.0000 0.0000 0.0000 33.1287 0.0000
# 6 0.0000 0.0000 0.0000 0.0000 0.0000 55.1397
#
#
#
# Elastic Compliance Matrix: (Units=1/GPa)
#
#
# Indices 1 2 3 4 5 6 
#
# 1 0.010845 -0.001281 -0.003709 0.000000 0.000000 0.000000
# 2 -0.001281 0.009156 -0.004660 0.000000 0.000000 0.000000
# 3 -0.003709 -0.004660 0.015746 0.000000 0.000000 0.000000
# 4 0.000000 0.000000 0.000000 0.020298 0.000000 0.000000
# 5 0.000000 0.000000 0.000000 0.000000 0.030185 0.000000
# 6 0.000000 0.000000 0.000000 0.000000 0.000000 0.018136
#
#
# Mechanical properties :
#
#
# Convention : Reuss Voigt Hill
#
# Bulk Modulus (GPa) = 60.79888 63.06020 61.92954
# Shear Modulus (GPa) = 38.71478 41.90342 40.30910
#
# Velocity S-wave (km/s) = 3.88319 4.03994 3.96234
# Velocity P-wave (km/s) = 6.61712 6.80610 6.71227
#
# Compressibility (1/GPa) = 0.01644767
#
# Stress axis : x y z
#
# Youngs Moduli (GPa) = 92.20779 109.21215 63.50745
#
# Poissons Ratio (x) = 0.13985 0.23556
# Poissons Ratio (y) = 0.11808 0.29596
# Poissons Ratio (z) = 0.34202 0.50895
#
# Static dielectric constant tensor:
#      x y z
#    x 4.788730 0.000000 0.000000 
#    y 0.000000 1.520860 0.000000 
#    z 0.000000 0.000000 2.118440 
# 
# From -- ./inp_files/17289.got.cif
#   From: 2010.05.17/outbox.cif.g08.bks.cpg/sg56_9_cif.got.tgz:17289.got - 2010.06.03 13:42:01.
