data_PCOD9433296
_publ_section_title
;
Structure prediction by ZEFSAII (Michael W. Deem and Ramdas Pophale) SiO2 
 PCOD9433296
Probable space group: P C C N
;
_chemical_formula_sum "Si O2"
_cell_formula_units_Z 32
_cell_length_a 7.597371
_cell_length_b 10.677984
_cell_length_c 13.899746
_cell_angle_alpha 90.000000
_cell_angle_beta 90.000000
_cell_angle_gamma 90.000000
_cell_volume 1127.611417
_symmetry_space_group_name_H-M "P C C N"
_symmetry_group_IT_number 56
_symmetry_cell_setting 'orthorhombic'
loop_
_space_group_symop_operation_xyz
x,y,z
1/2-x,1/2-y,z
1/2+x,-y,1/2-z
-x,1/2+y,1/2-z
-x,-y,-z
1/2+x,1/2+y,-z
1/2-x,y,1/2+z
x,1/2-y,1/2+z
loop_
_atom_site_type_symbol
_atom_site_label
_atom_site_fract_x
_atom_site_fract_y
_atom_site_fract_z
Si Si1 0.015334 0.177555 0.550515
Si Si2 0.447191 0.778459 0.152725
Si Si3 0.648914 0.058984 0.570873
Si Si4 0.092162 0.447131 0.230479
O O1 0.934366 0.305343 0.593036
O O2 0.848226 0.083892 0.536004
O O3 0.066302 0.215989 0.442694
O O4 0.148176 0.115212 0.627971
O O5 0.250000 0.750000 0.116531
O O6 0.462296 0.913270 0.200899
O O7 0.473590 0.665175 0.227299
O O8 0.681297 0.981150 0.668068
O O9 0.500000 0.000000 0.500000
#
# Coordination Sequence:
#
# PCOD9433296 Si02
#       4
#     8   8   8   8
#     4  11  23  44  71 102 140 195 238 288 365 430
#     4  12  24  46  73 103 146 191 239 297 368 433
#     4  11  21  42  74 101 140 188 237 292 357 429
#     4  12  24  40  74 105 140 187 245 295 357 430
#
# _framework density 28.378571000000001
#
# number of rings (size 3 to 8) (size 9 to 14) (size 15 to 20)
#    0.000    0.500    7.500    2.250    0.000    0.000 
#    0.000    5.000    0.000    0.000    0.000    0.000 
#    0.000    0.000    0.000    0.000    0.000    0.000 
#
# Total GULP energy -178644.141970 kJ/mol
# GULP energy per Si atom -5582.629437 kJ/mol
# Density = 2.831398 g / cm^3
# Si number density = 28.378571 Si / 1000 Ang^3
#
#
#
# Elastic Constant Matrix: (Units=GPa)
#
#
# Indices 1 2 3 4 5 6 
#
# 1 137.9796 57.3350 64.7008 0.0000 0.0000 0.0000
# 2 57.3350 177.2229 60.7403 0.0000 0.0000 0.0000
# 3 64.7008 60.7403 186.3289 0.0000 0.0000 0.0000
# 4 0.0000 0.0000 0.0000 86.2140 0.0000 0.0000
# 5 0.0000 0.0000 0.0000 0.0000 4.6043 0.0000
# 6 0.0000 0.0000 0.0000 0.0000 0.0000 28.1307
#
#
#
# Elastic Compliance Matrix: (Units=1/GPa)
#
#
# Indices 1 2 3 4 5 6 
#
# 1 0.009331 -0.002148 -0.002540 0.000000 0.000000 0.000000
# 2 -0.002148 0.006847 -0.001486 0.000000 0.000000 0.000000
# 3 -0.002540 -0.001486 0.006733 0.000000 0.000000 0.000000
# 4 0.000000 0.000000 0.000000 0.011599 0.000000 0.000000
# 5 0.000000 0.000000 0.000000 0.000000 0.217190 0.000000
# 6 0.000000 0.000000 0.000000 0.000000 0.000000 0.035548
#
#
# Mechanical properties :
#
#
# Convention : Reuss Voigt Hill
#
# Bulk Modulus (GPa) = 94.67047 96.34263 95.50655
# Shear Modulus (GPa) = 16.49524 45.04013 30.76769
#
# Velocity S-wave (km/s) = 2.41354 3.98819 3.29627
# Velocity P-wave (km/s) = 6.41866 7.43171 6.94368
#
# Compressibility (1/GPa) = 0.01056296
#
# Stress axis : x y z
#
# Youngs Moduli (GPa) = 107.16849 146.05058 148.51791
#
# Poissons Ratio (x) = 0.31376 0.37721
# Poissons Ratio (y) = 0.23023 0.22070
# Poissons Ratio (z) = 0.27219 0.21703
#
# Static dielectric constant tensor:
#      x y z
#    x 2.392550 0.000000 0.000000 
#    y 0.000000 2.160900 0.000000 
#    z 0.000000 0.000000 2.275990 
# 
# From -- ./inp_files/10046.got.cif
#   From: 2010.05.17/outbox.cif.g08.bks.cpg/sg56_6_cif.got.tgz:10046.got - 2010.06.03 13:42:01.
