data_PCOD9433952
_publ_section_title
;
Structure prediction by ZEFSAII (Michael W. Deem and Ramdas Pophale) SiO2 
 PCOD9433952
Probable space group: P C C N
;
_chemical_formula_sum "Si O2"
_cell_formula_units_Z 64
_cell_length_a 9.000000
_cell_length_b 24.000000
_cell_length_c 15.000000
_cell_angle_alpha 90.000000
_cell_angle_beta 90.000000
_cell_angle_gamma 90.000000
_cell_volume 3240.000000
_symmetry_space_group_name_H-M "P C C N"
_symmetry_group_IT_number 56
_symmetry_cell_setting 'orthorhombic'
loop_
_space_group_symop_operation_xyz
x,y,z
1/2-x,1/2-y,z
1/2+x,-y,1/2-z
-x,1/2+y,1/2-z
-x,-y,-z
1/2+x,1/2+y,-z
1/2-x,y,1/2+z
x,1/2-y,1/2+z
loop_
_atom_site_type_symbol
_atom_site_label
_atom_site_fract_x
_atom_site_fract_y
_atom_site_fract_z
Si Si1 0.425237 0.767882 0.530213
Si Si2 0.410335 0.134325 0.565930
Si Si3 0.757490 0.060300 0.826112
Si Si4 0.509682 0.158496 0.292629
Si Si5 0.930303 0.831674 0.412533
Si Si6 0.983146 0.064066 0.469248
Si Si7 0.200273 0.074543 0.888791
Si Si8 0.024456 0.529575 0.324625
O O1 0.250000 0.750000 0.532092
O O2 0.470166 0.819089 0.464318
O O3 0.472359 0.793089 0.629660
O O4 0.515855 0.715428 0.485002
O O5 0.250685 0.162491 0.591408
O O6 0.369913 0.098005 0.479297
O O7 0.475715 0.088600 0.633538
O O8 0.848475 0.116460 0.801078
O O9 0.677134 0.069032 0.921609
O O10 0.619555 0.044296 0.762877
O O11 0.876635 0.009476 0.818932
O O12 0.489067 0.177989 0.189365
O O13 0.368813 0.117542 0.316110
O O14 0.992982 0.890807 0.451494
O O15 0.122366 0.075609 0.401910
O O16 0.000000 0.000000 0.500000
O O17 0.138570 0.011998 0.876129
#
# Coordination Sequence:
#
# PCOD9433952 Si02
#       8
#     8   8   8   8   8   8   8   8
#     4  11  25  48  72  99 137 175 244 300 355 416
#     4  10  23  43  66 101 135 182 234 283 349 418
#     4  11  24  39  63 103 142 183 234 284 346 419
#     4  10  25  46  69  99 138 184 231 297 358 420
#     4  11  25  46  73  99 139 184 238 285 359 430
#     4  11  24  40  67 103 144 189 232 290 350 418
#     4   9  21  40  65  94 139 184 224 281 343 411
#     4  11  23  38  67  98 144 182 233 275 348 416
#
# _framework density 19.753086
#
# number of rings (size 3 to 8) (size 9 to 14) (size 15 to 20)
#    0.000    1.500    0.000    3.750   12.250    2.500 
#    2.250    3.750    0.000    0.000    0.000    0.000 
#    0.000    0.000    0.000    0.000    0.000    0.000 
#
# Total GULP energy -357259.427465 kJ/mol
# GULP energy per Si atom -5582.178554 kJ/mol
# Density = 1.970813 g / cm^3
# Si number density = 19.753086 Si / 1000 Ang^3
#
#
#
# Elastic Constant Matrix: (Units=GPa)
#
#
# Indices 1 2 3 4 5 6 
#
# 1 87.3723 25.1970 44.4580 0.0000 0.0000 0.0000
# 2 25.1970 123.0659 47.2901 0.0000 0.0000 0.0000
# 3 44.4580 47.2901 106.0734 0.0000 0.0000 0.0000
# 4 0.0000 0.0000 0.0000 32.5958 0.0000 0.0000
# 5 0.0000 0.0000 0.0000 0.0000 35.3010 0.0000
# 6 0.0000 0.0000 0.0000 0.0000 0.0000 37.9120
#
#
#
# Elastic Compliance Matrix: (Units=1/GPa)
#
#
# Indices 1 2 3 4 5 6 
#
# 1 0.014608 -0.000770 -0.005779 0.000000 0.000000 0.000000
# 2 -0.000770 0.009846 -0.004067 0.000000 0.000000 0.000000
# 3 -0.005779 -0.004067 0.013663 0.000000 0.000000 0.000000
# 4 0.000000 0.000000 0.000000 0.030679 0.000000 0.000000
# 5 0.000000 0.000000 0.000000 0.000000 0.028328 0.000000
# 6 0.000000 0.000000 0.000000 0.000000 0.000000 0.026377
#
#
# Mechanical properties :
#
#
# Convention : Reuss Voigt Hill
#
# Bulk Modulus (GPa) = 59.22602 61.15573 60.19088
# Shear Modulus (GPa) = 33.25328 34.46621 33.85975
#
# Velocity S-wave (km/s) = 4.10743 4.18167 4.14472
# Velocity P-wave (km/s) = 7.24865 7.37174 7.31045
#
# Compressibility (1/GPa) = 0.01688447
#
# Stress axis : x y z
#
# Youngs Moduli (GPa) = 68.45540 101.56235 73.19164
#
# Poissons Ratio (x) = 0.07822 0.42299
# Poissons Ratio (y) = 0.05272 0.29766
# Poissons Ratio (z) = 0.39562 0.41304
#
# Static dielectric constant tensor:
#      x y z
#    x 1.706800 0.000000 0.000000 
#    y 0.000000 1.691210 0.000000 
#    z 0.000000 0.000000 1.738190 
# 
# From -- ./inp_files/11044.got.cif
#   From: 2010.05.17/outbox.ucp.g08.bks.cvg/sg56_6_cif.got.tgz:11044.got - 2010.06.11 16:37:52.
