data_PCOD9433985
_publ_section_title
;
Structure prediction by ZEFSAII (Michael W. Deem and Ramdas Pophale) SiO2 
 PCOD9433985
Probable space group: P B C M
;
_chemical_formula_sum "Si O2"
_cell_formula_units_Z 56
_cell_length_a 19.062387
_cell_length_b 19.510637
_cell_length_c 8.507688
_cell_angle_alpha 90.000000
_cell_angle_beta 90.000000
_cell_angle_gamma 90.000000
_cell_volume 3164.173477
_symmetry_space_group_name_H-M "P B C M"
_symmetry_group_IT_number 57
_symmetry_cell_setting 'orthorhombic'
loop_
_space_group_symop_operation_xyz
x,y,z
-x,-y,1/2+z
x,1/2-y,-z
-x,1/2+y,1/2-z
-x,-y,-z
x,y,1/2-z
-x,1/2+y,z
x,1/2-y,1/2+z
loop_
_atom_site_type_symbol
_atom_site_label
_atom_site_fract_x
_atom_site_fract_y
_atom_site_fract_z
Si Si1 0.645949 0.926390 0.936127
Si Si2 0.796627 0.078477 0.441472
Si Si3 0.502796 0.578460 0.936316
Si Si4 0.923673 0.326945 0.939806
Si Si5 0.792201 0.919359 0.061793
Si Si6 0.356985 0.918544 0.936717
Si Si7 0.917940 0.672666 0.061130
O O1 0.643915 0.937873 0.750000
O O2 0.573586 0.890822 0.989279
O O3 0.719408 0.893118 0.986024
O O4 0.646243 0.000153 0.023742
O O5 0.796799 0.078934 0.250000
O O6 0.862182 0.123070 0.496607
O O7 0.719876 0.106850 0.489521
O O8 0.802344 0.998829 0.488901
O O9 0.490667 0.423124 0.250000
O O10 0.427616 0.609477 0.984186
O O11 0.500000 0.500000 0.000000
O O12 0.921719 0.325962 0.750000
O O13 0.002671 0.348679 0.985611
O O14 0.912538 0.250000 0.000000
O O15 0.784905 0.918061 0.250000
O O16 0.858517 0.875523 0.009482
O O17 0.363634 0.910354 0.750000
O O18 0.913475 0.671959 0.250000
O O19 0.908285 0.750000 0.000000
#
# Coordination Sequence:
#
# PCOD9433985 Si02
#       7
#     8   8   8   8   8   8   8
#     4  10  17  26  40  61  90 122 156 193 234 280
#     4   8  16  30  48  69  97 129 158 194 241 288
#     4  10  16  23  36  57  87 122 157 192 232 277
#     4   9  18  34  52  71  95 125 161 198 237 282
#     4  10  19  32  49  70  97 127 158 195 241 288
#     4   9  15  25  40  60  88 123 158 192 235 282
#     4  10  20  34  52  72  95 124 159 198 237 282
#
# _framework density 17.698145
#
# number of rings (size 3 to 8) (size 9 to 14) (size 15 to 20)
#    0.000    2.571    0.000    6.429    0.000    1.143 
#    0.000    4.286    0.000    0.000    0.000    1.000 
#    0.000    2.286    0.000    0.000    0.000    0.000 
#
# Total GULP energy -311954.375343 kJ/mol
# GULP energy per Si atom -5570.613845 kJ/mol
# Density = 1.765786 g / cm^3
# Si number density = 17.698145 Si / 1000 Ang^3
#
#
#
# Elastic Constant Matrix: (Units=GPa)
#
#
# Indices 1 2 3 4 5 6 
#
# 1 204.6860 59.0402 32.6880 0.0000 0.0000 0.0000
# 2 59.0402 28.1333 9.6590 0.0000 0.0000 0.0000
# 3 32.6880 9.6590 51.4548 0.0000 0.0000 0.0000
# 4 0.0000 0.0000 0.0000 14.3917 0.0000 0.0000
# 5 0.0000 0.0000 0.0000 0.0000 25.4056 0.0000
# 6 0.0000 0.0000 0.0000 0.0000 0.0000 -7.0680
#
#
#
# Elastic Compliance Matrix: (Units=1/GPa)
#
#
# Indices 1 2 3 4 5 6 
#
# 1 0.012890 -0.025908 -0.003325 0.000000 0.000000 0.000000
# 2 -0.025908 0.090070 -0.000449 0.000000 0.000000 0.000000
# 3 -0.003325 -0.000449 0.021631 0.000000 0.000000 0.000000
# 4 0.000000 0.000000 0.000000 0.069484 0.000000 0.000000
# 5 0.000000 0.000000 0.000000 0.000000 0.039361 0.000000
# 6 0.000000 0.000000 0.000000 0.000000 0.000000 -0.141482
#
#
# Mechanical properties :
#
#
# Convention : Reuss Voigt Hill
#
# Bulk Modulus (GPa) = 15.33124 54.11652 34.72388
# Shear Modulus (GPa) = 28.89150 18.73832 23.81491
#
# Velocity S-wave (km/s) = 4.04475 3.25741 3.67224
# Velocity P-wave (km/s) = 5.52221 6.69265 6.13540
#
# Compressibility (1/GPa) = 0.06522629
#
# Stress axis : x y z
#
# Youngs Moduli (GPa) = 77.58189 11.10247 46.22982
#
# Poissons Ratio (x) = 0.28765 0.15371
# Poissons Ratio (y) = 2.01002 0.02075
# Poissons Ratio (z) = 0.25796 0.00498
#
# Static dielectric constant tensor:
#      x y z
#    x 1.681160 0.000000 0.000000 
#    y 0.000000 1.567400 0.000000 
#    z 0.000000 0.000000 1.593370 
# 
# From -- ./inp_files/7299.got.cif
#   From: 2010.05.17/outbox.cif.g08.bks.cpg/sg57_4_cif.got.tgz:7299.got - 2010.06.03 13:58:18.
