data_PCOD9433349
_publ_section_title
;
Structure prediction by ZEFSAII (Michael W. Deem and Ramdas Pophale) SiO2 
 PCOD9433349
Probable space group: P C C N
;
_chemical_formula_sum "Si O2"
_cell_formula_units_Z 60
_cell_length_a 16.709085
_cell_length_b 10.090042
_cell_length_c 17.813867
_cell_angle_alpha 90.000000
_cell_angle_beta 90.000000
_cell_angle_gamma 90.000000
_cell_volume 3003.335488
_symmetry_space_group_name_H-M "P C C N"
_symmetry_group_IT_number 56
_symmetry_cell_setting 'orthorhombic'
loop_
_space_group_symop_operation_xyz
x,y,z
1/2-x,1/2-y,z
1/2+x,-y,1/2-z
-x,1/2+y,1/2-z
-x,-y,-z
1/2+x,1/2+y,-z
1/2-x,y,1/2+z
x,1/2-y,1/2+z
loop_
_atom_site_type_symbol
_atom_site_label
_atom_site_fract_x
_atom_site_fract_y
_atom_site_fract_z
Si Si1 0.594882 0.781398 0.182654
Si Si2 0.570058 0.444541 0.323499
Si Si3 0.294958 0.044076 0.919744
Si Si4 0.426362 0.603529 0.510896
Si Si5 0.896703 0.745290 0.848039
Si Si6 0.023397 0.621983 0.447684
Si Si7 0.750000 0.750000 0.461078
Si Si8 0.858111 0.482800 0.666805
O O1 0.510586 0.858546 0.185783
O O2 0.647547 0.848992 0.119138
O O3 0.631951 0.791762 0.266260
O O4 0.596186 0.625192 0.165217
O O5 0.604719 0.402933 0.403883
O O6 0.558753 0.604162 0.333622
O O7 0.624355 0.427302 0.249767
O O8 0.233895 0.998434 0.855677
O O9 0.246409 0.121601 0.984921
O O10 0.353979 0.935913 0.955844
O O11 0.500000 0.500000 0.500000
O O12 0.464176 0.745820 0.495427
O O13 0.825767 0.728854 0.907333
O O14 0.956216 0.849129 0.885437
O O15 0.102924 0.599435 0.399915
O O16 0.000000 0.500000 0.500000
#
# Coordination Sequence:
#
# PCOD9433349 Si02
#       8
#     8   8   8   8   8   8   4   8
#     4  11  22  40  66  96 132 180 229 284 341 414
#     4  11  22  42  66  94 131 178 236 273 343 426
#     4  12  23  41  70  99 137 179 234 289 351 411
#     4  12  23  42  71 100 131 182 231 282 344 420
#     4  11  24  39  63  99 134 176 226 286 343 411
#     4  12  24  43  66 100 137 176 229 281 342 411
#     4  12  22  38  64 102 136 174 232 294 344 414
#     4  11  25  40  64 101 139 173 223 291 356 410
#
# _framework density 19.977786999999999
#
# number of rings (size 3 to 8) (size 9 to 14) (size 15 to 20)
#    0.000    0.533    6.667    1.600    3.733    0.533 
#    0.000    0.000    0.000    1.600    0.000    0.000 
#    0.000    0.000    0.000    0.000    0.000    0.000 
#
# Total GULP energy -335115.246358 kJ/mol
# GULP energy per Si atom -5585.254106 kJ/mol
# Density = 1.993232 g / cm^3
# Si number density = 19.977787 Si / 1000 Ang^3
#
#
#
# Elastic Constant Matrix: (Units=GPa)
#
#
# Indices 1 2 3 4 5 6 
#
# 1 69.3419 21.0165 13.6607 0.0000 0.0000 0.0000
# 2 21.0165 89.2763 36.4716 0.0000 0.0000 0.0000
# 3 13.6607 36.4716 110.2301 0.0000 0.0000 0.0000
# 4 0.0000 0.0000 0.0000 30.6489 0.0000 0.0000
# 5 0.0000 0.0000 0.0000 0.0000 36.8395 0.0000
# 6 0.0000 0.0000 0.0000 0.0000 0.0000 22.4637
#
#
#
# Elastic Compliance Matrix: (Units=1/GPa)
#
#
# Indices 1 2 3 4 5 6 
#
# 1 0.015595 -0.003332 -0.000830 0.000000 0.000000 0.000000
# 2 -0.003332 0.013664 -0.004108 0.000000 0.000000 0.000000
# 3 -0.000830 -0.004108 0.010534 0.000000 0.000000 0.000000
# 4 0.000000 0.000000 0.000000 0.032628 0.000000 0.000000
# 5 0.000000 0.000000 0.000000 0.000000 0.027145 0.000000
# 6 0.000000 0.000000 0.000000 0.000000 0.000000 0.044516
#
#
# Mechanical properties :
#
#
# Convention : Reuss Voigt Hill
#
# Bulk Modulus (GPa) = 43.00669 45.68288 44.34478
# Shear Modulus (GPa) = 29.69613 31.17040 30.43327
#
# Velocity S-wave (km/s) = 3.85964 3.95429 3.90725
# Velocity P-wave (km/s) = 6.43711 6.61551 6.52692
#
# Compressibility (1/GPa) = 0.02325220
#
# Stress axis : x y z
#
# Youngs Moduli (GPa) = 64.12425 73.18619 94.93061
#
# Poissons Ratio (x) = 0.24386 0.07881
# Poissons Ratio (y) = 0.21366 0.38997
# Poissons Ratio (z) = 0.05324 0.30065
#
# Static dielectric constant tensor:
#      x y z
#    x 1.736080 0.000000 0.000000 
#    y 0.000000 1.717470 0.000000 
#    z 0.000000 0.000000 1.720810 
# 
# From -- ./inp_files/16323.got.cif
#   From: 2010.05.17/outbox.cif.g08.bks.cpg/sg56_9_cif.got.tgz:16323.got - 2010.06.03 13:42:01.
