data_PCOD9433515
_publ_section_title
;
Structure prediction by ZEFSAII (Michael W. Deem and Ramdas Pophale) SiO2 
 PCOD9433515
Probable space group: P C C N
;
_chemical_formula_sum "Si O2"
_cell_formula_units_Z 40
_cell_length_a 15.227946
_cell_length_b 9.601899
_cell_length_c 12.898195
_cell_angle_alpha 90.000000
_cell_angle_beta 90.000000
_cell_angle_gamma 90.000000
_cell_volume 1885.937951
_symmetry_space_group_name_H-M "P C C N"
_symmetry_group_IT_number 56
_symmetry_cell_setting 'orthorhombic'
loop_
_space_group_symop_operation_xyz
x,y,z
1/2-x,1/2-y,z
1/2+x,-y,1/2-z
-x,1/2+y,1/2-z
-x,-y,-z
1/2+x,1/2+y,-z
1/2-x,y,1/2+z
x,1/2-y,1/2+z
loop_
_atom_site_type_symbol
_atom_site_label
_atom_site_fract_x
_atom_site_fract_y
_atom_site_fract_z
Si Si1 0.917095 0.991419 0.293619
Si Si2 0.655827 0.759984 0.163953
Si Si3 0.593591 0.954323 0.332515
Si Si4 0.530148 0.716946 0.476329
Si Si5 0.350001 0.748086 0.582457
O O1 0.867555 0.886763 0.216527
O O2 0.946098 0.901389 0.393804
O O3 0.863356 0.123640 0.334621
O O4 0.003668 0.035607 0.231922
O O5 0.750000 0.750000 0.110006
O O6 0.659291 0.870094 0.258125
O O7 0.580270 0.804394 0.084447
O O8 0.569063 0.860565 0.431271
O O9 0.627879 0.104504 0.364562
O O10 0.426288 0.725529 0.497126
O O11 0.250000 0.750000 0.543667
#
# Coordination Sequence:
#
# PCOD9433515 Si02
#       5
#     8   8   8   8   8
#     4  11  23  46  68  93 136 178 217 272 334 393
#     4  11  24  42  70  97 128 178 223 265 327 398
#     4  11  23  46  68  93 136 178 217 272 334 393
#     4  11  24  45  70  92 136 180 221 268 332 403
#     4  12  24  41  68 103 134 170 222 281 331 389
#
# _framework density 21.209606000000001
#
# number of rings (size 3 to 8) (size 9 to 14) (size 15 to 20)
#    0.000    0.800    4.000    3.600    0.000    4.800 
#    0.000    4.000    0.000    0.000    0.000    0.000 
#    0.000    0.000    0.000    0.000    0.000    0.000 
#
# Total GULP energy -223798.688348 kJ/mol
# GULP energy per Si atom -5594.967209 kJ/mol
# Density = 2.116133 g / cm^3
# Si number density = 21.209606 Si / 1000 Ang^3
#
#
#
# Elastic Constant Matrix: (Units=GPa)
#
#
# Indices 1 2 3 4 5 6 
#
# 1 120.4256 -17.9004 7.5490 0.0000 0.0000 0.0000
# 2 -17.9004 61.1248 -2.3697 0.0000 0.0000 0.0000
# 3 7.5490 -2.3697 60.2560 0.0000 0.0000 0.0000
# 4 0.0000 0.0000 0.0000 9.4930 0.0000 0.0000
# 5 0.0000 0.0000 0.0000 0.0000 9.3650 0.0000
# 6 0.0000 0.0000 0.0000 0.0000 0.0000 14.7519
#
#
#
# Elastic Compliance Matrix: (Units=1/GPa)
#
#
# Indices 1 2 3 4 5 6 
#
# 1 0.008741 0.002521 -0.000996 0.000000 0.000000 0.000000
# 2 0.002521 0.017112 0.000357 0.000000 0.000000 0.000000
# 3 -0.000996 0.000357 0.016735 0.000000 0.000000 0.000000
# 4 0.000000 0.000000 0.000000 0.105340 0.000000 0.000000
# 5 0.000000 0.000000 0.000000 0.000000 0.106780 0.000000
# 6 0.000000 0.000000 0.000000 0.000000 0.000000 0.067788
#
#
# Mechanical properties :
#
#
# Convention : Reuss Voigt Hill
#
# Bulk Modulus (GPa) = 21.57372 24.04045 22.80709
# Shear Modulus (GPa) = 14.96190 23.69050 19.32620
#
# Velocity S-wave (km/s) = 2.65888 3.34574 3.02188
# Velocity P-wave (km/s) = 4.42944 5.12685 4.79085
#
# Compressibility (1/GPa) = 0.04635269
#
# Stress axis : x y z
#
# Youngs Moduli (GPa) = 114.40244 58.43800 59.75613
#
# Poissons Ratio (x) = -0.14733 0.05951
# Poissons Ratio (y) = -0.28843 -0.02134
# Poissons Ratio (z) = 0.11394 -0.02087
#
# Static dielectric constant tensor:
#      x y z
#    x 1.758380 0.000000 0.000000 
#    y 0.000000 1.762410 0.000000 
#    z 0.000000 0.000000 1.743830 
# 
# From -- ./inp_files/12087.got.cif
#   From: 2010.05.17/outbox.cif.g08.bks.cpg/sg56_7_cif.got.tgz:12087.got - 2010.06.03 13:42:01.
