data_PCOD9433293
_publ_section_title
;
Structure prediction by ZEFSAII (Michael W. Deem and Ramdas Pophale) SiO2 
 PCOD9433293
Probable space group: P C C N
;
_chemical_formula_sum "Si O2"
_cell_formula_units_Z 52
_cell_length_a 8.068849
_cell_length_b 15.005796
_cell_length_c 19.992743
_cell_angle_alpha 90.000000
_cell_angle_beta 90.000000
_cell_angle_gamma 90.000000
_cell_volume 2420.711367
_symmetry_space_group_name_H-M "P C C N"
_symmetry_group_IT_number 56
_symmetry_cell_setting 'orthorhombic'
loop_
_space_group_symop_operation_xyz
x,y,z
1/2-x,1/2-y,z
1/2+x,-y,1/2-z
-x,1/2+y,1/2-z
-x,-y,-z
1/2+x,1/2+y,-z
1/2-x,y,1/2+z
x,1/2-y,1/2+z
loop_
_atom_site_type_symbol
_atom_site_label
_atom_site_fract_x
_atom_site_fract_y
_atom_site_fract_z
Si Si1 0.329792 0.657788 0.978645
Si Si2 0.826021 0.893265 0.927453
Si Si3 0.847853 0.523893 0.045923
Si Si4 0.011893 0.062517 0.309534
Si Si5 0.881405 0.614824 0.735110
Si Si6 0.335404 0.904387 0.629269
Si Si7 0.750000 0.750000 0.819220
O O1 0.250000 0.750000 0.958969
O O2 0.507869 0.655834 0.946647
O O3 0.252070 0.567554 0.948971
O O4 0.325135 0.648419 0.059255
O O5 0.752082 0.833200 0.869694
O O6 0.841073 0.992497 0.896489
O O7 0.743722 0.904358 0.000232
O O8 0.914292 0.552850 0.116520
O O9 0.000000 0.500000 0.000000
O O10 0.180051 0.098639 0.272271
O O11 0.829998 0.108218 0.324202
O O12 0.959809 0.968332 0.275992
O O13 0.892692 0.711832 0.769908
O O14 0.993498 0.615505 0.668126
#
# Coordination Sequence:
#
# PCOD9433293 Si02
#       7
#     8   8   8   8   8   8   4
#     4  11  25  40  68 105 137 172 231 291 349 401
#     4  11  23  44  69 100 138 178 224 292 350 407
#     4  11  21  42  72  98 132 179 225 278 353 409
#     4  12  22  42  76  95 134 186 232 268 341 415
#     4  12  25  43  68 100 134 185 230 279 338 409
#     4  11  23  48  70  95 140 183 233 279 338 424
#     4  12  26  44  66 100 142 172 232 286 336 408
#
# _framework density 21.481289
#
# number of rings (size 3 to 8) (size 9 to 14) (size 15 to 20)
#    0.000    0.615    6.154    3.692    4.308    1.231 
#    0.000    1.538    0.000    0.000    0.000    0.000 
#    0.000    0.000    0.000    0.000    0.000    0.000 
#
# Total GULP energy -289750.263188 kJ/mol
# GULP energy per Si atom -5572.120446 kJ/mol
# Density = 2.143240 g / cm^3
# Si number density = 21.481289 Si / 1000 Ang^3
#
#
#
# Elastic Constant Matrix: (Units=GPa)
#
#
# Indices 1 2 3 4 5 6 
#
# 1 98.0264 17.1064 17.2197 0.0000 0.0000 0.0000
# 2 17.1064 45.8626 22.4456 0.0000 0.0000 0.0000
# 3 17.2197 22.4456 46.5754 0.0000 0.0000 0.0000
# 4 0.0000 0.0000 0.0000 69.0656 0.0000 0.0000
# 5 0.0000 0.0000 0.0000 0.0000 45.3605 0.0000
# 6 0.0000 0.0000 0.0000 0.0000 0.0000 14.6327
#
#
#
# Elastic Compliance Matrix: (Units=1/GPa)
#
#
# Indices 1 2 3 4 5 6 
#
# 1 0.011180 -0.002810 -0.002779 0.000000 0.000000 0.000000
# 2 -0.002810 0.029240 -0.013053 0.000000 0.000000 0.000000
# 3 -0.002779 -0.013053 0.028788 0.000000 0.000000 0.000000
# 4 0.000000 0.000000 0.000000 0.014479 0.000000 0.000000
# 5 0.000000 0.000000 0.000000 0.000000 0.022046 0.000000
# 6 0.000000 0.000000 0.000000 0.000000 0.000000 0.068340
#
#
# Mechanical properties :
#
#
# Convention : Reuss Voigt Hill
#
# Bulk Modulus (GPa) = 31.32323 33.77864 32.55093
# Shear Modulus (GPa) = 22.52264 34.72459 28.62362
#
# Velocity S-wave (km/s) = 3.24153 4.02494 3.65429
# Velocity P-wave (km/s) = 5.35008 6.11220 5.74379
#
# Compressibility (1/GPa) = 0.03192519
#
# Stress axis : x y z
#
# Youngs Moduli (GPa) = 89.44638 34.19926 34.73618
#
# Poissons Ratio (x) = 0.09609 0.09654
# Poissons Ratio (y) = 0.25132 0.45340
# Poissons Ratio (z) = 0.24860 0.44639
#
# Static dielectric constant tensor:
#      x y z
#    x 1.841310 0.000000 0.000000 
#    y 0.000000 1.752310 0.000000 
#    z 0.000000 0.000000 1.771120 
# 
# From -- ./inp_files/18146.got.cif
#   From: 2010.05.17/outbox.cif.g08.bks.cpg/sg56_10_cif.got.tgz:18146.got - 2010.06.03 13:42:01.
