data_PCOD9433252
_publ_section_title
;
Structure prediction by ZEFSAII (Michael W. Deem and Ramdas Pophale) SiO2 
 PCOD9433252
Probable space group: P C C N
;
_chemical_formula_sum "Si O2"
_cell_formula_units_Z 64
_cell_length_a 16.331121
_cell_length_b 7.611477
_cell_length_c 23.142513
_cell_angle_alpha 90.000000
_cell_angle_beta 90.000000
_cell_angle_gamma 90.000000
_cell_volume 2876.705822
_symmetry_space_group_name_H-M "P C C N"
_symmetry_group_IT_number 56
_symmetry_cell_setting 'orthorhombic'
loop_
_space_group_symop_operation_xyz
x,y,z
1/2-x,1/2-y,z
1/2+x,-y,1/2-z
-x,1/2+y,1/2-z
-x,-y,-z
1/2+x,1/2+y,-z
1/2-x,y,1/2+z
x,1/2-y,1/2+z
loop_
_atom_site_type_symbol
_atom_site_label
_atom_site_fract_x
_atom_site_fract_y
_atom_site_fract_z
Si Si1 0.508001 0.501957 0.198214
Si Si2 0.903100 0.569177 0.887324
Si Si3 0.440456 0.590602 0.322321
Si Si4 0.723048 0.449648 0.604516
Si Si5 0.232691 0.553493 0.194739
Si Si6 0.371729 0.031158 0.614120
Si Si7 0.765501 0.959703 0.471716
Si Si8 0.814726 0.895623 0.198276
O O1 0.457724 0.514149 0.258306
O O2 0.541408 0.302256 0.185766
O O3 0.448820 0.560781 0.145281
O O4 0.588637 0.622121 0.204556
O O5 0.848860 0.530622 0.830901
O O6 0.903991 0.775924 0.901610
O O7 0.847021 0.485396 0.936758
O O8 0.993113 0.518833 0.868389
O O9 0.354931 0.541765 0.352541
O O10 0.750000 0.250000 0.605234
O O11 0.716834 0.501154 0.537896
O O12 0.794270 0.566955 0.632319
O O13 0.250000 0.750000 0.174343
O O14 0.307190 0.447120 0.166925
O O15 0.215648 0.556992 0.262362
O O16 0.315512 0.962007 0.560969
O O17 0.750000 0.750000 0.464715
O O18 0.750000 0.750000 0.218691
#
# Coordination Sequence:
#
# PCOD9433252 Si02
#       8
#     8   8   8   8   8   8   8   8
#     4  11  24  41  65  99 132 167 217 272 331 400
#     4   9  19  40  66  91 124 173 218 269 323 394
#     4  11  24  41  65  98 136 168 213 271 336 399
#     4  12  25  43  64  92 133 170 213 281 332 384
#     4  11  21  34  59  96 130 164 214 267 328 389
#     4   9  20  39  66  90 126 167 218 275 321 389
#     4   9  20  42  68  90 123 174 230 267 325 400
#     4  12  25  41  62  89 128 179 218 263 334 408
#
# _framework density 22.247669999999999
#
# number of rings (size 3 to 8) (size 9 to 14) (size 15 to 20)
#    0.000    1.500    2.500    3.375    5.250    2.500 
#    0.000    0.625    2.750    0.000    0.000    0.000 
#    0.000    0.000    0.000    0.000    0.000    0.000 
#
# Total GULP energy -356911.153754 kJ/mol
# GULP energy per Si atom -5576.736777 kJ/mol
# Density = 2.219703 g / cm^3
# Si number density = 22.247670 Si / 1000 Ang^3
#
#
#
# Elastic Constant Matrix: (Units=GPa)
#
#
# Indices 1 2 3 4 5 6 
#
# 1 127.1650 9.6026 54.1025 0.0000 0.0000 0.0000
# 2 9.6026 41.8617 2.4849 0.0000 0.0000 0.0000
# 3 54.1025 2.4849 143.4300 0.0000 0.0000 0.0000
# 4 0.0000 0.0000 0.0000 19.7639 0.0000 0.0000
# 5 0.0000 0.0000 0.0000 0.0000 30.1433 0.0000
# 6 0.0000 0.0000 0.0000 0.0000 0.0000 18.1999
#
#
#
# Elastic Compliance Matrix: (Units=1/GPa)
#
#
# Indices 1 2 3 4 5 6 
#
# 1 0.009527 -0.001974 -0.003560 0.000000 0.000000 0.000000
# 2 -0.001974 0.024322 0.000323 0.000000 0.000000 0.000000
# 3 -0.003560 0.000323 0.008309 0.000000 0.000000 0.000000
# 4 0.000000 0.000000 0.000000 0.050597 0.000000 0.000000
# 5 0.000000 0.000000 0.000000 0.000000 0.033175 0.000000
# 6 0.000000 0.000000 0.000000 0.000000 0.000000 0.054945
#
#
# Mechanical properties :
#
#
# Convention : Reuss Voigt Hill
#
# Bulk Modulus (GPa) = 31.50856 49.42631 40.46743
# Shear Modulus (GPa) = 24.76773 30.03921 27.40347
#
# Velocity S-wave (km/s) = 3.34019 3.67852 3.51343
# Velocity P-wave (km/s) = 5.39159 6.34875 5.88965
#
# Compressibility (1/GPa) = 0.03173741
#
# Stress axis : x y z
#
# Youngs Moduli (GPa) = 104.96178 41.11535 120.34976
#
# Poissons Ratio (x) = 0.08117 0.42839
# Poissons Ratio (y) = 0.20721 -0.03891
# Poissons Ratio (z) = 0.37362 -0.01329
#
# Static dielectric constant tensor:
#      x y z
#    x 1.861530 0.000000 0.000000 
#    y 0.000000 1.898680 0.000000 
#    z 0.000000 0.000000 1.799390 
# 
# From -- ./inp_files/21170.got.cif
#   From: 2010.05.17/outbox.cif.g08.bks.cpg/sg56_11_cif.got.tgz:21170.got - 2010.06.03 13:42:01.
