data_PCOD9433973
_publ_section_title
;
Structure prediction by ZEFSAII (Michael W. Deem and Ramdas Pophale) SiO2 
 PCOD9433973
Probable space group: P B C M
;
_chemical_formula_sum "Si O2"
_cell_formula_units_Z 48
_cell_length_a 29.069820
_cell_length_b 5.405294
_cell_length_c 13.932267
_cell_angle_alpha 90.000000
_cell_angle_beta 90.000000
_cell_angle_gamma 90.000000
_cell_volume 2189.189982
_symmetry_space_group_name_H-M "P B C M"
_symmetry_group_IT_number 57
_symmetry_cell_setting 'orthorhombic'
loop_
_space_group_symop_operation_xyz
x,y,z
-x,-y,1/2+z
x,1/2-y,-z
-x,1/2+y,1/2-z
-x,-y,-z
x,y,1/2-z
-x,1/2+y,z
x,1/2-y,1/2+z
loop_
_atom_site_type_symbol
_atom_site_label
_atom_site_fract_x
_atom_site_fract_y
_atom_site_fract_z
Si Si1 0.525453 0.584068 0.632812
Si Si2 0.223164 0.500403 0.936469
Si Si3 0.677547 0.095007 0.862789
Si Si4 0.369051 0.094594 0.632114
Si Si5 0.980201 0.000497 0.889414
Si Si6 0.877137 0.500282 0.063677
O O1 0.525130 0.585051 0.750000
O O2 0.495017 0.348943 0.602998
O O3 0.578307 0.551237 0.603262
O O4 0.269037 0.529279 0.875217
O O5 0.172923 0.492550 0.886329
O O6 0.222405 0.750000 0.000000
O O7 0.226893 0.250000 0.000000
O O8 0.667256 0.106934 0.750000
O O9 0.663197 0.366300 0.899856
O O10 0.648448 0.862898 0.900793
O O11 0.367905 0.100599 0.750000
O O12 0.925272 0.002036 0.881970
O O13 0.000257 0.249906 0.848768
O O14 0.000000 0.000000 0.000000
O O15 0.878154 0.250000 0.000000
O O16 0.878753 0.750000 0.000000
#
# Coordination Sequence:
#
# PCOD9433973 Si02
#       6
#     8   8   8   8   8   8
#     4   9  15  23  37  61  94 123 144 177 234 287
#     4  10  21  33  48  68  97 124 154 200 242 278
#     4  10  19  33  50  68  93 127 164 194 228 277
#     4   9  17  28  45  67  93 125 158 192 229 277
#     4  10  14  20  34  53  79 110 139 170 213 278
#     4  10  16  25  37  57  84 117 140 177 230 273
#
# _framework density 21.925916999999998
#
# number of rings (size 3 to 8) (size 9 to 14) (size 15 to 20)
#    0.000    2.333    3.333    2.000    0.000    4.000 
#    0.000    0.000    0.000    0.000    0.000    0.000 
#    0.000   48.000    0.000    0.000    0.000    6.667 
#
# Total GULP energy -267914.061279 kJ/mol
# GULP energy per Si atom -5581.542943 kJ/mol
# Density = 2.187601 g / cm^3
# Si number density = 21.925917 Si / 1000 Ang^3
#
#
#
# Elastic Constant Matrix: (Units=GPa)
#
#
# Indices 1 2 3 4 5 6 
#
# 1 164.2625 62.3844 -9.2452 0.0000 0.0000 0.0000
# 2 62.3844 206.5611 14.1004 0.0000 0.0000 0.0000
# 3 -9.2452 14.1004 51.0344 0.0000 0.0000 0.0000
# 4 0.0000 0.0000 0.0000 4.3168 0.0000 0.0000
# 5 0.0000 0.0000 0.0000 0.0000 27.8277 0.0000
# 6 0.0000 0.0000 0.0000 0.0000 0.0000 46.0442
#
#
#
# Elastic Compliance Matrix: (Units=1/GPa)
#
#
# Indices 1 2 3 4 5 6 
#
# 1 0.007053 -0.002260 0.001902 0.000000 0.000000 0.000000
# 2 -0.002260 0.005658 -0.001973 0.000000 0.000000 0.000000
# 3 0.001902 -0.001973 0.020484 0.000000 0.000000 0.000000
# 4 0.000000 0.000000 0.000000 0.231656 0.000000 0.000000
# 5 0.000000 0.000000 0.000000 0.000000 0.035935 0.000000
# 6 0.000000 0.000000 0.000000 0.000000 0.000000 0.021718
#
#
# Mechanical properties :
#
#
# Convention : Reuss Voigt Hill
#
# Bulk Modulus (GPa) = 35.04517 61.81524 48.43020
# Shear Modulus (GPa) = 14.85098 39.27895 27.06496
#
# Velocity S-wave (km/s) = 2.60537 4.23713 3.51719
# Velocity P-wave (km/s) = 5.00687 7.22438 6.21532
#
# Compressibility (1/GPa) = 0.02853461
#
# Stress axis : x y z
#
# Youngs Moduli (GPa) = 141.77973 176.72812 48.81788
#
# Poissons Ratio (x) = 0.39941 -0.09286
# Poissons Ratio (y) = 0.32042 0.09631
# Poissons Ratio (z) = -0.26969 0.34865
#
# Static dielectric constant tensor:
#      x y z
#    x 1.782690 0.000000 0.000000 
#    y 0.000000 1.775510 0.000000 
#    z 0.000000 0.000000 1.839410 
# 
# From -- ./inp_files/19575.got.cif
#   From: 2010.05.17/outbox.cif.g08.bks.cpg/sg57_10_cif.got.tgz:19575.got - 2010.06.03 13:58:18.
