data_PCOD9433601
_publ_section_title
;
Structure prediction by ZEFSAII (Michael W. Deem and Ramdas Pophale) SiO2 
 PCOD9433601
Probable space group: P C C N
;
_chemical_formula_sum "Si O2"
_cell_formula_units_Z 48
_cell_length_a 10.445674
_cell_length_b 17.414119
_cell_length_c 10.928663
_cell_angle_alpha 90.000000
_cell_angle_beta 90.000000
_cell_angle_gamma 90.000000
_cell_volume 1987.947953
_symmetry_space_group_name_H-M "P C C N"
_symmetry_group_IT_number 56
_symmetry_cell_setting 'orthorhombic'
loop_
_space_group_symop_operation_xyz
x,y,z
1/2-x,1/2-y,z
1/2+x,-y,1/2-z
-x,1/2+y,1/2-z
-x,-y,-z
1/2+x,1/2+y,-z
1/2-x,y,1/2+z
x,1/2-y,1/2+z
loop_
_atom_site_type_symbol
_atom_site_label
_atom_site_fract_x
_atom_site_fract_y
_atom_site_fract_z
Si Si1 0.968196 0.367342 0.051278
Si Si2 0.488050 0.914782 0.553318
Si Si3 0.866086 0.809039 0.673409
Si Si4 0.917242 0.291844 0.651042
Si Si5 0.721506 0.412917 0.730401
Si Si6 0.176492 0.078541 0.745075
O O1 0.080469 0.393494 0.142379
O O2 0.897894 0.286139 0.076734
O O3 0.852413 0.422904 0.098773
O O4 0.048482 0.352228 0.928452
O O5 0.460332 0.854676 0.447757
O O6 0.380559 0.909147 0.659585
O O7 0.620118 0.899505 0.622671
O O8 0.500000 0.000000 0.500000
O O9 0.750000 0.750000 0.638573
O O10 0.807328 0.875005 0.760383
O O11 0.970805 0.766802 0.756179
O O12 0.807208 0.336282 0.725491
O O13 0.806085 0.487511 0.756072
#
# Coordination Sequence:
#
# PCOD9433601 Si02
#       6
#     8   8   8   8   8   8
#     4  11  28  48  71 109 149 197 252 314 381 449
#     4  11  24  46  76 105 148 198 240 314 378 442
#     4  12  27  45  76 108 147 197 250 313 377 453
#     4  12  26  48  75 106 151 196 247 312 378 457
#     4  11  27  48  74 109 150 198 254 307 382 459
#     4  11  25  46  73 108 148 192 254 308 375 452
#
# _framework density 24.145503000000001
#
# number of rings (size 3 to 8) (size 9 to 14) (size 15 to 20)
#    0.000    0.667    3.333    2.500   14.000    0.667 
#    0.000    0.000    0.000    0.000    0.000    0.000 
#    0.000    0.000    0.000    0.000    0.000    0.000 
#
# Total GULP energy -268153.052505 kJ/mol
# GULP energy per Si atom -5586.521927 kJ/mol
# Density = 2.409055 g / cm^3
# Si number density = 24.145503 Si / 1000 Ang^3
#
#
#
# Elastic Constant Matrix: (Units=GPa)
#
#
# Indices 1 2 3 4 5 6 
#
# 1 85.4635 17.8063 16.6284 0.0000 0.0000 0.0000
# 2 17.8063 102.2231 -3.9640 0.0000 0.0000 0.0000
# 3 16.6284 -3.9640 54.9255 0.0000 0.0000 0.0000
# 4 0.0000 0.0000 0.0000 19.3739 0.0000 0.0000
# 5 0.0000 0.0000 0.0000 0.0000 30.1654 0.0000
# 6 0.0000 0.0000 0.0000 0.0000 0.0000 28.2386
#
#
#
# Elastic Compliance Matrix: (Units=1/GPa)
#
#
# Indices 1 2 3 4 5 6 
#
# 1 0.013006 -0.002425 -0.004113 0.000000 0.000000 0.000000
# 2 -0.002425 0.010262 0.001475 0.000000 0.000000 0.000000
# 3 -0.004113 0.001475 0.019558 0.000000 0.000000 0.000000
# 4 0.000000 0.000000 0.000000 0.051616 0.000000 0.000000
# 5 0.000000 0.000000 0.000000 0.000000 0.033151 0.000000
# 6 0.000000 0.000000 0.000000 0.000000 0.000000 0.035413
#
#
# Mechanical properties :
#
#
# Convention : Reuss Voigt Hill
#
# Bulk Modulus (GPa) = 30.58037 33.72816 32.15426
# Shear Modulus (GPa) = 27.16928 29.69834 28.43381
#
# Velocity S-wave (km/s) = 3.35809 3.51090 3.43534
# Velocity P-wave (km/s) = 5.26576 5.51673 5.39270
#
# Compressibility (1/GPa) = 0.03270071
#
# Stress axis : x y z
#
# Youngs Moduli (GPa) = 76.88553 97.44556 51.12998
#
# Poissons Ratio (x) = 0.23631 0.21028
# Poissons Ratio (y) = 0.18645 -0.07541
# Poissons Ratio (z) = 0.31620 -0.14371
#
# Static dielectric constant tensor:
#      x y z
#    x 2.011390 0.000000 0.000000 
#    y 0.000000 1.949620 0.000000 
#    z 0.000000 0.000000 1.958670 
# 
# From -- ./inp_files/7143.got.cif
#   From: 2010.05.17/outbox.cif.g08.bks.cpg/sg56_4_cif.got.tgz:7143.got - 2010.06.03 13:42:01.
