data_PCOD9433740
_publ_section_title
;
Structure prediction by ZEFSAII (Michael W. Deem and Ramdas Pophale) SiO2 
 PCOD9433740
Probable space group: P C C N
;
_chemical_formula_sum "Si O2"
_cell_formula_units_Z 28
_cell_length_a 16.128645
_cell_length_b 8.503268
_cell_length_c 7.590805
_cell_angle_alpha 90.000000
_cell_angle_beta 90.000000
_cell_angle_gamma 90.000000
_cell_volume 1041.049992
_symmetry_space_group_name_H-M "P C C N"
_symmetry_group_IT_number 56
_symmetry_cell_setting 'orthorhombic'
loop_
_space_group_symop_operation_xyz
x,y,z
1/2-x,1/2-y,z
1/2+x,-y,1/2-z
-x,1/2+y,1/2-z
-x,-y,-z
1/2+x,1/2+y,-z
1/2-x,y,1/2+z
x,1/2-y,1/2+z
loop_
_atom_site_type_symbol
_atom_site_label
_atom_site_fract_x
_atom_site_fract_y
_atom_site_fract_z
Si Si1 0.750000 0.250000 0.419937
Si Si2 0.899346 0.642427 0.605206
Si Si3 0.919343 0.116940 0.802006
Si Si4 0.652101 0.531149 0.483310
O O1 0.662174 0.223551 0.324610
O O2 0.732066 0.419072 0.509510
O O3 0.908302 0.527346 0.438419
O O4 0.844413 0.793309 0.560483
O O5 0.993355 0.695159 0.654167
O O6 0.867773 0.555455 0.779281
O O7 0.916412 0.054727 0.603472
#
# Coordination Sequence:
#
# PCOD9433740 Si02
#       4
#     4   8   8   8
#     4  12  32  48  82 116 168 202 270 342 420 464
#     4  11  27  50  84 111 159 215 277 316 409 483
#     4  11  28  50  76 123 156 213 265 335 397 491
#     4  12  27  52  79 119 159 217 263 340 396 492
#
# _framework density 26.895923
#
# number of rings (size 3 to 8) (size 9 to 14) (size 15 to 20)
#    0.000    0.571    2.857    1.714   16.000    1.143 
#    0.000    0.000    0.000    0.000    0.000    0.000 
#    0.000    0.000    0.000    0.000    0.000    0.000 
#
# Total GULP energy -156911.356579 kJ/mol
# GULP energy per Si atom -5603.977021 kJ/mol
# Density = 2.683471 g / cm^3
# Si number density = 26.895923 Si / 1000 Ang^3
#
#
#
# Elastic Constant Matrix: (Units=GPa)
#
#
# Indices 1 2 3 4 5 6 
#
# 1 165.9635 87.2565 40.1805 0.0000 0.0000 0.0000
# 2 87.2565 186.6144 66.1664 0.0000 0.0000 0.0000
# 3 40.1805 66.1664 182.1863 0.0000 0.0000 0.0000
# 4 0.0000 0.0000 0.0000 37.6175 0.0000 0.0000
# 5 0.0000 0.0000 0.0000 0.0000 22.8298 0.0000
# 6 0.0000 0.0000 0.0000 0.0000 0.0000 57.9759
#
#
#
# Elastic Compliance Matrix: (Units=1/GPa)
#
#
# Indices 1 2 3 4 5 6 
#
# 1 0.008024 -0.003586 -0.000467 0.000000 0.000000 0.000000
# 2 -0.003586 0.007753 -0.002025 0.000000 0.000000 0.000000
# 3 -0.000467 -0.002025 0.006327 0.000000 0.000000 0.000000
# 4 0.000000 0.000000 0.000000 0.026583 0.000000 0.000000
# 5 0.000000 0.000000 0.000000 0.000000 0.043802 0.000000
# 6 0.000000 0.000000 0.000000 0.000000 0.000000 0.017249
#
#
# Mechanical properties :
#
#
# Convention : Reuss Voigt Hill
#
# Bulk Modulus (GPa) = 100.52241 102.44123 101.48182
# Shear Modulus (GPa) = 39.93234 46.42870 43.18052
#
# Velocity S-wave (km/s) = 3.85736 4.15931 4.01117
# Velocity P-wave (km/s) = 7.56933 7.82542 7.69844
#
# Compressibility (1/GPa) = 0.00994803
#
# Stress axis : x y z
#
# Youngs Moduli (GPa) = 124.62622 128.97521 158.04363
#
# Poissons Ratio (x) = 0.46253 0.07384
# Poissons Ratio (y) = 0.44693 0.32003
# Poissons Ratio (z) = 0.05823 0.26117
#
# Static dielectric constant tensor:
#      x y z
#    x 2.062750 0.000000 0.000000 
#    y 0.000000 2.109670 0.000000 
#    z 0.000000 0.000000 2.088300 
# 
# From -- ./inp_files/3837.got.cif
#   From: 2010.05.17/outbox.cif.g08.bks.cpg/sg56_2_cif.got.tgz:3837.got - 2010.06.03 13:42:01.
