data_PCOD9433730
_publ_section_title
;
Structure prediction by ZEFSAII (Michael W. Deem and Ramdas Pophale) SiO2 
 PCOD9433730
Probable space group: P C C N
;
_chemical_formula_sum "Si O2"
_cell_formula_units_Z 16
_cell_length_a 8.931149
_cell_length_b 5.133736
_cell_length_c 13.004491
_cell_angle_alpha 90.000000
_cell_angle_beta 90.000000
_cell_angle_gamma 90.000000
_cell_volume 596.258008
_symmetry_space_group_name_H-M "P C C N"
_symmetry_group_IT_number 56
_symmetry_cell_setting 'orthorhombic'
loop_
_space_group_symop_operation_xyz
x,y,z
1/2-x,1/2-y,z
1/2+x,-y,1/2-z
-x,1/2+y,1/2-z
-x,-y,-z
1/2+x,1/2+y,-z
1/2-x,y,1/2+z
x,1/2-y,1/2+z
loop_
_atom_site_type_symbol
_atom_site_label
_atom_site_fract_x
_atom_site_fract_y
_atom_site_fract_z
Si Si1 0.146218 0.997198 0.691298
Si Si2 0.421514 0.816381 0.417219
O O1 0.250000 0.250000 0.687907
O O2 0.015232 0.056889 0.610803
O O3 0.250000 0.750000 0.670770
O O4 0.083192 0.962351 0.806262
O O5 0.250000 0.750000 0.442367
O O6 0.500000 0.000000 0.500000
#
# Coordination Sequence:
#
# PCOD9433730 Si02
#       2
#     8   8
#     4  11  26  53  83 116 164 216 273 342 413 493
#     4  11  26  51  83 122 162 214 275 342 414 493
#
# _framework density 26.834021
#
# number of rings (size 3 to 8) (size 9 to 14) (size 15 to 20)
#    0.000    1.000    0.000    6.000    0.000   10.000 
#    0.000   37.500    0.000    0.000    0.000    0.000 
#    0.000    0.000    0.000    0.000    0.000    0.000 
#
# Total GULP energy -90036.250623 kJ/mol
# GULP energy per Si atom -5627.265664 kJ/mol
# Density = 2.677295 g / cm^3
# Si number density = 26.834021 Si / 1000 Ang^3
#
#
#
# Elastic Constant Matrix: (Units=GPa)
#
#
# Indices 1 2 3 4 5 6 
#
# 1 274.2924 127.5570 119.0555 0.0000 0.0000 0.0000
# 2 127.5570 231.5520 86.4307 0.0000 0.0000 0.0000
# 3 119.0555 86.4307 248.6634 0.0000 0.0000 0.0000
# 4 0.0000 0.0000 0.0000 23.4859 0.0000 0.0000
# 5 0.0000 0.0000 0.0000 0.0000 27.2036 0.0000
# 6 0.0000 0.0000 0.0000 0.0000 0.0000 59.5822
#
#
#
# Elastic Compliance Matrix: (Units=1/GPa)
#
#
# Indices 1 2 3 4 5 6 
#
# 1 0.005542 -0.002370 -0.001830 0.000000 0.000000 0.000000
# 2 -0.002370 0.005976 -0.000942 0.000000 0.000000 0.000000
# 3 -0.001830 -0.000942 0.005225 0.000000 0.000000 0.000000
# 4 0.000000 0.000000 0.000000 0.042579 0.000000 0.000000
# 5 0.000000 0.000000 0.000000 0.000000 0.036760 0.000000
# 6 0.000000 0.000000 0.000000 0.000000 0.000000 0.016784
#
#
# Mechanical properties :
#
#
# Convention : Reuss Voigt Hill
#
# Bulk Modulus (GPa) = 154.82424 157.84381 156.33403
# Shear Modulus (GPa) = 39.90342 50.15199 45.02770
#
# Velocity S-wave (km/s) = 3.86041 4.32785 4.10079
# Velocity P-wave (km/s) = 8.81434 9.16099 8.98933
#
# Compressibility (1/GPa) = 0.00645894
#
# Stress axis : x y z
#
# Youngs Moduli (GPa) = 180.43793 167.33383 191.38478
#
# Poissons Ratio (x) = 0.39659 0.35017
# Poissons Ratio (y) = 0.42765 0.18037
# Poissons Ratio (z) = 0.33014 0.15770
#
# Static dielectric constant tensor:
#      x y z
#    x 2.084050 0.000000 0.000000 
#    y 0.000000 2.076640 0.000000 
#    z 0.000000 0.000000 2.099350 
# 
# From -- ./inp_files/9212.got.cif
#   From: 2010.05.17/outbox.cif.g08.bks.cpg/sg56_5_cif.got.tgz:9212.got - 2010.06.03 13:42:01.
