data_PCOD9433916
_publ_section_title
;
Structure prediction by ZEFSAII (Michael W. Deem and Ramdas Pophale) SiO2 
 PCOD9433916
Probable space group: P C C N
;
_chemical_formula_sum "Si O2"
_cell_formula_units_Z 64
_cell_length_a 15.000000
_cell_length_b 9.000000
_cell_length_c 24.000000
_cell_angle_alpha 90.000000
_cell_angle_beta 90.000000
_cell_angle_gamma 90.000000
_cell_volume 3240.000000
_symmetry_space_group_name_H-M "P C C N"
_symmetry_group_IT_number 56
_symmetry_cell_setting 'orthorhombic'
loop_
_space_group_symop_operation_xyz
x,y,z
1/2-x,1/2-y,z
1/2+x,-y,1/2-z
-x,1/2+y,1/2-z
-x,-y,-z
1/2+x,1/2+y,-z
1/2-x,y,1/2+z
x,1/2-y,1/2+z
loop_
_atom_site_type_symbol
_atom_site_label
_atom_site_fract_x
_atom_site_fract_y
_atom_site_fract_z
Si Si1 0.343936 0.661636 0.133166
Si Si2 0.586791 0.898515 0.508078
Si Si3 0.053210 0.938354 0.443433
Si Si4 0.143821 0.212474 0.387777
Si Si5 0.651483 0.304679 0.988852
Si Si6 0.341910 0.313720 0.103582
Si Si7 0.459467 0.373666 0.677307
Si Si8 0.494207 0.707580 0.709143
O O1 0.250000 0.750000 0.142199
O O2 0.385293 0.716204 0.073925
O O3 0.333285 0.484334 0.124194
O O4 0.416277 0.696135 0.180071
O O5 0.598947 0.824296 0.567381
O O6 0.595791 0.804765 0.451492
O O7 0.500000 0.000000 0.500000
O O8 0.661685 0.023515 0.503304
O O9 0.098061 0.789681 0.466812
O O10 0.006351 0.902190 0.383501
O O11 0.126286 0.058415 0.421461
O O12 0.000000 0.000000 0.500000
O O13 0.250000 0.250000 0.380045
O O14 0.084314 0.216374 0.330311
O O15 0.750000 0.250000 0.985017
O O16 0.250000 0.250000 0.082241
O O17 0.371781 0.209499 0.154604
O O18 0.459874 0.537084 0.704802
O O19 0.494233 0.265975 0.727372
#
# Coordination Sequence:
#
# PCOD9433916 Si02
#       8
#     8   8   8   8   8   8   8   8
#     4  10  21  39  63  93 128 169 214 269 327 389
#     4  11  21  35  58  90 124 162 206 260 324 388
#     4  11  22  40  64  90 123 161 208 264 324 385
#     4  11  23  39  62  90 126 170 215 265 327 395
#     4  10  20  34  56  87 122 154 193 249 313 375
#     4  11  22  37  61  92 124 161 213 271 328 392
#     4  11  24  41  64  89 122 170 218 269 327 390
#     4  11  24  43  62  87 123 167 217 269 326 398
#
# _framework density 19.753086
#
# number of rings (size 3 to 8) (size 9 to 14) (size 15 to 20)
#    0.000    1.250    0.000    7.875    0.000    5.500 
#    0.000    3.125    0.000    0.000    0.000    0.000 
#    0.000    0.000    0.000    0.000    0.000    0.000 
#
# Total GULP energy -356410.170871 kJ/mol
# GULP energy per Si atom -5568.908920 kJ/mol
# Density = 1.970813 g / cm^3
# Si number density = 19.753086 Si / 1000 Ang^3
#
#
#
# Elastic Constant Matrix: (Units=GPa)
#
#
# Indices 1 2 3 4 5 6 
#
# 1 95.5848 22.2220 28.4505 0.0000 0.0000 0.0000
# 2 22.2220 79.1940 33.4996 0.0000 0.0000 0.0000
# 3 28.4505 33.4996 116.7159 0.0000 0.0000 0.0000
# 4 0.0000 0.0000 0.0000 42.8991 0.0000 0.0000
# 5 0.0000 0.0000 0.0000 0.0000 26.0965 0.0000
# 6 0.0000 0.0000 0.0000 0.0000 0.0000 33.5152
#
#
#
# Elastic Compliance Matrix: (Units=1/GPa)
#
#
# Indices 1 2 3 4 5 6 
#
# 1 0.011654 -0.002354 -0.002165 0.000000 0.000000 0.000000
# 2 -0.002354 0.014848 -0.003688 0.000000 0.000000 0.000000
# 3 -0.002165 -0.003688 0.010154 0.000000 0.000000 0.000000
# 4 0.000000 0.000000 0.000000 0.023310 0.000000 0.000000
# 5 0.000000 0.000000 0.000000 0.000000 0.038319 0.000000
# 6 0.000000 0.000000 0.000000 0.000000 0.000000 0.029837
#
#
# Mechanical properties :
#
#
# Convention : Reuss Voigt Hill
#
# Bulk Modulus (GPa) = 49.40335 51.09320 50.24828
# Shear Modulus (GPa) = 33.05055 34.32367 33.68711
#
# Velocity S-wave (km/s) = 4.09489 4.17302 4.13414
# Velocity P-wave (km/s) = 6.88638 7.01005 6.94849
#
# Compressibility (1/GPa) = 0.02024154
#
# Stress axis : x y z
#
# Youngs Moduli (GPa) = 85.81011 67.35025 98.48354
#
# Poissons Ratio (x) = 0.15856 0.21321
# Poissons Ratio (y) = 0.20202 0.36318
# Poissons Ratio (z) = 0.18578 0.24837
#
# Static dielectric constant tensor:
#      x y z
#    x 1.835630 0.000000 0.000000 
#    y 0.000000 1.933450 0.000000 
#    z 0.000000 0.000000 1.694390 
# 
# From -- ./inp_files/21175.got.cif
#   From: 2010.05.17/outbox.ucp.g08.bks.cvg/sg56_11_cif.got.tgz:21175.got - 2010.06.11 16:37:52.
