data_PCOD9433373
_publ_section_title
;
Structure prediction by ZEFSAII (Michael W. Deem and Ramdas Pophale) SiO2 
 PCOD9433373
Probable space group: P C C N
;
_chemical_formula_sum "Si O2"
_cell_formula_units_Z 48
_cell_length_a 11.414034
_cell_length_b 13.316655
_cell_length_c 14.703233
_cell_angle_alpha 90.000000
_cell_angle_beta 90.000000
_cell_angle_gamma 90.000000
_cell_volume 2234.843674
_symmetry_space_group_name_H-M "P C C N"
_symmetry_group_IT_number 56
_symmetry_cell_setting 'orthorhombic'
loop_
_space_group_symop_operation_xyz
x,y,z
1/2-x,1/2-y,z
1/2+x,-y,1/2-z
-x,1/2+y,1/2-z
-x,-y,-z
1/2+x,1/2+y,-z
1/2-x,y,1/2+z
x,1/2-y,1/2+z
loop_
_atom_site_type_symbol
_atom_site_label
_atom_site_fract_x
_atom_site_fract_y
_atom_site_fract_z
Si Si1 0.794945 0.029584 0.908988
Si Si2 0.048617 0.180224 0.307631
Si Si3 0.265005 0.465401 0.403956
Si Si4 0.022820 0.150798 0.949680
Si Si5 0.858919 0.807894 0.874063
Si Si6 0.299991 0.639233 0.763311
O O1 0.749853 0.105554 0.834164
O O2 0.916862 0.073261 0.946212
O O3 0.821511 0.923308 0.861624
O O4 0.710510 0.007504 0.994439
O O5 0.133880 0.103202 0.359741
O O6 0.001247 0.259190 0.380164
O O7 0.115193 0.236049 0.224859
O O8 0.939512 0.133818 0.252787
O O9 0.146078 0.400187 0.419623
O O10 0.238737 0.558625 0.338188
O O11 0.039180 0.191995 0.051683
O O12 0.750000 0.750000 0.917161
O O13 0.250000 0.750000 0.785132
#
# Coordination Sequence:
#
# PCOD9433373 Si02
#       6
#     8   8   8   8   8   8
#     4  11  23  45  67  97 140 180 220 281 348 407
#     4  12  24  43  69 102 134 176 229 281 338 414
#     4  11  24  43  72  98 129 181 234 280 339 407
#     4  11  22  43  71 101 138 178 224 281 349 412
#     4  11  22  42  70 104 131 171 229 288 336 397
#     4  12  26  45  64  97 141 181 227 283 352 413
#
# _framework density 21.478013000000001
#
# number of rings (size 3 to 8) (size 9 to 14) (size 15 to 20)
#    0.000    0.667    3.333    7.500    0.000    1.333 
#    3.000    0.000    0.000    0.000    0.000    0.000 
#    0.000    0.000    0.000    0.000    0.000    0.000 
#
# Total GULP energy -268345.675606 kJ/mol
# GULP energy per Si atom -5590.534908 kJ/mol
# Density = 2.142913 g / cm^3
# Si number density = 21.478013 Si / 1000 Ang^3
#
#
#
# Elastic Constant Matrix: (Units=GPa)
#
#
# Indices 1 2 3 4 5 6 
#
# 1 50.5763 -8.2328 -4.8060 0.0000 0.0000 0.0000
# 2 -8.2328 54.5240 15.0681 0.0000 0.0000 0.0000
# 3 -4.8060 15.0681 108.4083 0.0000 0.0000 0.0000
# 4 0.0000 0.0000 0.0000 34.1416 0.0000 0.0000
# 5 0.0000 0.0000 0.0000 0.0000 23.1964 0.0000
# 6 0.0000 0.0000 0.0000 0.0000 0.0000 34.7208
#
#
#
# Elastic Compliance Matrix: (Units=1/GPa)
#
#
# Indices 1 2 3 4 5 6 
#
# 1 0.020296 0.002928 0.000493 0.000000 0.000000 0.000000
# 2 0.002928 0.019496 -0.002580 0.000000 0.000000 0.000000
# 3 0.000493 -0.002580 0.009605 0.000000 0.000000 0.000000
# 4 0.000000 0.000000 0.000000 0.029290 0.000000 0.000000
# 5 0.000000 0.000000 0.000000 0.000000 0.043110 0.000000
# 6 0.000000 0.000000 0.000000 0.000000 0.000000 0.028801
#
#
# Mechanical properties :
#
#
# Convention : Reuss Voigt Hill
#
# Bulk Modulus (GPa) = 19.57777 24.17413 21.87595
# Shear Modulus (GPa) = 30.13117 32.51038 31.32078
#
# Velocity S-wave (km/s) = 3.74957 3.89480 3.82288
# Velocity P-wave (km/s) = 5.28023 5.61299 5.44915
#
# Compressibility (1/GPa) = 0.05107833
#
# Stress axis : x y z
#
# Youngs Moduli (GPa) = 49.27174 51.29343 104.11428
#
# Poissons Ratio (x) = -0.15020 -0.05130
# Poissons Ratio (y) = -0.14428 0.26861
# Poissons Ratio (z) = -0.02428 0.13233
#
# Static dielectric constant tensor:
#      x y z
#    x 1.841090 0.000000 0.000000 
#    y 0.000000 1.751340 0.000000 
#    z 0.000000 0.000000 1.787900 
# 
# From -- ./inp_files/11604.got.cif
#   From: 2010.05.17/outbox.cif.g08.bks.cpg/sg56_6_cif.got.tgz:11604.got - 2010.06.03 13:42:01.
