data_PCOD9433843
_publ_section_title
;
Structure prediction by ZEFSAII (Michael W. Deem and Ramdas Pophale) SiO2 
 PCOD9433843
Probable space group: P C C N
;
_chemical_formula_sum "Si O2"
_cell_formula_units_Z 32
_cell_length_a 4.611613
_cell_length_b 13.154155
_cell_length_c 20.398043
_cell_angle_alpha 90.000000
_cell_angle_beta 90.000000
_cell_angle_gamma 90.000000
_cell_volume 1237.383478
_symmetry_space_group_name_H-M "P C C N"
_symmetry_group_IT_number 56
_symmetry_cell_setting 'orthorhombic'
loop_
_space_group_symop_operation_xyz
x,y,z
1/2-x,1/2-y,z
1/2+x,-y,1/2-z
-x,1/2+y,1/2-z
-x,-y,-z
1/2+x,1/2+y,-z
1/2-x,y,1/2+z
x,1/2-y,1/2+z
loop_
_atom_site_type_symbol
_atom_site_label
_atom_site_fract_x
_atom_site_fract_y
_atom_site_fract_z
Si Si1 0.954048 0.060430 0.116703
Si Si2 0.917075 0.081876 0.379128
Si Si3 0.250000 0.750000 0.298410
Si Si4 0.015517 0.678179 0.506915
Si Si5 0.250000 0.250000 0.294369
O O1 0.088004 0.099357 0.047788
O O2 0.871954 0.157448 0.159244
O O3 0.186485 0.992220 0.155368
O O4 0.676395 0.991811 0.098077
O O5 0.709087 0.131256 0.434800
O O6 0.076080 0.167662 0.337077
O O7 0.504007 0.705581 0.252787
O O8 0.750000 0.750000 0.528361
O O9 0.250000 0.750000 0.471441
#
# Coordination Sequence:
#
# PCOD9433843 Si02
#       5
#     8   8   4   8   4
#     4  12  26  51  84 120 158 212 269 335 404 483
#     4  12  28  50  82 118 162 209 270 327 410 487
#     4  12  28  52  86 112 164 212 278 334 398 468
#     4  12  26  46  84 119 166 207 255 333 420 481
#     4  12  30  54  80 116 162 220 270 340 394 472
#
# _framework density 25.861024
#
# number of rings (size 3 to 8) (size 9 to 14) (size 15 to 20)
#    0.000    0.000    1.250    7.500    8.750    4.000 
#    0.000    0.000    0.000    0.000    0.000    0.000 
#    0.000    0.000    0.000    0.000    0.000    0.000 
#
# Total GULP energy -179364.717591 kJ/mol
# GULP energy per Si atom -5605.147425 kJ/mol
# Density = 2.580216 g / cm^3
# Si number density = 25.861024 Si / 1000 Ang^3
#
#
#
# Elastic Constant Matrix: (Units=GPa)
#
#
# Indices 1 2 3 4 5 6 
#
# 1 195.0034 90.0756 68.8211 0.0000 0.0000 0.0000
# 2 90.0756 179.3037 90.3718 0.0000 0.0000 0.0000
# 3 68.8211 90.3718 127.1459 0.0000 0.0000 0.0000
# 4 0.0000 0.0000 0.0000 23.9369 0.0000 0.0000
# 5 0.0000 0.0000 0.0000 0.0000 24.4667 0.0000
# 6 0.0000 0.0000 0.0000 0.0000 0.0000 82.3629
#
#
#
# Elastic Compliance Matrix: (Units=1/GPa)
#
#
# Indices 1 2 3 4 5 6 
#
# 1 0.006992 -0.002501 -0.002007 0.000000 0.000000 0.000000
# 2 -0.002501 0.009585 -0.005459 0.000000 0.000000 0.000000
# 3 -0.002007 -0.005459 0.012831 0.000000 0.000000 0.000000
# 4 0.000000 0.000000 0.000000 0.041776 0.000000 0.000000
# 5 0.000000 0.000000 0.000000 0.000000 0.040872 0.000000
# 6 0.000000 0.000000 0.000000 0.000000 0.000000 0.012141
#
#
# Mechanical properties :
#
#
# Convention : Reuss Voigt Hill
#
# Bulk Modulus (GPa) = 105.54759 111.10999 108.32879
# Shear Modulus (GPa) = 33.94685 42.96561 38.45623
#
# Velocity S-wave (km/s) = 3.62700 4.08045 3.86039
# Velocity P-wave (km/s) = 7.64475 8.07822 7.86447
#
# Compressibility (1/GPa) = 0.00947440
#
# Stress axis : x y z
#
# Youngs Moduli (GPa) = 143.02975 104.33094 77.93399
#
# Poissons Ratio (x) = 0.26091 0.15640
# Poissons Ratio (y) = 0.35769 0.42544
# Poissons Ratio (z) = 0.28704 0.56955
#
# Static dielectric constant tensor:
#      x y z
#    x 2.035320 0.000000 0.000000 
#    y 0.000000 2.118260 0.000000 
#    z 0.000000 0.000000 2.018010 
# 
# From -- ./inp_files/17311.got.cif
#   From: 2010.05.17/outbox.cif.g08.bks.cpg/sg56_9_cif.got.tgz:17311.got - 2010.06.03 13:42:01.
