data_PCOD9433449
_publ_section_title
;
Structure prediction by ZEFSAII (Michael W. Deem and Ramdas Pophale) SiO2 
 PCOD9433449
Probable space group: P C C N
;
_chemical_formula_sum "Si O2"
_cell_formula_units_Z 44
_cell_length_a 15.430150
_cell_length_b 11.216600
_cell_length_c 9.672785
_cell_angle_alpha 90.000000
_cell_angle_beta 90.000000
_cell_angle_gamma 90.000000
_cell_volume 1674.105855
_symmetry_space_group_name_H-M "P C C N"
_symmetry_group_IT_number 56
_symmetry_cell_setting 'orthorhombic'
loop_
_space_group_symop_operation_xyz
x,y,z
1/2-x,1/2-y,z
1/2+x,-y,1/2-z
-x,1/2+y,1/2-z
-x,-y,-z
1/2+x,1/2+y,-z
1/2-x,y,1/2+z
x,1/2-y,1/2+z
loop_
_atom_site_type_symbol
_atom_site_label
_atom_site_fract_x
_atom_site_fract_y
_atom_site_fract_z
Si Si1 0.589187 0.754174 0.631906
Si Si2 0.344290 0.458022 0.215708
Si Si3 0.919789 0.134093 0.016647
Si Si4 0.750000 0.750000 0.430899
Si Si5 0.439637 0.023560 0.209097
Si Si6 0.119183 0.609185 0.938512
O O1 0.583463 0.631531 0.716366
O O2 0.505022 0.802303 0.550896
O O3 0.667143 0.731651 0.528480
O O4 0.608793 0.857942 0.739411
O O5 0.378151 0.545524 0.095845
O O6 0.276772 0.365996 0.154502
O O7 0.312794 0.539321 0.342855
O O8 0.939716 0.056443 0.151641
O O9 0.864235 0.250828 0.053115
O O10 0.527989 0.082534 0.143669
O O11 0.393939 0.949675 0.087573
#
# Coordination Sequence:
#
# PCOD9433449 Si02
#       6
#     8   8   8   4   8   8
#     4  12  26  45  76 117 166 217 283 344 424 497
#     4  12  27  50  79 122 162 219 286 346 429 494
#     4  12  25  48  81 119 173 218 275 365 427 499
#     4  12  28  50  76 112 168 228 278 342 416 526
#     4  11  23  41  69 116 168 211 265 350 433 487
#     4  11  25  41  74 121 164 207 272 358 427 485
#
# _framework density 26.282686999999999
#
# number of rings (size 3 to 8) (size 9 to 14) (size 15 to 20)
#    0.000    0.364    3.636    5.455    7.636    0.000 
#    0.000    0.000    0.000    3.273    0.000    0.000 
#    0.000    0.000    0.000    0.000    0.000    0.000 
#
# Total GULP energy -246718.943650 kJ/mol
# GULP energy per Si atom -5607.248719 kJ/mol
# Density = 2.622287 g / cm^3
# Si number density = 26.282687 Si / 1000 Ang^3
#
#
#
# Elastic Constant Matrix: (Units=GPa)
#
#
# Indices 1 2 3 4 5 6 
#
# 1 70.6800 49.8929 39.2401 0.0000 0.0000 0.0000
# 2 49.8929 268.6887 110.6522 0.0000 0.0000 0.0000
# 3 39.2401 110.6522 199.2872 0.0000 0.0000 0.0000
# 4 0.0000 0.0000 0.0000 79.6925 0.0000 0.0000
# 5 0.0000 0.0000 0.0000 0.0000 32.3834 0.0000
# 6 0.0000 0.0000 0.0000 0.0000 0.0000 35.4690
#
#
#
# Elastic Compliance Matrix: (Units=1/GPa)
#
#
# Indices 1 2 3 4 5 6 
#
# 1 0.016908 -0.002293 -0.002056 0.000000 0.000000 0.000000
# 2 -0.002293 0.005136 -0.002400 0.000000 0.000000 0.000000
# 3 -0.002056 -0.002400 0.006755 0.000000 0.000000 0.000000
# 4 0.000000 0.000000 0.000000 0.012548 0.000000 0.000000
# 5 0.000000 0.000000 0.000000 0.000000 0.030880 0.000000
# 6 0.000000 0.000000 0.000000 0.000000 0.000000 0.028194
#
#
# Mechanical properties :
#
#
# Convention : Reuss Voigt Hill
#
# Bulk Modulus (GPa) = 65.35444 104.24736 84.80090
# Shear Modulus (GPa) = 42.00943 52.10036 47.05490
#
# Velocity S-wave (km/s) = 4.00230 4.45714 4.23583
# Velocity P-wave (km/s) = 6.80278 8.13868 7.50053
#
# Compressibility (1/GPa) = 0.01530118
#
# Stress axis : x y z
#
# Youngs Moduli (GPa) = 59.14220 194.70270 148.02845
#
# Poissons Ratio (x) = 0.44644 0.30437
# Poissons Ratio (y) = 0.13561 0.35530
# Poissons Ratio (z) = 0.12161 0.46733
#
# Static dielectric constant tensor:
#      x y z
#    x 2.322160 0.000000 0.000000 
#    y 0.000000 2.024460 0.000000 
#    z 0.000000 0.000000 2.079360 
# 
# From -- ./inp_files/8261.got.cif
#   From: 2010.05.17/outbox.cif.g08.bks.cpg/sg56_5_cif.got.tgz:8261.got - 2010.06.03 13:42:01.
