data_PCOD9433723
_publ_section_title
;
Structure prediction by ZEFSAII (Michael W. Deem and Ramdas Pophale) SiO2 
 PCOD9433723
Probable space group: P C C N
;
_chemical_formula_sum "Si O2"
_cell_formula_units_Z 56
_cell_length_a 14.025012
_cell_length_b 8.862771
_cell_length_c 20.140052
_cell_angle_alpha 90.000000
_cell_angle_beta 90.000000
_cell_angle_gamma 90.000000
_cell_volume 2503.417922
_symmetry_space_group_name_H-M "P C C N"
_symmetry_group_IT_number 56
_symmetry_cell_setting 'orthorhombic'
loop_
_space_group_symop_operation_xyz
x,y,z
1/2-x,1/2-y,z
1/2+x,-y,1/2-z
-x,1/2+y,1/2-z
-x,-y,-z
1/2+x,1/2+y,-z
1/2-x,y,1/2+z
x,1/2-y,1/2+z
loop_
_atom_site_type_symbol
_atom_site_label
_atom_site_fract_x
_atom_site_fract_y
_atom_site_fract_z
Si Si1 0.481003 0.245659 0.380991
Si Si2 0.364097 0.234814 0.011004
Si Si3 0.842880 0.067245 0.423047
Si Si4 0.015072 0.399776 0.602834
Si Si5 0.655347 0.163293 0.078263
Si Si6 0.321102 0.386093 0.321925
Si Si7 0.202764 0.086761 0.174259
O O1 0.421500 0.301322 0.445104
O O2 0.584522 0.319946 0.387142
O O3 0.423741 0.304030 0.317525
O O4 0.475728 0.066693 0.388097
O O5 0.250000 0.250000 0.002772
O O6 0.412751 0.384581 0.040048
O O7 0.384018 0.100689 0.063327
O O8 0.834055 0.123950 0.499447
O O9 0.751032 0.032872 0.376639
O O10 0.934524 0.273103 0.592413
O O11 0.091099 0.387492 0.661909
O O12 0.750000 0.250000 0.096131
O O13 0.662067 0.019252 0.126083
O O14 0.250000 0.250000 0.343280
O O15 0.284165 0.448536 0.251745
O O16 0.250000 0.250000 0.161886
#
# Coordination Sequence:
#
# PCOD9433723 Si02
#       7
#     8   8   8   8   8   8   8
#     4  12  26  42  72 110 147 192 250 304 371 450
#     4  12  22  40  72 103 148 190 238 305 372 435
#     4  12  24  43  75 106 145 191 251 306 376 438
#     4  12  25  45  70 112 149 197 243 304 371 450
#     4  12  28  46  75 110 153 191 249 314 376 443
#     4  11  26  51  74 105 144 200 249 307 380 446
#     4  11  26  49  76 103 150 198 252 307 375 456
#
# _framework density 22.369416999999999
#
# number of rings (size 3 to 8) (size 9 to 14) (size 15 to 20)
#    0.000    0.286    5.714    3.000    4.000    1.714 
#    7.714    0.000    0.000    0.000    0.000    0.000 
#    0.000    0.000    0.000    0.000    0.000    0.000 
#
# Total GULP energy -312596.499873 kJ/mol
# GULP energy per Si atom -5582.080355 kJ/mol
# Density = 2.231850 g / cm^3
# Si number density = 22.369417 Si / 1000 Ang^3
#
#
#
# Elastic Constant Matrix: (Units=GPa)
#
#
# Indices 1 2 3 4 5 6 
#
# 1 138.3850 71.7851 53.7657 0.0000 0.0000 0.0000
# 2 71.7851 125.0021 62.8418 0.0000 0.0000 0.0000
# 3 53.7657 62.8418 102.3963 0.0000 0.0000 0.0000
# 4 0.0000 0.0000 0.0000 30.9073 0.0000 0.0000
# 5 0.0000 0.0000 0.0000 0.0000 -1.5552 0.0000
# 6 0.0000 0.0000 0.0000 0.0000 0.0000 54.4169
#
#
#
# Elastic Compliance Matrix: (Units=1/GPa)
#
#
# Indices 1 2 3 4 5 6 
#
# 1 0.010782 -0.004838 -0.002692 0.000000 0.000000 0.000000
# 2 -0.004838 0.013741 -0.005892 0.000000 0.000000 0.000000
# 3 -0.002692 -0.005892 0.014796 0.000000 0.000000 0.000000
# 4 0.000000 0.000000 0.000000 0.032355 0.000000 0.000000
# 5 0.000000 0.000000 0.000000 0.000000 -0.643010 0.000000
# 6 0.000000 0.000000 0.000000 0.000000 0.000000 0.018377
#
#
# Mechanical properties :
#
#
# Convention : Reuss Voigt Hill
#
# Bulk Modulus (GPa) = 80.17359 82.50762 81.34060
# Shear Modulus (GPa) = -9.57932 28.57984 9.50026
#
# Velocity S-wave (km/s) = -2.07162 3.57827 2.06306
# Velocity P-wave (km/s) = 5.49512 7.35093 6.48971
#
# Compressibility (1/GPa) = 0.01247294
#
# Stress axis : x y z
#
# Youngs Moduli (GPa) = 92.74739 72.77680 67.58786
#
# Poissons Ratio (x) = 0.35213 0.18194
# Poissons Ratio (y) = 0.44876 0.39824
# Poissons Ratio (z) = 0.24967 0.42882
#
# Static dielectric constant tensor:
#      x y z
#    x 1.863570 0.000000 0.000000 
#    y 0.000000 1.906070 0.000000 
#    z 0.000000 0.000000 1.903820 
# 
# From -- ./inp_files/19134.got.cif
#   From: 2010.05.17/outbox.cif.g08.bks.cpg/sg56_10_cif.got.tgz:19134.got - 2010.06.03 13:42:01.
