data_PCOD9433505
_publ_section_title
;
Structure prediction by ZEFSAII (Michael W. Deem and Ramdas Pophale) SiO2 
 PCOD9433505
Probable space group: P C C N
;
_chemical_formula_sum "Si O2"
_cell_formula_units_Z 28
_cell_length_a 12.221272
_cell_length_b 7.545198
_cell_length_c 11.155073
_cell_angle_alpha 90.000000
_cell_angle_beta 90.000000
_cell_angle_gamma 90.000000
_cell_volume 1028.630666
_symmetry_space_group_name_H-M "P C C N"
_symmetry_group_IT_number 56
_symmetry_cell_setting 'orthorhombic'
loop_
_space_group_symop_operation_xyz
x,y,z
1/2-x,1/2-y,z
1/2+x,-y,1/2-z
-x,1/2+y,1/2-z
-x,-y,-z
1/2+x,1/2+y,-z
1/2-x,y,1/2+z
x,1/2-y,1/2+z
loop_
_atom_site_type_symbol
_atom_site_label
_atom_site_fract_x
_atom_site_fract_y
_atom_site_fract_z
Si Si1 0.883033 0.882046 0.371441
Si Si2 0.250000 0.750000 0.848087
Si Si3 0.962419 0.252473 0.323147
Si Si4 0.336530 0.469216 0.035434
O O1 0.877784 0.732985 0.475463
O O2 0.758772 0.948764 0.364437
O O3 0.929738 0.787406 0.253547
O O4 0.953878 0.059458 0.381611
O O5 0.138723 0.737681 0.772170
O O6 0.274890 0.578225 0.931858
O O7 0.931660 0.407972 0.413703
#
# Coordination Sequence:
#
# PCOD9433505 Si02
#       4
#     8   4   8   8
#     4  11  23  45  69  95 136 179 223 280 337 396
#     4  12  24  44  70  96 142 178 222 286 338 402
#     4  12  23  45  72  97 133 183 228 275 341 404
#     4  11  24  46  64 100 142 171 224 289 331 402
#
# _framework density 27.220655000000001
#
# number of rings (size 3 to 8) (size 9 to 14) (size 15 to 20)
#    0.000    0.571    8.571    0.000    0.000    2.286 
#   10.286    0.000    0.000    0.000    0.000    0.000 
#    0.000    0.000    0.000    0.000    0.000    0.000 
#
# Total GULP energy -156914.892384 kJ/mol
# GULP energy per Si atom -5604.103299 kJ/mol
# Density = 2.715870 g / cm^3
# Si number density = 27.220655 Si / 1000 Ang^3
#
#
#
# Elastic Constant Matrix: (Units=GPa)
#
#
# Indices 1 2 3 4 5 6 
#
# 1 128.8100 39.8101 67.2143 0.0000 0.0000 0.0000
# 2 39.8101 256.7211 71.9223 0.0000 0.0000 0.0000
# 3 67.2143 71.9223 105.9800 0.0000 0.0000 0.0000
# 4 0.0000 0.0000 0.0000 49.2264 0.0000 0.0000
# 5 0.0000 0.0000 0.0000 0.0000 57.7768 0.0000
# 6 0.0000 0.0000 0.0000 0.0000 0.0000 64.5775
#
#
#
# Elastic Compliance Matrix: (Units=1/GPa)
#
#
# Indices 1 2 3 4 5 6 
#
# 1 0.011625 0.000325 -0.007593 0.000000 0.000000 0.000000
# 2 0.000325 0.004819 -0.003476 0.000000 0.000000 0.000000
# 3 -0.007593 -0.003476 0.016610 0.000000 0.000000 0.000000
# 4 0.000000 0.000000 0.000000 0.020314 0.000000 0.000000
# 5 0.000000 0.000000 0.000000 0.000000 0.017308 0.000000
# 6 0.000000 0.000000 0.000000 0.000000 0.000000 0.015485
#
#
# Mechanical properties :
#
#
# Convention : Reuss Voigt Hill
#
# Bulk Modulus (GPa) = 86.46694 94.37829 90.42261
# Shear Modulus (GPa) = 44.84043 55.15377 49.99710
#
# Velocity S-wave (km/s) = 4.06309 4.50619 4.29036
# Velocity P-wave (km/s) = 7.33797 7.86264 7.60483
#
# Compressibility (1/GPa) = 0.01156511
#
# Stress axis : x y z
#
# Youngs Moduli (GPa) = 86.01954 207.52075 60.20304
#
# Poissons Ratio (x) = -0.06735 0.45713
# Poissons Ratio (y) = -0.02792 0.20927
# Poissons Ratio (z) = 0.65316 0.72135
#
# Static dielectric constant tensor:
#      x y z
#    x 2.044900 0.000000 0.000000 
#    y 0.000000 2.120700 0.000000 
#    z 0.000000 0.000000 2.162820 
# 
# From -- ./inp_files/7491.got.cif
#   From: 2010.05.17/outbox.cif.g08.bks.cpg/sg56_4_cif.got.tgz:7491.got - 2010.06.03 13:42:01.
