data_PCOD9433835
_publ_section_title
;
Structure prediction by ZEFSAII (Michael W. Deem and Ramdas Pophale) SiO2 
 PCOD9433835
Probable space group: P C C N
;
_chemical_formula_sum "Si O2"
_cell_formula_units_Z 32
_cell_length_a 6.320382
_cell_length_b 7.396389
_cell_length_c 32.035885
_cell_angle_alpha 90.000000
_cell_angle_beta 90.000000
_cell_angle_gamma 90.000000
_cell_volume 1497.613677
_symmetry_space_group_name_H-M "P C C N"
_symmetry_group_IT_number 56
_symmetry_cell_setting 'orthorhombic'
loop_
_space_group_symop_operation_xyz
x,y,z
1/2-x,1/2-y,z
1/2+x,-y,1/2-z
-x,1/2+y,1/2-z
-x,-y,-z
1/2+x,1/2+y,-z
1/2-x,y,1/2+z
x,1/2-y,1/2+z
loop_
_atom_site_type_symbol
_atom_site_label
_atom_site_fract_x
_atom_site_fract_y
_atom_site_fract_z
Si Si1 0.063917 0.388179 0.695468
Si Si2 0.637950 0.945577 0.621953
Si Si3 0.250000 0.750000 0.734767
Si Si4 0.386621 0.077403 0.959237
Si Si5 0.250000 0.750000 0.094434
O O1 0.250000 0.250000 0.681864
O O2 0.172544 0.578246 0.708197
O O3 0.877663 0.425296 0.661470
O O4 0.946410 0.309519 0.736195
O O5 0.750000 0.750000 0.630509
O O6 0.737027 0.012230 0.577378
O O7 0.391307 0.896333 0.617221
O O8 0.250000 0.250000 0.973397
O O9 0.583385 0.144573 0.932891
O O10 0.500000 0.000000 0.000000
#
# Coordination Sequence:
#
# PCOD9433835 Si02
#       5
#     8   8   4   8   4
#     4  12  26  45  69 100 136 184 234 287 350 409
#     4   9  21  38  67  94 132 178 232 282 338 411
#     4  12  27  44  67 100 136 184 234 286 347 417
#     4   9  19  37  62  94 130 177 222 277 344 407
#     4   8  17  38  59  90 126 180 212 280 339 393
#
# _framework density 21.367328000000001
#
# number of rings (size 3 to 8) (size 9 to 14) (size 15 to 20)
#    0.000    2.500    2.500    0.750    3.500    8.000 
#    0.000    7.500    0.000    0.000    0.000    0.000 
#    0.000    0.000    0.000    0.000    0.000    0.000 
#
# Total GULP energy -178142.354235 kJ/mol
# GULP energy per Si atom -5566.948570 kJ/mol
# Density = 2.131869 g / cm^3
# Si number density = 21.367328 Si / 1000 Ang^3
#
#
#
# Elastic Constant Matrix: (Units=GPa)
#
#
# Indices 1 2 3 4 5 6 
#
# 1 107.4612 38.5388 39.0430 0.0000 0.0000 0.0000
# 2 38.5388 104.7793 57.3458 0.0000 0.0000 0.0000
# 3 39.0430 57.3458 143.0183 0.0000 0.0000 0.0000
# 4 0.0000 0.0000 0.0000 3.0242 0.0000 0.0000
# 5 0.0000 0.0000 0.0000 0.0000 24.8865 0.0000
# 6 0.0000 0.0000 0.0000 0.0000 0.0000 34.0598
#
#
#
# Elastic Compliance Matrix: (Units=1/GPa)
#
#
# Indices 1 2 3 4 5 6 
#
# 1 0.011062 -0.003095 -0.001779 0.000000 0.000000 0.000000
# 2 -0.003095 0.013093 -0.004405 0.000000 0.000000 0.000000
# 3 -0.001779 -0.004405 0.009244 0.000000 0.000000 0.000000
# 4 0.000000 0.000000 0.000000 0.330665 0.000000 0.000000
# 5 0.000000 0.000000 0.000000 0.000000 0.040182 0.000000
# 6 0.000000 0.000000 0.000000 0.000000 0.000000 0.029360
#
#
# Mechanical properties :
#
#
# Convention : Reuss Voigt Hill
#
# Bulk Modulus (GPa) = 67.37983 69.45711 68.41847
# Shear Modulus (GPa) = 10.93825 27.08284 19.01055
#
# Velocity S-wave (km/s) = 2.26501 3.56404 2.98602
# Velocity P-wave (km/s) = 6.20023 7.03657 6.63160
#
# Compressibility (1/GPa) = 0.01484124
#
# Stress axis : x y z
#
# Youngs Moduli (GPa) = 90.39971 76.37578 108.17877
#
# Poissons Ratio (x) = 0.23640 0.19243
# Poissons Ratio (y) = 0.27980 0.47652
# Poissons Ratio (z) = 0.16080 0.33643
#
# Static dielectric constant tensor:
#      x y z
#    x 1.791090 0.000000 0.000000 
#    y 0.000000 1.839740 0.000000 
#    z 0.000000 0.000000 1.900480 
# 
# From -- ./inp_files/22683.got.cif
#   From: 2010.05.17/outbox.cif.g08.bks.cpg/sg56_12_cif.got.tgz:22683.got - 2010.06.03 13:42:01.
