data_PCOD9433248
_publ_section_title
;
Structure prediction by ZEFSAII (Michael W. Deem and Ramdas Pophale) SiO2 
 PCOD9433248
Probable space group: P C C N
;
_chemical_formula_sum "Si O2"
_cell_formula_units_Z 64
_cell_length_a 9.166798
_cell_length_b 28.142182
_cell_length_c 10.651773
_cell_angle_alpha 90.000000
_cell_angle_beta 90.000000
_cell_angle_gamma 90.000000
_cell_volume 2747.877268
_symmetry_space_group_name_H-M "P C C N"
_symmetry_group_IT_number 56
_symmetry_cell_setting 'orthorhombic'
loop_
_space_group_symop_operation_xyz
x,y,z
1/2-x,1/2-y,z
1/2+x,-y,1/2-z
-x,1/2+y,1/2-z
-x,-y,-z
1/2+x,1/2+y,-z
1/2-x,y,1/2+z
x,1/2-y,1/2+z
loop_
_atom_site_type_symbol
_atom_site_label
_atom_site_fract_x
_atom_site_fract_y
_atom_site_fract_z
Si Si1 0.920519 0.583751 0.448883
Si Si2 0.558960 0.654010 0.304479
Si Si3 0.668669 0.705265 0.742317
Si Si4 0.895179 0.619922 0.050401
Si Si5 0.696182 0.195929 0.357345
Si Si6 0.929651 0.950219 0.200770
Si Si7 0.890851 0.972356 0.697678
Si Si8 0.600747 0.174460 0.636256
O O1 0.763267 0.603791 0.494851
O O2 0.002067 0.560055 0.566830
O O3 0.897703 0.545841 0.340579
O O4 0.013004 0.626974 0.395459
O O5 0.702651 0.684775 0.328754
O O6 0.500541 0.639824 0.441121
O O7 0.458688 0.681549 0.205446
O O8 0.603055 0.602857 0.248407
O O9 0.750000 0.750000 0.680165
O O10 0.630978 0.663287 0.645532
O O11 0.523520 0.713067 0.824304
O O12 0.949595 0.571549 0.115478
O O13 0.750000 0.250000 0.340691
O O14 0.683702 0.187579 0.507100
O O15 0.803061 0.167828 0.261647
O O16 0.780286 0.977869 0.171347
O O17 0.020139 0.979235 0.302504
#
# Coordination Sequence:
#
# PCOD9433248 Si02
#       8
#     8   8   8   8   8   8   8   8
#     4  11  20  46  72  99 146 194 239 316 370 436
#     4  12  24  48  74 108 150 194 248 316 372 440
#     4  12  25  46  81 112 139 199 255 312 372 446
#     4  11  21  44  75 107 148 183 248 319 366 433
#     4  12  29  50  72 105 153 202 244 309 378 454
#     4  11  23  43  70 105 145 191 244 304 375 447
#     4  11  23  42  71 104 145 191 244 304 375 445
#     4  12  25  49  76 105 152 198 249 307 382 443
#
# _framework density 23.290704999999999
#
# number of rings (size 3 to 8) (size 9 to 14) (size 15 to 20)
#    0.000    0.500    7.500    1.500    1.750    2.000 
#    6.750    0.000    0.000    0.000    0.000    0.000 
#    0.000    0.000    0.000    0.000    0.000    0.000 
#
# Total GULP energy -357390.998129 kJ/mol
# GULP energy per Si atom -5584.234346 kJ/mol
# Density = 2.323769 g / cm^3
# Si number density = 23.290705 Si / 1000 Ang^3
#
#
#
# Elastic Constant Matrix: (Units=GPa)
#
#
# Indices 1 2 3 4 5 6 
#
# 1 66.8961 6.3862 19.3292 0.0000 0.0000 0.0000
# 2 6.3862 61.2189 10.5065 0.0000 0.0000 0.0000
# 3 19.3292 10.5065 110.1001 0.0000 0.0000 0.0000
# 4 0.0000 0.0000 0.0000 28.0918 0.0000 0.0000
# 5 0.0000 0.0000 0.0000 0.0000 30.2821 0.0000
# 6 0.0000 0.0000 0.0000 0.0000 0.0000 27.2307
#
#
#
# Elastic Compliance Matrix: (Units=1/GPa)
#
#
# Indices 1 2 3 4 5 6 
#
# 1 0.015833 -0.001194 -0.002666 0.000000 0.000000 0.000000
# 2 -0.001194 0.016697 -0.001384 0.000000 0.000000 0.000000
# 3 -0.002666 -0.001384 0.009683 0.000000 0.000000 0.000000
# 4 0.000000 0.000000 0.000000 0.035598 0.000000 0.000000
# 5 0.000000 0.000000 0.000000 0.000000 0.033023 0.000000
# 6 0.000000 0.000000 0.000000 0.000000 0.000000 0.036723
#
#
# Mechanical properties :
#
#
# Convention : Reuss Voigt Hill
#
# Bulk Modulus (GPa) = 31.52053 34.51764 33.01908
# Shear Modulus (GPa) = 29.65283 30.58714 30.11999
#
# Velocity S-wave (km/s) = 3.57201 3.62785 3.60004
# Velocity P-wave (km/s) = 5.52949 5.69218 5.61142
#
# Compressibility (1/GPa) = 0.03172536
#
# Stress axis : x y z
#
# Youngs Moduli (GPa) = 63.16016 59.89148 103.27737
#
# Poissons Ratio (x) = 0.07152 0.27530
# Poissons Ratio (y) = 0.07542 0.14290
# Poissons Ratio (z) = 0.16836 0.08287
#
# Static dielectric constant tensor:
#      x y z
#    x 1.937100 0.000000 0.000000 
#    y 0.000000 1.887320 0.000000 
#    z 0.000000 0.000000 1.958040 
# 
# From -- ./inp_files/6632.got.cif
#   From: 2010.05.17/outbox.cif.g08.bks.cpg/sg56_4_cif.got.tgz:6632.got - 2010.06.03 13:42:01.
