data_PCOD9433852
_publ_section_title
;
Structure prediction by ZEFSAII (Michael W. Deem and Ramdas Pophale) SiO2 
 PCOD9433852
Probable space group: P C C N
;
_chemical_formula_sum "Si O2"
_cell_formula_units_Z 32
_cell_length_a 12.124040
_cell_length_b 11.236290
_cell_length_c 9.179747
_cell_angle_alpha 90.000000
_cell_angle_beta 90.000000
_cell_angle_gamma 90.000000
_cell_volume 1250.549860
_symmetry_space_group_name_H-M "P C C N"
_symmetry_group_IT_number 56
_symmetry_cell_setting 'orthorhombic'
loop_
_space_group_symop_operation_xyz
x,y,z
1/2-x,1/2-y,z
1/2+x,-y,1/2-z
-x,1/2+y,1/2-z
-x,-y,-z
1/2+x,1/2+y,-z
1/2-x,y,1/2+z
x,1/2-y,1/2+z
loop_
_atom_site_type_symbol
_atom_site_label
_atom_site_fract_x
_atom_site_fract_y
_atom_site_fract_z
Si Si1 0.813914 0.972572 0.852653
Si Si2 0.691606 0.129472 0.621345
Si Si3 0.019304 0.218176 0.283506
Si Si4 0.571389 0.606546 0.433983
O O1 0.778236 0.052166 0.714139
O O2 0.891073 0.868051 0.793688
O O3 0.699557 0.919570 0.916808
O O4 0.854773 0.055612 0.984854
O O5 0.750000 0.250000 0.566412
O O6 0.598067 0.166581 0.736392
O O7 0.030712 0.350412 0.222375
O O8 0.044529 0.211649 0.453251
O O9 0.500000 0.500000 0.500000
#
# Coordination Sequence:
#
# PCOD9433852 Si02
#       4
#     8   8   8   8
#     4  12  26  49  73 108 158 199 259 313 381 462
#     4  12  27  46  76 113 155 201 256 318 383 455
#     4  12  29  46  81 107 153 204 253 315 392 448
#     4  12  27  50  74 114 153 197 256 319 381 459
#
# _framework density 25.588744999999999
#
# number of rings (size 3 to 8) (size 9 to 14) (size 15 to 20)
#    0.000    0.000    5.000    3.750    7.000    2.000 
#    0.000    0.000    0.000    0.000    0.000    0.000 
#    0.000    0.000    0.000    0.000    0.000    0.000 
#
# Total GULP energy -179683.488855 kJ/mol
# GULP energy per Si atom -5615.109027 kJ/mol
# Density = 2.553050 g / cm^3
# Si number density = 25.588745 Si / 1000 Ang^3
#
#
#
# Elastic Constant Matrix: (Units=GPa)
#
#
# Indices 1 2 3 4 5 6 
#
# 1 102.5594 6.8335 -21.7827 0.0000 0.0000 0.0000
# 2 6.8335 62.8585 7.0378 0.0000 0.0000 0.0000
# 3 -21.7827 7.0378 96.1006 0.0000 0.0000 0.0000
# 4 0.0000 0.0000 0.0000 49.4188 0.0000 0.0000
# 5 0.0000 0.0000 0.0000 0.0000 39.5798 0.0000
# 6 0.0000 0.0000 0.0000 0.0000 0.0000 39.3716
#
#
#
# Elastic Compliance Matrix: (Units=1/GPa)
#
#
# Indices 1 2 3 4 5 6 
#
# 1 0.010365 -0.001401 0.002452 0.000000 0.000000 0.000000
# 2 -0.001401 0.016230 -0.001506 0.000000 0.000000 0.000000
# 3 0.002452 -0.001506 0.011072 0.000000 0.000000 0.000000
# 4 0.000000 0.000000 0.000000 0.020235 0.000000 0.000000
# 5 0.000000 0.000000 0.000000 0.000000 0.025265 0.000000
# 6 0.000000 0.000000 0.000000 0.000000 0.000000 0.025399
#
#
# Mechanical properties :
#
#
# Convention : Reuss Voigt Hill
#
# Bulk Modulus (GPa) = 27.20716 27.29952 27.25334
# Shear Modulus (GPa) = 41.07498 43.63602 42.35550
#
# Velocity S-wave (km/s) = 4.01084 4.13399 4.07288
# Velocity P-wave (km/s) = 5.66610 5.78603 5.72638
#
# Compressibility (1/GPa) = 0.03675503
#
# Stress axis : x y z
#
# Youngs Moduli (GPa) = 96.48246 61.61532 90.31932
#
# Poissons Ratio (x) = 0.08634 -0.22146
# Poissons Ratio (y) = 0.13520 0.13604
# Poissons Ratio (z) = -0.23657 0.09280
#
# Static dielectric constant tensor:
#      x y z
#    x 1.986770 0.000000 0.000000 
#    y 0.000000 2.078040 0.000000 
#    z 0.000000 0.000000 1.955390 
# 
# From -- ./inp_files/6058.got.cif
#   From: 2010.05.17/outbox.cif.g08.bks.cpg/sg56_4_cif.got.tgz:6058.got - 2010.06.03 13:42:01.
