data_PCOD9433495
_publ_section_title
;
Structure prediction by ZEFSAII (Michael W. Deem and Ramdas Pophale) SiO2 
 PCOD9433495
Probable space group: P C C N
;
_chemical_formula_sum "Si O2"
_cell_formula_units_Z 40
_cell_length_a 12.849378
_cell_length_b 7.968875
_cell_length_c 18.484823
_cell_angle_alpha 90.000000
_cell_angle_beta 90.000000
_cell_angle_gamma 90.000000
_cell_volume 1892.755061
_symmetry_space_group_name_H-M "P C C N"
_symmetry_group_IT_number 56
_symmetry_cell_setting 'orthorhombic'
loop_
_space_group_symop_operation_xyz
x,y,z
1/2-x,1/2-y,z
1/2+x,-y,1/2-z
-x,1/2+y,1/2-z
-x,-y,-z
1/2+x,1/2+y,-z
1/2-x,y,1/2+z
x,1/2-y,1/2+z
loop_
_atom_site_type_symbol
_atom_site_label
_atom_site_fract_x
_atom_site_fract_y
_atom_site_fract_z
Si Si1 0.864936 0.312419 0.645335
Si Si2 0.866500 0.717644 0.824605
Si Si3 0.033886 0.321526 0.032294
Si Si4 0.013372 0.611085 0.232285
Si Si5 0.127455 0.201458 0.887043
O O1 0.750000 0.250000 0.632332
O O2 0.871534 0.511842 0.639722
O O3 0.939130 0.238790 0.583094
O O4 0.899514 0.272146 0.728132
O O5 0.750000 0.750000 0.799342
O O6 0.872396 0.681256 0.909780
O O7 0.930717 0.882015 0.798865
O O8 0.926124 0.555850 0.791407
O O9 0.071170 0.212804 0.964572
O O10 0.000000 0.500000 0.000000
O O11 0.943772 0.684763 0.166790
O O12 0.250000 0.250000 0.890998
#
# Coordination Sequence:
#
# PCOD9433495 Si02
#       5
#     8   8   8   8   8
#     4  11  26  43  69 103 138 183 234 284 354 418
#     4  11  24  43  69 103 140 186 236 291 354 420
#     4  11  23  44  71  98 141 179 232 288 345 420
#     4  11  24  42  69 101 139 182 235 292 346 418
#     4  12  24  43  72  98 140 185 227 290 357 413
#
# _framework density 21.133215
#
# number of rings (size 3 to 8) (size 9 to 14) (size 15 to 20)
#    0.000    0.800    4.000    3.000    2.800    0.000 
#    0.000    1.000    0.000    0.000    0.000    0.000 
#    0.000    0.000    0.000    0.000    0.000    0.000 
#
# Total GULP energy -222986.082265 kJ/mol
# GULP energy per Si atom -5574.652057 kJ/mol
# Density = 2.108511 g / cm^3
# Si number density = 21.133215 Si / 1000 Ang^3
#
#
#
# Elastic Constant Matrix: (Units=GPa)
#
#
# Indices 1 2 3 4 5 6 
#
# 1 170.4271 61.7668 43.1996 0.0000 0.0000 0.0000
# 2 61.7668 90.7527 31.7435 0.0000 0.0000 0.0000
# 3 43.1996 31.7435 144.4761 0.0000 0.0000 0.0000
# 4 0.0000 0.0000 0.0000 35.4050 0.0000 0.0000
# 5 0.0000 0.0000 0.0000 0.0000 27.8858 0.0000
# 6 0.0000 0.0000 0.0000 0.0000 0.0000 38.6898
#
#
#
# Elastic Compliance Matrix: (Units=1/GPa)
#
#
# Indices 1 2 3 4 5 6 
#
# 1 0.008007 -0.004996 -0.001296 0.000000 0.000000 0.000000
# 2 -0.004996 0.015054 -0.001814 0.000000 0.000000 0.000000
# 3 -0.001296 -0.001814 0.007708 0.000000 0.000000 0.000000
# 4 0.000000 0.000000 0.000000 0.028245 0.000000 0.000000
# 5 0.000000 0.000000 0.000000 0.000000 0.035860 0.000000
# 6 0.000000 0.000000 0.000000 0.000000 0.000000 0.025847
#
#
# Mechanical properties :
#
#
# Convention : Reuss Voigt Hill
#
# Bulk Modulus (GPa) = 68.70025 75.45288 72.07656
# Shear Modulus (GPa) = 35.26482 38.32586 36.79534
#
# Velocity S-wave (km/s) = 4.08939 4.26318 4.17719
# Velocity P-wave (km/s) = 7.40785 7.74687 7.57926
#
# Compressibility (1/GPa) = 0.01455599
#
# Stress axis : x y z
#
# Youngs Moduli (GPa) = 124.89181 66.42877 129.74063
#
# Poissons Ratio (x) = 0.33188 0.16820
# Poissons Ratio (y) = 0.62397 0.23530
# Poissons Ratio (z) = 0.16191 0.12048
#
# Static dielectric constant tensor:
#      x y z
#    x 1.833360 0.000000 0.000000 
#    y 0.000000 1.806000 0.000000 
#    z 0.000000 0.000000 1.813340 
# 
# From -- ./inp_files/15382.got.cif
#   From: 2010.05.17/outbox.cif.g08.bks.cpg/sg56_8_cif.got.tgz:15382.got - 2010.06.03 13:42:01.
