data_PCOD9433291
_publ_section_title
;
Structure prediction by ZEFSAII (Michael W. Deem and Ramdas Pophale) SiO2 
 PCOD9433291
Probable space group: P C C N
;
_chemical_formula_sum "Si O2"
_cell_formula_units_Z 56
_cell_length_a 15.210263
_cell_length_b 16.235444
_cell_length_c 11.401031
_cell_angle_alpha 90.000000
_cell_angle_beta 90.000000
_cell_angle_gamma 90.000000
_cell_volume 2815.431855
_symmetry_space_group_name_H-M "P C C N"
_symmetry_group_IT_number 56
_symmetry_cell_setting 'orthorhombic'
loop_
_space_group_symop_operation_xyz
x,y,z
1/2-x,1/2-y,z
1/2+x,-y,1/2-z
-x,1/2+y,1/2-z
-x,-y,-z
1/2+x,1/2+y,-z
1/2-x,y,1/2+z
x,1/2-y,1/2+z
loop_
_atom_site_type_symbol
_atom_site_label
_atom_site_fract_x
_atom_site_fract_y
_atom_site_fract_z
Si Si1 0.837532 0.641403 0.394805
Si Si2 0.923829 0.612536 0.149993
Si Si3 0.348388 0.712952 0.334831
Si Si4 0.519331 0.432886 0.667477
Si Si5 0.936040 0.253261 0.413428
Si Si6 0.647422 0.663327 0.431221
Si Si7 0.960626 0.574329 0.574085
O O1 0.895798 0.613401 0.285143
O O2 0.734569 0.629548 0.369260
O O3 0.854039 0.739009 0.411857
O O4 0.868452 0.595747 0.512713
O O5 0.957416 0.522002 0.117394
O O6 0.995923 0.681323 0.120116
O O7 0.843334 0.640765 0.068035
O O8 0.250000 0.750000 0.344560
O O9 0.389187 0.619174 0.326559
O O10 0.378113 0.743873 0.205225
O O11 0.390407 0.738912 0.460791
O O12 0.444257 0.377134 0.607167
O O13 0.471893 0.450173 0.791657
O O14 0.985424 0.340120 0.429883
O O15 0.000000 0.500000 0.500000
#
# Coordination Sequence:
#
# PCOD9433291 Si02
#       7
#     8   8   8   8   8   8   8
#     4  11  24  42  66 102 125 176 221 286 336 401
#     4  12  23  44  67  94 138 172 224 268 340 415
#     4  11  24  45  67  98 132 175 233 277 329 408
#     4  11  24  43  67  98 133 178 217 278 344 407
#     4  11  23  43  72  94 132 185 221 271 352 398
#     4  11  25  41  69  94 134 168 223 277 342 400
#     4  11  21  42  67  95 132 171 223 271 334 406
#
# _framework density 19.890377000000001
#
# number of rings (size 3 to 8) (size 9 to 14) (size 15 to 20)
#    0.000    0.857    4.286    3.429    2.000    1.143 
#    5.143    0.000    0.000    0.000    0.000    0.000 
#    0.000    0.000    0.000    0.000    0.000    0.000 
#
# Total GULP energy -311817.905998 kJ/mol
# GULP energy per Si atom -5568.176893 kJ/mol
# Density = 1.984511 g / cm^3
# Si number density = 19.890377 Si / 1000 Ang^3
#
#
#
# Elastic Constant Matrix: (Units=GPa)
#
#
# Indices 1 2 3 4 5 6 
#
# 1 107.7975 45.4044 17.3730 0.0000 0.0000 0.0000
# 2 45.4044 96.5977 -1.6124 0.0000 0.0000 0.0000
# 3 17.3730 -1.6124 92.1058 0.0000 0.0000 0.0000
# 4 0.0000 0.0000 0.0000 31.9783 0.0000 0.0000
# 5 0.0000 0.0000 0.0000 0.0000 33.4195 0.0000
# 6 0.0000 0.0000 0.0000 0.0000 0.0000 11.9392
#
#
#
# Elastic Compliance Matrix: (Units=1/GPa)
#
#
# Indices 1 2 3 4 5 6 
#
# 1 0.012065 -0.005711 -0.002376 0.000000 0.000000 0.000000
# 2 -0.005711 0.013058 0.001306 0.000000 0.000000 0.000000
# 3 -0.002376 0.001306 0.011328 0.000000 0.000000 0.000000
# 4 0.000000 0.000000 0.000000 0.031271 0.000000 0.000000
# 5 0.000000 0.000000 0.000000 0.000000 0.029923 0.000000
# 6 0.000000 0.000000 0.000000 0.000000 0.000000 0.083758
#
#
# Mechanical properties :
#
#
# Convention : Reuss Voigt Hill
#
# Bulk Modulus (GPa) = 43.68705 46.53679 45.11192
# Shear Modulus (GPa) = 24.67995 31.15646 27.91821
#
# Velocity S-wave (km/s) = 3.52632 3.96208 3.75053
# Velocity P-wave (km/s) = 6.21221 6.66170 6.44087
#
# Compressibility (1/GPa) = 0.02289008
#
# Stress axis : x y z
#
# Youngs Moduli (GPa) = 82.88569 76.58042 88.27663
#
# Poissons Ratio (x) = 0.43732 0.20971
# Poissons Ratio (y) = 0.47332 -0.11526
# Poissons Ratio (z) = 0.19691 -0.09999
#
# Static dielectric constant tensor:
#      x y z
#    x 1.701690 0.000000 0.000000 
#    y 0.000000 1.709930 0.000000 
#    z 0.000000 0.000000 1.800650 
# 
# From -- ./inp_files/7884.got.cif
#   From: 2010.05.17/outbox.cif.g08.bks.cpg/sg56_4_cif.got.tgz:7884.got - 2010.06.03 13:42:01.
