data_PCOD9433721
_publ_section_title
;
Structure prediction by ZEFSAII (Michael W. Deem and Ramdas Pophale) SiO2 
 PCOD9433721
Probable space group: P C C N
;
_chemical_formula_sum "Si O2"
_cell_formula_units_Z 40
_cell_length_a 6.918672
_cell_length_b 15.245744
_cell_length_c 13.977848
_cell_angle_alpha 90.000000
_cell_angle_beta 90.000000
_cell_angle_gamma 90.000000
_cell_volume 1474.387630
_symmetry_space_group_name_H-M "P C C N"
_symmetry_group_IT_number 56
_symmetry_cell_setting 'orthorhombic'
loop_
_space_group_symop_operation_xyz
x,y,z
1/2-x,1/2-y,z
1/2+x,-y,1/2-z
-x,1/2+y,1/2-z
-x,-y,-z
1/2+x,1/2+y,-z
1/2-x,y,1/2+z
x,1/2-y,1/2+z
loop_
_atom_site_type_symbol
_atom_site_label
_atom_site_fract_x
_atom_site_fract_y
_atom_site_fract_z
Si Si1 0.386485 0.166952 0.463380
Si Si2 0.716396 0.648583 0.350756
Si Si3 0.043837 0.897298 0.701634
Si Si4 0.172331 0.947320 0.368544
Si Si5 0.250000 0.750000 0.578091
Si Si6 0.000000 0.500000 0.500000
O O1 0.250000 0.250000 0.429783
O O2 0.314774 0.105829 0.554260
O O3 0.576661 0.219914 0.487843
O O4 0.461486 0.080088 0.408802
O O5 0.750000 0.750000 0.373140
O O6 0.493020 0.626128 0.351700
O O7 0.852889 0.630173 0.261549
O O8 0.191694 0.941028 0.775378
O O9 0.149627 0.819166 0.648751
O O10 0.960784 0.966392 0.626975
O O11 0.311184 0.946026 0.459187
#
# Coordination Sequence:
#
# PCOD9433721 Si02
#       6
#     8   8   8   8   4   4
#     4  11  28  49  74 121 158 210 269 328 414 488
#     4  11  26  48  80 110 159 206 267 331 404 486
#     4  12  26  51  80 115 154 210 265 338 405 484
#     4  12  27  48  81 119 158 206 271 332 412 494
#     4  12  30  46  80 110 170 208 270 344 400 498
#     4  12  28  48  84 112 168 208 262 342 414 490
#
# _framework density 27.129905999999998
#
# number of rings (size 3 to 8) (size 9 to 14) (size 15 to 20)
#    0.000    0.400    4.000    2.400   11.200    5.600 
#    0.000    0.000    0.000    0.000    0.000    0.000 
#    0.000    0.000    0.000    0.000    0.000    0.000 
#
# Total GULP energy -222682.297501 kJ/mol
# GULP energy per Si atom -5567.057438 kJ/mol
# Density = 2.706816 g / cm^3
# Si number density = 27.129906 Si / 1000 Ang^3
#
#
#
# Elastic Constant Matrix: (Units=GPa)
#
#
# Indices 1 2 3 4 5 6 
#
# 1 237.4706 62.8527 56.6782 0.0000 0.0000 0.0000
# 2 62.8527 125.8717 35.9659 0.0000 0.0000 0.0000
# 3 56.6782 35.9659 81.4038 0.0000 0.0000 0.0000
# 4 0.0000 0.0000 0.0000 20.2463 0.0000 0.0000
# 5 0.0000 0.0000 0.0000 0.0000 58.6833 0.0000
# 6 0.0000 0.0000 0.0000 0.0000 0.0000 39.1662
#
#
#
# Elastic Compliance Matrix: (Units=1/GPa)
#
#
# Indices 1 2 3 4 5 6 
#
# 1 0.005405 -0.001858 -0.002942 0.000000 0.000000 0.000000
# 2 -0.001858 0.009731 -0.003006 0.000000 0.000000 0.000000
# 3 -0.002942 -0.003006 0.015661 0.000000 0.000000 0.000000
# 4 0.000000 0.000000 0.000000 0.049392 0.000000 0.000000
# 5 0.000000 0.000000 0.000000 0.000000 0.017041 0.000000
# 6 0.000000 0.000000 0.000000 0.000000 0.000000 0.025532
#
#
# Mechanical properties :
#
#
# Convention : Reuss Voigt Hill
#
# Bulk Modulus (GPa) = 65.85477 83.97107 74.91292
# Shear Modulus (GPa) = 34.85864 42.90244 38.88054
#
# Velocity S-wave (km/s) = 3.58841 3.98096 3.78977
# Velocity P-wave (km/s) = 6.44170 7.22145 6.84269
#
# Compressibility (1/GPa) = 0.01518493
#
# Stress axis : x y z
#
# Youngs Moduli (GPa) = 185.00857 102.76092 63.85261
#
# Poissons Ratio (x) = 0.19096 0.18788
# Poissons Ratio (y) = 0.34380 0.19192
# Poissons Ratio (z) = 0.54436 0.30887
#
# Static dielectric constant tensor:
#      x y z
#    x 1.756470 0.000000 0.000000 
#    y 0.000000 2.220810 0.000000 
#    z 0.000000 0.000000 1.693140 
# 
# From -- ./inp_files/13852.got.cif
#   From: 2010.05.17/outbox.cif.g08.bks.cpg/sg56_7_cif.got.tgz:13852.got - 2010.06.03 13:42:01.
