data_PCOD9433758
_publ_section_title
;
Structure prediction by ZEFSAII (Michael W. Deem and Ramdas Pophale) SiO2 
 PCOD9433758
Probable space group: P C C N
;
_chemical_formula_sum "Si O2"
_cell_formula_units_Z 40
_cell_length_a 5.176915
_cell_length_b 10.477585
_cell_length_c 31.106641
_cell_angle_alpha 90.000000
_cell_angle_beta 90.000000
_cell_angle_gamma 90.000000
_cell_volume 1687.272950
_symmetry_space_group_name_H-M "P C C N"
_symmetry_group_IT_number 56
_symmetry_cell_setting 'orthorhombic'
loop_
_space_group_symop_operation_xyz
x,y,z
1/2-x,1/2-y,z
1/2+x,-y,1/2-z
-x,1/2+y,1/2-z
-x,-y,-z
1/2+x,1/2+y,-z
1/2-x,y,1/2+z
x,1/2-y,1/2+z
loop_
_atom_site_type_symbol
_atom_site_label
_atom_site_fract_x
_atom_site_fract_y
_atom_site_fract_z
Si Si1 0.750000 0.750000 0.850272
Si Si2 0.750000 0.750000 0.509085
Si Si3 0.808391 0.054921 0.268647
Si Si4 0.250000 0.750000 0.793206
Si Si5 0.680133 0.540628 0.581295
Si Si6 0.822278 0.033363 0.868445
Si Si7 0.750000 0.250000 0.050019
O O1 0.484562 0.785609 0.825397
O O2 0.821325 0.879896 0.873643
O O3 0.721605 0.624044 0.538712
O O4 0.500834 0.767973 0.479529
O O5 0.919796 0.172535 0.241883
O O6 0.542163 0.040046 0.241817
O O7 0.739217 0.063115 0.318487
O O8 0.406035 0.579381 0.601247
O O9 0.699110 0.387016 0.573559
O O10 0.900499 0.577986 0.615724
#
# Coordination Sequence:
#
# PCOD9433758 Si02
#       7
#     4   4   8   4   8   8   4
#     4  12  22  39  67  90 124 174 232 292 338 373
#     4  12  26  47  75 102 142 180 218 270 340 443
#     4  12  23  41  61  92 127 181 230 276 335 393
#     4  12  22  39  63  90 120 174 240 288 324 389
#     4  12  26  44  71 106 141 177 223 279 354 404
#     4  12  24  42  66  98 141 174 226 292 342 396
#     4  12  24  49  75 106 132 178 228 276 332 419
#
# _framework density 23.706893999999998
#
# number of rings (size 3 to 8) (size 9 to 14) (size 15 to 20)
#    0.000    0.000    4.000    7.200    0.000    1.600 
#    0.000    0.000    0.000    0.000    0.000    0.000 
#    0.000    0.000    0.000    0.000    0.000    0.000 
#
# Total GULP energy -223245.899107 kJ/mol
# GULP energy per Si atom -5581.147478 kJ/mol
# Density = 2.365294 g / cm^3
# Si number density = 23.706894 Si / 1000 Ang^3
#
#
#
# Elastic Constant Matrix: (Units=GPa)
#
#
# Indices 1 2 3 4 5 6 
#
# 1 114.4340 2.5337 32.6499 0.0000 0.0000 0.0000
# 2 2.5337 48.2408 -0.7313 0.0000 0.0000 0.0000
# 3 32.6499 -0.7313 89.3531 0.0000 0.0000 0.0000
# 4 0.0000 0.0000 0.0000 -4.2530 0.0000 0.0000
# 5 0.0000 0.0000 0.0000 0.0000 0.6802 0.0000
# 6 0.0000 0.0000 0.0000 0.0000 0.0000 -3.1819
#
#
#
# Elastic Compliance Matrix: (Units=1/GPa)
#
#
# Indices 1 2 3 4 5 6 
#
# 1 0.009771 -0.000567 -0.003575 0.000000 0.000000 0.000000
# 2 -0.000567 0.020765 0.000377 0.000000 0.000000 0.000000
# 3 -0.003575 0.000377 0.012501 0.000000 0.000000 0.000000
# 4 0.000000 0.000000 0.000000 -0.235128 0.000000 0.000000
# 5 0.000000 0.000000 0.000000 0.000000 1.470174 0.000000
# 6 0.000000 0.000000 0.000000 0.000000 0.000000 -0.314276
#
#
# Mechanical properties :
#
#
# Convention : Reuss Voigt Hill
#
# Bulk Modulus (GPa) = 28.16373 35.65919 31.91146
# Shear Modulus (GPa) = 5.08557 13.15409 9.11983
#
# Velocity S-wave (km/s) = 1.46623 2.35811 1.96348
# Velocity P-wave (km/s) = 3.84346 4.74221 4.31630
#
# Compressibility (1/GPa) = 0.03550666
#
# Stress axis : x y z
#
# Youngs Moduli (GPa) = 102.34099 48.15827 79.99365
#
# Poissons Ratio (x) = 0.02733 0.28598
# Poissons Ratio (y) = 0.05807 -0.03018
# Poissons Ratio (z) = 0.36588 -0.01817
#
# Static dielectric constant tensor:
#      x y z
#    x 1.424610 0.000000 0.000000 
#    y 0.000000 9.037690 0.000000 
#    z 0.000000 0.000000 1.848040 
# 
# From -- ./inp_files/21587.got.cif
#   From: 2010.05.17/outbox.cif.g08.bks.cpg/sg56_11_cif.got.tgz:21587.got - 2010.06.03 13:42:01.
