data_PCOD9433259
_publ_section_title
;
Structure prediction by ZEFSAII (Michael W. Deem and Ramdas Pophale) SiO2 
 PCOD9433259
Probable space group: P C C N
;
_chemical_formula_sum "Si O2"
_cell_formula_units_Z 48
_cell_length_a 8.815908
_cell_length_b 30.348865
_cell_length_c 9.196019
_cell_angle_alpha 90.000000
_cell_angle_beta 90.000000
_cell_angle_gamma 90.000000
_cell_volume 2460.420648
_symmetry_space_group_name_H-M "P C C N"
_symmetry_group_IT_number 56
_symmetry_cell_setting 'orthorhombic'
loop_
_space_group_symop_operation_xyz
x,y,z
1/2-x,1/2-y,z
1/2+x,-y,1/2-z
-x,1/2+y,1/2-z
-x,-y,-z
1/2+x,1/2+y,-z
1/2-x,y,1/2+z
x,1/2-y,1/2+z
loop_
_atom_site_type_symbol
_atom_site_label
_atom_site_fract_x
_atom_site_fract_y
_atom_site_fract_z
Si Si1 0.402560 0.776728 0.149365
Si Si2 0.905570 0.772220 0.373284
Si Si3 0.305167 0.035453 0.091208
Si Si4 0.536824 0.966450 0.214387
Si Si5 0.707189 0.635928 0.423878
Si Si6 0.971142 0.865853 0.723462
O O1 0.250000 0.750000 0.177334
O O2 0.541627 0.755226 0.236363
O O3 0.405319 0.828099 0.195168
O O4 0.454521 0.771513 0.983992
O O5 0.750000 0.750000 0.430533
O O6 0.872940 0.823377 0.345111
O O7 0.133163 0.026915 0.139631
O O8 0.337145 0.086850 0.126728
O O9 0.411194 0.002410 0.180293
O O10 0.345271 0.030407 0.921564
O O11 0.474648 0.916330 0.214220
O O12 0.653742 0.639479 0.592131
O O13 0.882941 0.640303 0.376284
#
# Coordination Sequence:
#
# PCOD9433259 Si02
#       6
#     8   8   8   8   8   8
#     4  11  23  37  53  80 115 142 175 228 282 319
#     4  11  21  36  59  79 104 144 190 221 262 326
#     4   9  18  34  54  77 108 138 175 220 267 312
#     4   9  18  34  56  78 107 140 175 220 266 316
#     4   9  18  32  55  80 100 135 188 226 254 309
#     4   9  18  34  55  77 106 140 180 223 265 318
#
# _framework density 19.508859999999999
#
# number of rings (size 3 to 8) (size 9 to 14) (size 15 to 20)
#    0.000    2.333    1.667    1.000    2.333    0.667 
#    3.000    0.000    3.667    0.000    0.000    0.000 
#    0.000    0.000    0.000    0.000    0.000    0.000 
#
# Total GULP energy -267428.293799 kJ/mol
# GULP energy per Si atom -5571.422787 kJ/mol
# Density = 1.946446 g / cm^3
# Si number density = 19.508860 Si / 1000 Ang^3
#
#
#
# Elastic Constant Matrix: (Units=GPa)
#
#
# Indices 1 2 3 4 5 6 
#
# 1 61.8511 41.8347 10.9228 0.0000 0.0000 0.0000
# 2 41.8347 92.6135 26.0137 0.0000 0.0000 0.0000
# 3 10.9228 26.0137 14.0986 0.0000 0.0000 0.0000
# 4 0.0000 0.0000 0.0000 19.1766 0.0000 0.0000
# 5 0.0000 0.0000 0.0000 0.0000 24.7336 0.0000
# 6 0.0000 0.0000 0.0000 0.0000 0.0000 32.5188
#
#
#
# Elastic Compliance Matrix: (Units=1/GPa)
#
#
# Indices 1 2 3 4 5 6 
#
# 1 0.023336 -0.011340 0.002845 0.000000 0.000000 0.000000
# 2 -0.011340 0.027925 -0.042739 0.000000 0.000000 0.000000
# 3 0.002845 -0.042739 0.147585 0.000000 0.000000 0.000000
# 4 0.000000 0.000000 0.000000 0.052147 0.000000 0.000000
# 5 0.000000 0.000000 0.000000 0.000000 0.040431 0.000000
# 6 0.000000 0.000000 0.000000 0.000000 0.000000 0.030751
#
#
# Mechanical properties :
#
#
# Convention : Reuss Voigt Hill
#
# Bulk Modulus (GPa) = 10.37606 36.23396 23.30501
# Shear Modulus (GPa) = 10.94646 21.27194 16.10920
#
# Velocity S-wave (km/s) = 2.37133 3.30566 2.87668
# Velocity P-wave (km/s) = 3.58159 5.76049 4.79641
#
# Compressibility (1/GPa) = 0.09637571
#
# Stress axis : x y z
#
# Youngs Moduli (GPa) = 42.85294 35.81050 6.77578
#
# Poissons Ratio (x) = 0.40609 -0.01927
# Poissons Ratio (y) = 0.48595 0.28959
# Poissons Ratio (z) = -0.12190 1.53051
#
# Static dielectric constant tensor:
#      x y z
#    x 1.657170 0.000000 0.000000 
#    y 0.000000 1.695720 0.000000 
#    z 0.000000 0.000000 1.689420 
# 
# From -- ./inp_files/2213.got.cif
#   From: 2010.05.17/outbox.cif.g08.bks.cpg/sg56_2_cif.got.tgz:2213.got - 2010.06.03 13:42:01.
