data_PCOD9433073
_publ_section_title
;
Structure prediction by ZEFSAII (Michael W. Deem and Ramdas Pophale) SiO2 
 PCOD9433073
Probable space group: P C C N
;
_chemical_formula_sum "Si O2"
_cell_formula_units_Z 48
_cell_length_a 8.766948
_cell_length_b 17.930079
_cell_length_c 14.406378
_cell_angle_alpha 90.000000
_cell_angle_beta 90.000000
_cell_angle_gamma 90.000000
_cell_volume 2264.568382
_symmetry_space_group_name_H-M "P C C N"
_symmetry_group_IT_number 56
_symmetry_cell_setting 'orthorhombic'
loop_
_space_group_symop_operation_xyz
x,y,z
1/2-x,1/2-y,z
1/2+x,-y,1/2-z
-x,1/2+y,1/2-z
-x,-y,-z
1/2+x,1/2+y,-z
1/2-x,y,1/2+z
x,1/2-y,1/2+z
loop_
_atom_site_type_symbol
_atom_site_label
_atom_site_fract_x
_atom_site_fract_y
_atom_site_fract_z
Si Si1 0.435925 0.562109 0.930077
Si Si2 0.436025 0.252716 0.348171
Si Si3 0.903666 0.484455 0.092557
Si Si4 0.068774 0.737056 0.452993
Si Si5 0.928698 0.851783 0.308799
Si Si6 0.095629 0.101651 0.248424
O O1 0.256164 0.551190 0.934059
O O2 0.469655 0.648992 0.950593
O O3 0.499094 0.554106 0.825141
O O4 0.500000 0.500000 0.000000
O O5 0.250000 0.250000 0.359438
O O6 0.519853 0.262214 0.444644
O O7 0.477644 0.177938 0.292353
O O8 0.481041 0.321977 0.282649
O O9 0.874846 0.556056 0.157273
O O10 0.988999 0.424780 0.155841
O O11 0.000000 0.500000 0.000000
O O12 0.250000 0.750000 0.436428
O O13 0.970720 0.786059 0.380844
O O14 0.751188 0.872223 0.300776
#
# Coordination Sequence:
#
# PCOD9433073 Si02
#       6
#     8   8   8   8   8   8
#     4  12  28  44  70 108 141 191 246 302 371 440
#     4  10  25  42  73 102 136 185 237 295 364 436
#     4  12  26  47  73 104 149 188 239 305 371 440
#     4  12  26  46  72 103 146 189 244 305 369 436
#     4  11  24  49  70 106 142 190 241 302 362 444
#     4  11  25  46  73 105 142 189 239 296 370 439
#
# _framework density 21.196093000000001
#
# number of rings (size 3 to 8) (size 9 to 14) (size 15 to 20)
#    0.000    0.667    3.333    3.000    9.333    2.000 
#    0.000    0.000    0.000    0.000    0.000    0.000 
#    0.000    0.000    0.000    0.000    0.000    0.000 
#
# Total GULP energy -268370.817410 kJ/mol
# GULP energy per Si atom -5591.058696 kJ/mol
# Density = 2.114785 g / cm^3
# Si number density = 21.196093 Si / 1000 Ang^3
#
#
#
# Elastic Constant Matrix: (Units=GPa)
#
#
# Indices 1 2 3 4 5 6 
#
# 1 88.8495 26.7273 53.9644 0.0000 0.0000 0.0000
# 2 26.7273 105.9080 32.7480 0.0000 0.0000 0.0000
# 3 53.9644 32.7480 114.5714 0.0000 0.0000 0.0000
# 4 0.0000 0.0000 0.0000 45.4394 0.0000 0.0000
# 5 0.0000 0.0000 0.0000 0.0000 30.5125 0.0000
# 6 0.0000 0.0000 0.0000 0.0000 0.0000 36.1084
#
#
#
# Elastic Compliance Matrix: (Units=1/GPa)
#
#
# Indices 1 2 3 4 5 6 
#
# 1 0.016101 -0.001885 -0.007045 0.000000 0.000000 0.000000
# 2 -0.001885 0.010578 -0.002136 0.000000 0.000000 0.000000
# 3 -0.007045 -0.002136 0.012657 0.000000 0.000000 0.000000
# 4 0.000000 0.000000 0.000000 0.022007 0.000000 0.000000
# 5 0.000000 0.000000 0.000000 0.000000 0.032773 0.000000
# 6 0.000000 0.000000 0.000000 0.000000 0.000000 0.027694
#
#
# Mechanical properties :
#
#
# Convention : Reuss Voigt Hill
#
# Bulk Modulus (GPa) = 58.12331 59.57870 58.85101
# Shear Modulus (GPa) = 33.40520 35.47134 34.43827
#
# Velocity S-wave (km/s) = 3.97420 4.09526 4.03519
# Velocity P-wave (km/s) = 6.96709 7.10851 7.03815
#
# Compressibility (1/GPa) = 0.01720480
#
# Stress axis : x y z
#
# Youngs Moduli (GPa) = 62.10849 94.53363 79.00831
#
# Poissons Ratio (x) = 0.17819 0.55661
# Poissons Ratio (y) = 0.11707 0.16874
# Poissons Ratio (z) = 0.43755 0.20190
#
# Static dielectric constant tensor:
#      x y z
#    x 1.720310 0.000000 0.000000 
#    y 0.000000 1.794070 0.000000 
#    z 0.000000 0.000000 1.774750 
# 
# From -- ./inp_files/10656.got.cif
#   From: 2010.05.17/outbox.cif.g08.bks.cpg/sg56_6_cif.got.tgz:10656.got - 2010.06.03 13:42:01.
