data_PCOD9433925
_publ_section_title
;
Structure prediction by ZEFSAII (Michael W. Deem and Ramdas Pophale) SiO2 
 PCOD9433925
Probable space group: P C C N
;
_chemical_formula_sum "Si O2"
_cell_formula_units_Z 40
_cell_length_a 12.000000
_cell_length_b 9.000000
_cell_length_c 18.000000
_cell_angle_alpha 90.000000
_cell_angle_beta 90.000000
_cell_angle_gamma 90.000000
_cell_volume 1944.000000
_symmetry_space_group_name_H-M "P C C N"
_symmetry_group_IT_number 56
_symmetry_cell_setting 'orthorhombic'
loop_
_space_group_symop_operation_xyz
x,y,z
1/2-x,1/2-y,z
1/2+x,-y,1/2-z
-x,1/2+y,1/2-z
-x,-y,-z
1/2+x,1/2+y,-z
1/2-x,y,1/2+z
x,1/2-y,1/2+z
loop_
_atom_site_type_symbol
_atom_site_label
_atom_site_fract_x
_atom_site_fract_y
_atom_site_fract_z
Si Si1 0.558550 0.996448 0.919071
Si Si2 0.594186 0.840630 0.184583
Si Si3 0.517526 0.828622 0.352156
Si Si4 0.186266 0.024221 0.868157
Si Si5 0.204207 0.420199 0.541200
O O1 0.528398 0.839234 0.880996
O O2 0.691113 0.009109 0.926770
O O3 0.510889 0.122165 0.866060
O O4 0.500000 0.000000 0.000000
O O5 0.571024 0.845147 0.271340
O O6 0.688127 0.961273 0.161444
O O7 0.633206 0.675983 0.163322
O O8 0.592870 0.923140 0.410006
O O9 0.391770 0.887376 0.347288
O O10 0.185786 0.032954 0.956995
O O11 0.250000 0.250000 0.539693
#
# Coordination Sequence:
#
# PCOD9433925 Si02
#       5
#     8   8   8   8   8
#     4  11  22  43  65  95 130 172 219 266 329 389
#     4  11  23  40  65  93 132 171 209 272 328 381
#     4  11  25  37  68  95 126 168 220 268 324 390
#     4  11  22  43  62  90 129 169 219 259 323 392
#     4  10  20  40  64  89 120 172 213 253 318 394
#
# _framework density 20.576132000000001
#
# number of rings (size 3 to 8) (size 9 to 14) (size 15 to 20)
#    0.000    1.200    4.000    3.000   11.200    0.800 
#    0.000    3.000    0.000    0.000    0.000    0.000 
#    0.000    0.000    0.000    0.000    0.000    0.000 
#
# Total GULP energy -223543.128251 kJ/mol
# GULP energy per Si atom -5588.578206 kJ/mol
# Density = 2.052930 g / cm^3
# Si number density = 20.576132 Si / 1000 Ang^3
#
#
#
# Elastic Constant Matrix: (Units=GPa)
#
#
# Indices 1 2 3 4 5 6 
#
# 1 26.4988 -12.1944 13.8394 0.0000 0.0000 0.0000
# 2 -12.1944 -4.9821 10.5954 0.0000 0.0000 0.0000
# 3 13.8394 10.5954 147.0696 0.0000 0.0000 0.0000
# 4 0.0000 0.0000 0.0000 228.1021 0.0000 0.0000
# 5 0.0000 0.0000 0.0000 0.0000 21.9594 0.0000
# 6 0.0000 0.0000 0.0000 0.0000 0.0000 35.0990
#
#
#
# Elastic Compliance Matrix: (Units=1/GPa)
#
#
# Indices 1 2 3 4 5 6 
#
# 1 0.018023 -0.041381 0.001285 0.000000 0.000000 0.000000
# 2 -0.041381 -0.079041 0.009588 0.000000 0.000000 0.000000
# 3 0.001285 0.009588 0.005988 0.000000 0.000000 0.000000
# 4 0.000000 0.000000 0.000000 0.004384 0.000000 0.000000
# 5 0.000000 0.000000 0.000000 0.000000 0.045539 0.000000
# 6 0.000000 0.000000 0.000000 0.000000 0.000000 0.028491
#
#
# Mechanical properties :
#
#
# Convention : Reuss Voigt Hill
#
# Bulk Modulus (GPa) = -8.61735 21.45188 6.41727
# Shear Modulus (GPa) = 109.36772 67.45516 88.41144
#
# Velocity S-wave (km/s) = 7.29850 5.73187 6.56211
# Velocity P-wave (km/s) = 8.17478 7.36574 7.78078
#
# Compressibility (1/GPa) = -0.11604500
#
# Stress axis : x y z
#
# Youngs Moduli (GPa) = 55.48406 -12.65171 167.00671
#
# Poissons Ratio (x) = -0.52354 -0.21464
# Poissons Ratio (y) = 2.29600 -1.60132
# Poissons Ratio (z) = -0.07131 0.12131
#
# Static dielectric constant tensor:
#      x y z
#    x 1.770810 0.000000 0.000000 
#    y 0.000000 1.713870 0.000000 
#    z 0.000000 0.000000 1.694380 
# 
# From -- ./inp_files/14403.got.cif
#   From: 2010.05.17/outbox.ucp.g08.bks.cvg/sg56_8_cif.got.tgz:14403.got - 2010.06.11 16:37:52.
