data_PCOD9433668
_publ_section_title
;
Structure prediction by ZEFSAII (Michael W. Deem and Ramdas Pophale) SiO2 
 PCOD9433668
Probable space group: P C C N
;
_chemical_formula_sum "Si O2"
_cell_formula_units_Z 40
_cell_length_a 17.043620
_cell_length_b 5.590235
_cell_length_c 16.397990
_cell_angle_alpha 90.000000
_cell_angle_beta 90.000000
_cell_angle_gamma 90.000000
_cell_volume 1562.365085
_symmetry_space_group_name_H-M "P C C N"
_symmetry_group_IT_number 56
_symmetry_cell_setting 'orthorhombic'
loop_
_space_group_symop_operation_xyz
x,y,z
1/2-x,1/2-y,z
1/2+x,-y,1/2-z
-x,1/2+y,1/2-z
-x,-y,-z
1/2+x,1/2+y,-z
1/2-x,y,1/2+z
x,1/2-y,1/2+z
loop_
_atom_site_type_symbol
_atom_site_label
_atom_site_fract_x
_atom_site_fract_y
_atom_site_fract_z
Si Si1 0.681140 0.075160 0.010026
Si Si2 0.091185 0.358900 0.702895
Si Si3 0.660313 0.729061 0.148915
Si Si4 0.327053 0.855828 0.174940
Si Si5 0.043437 0.861230 0.926141
O O1 0.750000 0.250000 0.042794
O O2 0.593981 0.172463 0.023626
O O3 0.675535 0.834015 0.058894
O O4 0.697611 0.055245 0.914779
O O5 0.099033 0.397836 0.800498
O O6 0.120497 0.616297 0.669154
O O7 0.019950 0.297603 0.643280
O O8 0.137029 0.101248 0.708543
O O9 0.750000 0.750000 0.183478
O O10 0.610918 0.494869 0.126636
O O11 0.250000 0.750000 0.219177
O O12 0.000000 0.000000 0.000000
#
# Coordination Sequence:
#
# PCOD9433668 Si02
#       5
#     8   8   8   8   8
#     4  11  25  46  79 106 149 206 262 316 382 471
#     4  12  29  47  78 117 157 202 258 332 398 463
#     4  12  28  48  78 111 160 211 261 323 403 487
#     4  11  25  48  77 112 153 204 262 317 385 469
#     4  12  27  50  75 113 154 203 263 327 395 462
#
# _framework density 25.602208999999998
#
# number of rings (size 3 to 8) (size 9 to 14) (size 15 to 20)
#    0.000    0.400    4.000    3.000    8.400    2.400 
#    0.000    0.000    0.000    0.000    0.000    0.000 
#    0.000    0.000    0.000    0.000    0.000    0.000 
#
# Total GULP energy -222834.399114 kJ/mol
# GULP energy per Si atom -5570.859978 kJ/mol
# Density = 2.554394 g / cm^3
# Si number density = 25.602209 Si / 1000 Ang^3
#
#
#
# Elastic Constant Matrix: (Units=GPa)
#
#
# Indices 1 2 3 4 5 6 
#
# 1 107.1614 34.4255 2.3848 0.0000 0.0000 0.0000
# 2 34.4255 97.6504 -11.4745 0.0000 0.0000 0.0000
# 3 2.3848 -11.4745 79.5399 0.0000 0.0000 0.0000
# 4 0.0000 0.0000 0.0000 32.0611 0.0000 0.0000
# 5 0.0000 0.0000 0.0000 0.0000 -42.5955 0.0000
# 6 0.0000 0.0000 0.0000 0.0000 0.0000 48.6090
#
#
#
# Elastic Compliance Matrix: (Units=1/GPa)
#
#
# Indices 1 2 3 4 5 6 
#
# 1 0.010582 -0.003833 -0.000870 0.000000 0.000000 0.000000
# 2 -0.003833 0.011806 0.001818 0.000000 0.000000 0.000000
# 3 -0.000870 0.001818 0.012861 0.000000 0.000000 0.000000
# 4 0.000000 0.000000 0.000000 0.031190 0.000000 0.000000
# 5 0.000000 0.000000 0.000000 0.000000 -0.023477 0.000000
# 6 0.000000 0.000000 0.000000 0.000000 0.000000 0.020572
#
#
# Mechanical properties :
#
#
# Convention : Reuss Voigt Hill
#
# Bulk Modulus (GPa) = 33.92341 37.22481 35.57411
# Shear Modulus (GPa) = 63.18621 24.88264 44.03443
#
# Velocity S-wave (km/s) = 4.97328 3.12090 4.15172
# Velocity P-wave (km/s) = 6.80125 5.24957 6.07515
#
# Compressibility (1/GPa) = 0.02947817
#
# Stress axis : x y z
#
# Youngs Moduli (GPa) = 94.49636 84.70624 77.75654
#
# Poissons Ratio (x) = 0.32468 0.06767
# Poissons Ratio (y) = 0.36220 -0.14136
# Poissons Ratio (z) = 0.08223 -0.15399
#
# Static dielectric constant tensor:
#      x y z
#    x 2.728940 0.000000 0.000000 
#    y 0.000000 2.040870 0.000000 
#    z 0.000000 0.000000 2.152200 
# 
# From -- ./inp_files/13832.got.cif
#   From: 2010.05.17/outbox.cif.g08.bks.cpg/sg56_7_cif.got.tgz:13832.got - 2010.06.03 13:42:01.
