data_PCOD9433604
_publ_section_title
;
Structure prediction by ZEFSAII (Michael W. Deem and Ramdas Pophale) SiO2 
 PCOD9433604
Probable space group: P C C N
;
_chemical_formula_sum "Si O2"
_cell_formula_units_Z 40
_cell_length_a 4.974084
_cell_length_b 17.755311
_cell_length_c 16.615510
_cell_angle_alpha 90.000000
_cell_angle_beta 90.000000
_cell_angle_gamma 90.000000
_cell_volume 1467.422166
_symmetry_space_group_name_H-M "P C C N"
_symmetry_group_IT_number 56
_symmetry_cell_setting 'orthorhombic'
loop_
_space_group_symop_operation_xyz
x,y,z
1/2-x,1/2-y,z
1/2+x,-y,1/2-z
-x,1/2+y,1/2-z
-x,-y,-z
1/2+x,1/2+y,-z
1/2-x,y,1/2+z
x,1/2-y,1/2+z
loop_
_atom_site_type_symbol
_atom_site_label
_atom_site_fract_x
_atom_site_fract_y
_atom_site_fract_z
Si Si1 0.552742 0.573128 0.189972
Si Si2 0.382727 0.172745 0.698265
Si Si3 0.817036 0.062384 0.641695
Si Si4 0.758445 0.610407 0.966932
Si Si5 0.246592 0.659796 0.060944
O O1 0.802875 0.617794 0.228754
O O2 0.429451 0.540377 0.271327
O O3 0.599616 0.503565 0.129235
O O4 0.359475 0.632323 0.145730
O O5 0.250000 0.250000 0.727705
O O6 0.673703 0.142781 0.665865
O O7 0.227399 0.162759 0.612882
O O8 0.048508 0.048653 0.575495
O O9 0.452100 0.618148 0.997537
O O10 0.942641 0.637792 0.040125
O O11 0.250000 0.750000 0.052267
#
# Coordination Sequence:
#
# PCOD9433604 Si02
#       5
#     8   8   8   8   8
#     4  11  27  43  76 111 159 199 258 328 395 459
#     4  11  24  46  78 108 148 205 264 315 384 473
#     4  11  24  49  75 112 154 210 262 319 393 477
#     4  11  26  48  76 107 155 202 257 316 387 475
#     4  12  27  47  73 113 156 197 256 327 392 455
#
# _framework density 27.258685
#
# number of rings (size 3 to 8) (size 9 to 14) (size 15 to 20)
#    0.000    0.800    4.000    1.800    5.600    3.200 
#    0.000    0.000    0.000    0.000    0.000    0.000 
#    0.000    0.000    0.000    0.000    0.000    0.000 
#
# Total GULP energy -222808.875654 kJ/mol
# GULP energy per Si atom -5570.221891 kJ/mol
# Density = 2.719664 g / cm^3
# Si number density = 27.258685 Si / 1000 Ang^3
#
#
#
# Elastic Constant Matrix: (Units=GPa)
#
#
# Indices 1 2 3 4 5 6 
#
# 1 148.4911 13.4584 6.2031 0.0000 0.0000 0.0000
# 2 13.4584 88.7413 12.2644 0.0000 0.0000 0.0000
# 3 6.2031 12.2644 114.4232 0.0000 0.0000 0.0000
# 4 0.0000 0.0000 0.0000 25.8967 0.0000 0.0000
# 5 0.0000 0.0000 0.0000 0.0000 44.5588 0.0000
# 6 0.0000 0.0000 0.0000 0.0000 0.0000 18.6637
#
#
#
# Elastic Compliance Matrix: (Units=1/GPa)
#
#
# Indices 1 2 3 4 5 6 
#
# 1 0.006836 -0.001000 -0.000263 0.000000 0.000000 0.000000
# 2 -0.001000 0.011585 -0.001187 0.000000 0.000000 0.000000
# 3 -0.000263 -0.001187 0.008881 0.000000 0.000000 0.000000
# 4 0.000000 0.000000 0.000000 0.038615 0.000000 0.000000
# 5 0.000000 0.000000 0.000000 0.000000 0.022442 0.000000
# 6 0.000000 0.000000 0.000000 0.000000 0.000000 0.053580
#
#
# Mechanical properties :
#
#
# Convention : Reuss Voigt Hill
#
# Bulk Modulus (GPa) = 44.64426 46.16749 45.40588
# Shear Modulus (GPa) = 32.40283 39.13917 35.77100
#
# Velocity S-wave (km/s) = 3.45152 3.79336 3.62647
# Velocity P-wave (km/s) = 5.68309 6.01329 5.85052
#
# Compressibility (1/GPa) = 0.02239930
#
# Stress axis : x y z
#
# Youngs Moduli (GPa) = 146.28274 86.32197 112.59946
#
# Poissons Ratio (x) = 0.08635 0.02966
# Poissons Ratio (y) = 0.14633 0.13371
# Poissons Ratio (z) = 0.03853 0.10250
#
# Static dielectric constant tensor:
#      x y z
#    x 2.141270 0.000000 0.000000 
#    y 0.000000 2.267240 0.000000 
#    z 0.000000 0.000000 2.164880 
# 
# From -- ./inp_files/13824.got.cif
#   From: 2010.05.17/outbox.cif.g08.bks.cpg/sg56_7_cif.got.tgz:13824.got - 2010.06.03 13:42:01.
