data_PCOD9433062
_publ_section_title
;
Structure prediction by ZEFSAII (Michael W. Deem and Ramdas Pophale) SiO2 
 PCOD9433062
Probable space group: P C C N
;
_chemical_formula_sum "Si O2"
_cell_formula_units_Z 56
_cell_length_a 22.218059
_cell_length_b 7.617615
_cell_length_c 14.156302
_cell_angle_alpha 90.000000
_cell_angle_beta 90.000000
_cell_angle_gamma 90.000000
_cell_volume 2395.934571
_symmetry_space_group_name_H-M "P C C N"
_symmetry_group_IT_number 56
_symmetry_cell_setting 'orthorhombic'
loop_
_space_group_symop_operation_xyz
x,y,z
1/2-x,1/2-y,z
1/2+x,-y,1/2-z
-x,1/2+y,1/2-z
-x,-y,-z
1/2+x,1/2+y,-z
1/2-x,y,1/2+z
x,1/2-y,1/2+z
loop_
_atom_site_type_symbol
_atom_site_label
_atom_site_fract_x
_atom_site_fract_y
_atom_site_fract_z
Si Si1 0.989050 0.731199 0.163231
Si Si2 0.930472 0.943726 0.420729
Si Si3 0.250000 0.750000 0.558387
Si Si4 0.750000 0.750000 0.191238
Si Si5 0.637930 0.680953 0.594564
Si Si6 0.483798 0.859568 0.374922
Si Si7 0.325201 0.963255 0.211271
Si Si8 0.149210 0.599898 0.419140
O O1 0.019631 0.594505 0.091218
O O2 0.017434 0.709035 0.266646
O O3 0.918144 0.681855 0.167032
O O4 0.995634 0.931830 0.129776
O O5 0.885534 0.935960 0.508849
O O6 0.963017 0.755175 0.418805
O O7 0.889128 0.980736 0.330030
O O8 0.214011 0.875233 0.630305
O O9 0.198184 0.668249 0.492184
O O10 0.795946 0.630535 0.130801
O O11 0.707888 0.637131 0.256350
O O12 0.646124 0.887547 0.569498
O O13 0.419628 0.834242 0.425859
O O14 0.332514 0.859391 0.310082
#
# Coordination Sequence:
#
# PCOD9433062 Si02
#       8
#     8   8   4   4   8   8   8   8
#     4  11  22  45  71 108 144 200 253 304 381 452
#     4  12  25  44  74 114 145 193 265 307 383 463
#     4  12  28  46  78 106 150 196 252 314 374 458
#     4  10  24  50  78  98 148 196 250 314 382 448
#     4  10  25  44  74 104 147 196 250 312 374 454
#     4  11  22  46  74 102 154 198 244 318 382 443
#     4  11  26  49  74 109 145 195 257 305 378 460
#     4  10  24  50  69 109 152 192 247 316 380 446
#
# _framework density 23.372924999999999
#
# number of rings (size 3 to 8) (size 9 to 14) (size 15 to 20)
#    0.000    1.143    2.857    2.571    6.000    5.714 
#    5.143    0.000    0.000    0.000    0.000    0.000 
#    0.000    0.000    0.000    0.000    0.000    0.000 
#
# Total GULP energy -313361.978274 kJ/mol
# GULP energy per Si atom -5595.749612 kJ/mol
# Density = 2.331973 g / cm^3
# Si number density = 23.372925 Si / 1000 Ang^3
#
#
#
# Elastic Constant Matrix: (Units=GPa)
#
#
# Indices 1 2 3 4 5 6 
#
# 1 138.8336 41.4189 38.3821 0.0000 0.0000 0.0000
# 2 41.4189 75.3425 25.8020 0.0000 0.0000 0.0000
# 3 38.3821 25.8020 98.5214 0.0000 0.0000 0.0000
# 4 0.0000 0.0000 0.0000 29.0825 0.0000 0.0000
# 5 0.0000 0.0000 0.0000 0.0000 29.9500 0.0000
# 6 0.0000 0.0000 0.0000 0.0000 0.0000 37.7299
#
#
#
# Elastic Compliance Matrix: (Units=1/GPa)
#
#
# Indices 1 2 3 4 5 6 
#
# 1 0.009129 -0.004175 -0.002463 0.000000 0.000000 0.000000
# 2 -0.004175 0.016490 -0.002692 0.000000 0.000000 0.000000
# 3 -0.002463 -0.002692 0.011815 0.000000 0.000000 0.000000
# 4 0.000000 0.000000 0.000000 0.034385 0.000000 0.000000
# 5 0.000000 0.000000 0.000000 0.000000 0.033389 0.000000
# 6 0.000000 0.000000 0.000000 0.000000 0.000000 0.026504
#
#
# Mechanical properties :
#
#
# Convention : Reuss Voigt Hill
#
# Bulk Modulus (GPa) = 53.26741 58.21148 55.73945
# Shear Modulus (GPa) = 31.92218 33.15878 32.54048
#
# Velocity S-wave (km/s) = 3.69965 3.77063 3.73531
# Velocity P-wave (km/s) = 6.41012 6.62695 6.51943
#
# Compressibility (1/GPa) = 0.01877320
#
# Stress axis : x y z
#
# Youngs Moduli (GPa) = 109.53523 60.64296 84.64034
#
# Poissons Ratio (x) = 0.25320 0.20849
# Poissons Ratio (y) = 0.45734 0.22785
# Poissons Ratio (z) = 0.26981 0.16325
#
# Static dielectric constant tensor:
#      x y z
#    x 1.904990 0.000000 0.000000 
#    y 0.000000 1.891040 0.000000 
#    z 0.000000 0.000000 1.923260 
# 
# From -- ./inp_files/13106.got.cif
#   From: 2010.05.17/outbox.cif.g08.bks.cpg/sg56_7_cif.got.tgz:13106.got - 2010.06.03 13:42:01.
