data_PCOD9433836
_publ_section_title
;
Structure prediction by ZEFSAII (Michael W. Deem and Ramdas Pophale) SiO2 
 PCOD9433836
Probable space group: P C C N
;
_chemical_formula_sum "Si O2"
_cell_formula_units_Z 24
_cell_length_a 4.635712
_cell_length_b 17.259107
_cell_length_c 12.847568
_cell_angle_alpha 90.000000
_cell_angle_beta 90.000000
_cell_angle_gamma 90.000000
_cell_volume 1027.911425
_symmetry_space_group_name_H-M "P C C N"
_symmetry_group_IT_number 56
_symmetry_cell_setting 'orthorhombic'
loop_
_space_group_symop_operation_xyz
x,y,z
1/2-x,1/2-y,z
1/2+x,-y,1/2-z
-x,1/2+y,1/2-z
-x,-y,-z
1/2+x,1/2+y,-z
1/2-x,y,1/2+z
x,1/2-y,1/2+z
loop_
_atom_site_type_symbol
_atom_site_label
_atom_site_fract_x
_atom_site_fract_y
_atom_site_fract_z
Si Si1 0.682276 0.080442 0.479704
Si Si2 0.226270 0.340975 0.086906
Si Si3 0.483876 0.053887 0.766561
O O1 0.430286 0.143032 0.487583
O O2 0.850199 0.077098 0.370964
O O3 0.500000 0.000000 0.500000
O O4 0.072453 0.885411 0.440493
O O5 0.250000 0.250000 0.105395
O O6 0.367814 0.381810 0.187711
O O7 0.208555 0.001787 0.792029
#
# Coordination Sequence:
#
# PCOD9433836 Si02
#       3
#     8   8   8
#     4  12  26  50  82 114 158 210 268 320 395 481
#     4  12  28  50  78 118 163 203 261 340 400 464
#     4  12  26  45  82 117 147 206 270 321 385 474
#
# _framework density 23.348314999999999
#
# number of rings (size 3 to 8) (size 9 to 14) (size 15 to 20)
#    0.000    0.000    3.333    6.000    0.000    1.333 
#    0.000    6.667    0.000    0.000    0.000    0.000 
#    0.000    0.000    0.000    0.000    0.000    0.000 
#
# Total GULP energy -134040.820533 kJ/mol
# GULP energy per Si atom -5585.034189 kJ/mol
# Density = 2.329517 g / cm^3
# Si number density = 23.348315 Si / 1000 Ang^3
#
#
#
# Elastic Constant Matrix: (Units=GPa)
#
#
# Indices 1 2 3 4 5 6 
#
# 1 181.6183 81.0272 62.6437 0.0000 0.0000 0.0000
# 2 81.0272 202.5810 84.9850 0.0000 0.0000 0.0000
# 3 62.6437 84.9850 128.8678 0.0000 0.0000 0.0000
# 4 0.0000 0.0000 0.0000 35.6240 0.0000 0.0000
# 5 0.0000 0.0000 0.0000 0.0000 64.3676 0.0000
# 6 0.0000 0.0000 0.0000 0.0000 0.0000 21.5655
#
#
#
# Elastic Compliance Matrix: (Units=1/GPa)
#
#
# Indices 1 2 3 4 5 6 
#
# 1 0.007122 -0.001930 -0.002189 0.000000 0.000000 0.000000
# 2 -0.001930 0.007347 -0.003907 0.000000 0.000000 0.000000
# 3 -0.002189 -0.003907 0.011401 0.000000 0.000000 0.000000
# 4 0.000000 0.000000 0.000000 0.028071 0.000000 0.000000
# 5 0.000000 0.000000 0.000000 0.000000 0.015536 0.000000
# 6 0.000000 0.000000 0.000000 0.000000 0.000000 0.046370
#
#
# Mechanical properties :
#
#
# Convention : Reuss Voigt Hill
#
# Bulk Modulus (GPa) = 101.86211 107.81987 104.84099
# Shear Modulus (GPa) = 36.98953 43.27217 40.13085
#
# Velocity S-wave (km/s) = 3.98458 4.30970 4.15033
# Velocity P-wave (km/s) = 8.05550 8.42875 8.24424
#
# Compressibility (1/GPa) = 0.00981719
#
# Stress axis : x y z
#
# Youngs Moduli (GPa) = 140.40265 136.10140 87.71379
#
# Poissons Ratio (x) = 0.26273 0.19202
# Poissons Ratio (y) = 0.27103 0.34271
# Poissons Ratio (z) = 0.30737 0.53176
#
# Static dielectric constant tensor:
#      x y z
#    x 1.920040 0.000000 0.000000 
#    y 0.000000 1.906770 0.000000 
#    z 0.000000 0.000000 2.022340 
# 
# From -- ./inp_files/13570.got.cif
#   From: 2010.05.17/outbox.cif.g08.bks.cpg/sg56_7_cif.got.tgz:13570.got - 2010.06.03 13:42:01.
