data_PCOD9433197
_publ_section_title
;
Structure prediction by ZEFSAII (Michael W. Deem and Ramdas Pophale) SiO2 
 PCOD9433197
Probable space group: P C C N
;
_chemical_formula_sum "Si O2"
_cell_formula_units_Z 64
_cell_length_a 12.068768
_cell_length_b 17.837100
_cell_length_c 15.041661
_cell_angle_alpha 90.000000
_cell_angle_beta 90.000000
_cell_angle_gamma 90.000000
_cell_volume 3238.045765
_symmetry_space_group_name_H-M "P C C N"
_symmetry_group_IT_number 56
_symmetry_cell_setting 'orthorhombic'
loop_
_space_group_symop_operation_xyz
x,y,z
1/2-x,1/2-y,z
1/2+x,-y,1/2-z
-x,1/2+y,1/2-z
-x,-y,-z
1/2+x,1/2+y,-z
1/2-x,y,1/2+z
x,1/2-y,1/2+z
loop_
_atom_site_type_symbol
_atom_site_label
_atom_site_fract_x
_atom_site_fract_y
_atom_site_fract_z
Si Si1 0.438219 0.599745 0.738113
Si Si2 0.870733 0.984128 0.497872
Si Si3 0.655555 0.851989 0.886982
Si Si4 0.619343 0.933650 0.711411
Si Si5 0.085053 0.182119 0.120513
Si Si6 0.730040 0.424767 0.856626
Si Si7 0.984996 0.414242 0.462254
Si Si8 0.346806 0.480393 0.312287
O O1 0.397177 0.524004 0.788741
O O2 0.502444 0.658316 0.799825
O O3 0.326993 0.626049 0.687372
O O4 0.537123 0.562436 0.681401
O O5 0.856660 0.895844 0.479714
O O6 0.825792 0.015658 0.591108
O O7 0.804136 0.018067 0.414705
O O8 0.000000 0.000000 0.500000
O O9 0.594618 0.897619 0.807115
O O10 0.787911 0.846687 0.868956
O O11 0.600943 0.770586 0.889892
O O12 0.555169 0.904168 0.627372
O O13 0.749045 0.921103 0.698086
O O14 0.031308 0.141181 0.036105
O O15 0.639231 0.398113 0.927326
O O16 0.664331 0.466607 0.775089
O O17 0.000000 0.500000 0.500000
#
# Coordination Sequence:
#
# PCOD9433197 Si02
#       8
#     8   8   8   8   8   8   8   8
#     4  11  19  38  61  98 128 175 221 281 324 406
#     4  12  22  38  65  97 128 172 226 283 324 398
#     4  11  23  44  63 100 140 172 216 286 357 404
#     4  11  20  35  65  91 134 171 220 277 336 394
#     4  11  24  43  68  97 141 174 222 286 347 410
#     4  11  23  36  61 102 134 171 229 282 333 394
#     4  12  22  39  65 100 134 177 230 281 333 409
#     4  11  19  35  61  95 130 162 223 276 338 384
#
# _framework density 19.765008000000002
#
# number of rings (size 3 to 8) (size 9 to 14) (size 15 to 20)
#    0.000    0.750    7.500    2.250    1.750    0.000 
#    2.250    1.250    0.000    4.500    0.000    0.000 
#    0.000    0.000    0.000    0.000    0.000    0.000 
#
# Total GULP energy -356488.601569 kJ/mol
# GULP energy per Si atom -5570.134400 kJ/mol
# Density = 1.972002 g / cm^3
# Si number density = 19.765008 Si / 1000 Ang^3
#
#
#
# Elastic Constant Matrix: (Units=GPa)
#
#
# Indices 1 2 3 4 5 6 
#
# 1 116.5123 47.3899 34.8247 0.0000 0.0000 0.0000
# 2 47.3899 59.3977 33.4531 0.0000 0.0000 0.0000
# 3 34.8247 33.4531 115.0929 0.0000 0.0000 0.0000
# 4 0.0000 0.0000 0.0000 17.7992 0.0000 0.0000
# 5 0.0000 0.0000 0.0000 0.0000 46.8319 0.0000
# 6 0.0000 0.0000 0.0000 0.0000 0.0000 22.3448
#
#
#
# Elastic Compliance Matrix: (Units=1/GPa)
#
#
# Indices 1 2 3 4 5 6 
#
# 1 0.012818 -0.009617 -0.001083 0.000000 0.000000 0.000000
# 2 -0.009617 0.027346 -0.005039 0.000000 0.000000 0.000000
# 3 -0.001083 -0.005039 0.010481 0.000000 0.000000 0.000000
# 4 0.000000 0.000000 0.000000 0.056182 0.000000 0.000000
# 5 0.000000 0.000000 0.000000 0.000000 0.021353 0.000000
# 6 0.000000 0.000000 0.000000 0.000000 0.000000 0.044753
#
#
# Mechanical properties :
#
#
# Convention : Reuss Voigt Hill
#
# Bulk Modulus (GPa) = 52.17063 58.03758 55.10411
# Shear Modulus (GPa) = 23.71921 29.08420 26.40170
#
# Velocity S-wave (km/s) = 3.46795 3.84017 3.65880
# Velocity P-wave (km/s) = 6.51830 7.00644 6.76677
#
# Compressibility (1/GPa) = 0.01916787
#
# Stress axis : x y z
#
# Youngs Moduli (GPa) = 78.01519 36.56842 95.41125
#
# Poissons Ratio (x) = 0.35166 0.10336
# Poissons Ratio (y) = 0.75024 0.48074
# Poissons Ratio (z) = 0.08451 0.18425
#
# Static dielectric constant tensor:
#      x y z
#    x 1.820800 0.000000 0.000000 
#    y 0.000000 1.701170 0.000000 
#    z 0.000000 0.000000 1.775290 
# 
# From -- ./inp_files/11837.got.cif
#   From: 2010.05.17/outbox.cif.g08.bks.cpg/sg56_6_cif.got.tgz:11837.got - 2010.06.03 13:42:01.
