data_PCOD9433172
_publ_section_title
;
Structure prediction by ZEFSAII (Michael W. Deem and Ramdas Pophale) SiO2 
 PCOD9433172
Probable space group: P C C N
;
_chemical_formula_sum "Si O2"
_cell_formula_units_Z 32
_cell_length_a 28.381061
_cell_length_b 4.939027
_cell_length_c 8.209665
_cell_angle_alpha 90.000000
_cell_angle_beta 90.000000
_cell_angle_gamma 90.000000
_cell_volume 1150.788368
_symmetry_space_group_name_H-M "P C C N"
_symmetry_group_IT_number 56
_symmetry_cell_setting 'orthorhombic'
loop_
_space_group_symop_operation_xyz
x,y,z
1/2-x,1/2-y,z
1/2+x,-y,1/2-z
-x,1/2+y,1/2-z
-x,-y,-z
1/2+x,1/2+y,-z
1/2-x,y,1/2+z
x,1/2-y,1/2+z
loop_
_atom_site_type_symbol
_atom_site_label
_atom_site_fract_x
_atom_site_fract_y
_atom_site_fract_z
Si Si1 0.216249 0.001789 0.516838
Si Si2 0.094370 0.542243 0.582228
Si Si3 0.347885 0.152342 0.297442
Si Si4 0.967957 0.420058 0.717884
O O1 0.250000 0.250000 0.563607
O O2 0.186694 0.114537 0.365174
O O3 0.179473 0.975874 0.664971
O O4 0.250000 0.750000 0.484936
O O5 0.137363 0.525452 0.453861
O O6 0.109325 0.324360 0.717406
O O7 0.075925 0.807856 0.674117
O O8 0.051814 0.487061 0.456323
O O9 0.999069 0.654965 0.795680
#
# Coordination Sequence:
#
# PCOD9433172 Si02
#       4
#     8   8   8   8
#     4  11  26  50  77 112 152 200 254 314 379 454
#     4  11  26  50  78 114 156 202 256 316 382 456
#     4  10  26  50  80 113 154 202 256 315 382 454
#     4  12  27  50  80 115 153 202 257 317 380 454
#
# _framework density 27.807024999999999
#
# number of rings (size 3 to 8) (size 9 to 14) (size 15 to 20)
#    0.000    1.000    0.000    3.750    0.000   20.000 
#    0.000    3.750    0.000    0.000    0.000    0.000 
#    0.000    0.000    0.000    0.000    0.000    0.000 
#
# Total GULP energy -179620.933655 kJ/mol
# GULP energy per Si atom -5613.154177 kJ/mol
# Density = 2.774374 g / cm^3
# Si number density = 27.807025 Si / 1000 Ang^3
#
#
#
# Elastic Constant Matrix: (Units=GPa)
#
#
# Indices 1 2 3 4 5 6 
#
# 1 168.7588 104.6506 63.5017 0.0000 0.0000 0.0000
# 2 104.6506 188.1619 86.5347 0.0000 0.0000 0.0000
# 3 63.5017 86.5347 160.9530 0.0000 0.0000 0.0000
# 4 0.0000 0.0000 0.0000 49.3523 0.0000 0.0000
# 5 0.0000 0.0000 0.0000 0.0000 67.2335 0.0000
# 6 0.0000 0.0000 0.0000 0.0000 0.0000 63.4974
#
#
#
# Elastic Compliance Matrix: (Units=1/GPa)
#
#
# Indices 1 2 3 4 5 6 
#
# 1 0.009208 -0.004584 -0.001168 0.000000 0.000000 0.000000
# 2 -0.004584 0.009342 -0.003214 0.000000 0.000000 0.000000
# 3 -0.001168 -0.003214 0.008402 0.000000 0.000000 0.000000
# 4 0.000000 0.000000 0.000000 0.020262 0.000000 0.000000
# 5 0.000000 0.000000 0.000000 0.000000 0.014874 0.000000
# 6 0.000000 0.000000 0.000000 0.000000 0.000000 0.015749
#
#
# Mechanical properties :
#
#
# Convention : Reuss Voigt Hill
#
# Bulk Modulus (GPa) = 110.87476 114.13864 112.50670
# Shear Modulus (GPa) = 50.61967 53.56244 52.09106
#
# Velocity S-wave (km/s) = 4.27123 4.39363 4.33287
# Velocity P-wave (km/s) = 8.01773 8.17768 8.09810
#
# Compressibility (1/GPa) = 0.00901919
#
# Stress axis : x y z
#
# Youngs Moduli (GPa) = 108.60426 107.04159 119.01836
#
# Poissons Ratio (x) = 0.49065 0.13906
# Poissons Ratio (y) = 0.49782 0.38256
# Poissons Ratio (z) = 0.12689 0.34406
#
# Static dielectric constant tensor:
#      x y z
#    x 2.306150 0.000000 0.000000 
#    y 0.000000 2.071690 0.000000 
#    z 0.000000 0.000000 2.105000 
# 
# From -- ./inp_files/5048.got.cif
#   From: 2010.05.17/outbox.cif.g08.bks.cpg/sg56_3_cif.got.tgz:5048.got - 2010.06.03 13:42:01.
