data_PCOD9433591
_publ_section_title
;
Structure prediction by ZEFSAII (Michael W. Deem and Ramdas Pophale) SiO2 
 PCOD9433591
Probable space group: P C C N
;
_chemical_formula_sum "Si O2"
_cell_formula_units_Z 64
_cell_length_a 14.129526
_cell_length_b 16.514389
_cell_length_c 11.788349
_cell_angle_alpha 90.000000
_cell_angle_beta 90.000000
_cell_angle_gamma 90.000000
_cell_volume 2750.699117
_symmetry_space_group_name_H-M "P C C N"
_symmetry_group_IT_number 56
_symmetry_cell_setting 'orthorhombic'
loop_
_space_group_symop_operation_xyz
x,y,z
1/2-x,1/2-y,z
1/2+x,-y,1/2-z
-x,1/2+y,1/2-z
-x,-y,-z
1/2+x,1/2+y,-z
1/2-x,y,1/2+z
x,1/2-y,1/2+z
loop_
_atom_site_type_symbol
_atom_site_label
_atom_site_fract_x
_atom_site_fract_y
_atom_site_fract_z
Si Si1 0.601158 0.155515 0.050275
Si Si2 0.083981 0.051508 0.062433
Si Si3 0.835286 0.621682 0.211404
Si Si4 0.687926 0.329590 0.790408
Si Si5 0.860618 0.812551 0.255667
Si Si6 0.231706 0.544672 0.084986
Si Si7 0.514836 0.187337 0.433517
Si Si8 0.409828 0.410054 0.539530
O O1 0.633171 0.184489 0.173544
O O2 0.643952 0.984836 0.906020
O O3 0.693276 0.118900 0.990839
O O4 0.521729 0.086277 0.058398
O O5 0.049999 0.140465 0.023054
O O6 0.109077 0.067035 0.196170
O O7 0.183269 0.008146 0.030640
O O8 0.000000 0.000000 0.000000
O O9 0.845186 0.716883 0.241486
O O10 0.720285 0.624233 0.213037
O O11 0.877208 0.601678 0.089089
O O12 0.750000 0.250000 0.811152
O O13 0.746072 0.412986 0.794263
O O14 0.615604 0.347559 0.893500
O O15 0.875501 0.833265 0.386586
O O16 0.953458 0.822341 0.179945
O O17 0.452736 0.775188 0.021654
#
# Coordination Sequence:
#
# PCOD9433591 Si02
#       8
#     8   8   8   8   8   8   8   8
#     4  12  28  51  80 113 160 209 275 340 410 504
#     4  12  27  48  76 112 161 209 270 333 406 494
#     4  11  26  45  78 118 162 212 266 332 417 491
#     4  12  28  50  78 112 155 213 274 334 415 491
#     4  11  24  45  79 112 160 208 261 336 405 494
#     4  12  28  51  74 114 161 209 266 337 421 483
#     4  12  25  50  78 114 149 208 274 330 400 496
#     4  12  25  50  77 119 159 211 273 340 412 499
#
# _framework density 23.266811000000001
#
# number of rings (size 3 to 8) (size 9 to 14) (size 15 to 20)
#    0.000    0.250    6.250    1.875    3.500    2.000 
#    4.500    0.000    0.000    0.000    0.000    0.000 
#    0.000    0.000    0.000    0.000    0.000    0.000 
#
# Total GULP energy -356900.482749 kJ/mol
# GULP energy per Si atom -5576.570043 kJ/mol
# Density = 2.321385 g / cm^3
# Si number density = 23.266811 Si / 1000 Ang^3
#
#
#
# Elastic Constant Matrix: (Units=GPa)
#
#
# Indices 1 2 3 4 5 6 
#
# 1 140.3446 39.0053 47.0462 0.0000 0.0000 0.0000
# 2 39.0053 77.8583 37.8038 0.0000 0.0000 0.0000
# 3 47.0462 37.8038 116.8445 0.0000 0.0000 0.0000
# 4 0.0000 0.0000 0.0000 28.5478 0.0000 0.0000
# 5 0.0000 0.0000 0.0000 0.0000 24.5634 0.0000
# 6 0.0000 0.0000 0.0000 0.0000 0.0000 51.5995
#
#
#
# Elastic Compliance Matrix: (Units=1/GPa)
#
#
# Indices 1 2 3 4 5 6 
#
# 1 0.008867 -0.003213 -0.002530 0.000000 0.000000 0.000000
# 2 -0.003213 0.016402 -0.004013 0.000000 0.000000 0.000000
# 3 -0.002530 -0.004013 0.010876 0.000000 0.000000 0.000000
# 4 0.000000 0.000000 0.000000 0.035029 0.000000 0.000000
# 5 0.000000 0.000000 0.000000 0.000000 0.040711 0.000000
# 6 0.000000 0.000000 0.000000 0.000000 0.000000 0.019380
#
#
# Mechanical properties :
#
#
# Convention : Reuss Voigt Hill
#
# Bulk Modulus (GPa) = 60.12881 64.75089 62.43985
# Shear Modulus (GPa) = 31.98542 35.02163 33.50353
#
# Velocity S-wave (km/s) = 3.71175 3.88392 3.79881
# Velocity P-wave (km/s) = 6.65347 6.92844 6.79235
#
# Compressibility (1/GPa) = 0.01663096
#
# Stress axis : x y z
#
# Youngs Moduli (GPa) = 112.78235 60.96777 91.94936
#
# Poissons Ratio (x) = 0.19591 0.23267
# Poissons Ratio (y) = 0.36241 0.36898
# Poissons Ratio (z) = 0.28539 0.24466
#
# Static dielectric constant tensor:
#      x y z
#    x 2.092150 0.000000 0.000000 
#    y 0.000000 1.956600 0.000000 
#    z 0.000000 0.000000 1.888610 
# 
# From -- ./inp_files/8066.got.cif
#   From: 2010.05.17/outbox.cif.g08.bks.cpg/sg56_5_cif.got.tgz:8066.got - 2010.06.03 13:42:01.
