data_PCOD9433378
_publ_section_title
;
Structure prediction by ZEFSAII (Michael W. Deem and Ramdas Pophale) SiO2 
 PCOD9433378
Probable space group: P C C N
;
_chemical_formula_sum "Si O2"
_cell_formula_units_Z 64
_cell_length_a 13.318414
_cell_length_b 26.164174
_cell_length_c 9.380100
_cell_angle_alpha 90.000000
_cell_angle_beta 90.000000
_cell_angle_gamma 90.000000
_cell_volume 3268.639373
_symmetry_space_group_name_H-M "P C C N"
_symmetry_group_IT_number 56
_symmetry_cell_setting 'orthorhombic'
loop_
_space_group_symop_operation_xyz
x,y,z
1/2-x,1/2-y,z
1/2+x,-y,1/2-z
-x,1/2+y,1/2-z
-x,-y,-z
1/2+x,1/2+y,-z
1/2-x,y,1/2+z
x,1/2-y,1/2+z
loop_
_atom_site_type_symbol
_atom_site_label
_atom_site_fract_x
_atom_site_fract_y
_atom_site_fract_z
Si Si1 0.334856 0.025870 0.911363
Si Si2 0.831677 0.408912 0.118595
Si Si3 0.644580 0.528691 0.260004
Si Si4 0.400959 0.580845 0.877348
Si Si5 0.002711 0.610692 0.109670
Si Si6 0.352736 0.303445 0.839712
Si Si7 0.011598 0.890859 0.169010
Si Si8 0.350063 0.304649 0.495915
O O1 0.237083 0.048468 0.835139
O O2 0.432029 0.060632 0.893241
O O3 0.346232 0.969238 0.847866
O O4 0.318155 0.019490 0.079911
O O5 0.713622 0.400495 0.105073
O O6 0.888026 0.378729 0.243163
O O7 0.895100 0.398103 0.977219
O O8 0.607103 0.475595 0.191897
O O9 0.558260 0.571099 0.260796
O O10 0.463326 0.617159 0.772022
O O11 0.456464 0.580060 0.026906
O O12 0.938202 0.655766 0.040153
O O13 0.445116 0.341469 0.861856
O O14 0.337490 0.298760 0.667447
O O15 0.252632 0.323538 0.919902
O O16 0.371099 0.249095 0.916659
#
# Coordination Sequence:
#
# PCOD9433378 Si02
#       8
#     8   8   8   8   8   8   8   8
#     4  11  23  37  61  87 130 160 205 251 304 366
#     4  11  22  43  58  86 124 167 207 249 297 349
#     4  11  23  39  57  92 126 164 203 253 303 364
#     4  11  26  36  63  88 123 168 206 255 290 358
#     4  12  22  41  64  89 119 167 204 250 308 360
#     4  11  24  43  68  97 126 156 192 253 309 373
#     4  12  24  40  64  89 125 160 212 249 306 363
#     4  11  24  42  69  95 128 153 195 248 313 372
#
# _framework density 19.580013000000001
#
# number of rings (size 3 to 8) (size 9 to 14) (size 15 to 20)
#    0.000    0.750    3.750    4.500   10.500    0.000 
#    0.000    0.000    0.000    4.500    0.000    0.000 
#    0.000    0.000    0.000    0.000    0.000    0.000 
#
# Total GULP energy -357746.109241 kJ/mol
# GULP energy per Si atom -5589.782957 kJ/mol
# Density = 1.953545 g / cm^3
# Si number density = 19.580013 Si / 1000 Ang^3
#
#
#
# Elastic Constant Matrix: (Units=GPa)
#
#
# Indices 1 2 3 4 5 6 
#
# 1 77.2707 37.0118 39.2178 0.0000 0.0000 0.0000
# 2 37.0118 42.9790 7.0107 0.0000 0.0000 0.0000
# 3 39.2178 7.0107 101.9625 0.0000 0.0000 0.0000
# 4 0.0000 0.0000 0.0000 22.3803 0.0000 0.0000
# 5 0.0000 0.0000 0.0000 0.0000 41.2808 0.0000
# 6 0.0000 0.0000 0.0000 0.0000 0.0000 19.6731
#
#
#
# Elastic Compliance Matrix: (Units=1/GPa)
#
#
# Indices 1 2 3 4 5 6 
#
# 1 0.029004 -0.023420 -0.009546 0.000000 0.000000 0.000000
# 2 -0.023420 0.042442 0.006090 0.000000 0.000000 0.000000
# 3 -0.009546 0.006090 0.013060 0.000000 0.000000 0.000000
# 4 0.000000 0.000000 0.000000 0.044682 0.000000 0.000000
# 5 0.000000 0.000000 0.000000 0.000000 0.024224 0.000000
# 6 0.000000 0.000000 0.000000 0.000000 0.000000 0.050831
#
#
# Mechanical properties :
#
#
# Convention : Reuss Voigt Hill
#
# Bulk Modulus (GPa) = 32.51500 43.18809 37.85155
# Shear Modulus (GPa) = 18.63948 25.93163 22.28556
#
# Velocity S-wave (km/s) = 3.08874 3.64317 3.37735
# Velocity P-wave (km/s) = 5.41873 6.30888 5.88068
#
# Compressibility (1/GPa) = 0.03075504
#
# Stress axis : x y z
#
# Youngs Moduli (GPa) = 34.47765 23.56139 76.56780
#
# Poissons Ratio (x) = 0.55181 0.73088
# Poissons Ratio (y) = 0.80747 -0.46629
# Poissons Ratio (z) = 0.32911 -0.14349
#
# Static dielectric constant tensor:
#      x y z
#    x 1.704690 0.000000 0.000000 
#    y 0.000000 1.681050 0.000000 
#    z 0.000000 0.000000 1.698610 
# 
# From -- ./inp_files/2957.got.cif
#   From: 2010.05.17/outbox.cif.g08.bks.cpg/sg56_2_cif.got.tgz:2957.got - 2010.06.03 13:42:01.
