data_PCOD9433356
_publ_section_title
;
Structure prediction by ZEFSAII (Michael W. Deem and Ramdas Pophale) SiO2 
 PCOD9433356
Probable space group: P C C N
;
_chemical_formula_sum "Si O2"
_cell_formula_units_Z 48
_cell_length_a 18.382769
_cell_length_b 14.532389
_cell_length_c 8.851795
_cell_angle_alpha 90.000000
_cell_angle_beta 90.000000
_cell_angle_gamma 90.000000
_cell_volume 2364.717644
_symmetry_space_group_name_H-M "P C C N"
_symmetry_group_IT_number 56
_symmetry_cell_setting 'orthorhombic'
loop_
_space_group_symop_operation_xyz
x,y,z
1/2-x,1/2-y,z
1/2+x,-y,1/2-z
-x,1/2+y,1/2-z
-x,-y,-z
1/2+x,1/2+y,-z
1/2-x,y,1/2+z
x,1/2-y,1/2+z
loop_
_atom_site_type_symbol
_atom_site_label
_atom_site_fract_x
_atom_site_fract_y
_atom_site_fract_z
Si Si1 0.816291 0.895923 0.792987
Si Si2 0.931759 0.460771 0.401372
Si Si3 0.059784 0.924360 0.458904
Si Si4 0.837851 0.563931 0.938728
Si Si5 0.911712 0.773996 0.270063
Si Si6 0.485527 0.717265 0.997412
O O1 0.735623 0.918475 0.847463
O O2 0.825432 0.914357 0.614831
O O3 0.841634 0.789722 0.797479
O O4 0.869102 0.962108 0.892143
O O5 0.938775 0.433829 0.223602
O O6 0.000000 0.500000 0.500000
O O7 0.925063 0.359669 0.475597
O O8 0.043157 0.820928 0.506927
O O9 0.130298 0.961469 0.549446
O O10 0.000000 0.000000 0.500000
O O11 0.896087 0.633787 0.863890
O O12 0.943643 0.796887 0.106162
O O13 0.978187 0.713030 0.333684
#
# Coordination Sequence:
#
# PCOD9433356 Si02
#       6
#     8   8   8   8   8   8
#     4  11  25  41  59  91 128 167 211 257 322 388
#     4  11  23  39  64  92 124 162 217 264 310 385
#     4  11  22  41  62  91 128 163 209 268 317 375
#     4  11  25  42  61  89 130 170 208 260 321 382
#     4  12  22  38  65  94 125 161 204 262 322 385
#     4  12  22  39  65  96 124 160 209 265 324 374
#
# _framework density 20.298406
#
# number of rings (size 3 to 8) (size 9 to 14) (size 15 to 20)
#    0.000    0.667    6.667    1.500    2.333    2.667 
#    0.000    0.833    0.000    4.000    0.000    0.000 
#    0.000    0.000    0.000    0.000    0.000    0.000 
#
# Total GULP energy -267448.849662 kJ/mol
# GULP energy per Si atom -5571.851035 kJ/mol
# Density = 2.025221 g / cm^3
# Si number density = 20.298406 Si / 1000 Ang^3
#
#
#
# Elastic Constant Matrix: (Units=GPa)
#
#
# Indices 1 2 3 4 5 6 
#
# 1 53.4223 25.7109 7.2475 0.0000 0.0000 0.0000
# 2 25.7109 119.7742 11.1795 0.0000 0.0000 0.0000
# 3 7.2475 11.1795 62.9950 0.0000 0.0000 0.0000
# 4 0.0000 0.0000 0.0000 31.1747 0.0000 0.0000
# 5 0.0000 0.0000 0.0000 0.0000 28.8333 0.0000
# 6 0.0000 0.0000 0.0000 0.0000 0.0000 32.4157
#
#
#
# Elastic Compliance Matrix: (Units=1/GPa)
#
#
# Indices 1 2 3 4 5 6 
#
# 1 0.021042 -0.004363 -0.001647 0.000000 0.000000 0.000000
# 2 -0.004363 0.009394 -0.001165 0.000000 0.000000 0.000000
# 3 -0.001647 -0.001165 0.016270 0.000000 0.000000 0.000000
# 4 0.000000 0.000000 0.000000 0.032077 0.000000 0.000000
# 5 0.000000 0.000000 0.000000 0.000000 0.034682 0.000000
# 6 0.000000 0.000000 0.000000 0.000000 0.000000 0.030849
#
#
# Mechanical properties :
#
#
# Convention : Reuss Voigt Hill
#
# Bulk Modulus (GPa) = 30.90519 36.05193 33.47856
# Shear Modulus (GPa) = 29.50701 31.28832 30.39766
#
# Velocity S-wave (km/s) = 3.81683 3.93035 3.87400
# Velocity P-wave (km/s) = 5.88920 6.19648 6.04479
#
# Compressibility (1/GPa) = 0.03235702
#
# Stress axis : x y z
#
# Youngs Moduli (GPa) = 47.52384 106.44613 61.46098
#
# Poissons Ratio (x) = 0.46445 0.10120
# Poissons Ratio (y) = 0.20736 0.07162
# Poissons Ratio (z) = 0.07825 0.12403
#
# Static dielectric constant tensor:
#      x y z
#    x 1.761130 0.000000 0.000000 
#    y 0.000000 1.846720 0.000000 
#    z 0.000000 0.000000 1.740150 
# 
# From -- ./inp_files/3386.got.cif
#   From: 2010.05.17/outbox.cif.g08.bks.cpg/sg56_2_cif.got.tgz:3386.got - 2010.06.03 13:42:01.
