data_PCOD9433620
_publ_section_title
;
Structure prediction by ZEFSAII (Michael W. Deem and Ramdas Pophale) SiO2 
 PCOD9433620
Probable space group: P C C N
;
_chemical_formula_sum "Si O2"
_cell_formula_units_Z 48
_cell_length_a 17.817603
_cell_length_b 8.861171
_cell_length_c 14.358208
_cell_angle_alpha 90.000000
_cell_angle_beta 90.000000
_cell_angle_gamma 90.000000
_cell_volume 2266.943186
_symmetry_space_group_name_H-M "P C C N"
_symmetry_group_IT_number 56
_symmetry_cell_setting 'orthorhombic'
loop_
_space_group_symop_operation_xyz
x,y,z
1/2-x,1/2-y,z
1/2+x,-y,1/2-z
-x,1/2+y,1/2-z
-x,-y,-z
1/2+x,1/2+y,-z
1/2-x,y,1/2+z
x,1/2-y,1/2+z
loop_
_atom_site_type_symbol
_atom_site_label
_atom_site_fract_x
_atom_site_fract_y
_atom_site_fract_z
Si Si1 0.262392 0.071190 0.044769
Si Si2 0.482009 0.092122 0.593768
Si Si3 0.938114 0.933594 0.430845
Si Si4 0.257037 0.072605 0.330030
Si Si5 0.601761 0.407519 0.251603
Si Si6 0.347097 0.578643 0.191288
O O1 0.250000 0.250000 0.068541
O O2 0.234141 0.046807 0.939774
O O3 0.350987 0.035998 0.044921
O O4 0.215978 0.966401 0.115081
O O5 0.447871 0.254250 0.569944
O O6 0.554016 0.119544 0.658683
O O7 0.500000 0.000000 0.500000
O O8 0.421942 0.000583 0.654533
O O9 0.947677 0.007945 0.329242
O O10 0.000000 0.000000 0.500000
O O11 0.250000 0.250000 0.314453
O O12 0.329308 0.013351 0.276172
O O13 0.184789 0.989456 0.287431
O O14 0.634981 0.253439 0.293409
#
# Coordination Sequence:
#
# PCOD9433620 Si02
#       6
#     8   8   8   8   8   8
#     4  11  24  47  77 103 146 197 252 305 376 451
#     4  12  27  48  76 104 150 194 247 309 378 446
#     4  12  27  46  71 109 146 193 251 311 378 448
#     4  11  25  44  74 102 140 190 242 299 367 444
#     4  12  27  47  71 111 147 189 243 304 379 443
#     4  12  24  49  72 109 145 195 246 308 366 457
#
# _framework density 21.173888000000002
#
# number of rings (size 3 to 8) (size 9 to 14) (size 15 to 20)
#    0.000    0.333    3.333    5.000    7.000    0.000 
#    3.000    0.000    0.000    0.000    0.000    0.000 
#    0.000    0.000    0.000    0.000    0.000    0.000 
#
# Total GULP energy -268792.151197 kJ/mol
# GULP energy per Si atom -5599.836483 kJ/mol
# Density = 2.112569 g / cm^3
# Si number density = 21.173888 Si / 1000 Ang^3
#
#
#
# Elastic Constant Matrix: (Units=GPa)
#
#
# Indices 1 2 3 4 5 6 
#
# 1 118.7335 45.2955 44.5218 0.0000 0.0000 0.0000
# 2 45.2955 142.2795 67.5742 0.0000 0.0000 0.0000
# 3 44.5218 67.5742 128.1458 0.0000 0.0000 0.0000
# 4 0.0000 0.0000 0.0000 30.3372 0.0000 0.0000
# 5 0.0000 0.0000 0.0000 0.0000 37.3512 0.0000
# 6 0.0000 0.0000 0.0000 0.0000 0.0000 38.4584
#
#
#
# Elastic Compliance Matrix: (Units=1/GPa)
#
#
# Indices 1 2 3 4 5 6 
#
# 1 0.010121 -0.002071 -0.002425 0.000000 0.000000 0.000000
# 2 -0.002071 0.009800 -0.004449 0.000000 0.000000 0.000000
# 3 -0.002425 -0.004449 0.010992 0.000000 0.000000 0.000000
# 4 0.000000 0.000000 0.000000 0.032963 0.000000 0.000000
# 5 0.000000 0.000000 0.000000 0.000000 0.026773 0.000000
# 6 0.000000 0.000000 0.000000 0.000000 0.000000 0.026002
#
#
# Mechanical properties :
#
#
# Convention : Reuss Voigt Hill
#
# Bulk Modulus (GPa) = 76.76971 78.21575 77.49273
# Shear Modulus (GPa) = 36.00205 36.68051 36.34128
#
# Velocity S-wave (km/s) = 4.12795 4.16666 4.14735
# Velocity P-wave (km/s) = 7.68475 7.75680 7.72086
#
# Compressibility (1/GPa) = 0.01302597
#
# Stress axis : x y z
#
# Youngs Moduli (GPa) = 98.80161 102.03624 90.97682
#
# Poissons Ratio (x) = 0.21128 0.22058
# Poissons Ratio (y) = 0.20458 0.40472
# Poissons Ratio (z) = 0.23955 0.45392
#
# Static dielectric constant tensor:
#      x y z
#    x 1.622560 0.000000 0.000000 
#    y 0.000000 1.718260 0.000000 
#    z 0.000000 0.000000 1.769430 
# 
# From -- ./inp_files/12705.got.cif
#   From: 2010.05.17/outbox.cif.g08.bks.cpg/sg56_7_cif.got.tgz:12705.got - 2010.06.03 13:42:01.
