data_PCOD9433486
_publ_section_title
;
Structure prediction by ZEFSAII (Michael W. Deem and Ramdas Pophale) SiO2 
 PCOD9433486
Probable space group: P C C N
;
_chemical_formula_sum "Si O2"
_cell_formula_units_Z 64
_cell_length_a 14.689001
_cell_length_b 12.189151
_cell_length_c 18.076716
_cell_angle_alpha 90.000000
_cell_angle_beta 90.000000
_cell_angle_gamma 90.000000
_cell_volume 3236.571850
_symmetry_space_group_name_H-M "P C C N"
_symmetry_group_IT_number 56
_symmetry_cell_setting 'orthorhombic'
loop_
_space_group_symop_operation_xyz
x,y,z
1/2-x,1/2-y,z
1/2+x,-y,1/2-z
-x,1/2+y,1/2-z
-x,-y,-z
1/2+x,1/2+y,-z
1/2-x,y,1/2+z
x,1/2-y,1/2+z
loop_
_atom_site_type_symbol
_atom_site_label
_atom_site_fract_x
_atom_site_fract_y
_atom_site_fract_z
Si Si1 0.641577 0.736594 0.249302
Si Si2 0.894877 0.524646 0.190027
Si Si3 0.358045 0.259017 0.580645
Si Si4 0.395964 0.029818 0.985372
Si Si5 0.067510 0.016734 0.067402
Si Si6 0.943464 0.983071 0.211072
Si Si7 0.728933 0.122611 0.751742
Si Si8 0.247424 0.878732 0.572252
O O1 0.750000 0.750000 0.244912
O O2 0.603837 0.851924 0.221634
O O3 0.615980 0.714781 0.334665
O O4 0.607106 0.633205 0.203214
O O5 0.881149 0.528459 0.102445
O O6 0.812622 0.454031 0.225402
O O7 0.991752 0.477974 0.216797
O O8 0.250000 0.250000 0.580338
O O9 0.383244 0.351680 0.522484
O O10 0.397103 0.140442 0.563060
O O11 0.500000 0.000000 0.000000
O O12 0.326109 0.946102 0.024835
O O13 0.011391 0.001705 0.143035
O O14 0.153683 0.935089 0.064174
O O15 0.000000 0.000000 0.000000
O O16 0.865338 0.075486 0.218755
O O17 0.750000 0.250000 0.733104
O O18 0.722265 0.113842 0.840765
O O19 0.250000 0.750000 0.551894
#
# Coordination Sequence:
#
# PCOD9433486 Si02
#       8
#     8   8   8   8   8   8   8   8
#     4  11  23  43  74 101 138 182 236 291 352 418
#     4  12  26  45  70 109 139 183 243 293 359 426
#     4  11  23  47  75  99 143 190 233 290 360 423
#     4  12  28  44  73 105 143 187 238 292 360 430
#     4  12  28  46  71 107 143 192 241 294 362 431
#     4  12  26  45  73 103 145 182 240 300 356 428
#     4  11  25  46  73 102 141 188 237 296 362 426
#     4  11  25  50  73 100 150 193 232 294 367 427
#
# _framework density 19.774007999999998
#
# number of rings (size 3 to 8) (size 9 to 14) (size 15 to 20)
#    0.000    0.500    5.000    2.250    7.000    2.000 
#    0.000    0.000    0.000    0.000    0.000    0.000 
#    0.000    0.000    0.000    0.000    0.000    0.000 
#
# Total GULP energy -357986.617296 kJ/mol
# GULP energy per Si atom -5593.540895 kJ/mol
# Density = 1.972900 g / cm^3
# Si number density = 19.774008 Si / 1000 Ang^3
#
#
#
# Elastic Constant Matrix: (Units=GPa)
#
#
# Indices 1 2 3 4 5 6 
#
# 1 148.5762 91.2244 56.6139 0.0000 0.0000 0.0000
# 2 91.2244 174.3783 74.1623 0.0000 0.0000 0.0000
# 3 56.6139 74.1623 116.5699 0.0000 0.0000 0.0000
# 4 0.0000 0.0000 0.0000 36.3266 0.0000 0.0000
# 5 0.0000 0.0000 0.0000 0.0000 31.4769 0.0000
# 6 0.0000 0.0000 0.0000 0.0000 0.0000 42.8699
#
#
#
# Elastic Compliance Matrix: (Units=1/GPa)
#
#
# Indices 1 2 3 4 5 6 
#
# 1 0.010297 -0.004469 -0.002157 0.000000 0.000000 0.000000
# 2 -0.004469 0.009802 -0.004065 0.000000 0.000000 0.000000
# 3 -0.002157 -0.004065 0.012213 0.000000 0.000000 0.000000
# 4 0.000000 0.000000 0.000000 0.027528 0.000000 0.000000
# 5 0.000000 0.000000 0.000000 0.000000 0.031769 0.000000
# 6 0.000000 0.000000 0.000000 0.000000 0.000000 0.023326
#
#
# Mechanical properties :
#
#
# Convention : Reuss Voigt Hill
#
# Bulk Modulus (GPa) = 91.51471 98.16951 94.84211
# Shear Modulus (GPa) = 35.72432 36.63627 36.18030
#
# Velocity S-wave (km/s) = 4.25506 4.30903 4.28213
# Velocity P-wave (km/s) = 8.39771 8.63194 8.51563
#
# Compressibility (1/GPa) = 0.01092720
#
# Stress axis : x y z
#
# Youngs Moduli (GPa) = 97.11973 102.02473 81.88158
#
# Poissons Ratio (x) = 0.45595 0.17666
# Poissons Ratio (y) = 0.43403 0.33288
# Poissons Ratio (z) = 0.20953 0.41477
#
# Static dielectric constant tensor:
#      x y z
#    x 1.665490 0.000000 0.000000 
#    y 0.000000 1.676510 0.000000 
#    z 0.000000 0.000000 1.702220 
# 
# From -- ./inp_files/16367.got.cif
#   From: 2010.05.17/outbox.cif.g08.bks.cpg/sg56_9_cif.got.tgz:16367.got - 2010.06.03 13:42:01.
