data_PCOD9433690
_publ_section_title
;
Structure prediction by ZEFSAII (Michael W. Deem and Ramdas Pophale) SiO2 
 PCOD9433690
Probable space group: P C C N
;
_chemical_formula_sum "Si O2"
_cell_formula_units_Z 52
_cell_length_a 9.208511
_cell_length_b 14.274930
_cell_length_c 20.059785
_cell_angle_alpha 90.000000
_cell_angle_beta 90.000000
_cell_angle_gamma 90.000000
_cell_volume 2636.875788
_symmetry_space_group_name_H-M "P C C N"
_symmetry_group_IT_number 56
_symmetry_cell_setting 'orthorhombic'
loop_
_space_group_symop_operation_xyz
x,y,z
1/2-x,1/2-y,z
1/2+x,-y,1/2-z
-x,1/2+y,1/2-z
-x,-y,-z
1/2+x,1/2+y,-z
1/2-x,y,1/2+z
x,1/2-y,1/2+z
loop_
_atom_site_type_symbol
_atom_site_label
_atom_site_fract_x
_atom_site_fract_y
_atom_site_fract_z
Si Si1 0.501942 0.612661 0.432652
Si Si2 0.399968 0.601964 0.575942
Si Si3 0.261386 0.640319 0.324073
Si Si4 0.552913 0.893946 0.318768
Si Si5 0.750000 0.750000 0.899392
Si Si6 0.581553 0.716799 0.678965
Si Si7 0.356772 0.608746 0.177843
O O1 0.404028 0.627283 0.498196
O O2 0.573424 0.509949 0.426972
O O3 0.400842 0.617877 0.367748
O O4 0.625964 0.691408 0.436370
O O5 0.529095 0.655118 0.615769
O O6 0.254764 0.625377 0.617219
O O7 0.250000 0.750000 0.320553
O O8 0.274798 0.607966 0.248388
O O9 0.106437 0.609936 0.351305
O O10 0.666741 0.827789 0.356065
O O11 0.554072 0.849006 0.244076
O O12 0.589092 0.002623 0.324763
O O13 0.750000 0.750000 0.676765
O O14 0.478866 0.809777 0.681389
#
# Coordination Sequence:
#
# PCOD9433690 Si02
#       7
#     8   8   8   8   4   8   8
#     4  11  26  45  73  99 142 181 233 280 351 422
#     4  11  25  49  68  99 139 187 225 287 351 414
#     4  12  23  42  64 101 135 180 224 277 342 413
#     4  12  25  40  71 102 137 178 233 292 345 413
#     4  12  22  46  68 106 136 182 228 288 350 414
#     4  12  26  42  68 103 141 180 232 293 353 402
#     4  12  25  44  70 104 138 183 236 289 345 418
#
# _framework density 19.720306999999998
#
# number of rings (size 3 to 8) (size 9 to 14) (size 15 to 20)
#    0.000    0.308    6.923    1.385    5.385    1.231 
#    0.000    0.769    0.000    0.000    0.000    0.000 
#    0.000    0.000    0.000    0.000    0.000    0.000 
#
# Total GULP energy -290280.404803 kJ/mol
# GULP energy per Si atom -5582.315477 kJ/mol
# Density = 1.967542 g / cm^3
# Si number density = 19.720307 Si / 1000 Ang^3
#
#
#
# Elastic Constant Matrix: (Units=GPa)
#
#
# Indices 1 2 3 4 5 6 
#
# 1 121.1599 38.4374 30.0528 0.0000 0.0000 0.0000
# 2 38.4374 115.9626 23.7864 0.0000 0.0000 0.0000
# 3 30.0528 23.7864 76.6048 0.0000 0.0000 0.0000
# 4 0.0000 0.0000 0.0000 62.9946 0.0000 0.0000
# 5 0.0000 0.0000 0.0000 0.0000 27.8026 0.0000
# 6 0.0000 0.0000 0.0000 0.0000 0.0000 76.7396
#
#
#
# Elastic Compliance Matrix: (Units=1/GPa)
#
#
# Indices 1 2 3 4 5 6 
#
# 1 0.009846 -0.002639 -0.003043 0.000000 0.000000 0.000000
# 2 -0.002639 0.009918 -0.002044 0.000000 0.000000 0.000000
# 3 -0.003043 -0.002044 0.014883 0.000000 0.000000 0.000000
# 4 0.000000 0.000000 0.000000 0.015874 0.000000 0.000000
# 5 0.000000 0.000000 0.000000 0.000000 0.035968 0.000000
# 6 0.000000 0.000000 0.000000 0.000000 0.000000 0.013031
#
#
# Mechanical properties :
#
#
# Convention : Reuss Voigt Hill
#
# Bulk Modulus (GPa) = 52.10236 55.36450 53.73343
# Shear Modulus (GPa) = 41.19652 48.27074 44.73363
#
# Velocity S-wave (km/s) = 4.57556 4.95286 4.76794
# Velocity P-wave (km/s) = 7.37512 7.80023 7.59065
#
# Compressibility (1/GPa) = 0.01919299
#
# Stress axis : x y z
#
# Youngs Moduli (GPa) = 101.56766 100.83105 67.19296
#
# Poissons Ratio (x) = 0.26612 0.20447
# Poissons Ratio (y) = 0.26807 0.13735
# Poissons Ratio (z) = 0.30907 0.20611
#
# Static dielectric constant tensor:
#      x y z
#    x 1.644440 0.000000 0.000000 
#    y 0.000000 1.368590 0.000000 
#    z 0.000000 0.000000 1.639580 
# 
# From -- ./inp_files/18156.got.cif
#   From: 2010.05.17/outbox.cif.g08.bks.cpg/sg56_10_cif.got.tgz:18156.got - 2010.06.03 13:42:01.
