data_PCOD9433840
_publ_section_title
;
Structure prediction by ZEFSAII (Michael W. Deem and Ramdas Pophale) SiO2 
 PCOD9433840
Probable space group: P C C N
;
_chemical_formula_sum "Si O2"
_cell_formula_units_Z 32
_cell_length_a 27.261977
_cell_length_b 4.816055
_cell_length_c 9.995340
_cell_angle_alpha 90.000000
_cell_angle_beta 90.000000
_cell_angle_gamma 90.000000
_cell_volume 1312.339971
_symmetry_space_group_name_H-M "P C C N"
_symmetry_group_IT_number 56
_symmetry_cell_setting 'orthorhombic'
loop_
_space_group_symop_operation_xyz
x,y,z
1/2-x,1/2-y,z
1/2+x,-y,1/2-z
-x,1/2+y,1/2-z
-x,-y,-z
1/2+x,1/2+y,-z
1/2-x,y,1/2+z
x,1/2-y,1/2+z
loop_
_atom_site_type_symbol
_atom_site_label
_atom_site_fract_x
_atom_site_fract_y
_atom_site_fract_z
Si Si1 0.535252 0.242967 0.537325
Si Si2 0.099344 0.668940 0.211427
Si Si3 0.168344 0.149032 0.239918
Si Si4 0.750000 0.750000 0.075508
Si Si5 0.750000 0.250000 0.903488
O O1 0.500000 0.500000 0.500000
O O2 0.581180 0.244122 0.435277
O O3 0.553412 0.174521 0.687467
O O4 0.500000 0.000000 0.500000
O O5 0.129966 0.384256 0.191267
O O6 0.132607 0.903442 0.282391
O O7 0.203958 0.331954 0.334105
O O8 0.208940 0.949121 0.164424
O O9 0.772518 0.490765 0.995869
#
# Coordination Sequence:
#
# PCOD9433840 Si02
#       5
#     8   8   8   4   4
#     4  12  26  50  75 112 152 201 254 327 414 471
#     4  12  27  45  81 109 156 200 263 327 382 493
#     4  12  27  47  69 118 146 205 265 314 393 458
#     4  12  26  46  74 102 160 206 254 324 390 464
#     4  12  26  46  76 102 160 208 254 330 388 468
#
# _framework density 24.383922999999999
#
# number of rings (size 3 to 8) (size 9 to 14) (size 15 to 20)
#    0.000    0.000    0.000   10.500   10.500    0.000 
#    0.000    0.000    0.000    0.000    0.000    0.000 
#    0.000    0.000    0.000    0.000    0.000    0.000 
#
# Total GULP energy -178206.807065 kJ/mol
# GULP energy per Si atom -5568.962721 kJ/mol
# Density = 2.432842 g / cm^3
# Si number density = 24.383923 Si / 1000 Ang^3
#
#
#
# Elastic Constant Matrix: (Units=GPa)
#
#
# Indices 1 2 3 4 5 6 
#
# 1 84.3710 46.1382 13.2052 0.0000 0.0000 0.0000
# 2 46.1382 197.7631 18.9910 0.0000 0.0000 0.0000
# 3 13.2052 18.9910 76.9658 0.0000 0.0000 0.0000
# 4 0.0000 0.0000 0.0000 14.2751 0.0000 0.0000
# 5 0.0000 0.0000 0.0000 0.0000 15.7648 0.0000
# 6 0.0000 0.0000 0.0000 0.0000 0.0000 76.2642
#
#
#
# Elastic Compliance Matrix: (Units=1/GPa)
#
#
# Indices 1 2 3 4 5 6 
#
# 1 0.013777 -0.003060 -0.001609 0.000000 0.000000 0.000000
# 2 -0.003060 0.005859 -0.000921 0.000000 0.000000 0.000000
# 3 -0.001609 -0.000921 0.013496 0.000000 0.000000 0.000000
# 4 0.000000 0.000000 0.000000 0.070052 0.000000 0.000000
# 5 0.000000 0.000000 0.000000 0.000000 0.063432 0.000000
# 6 0.000000 0.000000 0.000000 0.000000 0.000000 0.013112
#
#
# Mechanical properties :
#
#
# Convention : Reuss Voigt Hill
#
# Bulk Modulus (GPa) = 45.55046 57.30762 51.42904
# Shear Modulus (GPa) = 25.22379 39.97853 32.60116
#
# Velocity S-wave (km/s) = 3.21977 4.05352 3.66046
# Velocity P-wave (km/s) = 5.70470 6.74250 6.24519
#
# Compressibility (1/GPa) = 0.02195368
#
# Stress axis : x y z
#
# Youngs Moduli (GPa) = 72.58229 170.68304 74.09614
#
# Poissons Ratio (x) = 0.52225 0.11921
# Poissons Ratio (y) = 0.22209 0.06822
# Poissons Ratio (z) = 0.11677 0.15714
#
# Static dielectric constant tensor:
#      x y z
#    x 1.876210 0.000000 0.000000 
#    y 0.000000 1.866750 0.000000 
#    z 0.000000 0.000000 2.089940 
# 
# From -- ./inp_files/8560.got.cif
#   From: 2010.05.17/outbox.cif.g08.bks.cpg/sg56_5_cif.got.tgz:8560.got - 2010.06.03 13:42:01.
