data_PCOD9433541
_publ_section_title
;
Structure prediction by ZEFSAII (Michael W. Deem and Ramdas Pophale) SiO2 
 PCOD9433541
Probable space group: P C C N
;
_chemical_formula_sum "Si O2"
_cell_formula_units_Z 40
_cell_length_a 18.714093
_cell_length_b 9.820258
_cell_length_c 9.320533
_cell_angle_alpha 90.000000
_cell_angle_beta 90.000000
_cell_angle_gamma 90.000000
_cell_volume 1712.901658
_symmetry_space_group_name_H-M "P C C N"
_symmetry_group_IT_number 56
_symmetry_cell_setting 'orthorhombic'
loop_
_space_group_symop_operation_xyz
x,y,z
1/2-x,1/2-y,z
1/2+x,-y,1/2-z
-x,1/2+y,1/2-z
-x,-y,-z
1/2+x,1/2+y,-z
1/2-x,y,1/2+z
x,1/2-y,1/2+z
loop_
_atom_site_type_symbol
_atom_site_label
_atom_site_fract_x
_atom_site_fract_y
_atom_site_fract_z
Si Si1 0.083652 0.467835 0.028430
Si Si2 0.316284 0.537411 0.258549
Si Si3 0.089568 0.148024 0.071275
Si Si4 0.442042 0.550377 0.832509
Si Si5 0.812716 0.323594 0.656264
O O1 0.095785 0.308567 0.061391
O O2 0.093609 0.545860 0.177855
O O3 0.135955 0.507037 0.899502
O O4 0.000000 0.500000 0.000000
O O5 0.342911 0.432663 0.137710
O O6 0.268546 0.542236 0.793296
O O7 0.327470 0.699336 0.232945
O O8 0.021739 0.104367 0.168675
O O9 0.065142 0.091363 0.915665
O O10 0.387473 0.646925 0.917660
O O11 0.750000 0.250000 0.563645
#
# Coordination Sequence:
#
# PCOD9433541 Si02
#       5
#     8   8   8   8   8
#     4  12  23  40  66  95 134 178 222 277 338 397
#     4   9  21  44  66  94 132 175 223 277 334 409
#     4  11  24  41  64 101 134 171 228 279 337 401
#     4  11  24  39  66  99 129 175 220 283 333 398
#     4   8  22  45  70  95 131 177 224 273 341 415
#
# _framework density 23.352188000000002
#
# number of rings (size 3 to 8) (size 9 to 14) (size 15 to 20)
#    1.200    0.400    2.000    2.400    0.000    4.800 
#    7.200    6.000    0.000    0.000    0.000    0.000 
#    0.000    0.000    0.000    0.000    0.000    0.000 
#
# Total GULP energy -222682.617106 kJ/mol
# GULP energy per Si atom -5567.065428 kJ/mol
# Density = 2.329904 g / cm^3
# Si number density = 23.352188 Si / 1000 Ang^3
#
#
#
# Elastic Constant Matrix: (Units=GPa)
#
#
# Indices 1 2 3 4 5 6 
#
# 1 108.9477 16.6909 25.6076 0.0000 0.0000 0.0000
# 2 16.6909 109.6739 30.0248 0.0000 0.0000 0.0000
# 3 25.6076 30.0248 87.4200 0.0000 0.0000 0.0000
# 4 0.0000 0.0000 0.0000 9.3548 0.0000 0.0000
# 5 0.0000 0.0000 0.0000 0.0000 15.8895 0.0000
# 6 0.0000 0.0000 0.0000 0.0000 0.0000 32.9113
#
#
#
# Elastic Compliance Matrix: (Units=1/GPa)
#
#
# Indices 1 2 3 4 5 6 
#
# 1 0.009919 -0.000788 -0.002635 0.000000 0.000000 0.000000
# 2 -0.000788 0.010127 -0.003247 0.000000 0.000000 0.000000
# 3 -0.002635 -0.003247 0.013326 0.000000 0.000000 0.000000
# 4 0.000000 0.000000 0.000000 0.106897 0.000000 0.000000
# 5 0.000000 0.000000 0.000000 0.000000 0.062935 0.000000
# 6 0.000000 0.000000 0.000000 0.000000 0.000000 0.030385
#
#
# Mechanical properties :
#
#
# Convention : Reuss Voigt Hill
#
# Bulk Modulus (GPa) = 49.92175 50.07646 49.99911
# Shear Modulus (GPa) = 19.71566 27.21234 23.46400
#
# Velocity S-wave (km/s) = 2.90879 3.41735 3.17328
# Velocity P-wave (km/s) = 5.71888 6.08783 5.90624
#
# Compressibility (1/GPa) = 0.02003135
#
# Stress axis : x y z
#
# Youngs Moduli (GPa) = 100.81908 98.74719 75.04069
#
# Poissons Ratio (x) = 0.07783 0.19771
# Poissons Ratio (y) = 0.07947 0.24368
# Poissons Ratio (z) = 0.26563 0.32066
#
# Static dielectric constant tensor:
#      x y z
#    x 2.052540 0.000000 0.000000 
#    y 0.000000 1.945410 0.000000 
#    z 0.000000 0.000000 2.005220 
# 
# From -- ./inp_files/4683.got.cif
#   From: 2010.05.17/outbox.cif.g08.bks.cpg/sg56_3_cif.got.tgz:4683.got - 2010.06.03 13:42:01.
