data_PCOD9433702
_publ_section_title
;
Structure prediction by ZEFSAII (Michael W. Deem and Ramdas Pophale) SiO2 
 PCOD9433702
Probable space group: P C C N
;
_chemical_formula_sum "Si O2"
_cell_formula_units_Z 60
_cell_length_a 11.088364
_cell_length_b 20.410812
_cell_length_c 10.693161
_cell_angle_alpha 90.000000
_cell_angle_beta 90.000000
_cell_angle_gamma 90.000000
_cell_volume 2420.103069
_symmetry_space_group_name_H-M "P C C N"
_symmetry_group_IT_number 56
_symmetry_cell_setting 'orthorhombic'
loop_
_space_group_symop_operation_xyz
x,y,z
1/2-x,1/2-y,z
1/2+x,-y,1/2-z
-x,1/2+y,1/2-z
-x,-y,-z
1/2+x,1/2+y,-z
1/2-x,y,1/2+z
x,1/2-y,1/2+z
loop_
_atom_site_type_symbol
_atom_site_label
_atom_site_fract_x
_atom_site_fract_y
_atom_site_fract_z
Si Si1 0.750000 0.750000 0.786920
Si Si2 0.446240 0.073444 0.889778
Si Si3 0.950949 0.850492 0.211095
Si Si4 0.134382 0.001085 0.769621
Si Si5 0.107555 0.134530 0.157322
Si Si6 0.392659 0.676069 0.974511
Si Si7 0.111100 0.830146 0.454441
Si Si8 0.228555 0.488247 0.534961
O O1 0.646148 0.790961 0.714195
O O2 0.815474 0.802284 0.875297
O O3 0.366792 0.120190 0.802512
O O4 0.541521 0.117711 0.961201
O O5 0.359327 0.033672 0.980981
O O6 0.513227 0.028705 0.787886
O O7 0.885298 0.920248 0.233258
O O8 0.031317 0.854597 0.087144
O O9 0.047289 0.837324 0.320863
O O10 0.239018 0.980540 0.670064
O O11 0.163761 0.981800 0.912755
O O12 0.150698 0.074873 0.073228
O O13 0.968331 0.154166 0.145986
O O14 0.402131 0.754345 0.993122
O O15 0.253762 0.657480 0.960946
#
# Coordination Sequence:
#
# PCOD9433702 Si02
#       8
#     4   8   8   8   8   8   8   8
#     4  12  22  44  80 108 150 182 248 326 386 448
#     4  12  27  48  72 104 150 198 246 299 378 443
#     4  12  24  45  73 110 141 197 245 306 389 438
#     4  12  27  47  75 107 149 191 249 308 370 457
#     4  12  25  45  73 113 144 191 244 317 381 446
#     4  11  27  44  70 107 147 191 243 304 371 458
#     4  11  26  46  70 101 150 195 244 300 370 460
#     4  12  24  50  72 110 145 187 254 312 375 442
#
# _framework density 24.792334
#
# number of rings (size 3 to 8) (size 9 to 14) (size 15 to 20)
#    0.000    0.267    6.667    1.200    1.867    4.267 
#    0.000    0.000    0.000    0.000    0.000    0.000 
#    0.000    0.000    0.000    0.000    0.000    0.000 
#
# Total GULP energy -336010.132397 kJ/mol
# GULP energy per Si atom -5600.168873 kJ/mol
# Density = 2.473591 g / cm^3
# Si number density = 24.792334 Si / 1000 Ang^3
#
#
#
# Elastic Constant Matrix: (Units=GPa)
#
#
# Indices 1 2 3 4 5 6 
#
# 1 142.0999 17.1489 22.4208 0.0000 0.0000 0.0000
# 2 17.1489 71.5711 3.4647 0.0000 0.0000 0.0000
# 3 22.4208 3.4647 100.6889 0.0000 0.0000 0.0000
# 4 0.0000 0.0000 0.0000 22.6152 0.0000 0.0000
# 5 0.0000 0.0000 0.0000 0.0000 44.9760 0.0000
# 6 0.0000 0.0000 0.0000 0.0000 0.0000 40.7775
#
#
#
# Elastic Compliance Matrix: (Units=1/GPa)
#
#
# Indices 1 2 3 4 5 6 
#
# 1 0.007499 -0.001719 -0.001611 0.000000 0.000000 0.000000
# 2 -0.001719 0.014389 -0.000112 0.000000 0.000000 0.000000
# 3 -0.001611 -0.000112 0.010294 0.000000 0.000000 0.000000
# 4 0.000000 0.000000 0.000000 0.044218 0.000000 0.000000
# 5 0.000000 0.000000 0.000000 0.000000 0.022234 0.000000
# 6 0.000000 0.000000 0.000000 0.000000 0.000000 0.024523
#
#
# Mechanical properties :
#
#
# Convention : Reuss Voigt Hill
#
# Bulk Modulus (GPa) = 39.52786 44.49210 42.00998
# Shear Modulus (GPa) = 36.10775 39.76211 37.93493
#
# Velocity S-wave (km/s) = 3.82043 4.00910 3.91590
# Velocity P-wave (km/s) = 5.95308 6.27817 6.11778
#
# Compressibility (1/GPa) = 0.02529861
#
# Stress axis : x y z
#
# Youngs Moduli (GPa) = 133.35356 69.49565 97.14304
#
# Poissons Ratio (x) = 0.11945 0.15646
# Poissons Ratio (y) = 0.22921 0.01092
# Poissons Ratio (z) = 0.21479 0.00781
#
# Static dielectric constant tensor:
#      x y z
#    x 1.973280 0.000000 0.000000 
#    y 0.000000 2.014900 0.000000 
#    z 0.000000 0.000000 1.986230 
# 
# From -- ./inp_files/7313.got.cif
#   From: 2010.05.17/outbox.cif.g08.bks.cpg/sg56_4_cif.got.tgz:7313.got - 2010.06.03 13:42:01.
