data_PCOD9433652
_publ_section_title
;
Structure prediction by ZEFSAII (Michael W. Deem and Ramdas Pophale) SiO2 
 PCOD9433652
Probable space group: P C C N
;
_chemical_formula_sum "Si O2"
_cell_formula_units_Z 56
_cell_length_a 15.516450
_cell_length_b 8.979013
_cell_length_c 19.596942
_cell_angle_alpha 90.000000
_cell_angle_beta 90.000000
_cell_angle_gamma 90.000000
_cell_volume 2730.293115
_symmetry_space_group_name_H-M "P C C N"
_symmetry_group_IT_number 56
_symmetry_cell_setting 'orthorhombic'
loop_
_space_group_symop_operation_xyz
x,y,z
1/2-x,1/2-y,z
1/2+x,-y,1/2-z
-x,1/2+y,1/2-z
-x,-y,-z
1/2+x,1/2+y,-z
1/2-x,y,1/2+z
x,1/2-y,1/2+z
loop_
_atom_site_type_symbol
_atom_site_label
_atom_site_fract_x
_atom_site_fract_y
_atom_site_fract_z
Si Si1 0.990771 0.575365 0.926634
Si Si2 0.843411 0.304003 0.241425
Si Si3 0.850107 0.220172 0.098383
Si Si4 0.417699 0.574326 0.033356
Si Si5 0.652984 0.805257 0.385666
Si Si6 0.339428 0.161198 0.775884
Si Si7 0.015707 0.785179 0.649928
O O1 0.917218 0.699813 0.921683
O O2 0.969301 0.458016 0.867298
O O3 0.083856 0.646475 0.914587
O O4 0.000000 0.500000 0.000000
O O5 0.750000 0.250000 0.268305
O O6 0.866942 0.192300 0.178523
O O7 0.834024 0.478967 0.219354
O O8 0.919679 0.282888 0.294758
O O9 0.750000 0.250000 0.098589
O O10 0.864275 0.116414 0.033598
O O11 0.363659 0.467103 0.082514
O O12 0.457973 0.703760 0.079918
O O13 0.500000 0.500000 0.000000
O O14 0.750000 0.750000 0.398224
O O15 0.639242 0.808329 0.304016
O O16 0.250000 0.250000 0.790831
O O17 0.417302 0.221455 0.823272
#
# Coordination Sequence:
#
# PCOD9433652 Si02
#       7
#     8   8   8   8   8   8   8
#     4  12  24  46  66 104 141 180 236 292 355 423
#     4  11  26  46  71 106 141 187 240 294 362 424
#     4  11  25  45  71  98 144 183 233 295 349 423
#     4  12  25  47  70 103 139 187 237 285 358 426
#     4  11  26  45  71 103 144 185 237 299 350 421
#     4  11  26  46  70 109 142 183 242 298 358 423
#     4  12  26  43  78  99 141 189 234 293 357 431
#
# _framework density 20.510618999999998
#
# number of rings (size 3 to 8) (size 9 to 14) (size 15 to 20)
#    0.000    0.571    5.714    0.857    6.000    2.857 
#    0.000    0.714    0.000    0.000    0.000    0.000 
#    0.000    0.000    0.000    0.000    0.000    0.000 
#
# Total GULP energy -312413.498267 kJ/mol
# GULP energy per Si atom -5578.812469 kJ/mol
# Density = 2.046394 g / cm^3
# Si number density = 20.510619 Si / 1000 Ang^3
#
#
#
# Elastic Constant Matrix: (Units=GPa)
#
#
# Indices 1 2 3 4 5 6 
#
# 1 84.9819 28.0302 24.2844 0.0000 0.0000 0.0000
# 2 28.0302 63.2209 -4.2187 0.0000 0.0000 0.0000
# 3 24.2844 -4.2187 63.5025 0.0000 0.0000 0.0000
# 4 0.0000 0.0000 0.0000 14.6753 0.0000 0.0000
# 5 0.0000 0.0000 0.0000 0.0000 70.4862 0.0000
# 6 0.0000 0.0000 0.0000 0.0000 0.0000 19.6150
#
#
#
# Elastic Compliance Matrix: (Units=1/GPa)
#
#
# Indices 1 2 3 4 5 6 
#
# 1 0.016199 -0.007629 -0.006701 0.000000 0.000000 0.000000
# 2 -0.007629 0.019481 0.004212 0.000000 0.000000 0.000000
# 3 -0.006701 0.004212 0.018590 0.000000 0.000000 0.000000
# 4 0.000000 0.000000 0.000000 0.068142 0.000000 0.000000
# 5 0.000000 0.000000 0.000000 0.000000 0.014187 0.000000
# 6 0.000000 0.000000 0.000000 0.000000 0.000000 0.050981
#
#
# Mechanical properties :
#
#
# Convention : Reuss Voigt Hill
#
# Bulk Modulus (GPa) = 29.38416 34.21077 31.79747
# Shear Modulus (GPa) = 22.81424 31.86262 27.33843
#
# Velocity S-wave (km/s) = 3.33875 3.94568 3.65484
# Velocity P-wave (km/s) = 5.40560 6.12157 5.77469
#
# Compressibility (1/GPa) = 0.03403194
#
# Stress axis : x y z
#
# Youngs Moduli (GPa) = 61.73383 51.33181 53.79253
#
# Poissons Ratio (x) = 0.39162 0.36049
# Poissons Ratio (y) = 0.47097 -0.22656
# Poissons Ratio (z) = 0.41370 -0.21619
#
# Static dielectric constant tensor:
#      x y z
#    x 1.690650 0.000000 0.000000 
#    y 0.000000 1.761910 0.000000 
#    z 0.000000 0.000000 1.689780 
# 
# From -- ./inp_files/19118.got.cif
#   From: 2010.05.17/outbox.cif.g08.bks.cpg/sg56_10_cif.got.tgz:19118.got - 2010.06.03 13:42:01.
