data_PCOD9433279
_publ_section_title
;
Structure prediction by ZEFSAII (Michael W. Deem and Ramdas Pophale) SiO2 
 PCOD9433279
Probable space group: P C C N
;
_chemical_formula_sum "Si O2"
_cell_formula_units_Z 32
_cell_length_a 16.532275
_cell_length_b 7.012070
_cell_length_c 12.774509
_cell_angle_alpha 90.000000
_cell_angle_beta 90.000000
_cell_angle_gamma 90.000000
_cell_volume 1480.890954
_symmetry_space_group_name_H-M "P C C N"
_symmetry_group_IT_number 56
_symmetry_cell_setting 'orthorhombic'
loop_
_space_group_symop_operation_xyz
x,y,z
1/2-x,1/2-y,z
1/2+x,-y,1/2-z
-x,1/2+y,1/2-z
-x,-y,-z
1/2+x,1/2+y,-z
1/2-x,y,1/2+z
x,1/2-y,1/2+z
loop_
_atom_site_type_symbol
_atom_site_label
_atom_site_fract_x
_atom_site_fract_y
_atom_site_fract_z
Si Si1 0.181391 0.012307 0.424345
Si Si2 0.903969 0.512896 0.875930
Si Si3 0.860914 0.936181 0.137678
Si Si4 0.457636 0.732856 0.961208
O O1 0.175602 0.029782 0.551049
O O2 0.150631 0.210411 0.376038
O O3 0.272470 0.980310 0.389521
O O4 0.114898 0.851761 0.401464
O O5 0.886194 0.513176 0.754925
O O6 0.961400 0.688675 0.908859
O O7 0.948093 0.323271 0.922583
O O8 0.928715 0.019157 0.059331
#
# Coordination Sequence:
#
# PCOD9433279 Si02
#       4
#     8   8   8   8
#     4   9  22  41  57  95 123 152 219 254 302 398
#     4   9  22  41  60  93 128 157 215 265 303 383
#     4  11  21  39  67  85 125 169 201 257 324 358
#     4   9  21  43  57  90 128 155 216 258 304 387
#
# _framework density 21.608612999999998
#
# number of rings (size 3 to 8) (size 9 to 14) (size 15 to 20)
#    1.500    1.000    0.000    0.750    3.500    5.000 
#   13.500    0.000    0.000    0.000    0.000    0.000 
#    0.000    0.000    0.000    0.000    0.000    0.000 
#
# Total GULP energy -178424.352469 kJ/mol
# GULP energy per Si atom -5575.761015 kJ/mol
# Density = 2.155943 g / cm^3
# Si number density = 21.608613 Si / 1000 Ang^3
#
#
#
# Elastic Constant Matrix: (Units=GPa)
#
#
# Indices 1 2 3 4 5 6 
#
# 1 93.7517 -0.8409 41.3289 0.0000 0.0000 0.0000
# 2 -0.8409 57.8868 8.0618 0.0000 0.0000 0.0000
# 3 41.3289 8.0618 113.2919 0.0000 0.0000 0.0000
# 4 0.0000 0.0000 0.0000 13.3000 0.0000 0.0000
# 5 0.0000 0.0000 0.0000 0.0000 22.1136 0.0000
# 6 0.0000 0.0000 0.0000 0.0000 0.0000 32.9205
#
#
#
# Elastic Compliance Matrix: (Units=1/GPa)
#
#
# Indices 1 2 3 4 5 6 
#
# 1 0.012751 0.000841 -0.004711 0.000000 0.000000 0.000000
# 2 0.000841 0.017504 -0.001552 0.000000 0.000000 0.000000
# 3 -0.004711 -0.001552 0.010656 0.000000 0.000000 0.000000
# 4 0.000000 0.000000 0.000000 0.075188 0.000000 0.000000
# 5 0.000000 0.000000 0.000000 0.000000 0.045221 0.000000
# 6 0.000000 0.000000 0.000000 0.000000 0.000000 0.030376
#
#
# Mechanical properties :
#
#
# Convention : Reuss Voigt Hill
#
# Bulk Modulus (GPa) = 33.26079 40.22554 36.74317
# Shear Modulus (GPa) = 23.52247 28.09218 25.80732
#
# Velocity S-wave (km/s) = 3.30293 3.60953 3.45962
# Velocity P-wave (km/s) = 5.47463 6.00229 5.74452
#
# Compressibility (1/GPa) = 0.03006543
#
# Stress axis : x y z
#
# Youngs Moduli (GPa) = 78.42532 57.13131 93.84414
#
# Poissons Ratio (x) = -0.04807 0.44214
# Poissons Ratio (y) = -0.06599 0.14569
# Poissons Ratio (z) = 0.36950 0.08870
#
# Static dielectric constant tensor:
#      x y z
#    x 1.804120 0.000000 0.000000 
#    y 0.000000 1.878810 0.000000 
#    z 0.000000 0.000000 1.730030 
# 
# From -- ./inp_files/12536.got.cif
#   From: 2010.05.17/outbox.cif.g08.bks.cpg/sg56_7_cif.got.tgz:12536.got - 2010.06.03 13:42:01.
