data_PCOD9433524
_publ_section_title
;
Structure prediction by ZEFSAII (Michael W. Deem and Ramdas Pophale) SiO2 
 PCOD9433524
Probable space group: P C C N
;
_chemical_formula_sum "Si O2"
_cell_formula_units_Z 40
_cell_length_a 13.677163
_cell_length_b 11.788941
_cell_length_c 11.115645
_cell_angle_alpha 90.000000
_cell_angle_beta 90.000000
_cell_angle_gamma 90.000000
_cell_volume 1792.278459
_symmetry_space_group_name_H-M "P C C N"
_symmetry_group_IT_number 56
_symmetry_cell_setting 'orthorhombic'
loop_
_space_group_symop_operation_xyz
x,y,z
1/2-x,1/2-y,z
1/2+x,-y,1/2-z
-x,1/2+y,1/2-z
-x,-y,-z
1/2+x,1/2+y,-z
1/2-x,y,1/2+z
x,1/2-y,1/2+z
loop_
_atom_site_type_symbol
_atom_site_label
_atom_site_fract_x
_atom_site_fract_y
_atom_site_fract_z
Si Si1 0.524932 0.926233 0.383299
Si Si2 0.637960 0.988036 0.785037
Si Si3 0.452542 0.322215 0.521302
Si Si4 0.824039 0.942842 0.676842
Si Si5 0.680613 0.357297 0.490111
O O1 0.426923 0.936213 0.303455
O O2 0.609010 0.966092 0.292471
O O3 0.500000 0.000000 0.500000
O O4 0.618012 0.642942 0.588742
O O5 0.570135 0.913187 0.873292
O O6 0.715228 0.908147 0.716855
O O7 0.700101 0.070754 0.870299
O O8 0.441068 0.197014 0.573126
O O9 0.565542 0.328364 0.482902
O O10 0.808658 0.057835 0.601545
O O11 0.750000 0.250000 0.500322
#
# Coordination Sequence:
#
# PCOD9433524 Si02
#       5
#     8   8   8   8   8
#     4  12  28  46  75 108 147 196 259 302 384 462
#     4  11  25  48  75 111 152 193 257 316 381 466
#     4  11  25  49  75 103 155 203 237 328 384 443
#     4  11  25  48  71 111 152 192 255 308 379 462
#     4  11  23  46  81 111 149 200 254 318 387 442
#
# _framework density 22.317958999999998
#
# number of rings (size 3 to 8) (size 9 to 14) (size 15 to 20)
#    0.000    0.800    4.000    2.400   11.200    3.200 
#    0.000    0.000    0.000    0.000    0.000    0.000 
#    0.000    0.000    0.000    0.000    0.000    0.000 
#
# Total GULP energy -223794.106926 kJ/mol
# GULP energy per Si atom -5594.852673 kJ/mol
# Density = 2.226716 g / cm^3
# Si number density = 22.317959 Si / 1000 Ang^3
#
#
#
# Elastic Constant Matrix: (Units=GPa)
#
#
# Indices 1 2 3 4 5 6 
#
# 1 151.2909 48.2886 55.1114 0.0000 0.0000 0.0000
# 2 48.2886 132.8712 78.4937 0.0000 0.0000 0.0000
# 3 55.1114 78.4937 145.0443 0.0000 0.0000 0.0000
# 4 0.0000 0.0000 0.0000 15.0433 0.0000 0.0000
# 5 0.0000 0.0000 0.0000 0.0000 28.7209 0.0000
# 6 0.0000 0.0000 0.0000 0.0000 0.0000 29.0772
#
#
#
# Elastic Compliance Matrix: (Units=1/GPa)
#
#
# Indices 1 2 3 4 5 6 
#
# 1 0.007900 -0.001614 -0.002128 0.000000 0.000000 0.000000
# 2 -0.001614 0.011392 -0.005552 0.000000 0.000000 0.000000
# 3 -0.002128 -0.005552 0.010708 0.000000 0.000000 0.000000
# 4 0.000000 0.000000 0.000000 0.066475 0.000000 0.000000
# 5 0.000000 0.000000 0.000000 0.000000 0.034818 0.000000
# 6 0.000000 0.000000 0.000000 0.000000 0.000000 0.034391
#
#
# Mechanical properties :
#
#
# Convention : Reuss Voigt Hill
#
# Bulk Modulus (GPa) = 87.62813 88.11042 87.86928
# Shear Modulus (GPa) = 26.58489 31.05580 28.82034
#
# Velocity S-wave (km/s) = 3.45510 3.73435 3.59744
# Velocity P-wave (km/s) = 7.43409 7.62621 7.53077
#
# Compressibility (1/GPa) = 0.01141186
#
# Stress axis : x y z
#
# Youngs Moduli (GPa) = 126.57915 87.77741 93.38969
#
# Poissons Ratio (x) = 0.14165 0.19878
# Poissons Ratio (y) = 0.20426 0.51851
# Poissons Ratio (z) = 0.26942 0.48735
#
# Static dielectric constant tensor:
#      x y z
#    x 1.857400 0.000000 0.000000 
#    y 0.000000 1.807270 0.000000 
#    z 0.000000 0.000000 1.836490 
# 
# From -- ./inp_files/7642.got.cif
#   From: 2010.05.17/outbox.cif.g08.bks.cpg/sg56_4_cif.got.tgz:7642.got - 2010.06.03 13:42:01.
