data_PCOD9433153
_publ_section_title
;
Structure prediction by ZEFSAII (Michael W. Deem and Ramdas Pophale) SiO2 
 PCOD9433153
Probable space group: P C C N
;
_chemical_formula_sum "Si O2"
_cell_formula_units_Z 40
_cell_length_a 18.023842
_cell_length_b 10.776087
_cell_length_c 7.542233
_cell_angle_alpha 90.000000
_cell_angle_beta 90.000000
_cell_angle_gamma 90.000000
_cell_volume 1464.901438
_symmetry_space_group_name_H-M "P C C N"
_symmetry_group_IT_number 56
_symmetry_cell_setting 'orthorhombic'
loop_
_space_group_symop_operation_xyz
x,y,z
1/2-x,1/2-y,z
1/2+x,-y,1/2-z
-x,1/2+y,1/2-z
-x,-y,-z
1/2+x,1/2+y,-z
1/2-x,y,1/2+z
x,1/2-y,1/2+z
loop_
_atom_site_type_symbol
_atom_site_label
_atom_site_fract_x
_atom_site_fract_y
_atom_site_fract_z
Si Si1 0.230174 0.617253 0.303434
Si Si2 0.685506 0.647138 0.180481
Si Si3 0.407734 0.351276 0.160180
Si Si4 0.391531 0.573056 0.417134
Si Si5 0.929681 0.324727 0.701566
O O1 0.250000 0.750000 0.210447
O O2 0.218191 0.476563 0.233051
O O3 0.303601 0.599201 0.420105
O O4 0.149021 0.642797 0.387498
O O5 0.750000 0.750000 0.157198
O O6 0.647828 0.611859 0.995045
O O7 0.879846 0.786108 0.288779
O O8 0.401295 0.438850 0.332110
O O9 0.493648 0.355851 0.107590
O O10 0.424891 0.605645 0.609078
O O11 0.426793 0.675635 0.285599
#
# Coordination Sequence:
#
# PCOD9433153 Si02
#       5
#     8   8   8   8   8
#     4  10  26  46  78 103 147 196 255 307 369 440
#     4  12  27  48  76 107 152 201 254 308 374 459
#     4  12  28  46  76 109 154 199 251 311 383 446
#     4  11  26  46  74 107 148 199 255 312 377 454
#     4  11  27  47  74 109 153 195 253 315 377 444
#
# _framework density 27.305589999999999
#
# number of rings (size 3 to 8) (size 9 to 14) (size 15 to 20)
#    0.000    0.800    2.000    2.400   14.000    4.800 
#    0.000    0.000    0.000    0.000    0.000    0.000 
#    0.000    0.000    0.000    0.000    0.000    0.000 
#
# Total GULP energy -223801.137092 kJ/mol
# GULP energy per Si atom -5595.028427 kJ/mol
# Density = 2.724344 g / cm^3
# Si number density = 27.305590 Si / 1000 Ang^3
#
#
#
# Elastic Constant Matrix: (Units=GPa)
#
#
# Indices 1 2 3 4 5 6 
#
# 1 223.7115 45.1631 31.5389 0.0000 0.0000 0.0000
# 2 45.1631 217.1604 46.5590 0.0000 0.0000 0.0000
# 3 31.5389 46.5590 99.1104 0.0000 0.0000 0.0000
# 4 0.0000 0.0000 0.0000 28.1541 0.0000 0.0000
# 5 0.0000 0.0000 0.0000 0.0000 23.9858 0.0000
# 6 0.0000 0.0000 0.0000 0.0000 0.0000 20.2332
#
#
#
# Elastic Compliance Matrix: (Units=1/GPa)
#
#
# Indices 1 2 3 4 5 6 
#
# 1 0.004786 -0.000744 -0.001174 0.000000 0.000000 0.000000
# 2 -0.000744 0.005236 -0.002223 0.000000 0.000000 0.000000
# 3 -0.001174 -0.002223 0.011508 0.000000 0.000000 0.000000
# 4 0.000000 0.000000 0.000000 0.035519 0.000000 0.000000
# 5 0.000000 0.000000 0.000000 0.000000 0.041691 0.000000
# 6 0.000000 0.000000 0.000000 0.000000 0.000000 0.049424
#
#
# Mechanical properties :
#
#
# Convention : Reuss Voigt Hill
#
# Bulk Modulus (GPa) = 75.47918 87.38937 81.43428
# Shear Modulus (GPa) = 31.08288 42.25602 36.66945
#
# Velocity S-wave (km/s) = 3.37758 3.93812 3.66857
# Velocity P-wave (km/s) = 6.55081 7.26307 6.91611
#
# Compressibility (1/GPa) = 0.01324869
#
# Stress axis : x y z
#
# Youngs Moduli (GPa) = 208.95937 190.97831 86.89931
#
# Poissons Ratio (x) = 0.14202 0.10198
# Poissons Ratio (y) = 0.15540 0.19319
# Poissons Ratio (z) = 0.24522 0.42457
#
# Static dielectric constant tensor:
#      x y z
#    x 2.057440 0.000000 0.000000 
#    y 0.000000 2.112200 0.000000 
#    z 0.000000 0.000000 2.161500 
# 
# From -- ./inp_files/3876.got.cif
#   From: 2010.05.17/outbox.cif.g08.bks.cpg/sg56_2_cif.got.tgz:3876.got - 2010.06.03 13:42:01.
