data_PCOD9433823
_publ_section_title
;
Structure prediction by ZEFSAII (Michael W. Deem and Ramdas Pophale) SiO2 
 PCOD9433823
Probable space group: P C C N
;
_chemical_formula_sum "Si O2"
_cell_formula_units_Z 24
_cell_length_a 4.829788
_cell_length_b 7.991088
_cell_length_c 26.401133
_cell_angle_alpha 90.000000
_cell_angle_beta 90.000000
_cell_angle_gamma 90.000000
_cell_volume 1018.958617
_symmetry_space_group_name_H-M "P C C N"
_symmetry_group_IT_number 56
_symmetry_cell_setting 'orthorhombic'
loop_
_space_group_symop_operation_xyz
x,y,z
1/2-x,1/2-y,z
1/2+x,-y,1/2-z
-x,1/2+y,1/2-z
-x,-y,-z
1/2+x,1/2+y,-z
1/2-x,y,1/2+z
x,1/2-y,1/2+z
loop_
_atom_site_type_symbol
_atom_site_label
_atom_site_fract_x
_atom_site_fract_y
_atom_site_fract_z
Si Si1 0.122854 0.934667 0.220424
Si Si2 0.865821 0.936143 0.551732
Si Si3 0.135950 0.062494 0.111165
O O1 0.250000 0.750000 0.217793
O O2 0.365999 0.052653 0.241731
O O3 0.032299 0.998347 0.165325
O O4 0.750000 0.750000 0.546106
O O5 0.610067 0.048095 0.570702
O O6 0.000000 0.000000 0.500000
O O7 0.108401 0.948126 0.593161
O O8 0.250000 0.250000 0.114308
#
# Coordination Sequence:
#
# PCOD9433823 Si02
#       3
#     8   8   8
#     4  12  25  45  71 104 142 185 231 284 343 410
#     4  12  26  47  71 101 138 183 232 286 348 414
#     4  12  26  46  71 103 140 184 232 286 345 412
#
# _framework density 23.553457000000002
#
# number of rings (size 3 to 8) (size 9 to 14) (size 15 to 20)
#    0.000    0.000    0.000   11.000    0.000    2.667 
#    0.000    0.000    0.000    0.000    0.000    0.000 
#    0.000    0.000    0.000    0.000    0.000    0.000 
#
# Total GULP energy -134751.070401 kJ/mol
# GULP energy per Si atom -5614.627933 kJ/mol
# Density = 2.349985 g / cm^3
# Si number density = 23.553457 Si / 1000 Ang^3
#
#
#
# Elastic Constant Matrix: (Units=GPa)
#
#
# Indices 1 2 3 4 5 6 
#
# 1 109.0014 20.0483 26.3899 0.0000 0.0000 0.0000
# 2 20.0483 131.3733 50.6141 0.0000 0.0000 0.0000
# 3 26.3899 50.6141 107.6819 0.0000 0.0000 0.0000
# 4 0.0000 0.0000 0.0000 29.1952 0.0000 0.0000
# 5 0.0000 0.0000 0.0000 0.0000 42.8703 0.0000
# 6 0.0000 0.0000 0.0000 0.0000 0.0000 35.3495
#
#
#
# Elastic Compliance Matrix: (Units=1/GPa)
#
#
# Indices 1 2 3 4 5 6 
#
# 1 0.009805 -0.000697 -0.002075 0.000000 0.000000 0.000000
# 2 -0.000697 0.009345 -0.004222 0.000000 0.000000 0.000000
# 3 -0.002075 -0.004222 0.011780 0.000000 0.000000 0.000000
# 4 0.000000 0.000000 0.000000 0.034252 0.000000 0.000000
# 5 0.000000 0.000000 0.000000 0.000000 0.023326 0.000000
# 6 0.000000 0.000000 0.000000 0.000000 0.000000 0.028289
#
#
# Mechanical properties :
#
#
# Convention : Reuss Voigt Hill
#
# Bulk Modulus (GPa) = 59.02612 60.24012 59.63312
# Shear Modulus (GPa) = 36.64859 38.21661 37.43260
#
# Velocity S-wave (km/s) = 3.94886 4.03246 3.99088
# Velocity P-wave (km/s) = 6.77542 6.87840 6.82710
#
# Compressibility (1/GPa) = 0.01694165
#
# Stress axis : x y z
#
# Youngs Moduli (GPa) = 101.99081 107.01304 84.89305
#
# Poissons Ratio (x) = 0.07455 0.17619
# Poissons Ratio (y) = 0.07105 0.35838
# Poissons Ratio (z) = 0.21167 0.45176
#
# Static dielectric constant tensor:
#      x y z
#    x 1.862610 0.000000 0.000000 
#    y 0.000000 1.813870 0.000000 
#    z 0.000000 0.000000 1.852360 
# 
# From -- ./inp_files/21421.got.cif
#   From: 2010.05.17/outbox.cif.g08.bks.cpg/sg56_11_cif.got.tgz:21421.got - 2010.06.03 13:42:01.
