data_PCOD9433093
_publ_section_title
;
Structure prediction by ZEFSAII (Michael W. Deem and Ramdas Pophale) SiO2 
 PCOD9433093
Probable space group: P C C N
;
_chemical_formula_sum "Si O2"
_cell_formula_units_Z 20
_cell_length_a 11.048541
_cell_length_b 4.893456
_cell_length_c 15.486808
_cell_angle_alpha 90.000000
_cell_angle_beta 90.000000
_cell_angle_gamma 90.000000
_cell_volume 837.302781
_symmetry_space_group_name_H-M "P C C N"
_symmetry_group_IT_number 56
_symmetry_cell_setting 'orthorhombic'
loop_
_space_group_symop_operation_xyz
x,y,z
1/2-x,1/2-y,z
1/2+x,-y,1/2-z
-x,1/2+y,1/2-z
-x,-y,-z
1/2+x,1/2+y,-z
1/2-x,y,1/2+z
x,1/2-y,1/2+z
loop_
_atom_site_type_symbol
_atom_site_label
_atom_site_fract_x
_atom_site_fract_y
_atom_site_fract_z
Si Si1 0.495493 0.097305 0.097908
Si Si2 0.750000 0.750000 0.819834
Si Si3 0.140851 0.396600 0.347419
O O1 0.368545 0.243845 0.121200
O O2 0.593669 0.331492 0.111475
O O3 0.535149 0.834208 0.156066
O O4 0.500000 0.000000 0.000000
O O5 0.799112 0.540570 0.745819
O O6 0.250000 0.250000 0.398226
#
# Coordination Sequence:
#
# PCOD9433093 Si02
#       3
#     8   4   8
#     4  12  25  46  71 113 148 190 253 327 388 446
#     4  10  26  44  80 102 152 204 258 304 398 462
#     4  10  25  45  74 100 150 197 260 302 385 468
#
# _framework density 23.886223000000001
#
# number of rings (size 3 to 8) (size 9 to 14) (size 15 to 20)
#    1.200    0.000    0.000    4.800    2.800    4.800 
#    7.200    0.000    0.000    0.000    0.000    0.000 
#    0.000    0.000    0.000    0.000    0.000    0.000 
#
# Total GULP energy -111377.190045 kJ/mol
# GULP energy per Si atom -5568.859502 kJ/mol
# Density = 2.383186 g / cm^3
# Si number density = 23.886223 Si / 1000 Ang^3
#
#
#
# Elastic Constant Matrix: (Units=GPa)
#
#
# Indices 1 2 3 4 5 6 
#
# 1 142.4631 66.0421 82.7889 0.0000 0.0000 0.0000
# 2 66.0421 155.7760 52.8156 0.0000 0.0000 0.0000
# 3 82.7889 52.8156 123.8143 0.0000 0.0000 0.0000
# 4 0.0000 0.0000 0.0000 102.1035 0.0000 0.0000
# 5 0.0000 0.0000 0.0000 0.0000 36.2857 0.0000
# 6 0.0000 0.0000 0.0000 0.0000 0.0000 32.0114
#
#
#
# Elastic Compliance Matrix: (Units=1/GPa)
#
#
# Indices 1 2 3 4 5 6 
#
# 1 0.012497 -0.002882 -0.007127 0.000000 0.000000 0.000000
# 2 -0.002882 0.008169 -0.001558 0.000000 0.000000 0.000000
# 3 -0.007127 -0.001558 0.013506 0.000000 0.000000 0.000000
# 4 0.000000 0.000000 0.000000 0.009794 0.000000 0.000000
# 5 0.000000 0.000000 0.000000 0.000000 0.027559 0.000000
# 6 0.000000 0.000000 0.000000 0.000000 0.000000 0.031239
#
#
# Mechanical properties :
#
#
# Convention : Reuss Voigt Hill
#
# Bulk Modulus (GPa) = 90.58114 91.70516 91.14315
# Shear Modulus (GPa) = 38.58696 48.77394 43.68045
#
# Velocity S-wave (km/s) = 4.02362 4.52367 4.28096
# Velocity P-wave (km/s) = 7.71948 8.10929 7.91678
#
# Compressibility (1/GPa) = 0.01103983
#
# Stress axis : x y z
#
# Youngs Moduli (GPa) = 80.02046 122.40755 74.03844
#
# Poissons Ratio (x) = 0.35275 0.52765
# Poissons Ratio (y) = 0.23060 0.11535
# Poissons Ratio (z) = 0.57029 0.19070
#
# Static dielectric constant tensor:
#      x y z
#    x 2.038440 0.000000 0.000000 
#    y 0.000000 1.962220 0.000000 
#    z 0.000000 0.000000 1.978170 
# 
# From -- ./inp_files/9232.got.cif
#   From: 2010.05.17/outbox.cif.g08.bks.cpg/sg56_5_cif.got.tgz:9232.got - 2010.06.03 13:42:01.
