data_PCOD9433788
_publ_section_title
;
Structure prediction by ZEFSAII (Michael W. Deem and Ramdas Pophale) SiO2 
 PCOD9433788
Probable space group: P C C N
;
_chemical_formula_sum "Si O2"
_cell_formula_units_Z 40
_cell_length_a 10.429248
_cell_length_b 8.581104
_cell_length_c 16.646415
_cell_angle_alpha 90.000000
_cell_angle_beta 90.000000
_cell_angle_gamma 90.000000
_cell_volume 1489.761950
_symmetry_space_group_name_H-M "P C C N"
_symmetry_group_IT_number 56
_symmetry_cell_setting 'orthorhombic'
loop_
_space_group_symop_operation_xyz
x,y,z
1/2-x,1/2-y,z
1/2+x,-y,1/2-z
-x,1/2+y,1/2-z
-x,-y,-z
1/2+x,1/2+y,-z
1/2-x,y,1/2+z
x,1/2-y,1/2+z
loop_
_atom_site_type_symbol
_atom_site_label
_atom_site_fract_x
_atom_site_fract_y
_atom_site_fract_z
Si Si1 0.994099 0.175873 0.937645
Si Si2 0.641018 0.124410 0.797830
Si Si3 0.763764 0.932532 0.931678
Si Si4 0.865857 0.129069 0.565990
Si Si5 0.715133 0.920181 0.666955
O O1 0.948942 0.284929 0.861666
O O2 0.136343 0.124654 0.913774
O O3 0.896919 0.029535 0.937866
O O4 0.974628 0.266725 0.022429
O O5 0.750000 0.250000 0.778088
O O6 0.707391 0.986016 0.846542
O O7 0.615294 0.032563 0.714990
O O8 0.750000 0.750000 0.935420
O O9 0.668901 0.012758 0.994811
O O10 0.750000 0.250000 0.574618
O O11 0.843917 0.020230 0.644679
O O12 0.750000 0.750000 0.702339
#
# Coordination Sequence:
#
# PCOD9433788 Si02
#       5
#     8   8   8   8   8
#     4   9  22  41  62  89 130 174 207 261 338 384
#     4   9  20  39  58  83 124 163 205 267 327 380
#     4   9  17  36  63  86 116 161 208 254 314 382
#     4   9  20  40  60  87 129 169 209 265 324 378
#     4  12  24  37  62  97 126 166 226 267 308 389
#
# _framework density 26.849927999999998
#
# number of rings (size 3 to 8) (size 9 to 14) (size 15 to 20)
#    0.000    2.400    0.000    4.200    0.000    8.800 
#    0.000    6.000    0.000    6.000    0.000    0.000 
#    0.000    0.000    0.000    0.000    0.000    0.000 
#
# Total GULP energy -223261.921479 kJ/mol
# GULP energy per Si atom -5581.548037 kJ/mol
# Density = 2.678882 g / cm^3
# Si number density = 26.849928 Si / 1000 Ang^3
#
#
#
# Elastic Constant Matrix: (Units=GPa)
#
#
# Indices 1 2 3 4 5 6 
#
# 1 82.1599 36.1575 10.5003 0.0000 0.0000 0.0000
# 2 36.1575 230.7487 50.1306 0.0000 0.0000 0.0000
# 3 10.5003 50.1306 83.0418 0.0000 0.0000 0.0000
# 4 0.0000 0.0000 0.0000 61.8856 0.0000 0.0000
# 5 0.0000 0.0000 0.0000 0.0000 21.9800 0.0000
# 6 0.0000 0.0000 0.0000 0.0000 0.0000 50.2431
#
#
#
# Elastic Compliance Matrix: (Units=1/GPa)
#
#
# Indices 1 2 3 4 5 6 
#
# 1 0.013089 -0.001947 -0.000480 0.000000 0.000000 0.000000
# 2 -0.001947 0.005277 -0.002940 0.000000 0.000000 0.000000
# 3 -0.000480 -0.002940 0.013877 0.000000 0.000000 0.000000
# 4 0.000000 0.000000 0.000000 0.016159 0.000000 0.000000
# 5 0.000000 0.000000 0.000000 0.000000 0.045496 0.000000
# 6 0.000000 0.000000 0.000000 0.000000 0.000000 0.019903
#
#
# Mechanical properties :
#
#
# Convention : Reuss Voigt Hill
#
# Bulk Modulus (GPa) = 46.48657 65.50302 55.99479
# Shear Modulus (GPa) = 37.96346 46.76588 42.36467
#
# Velocity S-wave (km/s) = 3.76428 4.17796 3.97650
# Velocity P-wave (km/s) = 6.02031 6.90816 6.47946
#
# Compressibility (1/GPa) = 0.02151159
#
# Stress axis : x y z
#
# Youngs Moduli (GPa) = 76.39721 189.48590 72.05938
#
# Poissons Ratio (x) = 0.36890 0.03458
# Poissons Ratio (y) = 0.14873 0.21183
# Poissons Ratio (z) = 0.03666 0.55703
#
# Static dielectric constant tensor:
#      x y z
#    x 2.107530 0.000000 0.000000 
#    y 0.000000 2.132490 0.000000 
#    z 0.000000 0.000000 2.161730 
# 
# From -- ./inp_files/15427.got.cif
#   From: 2010.05.17/outbox.cif.g08.bks.cpg/sg56_8_cif.got.tgz:15427.got - 2010.06.03 13:42:01.
