data_PCOD9433779
_publ_section_title
;
Structure prediction by ZEFSAII (Michael W. Deem and Ramdas Pophale) SiO2 
 PCOD9433779
Probable space group: P C C N
;
_chemical_formula_sum "Si O2"
_cell_formula_units_Z 24
_cell_length_a 10.658338
_cell_length_b 9.515705
_cell_length_c 9.390960
_cell_angle_alpha 90.000000
_cell_angle_beta 90.000000
_cell_angle_gamma 90.000000
_cell_volume 952.446191
_symmetry_space_group_name_H-M "P C C N"
_symmetry_group_IT_number 56
_symmetry_cell_setting 'orthorhombic'
loop_
_space_group_symop_operation_xyz
x,y,z
1/2-x,1/2-y,z
1/2+x,-y,1/2-z
-x,1/2+y,1/2-z
-x,-y,-z
1/2+x,1/2+y,-z
1/2-x,y,1/2+z
x,1/2-y,1/2+z
loop_
_atom_site_type_symbol
_atom_site_label
_atom_site_fract_x
_atom_site_fract_y
_atom_site_fract_z
Si Si1 0.726772 0.104198 0.563214
Si Si2 0.374501 0.184255 0.468464
Si Si3 0.457970 0.697791 0.298881
O O1 0.750000 0.250000 0.476427
O O2 0.624830 0.159465 0.679284
O O3 0.860317 0.082034 0.641106
O O4 0.671022 0.970639 0.487378
O O5 0.250000 0.250000 0.401160
O O6 0.485454 0.174631 0.354598
O O7 0.425554 0.279166 0.595443
#
# Coordination Sequence:
#
# PCOD9433779 Si02
#       3
#     8   8   8
#     4   8  23  43  70  96 130 188 219 287 337 398
#     4  12  23  43  69 101 137 175 229 280 344 406
#     4   9  24  44  67  98 135 174 231 279 336 410
#
# _framework density 25.198274000000001
#
# number of rings (size 3 to 8) (size 9 to 14) (size 15 to 20)
#    2.000    0.000    0.000    2.000    4.667    6.667 
#   12.000    0.000    0.000    0.000    0.000    0.000 
#    0.000    0.000    0.000    0.000    0.000    0.000 
#
# Total GULP energy -133973.286112 kJ/mol
# GULP energy per Si atom -5582.220255 kJ/mol
# Density = 2.514092 g / cm^3
# Si number density = 25.198274 Si / 1000 Ang^3
#
#
#
# Elastic Constant Matrix: (Units=GPa)
#
#
# Indices 1 2 3 4 5 6 
#
# 1 146.4622 35.4587 17.4083 0.0000 0.0000 0.0000
# 2 35.4587 48.5611 2.9862 0.0000 0.0000 0.0000
# 3 17.4083 2.9862 60.8466 0.0000 0.0000 0.0000
# 4 0.0000 0.0000 0.0000 10.1843 0.0000 0.0000
# 5 0.0000 0.0000 0.0000 0.0000 33.6731 0.0000
# 6 0.0000 0.0000 0.0000 0.0000 0.0000 32.1161
#
#
#
# Elastic Compliance Matrix: (Units=1/GPa)
#
#
# Indices 1 2 3 4 5 6 
#
# 1 0.008565 -0.006122 -0.002150 0.000000 0.000000 0.000000
# 2 -0.006122 0.025031 0.000523 0.000000 0.000000 0.000000
# 3 -0.002150 0.000523 0.017024 0.000000 0.000000 0.000000
# 4 0.000000 0.000000 0.000000 0.098191 0.000000 0.000000
# 5 0.000000 0.000000 0.000000 0.000000 0.029697 0.000000
# 6 0.000000 0.000000 0.000000 0.000000 0.000000 0.031137
#
#
# Mechanical properties :
#
#
# Convention : Reuss Voigt Hill
#
# Bulk Modulus (GPa) = 28.47208 40.84181 34.65694
# Shear Modulus (GPa) = 21.11030 28.52913 24.81971
#
# Velocity S-wave (km/s) = 2.89756 3.36845 3.14184
# Velocity P-wave (km/s) = 4.74534 5.60107 5.19087
#
# Compressibility (1/GPa) = 0.03512213
#
# Stress axis : x y z
#
# Youngs Moduli (GPa) = 116.74810 39.95078 58.73976
#
# Poissons Ratio (x) = 0.24459 0.12630
# Poissons Ratio (y) = 0.71475 -0.03073
# Poissons Ratio (z) = 0.25102 -0.02090
#
# Static dielectric constant tensor:
#      x y z
#    x 2.024190 0.000000 0.000000 
#    y 0.000000 2.015640 0.000000 
#    z 0.000000 0.000000 1.931970 
# 
# From -- ./inp_files/5815.got.cif
#   From: 2010.05.17/outbox.cif.g08.bks.cpg/sg56_3_cif.got.tgz:5815.got - 2010.06.03 13:42:01.
