data_PCOD9433934
_publ_section_title
;
Structure prediction by ZEFSAII (Michael W. Deem and Ramdas Pophale) SiO2 
 PCOD9433934
Probable space group: P C C N
;
_chemical_formula_sum "Si O2"
_cell_formula_units_Z 60
_cell_length_a 18.000000
_cell_length_b 18.000000
_cell_length_c 9.000000
_cell_angle_alpha 90.000000
_cell_angle_beta 90.000000
_cell_angle_gamma 90.000000
_cell_volume 2916.000000
_symmetry_space_group_name_H-M "P C C N"
_symmetry_group_IT_number 56
_symmetry_cell_setting 'orthorhombic'
loop_
_space_group_symop_operation_xyz
x,y,z
1/2-x,1/2-y,z
1/2+x,-y,1/2-z
-x,1/2+y,1/2-z
-x,-y,-z
1/2+x,1/2+y,-z
1/2-x,y,1/2+z
x,1/2-y,1/2+z
loop_
_atom_site_type_symbol
_atom_site_label
_atom_site_fract_x
_atom_site_fract_y
_atom_site_fract_z
Si Si1 0.420138 0.478951 0.929282
Si Si2 0.905525 0.273870 0.545181
Si Si3 0.500564 0.553316 0.357550
Si Si4 0.801438 0.101128 0.978412
Si Si5 0.657407 0.114263 0.146087
Si Si6 0.250000 0.250000 0.185807
Si Si7 0.149388 0.315422 0.426875
Si Si8 0.008238 0.282598 0.264123
O O1 0.442003 0.483924 0.756235
O O2 0.388735 0.395516 0.953434
O O3 0.500000 0.500000 0.000000
O O4 0.357517 0.534423 0.985928
O O5 0.837405 0.329241 0.566074
O O6 0.874456 0.190720 0.573565
O O7 0.942580 0.292365 0.386121
O O8 0.974692 0.280564 0.658675
O O9 0.500000 0.500000 0.500000
O O10 0.412662 0.560795 0.322988
O O11 0.521406 0.642310 0.335334
O O12 0.803264 0.123079 0.805416
O O13 0.719262 0.083988 0.034369
O O14 0.211954 0.310202 0.296664
O O15 0.312224 0.284355 0.075618
O O16 0.082058 0.266595 0.357567
#
# Coordination Sequence:
#
# PCOD9433934 Si02
#       8
#     8   8   8   8   8   4   8   8
#     4  11  23  46  71  93 141 183 230 292 342 430
#     4  11  21  41  66  94 139 173 232 280 330 409
#     4  10  22  45  64  96 132 177 238 282 343 412
#     4  12  25  42  65  98 140 184 225 277 358 417
#     4  11  26  42  63  99 137 178 231 281 341 422
#     4  10  22  44  72  98 138 176 218 304 344 420
#     4  10  22  43  68 104 132 173 232 277 361 402
#     4  10  21  39  67  97 130 173 229 288 333 411
#
# _framework density 20.576132000000001
#
# number of rings (size 3 to 8) (size 9 to 14) (size 15 to 20)
#    0.000    1.333    4.000    2.000    3.733    3.200 
#    2.400    2.667    0.000    0.000    0.000    0.000 
#    0.000    0.000    0.000    0.000    0.000    0.000 
#
# Total GULP energy -334354.871399 kJ/mol
# GULP energy per Si atom -5572.581190 kJ/mol
# Density = 2.052930 g / cm^3
# Si number density = 20.576132 Si / 1000 Ang^3
#
#
#
# Elastic Constant Matrix: (Units=GPa)
#
#
# Indices 1 2 3 4 5 6 
#
# 1 91.4502 18.4204 18.7557 0.0000 0.0000 0.0000
# 2 18.4204 61.1113 37.2627 0.0000 0.0000 0.0000
# 3 18.7557 37.2627 83.2407 0.0000 0.0000 0.0000
# 4 0.0000 0.0000 0.0000 28.3922 0.0000 0.0000
# 5 0.0000 0.0000 0.0000 0.0000 52.1886 0.0000
# 6 0.0000 0.0000 0.0000 0.0000 0.0000 33.2855
#
#
#
# Elastic Compliance Matrix: (Units=1/GPa)
#
#
# Indices 1 2 3 4 5 6 
#
# 1 0.011770 -0.002656 -0.001463 0.000000 0.000000 0.000000
# 2 -0.002656 0.023106 -0.009745 0.000000 0.000000 0.000000
# 3 -0.001463 -0.009745 0.016705 0.000000 0.000000 0.000000
# 4 0.000000 0.000000 0.000000 0.035221 0.000000 0.000000
# 5 0.000000 0.000000 0.000000 0.000000 0.019161 0.000000
# 6 0.000000 0.000000 0.000000 0.000000 0.000000 0.030043
#
#
# Mechanical properties :
#
#
# Convention : Reuss Voigt Hill
#
# Bulk Modulus (GPa) = 41.92219 42.74223 42.33221
# Shear Modulus (GPa) = 29.12295 33.53080 31.32688
#
# Velocity S-wave (km/s) = 3.76623 4.04121 3.90614
# Velocity P-wave (km/s) = 6.27145 6.52633 6.40016
#
# Compressibility (1/GPa) = 0.02385371
#
# Stress axis : x y z
#
# Youngs Moduli (GPa) = 84.96247 43.27856 59.86071
#
# Poissons Ratio (x) = 0.11493 0.08759
# Poissons Ratio (y) = 0.22562 0.58335
# Poissons Ratio (z) = 0.12432 0.42175
#
# Static dielectric constant tensor:
#      x y z
#    x 1.762150 0.000000 0.000000 
#    y 0.000000 1.746000 0.000000 
#    z 0.000000 0.000000 1.793250 
# 
# From -- ./inp_files/4154.got.cif
#   From: 2010.05.17/outbox.ucp.g08.bks.cvg/sg56_3_cif.got.tgz:4154.got - 2010.06.11 16:37:52.
