data_PCOD9433987
_publ_section_title
;
Structure prediction by ZEFSAII (Michael W. Deem and Ramdas Pophale) SiO2 
 PCOD9433987
Probable space group: P B C M
;
_chemical_formula_sum "Si O2"
_cell_formula_units_Z 40
_cell_length_a 14.604827
_cell_length_b 18.854461
_cell_length_c 8.551306
_cell_angle_alpha 90.000000
_cell_angle_beta 90.000000
_cell_angle_gamma 90.000000
_cell_volume 2354.740134
_symmetry_space_group_name_H-M "P B C M"
_symmetry_group_IT_number 57
_symmetry_cell_setting 'orthorhombic'
loop_
_space_group_symop_operation_xyz
x,y,z
-x,-y,1/2+z
x,1/2-y,-z
-x,1/2+y,1/2-z
-x,-y,-z
x,y,1/2-z
-x,1/2+y,z
x,1/2-y,1/2+z
loop_
_atom_site_type_symbol
_atom_site_label
_atom_site_fract_x
_atom_site_fract_y
_atom_site_fract_z
Si Si1 0.532370 0.422740 0.064263
Si Si2 0.286712 0.532916 0.435762
Si Si3 0.645716 0.882199 0.935703
Si Si4 0.824653 0.822587 0.062098
Si Si5 0.902242 0.523699 0.938390
O O1 0.524779 0.422694 0.250000
O O2 0.500000 0.500000 0.000000
O O3 0.638373 0.416207 0.014723
O O4 0.458198 0.369243 0.990972
O O5 0.290010 0.543808 0.250000
O O6 0.321750 0.453567 0.475407
O O7 0.181048 0.528518 0.489227
O O8 0.646782 0.893873 0.750000
O O9 0.723796 0.827789 0.985532
O O10 0.817213 0.821485 0.250000
O O11 0.876822 0.895275 0.015673
O O12 0.868524 0.750000 0.000000
O O13 0.902553 0.522367 0.750000
O O14 0.000000 0.500000 0.000000
#
# Coordination Sequence:
#
# PCOD9433987 Si02
#       5
#     8   8   8   8   8
#     4  10  16  23  37  59  86 117 148 180 216 264
#     4   9  16  27  40  60  89 119 151 191 232 277
#     4  10  17  26  41  62  88 120 150 183 225 274
#     4  10  20  34  49  70  96 125 159 198 240 292
#     4   9  19  32  48  69  96 125 160 204 250 295
#
# _framework density 16.987012
#
# number of rings (size 3 to 8) (size 9 to 14) (size 15 to 20)
#    0.000    2.400    0.000    8.400    0.000    4.800 
#    0.000    0.000    0.000    0.000    0.000    1.400 
#    0.000    6.400    0.000    0.000    0.000    0.000 
#
# Total GULP energy -222669.184874 kJ/mol
# GULP energy per Si atom -5566.729622 kJ/mol
# Density = 1.694835 g / cm^3
# Si number density = 16.987012 Si / 1000 Ang^3
#
#
#
# Elastic Constant Matrix: (Units=GPa)
#
#
# Indices 1 2 3 4 5 6 
#
# 1 143.1523 33.1901 18.8636 0.0000 0.0000 0.0000
# 2 33.1901 40.3668 5.3861 0.0000 0.0000 0.0000
# 3 18.8636 5.3861 45.4629 0.0000 0.0000 0.0000
# 4 0.0000 0.0000 0.0000 16.6187 0.0000 0.0000
# 5 0.0000 0.0000 0.0000 0.0000 31.5502 0.0000
# 6 0.0000 0.0000 0.0000 0.0000 0.0000 12.6325
#
#
#
# Elastic Compliance Matrix: (Units=1/GPa)
#
#
# Indices 1 2 3 4 5 6 
#
# 1 0.008992 -0.007007 -0.002901 0.000000 0.000000 0.000000
# 2 -0.007007 0.030630 -0.000722 0.000000 0.000000 0.000000
# 3 -0.002901 -0.000722 0.023285 0.000000 0.000000 0.000000
# 4 0.000000 0.000000 0.000000 0.060173 0.000000 0.000000
# 5 0.000000 0.000000 0.000000 0.000000 0.031696 0.000000
# 6 0.000000 0.000000 0.000000 0.000000 0.000000 0.079161
#
#
# Mechanical properties :
#
#
# Convention : Reuss Voigt Hill
#
# Bulk Modulus (GPa) = 24.01011 38.20681 31.10846
# Shear Modulus (GPa) = 18.58195 23.59644 21.08919
#
# Velocity S-wave (km/s) = 3.31099 3.73109 3.52730
# Velocity P-wave (km/s) = 5.36488 6.41108 5.91117
#
# Compressibility (1/GPa) = 0.04164912
#
# Stress axis : x y z
#
# Youngs Moduli (GPa) = 111.20608 32.64774 42.94578
#
# Poissons Ratio (x) = 0.22875 0.12459
# Poissons Ratio (y) = 0.77917 0.03099
# Poissons Ratio (z) = 0.32261 0.02356
#
# Static dielectric constant tensor:
#      x y z
#    x 1.649990 0.000000 0.000000 
#    y 0.000000 1.620770 0.000000 
#    z 0.000000 0.000000 1.567270 
# 
# From -- ./inp_files/4806.got.cif
#   From: 2010.05.17/outbox.cif.g08.bks.cpg/sg57_3_cif.got.tgz:4806.got - 2010.06.03 13:58:18.
