data_PCOD9433205
_publ_section_title
;
Structure prediction by ZEFSAII (Michael W. Deem and Ramdas Pophale) SiO2 
 PCOD9433205
Probable space group: P C C N
;
_chemical_formula_sum "Si O2"
_cell_formula_units_Z 64
_cell_length_a 24.700626
_cell_length_b 7.163374
_cell_length_c 14.248603
_cell_angle_alpha 90.000000
_cell_angle_beta 90.000000
_cell_angle_gamma 90.000000
_cell_volume 2521.145280
_symmetry_space_group_name_H-M "P C C N"
_symmetry_group_IT_number 56
_symmetry_cell_setting 'orthorhombic'
loop_
_space_group_symop_operation_xyz
x,y,z
1/2-x,1/2-y,z
1/2+x,-y,1/2-z
-x,1/2+y,1/2-z
-x,-y,-z
1/2+x,1/2+y,-z
1/2-x,y,1/2+z
x,1/2-y,1/2+z
loop_
_atom_site_type_symbol
_atom_site_label
_atom_site_fract_x
_atom_site_fract_y
_atom_site_fract_z
Si Si1 0.937284 0.317183 0.787150
Si Si2 0.768395 0.469246 0.324503
Si Si3 0.994396 0.361826 0.115141
Si Si4 0.372295 0.485272 0.864138
Si Si5 0.629893 0.359289 0.932366
Si Si6 0.824037 0.939985 0.445319
Si Si7 0.252950 0.525397 0.379515
Si Si8 0.572401 0.684051 0.538153
O O1 0.963942 0.478394 0.849639
O O2 0.886722 0.397401 0.727694
O O3 0.917327 0.151705 0.854975
O O4 0.977861 0.255410 0.705155
O O5 0.750000 0.250000 0.325124
O O6 0.819200 0.478456 0.393933
O O7 0.715869 0.584375 0.357923
O O8 0.783276 0.511336 0.217906
O O9 0.943726 0.479381 0.075027
O O10 0.022650 0.256651 0.028336
O O11 0.308254 0.455297 0.868472
O O12 0.410887 0.305856 0.872305
O O13 0.386152 0.586376 0.962825
O O14 0.651759 0.147701 0.936906
O O15 0.875232 0.815627 0.470885
O O16 0.784458 0.940566 0.534274
O O17 0.250000 0.750000 0.395099
#
# Coordination Sequence:
#
# PCOD9433205 Si02
#       8
#     8   8   8   8   8   8   8   8
#     4  12  26  46  77 102 139 180 240 302 355 422
#     4   9  19  34  61  98 131 170 225 274 328 408
#     4  11  27  49  70 104 134 187 241 307 358 420
#     4  12  25  44  71 105 139 190 233 286 361 433
#     4  11  22  41  70 106 130 184 236 287 343 418
#     4  11  19  42  66  94 143 180 222 285 348 413
#     4  11  20  36  68 102 137 182 233 276 340 429
#     4  11  27  46  70  97 147 189 236 295 367 414
#
# _framework density 25.385286000000001
#
# number of rings (size 3 to 8) (size 9 to 14) (size 15 to 20)
#    0.000    1.000    3.750    4.125    5.250    1.000 
#    0.000    0.000    2.750    0.000    0.000    0.000 
#    0.000    0.000    0.000    0.000    0.000    0.000 
#
# Total GULP energy -358616.323836 kJ/mol
# GULP energy per Si atom -5603.380060 kJ/mol
# Density = 2.532751 g / cm^3
# Si number density = 25.385286 Si / 1000 Ang^3
#
#
#
# Elastic Constant Matrix: (Units=GPa)
#
#
# Indices 1 2 3 4 5 6 
#
# 1 82.1947 17.4169 24.9728 0.0000 0.0000 0.0000
# 2 17.4169 45.5324 6.1625 0.0000 0.0000 0.0000
# 3 24.9728 6.1625 110.7778 0.0000 0.0000 0.0000
# 4 0.0000 0.0000 0.0000 30.0594 0.0000 0.0000
# 5 0.0000 0.0000 0.0000 0.0000 40.7709 0.0000
# 6 0.0000 0.0000 0.0000 0.0000 0.0000 29.0103
#
#
#
# Elastic Compliance Matrix: (Units=1/GPa)
#
#
# Indices 1 2 3 4 5 6 
#
# 1 0.014108 -0.005004 -0.002902 0.000000 0.000000 0.000000
# 2 -0.005004 0.023904 -0.000202 0.000000 0.000000 0.000000
# 3 -0.002902 -0.000202 0.009693 0.000000 0.000000 0.000000
# 4 0.000000 0.000000 0.000000 0.033267 0.000000 0.000000
# 5 0.000000 0.000000 0.000000 0.000000 0.024527 0.000000
# 6 0.000000 0.000000 0.000000 0.000000 0.000000 0.034471
#
#
# Mechanical properties :
#
#
# Convention : Reuss Voigt Hill
#
# Bulk Modulus (GPa) = 31.75695 37.28993 34.52344
# Shear Modulus (GPa) = 29.99733 32.63164 31.31448
#
# Velocity S-wave (km/s) = 3.44129 3.58921 3.51603
# Velocity P-wave (km/s) = 5.32232 5.64784 5.48749
#
# Compressibility (1/GPa) = 0.03148917
#
# Stress axis : x y z
#
# Youngs Moduli (GPa) = 70.88041 41.83448 103.17236
#
# Poissons Ratio (x) = 0.20933 0.29941
# Poissons Ratio (y) = 0.35468 0.02081
# Poissons Ratio (z) = 0.20570 0.00844
#
# Static dielectric constant tensor:
#      x y z
#    x 1.996800 0.000000 0.000000 
#    y 0.000000 2.052840 0.000000 
#    z 0.000000 0.000000 1.930920 
# 
# From -- ./inp_files/13302.got.cif
#   From: 2010.05.17/outbox.cif.g08.bks.cpg/sg56_7_cif.got.tgz:13302.got - 2010.06.03 13:42:01.
