data_PCOD9433125
_publ_section_title
;
Structure prediction by ZEFSAII (Michael W. Deem and Ramdas Pophale) SiO2 
 PCOD9433125
Probable space group: P C C N
;
_chemical_formula_sum "Si O2"
_cell_formula_units_Z 28
_cell_length_a 14.146987
_cell_length_b 5.312288
_cell_length_c 15.333235
_cell_angle_alpha 90.000000
_cell_angle_beta 90.000000
_cell_angle_gamma 90.000000
_cell_volume 1152.336606
_symmetry_space_group_name_H-M "P C C N"
_symmetry_group_IT_number 56
_symmetry_cell_setting 'orthorhombic'
loop_
_space_group_symop_operation_xyz
x,y,z
1/2-x,1/2-y,z
1/2+x,-y,1/2-z
-x,1/2+y,1/2-z
-x,-y,-z
1/2+x,1/2+y,-z
1/2-x,y,1/2+z
x,1/2-y,1/2+z
loop_
_atom_site_type_symbol
_atom_site_label
_atom_site_fract_x
_atom_site_fract_y
_atom_site_fract_z
Si Si1 0.084256 0.990530 0.572451
Si Si2 0.353651 0.778763 0.313394
Si Si3 0.750000 0.250000 0.516343
Si Si4 0.451356 0.487143 0.184606
O O1 0.191306 0.957298 0.535850
O O2 0.071258 0.733706 0.627570
O O3 0.076485 0.245085 0.628147
O O4 0.000000 0.000000 0.500000
O O5 0.250000 0.750000 0.271343
O O6 0.329434 0.836718 0.414034
O O7 0.400013 0.522406 0.277693
O O8 0.437513 0.969777 0.294964
#
# Coordination Sequence:
#
# PCOD9433125 Si02
#       4
#     8   8   4   8
#     4  12  26  51  76 115 155 206 256 328 387 463
#     4  10  25  52  78 116 153 208 258 321 385 464
#     4  10  26  50  78 116 156 204 262 318 394 460
#     4  12  26  52  80 110 160 204 262 320 393 461
#
# _framework density 24.298455000000001
#
# number of rings (size 3 to 8) (size 9 to 14) (size 15 to 20)
#    0.857    0.000    2.857    2.571    2.000    1.143 
#    5.143   15.714    0.000    0.000    0.000    0.000 
#    0.000    0.000    0.000    0.000    0.000    0.000 
#
# Total GULP energy -156000.350436 kJ/mol
# GULP energy per Si atom -5571.441087 kJ/mol
# Density = 2.424315 g / cm^3
# Si number density = 24.298455 Si / 1000 Ang^3
#
#
#
# Elastic Constant Matrix: (Units=GPa)
#
#
# Indices 1 2 3 4 5 6 
#
# 1 184.6602 75.0934 50.8061 0.0000 0.0000 0.0000
# 2 75.0934 181.7920 77.8163 0.0000 0.0000 0.0000
# 3 50.8061 77.8163 106.6650 0.0000 0.0000 0.0000
# 4 0.0000 0.0000 0.0000 8.4474 0.0000 0.0000
# 5 0.0000 0.0000 0.0000 0.0000 -6.0192 0.0000
# 6 0.0000 0.0000 0.0000 0.0000 0.0000 48.1003
#
#
#
# Elastic Compliance Matrix: (Units=1/GPa)
#
#
# Indices 1 2 3 4 5 6 
#
# 1 0.006716 -0.002043 -0.001709 0.000000 0.000000 0.000000
# 2 -0.002043 0.008620 -0.005316 0.000000 0.000000 0.000000
# 3 -0.001709 -0.005316 0.014067 0.000000 0.000000 0.000000
# 4 0.000000 0.000000 0.000000 0.118380 0.000000 0.000000
# 5 0.000000 0.000000 0.000000 0.000000 -0.166136 0.000000
# 6 0.000000 0.000000 0.000000 0.000000 0.000000 0.020790
#
#
# Mechanical properties :
#
#
# Convention : Reuss Voigt Hill
#
# Bulk Modulus (GPa) = 88.73985 97.83876 93.28931
# Shear Modulus (GPa) = 205.53091 28.06580 116.79835
#
# Velocity S-wave (km/s) = 9.20704 3.40228 6.94065
# Velocity P-wave (km/s) = 12.23218 7.46906 10.13442
#
# Compressibility (1/GPa) = 0.01126889
#
# Stress axis : x y z
#
# Youngs Moduli (GPa) = 148.89331 116.00942 71.08880
#
# Poissons Ratio (x) = 0.23700 0.12147
# Poissons Ratio (y) = 0.30417 0.37788
# Poissons Ratio (z) = 0.25441 0.61665
#
# Static dielectric constant tensor:
#      x y z
#    x 1.963620 0.000000 0.000000 
#    y 0.000000 1.902530 0.000000 
#    z 0.000000 0.000000 2.062690 
# 
# From -- ./inp_files/9974.got.cif
#   From: 2010.05.17/outbox.cif.g08.bks.cpg/sg56_5_cif.got.tgz:9974.got - 2010.06.03 13:42:01.
