data_PCOD9433960
_publ_section_title
;
Structure prediction by ZEFSAII (Michael W. Deem and Ramdas Pophale) SiO2 
 PCOD9433960
Probable space group: P C C N
;
_chemical_formula_sum "Si O2"
_cell_formula_units_Z 56
_cell_length_a 6.000000
_cell_length_b 30.000000
_cell_length_c 15.000000
_cell_angle_alpha 90.000000
_cell_angle_beta 90.000000
_cell_angle_gamma 90.000000
_cell_volume 2700.000000
_symmetry_space_group_name_H-M "P C C N"
_symmetry_group_IT_number 56
_symmetry_cell_setting 'orthorhombic'
loop_
_space_group_symop_operation_xyz
x,y,z
1/2-x,1/2-y,z
1/2+x,-y,1/2-z
-x,1/2+y,1/2-z
-x,-y,-z
1/2+x,1/2+y,-z
1/2-x,y,1/2+z
x,1/2-y,1/2+z
loop_
_atom_site_type_symbol
_atom_site_label
_atom_site_fract_x
_atom_site_fract_y
_atom_site_fract_z
Si Si1 0.716598 0.172894 0.849220
Si Si2 0.029643 0.442726 0.093590
Si Si3 0.001363 0.773188 0.807298
Si Si4 0.692646 0.471877 0.952474
Si Si5 0.489319 0.408851 0.798857
Si Si6 0.567453 0.710679 0.018618
Si Si7 0.838116 0.621916 0.058307
O O1 0.542729 0.192728 0.775820
O O2 0.883860 0.138824 0.799028
O O3 0.577266 0.142879 0.918845
O O4 0.864188 0.207266 0.909404
O O5 0.020704 0.426773 0.196758
O O6 0.132914 0.492214 0.087371
O O7 0.801858 0.445333 0.035686
O O8 0.167580 0.410248 0.027424
O O9 0.750000 0.750000 0.793787
O O10 0.994655 0.786786 0.912909
O O11 0.250000 0.750000 0.801726
O O12 0.613712 0.441716 0.869348
O O13 0.500000 0.500000 0.000000
O O14 0.255432 0.401172 0.851384
O O15 0.750000 0.750000 0.036132
O O16 0.685972 0.663708 0.034406
#
# Coordination Sequence:
#
# PCOD9433960 Si02
#       7
#     8   8   8   8   8   8   8
#     4  11  27  45  72 102 149 184 245 301 370 445
#     4  11  26  43  73  98 142 185 236 300 368 438
#     4  11  29  48  74 109 146 194 255 305 375 451
#     4  11  24  46  65 102 140 183 242 298 357 449
#     4  11  26  44  69 105 140 193 236 299 372 442
#     4  10  27  48  74 103 143 196 240 306 371 443
#     4  11  25  45  69 104 140 184 244 291 369 439
#
# _framework density 20.740741
#
# number of rings (size 3 to 8) (size 9 to 14) (size 15 to 20)
#    0.000    1.143    2.857    0.000   16.000    1.143 
#    0.000    0.000    0.000    0.000    0.000    0.000 
#    0.000    0.000    0.000    0.000    0.000    0.000 
#
# Total GULP energy -312344.634862 kJ/mol
# GULP energy per Si atom -5577.582765 kJ/mol
# Density = 2.069353 g / cm^3
# Si number density = 20.740741 Si / 1000 Ang^3
#
#
#
# Elastic Constant Matrix: (Units=GPa)
#
#
# Indices 1 2 3 4 5 6 
#
# 1 93.7213 38.4573 46.0545 0.0000 0.0000 0.0000
# 2 38.4573 88.9749 62.1553 0.0000 0.0000 0.0000
# 3 46.0545 62.1553 199.1172 0.0000 0.0000 0.0000
# 4 0.0000 0.0000 0.0000 48.3270 0.0000 0.0000
# 5 0.0000 0.0000 0.0000 0.0000 44.5880 0.0000
# 6 0.0000 0.0000 0.0000 0.0000 0.0000 45.9682
#
#
#
# Elastic Compliance Matrix: (Units=1/GPa)
#
#
# Indices 1 2 3 4 5 6 
#
# 1 0.013381 -0.004631 -0.001649 0.000000 0.000000 0.000000
# 2 -0.004631 0.015976 -0.003916 0.000000 0.000000 0.000000
# 3 -0.001649 -0.003916 0.006626 0.000000 0.000000 0.000000
# 4 0.000000 0.000000 0.000000 0.020692 0.000000 0.000000
# 5 0.000000 0.000000 0.000000 0.000000 0.022428 0.000000
# 6 0.000000 0.000000 0.000000 0.000000 0.000000 0.021754
#
#
# Mechanical properties :
#
#
# Convention : Reuss Voigt Hill
#
# Bulk Modulus (GPa) = 64.14289 75.01640 69.57964
# Shear Modulus (GPa) = 39.54223 43.45308 41.49765
#
# Velocity S-wave (km/s) = 4.37109 4.58215 4.47786
# Velocity P-wave (km/s) = 7.51454 8.01510 7.76886
#
# Compressibility (1/GPa) = 0.01559019
#
# Stress axis : x y z
#
# Youngs Moduli (GPa) = 74.73405 62.59195 150.92136
#
# Poissons Ratio (x) = 0.28989 0.24889
# Poissons Ratio (y) = 0.34613 0.59099
# Poissons Ratio (z) = 0.12325 0.24510
#
# Static dielectric constant tensor:
#      x y z
#    x 1.835270 0.000000 0.000000 
#    y 0.000000 1.805700 0.000000 
#    z 0.000000 0.000000 1.697290 
# 
# From -- ./inp_files/9799.got.cif
#   From: 2010.05.17/outbox.ucp.g08.bks.cvg/sg56_5_cif.got.tgz:9799.got - 2010.06.11 16:37:52.
