data_PCOD9433224
_publ_section_title
;
Structure prediction by ZEFSAII (Michael W. Deem and Ramdas Pophale) SiO2 
 PCOD9433224
Probable space group: P C C N
;
_chemical_formula_sum "Si O2"
_cell_formula_units_Z 44
_cell_length_a 15.477214
_cell_length_b 5.220696
_cell_length_c 25.451565
_cell_angle_alpha 90.000000
_cell_angle_beta 90.000000
_cell_angle_gamma 90.000000
_cell_volume 2056.533009
_symmetry_space_group_name_H-M "P C C N"
_symmetry_group_IT_number 56
_symmetry_cell_setting 'orthorhombic'
loop_
_space_group_symop_operation_xyz
x,y,z
1/2-x,1/2-y,z
1/2+x,-y,1/2-z
-x,1/2+y,1/2-z
-x,-y,-z
1/2+x,1/2+y,-z
1/2-x,y,1/2+z
x,1/2-y,1/2+z
loop_
_atom_site_type_symbol
_atom_site_label
_atom_site_fract_x
_atom_site_fract_y
_atom_site_fract_z
Si Si1 0.025287 0.312120 0.638654
Si Si2 0.250000 0.250000 0.426582
Si Si3 0.826040 0.562009 0.918975
Si Si4 0.085762 0.182586 0.352019
Si Si5 0.250000 0.750000 0.177744
Si Si6 0.152442 0.361359 0.734225
Si Si7 0.750000 0.250000 0.002272
O O1 0.089777 0.229757 0.591872
O O2 0.081796 0.277914 0.691659
O O3 0.985447 0.596136 0.637374
O O4 0.951608 0.099476 0.638971
O O5 0.166607 0.220916 0.389909
O O6 0.235783 0.504974 0.461096
O O7 0.750000 0.750000 0.936445
O O8 0.792556 0.446837 0.863616
O O9 0.826840 0.336582 0.962058
O O10 0.116918 0.190545 0.291692
O O11 0.325918 0.650405 0.215454
O O12 0.250000 0.250000 0.730550
#
# Coordination Sequence:
#
# PCOD9433224 Si02
#       7
#     8   4   8   8   4   8   4
#     4  12  25  45  69 112 143 182 234 300 355 414
#     4  12  26  54  68 100 138 204 246 284 374 434
#     4  11  22  44  76 111 137 180 235 311 380 422
#     4  12  29  45  70  97 155 194 237 285 346 444
#     4  11  20  37  74 104 148 183 228 291 342 444
#     4  12  24  41  69 108 145 193 232 278 346 433
#     4  11  26  45  84 100 132 189 250 307 364 454
#
# _framework density 21.395230000000002
#
# number of rings (size 3 to 8) (size 9 to 14) (size 15 to 20)
#    0.000    0.364    5.455    3.273    5.091    0.727 
#    0.000    5.455    0.000    0.000    0.000    0.000 
#    0.000    0.000    0.000    0.000    0.000    0.000 
#
# Total GULP energy -245782.855448 kJ/mol
# GULP energy per Si atom -5585.973987 kJ/mol
# Density = 2.134653 g / cm^3
# Si number density = 21.395230 Si / 1000 Ang^3
#
#
#
# Elastic Constant Matrix: (Units=GPa)
#
#
# Indices 1 2 3 4 5 6 
#
# 1 68.1772 2.3380 32.7974 0.0000 0.0000 0.0000
# 2 2.3380 87.9969 34.9054 0.0000 0.0000 0.0000
# 3 32.7974 34.9054 112.8666 0.0000 0.0000 0.0000
# 4 0.0000 0.0000 0.0000 -82.3880 0.0000 0.0000
# 5 0.0000 0.0000 0.0000 0.0000 17.2554 0.0000
# 6 0.0000 0.0000 0.0000 0.0000 0.0000 41.7168
#
#
#
# Elastic Compliance Matrix: (Units=1/GPa)
#
#
# Indices 1 2 3 4 5 6 
#
# 1 0.017284 0.001747 -0.005563 0.000000 0.000000 0.000000
# 2 0.001747 0.013130 -0.004568 0.000000 0.000000 0.000000
# 3 -0.005563 -0.004568 0.011889 0.000000 0.000000 0.000000
# 4 0.000000 0.000000 0.000000 -0.012138 0.000000 0.000000
# 5 0.000000 0.000000 0.000000 0.000000 0.057953 0.000000
# 6 0.000000 0.000000 0.000000 0.000000 0.000000 0.023971
#
#
# Mechanical properties :
#
#
# Convention : Reuss Voigt Hill
#
# Bulk Modulus (GPa) = 39.16146 45.45803 42.30975
# Shear Modulus (GPa) = 36.39850 8.58350 22.49100
#
# Velocity S-wave (km/s) = 4.12909 2.00514 3.24576
# Velocity P-wave (km/s) = 6.40906 5.16272 5.81935
#
# Compressibility (1/GPa) = 0.02553531
#
# Stress axis : x y z
#
# Youngs Moduli (GPa) = 57.85768 76.16328 84.10936
#
# Poissons Ratio (x) = -0.13308 0.46788
# Poissons Ratio (y) = -0.10110 0.38423
# Poissons Ratio (z) = 0.32185 0.34793
#
# Static dielectric constant tensor:
#      x y z
#    x 1.791980 0.000000 0.000000 
#    y 0.000000 1.885380 0.000000 
#    z 0.000000 0.000000 1.758900 
# 
# From -- ./inp_files/22411.got.cif
#   From: 2010.05.17/outbox.cif.g08.bks.cpg/sg56_12_cif.got.tgz:22411.got - 2010.06.03 13:42:01.
