data_PCOD9433112
_publ_section_title
;
Structure prediction by ZEFSAII (Michael W. Deem and Ramdas Pophale) SiO2 
 PCOD9433112
Probable space group: P C C N
;
_chemical_formula_sum "Si O2"
_cell_formula_units_Z 40
_cell_length_a 8.759126
_cell_length_b 10.106629
_cell_length_c 18.046255
_cell_angle_alpha 90.000000
_cell_angle_beta 90.000000
_cell_angle_gamma 90.000000
_cell_volume 1597.548998
_symmetry_space_group_name_H-M "P C C N"
_symmetry_group_IT_number 56
_symmetry_cell_setting 'orthorhombic'
loop_
_space_group_symop_operation_xyz
x,y,z
1/2-x,1/2-y,z
1/2+x,-y,1/2-z
-x,1/2+y,1/2-z
-x,-y,-z
1/2+x,1/2+y,-z
1/2-x,y,1/2+z
x,1/2-y,1/2+z
loop_
_atom_site_type_symbol
_atom_site_label
_atom_site_fract_x
_atom_site_fract_y
_atom_site_fract_z
Si Si1 0.569057 0.262987 0.386901
Si Si2 0.458947 0.532629 0.897949
Si Si3 0.882263 0.866671 0.749794
Si Si4 0.340445 0.887899 0.848652
Si Si5 0.571013 0.720655 0.464006
O O1 0.750000 0.250000 0.393170
O O2 0.507350 0.325680 0.311305
O O3 0.493388 0.334167 0.458327
O O4 0.507339 0.114943 0.385963
O O5 0.538420 0.609133 0.828171
O O6 0.276732 0.535950 0.901534
O O7 0.506149 0.629625 0.962927
O O8 0.750000 0.750000 0.751350
O O9 0.838959 0.014826 0.721718
O O10 0.250000 0.750000 0.833958
O O11 0.495119 0.858074 0.894500
O O12 0.750000 0.750000 0.459858
#
# Coordination Sequence:
#
# PCOD9433112 Si02
#       5
#     8   8   8   8   8
#     4  12  28  46  73 111 151 202 252 312 378 454
#     4  11  26  45  76 104 160 190 254 306 383 449
#     4  12  27  47  78 115 149 199 253 310 378 451
#     4  10  25  47  75 106 152 195 246 313 378 449
#     4  11  26  48  75 105 147 202 254 312 377 454
#
# _framework density 25.038354000000002
#
# number of rings (size 3 to 8) (size 9 to 14) (size 15 to 20)
#    0.000    0.800    2.000    3.600   11.200    0.800 
#    0.000    0.000    0.000    0.000    0.000    0.000 
#    0.000    0.000    0.000    0.000    0.000    0.000 
#
# Total GULP energy -223487.299215 kJ/mol
# GULP energy per Si atom -5587.182480 kJ/mol
# Density = 2.498137 g / cm^3
# Si number density = 25.038354 Si / 1000 Ang^3
#
#
#
# Elastic Constant Matrix: (Units=GPa)
#
#
# Indices 1 2 3 4 5 6 
#
# 1 159.2788 17.5795 19.7335 0.0000 0.0000 0.0000
# 2 17.5795 114.7568 30.7198 0.0000 0.0000 0.0000
# 3 19.7335 30.7198 92.0662 0.0000 0.0000 0.0000
# 4 0.0000 0.0000 0.0000 80.1634 0.0000 0.0000
# 5 0.0000 0.0000 0.0000 0.0000 -5.7046 0.0000
# 6 0.0000 0.0000 0.0000 0.0000 0.0000 36.0653
#
#
#
# Elastic Compliance Matrix: (Units=1/GPa)
#
#
# Indices 1 2 3 4 5 6 
#
# 1 0.006498 -0.000684 -0.001165 0.000000 0.000000 0.000000
# 2 -0.000684 0.009641 -0.003070 0.000000 0.000000 0.000000
# 3 -0.001165 -0.003070 0.012136 0.000000 0.000000 0.000000
# 4 0.000000 0.000000 0.000000 0.012475 0.000000 0.000000
# 5 0.000000 0.000000 0.000000 0.000000 -0.175296 0.000000
# 6 0.000000 0.000000 0.000000 0.000000 0.000000 0.027727
#
#
# Mechanical properties :
#
#
# Convention : Reuss Voigt Hill
#
# Bulk Modulus (GPa) = 54.23765 55.79636 55.01700
# Shear Modulus (GPa) = -55.04425 41.97608 -6.53409
#
# Velocity S-wave (km/s) = -4.69379 4.09892 -1.61719
# Velocity P-wave (km/s) = 2.76889 6.68836 4.30508
#
# Compressibility (1/GPa) = 0.01843738
#
# Stress axis : x y z
#
# Youngs Moduli (GPa) = 153.89229 103.72682 82.40051
#
# Poissons Ratio (x) = 0.07091 0.09597
# Poissons Ratio (y) = 0.10521 0.25299
# Poissons Ratio (z) = 0.17924 0.31847
#
# Static dielectric constant tensor:
#      x y z
#    x 1.999060 0.000000 0.000000 
#    y 0.000000 2.052450 0.000000 
#    z 0.000000 0.000000 2.056820 
# 
# From -- ./inp_files/14477.got.cif
#   From: 2010.05.17/outbox.cif.g08.bks.cpg/sg56_8_cif.got.tgz:14477.got - 2010.06.03 13:42:01.
