data_PCOD9433439
_publ_section_title
;
Structure prediction by ZEFSAII (Michael W. Deem and Ramdas Pophale) SiO2 
 PCOD9433439
Probable space group: P C C N
;
_chemical_formula_sum "Si O2"
_cell_formula_units_Z 60
_cell_length_a 11.313498
_cell_length_b 13.562074
_cell_length_c 19.760744
_cell_angle_alpha 90.000000
_cell_angle_beta 90.000000
_cell_angle_gamma 90.000000
_cell_volume 3031.979817
_symmetry_space_group_name_H-M "P C C N"
_symmetry_group_IT_number 56
_symmetry_cell_setting 'orthorhombic'
loop_
_space_group_symop_operation_xyz
x,y,z
1/2-x,1/2-y,z
1/2+x,-y,1/2-z
-x,1/2+y,1/2-z
-x,-y,-z
1/2+x,1/2+y,-z
1/2-x,y,1/2+z
x,1/2-y,1/2+z
loop_
_atom_site_type_symbol
_atom_site_label
_atom_site_fract_x
_atom_site_fract_y
_atom_site_fract_z
Si Si1 0.192126 0.943471 0.343897
Si Si2 0.344968 0.476276 0.955337
Si Si3 0.930856 0.482764 0.874171
Si Si4 0.205998 0.351647 0.061483
Si Si5 0.037445 0.816648 0.516750
Si Si6 0.250000 0.750000 0.918860
Si Si7 0.755353 0.368043 0.798154
Si Si8 0.410431 0.612214 0.071646
O O1 0.257549 0.844238 0.370113
O O2 0.208716 0.933544 0.263940
O O3 0.257845 0.022432 0.391639
O O4 0.054055 0.962276 0.359671
O O5 0.475906 0.458529 0.926901
O O6 0.302424 0.393803 0.008814
O O7 0.345784 0.574584 0.002675
O O8 0.831263 0.565437 0.885555
O O9 0.938094 0.416863 0.942377
O O10 0.886061 0.407443 0.816914
O O11 0.250000 0.250000 0.092609
O O12 0.086507 0.329627 0.020084
O O13 0.139288 0.784636 0.464366
O O14 0.039642 0.722751 0.566004
O O15 0.750000 0.250000 0.785326
O O16 0.676527 0.387744 0.865143
#
# Coordination Sequence:
#
# PCOD9433439 Si02
#       8
#     8   8   8   8   8   4   8   8
#     4  12  26  43  65  98 137 180 229 284 337 412
#     4  11  23  41  64 100 138 171 221 284 345 402
#     4  12  25  44  67  96 136 180 227 282 345 413
#     4  12  23  39  64 102 136 165 218 278 347 405
#     4  12  21  38  70 100 128 166 218 285 341 398
#     4  12  22  38  66 100 130 164 228 284 332 392
#     4  12  26  45  68  99 135 185 234 279 342 420
#     4  11  23  40  67  98 135 173 222 284 338 402
#
# _framework density 19.789051000000001
#
# number of rings (size 3 to 8) (size 9 to 14) (size 15 to 20)
#    0.000    0.267    8.667    2.000    1.867    0.000 
#    0.000    1.333    0.000    0.800    0.000    0.000 
#    0.000    0.000    0.000    0.000    0.000    0.000 
#
# Total GULP energy -334754.523793 kJ/mol
# GULP energy per Si atom -5579.242063 kJ/mol
# Density = 1.974401 g / cm^3
# Si number density = 19.789051 Si / 1000 Ang^3
#
#
#
# Elastic Constant Matrix: (Units=GPa)
#
#
# Indices 1 2 3 4 5 6 
#
# 1 75.6634 12.0015 18.3932 0.0000 0.0000 0.0000
# 2 12.0015 92.6444 16.8087 0.0000 0.0000 0.0000
# 3 18.3932 16.8087 73.6044 0.0000 0.0000 0.0000
# 4 0.0000 0.0000 0.0000 17.4238 0.0000 0.0000
# 5 0.0000 0.0000 0.0000 0.0000 23.9120 0.0000
# 6 0.0000 0.0000 0.0000 0.0000 0.0000 35.9439
#
#
#
# Elastic Compliance Matrix: (Units=1/GPa)
#
#
# Indices 1 2 3 4 5 6 
#
# 1 0.014208 -0.001248 -0.003266 0.000000 0.000000 0.000000
# 2 -0.001248 0.011370 -0.002285 0.000000 0.000000 0.000000
# 3 -0.003266 -0.002285 0.014924 0.000000 0.000000 0.000000
# 4 0.000000 0.000000 0.000000 0.057393 0.000000 0.000000
# 5 0.000000 0.000000 0.000000 0.000000 0.041820 0.000000
# 6 0.000000 0.000000 0.000000 0.000000 0.000000 0.027821
#
#
# Mechanical properties :
#
#
# Convention : Reuss Voigt Hill
#
# Bulk Modulus (GPa) = 37.16681 37.36878 37.26779
# Shear Modulus (GPa) = 26.30176 28.43653 27.36915
#
# Velocity S-wave (km/s) = 3.64965 3.79487 3.72297
# Velocity P-wave (km/s) = 6.04832 6.17462 6.11180
#
# Compressibility (1/GPa) = 0.02690573
#
# Stress axis : x y z
#
# Youngs Moduli (GPa) = 70.38178 87.94950 67.00656
#
# Poissons Ratio (x) = 0.10977 0.21881
# Poissons Ratio (y) = 0.08784 0.15309
# Poissons Ratio (z) = 0.22983 0.20093
#
# Static dielectric constant tensor:
#      x y z
#    x 1.709320 0.000000 0.000000 
#    y 0.000000 1.792680 0.000000 
#    z 0.000000 0.000000 1.704540 
# 
# From -- ./inp_files/15792.got.cif
#   From: 2010.05.17/outbox.cif.g08.bks.cpg/sg56_8_cif.got.tgz:15792.got - 2010.06.03 13:42:01.
