data_PCOD9433321
_publ_section_title
;
Structure prediction by ZEFSAII (Michael W. Deem and Ramdas Pophale) SiO2 
 PCOD9433321
Probable space group: P C C N
;
_chemical_formula_sum "Si O2"
_cell_formula_units_Z 64
_cell_length_a 22.396833
_cell_length_b 5.417429
_cell_length_c 28.173357
_cell_angle_alpha 90.000000
_cell_angle_beta 90.000000
_cell_angle_gamma 90.000000
_cell_volume 3418.365042
_symmetry_space_group_name_H-M "P C C N"
_symmetry_group_IT_number 56
_symmetry_cell_setting 'orthorhombic'
loop_
_space_group_symop_operation_xyz
x,y,z
1/2-x,1/2-y,z
1/2+x,-y,1/2-z
-x,1/2+y,1/2-z
-x,-y,-z
1/2+x,1/2+y,-z
1/2-x,y,1/2+z
x,1/2-y,1/2+z
loop_
_atom_site_type_symbol
_atom_site_label
_atom_site_fract_x
_atom_site_fract_y
_atom_site_fract_z
Si Si1 0.188608 0.904688 0.495257
Si Si2 0.677475 0.246710 0.751907
Si Si3 0.404144 0.573418 0.027733
Si Si4 0.859307 0.694845 0.088455
Si Si5 0.677056 0.747264 0.305134
Si Si6 0.019655 0.291904 0.962781
Si Si7 0.820854 0.782203 0.414120
Si Si8 0.178840 0.795615 0.858647
O O1 0.250000 0.750000 0.490056
O O2 0.131752 0.729251 0.488394
O O3 0.179670 0.135615 0.459780
O O4 0.175920 0.988356 0.549559
O O5 0.750000 0.250000 0.753655
O O6 0.658280 0.500939 0.778046
O O7 0.661720 0.209909 0.696813
O O8 0.657315 0.000859 0.778871
O O9 0.455343 0.711439 0.057540
O O10 0.355865 0.434170 0.059209
O O11 0.444562 0.390764 0.997451
O O12 0.929545 0.675643 0.076304
O O13 0.846902 0.453116 0.119239
O O14 0.839828 0.949953 0.114368
O O15 0.750000 0.750000 0.304763
O O16 0.658011 0.717995 0.359989
O O17 0.000000 0.500000 0.000000
O O18 0.750000 0.750000 0.412043
O O19 0.250000 0.750000 0.862282
#
# Coordination Sequence:
#
# PCOD9433321 Si02
#       8
#     8   8   8   8   8   8   8   8
#     4  12  24  37  57  86 136 169 194 244 308 374
#     4   9  18  37  56  83 119 159 191 248 304 363
#     4  11  22  39  58  82 119 164 208 246 296 345
#     4  12  24  39  60  91 119 167 213 250 298 362
#     4   9  19  32  57  85 120 157 198 235 299 373
#     4  11  23  40  60  77 117 166 216 260 283 342
#     4  11  22  34  57  89 127 165 196 242 302 377
#     4  11  24  39  62  90 127 158 204 254 315 374
#
# _framework density 18.722401999999999
#
# number of rings (size 3 to 8) (size 9 to 14) (size 15 to 20)
#    0.000    1.250    3.750    2.250    3.500    4.500 
#    0.000    0.000    0.000    0.000    0.000    3.500 
#    0.000    0.000    0.000    0.000    0.000    0.000 
#
# Total GULP energy -356447.916878 kJ/mol
# GULP energy per Si atom -5569.498701 kJ/mol
# Density = 1.867979 g / cm^3
# Si number density = 18.722402 Si / 1000 Ang^3
#
#
#
# Elastic Constant Matrix: (Units=GPa)
#
#
# Indices 1 2 3 4 5 6 
#
# 1 79.1571 29.0351 25.2542 0.0000 0.0000 0.0000
# 2 29.0351 136.1819 69.0689 0.0000 0.0000 0.0000
# 3 25.2542 69.0689 129.5555 0.0000 0.0000 0.0000
# 4 0.0000 0.0000 0.0000 22.8788 0.0000 0.0000
# 5 0.0000 0.0000 0.0000 0.0000********** 0.0000
# 6 0.0000 0.0000 0.0000 0.0000 0.0000 35.7067
#
#
#
# Elastic Compliance Matrix: (Units=1/GPa)
#
#
# Indices 1 2 3 4 5 6 
#
# 1 0.013929 -0.002183 -0.001551 0.000000 0.000000 0.000000
# 2 -0.002183 0.010407 -0.005122 0.000000 0.000000 0.000000
# 3 -0.001551 -0.005122 0.010752 0.000000 0.000000 0.000000
# 4 0.000000 0.000000 0.000000 0.043709 0.000000 0.000000
# 5 0.000000 0.000000 0.000000 0.000000 -0.000001 0.000000
# 6 0.000000 0.000000 0.000000 0.000000 0.000000 0.028006
#
#
# Mechanical properties :
#
#
# Convention : Reuss Voigt Hill
#
# Bulk Modulus (GPa) = 57.55776 65.73455 61.64615
# Shear Modulus (GPa) = 38.37124 -322051.45887 -161006.54382
#
# Velocity S-wave (km/s) = 4.53203 -415.19560 -293.57013
# Velocity P-wave (km/s) = 7.62858 479.38989 338.93692
#
# Compressibility (1/GPa) = 0.01737385
#
# Stress axis : x y z
#
# Youngs Moduli (GPa) = 71.79395 96.09337 93.00593
#
# Poissons Ratio (x) = 0.20976 0.14429
# Poissons Ratio (y) = 0.15672 0.47642
# Poissons Ratio (z) = 0.11138 0.49223
#
# Static dielectric constant tensor:
#      x y z
#    x 1.770650 0.000000 0.000000 
#    y 0.000000 1.691880 0.000000 
#    z 0.000000 0.000000 1.730370 
# 
# From -- ./inp_files/22584.got.cif
#   From: 2010.05.17/outbox.cif.g08.bks.cpg/sg56_12_cif.got.tgz:22584.got - 2010.06.03 13:42:01.
