data_PCOD9433368
_publ_section_title
;
Structure prediction by ZEFSAII (Michael W. Deem and Ramdas Pophale) SiO2 
 PCOD9433368
Probable space group: P C C N
;
_chemical_formula_sum "Si O2"
_cell_formula_units_Z 36
_cell_length_a 6.194833
_cell_length_b 14.562727
_cell_length_c 17.268961
_cell_angle_alpha 90.000000
_cell_angle_beta 90.000000
_cell_angle_gamma 90.000000
_cell_volume 1557.896207
_symmetry_space_group_name_H-M "P C C N"
_symmetry_group_IT_number 56
_symmetry_cell_setting 'orthorhombic'
loop_
_space_group_symop_operation_xyz
x,y,z
1/2-x,1/2-y,z
1/2+x,-y,1/2-z
-x,1/2+y,1/2-z
-x,-y,-z
1/2+x,1/2+y,-z
1/2-x,y,1/2+z
x,1/2-y,1/2+z
loop_
_atom_site_type_symbol
_atom_site_label
_atom_site_fract_x
_atom_site_fract_y
_atom_site_fract_z
Si Si1 0.934955 0.410073 0.155505
Si Si2 0.763663 0.427579 0.327608
Si Si3 0.250000 0.750000 0.943336
Si Si4 0.848687 0.549292 0.560213
Si Si5 0.951725 0.702260 0.073364
O O1 0.817575 0.408768 0.238657
O O2 0.893265 0.312466 0.114454
O O3 0.798891 0.473188 0.098409
O O4 0.156952 0.469805 0.164867
O O5 0.606455 0.351753 0.367388
O O6 0.987908 0.419005 0.372982
O O7 0.433085 0.731458 0.010744
O O8 0.677128 0.622071 0.527644
O O9 0.000000 0.500000 0.500000
O O10 0.750000 0.750000 0.115589
#
# Coordination Sequence:
#
# PCOD9433368 Si02
#       5
#     8   8   4   8   8
#     4  11  24  43  69 102 136 185 234 292 355 425
#     4  11  23  45  70  97 142 182 234 286 359 424
#     4  12  26  44  66 102 138 178 240 298 352 424
#     4  11  22  41  69  96 136 186 231 287 350 427
#     4  11  24  42  65  99 137 180 232 288 353 417
#
# _framework density 23.108086
#
# number of rings (size 3 to 8) (size 9 to 14) (size 15 to 20)
#    0.000    0.889    2.222    5.333    0.000    6.222 
#    0.000    0.000    0.000    0.000    0.000    0.000 
#    0.000    0.000    0.000    0.000    0.000    0.000 
#
# Total GULP energy -200475.479652 kJ/mol
# GULP energy per Si atom -5568.763324 kJ/mol
# Density = 2.305549 g / cm^3
# Si number density = 23.108086 Si / 1000 Ang^3
#
#
#
# Elastic Constant Matrix: (Units=GPa)
#
#
# Indices 1 2 3 4 5 6 
#
# 1 34.0972 -15.1044 -3.8835 0.0000 0.0000 0.0000
# 2 -15.1044 32.0589 15.1661 0.0000 0.0000 0.0000
# 3 -3.8835 15.1661 67.9711 0.0000 0.0000 0.0000
# 4 0.0000 0.0000 0.0000 26.0390 0.0000 0.0000
# 5 0.0000 0.0000 0.0000 0.0000 24.9445 0.0000
# 6 0.0000 0.0000 0.0000 0.0000 0.0000 35.4811
#
#
#
# Elastic Compliance Matrix: (Units=1/GPa)
#
#
# Indices 1 2 3 4 5 6 
#
# 1 0.037305 0.018523 -0.002002 0.000000 0.000000 0.000000
# 2 0.018523 0.044071 -0.008775 0.000000 0.000000 0.000000
# 3 -0.002002 -0.008775 0.016556 0.000000 0.000000 0.000000
# 4 0.000000 0.000000 0.000000 0.038404 0.000000 0.000000
# 5 0.000000 0.000000 0.000000 0.000000 0.040089 0.000000
# 6 0.000000 0.000000 0.000000 0.000000 0.000000 0.028184
#
#
# Mechanical properties :
#
#
# Convention : Reuss Voigt Hill
#
# Bulk Modulus (GPa) = 8.81641 14.05375 11.43508
# Shear Modulus (GPa) = 22.03379 26.48951 24.26165
#
# Velocity S-wave (km/s) = 3.09125 3.38942 3.24376
# Velocity P-wave (km/s) = 4.06997 4.62737 4.35759
#
# Compressibility (1/GPa) = 0.11342481
#
# Stress axis : x y z
#
# Youngs Moduli (GPa) = 26.80584 22.69073 60.40211
#
# Poissons Ratio (x) = -0.42030 0.12090
# Poissons Ratio (y) = -0.49653 0.53003
# Poissons Ratio (z) = 0.05365 0.19911
#
# Static dielectric constant tensor:
#      x y z
#    x 1.814620 0.000000 0.000000 
#    y 0.000000 -0.633670 0.000000 
#    z 0.000000 0.000000 1.906210 
# 
# From -- ./inp_files/17358.got.cif
#   From: 2010.05.17/outbox.cif.g08.bks.cpg/sg56_9_cif.got.tgz:17358.got - 2010.06.03 13:42:01.
