data_PCOD9433239
_publ_section_title
;
Structure prediction by ZEFSAII (Michael W. Deem and Ramdas Pophale) SiO2 
 PCOD9433239
Probable space group: P C C N
;
_chemical_formula_sum "Si O2"
_cell_formula_units_Z 48
_cell_length_a 20.678888
_cell_length_b 13.140314
_cell_length_c 9.817958
_cell_angle_alpha 90.000000
_cell_angle_beta 90.000000
_cell_angle_gamma 90.000000
_cell_volume 2667.805074
_symmetry_space_group_name_H-M "P C C N"
_symmetry_group_IT_number 56
_symmetry_cell_setting 'orthorhombic'
loop_
_space_group_symop_operation_xyz
x,y,z
1/2-x,1/2-y,z
1/2+x,-y,1/2-z
-x,1/2+y,1/2-z
-x,-y,-z
1/2+x,1/2+y,-z
1/2-x,y,1/2+z
x,1/2-y,1/2+z
loop_
_atom_site_type_symbol
_atom_site_label
_atom_site_fract_x
_atom_site_fract_y
_atom_site_fract_z
Si Si1 0.459253 0.353225 0.857209
Si Si2 0.900591 0.436508 0.743111
Si Si3 0.690044 0.379099 0.012554
Si Si4 0.537957 0.654637 0.820250
Si Si5 0.840680 0.141697 0.511470
Si Si6 0.401818 0.558243 0.214693
O O1 0.419852 0.448703 0.796202
O O2 0.446492 0.254206 0.766561
O O3 0.534758 0.383586 0.840383
O O4 0.446913 0.338132 0.018356
O O5 0.836966 0.405943 0.660378
O O6 0.961483 0.369193 0.694263
O O7 0.885142 0.411756 0.898804
O O8 0.668055 0.262319 0.986434
O O9 0.766402 0.394789 0.005805
O O10 0.651883 0.444345 0.902131
O O11 0.574322 0.556391 0.758567
O O12 0.872291 0.116068 0.656372
#
# Coordination Sequence:
#
# PCOD9433239 Si02
#       6
#     8   8   8   8   8   8
#     4  11  23  39  63  86 117 154 191 242 295 346
#     4  11  22  39  59  88 123 150 190 243 293 341
#     4  11  20  41  57  87 123 155 195 234 292 339
#     4  11  23  39  63  86 117 154 191 242 295 346
#     4  11  24  33  63  91 115 159 195 236 282 357
#     4  11  22  39  59  88 123 150 190 243 293 341
#
# _framework density 17.992318999999998
#
# number of rings (size 3 to 8) (size 9 to 14) (size 15 to 20)
#    0.000    1.000    3.333    5.000    4.667    4.000 
#    0.000    0.000    0.000    6.000    0.000    0.000 
#    0.000    0.000    0.000    0.000    0.000    0.000 
#
# Total GULP energy -268148.110311 kJ/mol
# GULP energy per Si atom -5586.418965 kJ/mol
# Density = 1.795137 g / cm^3
# Si number density = 17.992319 Si / 1000 Ang^3
#
#
#
# Elastic Constant Matrix: (Units=GPa)
#
#
# Indices 1 2 3 4 5 6 
#
# 1 61.7847 14.7992 2.6972 0.0000 0.0000 0.0000
# 2 14.7992 73.3106 8.6130 0.0000 0.0000 0.0000
# 3 2.6972 8.6130 67.6142 0.0000 0.0000 0.0000
# 4 0.0000 0.0000 0.0000 30.2473 0.0000 0.0000
# 5 0.0000 0.0000 0.0000 0.0000 391.4667 0.0000
# 6 0.0000 0.0000 0.0000 0.0000 0.0000 14.9351
#
#
#
# Elastic Compliance Matrix: (Units=1/GPa)
#
#
# Indices 1 2 3 4 5 6 
#
# 1 0.017012 -0.003405 -0.000245 0.000000 0.000000 0.000000
# 2 -0.003405 0.014530 -0.001715 0.000000 0.000000 0.000000
# 3 -0.000245 -0.001715 0.015018 0.000000 0.000000 0.000000
# 4 0.000000 0.000000 0.000000 0.033061 0.000000 0.000000
# 5 0.000000 0.000000 0.000000 0.000000 0.002554 0.000000
# 6 0.000000 0.000000 0.000000 0.000000 0.000000 0.066956
#
#
# Mechanical properties :
#
#
# Convention : Reuss Voigt Hill
#
# Bulk Modulus (GPa) = 27.91051 28.32536 28.11793
# Shear Modulus (GPa) = 29.10290 99.10315 64.10303
#
# Velocity S-wave (km/s) = 4.02620 7.42970 5.97539
# Velocity P-wave (km/s) = 6.09589 9.45398 7.95417
#
# Compressibility (1/GPa) = 0.03582880
#
# Stress axis : x y z
#
# Youngs Moduli (GPa) = 58.78336 68.82541 66.58665
#
# Poissons Ratio (x) = 0.23438 0.01630
# Poissons Ratio (y) = 0.20018 0.11419
# Poissons Ratio (z) = 0.01439 0.11803
#
# Static dielectric constant tensor:
#      x y z
#    x 1.597870 0.000000 0.000000 
#    y 0.000000 1.611620 0.000000 
#    z 0.000000 0.000000 1.610970 
# 
# From -- ./inp_files/3481.got.cif
#   From: 2010.05.17/outbox.cif.g08.bks.cpg/sg56_2_cif.got.tgz:3481.got - 2010.06.03 13:42:01.
