data_PCOD9433241
_publ_section_title
;
Structure prediction by ZEFSAII (Michael W. Deem and Ramdas Pophale) SiO2 
 PCOD9433241
Probable space group: P C C N
;
_chemical_formula_sum "Si O2"
_cell_formula_units_Z 56
_cell_length_a 14.183848
_cell_length_b 14.700458
_cell_length_c 10.615733
_cell_angle_alpha 90.000000
_cell_angle_beta 90.000000
_cell_angle_gamma 90.000000
_cell_volume 2213.476528
_symmetry_space_group_name_H-M "P C C N"
_symmetry_group_IT_number 56
_symmetry_cell_setting 'orthorhombic'
loop_
_space_group_symop_operation_xyz
x,y,z
1/2-x,1/2-y,z
1/2+x,-y,1/2-z
-x,1/2+y,1/2-z
-x,-y,-z
1/2+x,1/2+y,-z
1/2-x,y,1/2+z
x,1/2-y,1/2+z
loop_
_atom_site_type_symbol
_atom_site_label
_atom_site_fract_x
_atom_site_fract_y
_atom_site_fract_z
Si Si1 0.600671 0.181493 0.115371
Si Si2 0.314591 0.938275 0.689543
Si Si3 0.544740 0.583889 0.729463
Si Si4 0.627815 0.674945 0.389368
Si Si5 0.066362 0.873108 0.981573
Si Si6 0.370756 0.526485 0.582995
Si Si7 0.101749 0.280778 0.377358
O O1 0.648594 0.153813 0.245538
O O2 0.486687 0.177782 0.122360
O O3 0.619040 0.281322 0.062688
O O4 0.635181 0.102994 0.022081
O O5 0.357863 0.936715 0.548689
O O6 0.203321 0.943659 0.689097
O O7 0.361547 0.025916 0.753067
O O8 0.489285 0.589680 0.861252
O O9 0.475908 0.530467 0.636260
O O10 0.561429 0.684188 0.674385
O O11 0.654557 0.577524 0.446424
O O12 0.659329 0.682936 0.243450
O O13 0.649436 0.754859 0.488812
O O14 0.984258 0.846151 0.082159
#
# Coordination Sequence:
#
# PCOD9433241 Si02
#       7
#     8   8   8   8   8   8   8
#     4  11  22  44  68  96 132 180 233 278 347 418
#     4  12  27  43  66 102 140 179 231 288 346 415
#     4  12  22  44  70  98 138 183 233 282 346 417
#     4  11  21  43  74 100 131 181 232 279 348 406
#     4  11  22  42  68 100 131 179 225 284 350 409
#     4  12  26  44  69 101 141 185 227 288 351 420
#     4  11  20  41  76  98 129 183 231 283 342 404
#
# _framework density 25.299568000000001
#
# number of rings (size 3 to 8) (size 9 to 14) (size 15 to 20)
#    0.000    0.571    8.571    1.714    2.000    0.571 
#    0.000    0.714    3.143    0.000    0.000    0.000 
#    0.000    0.000    0.000    0.000    0.000    0.000 
#
# Total GULP energy -313640.288349 kJ/mol
# GULP energy per Si atom -5600.719435 kJ/mol
# Density = 2.524199 g / cm^3
# Si number density = 25.299568 Si / 1000 Ang^3
#
#
#
# Elastic Constant Matrix: (Units=GPa)
#
#
# Indices 1 2 3 4 5 6 
#
# 1 70.7994 -4.4924 -3.4064 0.0000 0.0000 0.0000
# 2 -4.4924 69.5003 8.3564 0.0000 0.0000 0.0000
# 3 -3.4064 8.3564 120.3756 0.0000 0.0000 0.0000
# 4 0.0000 0.0000 0.0000 50.9263 0.0000 0.0000
# 5 0.0000 0.0000 0.0000 0.0000 -4.4629 0.0000
# 6 0.0000 0.0000 0.0000 0.0000 0.0000 17.6047
#
#
#
# Elastic Compliance Matrix: (Units=1/GPa)
#
#
# Indices 1 2 3 4 5 6 
#
# 1 0.014196 0.000877 0.000341 0.000000 0.000000 0.000000
# 2 0.000877 0.014564 -0.000986 0.000000 0.000000 0.000000
# 3 0.000341 -0.000986 0.008385 0.000000 0.000000 0.000000
# 4 0.000000 0.000000 0.000000 0.019636 0.000000 0.000000
# 5 0.000000 0.000000 0.000000 0.000000 -0.224069 0.000000
# 6 0.000000 0.000000 0.000000 0.000000 0.000000 0.056803
#
#
# Mechanical properties :
#
#
# Convention : Reuss Voigt Hill
#
# Bulk Modulus (GPa) = 26.58992 29.06561 27.82777
# Shear Modulus (GPa) = -50.80764 30.16147 -10.32308
#
# Velocity S-wave (km/s) = -4.48620 3.45653 -2.02218
# Velocity P-wave (km/s) = 4.03755 5.23867 2.36028
#
# Compressibility (1/GPa) = 0.03760823
#
# Stress axis : x y z
#
# Youngs Moduli (GPa) = 70.44019 68.66399 119.25434
#
# Poissons Ratio (x) = -0.06020 -0.04065
# Poissons Ratio (y) = -0.06175 0.11761
# Poissons Ratio (z) = -0.02401 0.06772
#
# Static dielectric constant tensor:
#      x y z
#    x 1.959830 0.000000 0.000000 
#    y 0.000000 1.961760 0.000000 
#    z 0.000000 0.000000 2.093380 
# 
# From -- ./inp_files/7870.got.cif
#   From: 2010.05.17/outbox.cif.g08.bks.cpg/sg56_4_cif.got.tgz:7870.got - 2010.06.03 13:42:01.
