data_PCOD9433283
_publ_section_title
;
Structure prediction by ZEFSAII (Michael W. Deem and Ramdas Pophale) SiO2 
 PCOD9433283
Probable space group: P C C N
;
_chemical_formula_sum "Si O2"
_cell_formula_units_Z 64
_cell_length_a 15.195182
_cell_length_b 19.946482
_cell_length_c 9.570544
_cell_angle_alpha 90.000000
_cell_angle_beta 90.000000
_cell_angle_gamma 90.000000
_cell_volume 2900.740241
_symmetry_space_group_name_H-M "P C C N"
_symmetry_group_IT_number 56
_symmetry_cell_setting 'orthorhombic'
loop_
_space_group_symop_operation_xyz
x,y,z
1/2-x,1/2-y,z
1/2+x,-y,1/2-z
-x,1/2+y,1/2-z
-x,-y,-z
1/2+x,1/2+y,-z
1/2-x,y,1/2+z
x,1/2-y,1/2+z
loop_
_atom_site_type_symbol
_atom_site_label
_atom_site_fract_x
_atom_site_fract_y
_atom_site_fract_z
Si Si1 0.785479 0.079322 0.174194
Si Si2 0.928397 0.836988 0.578974
Si Si3 0.019756 0.260976 0.642358
Si Si4 0.668001 0.201230 0.217476
Si Si5 0.524305 0.485017 0.840345
Si Si6 0.585484 0.443768 0.397271
Si Si7 0.920412 0.356808 0.459671
Si Si8 0.662242 0.534104 0.642167
O O1 0.702182 0.129056 0.165268
O O2 0.826379 0.086808 0.328989
O O3 0.754810 0.003399 0.149347
O O4 0.858741 0.102905 0.065730
O O5 0.945031 0.787626 0.710310
O O6 0.922523 0.793014 0.439809
O O7 0.014368 0.885980 0.572851
O O8 0.848259 0.888370 0.604260
O O9 0.921828 0.229410 0.654220
O O10 0.000316 0.324743 0.543887
O O11 0.750000 0.250000 0.196762
O O12 0.641911 0.195270 0.380420
O O13 0.453559 0.511044 0.729367
O O14 0.541896 0.405879 0.840848
O O15 0.613393 0.521315 0.789476
O O16 0.500000 0.500000 0.000000
O O17 0.607796 0.491300 0.526412
#
# Coordination Sequence:
#
# PCOD9433283 Si02
#       8
#     8   8   8   8   8   8   8   8
#     4  12  23  41  60  95 137 173 210 274 329 397
#     4  11  23  43  61  94 125 173 220 267 316 395
#     4  12  24  39  61  86 132 171 217 262 314 385
#     4  12  24  35  55  88 132 180 207 247 321 405
#     4  11  21  40  62  88 128 172 220 270 315 384
#     4  11  23  41  64  93 135 169 216 273 329 393
#     4  12  23  38  58  93 130 172 218 254 324 394
#     4  11  25  40  64  92 134 172 222 274 326 392
#
# _framework density 22.063334999999999
#
# number of rings (size 3 to 8) (size 9 to 14) (size 15 to 20)
#    0.000    0.500    6.250    3.750    3.500    0.000 
#    0.000    0.000    0.000    0.000    0.000    7.000 
#    0.000    0.000    0.000    0.000    0.000    0.000 
#
# Total GULP energy -357919.872273 kJ/mol
# GULP energy per Si atom -5592.498004 kJ/mol
# Density = 2.201312 g / cm^3
# Si number density = 22.063335 Si / 1000 Ang^3
#
#
#
# Elastic Constant Matrix: (Units=GPa)
#
#
# Indices 1 2 3 4 5 6 
#
# 1 10.9657 19.9942 -2.0770 0.0000 0.0000 0.0000
# 2 19.9942 88.8040 28.3900 0.0000 0.0000 0.0000
# 3 -2.0770 28.3900 90.3960 0.0000 0.0000 0.0000
# 4 0.0000 0.0000 0.0000 49.0887 0.0000 0.0000
# 5 0.0000 0.0000 0.0000 0.0000 22.3387 0.0000
# 6 0.0000 0.0000 0.0000 0.0000 0.0000 40.8273
#
#
#
# Elastic Compliance Matrix: (Units=1/GPa)
#
#
# Indices 1 2 3 4 5 6 
#
# 1 0.179146 -0.046299 0.018657 0.000000 0.000000 0.000000
# 2 -0.046299 0.024483 -0.008753 0.000000 0.000000 0.000000
# 3 0.018657 -0.008753 0.014240 0.000000 0.000000 0.000000
# 4 0.000000 0.000000 0.000000 0.020371 0.000000 0.000000
# 5 0.000000 0.000000 0.000000 0.000000 0.044765 0.000000
# 6 0.000000 0.000000 0.000000 0.000000 0.000000 0.024493
#
#
# Mechanical properties :
#
#
# Convention : Reuss Voigt Hill
#
# Bulk Modulus (GPa) = 6.89280 31.42002 19.15641
# Shear Modulus (GPa) = 11.66454 32.04149 21.85302
#
# Velocity S-wave (km/s) = 2.30181 3.81498 3.15058
# Velocity P-wave (km/s) = 3.19301 5.80320 4.68361
#
# Compressibility (1/GPa) = 0.14507892
#
# Stress axis : x y z
#
# Youngs Moduli (GPa) = 5.58204 40.84420 70.22414
#
# Poissons Ratio (x) = 1.89105 -1.31017
# Poissons Ratio (y) = 0.25844 0.61468
# Poissons Ratio (z) = -0.10414 0.35751
#
# Static dielectric constant tensor:
#      x y z
#    x 1.836560 0.000000 0.000000 
#    y 0.000000 1.909310 0.000000 
#    z 0.000000 0.000000 1.852190 
# 
# From -- ./inp_files/4224.got.cif
#   From: 2010.05.17/outbox.cif.g08.bks.cpg/sg56_3_cif.got.tgz:4224.got - 2010.06.03 13:42:01.
