data_PCOD9433854
_publ_section_title
;
Structure prediction by ZEFSAII (Michael W. Deem and Ramdas Pophale) SiO2 
 PCOD9433854
Probable space group: P C C N
;
_chemical_formula_sum "Si O2"
_cell_formula_units_Z 20
_cell_length_a 7.708001
_cell_length_b 5.092513
_cell_length_c 22.462712
_cell_angle_alpha 90.000000
_cell_angle_beta 90.000000
_cell_angle_gamma 90.000000
_cell_volume 881.730975
_symmetry_space_group_name_H-M "P C C N"
_symmetry_group_IT_number 56
_symmetry_cell_setting 'orthorhombic'
loop_
_space_group_symop_operation_xyz
x,y,z
1/2-x,1/2-y,z
1/2+x,-y,1/2-z
-x,1/2+y,1/2-z
-x,-y,-z
1/2+x,1/2+y,-z
1/2-x,y,1/2+z
x,1/2-y,1/2+z
loop_
_atom_site_type_symbol
_atom_site_label
_atom_site_fract_x
_atom_site_fract_y
_atom_site_fract_z
Si Si1 0.893515 0.586846 0.758783
Si Si2 0.750000 0.250000 0.362328
Si Si3 0.045970 0.247262 0.959616
O O1 0.750000 0.750000 0.721698
O O2 0.799698 0.486886 0.818379
O O3 0.963577 0.314691 0.731426
O O4 0.581459 0.222602 0.403388
O O5 0.250000 0.250000 0.944608
O O6 0.000000 0.500000 0.000000
O O7 0.000000 0.000000 0.000000
#
# Coordination Sequence:
#
# PCOD9433854 Si02
#       3
#     8   4   8
#     4  12  26  50  77 109 155 202 269 332 387 469
#     4  12  28  48  88 110 164 210 266 312 418 460
#     4  12  26  49  79 116 159 202 256 321 385 475
#
# _framework density 22.682656000000001
#
# number of rings (size 3 to 8) (size 9 to 14) (size 15 to 20)
#    0.000    0.000    8.000    0.000    5.600    1.600 
#    7.200    0.000    0.000    0.000    0.000    0.000 
#    0.000    0.000    0.000    0.000    0.000    0.000 
#
# Total GULP energy -111719.720152 kJ/mol
# GULP energy per Si atom -5585.986008 kJ/mol
# Density = 2.263103 g / cm^3
# Si number density = 22.682656 Si / 1000 Ang^3
#
#
#
# Elastic Constant Matrix: (Units=GPa)
#
#
# Indices 1 2 3 4 5 6 
#
# 1 228.7800 76.0270 82.0873 0.0000 0.0000 0.0000
# 2 76.0270 243.8922 70.3740 0.0000 0.0000 0.0000
# 3 82.0873 70.3740 103.5268 0.0000 0.0000 0.0000
# 4 0.0000 0.0000 0.0000 35.0664 0.0000 0.0000
# 5 0.0000 0.0000 0.0000 0.0000 57.2815 0.0000
# 6 0.0000 0.0000 0.0000 0.0000 0.0000 63.4359
#
#
#
# Elastic Compliance Matrix: (Units=1/GPa)
#
#
# Indices 1 2 3 4 5 6 
#
# 1 0.006188 -0.000638 -0.004472 0.000000 0.000000 0.000000
# 2 -0.000638 0.005166 -0.003006 0.000000 0.000000 0.000000
# 3 -0.004472 -0.003006 0.015249 0.000000 0.000000 0.000000
# 4 0.000000 0.000000 0.000000 0.028517 0.000000 0.000000
# 5 0.000000 0.000000 0.000000 0.000000 0.017458 0.000000
# 6 0.000000 0.000000 0.000000 0.000000 0.000000 0.015764
#
#
# Mechanical properties :
#
#
# Convention : Reuss Voigt Hill
#
# Bulk Modulus (GPa) = 96.43332 114.79731 105.61531
# Shear Modulus (GPa) = 46.28251 54.33747 50.30999
#
# Velocity S-wave (km/s) = 4.52202 4.89975 4.71467
# Velocity P-wave (km/s) = 8.35891 9.09561 8.73503
#
# Compressibility (1/GPa) = 0.01036986
#
# Stress axis : x y z
#
# Youngs Moduli (GPa) = 161.60557 193.55494 65.57875
#
# Poissons Ratio (x) = 0.12357 0.29330
# Poissons Ratio (y) = 0.10317 0.19712
# Poissons Ratio (z) = 0.72278 0.58179
#
# Static dielectric constant tensor:
#      x y z
#    x 1.905170 0.000000 0.000000 
#    y 0.000000 1.812390 0.000000 
#    z 0.000000 0.000000 1.863310 
# 
# From -- ./inp_files/13543.got.cif
#   From: 2010.05.17/outbox.cif.g08.bks.cpg/sg56_7_cif.got.tgz:13543.got - 2010.06.03 13:42:01.
