data_PCOD9433409
_publ_section_title
;
Structure prediction by ZEFSAII (Michael W. Deem and Ramdas Pophale) SiO2 
 PCOD9433409
Probable space group: P C C N
;
_chemical_formula_sum "Si O2"
_cell_formula_units_Z 60
_cell_length_a 6.615150
_cell_length_b 25.440062
_cell_length_c 16.877299
_cell_angle_alpha 90.000000
_cell_angle_beta 90.000000
_cell_angle_gamma 90.000000
_cell_volume 2840.277714
_symmetry_space_group_name_H-M "P C C N"
_symmetry_group_IT_number 56
_symmetry_cell_setting 'orthorhombic'
loop_
_space_group_symop_operation_xyz
x,y,z
1/2-x,1/2-y,z
1/2+x,-y,1/2-z
-x,1/2+y,1/2-z
-x,-y,-z
1/2+x,1/2+y,-z
1/2-x,y,1/2+z
x,1/2-y,1/2+z
loop_
_atom_site_type_symbol
_atom_site_label
_atom_site_fract_x
_atom_site_fract_y
_atom_site_fract_z
Si Si1 0.845529 0.699562 0.964317
Si Si2 0.412430 0.560791 0.698274
Si Si3 0.817716 0.147178 0.428085
Si Si4 0.030814 0.229668 0.706763
Si Si5 0.750000 0.250000 0.332496
Si Si6 0.974168 0.121024 0.063544
Si Si7 0.120696 0.619801 0.811158
Si Si8 0.261998 0.050968 0.662444
O O1 0.750000 0.750000 0.007803
O O2 0.969991 0.723378 0.888807
O O3 0.654569 0.663936 0.937805
O O4 0.001680 0.667494 0.016160
O O5 0.417196 0.606414 0.632999
O O6 0.227333 0.578831 0.753767
O O7 0.343485 0.505644 0.660842
O O8 0.611233 0.556703 0.754618
O O9 0.724168 0.199436 0.387856
O O10 0.641605 0.120094 0.480134
O O11 0.250000 0.250000 0.721374
O O12 0.912664 0.267212 0.766263
O O13 0.963776 0.171456 0.731896
O O14 0.797080 0.134770 0.126695
O O15 0.077882 0.067259 0.094480
O O16 0.922365 0.592021 0.845435
#
# Coordination Sequence:
#
# PCOD9433409 Si02
#       8
#     8   8   8   8   4   8   8   8
#     4  11  25  44  68  97 137 186 229 274 345 416
#     4  11  25  42  75 100 137 178 228 292 346 402
#     4  12  26  45  64 103 142 184 220 287 343 410
#     4  11  25  40  70 100 129 180 233 280 335 413
#     4  12  28  42  66 102 144 176 238 284 346 406
#     4  11  24  44  70  95 139 184 225 279 343 416
#     4  11  22  46  68 100 135 179 233 277 345 410
#     4  11  23  45  72 102 130 180 235 286 341 414
#
# _framework density 21.124693000000001
#
# number of rings (size 3 to 8) (size 9 to 14) (size 15 to 20)
#    0.000    0.800    5.333    0.800    5.600    3.733 
#    0.000    2.667    0.000    0.000    0.000    0.000 
#    0.000    0.000    0.000    0.000    0.000    0.000 
#
# Total GULP energy -334461.531604 kJ/mol
# GULP energy per Si atom -5574.358860 kJ/mol
# Density = 2.107661 g / cm^3
# Si number density = 21.124693 Si / 1000 Ang^3
#
#
#
# Elastic Constant Matrix: (Units=GPa)
#
#
# Indices 1 2 3 4 5 6 
#
# 1 104.6723 29.9596 49.7903 0.0000 0.0000 0.0000
# 2 29.9596 77.3156 23.7894 0.0000 0.0000 0.0000
# 3 49.7903 23.7894 82.7168 0.0000 0.0000 0.0000
# 4 0.0000 0.0000 0.0000 32.7215 0.0000 0.0000
# 5 0.0000 0.0000 0.0000 0.0000 -130.9723 0.0000
# 6 0.0000 0.0000 0.0000 0.0000 0.0000 27.4519
#
#
#
# Elastic Compliance Matrix: (Units=1/GPa)
#
#
# Indices 1 2 3 4 5 6 
#
# 1 0.014039 -0.003116 -0.007554 0.000000 0.000000 0.000000
# 2 -0.003116 0.014881 -0.002404 0.000000 0.000000 0.000000
# 3 -0.007554 -0.002404 0.017328 0.000000 0.000000 0.000000
# 4 0.000000 0.000000 0.000000 0.030561 0.000000 0.000000
# 5 0.000000 0.000000 0.000000 0.000000 -0.007635 0.000000
# 6 0.000000 0.000000 0.000000 0.000000 0.000000 0.036427
#
#
# Mechanical properties :
#
#
# Convention : Reuss Voigt Hill
#
# Bulk Modulus (GPa) = 49.75301 52.42037 51.08669
# Shear Modulus (GPa) = 36.11411 -3.41541 16.34935
#
# Velocity S-wave (km/s) = 4.13918 -1.27291 2.78500
# Velocity P-wave (km/s) = 6.81520 4.76531 5.88027
#
# Compressibility (1/GPa) = 0.02009928
#
# Stress axis : x y z
#
# Youngs Moduli (GPa) = 71.23078 67.19931 57.70912
#
# Poissons Ratio (x) = 0.20937 0.43596
# Poissons Ratio (y) = 0.22193 0.13876
# Poissons Ratio (z) = 0.53811 0.16158
#
# Static dielectric constant tensor:
#      x y z
#    x 1.711770 0.000000 0.000000 
#    y 0.000000 1.743260 0.000000 
#    z 0.000000 0.000000 1.801100 
# 
# From -- ./inp_files/14093.got.cif
#   From: 2010.05.17/outbox.cif.g08.bks.cpg/sg56_8_cif.got.tgz:14093.got - 2010.06.03 13:42:01.
