data_PCOD9433822
_publ_section_title
;
Structure prediction by ZEFSAII (Michael W. Deem and Ramdas Pophale) SiO2 
 PCOD9433822
Probable space group: P C C N
;
_chemical_formula_sum "Si O2"
_cell_formula_units_Z 32
_cell_length_a 7.642488
_cell_length_b 6.504650
_cell_length_c 29.311685
_cell_angle_alpha 90.000000
_cell_angle_beta 90.000000
_cell_angle_gamma 90.000000
_cell_volume 1457.133972
_symmetry_space_group_name_H-M "P C C N"
_symmetry_group_IT_number 56
_symmetry_cell_setting 'orthorhombic'
loop_
_space_group_symop_operation_xyz
x,y,z
1/2-x,1/2-y,z
1/2+x,-y,1/2-z
-x,1/2+y,1/2-z
-x,-y,-z
1/2+x,1/2+y,-z
1/2-x,y,1/2+z
x,1/2-y,1/2+z
loop_
_atom_site_type_symbol
_atom_site_label
_atom_site_fract_x
_atom_site_fract_y
_atom_site_fract_z
Si Si1 0.062252 0.864535 0.873012
Si Si2 0.912411 0.388920 0.042533
Si Si3 0.083948 0.346089 0.212916
Si Si4 0.750000 0.250000 0.272889
Si Si5 0.250000 0.250000 0.896582
O O1 0.250000 0.750000 0.866701
O O2 0.995686 0.770972 0.921621
O O3 0.946610 0.791807 0.831375
O O4 0.107714 0.106255 0.871423
O O5 0.750000 0.250000 0.025633
O O6 0.846107 0.579800 0.072887
O O7 0.000000 0.500000 0.000000
O O8 0.250000 0.250000 0.239435
O O9 0.148019 0.573279 0.200453
O O10 0.905397 0.342247 0.241322
#
# Coordination Sequence:
#
# PCOD9433822 Si02
#       5
#     8   8   8   4   4
#     4   9  20  39  64  95 128 176 227 274 336 409
#     4   9  19  37  58  92 129 174 222 268 331 396
#     4  12  25  45  68  99 133 178 228 279 346 410
#     4  12  26  46  70  98 136 178 226 286 342 420
#     4   8  18  38  64  88 128 178 210 278 336 384
#
# _framework density 21.960917999999999
#
# number of rings (size 3 to 8) (size 9 to 14) (size 15 to 20)
#    0.000    2.500    3.750    0.000    0.000    8.000 
#   11.250    0.000    0.000    0.000    0.000    0.000 
#    0.000    0.000    0.000    0.000    0.000    0.000 
#
# Total GULP energy -178259.575982 kJ/mol
# GULP energy per Si atom -5570.611749 kJ/mol
# Density = 2.191093 g / cm^3
# Si number density = 21.960918 Si / 1000 Ang^3
#
#
#
# Elastic Constant Matrix: (Units=GPa)
#
#
# Indices 1 2 3 4 5 6 
#
# 1 98.0690 56.2449 38.9461 0.0000 0.0000 0.0000
# 2 56.2449 199.8614 55.3642 0.0000 0.0000 0.0000
# 3 38.9461 55.3642 77.6568 0.0000 0.0000 0.0000
# 4 0.0000 0.0000 0.0000 18.9565 0.0000 0.0000
# 5 0.0000 0.0000 0.0000 0.0000 13.3402 0.0000
# 6 0.0000 0.0000 0.0000 0.0000 0.0000 40.5221
#
#
#
# Elastic Compliance Matrix: (Units=1/GPa)
#
#
# Indices 1 2 3 4 5 6 
#
# 1 0.013609 -0.002416 -0.005102 0.000000 0.000000 0.000000
# 2 -0.002416 0.006664 -0.003539 0.000000 0.000000 0.000000
# 3 -0.005102 -0.003539 0.017959 0.000000 0.000000 0.000000
# 4 0.000000 0.000000 0.000000 0.052752 0.000000 0.000000
# 5 0.000000 0.000000 0.000000 0.000000 0.074961 0.000000
# 6 0.000000 0.000000 0.000000 0.000000 0.000000 0.024678
#
#
# Mechanical properties :
#
#
# Convention : Reuss Voigt Hill
#
# Bulk Modulus (GPa) = 62.04847 75.18861 68.61854
# Shear Modulus (GPa) = 22.92402 29.56588 26.24495
#
# Velocity S-wave (km/s) = 3.23438 3.67317 3.46074
# Velocity P-wave (km/s) = 6.50105 7.23197 6.87623
#
# Compressibility (1/GPa) = 0.01611643
#
# Stress axis : x y z
#
# Youngs Moduli (GPa) = 73.48017 150.06340 55.68171
#
# Poissons Ratio (x) = 0.36262 0.28411
# Poissons Ratio (y) = 0.17756 0.19706
# Poissons Ratio (z) = 0.37493 0.53108
#
# Static dielectric constant tensor:
#      x y z
#    x 1.887030 0.000000 0.000000 
#    y 0.000000 1.873240 0.000000 
#    z 0.000000 0.000000 1.856420 
# 
# From -- ./inp_files/23090.got.cif
#   From: 2010.05.17/outbox.cif.g08.bks.cpg/sg56_12_cif.got.tgz:23090.got - 2010.06.03 13:42:01.
