data_PCOD9433227
_publ_section_title
;
Structure prediction by ZEFSAII (Michael W. Deem and Ramdas Pophale) SiO2 
 PCOD9433227
Probable space group: P C C N
;
_chemical_formula_sum "Si O2"
_cell_formula_units_Z 40
_cell_length_a 12.256518
_cell_length_b 17.392136
_cell_length_c 8.797000
_cell_angle_alpha 90.000000
_cell_angle_beta 90.000000
_cell_angle_gamma 90.000000
_cell_volume 1875.230345
_symmetry_space_group_name_H-M "P C C N"
_symmetry_group_IT_number 56
_symmetry_cell_setting 'orthorhombic'
loop_
_space_group_symop_operation_xyz
x,y,z
1/2-x,1/2-y,z
1/2+x,-y,1/2-z
-x,1/2+y,1/2-z
-x,-y,-z
1/2+x,1/2+y,-z
1/2-x,y,1/2+z
x,1/2-y,1/2+z
loop_
_atom_site_type_symbol
_atom_site_label
_atom_site_fract_x
_atom_site_fract_y
_atom_site_fract_z
Si Si1 0.875528 0.917943 0.823938
Si Si2 0.951097 0.441300 0.128671
Si Si3 0.149375 0.423332 0.314008
Si Si4 0.882362 0.395117 0.682231
Si Si5 0.268511 0.838315 0.035500
O O1 0.764446 0.891188 0.744413
O O2 0.991017 0.877302 0.790423
O O3 0.895602 0.002833 0.753125
O O4 0.862003 0.915623 0.005339
O O5 0.048333 0.395346 0.211769
O O6 0.863861 0.384817 0.052641
O O7 0.000000 0.500000 0.000000
O O8 0.141612 0.515495 0.284984
O O9 0.843908 0.379350 0.511428
O O10 0.805100 0.346502 0.791257
O O11 0.250000 0.750000 0.998062
#
# Coordination Sequence:
#
# PCOD9433227 Si02
#       5
#     8   8   8   8   8
#     4  11  22  36  63  97 128 169 216 285 345 395
#     4  11  20  38  62  93 131 172 218 285 335 397
#     4  11  21  36  64  96 131 165 222 286 345 393
#     4  11  23  39  58  91 133 169 222 266 339 404
#     4  12  25  40  61  91 133 179 217 269 341 413
#
# _framework density 21.330714
#
# number of rings (size 3 to 8) (size 9 to 14) (size 15 to 20)
#    0.000    0.800    6.000    5.400    2.800    0.000 
#    0.000    0.000    0.000    1.200    0.000    0.000 
#    0.000    0.000    0.000    0.000    0.000    0.000 
#
# Total GULP energy -223365.535053 kJ/mol
# GULP energy per Si atom -5584.138376 kJ/mol
# Density = 2.128216 g / cm^3
# Si number density = 21.330714 Si / 1000 Ang^3
#
#
#
# Elastic Constant Matrix: (Units=GPa)
#
#
# Indices 1 2 3 4 5 6 
#
# 1 100.2402 -2.0331 36.5274 0.0000 0.0000 0.0000
# 2 -2.0331 44.5814 11.6613 0.0000 0.0000 0.0000
# 3 36.5274 11.6613 129.1524 0.0000 0.0000 0.0000
# 4 0.0000 0.0000 0.0000 17.4329 0.0000 0.0000
# 5 0.0000 0.0000 0.0000 0.0000 44.0660 0.0000
# 6 0.0000 0.0000 0.0000 0.0000 0.0000 9.8196
#
#
#
# Elastic Compliance Matrix: (Units=1/GPa)
#
#
# Indices 1 2 3 4 5 6 
#
# 1 0.011204 0.001372 -0.003293 0.000000 0.000000 0.000000
# 2 0.001372 0.023142 -0.002478 0.000000 0.000000 0.000000
# 3 -0.003293 -0.002478 0.008898 0.000000 0.000000 0.000000
# 4 0.000000 0.000000 0.000000 0.057363 0.000000 0.000000
# 5 0.000000 0.000000 0.000000 0.000000 0.022693 0.000000
# 6 0.000000 0.000000 0.000000 0.000000 0.000000 0.101837
#
#
# Mechanical properties :
#
#
# Convention : Reuss Voigt Hill
#
# Bulk Modulus (GPa) = 29.03007 40.69836 34.86422
# Shear Modulus (GPa) = 20.37369 29.45158 24.91264
#
# Velocity S-wave (km/s) = 3.09388 3.71983 3.42120
# Velocity P-wave (km/s) = 5.13827 6.12948 5.65564
#
# Compressibility (1/GPa) = 0.03444704
#
# Stress axis : x y z
#
# Youngs Moduli (GPa) = 89.25648 43.21234 112.38853
#
# Poissons Ratio (x) = -0.05929 0.37005
# Poissons Ratio (y) = -0.12248 0.27845
# Poissons Ratio (z) = 0.29388 0.10706
#
# Static dielectric constant tensor:
#      x y z
#    x 1.832130 0.000000 0.000000 
#    y 0.000000 1.759370 0.000000 
#    z 0.000000 0.000000 1.826400 
# 
# From -- ./inp_files/2578.got.cif
#   From: 2010.05.17/outbox.cif.g08.bks.cpg/sg56_2_cif.got.tgz:2578.got - 2010.06.03 13:42:01.
