data_PCOD9433936
_publ_section_title
;
Structure prediction by ZEFSAII (Michael W. Deem and Ramdas Pophale) SiO2 
 PCOD9433936
Probable space group: P C C N
;
_chemical_formula_sum "Si O2"
_cell_formula_units_Z 48
_cell_length_a 9.000000
_cell_length_b 15.000000
_cell_length_c 18.000000
_cell_angle_alpha 90.000000
_cell_angle_beta 90.000000
_cell_angle_gamma 90.000000
_cell_volume 2430.000000
_symmetry_space_group_name_H-M "P C C N"
_symmetry_group_IT_number 56
_symmetry_cell_setting 'orthorhombic'
loop_
_space_group_symop_operation_xyz
x,y,z
1/2-x,1/2-y,z
1/2+x,-y,1/2-z
-x,1/2+y,1/2-z
-x,-y,-z
1/2+x,1/2+y,-z
1/2-x,y,1/2+z
x,1/2-y,1/2+z
loop_
_atom_site_type_symbol
_atom_site_label
_atom_site_fract_x
_atom_site_fract_y
_atom_site_fract_z
Si Si1 0.346734 0.336140 0.297256
Si Si2 0.682243 0.153776 0.793048
Si Si3 0.666801 0.341770 0.045646
Si Si4 0.848651 0.835064 0.882607
Si Si5 0.303684 0.980631 0.343838
Si Si6 0.125767 0.535668 0.595003
O O1 0.250000 0.250000 0.320663
O O2 0.516904 0.325758 0.321387
O O3 0.341571 0.339310 0.207108
O O4 0.289229 0.431368 0.326086
O O5 0.750000 0.250000 0.771178
O O6 0.781671 0.100498 0.851612
O O7 0.671035 0.082277 0.726937
O O8 0.750000 0.250000 0.025812
O O9 0.517628 0.318119 0.091354
O O10 0.761680 0.410282 0.096601
O O11 0.616451 0.405939 0.979014
O O12 0.750000 0.750000 0.906570
O O13 0.806479 0.934984 0.911584
O O14 0.462767 0.015845 0.372454
#
# Coordination Sequence:
#
# PCOD9433936 Si02
#       6
#     8   8   8   8   8   8
#     4  11  23  38  63  98 130 163 214 270 324 378
#     4  12  22  38  62  96 129 165 215 269 318 377
#     4  11  24  44  65  94 130 175 216 264 324 388
#     4  10  21  40  65  94 125 168 215 268 319 380
#     4  11  21  42  64  94 126 168 217 264 323 377
#     4  11  23  44  65  93 133 174 211 268 321 385
#
# _framework density 19.753086
#
# number of rings (size 3 to 8) (size 9 to 14) (size 15 to 20)
#    0.000    1.000    5.000    4.000    0.000    1.333 
#    0.000   11.667    0.000    0.000    0.000    0.000 
#    0.000    0.000    0.000    0.000    0.000    0.000 
#
# Total GULP energy -267868.057630 kJ/mol
# GULP energy per Si atom -5580.584534 kJ/mol
# Density = 1.970813 g / cm^3
# Si number density = 19.753086 Si / 1000 Ang^3
#
#
#
# Elastic Constant Matrix: (Units=GPa)
#
#
# Indices 1 2 3 4 5 6 
#
# 1 67.5617 57.5238 21.5403 0.0000 0.0000 0.0000
# 2 57.5238 179.9624 26.2542 0.0000 0.0000 0.0000
# 3 21.5403 26.2542 57.0283 0.0000 0.0000 0.0000
# 4 0.0000 0.0000 0.0000 23.9508 0.0000 0.0000
# 5 0.0000 0.0000 0.0000 0.0000 17.8355 0.0000
# 6 0.0000 0.0000 0.0000 0.0000 0.0000 43.7615
#
#
#
# Elastic Compliance Matrix: (Units=1/GPa)
#
#
# Indices 1 2 3 4 5 6 
#
# 1 0.021775 -0.006175 -0.005382 0.000000 0.000000 0.000000
# 2 -0.006175 0.007708 -0.001216 0.000000 0.000000 0.000000
# 3 -0.005382 -0.001216 0.020128 0.000000 0.000000 0.000000
# 4 0.000000 0.000000 0.000000 0.041752 0.000000 0.000000
# 5 0.000000 0.000000 0.000000 0.000000 0.056068 0.000000
# 6 0.000000 0.000000 0.000000 0.000000 0.000000 0.022851
#
#
# Mechanical properties :
#
#
# Convention : Reuss Voigt Hill
#
# Bulk Modulus (GPa) = 41.55482 57.24321 49.39901
# Shear Modulus (GPa) = 24.52794 30.39183 27.45989
#
# Velocity S-wave (km/s) = 3.52764 3.92674 3.73253
# Velocity P-wave (km/s) = 6.13800 7.04282 6.60592
#
# Compressibility (1/GPa) = 0.02406460
#
# Stress axis : x y z
#
# Youngs Moduli (GPa) = 45.92487 129.73641 49.68255
#
# Poissons Ratio (x) = 0.80112 0.26738
# Poissons Ratio (y) = 0.28359 0.06042
# Poissons Ratio (z) = 0.24716 0.15778
#
# Static dielectric constant tensor:
#      x y z
#    x 1.696790 0.000000 0.000000 
#    y 0.000000 1.674830 0.000000 
#    z 0.000000 0.000000 1.782920 
# 
# From -- ./inp_files/14852.got.cif
#   From: 2010.05.17/outbox.ucp.g08.bks.cvg/sg56_8_cif.got.tgz:14852.got - 2010.06.11 16:37:52.
