data_PCOD9433611
_publ_section_title
;
Structure prediction by ZEFSAII (Michael W. Deem and Ramdas Pophale) SiO2 
 PCOD9433611
Probable space group: P C C N
;
_chemical_formula_sum "Si O2"
_cell_formula_units_Z 48
_cell_length_a 17.849884
_cell_length_b 9.526663
_cell_length_c 13.252440
_cell_angle_alpha 90.000000
_cell_angle_beta 90.000000
_cell_angle_gamma 90.000000
_cell_volume 2253.575162
_symmetry_space_group_name_H-M "P C C N"
_symmetry_group_IT_number 56
_symmetry_cell_setting 'orthorhombic'
loop_
_space_group_symop_operation_xyz
x,y,z
1/2-x,1/2-y,z
1/2+x,-y,1/2-z
-x,1/2+y,1/2-z
-x,-y,-z
1/2+x,1/2+y,-z
1/2-x,y,1/2+z
x,1/2-y,1/2+z
loop_
_atom_site_type_symbol
_atom_site_label
_atom_site_fract_x
_atom_site_fract_y
_atom_site_fract_z
Si Si1 0.107035 0.421905 0.939903
Si Si2 0.634609 0.363461 0.123597
Si Si3 0.620768 0.826649 0.714232
Si Si4 0.744499 0.465540 0.957445
Si Si5 0.250000 0.750000 0.221847
Si Si6 0.499706 0.665309 0.378634
Si Si7 0.750000 0.750000 0.367571
O O1 0.131588 0.296767 0.866731
O O2 0.051935 0.526536 0.880336
O O3 0.176550 0.510110 0.985394
O O4 0.060298 0.358499 0.033239
O O5 0.624699 0.519788 0.166363
O O6 0.678142 0.268965 0.206308
O O7 0.555762 0.293243 0.098876
O O8 0.687910 0.380340 0.027302
O O9 0.542704 0.812083 0.774061
O O10 0.685857 0.812010 0.796867
O O11 0.749398 0.383401 0.852178
O O12 0.717917 0.623773 0.934417
#
# Coordination Sequence:
#
# PCOD9433611 Si02
#       7
#     8   8   8   8   4   8   4
#     4  11  24  47  71 100 145 189 233 297 356 428
#     4  12  26  44  71 108 136 188 236 292 356 427
#     4  12  25  45  68 102 141 184 240 287 357 425
#     4  12  25  46  73 102 140 183 240 294 354 419
#     4  12  24  46  70 104 140 178 236 294 354 428
#     4  11  25  45  69 102 142 187 232 290 365 421
#     4  12  24  46  70 100 134 188 236 296 344 418
#
# _framework density 21.299488
#
# number of rings (size 3 to 8) (size 9 to 14) (size 15 to 20)
#    0.000    0.333    3.333    5.500    2.333    4.667 
#    0.000    0.000    0.000    0.000    0.000    0.000 
#    0.000    0.000    0.000    0.000    0.000    0.000 
#
# Total GULP energy -268781.087037 kJ/mol
# GULP energy per Si atom -5599.605980 kJ/mol
# Density = 2.125101 g / cm^3
# Si number density = 21.299488 Si / 1000 Ang^3
#
#
#
# Elastic Constant Matrix: (Units=GPa)
#
#
# Indices 1 2 3 4 5 6 
#
# 1 73.5366 16.1816 10.8222 0.0000 0.0000 0.0000
# 2 16.1816 88.5061 25.1459 0.0000 0.0000 0.0000
# 3 10.8222 25.1459 64.4486 0.0000 0.0000 0.0000
# 4 0.0000 0.0000 0.0000 52.9167 0.0000 0.0000
# 5 0.0000 0.0000 0.0000 0.0000 21.5310 0.0000
# 6 0.0000 0.0000 0.0000 0.0000 0.0000 45.8725
#
#
#
# Elastic Compliance Matrix: (Units=1/GPa)
#
#
# Indices 1 2 3 4 5 6 
#
# 1 0.014306 -0.002174 -0.001554 0.000000 0.000000 0.000000
# 2 -0.002174 0.013038 -0.004722 0.000000 0.000000 0.000000
# 3 -0.001554 -0.004722 0.017619 0.000000 0.000000 0.000000
# 4 0.000000 0.000000 0.000000 0.018898 0.000000 0.000000
# 5 0.000000 0.000000 0.000000 0.000000 0.046445 0.000000
# 6 0.000000 0.000000 0.000000 0.000000 0.000000 0.021800
#
#
# Mechanical properties :
#
#
# Convention : Reuss Voigt Hill
#
# Bulk Modulus (GPa) = 35.63381 36.75453 36.19417
# Shear Modulus (GPa) = 31.57383 35.68681 33.63032
#
# Velocity S-wave (km/s) = 3.85434 4.09770 3.97788
# Velocity P-wave (km/s) = 6.04765 6.29934 6.17478
#
# Compressibility (1/GPa) = 0.02806324
#
# Stress axis : x y z
#
# Youngs Moduli (GPa) = 69.90196 76.70076 56.75530
#
# Poissons Ratio (x) = 0.16675 0.08820
# Poissons Ratio (y) = 0.15197 0.26799
# Poissons Ratio (z) = 0.10863 0.36217
#
# Static dielectric constant tensor:
#      x y z
#    x 1.753000 0.000000 0.000000 
#    y 0.000000 1.764220 0.000000 
#    z 0.000000 0.000000 1.761450 
# 
# From -- ./inp_files/12727.got.cif
#   From: 2010.05.17/outbox.cif.g08.bks.cpg/sg56_7_cif.got.tgz:12727.got - 2010.06.03 13:42:01.
