data_PCOD9433997
_publ_section_title
;
Structure prediction by ZEFSAII (Michael W. Deem and Ramdas Pophale) SiO2 
 PCOD9433997
Probable space group: P B C M
;
_chemical_formula_sum "Si O2"
_cell_formula_units_Z 36
_cell_length_a 21.775371
_cell_length_b 5.401578
_cell_length_c 13.973394
_cell_angle_alpha 90.000000
_cell_angle_beta 90.000000
_cell_angle_gamma 90.000000
_cell_volume 1643.569675
_symmetry_space_group_name_H-M "P B C M"
_symmetry_group_IT_number 57
_symmetry_cell_setting 'orthorhombic'
loop_
_space_group_symop_operation_xyz
x,y,z
-x,-y,1/2+z
x,1/2-y,-z
-x,1/2+y,1/2-z
-x,-y,-z
x,y,1/2-z
-x,1/2+y,z
x,1/2-y,1/2+z
loop_
_atom_site_type_symbol
_atom_site_label
_atom_site_fract_x
_atom_site_fract_y
_atom_site_fract_z
Si Si1 0.654797 0.385580 0.860005
Si Si2 0.166422 0.502237 0.560662
Si Si3 0.704268 0.885949 0.638226
Si Si4 0.538412 0.006865 0.250000
Si Si5 0.968468 0.391164 0.364809
O O1 0.680294 0.356625 0.750000
O O2 0.664882 0.114702 0.902085
O O3 0.584241 0.457407 0.840583
O O4 0.690581 0.615841 0.904535
O O5 0.159670 0.250000 0.500000
O O6 0.224750 0.455004 0.628018
O O7 0.101915 0.554059 0.611456
O O8 0.180013 0.750000 0.500000
O O9 0.686364 0.857598 0.750000
O O10 0.508563 0.736333 0.250000
O O11 0.975099 0.384115 0.250000
O O12 0.009847 0.621463 0.400095
#
# Coordination Sequence:
#
# PCOD9433997 Si02
#       5
#     8   8   8   4   8
#     4   8  17  28  48  75 103 148 173 215 263 327
#     4  12  25  37  55  84 112 142 184 233 283 326
#     4  10  18  36  54  72 106 148 185 217 266 331
#     4  10  16  26  46  80 122 142 166 224 284 324
#     4  10  22  41  62  82 107 143 187 225 274 343
#
# _framework density 21.903542999999999
#
# number of rings (size 3 to 8) (size 9 to 14) (size 15 to 20)
#    0.667    1.333    0.000    4.667    0.000    2.667 
#    0.000    8.889    0.000    0.000    0.000    0.000 
#    0.000   62.222    0.000    0.000    0.000    0.000 
#
# Total GULP energy -200970.005763 kJ/mol
# GULP energy per Si atom -5582.500160 kJ/mol
# Density = 2.185369 g / cm^3
# Si number density = 21.903543 Si / 1000 Ang^3
#
#
#
# Elastic Constant Matrix: (Units=GPa)
#
#
# Indices 1 2 3 4 5 6 
#
# 1 84.0569 13.1527 -11.0940 0.0000 0.0000 0.0000
# 2 13.1527 166.8429 29.0246 0.0000 0.0000 0.0000
# 3 -11.0940 29.0246 41.8597 0.0000 0.0000 0.0000
# 4 0.0000 0.0000 0.0000 31.7626 0.0000 0.0000
# 5 0.0000 0.0000 0.0000 0.0000 -0.7474 0.0000
# 6 0.0000 0.0000 0.0000 0.0000 0.0000 48.9437
#
#
#
# Elastic Compliance Matrix: (Units=1/GPa)
#
#
# Indices 1 2 3 4 5 6 
#
# 1 0.012795 -0.001818 0.004652 0.000000 0.000000 0.000000
# 2 -0.001818 0.007074 -0.005387 0.000000 0.000000 0.000000
# 3 0.004652 -0.005387 0.028857 0.000000 0.000000 0.000000
# 4 0.000000 0.000000 0.000000 0.031484 0.000000 0.000000
# 5 0.000000 0.000000 0.000000 0.000000 -1.337996 0.000000
# 6 0.000000 0.000000 0.000000 0.000000 0.000000 0.020432
#
#
# Mechanical properties :
#
#
# Convention : Reuss Voigt Hill
#
# Bulk Modulus (GPa) = 22.92522 39.43622 31.18072
# Shear Modulus (GPa) = -4.10608 33.43686 14.66539
#
# Velocity S-wave (km/s) = -1.37065 3.91135 2.59036
# Velocity P-wave (km/s) = 2.82564 6.20014 4.81799
#
# Compressibility (1/GPa) = 0.04362008
#
# Stress axis : x y z
#
# Youngs Moduli (GPa) = 78.15506 141.36118 34.65342
#
# Poissons Ratio (x) = 0.25698 -0.16119
# Poissons Ratio (y) = 0.14208 0.18667
# Poissons Ratio (z) = -0.36354 0.76148
#
# Static dielectric constant tensor:
#      x y z
#    x 1.750120 0.000000 0.000000 
#    y 0.000000 1.839040 0.000000 
#    z 0.000000 0.000000 1.842010 
# 
# From -- ./inp_files/19225.got.cif
#   From: 2010.05.17/outbox.cif.g08.bks.cpg/sg57_10_cif.got.tgz:19225.got - 2010.06.03 13:58:18.
