data_PCOD9433249
_publ_section_title
;
Structure prediction by ZEFSAII (Michael W. Deem and Ramdas Pophale) SiO2 
 PCOD9433249
Probable space group: P C C N
;
_chemical_formula_sum "Si O2"
_cell_formula_units_Z 64
_cell_length_a 27.489324
_cell_length_b 17.411769
_cell_length_c 7.964229
_cell_angle_alpha 90.000000
_cell_angle_beta 90.000000
_cell_angle_gamma 90.000000
_cell_volume 3811.980724
_symmetry_space_group_name_H-M "P C C N"
_symmetry_group_IT_number 56
_symmetry_cell_setting 'orthorhombic'
loop_
_space_group_symop_operation_xyz
x,y,z
1/2-x,1/2-y,z
1/2+x,-y,1/2-z
-x,1/2+y,1/2-z
-x,-y,-z
1/2+x,1/2+y,-z
1/2-x,y,1/2+z
x,1/2-y,1/2+z
loop_
_atom_site_type_symbol
_atom_site_label
_atom_site_fract_x
_atom_site_fract_y
_atom_site_fract_z
Si Si1 0.404844 0.379694 0.679657
Si Si2 0.509989 0.789072 0.990248
Si Si3 0.030579 0.133303 0.147934
Si Si4 0.310135 0.312789 0.843113
Si Si5 0.792377 0.644438 0.274781
Si Si6 0.943196 0.084257 0.588704
Si Si7 0.533487 0.492440 0.244661
Si Si8 0.380400 0.047878 0.815994
O O1 0.446711 0.321760 0.624635
O O2 0.360359 0.337711 0.763207
O O3 0.427149 0.444306 0.803009
O O4 0.390312 0.419993 0.503827
O O5 0.520122 0.698646 0.987859
O O6 0.459834 0.826359 0.915931
O O7 0.516903 0.824972 0.174780
O O8 0.082899 0.095145 0.191575
O O9 0.991544 0.065827 0.118502
O O10 0.265763 0.355445 0.747286
O O11 0.306474 0.220600 0.830893
O O12 0.305151 0.336060 0.034899
O O13 0.825135 0.571762 0.224421
O O14 0.942839 0.057938 0.394229
O O15 0.897402 0.041695 0.677016
O O16 0.989245 0.039378 0.669391
#
# Coordination Sequence:
#
# PCOD9433249 Si02
#       8
#     8   8   8   8   8   8   8   8
#     4   9  16  28  44  59  78 106 139 170 200 234
#     4   9  16  25  39  59  82 109 138 166 197 234
#     4   9  16  25  39  59  82 109 138 166 197 234
#     4  11  21  32  44  59  80 105 135 168 202 236
#     4  11  21  32  44  59  80 105 135 168 202 236
#     4   7  12  24  40  56  76 105 137 164 193 234
#     4   7  12  24  40  56  76 105 137 164 193 234
#     4   9  16  28  44  59  78 106 139 170 200 234
#
# _framework density 16.789172000000001
#
# number of rings (size 3 to 8) (size 9 to 14) (size 15 to 20)
#    0.000    3.000    0.000    6.750    0.000    3.000 
#    0.000    1.250    0.000    4.500    0.000    0.000 
#    0.000    1.000    0.000   11.500    0.000    3.500 
#
# Total GULP energy -356426.989293 kJ/mol
# GULP energy per Si atom -5569.171708 kJ/mol
# Density = 1.675096 g / cm^3
# Si number density = 16.789172 Si / 1000 Ang^3
#
#
#
# Elastic Constant Matrix: (Units=GPa)
#
#
# Indices 1 2 3 4 5 6 
#
# 1 57.8398 11.7481 2.4360 0.0000 0.0000 0.0000
# 2 11.7481 30.4139 2.4847 0.0000 0.0000 0.0000
# 3 2.4360 2.4847 49.2700 0.0000 0.0000 0.0000
# 4 0.0000 0.0000 0.0000 15.0024 0.0000 0.0000
# 5 0.0000 0.0000 0.0000 0.0000 10.9410 0.0000
# 6 0.0000 0.0000 0.0000 0.0000 0.0000 38.4070
#
#
#
# Elastic Compliance Matrix: (Units=1/GPa)
#
#
# Indices 1 2 3 4 5 6 
#
# 1 0.018777 -0.007207 -0.000565 0.000000 0.000000 0.000000
# 2 -0.007207 0.035782 -0.001448 0.000000 0.000000 0.000000
# 3 -0.000565 -0.001448 0.020397 0.000000 0.000000 0.000000
# 4 0.000000 0.000000 0.000000 0.066656 0.000000 0.000000
# 5 0.000000 0.000000 0.000000 0.000000 0.091399 0.000000
# 6 0.000000 0.000000 0.000000 0.000000 0.000000 0.026037
#
#
# Mechanical properties :
#
#
# Convention : Reuss Voigt Hill
#
# Bulk Modulus (GPa) = 17.69409 18.98460 18.33935
# Shear Modulus (GPa) = 16.87328 20.92708 18.90018
#
# Velocity S-wave (km/s) = 3.17363 3.53436 3.35884
# Velocity P-wave (km/s) = 4.89807 5.29035 5.09798
#
# Compressibility (1/GPa) = 0.05651603
#
# Stress axis : x y z
#
# Youngs Moduli (GPa) = 53.25738 27.94715 49.02609
#
# Poissons Ratio (x) = 0.20141 0.02770
# Poissons Ratio (y) = 0.38382 0.07100
# Poissons Ratio (z) = 0.03009 0.04047
#
# Static dielectric constant tensor:
#      x y z
#    x 1.576810 0.000000 0.000000 
#    y 0.000000 1.615860 0.000000 
#    z 0.000000 0.000000 1.632660 
# 
# From -- ./inp_files/5029.got.cif
#   From: 2010.05.17/outbox.cif.g08.bks.cpg/sg56_3_cif.got.tgz:5029.got - 2010.06.03 13:42:01.
