data_PCOD9433312
_publ_section_title
;
Structure prediction by ZEFSAII (Michael W. Deem and Ramdas Pophale) SiO2 
 PCOD9433312
Probable space group: P C C N
;
_chemical_formula_sum "Si O2"
_cell_formula_units_Z 48
_cell_length_a 9.756323
_cell_length_b 13.099081
_cell_length_c 18.681986
_cell_angle_alpha 90.000000
_cell_angle_beta 90.000000
_cell_angle_gamma 90.000000
_cell_volume 2387.536611
_symmetry_space_group_name_H-M "P C C N"
_symmetry_group_IT_number 56
_symmetry_cell_setting 'orthorhombic'
loop_
_space_group_symop_operation_xyz
x,y,z
1/2-x,1/2-y,z
1/2+x,-y,1/2-z
-x,1/2+y,1/2-z
-x,-y,-z
1/2+x,1/2+y,-z
1/2-x,y,1/2+z
x,1/2-y,1/2+z
loop_
_atom_site_type_symbol
_atom_site_label
_atom_site_fract_x
_atom_site_fract_y
_atom_site_fract_z
Si Si1 0.732901 0.482452 0.399299
Si Si2 0.208362 0.033016 0.939716
Si Si3 0.545317 0.313705 0.931286
Si Si4 0.958249 0.614980 0.153199
Si Si5 0.133740 0.333853 0.689526
Si Si6 0.385715 0.695789 0.909832
O O1 0.726194 0.517529 0.481952
O O2 0.829924 0.381824 0.401136
O O3 0.585905 0.456596 0.366737
O O4 0.803056 0.571578 0.353953
O O5 0.322030 0.074020 0.885568
O O6 0.082178 0.110941 0.945114
O O7 0.146197 0.924745 0.915359
O O8 0.497875 0.225178 0.878863
O O9 0.586539 0.268457 0.008687
O O10 0.930989 0.626035 0.237026
O O11 0.250000 0.250000 0.704683
O O12 0.015745 0.286150 0.639697
O O13 0.250000 0.750000 0.881784
#
# Coordination Sequence:
#
# PCOD9433312 Si02
#       6
#     8   8   8   8   8   8
#     4  11  24  46  71  98 138 180 231 278 338 406
#     4  11  22  44  72 104 130 178 231 279 341 401
#     4  11  21  46  70 100 137 181 227 279 339 403
#     4  12  28  41  72 101 139 179 227 277 347 408
#     4  12  28  45  65 104 136 183 224 287 344 399
#     4  11  24  43  69 100 136 177 230 284 334 404
#
# _framework density 20.104403999999999
#
# number of rings (size 3 to 8) (size 9 to 14) (size 15 to 20)
#    0.000    0.667    3.333    5.500    7.000    2.667 
#    0.000    0.000    0.000    0.000    0.000    0.000 
#    0.000    0.000    0.000    0.000    0.000    0.000 
#
# Total GULP energy -268746.566578 kJ/mol
# GULP energy per Si atom -5598.886804 kJ/mol
# Density = 2.005865 g / cm^3
# Si number density = 20.104404 Si / 1000 Ang^3
#
#
#
# Elastic Constant Matrix: (Units=GPa)
#
#
# Indices 1 2 3 4 5 6 
#
# 1 111.8637 -6.3204 25.1120 0.0000 0.0000 0.0000
# 2 -6.3204 20.9074 -0.1025 0.0000 0.0000 0.0000
# 3 25.1120 -0.1025 71.9739 0.0000 0.0000 0.0000
# 4 0.0000 0.0000 0.0000 17.8430 0.0000 0.0000
# 5 0.0000 0.0000 0.0000 0.0000 12.5137 0.0000
# 6 0.0000 0.0000 0.0000 0.0000 0.0000 44.7630
#
#
#
# Elastic Compliance Matrix: (Units=1/GPa)
#
#
# Indices 1 2 3 4 5 6 
#
# 1 0.009880 0.002970 -0.003443 0.000000 0.000000 0.000000
# 2 0.002970 0.048723 -0.000967 0.000000 0.000000 0.000000
# 3 -0.003443 -0.000967 0.015094 0.000000 0.000000 0.000000
# 4 0.000000 0.000000 0.000000 0.056045 0.000000 0.000000
# 5 0.000000 0.000000 0.000000 0.000000 0.079913 0.000000
# 6 0.000000 0.000000 0.000000 0.000000 0.000000 0.022340
#
#
# Mechanical properties :
#
#
# Convention : Reuss Voigt Hill
#
# Bulk Modulus (GPa) = 14.12086 26.90259 20.51172
# Shear Modulus (GPa) = 19.34388 27.42764 23.38576
#
# Velocity S-wave (km/s) = 3.10525 3.69760 3.41429
# Velocity P-wave (km/s) = 4.46047 5.62495 5.07622
#
# Compressibility (1/GPa) = 0.07081721
#
# Stress axis : x y z
#
# Youngs Moduli (GPa) = 101.21287 20.52416 66.25223
#
# Poissons Ratio (x) = -0.06096 0.22811
# Poissons Ratio (y) = -0.30060 0.06406
# Poissons Ratio (z) = 0.34848 0.01984
#
# Static dielectric constant tensor:
#      x y z
#    x 1.692320 0.000000 0.000000 
#    y 0.000000 1.701310 0.000000 
#    z 0.000000 0.000000 1.669290 
# 
# From -- ./inp_files/14784.got.cif
#   From: 2010.05.17/outbox.cif.g08.bks.cpg/sg56_8_cif.got.tgz:14784.got - 2010.06.03 13:42:01.
