data_PCOD9433261
_publ_section_title
;
Structure prediction by ZEFSAII (Michael W. Deem and Ramdas Pophale) SiO2 
 PCOD9433261
Probable space group: P C C N
;
_chemical_formula_sum "Si O2"
_cell_formula_units_Z 48
_cell_length_a 10.809914
_cell_length_b 20.954680
_cell_length_c 9.248405
_cell_angle_alpha 90.000000
_cell_angle_beta 90.000000
_cell_angle_gamma 90.000000
_cell_volume 2094.932874
_symmetry_space_group_name_H-M "P C C N"
_symmetry_group_IT_number 56
_symmetry_cell_setting 'orthorhombic'
loop_
_space_group_symop_operation_xyz
x,y,z
1/2-x,1/2-y,z
1/2+x,-y,1/2-z
-x,1/2+y,1/2-z
-x,-y,-z
1/2+x,1/2+y,-z
1/2-x,y,1/2+z
x,1/2-y,1/2+z
loop_
_atom_site_type_symbol
_atom_site_label
_atom_site_fract_x
_atom_site_fract_y
_atom_site_fract_z
Si Si1 0.876540 0.481461 0.829460
Si Si2 0.650455 0.196784 0.948328
Si Si3 0.424189 0.128688 0.898594
Si Si4 0.216781 0.404528 0.599983
Si Si5 0.290716 0.620246 0.272858
Si Si6 0.004743 0.063675 0.902947
O O1 0.768662 0.521706 0.909762
O O2 0.799719 0.440070 0.712765
O O3 0.978188 0.432508 0.896207
O O4 0.950032 0.536800 0.750037
O O5 0.750000 0.250000 0.994161
O O6 0.505271 0.193685 0.905796
O O7 0.707139 0.173813 0.797742
O O8 0.655637 0.145660 0.079352
O O9 0.338760 0.114191 0.756579
O O10 0.334772 0.131454 0.036354
O O11 0.104918 0.395225 0.487832
O O12 0.385324 0.602868 0.143758
O O13 0.000000 0.000000 0.000000
#
# Coordination Sequence:
#
# PCOD9433261 Si02
#       6
#     8   8   8   8   8   8
#     4  11  21  36  60  99 146 192 229 268 334 435
#     4  11  26  48  72 101 127 179 249 323 367 408
#     4  11  25  39  66 101 145 192 242 287 352 433
#     4  12  23  38  61 103 154 194 229 275 357 434
#     4  11  24  41  69 101 137 181 241 292 359 429
#     4  12  21  36  59 100 150 194 225 276 338 439
#
# _framework density 22.912428999999999
#
# number of rings (size 3 to 8) (size 9 to 14) (size 15 to 20)
#    0.000    0.667    5.000    3.000    4.667    0.000 
#    0.000    0.000    0.000    1.000    8.667    0.000 
#    0.000    0.000    0.000    0.000    0.000    0.000 
#
# Total GULP energy -267248.141603 kJ/mol
# GULP energy per Si atom -5567.669617 kJ/mol
# Density = 2.286028 g / cm^3
# Si number density = 22.912429 Si / 1000 Ang^3
#
#
#
# Elastic Constant Matrix: (Units=GPa)
#
#
# Indices 1 2 3 4 5 6 
#
# 1 133.9147 36.4587 46.8948 0.0000 0.0000 0.0000
# 2 36.4587 36.8520 12.3801 0.0000 0.0000 0.0000
# 3 46.8948 12.3801 90.5341 0.0000 0.0000 0.0000
# 4 0.0000 0.0000 0.0000 19.2776 0.0000 0.0000
# 5 0.0000 0.0000 0.0000 0.0000 49.1632 0.0000
# 6 0.0000 0.0000 0.0000 0.0000 0.0000 23.7932
#
#
#
# Elastic Compliance Matrix: (Units=1/GPa)
#
#
# Indices 1 2 3 4 5 6 
#
# 1 0.011912 -0.010180 -0.004778 0.000000 0.000000 0.000000
# 2 -0.010180 0.037142 0.000194 0.000000 0.000000 0.000000
# 3 -0.004778 0.000194 0.013494 0.000000 0.000000 0.000000
# 4 0.000000 0.000000 0.000000 0.051874 0.000000 0.000000
# 5 0.000000 0.000000 0.000000 0.000000 0.020340 0.000000
# 6 0.000000 0.000000 0.000000 0.000000 0.000000 0.042029
#
#
# Mechanical properties :
#
#
# Convention : Reuss Voigt Hill
#
# Bulk Modulus (GPa) = 30.28496 50.30757 40.29627
# Shear Modulus (GPa) = 23.00699 29.48462 26.24581
#
# Velocity S-wave (km/s) = 3.17223 3.59115 3.38817
# Velocity P-wave (km/s) = 5.16370 6.26093 5.73860
#
# Compressibility (1/GPa) = 0.03301969
#
# Stress axis : x y z
#
# Youngs Moduli (GPa) = 83.94757 26.92402 74.10678
#
# Poissons Ratio (x) = 0.27408 0.35410
# Poissons Ratio (y) = 0.85457 -0.01438
# Poissons Ratio (z) = 0.40112 -0.00522
#
# Static dielectric constant tensor:
#      x y z
#    x 1.963260 0.000000 0.000000 
#    y 0.000000 1.876200 0.000000 
#    z 0.000000 0.000000 1.705620 
# 
# From -- ./inp_files/2787.got.cif
#   From: 2010.05.17/outbox.cif.g08.bks.cpg/sg56_2_cif.got.tgz:2787.got - 2010.06.03 13:42:01.
