data_PCOD9433937
_publ_section_title
;
Structure prediction by ZEFSAII (Michael W. Deem and Ramdas Pophale) SiO2 
 PCOD9433937
Probable space group: P C C N
;
_chemical_formula_sum "Si O2"
_cell_formula_units_Z 64
_cell_length_a 9.000000
_cell_length_b 12.000000
_cell_length_c 30.000000
_cell_angle_alpha 90.000000
_cell_angle_beta 90.000000
_cell_angle_gamma 90.000000
_cell_volume 3240.000000
_symmetry_space_group_name_H-M "P C C N"
_symmetry_group_IT_number 56
_symmetry_cell_setting 'orthorhombic'
loop_
_space_group_symop_operation_xyz
x,y,z
1/2-x,1/2-y,z
1/2+x,-y,1/2-z
-x,1/2+y,1/2-z
-x,-y,-z
1/2+x,1/2+y,-z
1/2-x,y,1/2+z
x,1/2-y,1/2+z
loop_
_atom_site_type_symbol
_atom_site_label
_atom_site_fract_x
_atom_site_fract_y
_atom_site_fract_z
Si Si1 0.894917 0.892162 0.186857
Si Si2 0.052927 0.360179 0.843000
Si Si3 0.277161 0.429422 0.053972
Si Si4 0.122023 0.075597 0.153873
Si Si5 0.487803 0.262361 0.533451
Si Si6 0.417897 0.785195 0.864117
Si Si7 0.913308 0.556979 0.793865
Si Si8 0.126347 0.662644 0.062051
O O1 0.942417 0.767492 0.173259
O O2 0.724370 0.902534 0.167351
O O3 0.917648 0.915440 0.240600
O O4 0.006575 0.976552 0.162300
O O5 0.948638 0.430298 0.809161
O O6 0.987021 0.363441 0.895155
O O7 0.290024 0.432915 0.107448
O O8 0.151501 0.345746 0.036784
O O9 0.428707 0.366511 0.037590
O O10 0.216400 0.553250 0.044693
O O11 0.244655 0.083229 0.192038
O O12 0.027399 0.186030 0.148747
O O13 0.570154 0.294470 0.580989
O O14 0.557589 0.285563 0.484285
O O15 0.250000 0.750000 0.854127
O O16 0.476512 0.879694 0.829479
O O17 0.250000 0.750000 0.079319
#
# Coordination Sequence:
#
# PCOD9433937 Si02
#       8
#     8   8   8   8   8   8   8   8
#     4  11  27  43  67 100 136 181 235 289 351 424
#     4  11  26  47  66 100 140 182 232 288 359 419
#     4  10  21  41  66  98 132 185 233 282 347 412
#     4  11  22  42  70  94 135 180 229 286 351 411
#     4  10  22  42  69 103 135 182 236 287 346 425
#     4  11  23  40  67 102 139 179 232 290 344 411
#     4  12  24  43  71  97 137 182 233 292 349 416
#     4  12  24  43  71 100 144 188 229 293 361 430
#
# _framework density 19.753086
#
# number of rings (size 3 to 8) (size 9 to 14) (size 15 to 20)
#    0.000    1.000    2.500    3.375    5.250    2.500 
#    0.000    3.750    0.000    0.000    0.000    0.000 
#    0.000    0.000    0.000    0.000    0.000    0.000 
#
# Total GULP energy -356547.894196 kJ/mol
# GULP energy per Si atom -5571.060847 kJ/mol
# Density = 1.970813 g / cm^3
# Si number density = 19.753086 Si / 1000 Ang^3
#
#
#
# Elastic Constant Matrix: (Units=GPa)
#
#
# Indices 1 2 3 4 5 6 
#
# 1 68.6019 14.6771 36.1878 0.0000 0.0000 0.0000
# 2 14.6771 92.8234 32.9104 0.0000 0.0000 0.0000
# 3 36.1878 32.9104 121.6403 0.0000 0.0000 0.0000
# 4 0.0000 0.0000 0.0000 29.0998 0.0000 0.0000
# 5 0.0000 0.0000 0.0000 0.0000 32.9642 0.0000
# 6 0.0000 0.0000 0.0000 0.0000 0.0000 36.8362
#
#
#
# Elastic Compliance Matrix: (Units=1/GPa)
#
#
# Indices 1 2 3 4 5 6 
#
# 1 0.017376 -0.001012 -0.004896 0.000000 0.000000 0.000000
# 2 -0.001012 0.011975 -0.002939 0.000000 0.000000 0.000000
# 3 -0.004896 -0.002939 0.010473 0.000000 0.000000 0.000000
# 4 0.000000 0.000000 0.000000 0.034365 0.000000 0.000000
# 5 0.000000 0.000000 0.000000 0.000000 0.030336 0.000000
# 6 0.000000 0.000000 0.000000 0.000000 0.000000 0.027147
#
#
# Mechanical properties :
#
#
# Convention : Reuss Voigt Hill
#
# Bulk Modulus (GPa) = 45.18554 50.06846 47.62700
# Shear Modulus (GPa) = 31.89990 33.06606 32.48298
#
# Velocity S-wave (km/s) = 4.02298 4.09586 4.05958
# Velocity P-wave (km/s) = 6.67113 6.91160 6.79243
#
# Compressibility (1/GPa) = 0.02213097
#
# Stress axis : x y z
#
# Youngs Moduli (GPa) = 57.55163 83.50651 95.48811
#
# Poissons Ratio (x) = 0.08449 0.46746
# Poissons Ratio (y) = 0.05823 0.28063
# Poissons Ratio (z) = 0.28174 0.24542
#
# Static dielectric constant tensor:
#      x y z
#    x 1.738310 0.000000 0.000000 
#    y 0.000000 1.761850 0.000000 
#    z 0.000000 0.000000 1.682480 
# 
# From -- ./inp_files/23373.got.cif
#   From: 2010.05.17/outbox.ucp.g08.bks.cvg/sg56_12_cif.got.tgz:23373.got - 2010.06.11 16:37:52.
