data_PCOD9433544
_publ_section_title
;
Structure prediction by ZEFSAII (Michael W. Deem and Ramdas Pophale) SiO2 
 PCOD9433544
Probable space group: P C C N
;
_chemical_formula_sum "Si O2"
_cell_formula_units_Z 48
_cell_length_a 14.363893
_cell_length_b 8.336543
_cell_length_c 18.217242
_cell_angle_alpha 90.000000
_cell_angle_beta 90.000000
_cell_angle_gamma 90.000000
_cell_volume 2181.427499
_symmetry_space_group_name_H-M "P C C N"
_symmetry_group_IT_number 56
_symmetry_cell_setting 'orthorhombic'
loop_
_space_group_symop_operation_xyz
x,y,z
1/2-x,1/2-y,z
1/2+x,-y,1/2-z
-x,1/2+y,1/2-z
-x,-y,-z
1/2+x,1/2+y,-z
1/2-x,y,1/2+z
x,1/2-y,1/2+z
loop_
_atom_site_type_symbol
_atom_site_label
_atom_site_fract_x
_atom_site_fract_y
_atom_site_fract_z
Si Si1 0.440826 0.362604 0.678929
Si Si2 0.215260 0.581466 0.323593
Si Si3 0.899641 0.621127 0.189670
Si Si4 0.406670 0.429874 0.089925
Si Si5 0.414861 0.128269 0.426166
Si Si6 0.275323 0.575860 0.656362
O O1 0.408155 0.266724 0.752079
O O2 0.522571 0.484409 0.700281
O O3 0.465011 0.215177 0.625707
O O4 0.360119 0.459616 0.635423
O O5 0.250000 0.750000 0.355651
O O6 0.300270 0.461510 0.309423
O O7 0.142812 0.494334 0.375430
O O8 0.186956 0.616342 0.239208
O O9 0.909228 0.698552 0.109812
O O10 0.477469 0.575993 0.078322
O O11 0.319880 0.476790 0.141779
O O12 0.376713 0.380419 0.008408
O O13 0.250000 0.750000 0.622948
#
# Coordination Sequence:
#
# PCOD9433544 Si02
#       6
#     8   8   8   8   8   8
#     4  12  25  41  68 100 135 179 230 282 335 400
#     4  11  24  41  68 101 135 177 229 280 335 398
#     4  12  25  41  68 100 135 179 230 282 335 400
#     4  11  25  46  70 101 140 181 224 277 341 403
#     4  11  25  46  70 101 140 181 224 277 341 403
#     4  11  24  41  68 101 135 177 229 280 335 398
#
# _framework density 22.003938999999999
#
# number of rings (size 3 to 8) (size 9 to 14) (size 15 to 20)
#    0.000    0.667    3.333    4.000    4.667    4.000 
#    0.000    0.000    0.000    0.000    0.000    0.000 
#    0.000    0.000    0.000    0.000    0.000    0.000 
#
# Total GULP energy -268002.242034 kJ/mol
# GULP energy per Si atom -5583.380042 kJ/mol
# Density = 2.195386 g / cm^3
# Si number density = 22.003939 Si / 1000 Ang^3
#
#
#
# Elastic Constant Matrix: (Units=GPa)
#
#
# Indices 1 2 3 4 5 6 
#
# 1 67.9192 5.8062 4.7996 0.0000 0.0000 0.0000
# 2 5.8062 89.2772 12.4020 0.0000 0.0000 0.0000
# 3 4.7996 12.4020 91.0765 0.0000 0.0000 0.0000
# 4 0.0000 0.0000 0.0000 -33.1522 0.0000 0.0000
# 5 0.0000 0.0000 0.0000 0.0000-3539.5991 0.0000
# 6 0.0000 0.0000 0.0000 0.0000 0.0000 36.4016
#
#
#
# Elastic Compliance Matrix: (Units=1/GPa)
#
#
# Indices 1 2 3 4 5 6 
#
# 1 0.014845 -0.000873 -0.000663 0.000000 0.000000 0.000000
# 2 -0.000873 0.011468 -0.001516 0.000000 0.000000 0.000000
# 3 -0.000663 -0.001516 0.011221 0.000000 0.000000 0.000000
# 4 0.000000 0.000000 0.000000 -0.030164 0.000000 0.000000
# 5 0.000000 0.000000 0.000000 0.000000 -0.000283 0.000000
# 6 0.000000 0.000000 0.000000 0.000000 0.000000 0.027471
#
#
# Mechanical properties :
#
#
# Convention : Reuss Voigt Hill
#
# Bulk Modulus (GPa) = 31.81695 32.69873 32.25784
# Shear Modulus (GPa) = 97.76966 -692.25226 -297.24130
#
# Velocity S-wave (km/s) = 6.67302 -17.75632 -11.63524
# Velocity P-wave (km/s) = 8.59438 20.13677 12.87685
#
# Compressibility (1/GPa) = 0.03142979
#
# Stress axis : x y z
#
# Youngs Moduli (GPa) = 67.36313 87.19607 89.11763
#
# Poissons Ratio (x) = 0.07615 0.05912
# Poissons Ratio (y) = 0.05883 0.13507
# Poissons Ratio (z) = 0.04469 0.13216
#
# Static dielectric constant tensor:
#      x y z
#    x 1.817400 0.000000 0.000000 
#    y 0.000000 1.837910 0.000000 
#    z 0.000000 0.000000 1.868610 
# 
# From -- ./inp_files/18985.got.cif
#   From: 2010.05.17/outbox.cif.g08.bks.cpg/sg56_10_cif.got.tgz:18985.got - 2010.06.03 13:42:01.
