data_PCOD9433325
_publ_section_title
;
Structure prediction by ZEFSAII (Michael W. Deem and Ramdas Pophale) SiO2 
 PCOD9433325
Probable space group: P C C N
;
_chemical_formula_sum "Si O2"
_cell_formula_units_Z 32
_cell_length_a 14.532767
_cell_length_b 8.249491
_cell_length_c 10.334161
_cell_angle_alpha 90.000000
_cell_angle_beta 90.000000
_cell_angle_gamma 90.000000
_cell_volume 1238.941176
_symmetry_space_group_name_H-M "P C C N"
_symmetry_group_IT_number 56
_symmetry_cell_setting 'orthorhombic'
loop_
_space_group_symop_operation_xyz
x,y,z
1/2-x,1/2-y,z
1/2+x,-y,1/2-z
-x,1/2+y,1/2-z
-x,-y,-z
1/2+x,1/2+y,-z
1/2-x,y,1/2+z
x,1/2-y,1/2+z
loop_
_atom_site_type_symbol
_atom_site_label
_atom_site_fract_x
_atom_site_fract_y
_atom_site_fract_z
Si Si1 0.648438 0.328159 0.087909
Si Si2 0.614645 0.068208 0.907920
Si Si3 0.801207 0.919584 0.910178
Si Si4 0.931443 0.034929 0.694582
O O1 0.750000 0.250000 0.095738
O O2 0.662052 0.513362 0.048293
O O3 0.601020 0.250711 0.959464
O O4 0.594527 0.226783 0.196232
O O5 0.718781 0.040447 0.863500
O O6 0.540006 0.989993 0.815127
O O7 0.603893 0.980531 0.050481
O O8 0.750000 0.750000 0.917756
O O9 0.881276 0.933766 0.804776
#
# Coordination Sequence:
#
# PCOD9433325 Si02
#       4
#     8   8   8   8
#     4   8  17  37  59  84 120 166 212 249 319 396
#     4   8  19  41  62  86 125 173 222 254 319 404
#     4  11  22  36  62 100 129 156 216 280 334 390
#     4   9  19  40  66  82 128 177 211 270 315 394
#
# _framework density 25.828507999999999
#
# number of rings (size 3 to 8) (size 9 to 14) (size 15 to 20)
#    1.500    1.500    0.000    0.000    0.000    6.000 
#    0.000    1.250    0.000    0.000    0.000    0.000 
#    0.000    0.000    0.000    0.000    0.000    0.000 
#
# Total GULP energy -178383.793039 kJ/mol
# GULP energy per Si atom -5574.493532 kJ/mol
# Density = 2.576972 g / cm^3
# Si number density = 25.828508 Si / 1000 Ang^3
#
#
#
# Elastic Constant Matrix: (Units=GPa)
#
#
# Indices 1 2 3 4 5 6 
#
# 1 65.4240 -11.2479 6.3936 0.0000 0.0000 0.0000
# 2 -11.2479 121.3915 16.2365 0.0000 0.0000 0.0000
# 3 6.3936 16.2365 114.8017 0.0000 0.0000 0.0000
# 4 0.0000 0.0000 0.0000 -30.7921 0.0000 0.0000
# 5 0.0000 0.0000 0.0000 0.0000 29.3730 0.0000
# 6 0.0000 0.0000 0.0000 0.0000 0.0000 36.7355
#
#
#
# Elastic Compliance Matrix: (Units=1/GPa)
#
#
# Indices 1 2 3 4 5 6 
#
# 1 0.015667 0.001599 -0.001099 0.000000 0.000000 0.000000
# 2 0.001599 0.008560 -0.001300 0.000000 0.000000 0.000000
# 3 -0.001099 -0.001300 0.008956 0.000000 0.000000 0.000000
# 4 0.000000 0.000000 0.000000 -0.032476 0.000000 0.000000
# 5 0.000000 0.000000 0.000000 0.000000 0.034045 0.000000
# 6 0.000000 0.000000 0.000000 0.000000 0.000000 0.027222
#
#
# Mechanical properties :
#
#
# Convention : Reuss Voigt Hill
#
# Bulk Modulus (GPa) = 31.66235 36.04239 33.85237
# Shear Modulus (GPa) = 67.47620 26.41229 46.94424
#
# Velocity S-wave (km/s) = 5.11678 3.20128 4.26788
# Velocity P-wave (km/s) = 6.86978 5.25824 6.11731
#
# Compressibility (1/GPa) = 0.03158325
#
# Stress axis : x y z
#
# Youngs Moduli (GPa) = 63.82793 116.82561 111.66112
#
# Poissons Ratio (x) = -0.18676 0.12267
# Poissons Ratio (y) = -0.10204 0.14512
# Poissons Ratio (z) = 0.07012 0.15183
#
# Static dielectric constant tensor:
#      x y z
#    x 2.054870 0.000000 0.000000 
#    y 0.000000 2.115050 0.000000 
#    z 0.000000 0.000000 2.113730 
# 
# From -- ./inp_files/7564.got.cif
#   From: 2010.05.17/outbox.cif.g08.bks.cpg/sg56_4_cif.got.tgz:7564.got - 2010.06.03 13:42:01.
