data_PCOD9433136
_publ_section_title
;
Structure prediction by ZEFSAII (Michael W. Deem and Ramdas Pophale) SiO2 
 PCOD9433136
Probable space group: P C C N
;
_chemical_formula_sum "Si O2"
_cell_formula_units_Z 52
_cell_length_a 17.120280
_cell_length_b 17.514025
_cell_length_c 8.548870
_cell_angle_alpha 90.000000
_cell_angle_beta 90.000000
_cell_angle_gamma 90.000000
_cell_volume 2563.336027
_symmetry_space_group_name_H-M "P C C N"
_symmetry_group_IT_number 56
_symmetry_cell_setting 'orthorhombic'
loop_
_space_group_symop_operation_xyz
x,y,z
1/2-x,1/2-y,z
1/2+x,-y,1/2-z
-x,1/2+y,1/2-z
-x,-y,-z
1/2+x,1/2+y,-z
1/2-x,y,1/2+z
x,1/2-y,1/2+z
loop_
_atom_site_type_symbol
_atom_site_label
_atom_site_fract_x
_atom_site_fract_y
_atom_site_fract_z
Si Si1 0.331252 0.780765 0.428864
Si Si2 0.664323 0.648009 0.568271
Si Si3 0.505558 0.408773 0.509497
Si Si4 0.750000 0.750000 0.814950
Si Si5 0.274111 0.978523 0.866562
Si Si6 0.107346 0.639302 0.731388
Si Si7 0.335629 0.906577 0.174105
O O1 0.250000 0.750000 0.498538
O O2 0.382071 0.825019 0.559132
O O3 0.370888 0.707761 0.350444
O O4 0.313252 0.835754 0.282591
O O5 0.572543 0.633720 0.542947
O O6 0.688134 0.703727 0.709660
O O7 0.704383 0.688428 0.420012
O O8 0.699908 0.564025 0.599057
O O9 0.500000 0.500000 0.500000
O O10 0.526850 0.388266 0.689460
O O11 0.577910 0.393387 0.391088
O O12 0.334976 0.933388 0.753496
O O13 0.187880 0.975017 0.792401
O O14 0.284943 0.928219 0.022655
#
# Coordination Sequence:
#
# PCOD9433136 Si02
#       7
#     8   8   8   4   8   8   8
#     4  12  24  39  62 100 146 178 233 273 327 424
#     4  11  23  48  74  99 137 171 238 299 357 416
#     4  11  24  46  68 100 146 182 226 303 363 402
#     4  10  26  44  78 108 120 184 238 298 356 424
#     4  11  21  39  68  98 130 179 236 284 337 421
#     4  11  23  38  64  97 132 193 223 276 344 411
#     4  11  23  39  69 103 135 190 230 278 350 415
#
# _framework density 20.286064
#
# number of rings (size 3 to 8) (size 9 to 14) (size 15 to 20)
#    0.000    0.923    4.615    4.154    2.154    2.462 
#    0.000    2.308    0.000    0.000    0.000    0.000 
#    0.000    0.000    0.000    0.000    0.000    0.000 
#
# Total GULP energy -290043.322655 kJ/mol
# GULP energy per Si atom -5577.756205 kJ/mol
# Density = 2.023989 g / cm^3
# Si number density = 20.286064 Si / 1000 Ang^3
#
#
#
# Elastic Constant Matrix: (Units=GPa)
#
#
# Indices 1 2 3 4 5 6 
#
# 1 101.2932 7.7631 39.5080 0.0000 0.0000 0.0000
# 2 7.7631 88.2643 32.5202 0.0000 0.0000 0.0000
# 3 39.5080 32.5202 98.2964 0.0000 0.0000 0.0000
# 4 0.0000 0.0000 0.0000 23.9994 0.0000 0.0000
# 5 0.0000 0.0000 0.0000 0.0000 24.4489 0.0000
# 6 0.0000 0.0000 0.0000 0.0000 0.0000 28.9235
#
#
#
# Elastic Compliance Matrix: (Units=1/GPa)
#
#
# Indices 1 2 3 4 5 6 
#
# 1 0.011758 0.000805 -0.004992 0.000000 0.000000 0.000000
# 2 0.000805 0.012957 -0.004610 0.000000 0.000000 0.000000
# 3 -0.004992 -0.004610 0.013705 0.000000 0.000000 0.000000
# 4 0.000000 0.000000 0.000000 0.041668 0.000000 0.000000
# 5 0.000000 0.000000 0.000000 0.000000 0.040902 0.000000
# 6 0.000000 0.000000 0.000000 0.000000 0.000000 0.034574
#
#
# Mechanical properties :
#
#
# Convention : Reuss Voigt Hill
#
# Bulk Modulus (GPa) = 48.01807 49.71517 48.86662
# Shear Modulus (GPa) = 27.76230 29.34518 28.55374
#
# Velocity S-wave (km/s) = 3.70339 3.80750 3.75581
# Velocity P-wave (km/s) = 6.48141 6.62493 6.55356
#
# Compressibility (1/GPa) = 0.02082549
#
# Stress axis : x y z
#
# Youngs Moduli (GPa) = 85.05034 77.17558 72.96552
#
# Poissons Ratio (x) = -0.06214 0.36425
# Poissons Ratio (y) = -0.06848 0.33640
# Poissons Ratio (z) = 0.42458 0.35581
#
# Static dielectric constant tensor:
#      x y z
#    x 1.836200 0.000000 0.000000 
#    y 0.000000 1.762590 0.000000 
#    z 0.000000 0.000000 1.762630 
# 
# From -- ./inp_files/4079.got.cif
#   From: 2010.05.17/outbox.cif.g08.bks.cpg/sg56_3_cif.got.tgz:4079.got - 2010.06.03 13:42:01.
