data_PCOD9433790
_publ_section_title
;
Structure prediction by ZEFSAII (Michael W. Deem and Ramdas Pophale) SiO2 
 PCOD9433790
Probable space group: P C C N
;
_chemical_formula_sum "Si O2"
_cell_formula_units_Z 40
_cell_length_a 11.038583
_cell_length_b 5.567972
_cell_length_c 27.244425
_cell_angle_alpha 90.000000
_cell_angle_beta 90.000000
_cell_angle_gamma 90.000000
_cell_volume 1674.511045
_symmetry_space_group_name_H-M "P C C N"
_symmetry_group_IT_number 56
_symmetry_cell_setting 'orthorhombic'
loop_
_space_group_symop_operation_xyz
x,y,z
1/2-x,1/2-y,z
1/2+x,-y,1/2-z
-x,1/2+y,1/2-z
-x,-y,-z
1/2+x,1/2+y,-z
1/2-x,y,1/2+z
x,1/2-y,1/2+z
loop_
_atom_site_type_symbol
_atom_site_label
_atom_site_fract_x
_atom_site_fract_y
_atom_site_fract_z
Si Si1 0.622636 0.157208 0.356851
Si Si2 0.250000 0.750000 0.331403
Si Si3 0.250000 0.250000 0.963287
Si Si4 0.449670 0.516658 0.401482
Si Si5 0.402503 0.418514 0.039474
Si Si6 0.470974 0.930662 0.277818
O O1 0.750000 0.250000 0.337500
O O2 0.531231 0.377057 0.362548
O O3 0.631352 0.062486 0.412152
O O4 0.561230 0.955930 0.323943
O O5 0.350885 0.653474 0.368944
O O6 0.331351 0.922169 0.296767
O O7 0.134626 0.330852 0.932222
O O8 0.286063 0.444254 0.003868
O O9 0.535330 0.675861 0.437059
O O10 0.500000 0.500000 0.000000
O O11 0.500443 0.677426 0.251523
#
# Coordination Sequence:
#
# PCOD9433790 Si02
#       6
#     8   4   4   8   8   8
#     4  12  28  52  78 115 163 211 265 341 409 490
#     4  12  26  56  86 110 160 206 270 344 398 498
#     4  12  24  40  76 108 160 214 262 330 378 488
#     4  12  25  50  74 113 157 216 276 323 407 477
#     4  12  25  44  69 115 160 208 266 319 399 472
#     4  12  30  58  86 126 157 211 277 344 427 492
#
# _framework density 23.887571000000001
#
# number of rings (size 3 to 8) (size 9 to 14) (size 15 to 20)
#    0.000    0.000    4.000    5.400    4.200    2.400 
#    3.600    0.000    0.000    0.000    0.000    0.000 
#    0.000    0.000    0.000    0.000    0.000    0.000 
#
# Total GULP energy -223300.004397 kJ/mol
# GULP energy per Si atom -5582.500110 kJ/mol
# Density = 2.383320 g / cm^3
# Si number density = 23.887571 Si / 1000 Ang^3
#
#
#
# Elastic Constant Matrix: (Units=GPa)
#
#
# Indices 1 2 3 4 5 6 
#
# 1 133.1658 27.7757 23.2541 0.0000 0.0000 0.0000
# 2 27.7757 89.1626 36.2060 0.0000 0.0000 0.0000
# 3 23.2541 36.2060 102.5096 0.0000 0.0000 0.0000
# 4 0.0000 0.0000 0.0000 39.9630 0.0000 0.0000
# 5 0.0000 0.0000 0.0000 0.0000 5288.0565 0.0000
# 6 0.0000 0.0000 0.0000 0.0000 0.0000 34.7021
#
#
#
# Elastic Compliance Matrix: (Units=1/GPa)
#
#
# Indices 1 2 3 4 5 6 
#
# 1 0.008138 -0.002084 -0.001110 0.000000 0.000000 0.000000
# 2 -0.002084 0.013627 -0.004340 0.000000 0.000000 0.000000
# 3 -0.001110 -0.004340 0.011540 0.000000 0.000000 0.000000
# 4 0.000000 0.000000 0.000000 0.025023 0.000000 0.000000
# 5 0.000000 0.000000 0.000000 0.000000 0.000189 0.000000
# 6 0.000000 0.000000 0.000000 0.000000 0.000000 0.028817
#
#
# Mechanical properties :
#
#
# Convention : Reuss Voigt Hill
#
# Bulk Modulus (GPa) = 54.83645 55.47885 55.15765
# Shear Modulus (GPa) = 46.09062 1088.38446 567.23754
#
# Velocity S-wave (km/s) = 4.39735 21.36860 15.42650
# Velocity P-wave (km/s) = 6.98485 25.14156 18.45110
#
# Compressibility (1/GPa) = 0.01823605
#
# Stress axis : x y z
#
# Youngs Moduli (GPa) = 122.87998 73.38249 86.65573
#
# Poissons Ratio (x) = 0.15296 0.09618
# Poissons Ratio (y) = 0.25614 0.37611
# Poissons Ratio (z) = 0.13638 0.31850
#
# Static dielectric constant tensor:
#      x y z
#    x 1.743290 0.000000 0.000000 
#    y 0.000000 1.907910 0.000000 
#    z 0.000000 0.000000 1.936490 
# 
# From -- ./inp_files/22204.got.cif
#   From: 2010.05.17/outbox.cif.g08.bks.cpg/sg56_12_cif.got.tgz:22204.got - 2010.06.03 13:42:01.
