data_PCOD9433940
_publ_section_title
;
Structure prediction by ZEFSAII (Michael W. Deem and Ramdas Pophale) SiO2 
 PCOD9433940
Probable space group: P C C N
;
_chemical_formula_sum "Si O2"
_cell_formula_units_Z 48
_cell_length_a 9.000000
_cell_length_b 12.000000
_cell_length_c 24.000000
_cell_angle_alpha 90.000000
_cell_angle_beta 90.000000
_cell_angle_gamma 90.000000
_cell_volume 2592.000000
_symmetry_space_group_name_H-M "P C C N"
_symmetry_group_IT_number 56
_symmetry_cell_setting 'orthorhombic'
loop_
_space_group_symop_operation_xyz
x,y,z
1/2-x,1/2-y,z
1/2+x,-y,1/2-z
-x,1/2+y,1/2-z
-x,-y,-z
1/2+x,1/2+y,-z
1/2-x,y,1/2+z
x,1/2-y,1/2+z
loop_
_atom_site_type_symbol
_atom_site_label
_atom_site_fract_x
_atom_site_fract_y
_atom_site_fract_z
Si Si1 0.737584 0.111134 0.707527
Si Si2 0.069172 0.527419 0.686396
Si Si3 0.728614 0.620223 0.398389
Si Si4 0.854594 0.927563 0.019456
Si Si5 0.581671 0.734941 0.120917
Si Si6 0.589753 0.995568 0.104125
O O1 0.750000 0.250000 0.705310
O O2 0.826369 0.066630 0.762163
O O3 0.569853 0.055015 0.704541
O O4 0.821752 0.053378 0.655175
O O5 0.170849 0.458936 0.641917
O O6 0.005103 0.642946 0.658409
O O7 0.750000 0.750000 0.379824
O O8 0.789295 0.614364 0.461329
O O9 0.559450 0.571227 0.401960
O O10 0.905691 0.827302 0.060762
O O11 0.716963 0.986222 0.054563
O O12 0.000000 0.000000 0.000000
O O13 0.750000 0.750000 0.143280
O O14 0.535506 0.865924 0.114900
#
# Coordination Sequence:
#
# PCOD9433940 Si02
#       6
#     8   8   8   8   8   8
#     4  12  27  45  70 100 137 178 233 291 352 420
#     4  12  26  45  68 100 136 183 228 289 352 418
#     4  12  25  44  68 100 142 182 233 283 344 417
#     4  11  21  44  71 104 141 182 226 284 350 416
#     4  10  21  44  72  96 138 177 231 285 347 420
#     4  11  24  45  70 104 137 187 234 284 354 419
#
# _framework density 18.518519000000001
#
# number of rings (size 3 to 8) (size 9 to 14) (size 15 to 20)
#    0.000    0.667    5.000    4.000    4.667    0.000 
#    0.000    1.667    0.000    0.000    0.000    0.000 
#    0.000    0.000    0.000    0.000    0.000    0.000 
#
# Total GULP energy -267664.679972 kJ/mol
# GULP energy per Si atom -5576.347499 kJ/mol
# Density = 1.847637 g / cm^3
# Si number density = 18.518519 Si / 1000 Ang^3
#
#
#
# Elastic Constant Matrix: (Units=GPa)
#
#
# Indices 1 2 3 4 5 6 
#
# 1 137.9835 66.3840 52.5550 0.0000 0.0000 0.0000
# 2 66.3840 176.1751 53.6480 0.0000 0.0000 0.0000
# 3 52.5550 53.6480 137.1397 0.0000 0.0000 0.0000
# 4 0.0000 0.0000 0.0000 34.6988 0.0000 0.0000
# 5 0.0000 0.0000 0.0000 0.0000 49.7819 0.0000
# 6 0.0000 0.0000 0.0000 0.0000 0.0000 46.0443
#
#
#
# Elastic Compliance Matrix: (Units=1/GPa)
#
#
# Indices 1 2 3 4 5 6 
#
# 1 0.009587 -0.002831 -0.002566 0.000000 0.000000 0.000000
# 2 -0.002831 0.007280 -0.001763 0.000000 0.000000 0.000000
# 3 -0.002566 -0.001763 0.008965 0.000000 0.000000 0.000000
# 4 0.000000 0.000000 0.000000 0.028819 0.000000 0.000000
# 5 0.000000 0.000000 0.000000 0.000000 0.020088 0.000000
# 6 0.000000 0.000000 0.000000 0.000000 0.000000 0.021718
#
#
# Mechanical properties :
#
#
# Convention : Reuss Voigt Hill
#
# Bulk Modulus (GPa) = 86.87344 88.49692 87.68518
# Shear Modulus (GPa) = 43.62473 44.68576 44.15524
#
# Velocity S-wave (km/s) = 4.85886 4.91759 4.88831
# Velocity P-wave (km/s) = 8.85954 8.95185 8.90582
#
# Compressibility (1/GPa) = 0.01151100
#
# Stress axis : x y z
#
# Youngs Moduli (GPa) = 104.31184 137.36885 111.54496
#
# Poissons Ratio (x) = 0.38886 0.28627
# Poissons Ratio (y) = 0.29529 0.19665
# Poissons Ratio (z) = 0.26771 0.24217
#
# Static dielectric constant tensor:
#      x y z
#    x 1.665690 0.000000 0.000000 
#    y 0.000000 1.659850 0.000000 
#    z 0.000000 0.000000 1.646410 
# 
# From -- ./inp_files/20503.got.cif
#   From: 2010.05.17/outbox.ucp.g08.bks.cvg/sg56_11_cif.got.tgz:20503.got - 2010.06.11 16:37:52.
