data_PCOD9433388
_publ_section_title
;
Structure prediction by ZEFSAII (Michael W. Deem and Ramdas Pophale) SiO2 
 PCOD9433388
Probable space group: P C C N
;
_chemical_formula_sum "Si O2"
_cell_formula_units_Z 56
_cell_length_a 12.159046
_cell_length_b 14.103068
_cell_length_c 14.505669
_cell_angle_alpha 90.000000
_cell_angle_beta 90.000000
_cell_angle_gamma 90.000000
_cell_volume 2487.429981
_symmetry_space_group_name_H-M "P C C N"
_symmetry_group_IT_number 56
_symmetry_cell_setting 'orthorhombic'
loop_
_space_group_symop_operation_xyz
x,y,z
1/2-x,1/2-y,z
1/2+x,-y,1/2-z
-x,1/2+y,1/2-z
-x,-y,-z
1/2+x,1/2+y,-z
1/2-x,y,1/2+z
x,1/2-y,1/2+z
loop_
_atom_site_type_symbol
_atom_site_label
_atom_site_fract_x
_atom_site_fract_y
_atom_site_fract_z
Si Si1 0.044591 0.856577 0.797927
Si Si2 0.701542 0.857604 0.374499
Si Si3 0.884991 0.928904 0.241012
Si Si4 0.628964 0.238833 0.524976
Si Si5 0.042011 0.236579 0.876855
Si Si6 0.040124 0.569745 0.898361
Si Si7 0.339782 0.411823 0.468926
O O1 0.924561 0.858856 0.846407
O O2 0.021129 0.796862 0.703894
O O3 0.123070 0.811379 0.875774
O O4 0.091147 0.961514 0.779252
O O5 0.750000 0.750000 0.375316
O O6 0.774608 0.912476 0.299106
O O7 0.728170 0.901625 0.474698
O O8 0.886971 0.850215 0.161774
O O9 0.992571 0.899090 0.300927
O O10 0.750000 0.250000 0.486900
O O11 0.546567 0.197395 0.449598
O O12 0.589042 0.344512 0.545451
O O13 0.119168 0.311668 0.930408
O O14 0.132173 0.488606 0.891008
O O15 0.925840 0.548730 0.952890
#
# Coordination Sequence:
#
# PCOD9433388 Si02
#       7
#     8   8   8   8   8   8   8
#     4  12  25  47  71 105 145 183 242 305 357 441
#     4  11  22  44  69 106 144 183 241 309 358 430
#     4  11  23  42  70 103 143 183 235 297 358 426
#     4  11  26  45  67  99 141 184 234 291 357 432
#     4  11  22  45  71  99 136 186 241 290 360 432
#     4   9  17  38  66  97 129 173 230 282 334 432
#     4   9  19  36  69  98 127 177 232 285 354 418
#
# _framework density 22.513197999999999
#
# number of rings (size 3 to 8) (size 9 to 14) (size 15 to 20)
#    0.000    1.429    4.286    1.714    2.000    3.429 
#    7.714    0.000    0.000    0.000    0.000    0.000 
#    0.000    0.000    0.000    0.000    0.000    0.000 
#
# Total GULP energy -312738.712360 kJ/mol
# GULP energy per Si atom -5584.619864 kJ/mol
# Density = 2.246196 g / cm^3
# Si number density = 22.513198 Si / 1000 Ang^3
#
#
#
# Elastic Constant Matrix: (Units=GPa)
#
#
# Indices 1 2 3 4 5 6 
#
# 1 46.0866 0.6140 15.3097 0.0000 0.0000 0.0000
# 2 0.6140 67.4594 5.9494 0.0000 0.0000 0.0000
# 3 15.3097 5.9494 88.2074 0.0000 0.0000 0.0000
# 4 0.0000 0.0000 0.0000 23.3522 0.0000 0.0000
# 5 0.0000 0.0000 0.0000 0.0000 16.8417 0.0000
# 6 0.0000 0.0000 0.0000 0.0000 0.0000 16.8184
#
#
#
# Elastic Compliance Matrix: (Units=1/GPa)
#
#
# Indices 1 2 3 4 5 6 
#
# 1 0.023027 0.000144 -0.004006 0.000000 0.000000 0.000000
# 2 0.000144 0.014913 -0.001031 0.000000 0.000000 0.000000
# 3 -0.004006 -0.001031 0.012102 0.000000 0.000000 0.000000
# 4 0.000000 0.000000 0.000000 0.042823 0.000000 0.000000
# 5 0.000000 0.000000 0.000000 0.000000 0.059377 0.000000
# 6 0.000000 0.000000 0.000000 0.000000 0.000000 0.059459
#
#
# Mechanical properties :
#
#
# Convention : Reuss Voigt Hill
#
# Bulk Modulus (GPa) = 24.84137 27.27772 26.05955
# Shear Modulus (GPa) = 21.28514 23.39447 22.33980
#
# Velocity S-wave (km/s) = 3.07816 3.22707 3.15349
# Velocity P-wave (km/s) = 4.86739 5.10176 4.98595
#
# Compressibility (1/GPa) = 0.04025542
#
# Stress axis : x y z
#
# Youngs Moduli (GPa) = 43.42678 67.05413 82.63220
#
# Poissons Ratio (x) = -0.00964 0.33106
# Poissons Ratio (y) = -0.00624 0.08518
# Poissons Ratio (z) = 0.17399 0.06912
#
# Static dielectric constant tensor:
#      x y z
#    x 1.842520 0.000000 0.000000 
#    y 0.000000 1.851020 0.000000 
#    z 0.000000 0.000000 1.929280 
# 
# From -- ./inp_files/11706.got.cif
#   From: 2010.05.17/outbox.cif.g08.bks.cpg/sg56_6_cif.got.tgz:11706.got - 2010.06.03 13:42:01.
