data_PCOD9433379
_publ_section_title
;
Structure prediction by ZEFSAII (Michael W. Deem and Ramdas Pophale) SiO2 
 PCOD9433379
Probable space group: P C C N
;
_chemical_formula_sum "Si O2"
_cell_formula_units_Z 60
_cell_length_a 8.958713
_cell_length_b 16.912375
_cell_length_c 16.775264
_cell_angle_alpha 90.000000
_cell_angle_beta 90.000000
_cell_angle_gamma 90.000000
_cell_volume 2541.672483
_symmetry_space_group_name_H-M "P C C N"
_symmetry_group_IT_number 56
_symmetry_cell_setting 'orthorhombic'
loop_
_space_group_symop_operation_xyz
x,y,z
1/2-x,1/2-y,z
1/2+x,-y,1/2-z
-x,1/2+y,1/2-z
-x,-y,-z
1/2+x,1/2+y,-z
1/2-x,y,1/2+z
x,1/2-y,1/2+z
loop_
_atom_site_type_symbol
_atom_site_label
_atom_site_fract_x
_atom_site_fract_y
_atom_site_fract_z
Si Si1 0.084801 0.118285 0.513149
Si Si2 0.574791 0.245893 0.302275
Si Si3 0.856866 0.675155 0.810590
Si Si4 0.450419 0.928461 0.201283
Si Si5 0.750000 0.750000 0.510713
Si Si6 0.284815 0.038079 0.312699
Si Si7 0.473322 0.368629 0.943796
Si Si8 0.715714 0.446815 0.461793
O O1 0.125861 0.159725 0.596230
O O2 0.147231 0.181627 0.449859
O O3 0.909491 0.106924 0.503930
O O4 0.169146 0.035048 0.512733
O O5 0.750000 0.250000 0.302034
O O6 0.513874 0.197385 0.227542
O O7 0.518369 0.335568 0.295182
O O8 0.528846 0.195988 0.379581
O O9 0.750000 0.750000 0.798713
O O10 0.799225 0.600516 0.760645
O O11 0.605947 0.972406 0.177868
O O12 0.328968 0.941611 0.131402
O O13 0.376502 0.962430 0.281326
O O14 0.883511 0.684413 0.490870
O O15 0.371127 0.073845 0.388758
O O16 0.616630 0.417318 0.974830
#
# Coordination Sequence:
#
# PCOD9433379 Si02
#       8
#     8   8   8   8   4   8   8   8
#     4  11  25  44  66  94 131 184 228 277 337 405
#     4  11  23  38  66 100 128 165 214 275 340 402
#     4  11  22  43  64  93 134 174 217 271 330 404
#     4  12  22  40  65 101 134 170 220 278 347 411
#     4  12  26  44  68  94 132 180 234 276 330 422
#     4  11  24  38  68 100 133 172 214 281 352 404
#     4  11  24  44  70  99 129 174 230 284 350 407
#     4  11  24  44  71  95 134 177 230 288 337 407
#
# _framework density 23.606503
#
# number of rings (size 3 to 8) (size 9 to 14) (size 15 to 20)
#    0.000    0.800    4.667    3.200    3.733    0.533 
#    2.400    0.000    0.000    0.000    0.000    0.000 
#    0.000    0.000    0.000    0.000    0.000    0.000 
#
# Total GULP energy -334963.147362 kJ/mol
# GULP energy per Si atom -5582.719123 kJ/mol
# Density = 2.355277 g / cm^3
# Si number density = 23.606503 Si / 1000 Ang^3
#
#
#
# Elastic Constant Matrix: (Units=GPa)
#
#
# Indices 1 2 3 4 5 6 
#
# 1 116.6577 21.8703 30.5355 0.0000 0.0000 0.0000
# 2 21.8703 73.4120 11.4454 0.0000 0.0000 0.0000
# 3 30.5355 11.4454 53.5142 0.0000 0.0000 0.0000
# 4 0.0000 0.0000 0.0000 5.2176 0.0000 0.0000
# 5 0.0000 0.0000 0.0000 0.0000 23.2117 0.0000
# 6 0.0000 0.0000 0.0000 0.0000 0.0000 31.0371
#
#
#
# Elastic Compliance Matrix: (Units=1/GPa)
#
#
# Indices 1 2 3 4 5 6 
#
# 1 0.010426 -0.002254 -0.005467 0.000000 0.000000 0.000000
# 2 -0.002254 0.014579 -0.001832 0.000000 0.000000 0.000000
# 3 -0.005467 -0.001832 0.022198 0.000000 0.000000 0.000000
# 4 0.000000 0.000000 0.000000 0.191661 0.000000 0.000000
# 5 0.000000 0.000000 0.000000 0.000000 0.043082 0.000000
# 6 0.000000 0.000000 0.000000 0.000000 0.000000 0.032220
#
#
# Mechanical properties :
#
#
# Convention : Reuss Voigt Hill
#
# Bulk Modulus (GPa) = 35.59097 41.25402 38.42249
# Shear Modulus (GPa) = 14.59279 23.87546 19.23413
#
# Velocity S-wave (km/s) = 2.48900 3.18369 2.85753
# Velocity P-wave (km/s) = 4.83421 5.57029 5.21526
#
# Compressibility (1/GPa) = 0.02809702
#
# Stress axis : x y z
#
# Youngs Moduli (GPa) = 95.91823 68.59298 45.04926
#
# Poissons Ratio (x) = 0.15458 0.24628
# Poissons Ratio (y) = 0.21616 0.08254
# Poissons Ratio (z) = 0.52437 0.12567
#
# Static dielectric constant tensor:
#      x y z
#    x 1.918470 0.000000 0.000000 
#    y 0.000000 1.956370 0.000000 
#    z 0.000000 0.000000 1.957260 
# 
# From -- ./inp_files/15086.got.cif
#   From: 2010.05.17/outbox.cif.g08.bks.cpg/sg56_8_cif.got.tgz:15086.got - 2010.06.03 13:42:01.
