data_PCOD9433600
_publ_section_title
;
Structure prediction by ZEFSAII (Michael W. Deem and Ramdas Pophale) SiO2 
 PCOD9433600
Probable space group: P C C N
;
_chemical_formula_sum "Si O2"
_cell_formula_units_Z 44
_cell_length_a 8.995905
_cell_length_b 15.356991
_cell_length_c 14.007704
_cell_angle_alpha 90.000000
_cell_angle_beta 90.000000
_cell_angle_gamma 90.000000
_cell_volume 1935.164758
_symmetry_space_group_name_H-M "P C C N"
_symmetry_group_IT_number 56
_symmetry_cell_setting 'orthorhombic'
loop_
_space_group_symop_operation_xyz
x,y,z
1/2-x,1/2-y,z
1/2+x,-y,1/2-z
-x,1/2+y,1/2-z
-x,-y,-z
1/2+x,1/2+y,-z
1/2-x,y,1/2+z
x,1/2-y,1/2+z
loop_
_atom_site_type_symbol
_atom_site_label
_atom_site_fract_x
_atom_site_fract_y
_atom_site_fract_z
Si Si1 0.751881 0.498917 0.638961
Si Si2 0.000000 0.000000 0.000000
Si Si3 0.123641 0.180873 0.814806
Si Si4 0.460141 0.394604 0.612395
Si Si5 0.749739 0.039161 0.362819
Si Si6 0.905436 0.207175 0.446265
O O1 0.786833 0.601927 0.633953
O O2 0.590670 0.466245 0.607937
O O3 0.762700 0.471832 0.749353
O O4 0.872063 0.456546 0.568814
O O5 0.915697 0.041475 0.904045
O O6 0.250000 0.250000 0.786667
O O7 0.049568 0.144379 0.718438
O O8 0.002736 0.229856 0.879705
O O9 0.310380 0.448077 0.593364
O O10 0.496466 0.321434 0.536017
O O11 0.851220 0.120262 0.391649
O O12 0.750000 0.250000 0.477349
#
# Coordination Sequence:
#
# PCOD9433600 Si02
#       6
#     8   4   8   8   8   8
#     4  11  24  48  75 107 143 198 258 305 367 463
#     4  12  24  42  80 110 138 194 260 302 366 444
#     4  11  27  47  72 109 148 192 245 318 387 446
#     4  11  25  48  74 104 145 199 244 305 375 466
#     4  11  24  46  75 107 146 199 258 305 372 461
#     4  12  25  46  70 110 150 188 239 319 387 444
#
# _framework density 22.737081
#
# number of rings (size 3 to 8) (size 9 to 14) (size 15 to 20)
#    0.000    0.727    1.818    6.000    2.545    4.364 
#    9.818    0.000    0.000    0.000    0.000    0.000 
#    0.000    0.000    0.000    0.000    0.000    0.000 
#
# Total GULP energy -245276.623365 kJ/mol
# GULP energy per Si atom -5574.468713 kJ/mol
# Density = 2.268533 g / cm^3
# Si number density = 22.737081 Si / 1000 Ang^3
#
#
#
# Elastic Constant Matrix: (Units=GPa)
#
#
# Indices 1 2 3 4 5 6 
#
# 1 73.5696 34.4121 9.9933 0.0000 0.0000 0.0000
# 2 34.4121 102.8332 26.8033 0.0000 0.0000 0.0000
# 3 9.9933 26.8033 88.2212 0.0000 0.0000 0.0000
# 4 0.0000 0.0000 0.0000 29.6231 0.0000 0.0000
# 5 0.0000 0.0000 0.0000 0.0000 34.1484 0.0000
# 6 0.0000 0.0000 0.0000 0.0000 0.0000 39.5667
#
#
#
# Elastic Compliance Matrix: (Units=1/GPa)
#
#
# Indices 1 2 3 4 5 6 
#
# 1 0.016118 -0.005341 -0.000203 0.000000 0.000000 0.000000
# 2 -0.005341 0.012331 -0.003141 0.000000 0.000000 0.000000
# 3 -0.000203 -0.003141 0.012313 0.000000 0.000000 0.000000
# 4 0.000000 0.000000 0.000000 0.033757 0.000000 0.000000
# 5 0.000000 0.000000 0.000000 0.000000 0.029284 0.000000
# 6 0.000000 0.000000 0.000000 0.000000 0.000000 0.025274
#
#
# Mechanical properties :
#
#
# Convention : Reuss Voigt Hill
#
# Bulk Modulus (GPa) = 42.75183 45.22683 43.98933
# Shear Modulus (GPa) = 32.41616 33.56202 32.98909
#
# Velocity S-wave (km/s) = 3.77994 3.84616 3.81319
# Velocity P-wave (km/s) = 6.15581 6.29749 6.22705
#
# Compressibility (1/GPa) = 0.02339081
#
# Stress axis : x y z
#
# Youngs Moduli (GPa) = 62.04106 81.09956 81.21813
#
# Poissons Ratio (x) = 0.43314 0.01650
# Poissons Ratio (y) = 0.33136 0.25513
# Poissons Ratio (z) = 0.01260 0.25475
#
# Static dielectric constant tensor:
#      x y z
#    x 1.864790 0.000000 0.000000 
#    y 0.000000 1.853770 0.000000 
#    z 0.000000 0.000000 1.844480 
# 
# From -- ./inp_files/10565.got.cif
#   From: 2010.05.17/outbox.cif.g08.bks.cpg/sg56_6_cif.got.tgz:10565.got - 2010.06.03 13:42:01.
