data_PCOD9433242
_publ_section_title
;
Structure prediction by ZEFSAII (Michael W. Deem and Ramdas Pophale) SiO2 
 PCOD9433242
Probable space group: P C C N
;
_chemical_formula_sum "Si O2"
_cell_formula_units_Z 32
_cell_length_a 5.782927
_cell_length_b 12.514755
_cell_length_c 18.878988
_cell_angle_alpha 90.000000
_cell_angle_beta 90.000000
_cell_angle_gamma 90.000000
_cell_volume 1366.308507
_symmetry_space_group_name_H-M "P C C N"
_symmetry_group_IT_number 56
_symmetry_cell_setting 'orthorhombic'
loop_
_space_group_symop_operation_xyz
x,y,z
1/2-x,1/2-y,z
1/2+x,-y,1/2-z
-x,1/2+y,1/2-z
-x,-y,-z
1/2+x,1/2+y,-z
1/2-x,y,1/2+z
x,1/2-y,1/2+z
loop_
_atom_site_type_symbol
_atom_site_label
_atom_site_fract_x
_atom_site_fract_y
_atom_site_fract_z
Si Si1 0.603689 0.027215 0.576849
Si Si2 0.944817 0.658248 0.081021
Si Si3 0.250000 0.750000 0.703043
Si Si4 0.445670 0.957355 0.724689
Si Si5 0.750000 0.250000 0.543463
O O1 0.627872 0.154502 0.585433
O O2 0.500000 0.000000 0.500000
O O3 0.840286 0.959600 0.580788
O O4 0.453497 0.978906 0.640289
O O5 0.750000 0.750000 0.082862
O O6 0.092170 0.679791 0.150933
O O7 0.085008 0.684621 0.010100
O O8 0.409023 0.832970 0.743609
O O9 0.706460 0.989553 0.747858
#
# Coordination Sequence:
#
# PCOD9433242 Si02
#       5
#     8   8   4   8   4
#     4  12  24  46  75 109 147 198 254 310 379 453
#     4  11  20  42  73 109 143 200 253 294 370 465
#     4  11  24  49  76  98 148 208 254 292 374 478
#     4  12  29  50  76 112 150 199 253 313 380 454
#     4  11  24  39  68 114 156 184 242 338 382 416
#
# _framework density 23.420770999999998
#
# number of rings (size 3 to 8) (size 9 to 14) (size 15 to 20)
#    0.000    0.500    5.000    3.750    0.000    3.000 
#    0.000    5.000    0.000    0.000    0.000    0.000 
#    0.000    0.000    0.000    0.000    0.000    0.000 
#
# Total GULP energy -178943.340807 kJ/mol
# GULP energy per Si atom -5591.979400 kJ/mol
# Density = 2.336746 g / cm^3
# Si number density = 23.420771 Si / 1000 Ang^3
#
#
#
# Elastic Constant Matrix: (Units=GPa)
#
#
# Indices 1 2 3 4 5 6 
#
# 1 118.1063 40.2557 35.7195 0.0000 0.0000 0.0000
# 2 40.2557 157.2891 11.0929 0.0000 0.0000 0.0000
# 3 35.7195 11.0929 70.8963 0.0000 0.0000 0.0000
# 4 0.0000 0.0000 0.0000 71.7337 0.0000 0.0000
# 5 0.0000 0.0000 0.0000 0.0000 -25.8246 0.0000
# 6 0.0000 0.0000 0.0000 0.0000 0.0000 56.6065
#
#
#
# Elastic Compliance Matrix: (Units=1/GPa)
#
#
# Indices 1 2 3 4 5 6 
#
# 1 0.010824 -0.002412 -0.005076 0.000000 0.000000 0.000000
# 2 -0.002412 0.006966 0.000125 0.000000 0.000000 0.000000
# 3 -0.005076 0.000125 0.016643 0.000000 0.000000 0.000000
# 4 0.000000 0.000000 0.000000 0.013940 0.000000 0.000000
# 5 0.000000 0.000000 0.000000 0.000000 -0.038723 0.000000
# 6 0.000000 0.000000 0.000000 0.000000 0.000000 0.017666
#
#
# Mechanical properties :
#
#
# Convention : Reuss Voigt Hill
#
# Bulk Modulus (GPa) = 50.74217 57.82532 54.28374
# Shear Modulus (GPa) = 102.85416 37.78470 70.31943
#
# Velocity S-wave (km/s) = 6.63409 4.02095 5.48540
# Velocity P-wave (km/s) = 8.96627 6.80446 7.95910
#
# Compressibility (1/GPa) = 0.01970748
#
# Stress axis : x y z
#
# Youngs Moduli (GPa) = 92.38398 143.54875 60.08528
#
# Poissons Ratio (x) = 0.34629 0.30500
# Poissons Ratio (y) = 0.22286 -0.00754
# Poissons Ratio (z) = 0.46896 -0.01800
#
# Static dielectric constant tensor:
#      x y z
#    x 1.928640 0.000000 0.000000 
#    y 0.000000 1.878300 0.000000 
#    z 0.000000 0.000000 1.924130 
# 
# From -- ./inp_files/13779.got.cif
#   From: 2010.05.17/outbox.cif.g08.bks.cpg/sg56_7_cif.got.tgz:13779.got - 2010.06.03 13:42:01.
