data_PCOD9433889
_publ_section_title
;
Structure prediction by ZEFSAII (Michael W. Deem and Ramdas Pophale) SiO2 
 PCOD9433889
Probable space group: P C C N
;
_chemical_formula_sum "Si O2"
_cell_formula_units_Z 48
_cell_length_a 13.087301
_cell_length_b 17.827954
_cell_length_c 7.016746
_cell_angle_alpha 90.000000
_cell_angle_beta 90.000000
_cell_angle_gamma 90.000000
_cell_volume 1637.145775
_symmetry_space_group_name_H-M "P C C N"
_symmetry_group_IT_number 56
_symmetry_cell_setting 'orthorhombic'
loop_
_space_group_symop_operation_xyz
x,y,z
1/2-x,1/2-y,z
1/2+x,-y,1/2-z
-x,1/2+y,1/2-z
-x,-y,-z
1/2+x,1/2+y,-z
1/2-x,y,1/2+z
x,1/2-y,1/2+z
loop_
_atom_site_type_symbol
_atom_site_label
_atom_site_fract_x
_atom_site_fract_y
_atom_site_fract_z
Si Si1 0.157542 0.334328 0.394752
Si Si2 0.094503 0.647342 0.186274
Si Si3 0.928049 0.190867 0.873962
Si Si4 0.869738 0.505877 0.709207
Si Si5 0.633679 0.622456 0.665795
Si Si6 0.112241 0.534139 0.726107
O O1 0.164143 0.408610 0.259265
O O2 0.131765 0.359097 0.608927
O O3 0.280465 0.319805 0.408204
O O4 0.050268 0.296272 0.329178
O O5 0.079314 0.658908 0.413421
O O6 0.128306 0.729706 0.124745
O O7 0.157167 0.569818 0.175052
O O8 0.981798 0.634722 0.097177
O O9 0.881786 0.123746 0.744607
O O10 0.853228 0.485704 0.487750
O O11 0.991926 0.514950 0.730636
O O12 0.656494 0.533104 0.645125
#
# Coordination Sequence:
#
# PCOD9433889 Si02
#       6
#     8   8   8   8   8   8
#     4   9  17  29  45  64  86 112 141 173 209 249
#     4   9  17  29  45  64  86 112 141 173 209 249
#     4   9  17  29  45  64  86 112 141 173 209 249
#     4   7  12  26  45  60  77 108 146 175 202 241
#     4   9  17  29  45  64  86 112 141 173 209 249
#     4   7  12  26  45  60  77 108 146 175 202 241
#
# _framework density 29.319317000000002
#
# number of rings (size 3 to 8) (size 9 to 14) (size 15 to 20)
#    0.000    3.667    0.000    4.000    0.000    2.000 
#    0.000    5.000    0.000    7.000    0.000    7.000 
#    0.000    0.000    0.000    0.000    0.000    0.000 
#
# Total GULP energy -268071.614830 kJ/mol
# GULP energy per Si atom -5584.825309 kJ/mol
# Density = 2.925258 g / cm^3
# Si number density = 29.319317 Si / 1000 Ang^3
#
#
#
# Elastic Constant Matrix: (Units=GPa)
#
#
# Indices 1 2 3 4 5 6 
#
# 1 73.9467 -26.5958 9.6705 0.0000 0.0000 0.0000
# 2 -26.5958 138.7995 32.0627 0.0000 0.0000 0.0000
# 3 9.6705 32.0627 74.8866 0.0000 0.0000 0.0000
# 4 0.0000 0.0000 0.0000 27.6111 0.0000 0.0000
# 5 0.0000 0.0000 0.0000 0.0000 21.1841 0.0000
# 6 0.0000 0.0000 0.0000 0.0000 0.0000 -7.5867
#
#
#
# Elastic Compliance Matrix: (Units=1/GPa)
#
#
# Indices 1 2 3 4 5 6 
#
# 1 0.015350 0.003772 -0.003597 0.000000 0.000000 0.000000
# 2 0.003772 0.008922 -0.004307 0.000000 0.000000 0.000000
# 3 -0.003597 -0.004307 0.015662 0.000000 0.000000 0.000000
# 4 0.000000 0.000000 0.000000 0.036217 0.000000 0.000000
# 5 0.000000 0.000000 0.000000 0.000000 0.047205 0.000000
# 6 0.000000 0.000000 0.000000 0.000000 0.000000 -0.131809
#
#
# Mechanical properties :
#
#
# Convention : Reuss Voigt Hill
#
# Bulk Modulus (GPa) = 31.57515 35.32306 33.44911
# Shear Modulus (GPa) = 482.16627 26.40806 254.28717
#
# Velocity S-wave (km/s) = 12.83785 3.00443 9.32301
# Velocity P-wave (km/s) = 15.18355 4.91013 11.28382
#
# Compressibility (1/GPa) = 0.03167048
#
# Stress axis : x y z
#
# Youngs Moduli (GPa) = 65.14446 112.07675 63.84781
#
# Poissons Ratio (x) = -0.42279 0.22969
# Poissons Ratio (y) = -0.24575 0.27501
# Poissons Ratio (z) = 0.23435 0.48275
#
# Static dielectric constant tensor:
#      x y z
#    x 2.329630 0.000000 0.000000 
#    y 0.000000 2.346360 0.000000 
#    z 0.000000 0.000000 2.256060 
# 
# From -- ./inp_files/3397.got.cif
#   From: 2010.05.17/outbox.cif.g08.bks.cpg/sg56_2_cif.got.tgz:3397.got - 2010.06.03 13:42:01.
