data_PCOD9433750
_publ_section_title
;
Structure prediction by ZEFSAII (Michael W. Deem and Ramdas Pophale) SiO2 
 PCOD9433750
Probable space group: P C C N
;
_chemical_formula_sum "Si O2"
_cell_formula_units_Z 36
_cell_length_a 13.213458
_cell_length_b 9.117874
_cell_length_c 13.006390
_cell_angle_alpha 90.000000
_cell_angle_beta 90.000000
_cell_angle_gamma 90.000000
_cell_volume 1566.992245
_symmetry_space_group_name_H-M "P C C N"
_symmetry_group_IT_number 56
_symmetry_cell_setting 'orthorhombic'
loop_
_space_group_symop_operation_xyz
x,y,z
1/2-x,1/2-y,z
1/2+x,-y,1/2-z
-x,1/2+y,1/2-z
-x,-y,-z
1/2+x,1/2+y,-z
1/2-x,y,1/2+z
x,1/2-y,1/2+z
loop_
_atom_site_type_symbol
_atom_site_label
_atom_site_fract_x
_atom_site_fract_y
_atom_site_fract_z
Si Si1 0.063884 0.293156 0.034615
Si Si2 0.073910 0.027067 0.165171
Si Si3 0.750000 0.750000 0.618938
Si Si4 0.539900 0.186166 0.841552
Si Si5 0.194703 0.466000 0.200264
O O1 0.113077 0.377002 0.131410
O O2 0.030898 0.135339 0.078766
O O3 0.156105 0.283191 0.954638
O O4 0.973534 0.351013 0.962421
O O5 0.035283 0.861367 0.166296
O O6 0.194844 0.028135 0.149672
O O7 0.043820 0.104003 0.272641
O O8 0.785281 0.617757 0.693396
O O9 0.644581 0.125372 0.795177
#
# Coordination Sequence:
#
# PCOD9433750 Si02
#       5
#     8   8   4   8   8
#     4  12  22  44  72  96 137 183 233 285 351 414
#     4  12  24  46  68 105 141 186 229 290 352 418
#     4  12  20  44  74  92 134 190 226 276 354 416
#     4  12  27  43  72 104 141 179 239 294 343 421
#     4  12  24  45  71 100 138 186 234 288 351 420
#
# _framework density 22.973949000000001
#
# number of rings (size 3 to 8) (size 9 to 14) (size 15 to 20)
#    0.000    0.000    6.667    4.667    0.000    0.000 
#    0.000    0.000    0.000    0.000    0.000    0.000 
#    0.000    0.000    0.000    0.000    0.000    0.000 
#
# Total GULP energy -201326.489013 kJ/mol
# GULP energy per Si atom -5592.402473 kJ/mol
# Density = 2.292166 g / cm^3
# Si number density = 22.973949 Si / 1000 Ang^3
#
#
#
# Elastic Constant Matrix: (Units=GPa)
#
#
# Indices 1 2 3 4 5 6 
#
# 1 61.1353 16.1330 4.8489 0.0000 0.0000 0.0000
# 2 16.1330 143.1036 47.3038 0.0000 0.0000 0.0000
# 3 4.8489 47.3038 112.3230 0.0000 0.0000 0.0000
# 4 0.0000 0.0000 0.0000 26.4701 0.0000 0.0000
# 5 0.0000 0.0000 0.0000 0.0000 35.4009 0.0000
# 6 0.0000 0.0000 0.0000 0.0000 0.0000 30.4395
#
#
#
# Elastic Compliance Matrix: (Units=1/GPa)
#
#
# Indices 1 2 3 4 5 6 
#
# 1 0.016859 -0.001929 0.000084 0.000000 0.000000 0.000000
# 2 -0.001929 0.008339 -0.003429 0.000000 0.000000 0.000000
# 3 0.000084 -0.003429 0.010343 0.000000 0.000000 0.000000
# 4 0.000000 0.000000 0.000000 0.037778 0.000000 0.000000
# 5 0.000000 0.000000 0.000000 0.000000 0.028248 0.000000
# 6 0.000000 0.000000 0.000000 0.000000 0.000000 0.032852
#
#
# Mechanical properties :
#
#
# Convention : Reuss Voigt Hill
#
# Bulk Modulus (GPa) = 40.00663 50.34814 45.17739
# Shear Modulus (GPa) = 32.61645 35.01385 33.81515
#
# Velocity S-wave (km/s) = 3.77200 3.90817 3.84069
# Velocity P-wave (km/s) = 6.03509 6.50599 6.27496
#
# Compressibility (1/GPa) = 0.02499586
#
# Stress axis : x y z
#
# Youngs Moduli (GPa) = 59.31407 119.92306 96.68248
#
# Poissons Ratio (x) = 0.23128 -0.00816
# Poissons Ratio (y) = 0.11439 0.33148
# Poissons Ratio (z) = -0.00501 0.41116
#
# Static dielectric constant tensor:
#      x y z
#    x 1.881350 0.000000 0.000000 
#    y 0.000000 1.933670 0.000000 
#    z 0.000000 0.000000 1.853390 
# 
# From -- ./inp_files/12025.got.cif
#   From: 2010.05.17/outbox.cif.g08.bks.cpg/sg56_7_cif.got.tgz:12025.got - 2010.06.03 13:42:01.
