data_PCOD9433314
_publ_section_title
;
Structure prediction by ZEFSAII (Michael W. Deem and Ramdas Pophale) SiO2 
 PCOD9433314
Probable space group: P C C N
;
_chemical_formula_sum "Si O2"
_cell_formula_units_Z 60
_cell_length_a 11.341333
_cell_length_b 12.284065
_cell_length_c 21.548430
_cell_angle_alpha 90.000000
_cell_angle_beta 90.000000
_cell_angle_gamma 90.000000
_cell_volume 3002.077098
_symmetry_space_group_name_H-M "P C C N"
_symmetry_group_IT_number 56
_symmetry_cell_setting 'orthorhombic'
loop_
_space_group_symop_operation_xyz
x,y,z
1/2-x,1/2-y,z
1/2+x,-y,1/2-z
-x,1/2+y,1/2-z
-x,-y,-z
1/2+x,1/2+y,-z
1/2-x,y,1/2+z
x,1/2-y,1/2+z
loop_
_atom_site_type_symbol
_atom_site_label
_atom_site_fract_x
_atom_site_fract_y
_atom_site_fract_z
Si Si1 0.790954 0.914843 0.769064
Si Si2 0.175754 0.851565 0.292637
Si Si3 0.830949 0.647560 0.528175
Si Si4 0.945519 0.714230 0.740050
Si Si5 0.908039 0.553649 0.397014
Si Si6 0.686443 0.079101 0.585581
Si Si7 0.250000 0.750000 0.521142
Si Si8 0.558225 0.196865 0.393885
O O1 0.885261 0.831949 0.739721
O O2 0.662161 0.871321 0.748580
O O3 0.825096 0.904295 0.841636
O O4 0.810623 0.038041 0.746903
O O5 0.250000 0.750000 0.266241
O O6 0.230476 0.878294 0.359666
O O7 0.040533 0.812414 0.293312
O O8 0.750000 0.750000 0.517849
O O9 0.874701 0.602516 0.462819
O O10 0.781004 0.543968 0.565850
O O11 0.938673 0.691783 0.568000
O O12 0.021518 0.709639 0.677248
O O13 0.889014 0.424324 0.398785
O O14 0.049714 0.575023 0.390725
O O15 0.703706 0.156308 0.525647
O O16 0.355242 0.722671 0.569348
#
# Coordination Sequence:
#
# PCOD9433314 Si02
#       8
#     8   8   8   8   8   8   4   8
#     4  11  26  46  70 104 145 185 237 295 362 429
#     4  12  26  44  74 101 138 190 238 291 356 438
#     4  11  24  42  72 101 134 188 232 285 357 422
#     4  11  27  45  69 103 143 188 232 299 366 421
#     4  11  21  47  70  97 139 188 233 283 354 434
#     4  11  23  45  73 100 138 181 236 290 354 421
#     4  12  22  44  70 102 130 178 236 292 348 412
#     4  11  23  44  70  96 136 184 234 289 353 424
#
# _framework density 19.986160999999999
#
# number of rings (size 3 to 8) (size 9 to 14) (size 15 to 20)
#    0.000    0.800    4.667    3.200    8.400    0.000 
#    0.000    0.667    0.000    0.000    0.000    0.000 
#    0.000    0.000    0.000    0.000    0.000    0.000 
#
# Total GULP energy -334958.561192 kJ/mol
# GULP energy per Si atom -5582.642687 kJ/mol
# Density = 1.994067 g / cm^3
# Si number density = 19.986161 Si / 1000 Ang^3
#
#
#
# Elastic Constant Matrix: (Units=GPa)
#
#
# Indices 1 2 3 4 5 6 
#
# 1 92.7688 41.2039 33.7029 0.0000 0.0000 0.0000
# 2 41.2039 123.8611 24.4726 0.0000 0.0000 0.0000
# 3 33.7029 24.4726 116.0698 0.0000 0.0000 0.0000
# 4 0.0000 0.0000 0.0000 26.0948 0.0000 0.0000
# 5 0.0000 0.0000 0.0000 0.0000 50.5435 0.0000
# 6 0.0000 0.0000 0.0000 0.0000 0.0000 34.1931
#
#
#
# Elastic Compliance Matrix: (Units=1/GPa)
#
#
# Indices 1 2 3 4 5 6 
#
# 1 0.013663 -0.003925 -0.003140 0.000000 0.000000 0.000000
# 2 -0.003925 0.009552 -0.000874 0.000000 0.000000 0.000000
# 3 -0.003140 -0.000874 0.009712 0.000000 0.000000 0.000000
# 4 0.000000 0.000000 0.000000 0.038322 0.000000 0.000000
# 5 0.000000 0.000000 0.000000 0.000000 0.019785 0.000000
# 6 0.000000 0.000000 0.000000 0.000000 0.000000 0.029246
#
#
# Mechanical properties :
#
#
# Convention : Reuss Voigt Hill
#
# Bulk Modulus (GPa) = 58.65520 59.05095 58.85307
# Shear Modulus (GPa) = 35.25082 37.72096 36.48589
#
# Velocity S-wave (km/s) = 4.20427 4.34908 4.27729
# Velocity P-wave (km/s) = 7.27870 7.40469 7.34197
#
# Compressibility (1/GPa) = 0.01704879
#
# Stress axis : x y z
#
# Youngs Moduli (GPa) = 73.18774 104.69025 102.97004
#
# Poissons Ratio (x) = 0.41090 0.32331
# Poissons Ratio (y) = 0.28726 0.09003
# Poissons Ratio (z) = 0.22980 0.09153
#
# Static dielectric constant tensor:
#      x y z
#    x 1.656860 0.000000 0.000000 
#    y 0.000000 3.062340 0.000000 
#    z 0.000000 0.000000 1.729940 
# 
# From -- ./inp_files/18808.got.cif
#   From: 2010.05.17/outbox.cif.g08.bks.cpg/sg56_10_cif.got.tgz:18808.got - 2010.06.03 13:42:01.
