data_PCOD9433930
_publ_section_title
;
Structure prediction by ZEFSAII (Michael W. Deem and Ramdas Pophale) SiO2 
 PCOD9433930
Probable space group: P C C N
;
_chemical_formula_sum "Si O2"
_cell_formula_units_Z 48
_cell_length_a 30.000000
_cell_length_b 9.000000
_cell_length_c 9.000000
_cell_angle_alpha 90.000000
_cell_angle_beta 90.000000
_cell_angle_gamma 90.000000
_cell_volume 2430.000000
_symmetry_space_group_name_H-M "P C C N"
_symmetry_group_IT_number 56
_symmetry_cell_setting 'orthorhombic'
loop_
_space_group_symop_operation_xyz
x,y,z
1/2-x,1/2-y,z
1/2+x,-y,1/2-z
-x,1/2+y,1/2-z
-x,-y,-z
1/2+x,1/2+y,-z
1/2-x,y,1/2+z
x,1/2-y,1/2+z
loop_
_atom_site_type_symbol
_atom_site_label
_atom_site_fract_x
_atom_site_fract_y
_atom_site_fract_z
Si Si1 0.982697 0.215875 0.047307
Si Si2 0.782095 0.392553 0.428085
Si Si3 0.130250 0.980169 0.697619
Si Si4 0.227461 0.086982 0.788728
Si Si5 0.623063 0.230376 0.515827
Si Si6 0.969626 0.923733 0.231168
O O1 0.000858 0.361968 0.131920
O O2 0.983166 0.087755 0.174307
O O3 0.930916 0.212642 0.988746
O O4 0.016345 0.173619 0.913806
O O5 0.750000 0.250000 0.464458
O O6 0.777834 0.527051 0.544780
O O7 0.760811 0.465037 0.282310
O O8 0.834498 0.346236 0.429657
O O9 0.129709 0.901715 0.535367
O O10 0.177076 0.068605 0.719695
O O11 0.083532 0.068325 0.728667
O O12 0.129175 0.844010 0.820287
O O13 0.250000 0.250000 0.778532
#
# Coordination Sequence:
#
# PCOD9433930 Si02
#       6
#     8   8   8   8   8   8
#     4  10  21  41  63  92 127 167 204 266 304 378
#     4  11  22  41  68  93 120 167 214 260 307 380
#     4  10  22  41  63  95 124 162 210 259 313 379
#     4  11  24  43  61  94 133 159 202 266 328 373
#     4  10  21  38  67  91 121 160 220 258 299 370
#     4  10  22  41  62  90 128 162 210 252 315 367
#
# _framework density 19.753086
#
# number of rings (size 3 to 8) (size 9 to 14) (size 15 to 20)
#    0.000    1.667    1.667    3.000    2.333    2.667 
#   15.000    0.000    0.000    0.000    0.000    0.000 
#    0.000    0.000    0.000    0.000    0.000    0.000 
#
# Total GULP energy -267355.989021 kJ/mol
# GULP energy per Si atom -5569.916438 kJ/mol
# Density = 1.970813 g / cm^3
# Si number density = 19.753086 Si / 1000 Ang^3
#
#
#
# Elastic Constant Matrix: (Units=GPa)
#
#
# Indices 1 2 3 4 5 6 
#
# 1 169.4978 54.4048 38.3601 0.0000 0.0000 0.0000
# 2 54.4048 96.7417 25.9190 0.0000 0.0000 0.0000
# 3 38.3601 25.9190 39.3763 0.0000 0.0000 0.0000
# 4 0.0000 0.0000 0.0000 44.0751 0.0000 0.0000
# 5 0.0000 0.0000 0.0000 0.0000 25.3865 0.0000
# 6 0.0000 0.0000 0.0000 0.0000 0.0000 36.9301
#
#
#
# Elastic Compliance Matrix: (Units=1/GPa)
#
#
# Indices 1 2 3 4 5 6 
#
# 1 0.008233 -0.003012 -0.006038 0.000000 0.000000 0.000000
# 2 -0.003012 0.013652 -0.006052 0.000000 0.000000 0.000000
# 3 -0.006038 -0.006052 0.035261 0.000000 0.000000 0.000000
# 4 0.000000 0.000000 0.000000 0.022689 0.000000 0.000000
# 5 0.000000 0.000000 0.000000 0.000000 0.039391 0.000000
# 6 0.000000 0.000000 0.000000 0.000000 0.000000 0.027078
#
#
# Mechanical properties :
#
#
# Convention : Reuss Voigt Hill
#
# Bulk Modulus (GPa) = 37.11550 60.33152 48.72351
# Shear Modulus (GPa) = 26.95569 33.74047 30.34808
#
# Velocity S-wave (km/s) = 3.69810 4.13741 3.92391
# Velocity P-wave (km/s) = 6.08811 7.30982 6.72676
#
# Compressibility (1/GPa) = 0.02694292
#
# Stress axis : x y z
#
# Youngs Moduli (GPa) = 121.46013 73.24770 28.35959
#
# Poissons Ratio (x) = 0.22066 0.17123
# Poissons Ratio (y) = 0.36589 0.17163
# Poissons Ratio (z) = 0.73335 0.44328
#
# Static dielectric constant tensor:
#      x y z
#    x 1.694410 0.000000 0.000000 
#    y 0.000000 1.698160 0.000000 
#    z 0.000000 0.000000 1.730520 
# 
# From -- ./inp_files/5125.got.cif
#   From: 2010.05.17/outbox.ucp.g08.bks.cvg/sg56_3_cif.got.tgz:5125.got - 2010.06.11 16:37:52.
