data_PCOD9433264
_publ_section_title
;
Structure prediction by ZEFSAII (Michael W. Deem and Ramdas Pophale) SiO2 
 PCOD9433264
Probable space group: P C C N
;
_chemical_formula_sum "Si O2"
_cell_formula_units_Z 40
_cell_length_a 5.092484
_cell_length_b 22.029137
_cell_length_c 18.057705
_cell_angle_alpha 90.000000
_cell_angle_beta 90.000000
_cell_angle_gamma 90.000000
_cell_volume 2025.768020
_symmetry_space_group_name_H-M "P C C N"
_symmetry_group_IT_number 56
_symmetry_cell_setting 'orthorhombic'
loop_
_space_group_symop_operation_xyz
x,y,z
1/2-x,1/2-y,z
1/2+x,-y,1/2-z
-x,1/2+y,1/2-z
-x,-y,-z
1/2+x,1/2+y,-z
1/2-x,y,1/2+z
x,1/2-y,1/2+z
loop_
_atom_site_type_symbol
_atom_site_label
_atom_site_fract_x
_atom_site_fract_y
_atom_site_fract_z
Si Si1 0.072753 0.690393 0.333245
Si Si2 0.204916 0.932715 0.300345
Si Si3 0.925380 0.809611 0.659790
Si Si4 0.250000 0.750000 0.550716
Si Si5 0.206657 0.434707 0.804702
Si Si6 0.250000 0.250000 0.056152
O O1 0.250000 0.750000 0.346379
O O2 0.226696 0.627693 0.345379
O O3 0.993146 0.692896 0.246929
O O4 0.821470 0.695949 0.386578
O O5 0.423616 0.935128 0.235306
O O6 0.925958 0.927627 0.259357
O O7 0.232659 0.998279 0.339435
O O8 0.750000 0.750000 0.645146
O O9 0.786133 0.874060 0.646539
O O10 0.182578 0.803913 0.608619
O O11 0.499683 0.749173 0.497162
#
# Coordination Sequence:
#
# PCOD9433264 Si02
#       6
#     8   8   8   4   8   4
#     4  11  21  36  65  91 118 151 207 253 295 353
#     4   9  19  33  54  88 124 151 187 250 312 352
#     4  11  21  36  65  91 118 151 207 253 295 353
#     4  12  26  40  56  88 128 162 192 248 314 358
#     4   9  19  33  54  88 124 151 187 250 312 352
#     4  12  26  40  56  88 128 162 192 248 314 358
#
# _framework density 19.745598999999999
#
# number of rings (size 3 to 8) (size 9 to 14) (size 15 to 20)
#    0.000    1.600    4.000    1.200    5.600    0.000 
#    0.000    0.000    0.000    2.400    0.000    0.000 
#    0.000    0.000    0.000    0.000    0.000    0.000 
#
# Total GULP energy -222761.218261 kJ/mol
# GULP energy per Si atom -5569.030457 kJ/mol
# Density = 1.970066 g / cm^3
# Si number density = 19.745599 Si / 1000 Ang^3
#
#
#
# Elastic Constant Matrix: (Units=GPa)
#
#
# Indices 1 2 3 4 5 6 
#
# 1 84.4842 29.6646 39.5887 0.0000 0.0000 0.0000
# 2 29.6646 204.0050 20.9333 0.0000 0.0000 0.0000
# 3 39.5887 20.9333 99.7329 0.0000 0.0000 0.0000
# 4 0.0000 0.0000 0.0000 -5.0919 0.0000 0.0000
# 5 0.0000 0.0000 0.0000 0.0000 13.6364 0.0000
# 6 0.0000 0.0000 0.0000 0.0000 0.0000 29.8455
#
#
#
# Elastic Compliance Matrix: (Units=1/GPa)
#
#
# Indices 1 2 3 4 5 6 
#
# 1 0.015041 -0.001609 -0.005633 0.000000 0.000000 0.000000
# 2 -0.001609 0.005182 -0.000449 0.000000 0.000000 0.000000
# 3 -0.005633 -0.000449 0.012357 0.000000 0.000000 0.000000
# 4 0.000000 0.000000 0.000000 -0.196390 0.000000 0.000000
# 5 0.000000 0.000000 0.000000 0.000000 0.073333 0.000000
# 6 0.000000 0.000000 0.000000 0.000000 0.000000 0.033506
#
#
# Mechanical properties :
#
#
# Convention : Reuss Voigt Hill
#
# Bulk Modulus (GPa) = 58.14550 63.17726 60.66138
# Shear Modulus (GPa) = -139.44437 27.54702 -55.94868
#
# Velocity S-wave (km/s) = -8.41272 3.73915 -5.32882
# Velocity P-wave (km/s) = 8.05319 7.12087 2.65961
#
# Compressibility (1/GPa) = 0.01719823
#
# Stress axis : x y z
#
# Youngs Moduli (GPa) = 66.48492 192.97969 80.92649
#
# Poissons Ratio (x) = 0.31053 0.45584
# Poissons Ratio (y) = 0.10698 0.03633
# Poissons Ratio (z) = 0.37449 0.08663
#
# Static dielectric constant tensor:
#      x y z
#    x 1.775530 0.000000 0.000000 
#    y 0.000000 1.797770 0.000000 
#    z 0.000000 0.000000 1.692440 
# 
# From -- ./inp_files/13942.got.cif
#   From: 2010.05.17/outbox.cif.g08.bks.cpg/sg56_7_cif.got.tgz:13942.got - 2010.06.03 13:42:01.
