data_PCOD9433047
_publ_section_title
;
Structure prediction by ZEFSAII (Michael W. Deem and Ramdas Pophale) SiO2 
 PCOD9433047
Probable space group: P C C N
;
_chemical_formula_sum "Si O2"
_cell_formula_units_Z 32
_cell_length_a 7.303064
_cell_length_b 10.940599
_cell_length_c 16.828483
_cell_angle_alpha 90.000000
_cell_angle_beta 90.000000
_cell_angle_gamma 90.000000
_cell_volume 1344.594020
_symmetry_space_group_name_H-M "P C C N"
_symmetry_group_IT_number 56
_symmetry_cell_setting 'orthorhombic'
loop_
_space_group_symop_operation_xyz
x,y,z
1/2-x,1/2-y,z
1/2+x,-y,1/2-z
-x,1/2+y,1/2-z
-x,-y,-z
1/2+x,1/2+y,-z
1/2-x,y,1/2+z
x,1/2-y,1/2+z
loop_
_atom_site_type_symbol
_atom_site_label
_atom_site_fract_x
_atom_site_fract_y
_atom_site_fract_z
Si Si1 0.095515 0.127816 0.505107
Si Si2 0.576958 0.174410 0.764156
Si Si3 0.712883 0.548792 0.848266
Si Si4 0.968066 0.841878 0.086657
O O1 0.167830 0.131641 0.594102
O O2 0.262731 0.126019 0.441184
O O3 0.975224 0.243674 0.480369
O O4 0.000000 0.000000 0.500000
O O5 0.750000 0.250000 0.728573
O O6 0.417270 0.127796 0.707596
O O7 0.495928 0.265888 0.831508
O O8 0.661949 0.049972 0.801913
O O9 0.585761 0.463068 0.904220
#
# Coordination Sequence:
#
# PCOD9433047 Si02
#       4
#     8   8   8   8
#     4  11  23  44  74 103 143 197 240 298 365 433
#     4  10  24  48  75 107 145 191 247 309 375 445
#     4  11  24  47  75 104 146 193 244 309 372 441
#     4  10  24  48  69 106 148 188 244 306 358 446
#
# _framework density 23.799007
#
# number of rings (size 3 to 8) (size 9 to 14) (size 15 to 20)
#    0.000    1.500    2.500    0.750    7.000    0.000 
#   27.000    0.000    0.000    0.000    0.000    0.000 
#    0.000    0.000    0.000    0.000    0.000    0.000 
#
# Total GULP energy -179001.612757 kJ/mol
# GULP energy per Si atom -5593.800399 kJ/mol
# Density = 2.374484 g / cm^3
# Si number density = 23.799007 Si / 1000 Ang^3
#
#
#
# Elastic Constant Matrix: (Units=GPa)
#
#
# Indices 1 2 3 4 5 6 
#
# 1 79.8778 23.2705 42.1344 0.0000 0.0000 0.0000
# 2 23.2705 124.2963 43.2204 0.0000 0.0000 0.0000
# 3 42.1344 43.2204 87.8715 0.0000 0.0000 0.0000
# 4 0.0000 0.0000 0.0000 -216.0403 0.0000 0.0000
# 5 0.0000 0.0000 0.0000 0.0000 37.9836 0.0000
# 6 0.0000 0.0000 0.0000 0.0000 0.0000 56.6767
#
#
#
# Elastic Compliance Matrix: (Units=1/GPa)
#
#
# Indices 1 2 3 4 5 6 
#
# 1 0.016775 -0.000415 -0.007840 0.000000 0.000000 0.000000
# 2 -0.000415 0.009715 -0.004580 0.000000 0.000000 0.000000
# 3 -0.007840 -0.004580 0.017392 0.000000 0.000000 0.000000
# 4 0.000000 0.000000 0.000000 -0.004629 0.000000 0.000000
# 5 0.000000 0.000000 0.000000 0.000000 0.026327 0.000000
# 6 0.000000 0.000000 0.000000 0.000000 0.000000 0.017644
#
#
# Mechanical properties :
#
#
# Convention : Reuss Voigt Hill
#
# Bulk Modulus (GPa) = 54.90185 56.58846 55.74516
# Shear Modulus (GPa) = 43.49148 -12.04798 15.72175
#
# Velocity S-wave (km/s) = 4.27951 -2.25242 2.57301
# Velocity P-wave (km/s) = 6.89478 4.13095 5.68343
#
# Compressibility (1/GPa) = 0.01821432
#
# Stress axis : x y z
#
# Youngs Moduli (GPa) = 59.61143 102.92930 57.49742
#
# Poissons Ratio (x) = 0.04267 0.45077
# Poissons Ratio (y) = 0.02471 0.26333
# Poissons Ratio (z) = 0.46734 0.47140
#
# Static dielectric constant tensor:
#      x y z
#    x 1.945700 0.000000 0.000000 
#    y 0.000000 1.901420 0.000000 
#    z 0.000000 0.000000 1.922280 
# 
# From -- ./inp_files/10074.got.cif
#   From: 2010.05.17/outbox.cif.g08.bks.cpg/sg56_6_cif.got.tgz:10074.got - 2010.06.03 13:42:01.
