data_PCOD9433808
_publ_section_title
;
Structure prediction by ZEFSAII (Michael W. Deem and Ramdas Pophale) SiO2 
 PCOD9433808
Probable space group: P C C N
;
_chemical_formula_sum "Si O2"
_cell_formula_units_Z 36
_cell_length_a 22.673875
_cell_length_b 4.905256
_cell_length_c 13.784058
_cell_angle_alpha 90.000000
_cell_angle_beta 90.000000
_cell_angle_gamma 90.000000
_cell_volume 1533.078939
_symmetry_space_group_name_H-M "P C C N"
_symmetry_group_IT_number 56
_symmetry_cell_setting 'orthorhombic'
loop_
_space_group_symop_operation_xyz
x,y,z
1/2-x,1/2-y,z
1/2+x,-y,1/2-z
-x,1/2+y,1/2-z
-x,-y,-z
1/2+x,1/2+y,-z
1/2-x,y,1/2+z
x,1/2-y,1/2+z
loop_
_atom_site_type_symbol
_atom_site_label
_atom_site_fract_x
_atom_site_fract_y
_atom_site_fract_z
Si Si1 0.750000 0.750000 0.787349
Si Si2 0.127838 0.791312 0.457966
Si Si3 0.863894 0.706032 0.674829
Si Si4 0.000000 0.000000 0.500000
Si Si5 0.250000 0.750000 0.074544
Si Si6 0.973310 0.605511 0.795990
O O1 0.800293 0.645424 0.715985
O O2 0.732452 0.503312 0.857418
O O3 0.120800 0.486992 0.415926
O O4 0.190784 0.816301 0.512900
O O5 0.069877 0.890417 0.515249
O O6 0.131222 0.988437 0.364181
O O7 0.907399 0.657399 0.763993
O O8 0.993918 0.816229 0.402347
O O9 0.990406 0.291559 0.779957
#
# Coordination Sequence:
#
# PCOD9433808 Si02
#       6
#     4   8   8   4   4   8
#     4  12  26  46  76 104 150 198 258 310 390 450
#     4  12  26  45  75 107 152 195 262 308 389 455
#     4  12  24  48  71 108 149 202 245 319 377 464
#     4  12  26  46  76 110 148 206 246 320 370 462
#     4  12  26  48  70 114 142 202 260 320 372 480
#     4  12  25  46  69 107 150 190 252 300 375 446
#
# _framework density 23.482157000000001
#
# number of rings (size 3 to 8) (size 9 to 14) (size 15 to 20)
#    0.000    0.000    4.444    5.333    0.000    5.333 
#    0.000    0.000    0.000    0.000    0.000    0.000 
#    0.000    0.000    0.000    0.000    0.000    0.000 
#
# Total GULP energy -200491.615610 kJ/mol
# GULP energy per Si atom -5569.211545 kJ/mol
# Density = 2.342871 g / cm^3
# Si number density = 23.482157 Si / 1000 Ang^3
#
#
#
# Elastic Constant Matrix: (Units=GPa)
#
#
# Indices 1 2 3 4 5 6 
#
# 1 161.5087 -3.2775 30.4538 0.0000 0.0000 0.0000
# 2 -3.2775 62.5569 4.8795 0.0000 0.0000 0.0000
# 3 30.4538 4.8795 29.5524 0.0000 0.0000 0.0000
# 4 0.0000 0.0000 0.0000 60.0004 0.0000 0.0000
# 5 0.0000 0.0000 0.0000 0.0000 37.6463 0.0000
# 6 0.0000 0.0000 0.0000 0.0000 0.0000 0.5679
#
#
#
# Elastic Compliance Matrix: (Units=1/GPa)
#
#
# Indices 1 2 3 4 5 6 
#
# 1 0.007751 0.001043 -0.008160 0.000000 0.000000 0.000000
# 2 0.001043 0.016334 -0.003771 0.000000 0.000000 0.000000
# 3 -0.008160 -0.003771 0.042870 0.000000 0.000000 0.000000
# 4 0.000000 0.000000 0.000000 0.016667 0.000000 0.000000
# 5 0.000000 0.000000 0.000000 0.000000 0.026563 0.000000
# 6 0.000000 0.000000 0.000000 0.000000 0.000000 1.760925
#
#
# Mechanical properties :
#
#
# Convention : Reuss Voigt Hill
#
# Bulk Modulus (GPa) = 22.13473 35.30328 28.71900
# Shear Modulus (GPa) = 2.62062 34.41374 18.51718
#
# Velocity S-wave (km/s) = 1.05756 3.83237 2.81118
# Velocity P-wave (km/s) = 3.30725 5.88638 4.77427
#
# Compressibility (1/GPa) = 0.04517788
#
# Stress axis : x y z
#
# Youngs Moduli (GPa) = 129.00886 61.22106 23.32643
#
# Poissons Ratio (x) = -0.06383 0.19034
# Poissons Ratio (y) = -0.13451 0.08797
# Poissons Ratio (z) = 1.05271 0.23089
#
# Static dielectric constant tensor:
#      x y z
#    x 1.798650 0.000000 0.000000 
#    y 0.000000 1.845680 0.000000 
#    z 0.000000 0.000000 1.812070 
# 
# From -- ./inp_files/5586.got.cif
#   From: 2010.05.17/outbox.cif.g08.bks.cpg/sg56_3_cif.got.tgz:5586.got - 2010.06.03 13:42:01.
