data_PCOD9433628
_publ_section_title
;
Structure prediction by ZEFSAII (Michael W. Deem and Ramdas Pophale) SiO2 
 PCOD9433628
Probable space group: P C C N
;
_chemical_formula_sum "Si O2"
_cell_formula_units_Z 56
_cell_length_a 13.426144
_cell_length_b 12.006164
_cell_length_c 15.205453
_cell_angle_alpha 90.000000
_cell_angle_beta 90.000000
_cell_angle_gamma 90.000000
_cell_volume 2451.065603
_symmetry_space_group_name_H-M "P C C N"
_symmetry_group_IT_number 56
_symmetry_cell_setting 'orthorhombic'
loop_
_space_group_symop_operation_xyz
x,y,z
1/2-x,1/2-y,z
1/2+x,-y,1/2-z
-x,1/2+y,1/2-z
-x,-y,-z
1/2+x,1/2+y,-z
1/2-x,y,1/2+z
x,1/2-y,1/2+z
loop_
_atom_site_type_symbol
_atom_site_label
_atom_site_fract_x
_atom_site_fract_y
_atom_site_fract_z
Si Si1 0.904126 0.426566 0.055759
Si Si2 0.457393 0.685191 0.207433
Si Si3 0.312968 0.957843 0.449700
Si Si4 0.540255 0.082891 0.865321
Si Si5 0.150441 0.457288 0.644906
Si Si6 0.341773 0.065982 0.264970
Si Si7 0.970449 0.290609 0.617636
O O1 0.790087 0.392811 0.064576
O O2 0.981174 0.325076 0.066211
O O3 0.933000 0.523574 0.124515
O O4 0.910640 0.462278 0.954492
O O5 0.457294 0.784495 0.137217
O O6 0.399854 0.573781 0.178700
O O7 0.571972 0.658566 0.232499
O O8 0.415267 0.742151 0.295684
O O9 0.404226 0.873811 0.439349
O O10 0.317761 0.017858 0.543954
O O11 0.319613 0.039973 0.366385
O O12 0.599162 0.035504 0.782310
O O13 0.242859 0.421556 0.706522
O O14 0.067525 0.360568 0.643313
#
# Coordination Sequence:
#
# PCOD9433628 Si02
#       7
#     8   8   8   8   8   8   8
#     4  11  25  46  75 105 151 198 248 309 378 459
#     4  12  25  48  76 107 150 198 248 317 374 452
#     4  12  25  46  78 112 145 199 256 311 379 452
#     4  11  24  49  70 106 150 199 245 307 380 448
#     4  12  28  50  74 113 153 196 257 320 379 454
#     4  12  26  48  74 109 149 198 254 312 384 450
#     4  12  25  45  75 108 150 193 250 310 374 449
#
# _framework density 22.847207999999998
#
# number of rings (size 3 to 8) (size 9 to 14) (size 15 to 20)
#    0.000    0.286    5.714    2.571    4.000    1.143 
#    0.000    0.000    0.000    0.000    0.000    0.000 
#    0.000    0.000    0.000    0.000    0.000    0.000 
#
# Total GULP energy -312772.256548 kJ/mol
# GULP energy per Si atom -5585.218867 kJ/mol
# Density = 2.279521 g / cm^3
# Si number density = 22.847208 Si / 1000 Ang^3
#
#
#
# Elastic Constant Matrix: (Units=GPa)
#
#
# Indices 1 2 3 4 5 6 
#
# 1 94.2047 13.3548 11.7455 0.0000 0.0000 0.0000
# 2 13.3548 37.2106 -3.6627 0.0000 0.0000 0.0000
# 3 11.7455 -3.6627 125.1478 0.0000 0.0000 0.0000
# 4 0.0000 0.0000 0.0000 33.3504 0.0000 0.0000
# 5 0.0000 0.0000 0.0000 0.0000 29.6852 0.0000
# 6 0.0000 0.0000 0.0000 0.0000 0.0000 13.8560
#
#
#
# Elastic Compliance Matrix: (Units=1/GPa)
#
#
# Indices 1 2 3 4 5 6 
#
# 1 0.011358 -0.004193 -0.001189 0.000000 0.000000 0.000000
# 2 -0.004193 0.028500 0.001228 0.000000 0.000000 0.000000
# 3 -0.001189 0.001228 0.008138 0.000000 0.000000 0.000000
# 4 0.000000 0.000000 0.000000 0.029985 0.000000 0.000000
# 5 0.000000 0.000000 0.000000 0.000000 0.033687 0.000000
# 6 0.000000 0.000000 0.000000 0.000000 0.000000 0.072171
#
#
# Mechanical properties :
#
#
# Convention : Reuss Voigt Hill
#
# Bulk Modulus (GPa) = 25.19713 33.27093 29.23403
# Shear Modulus (GPa) = 24.34558 31.05334 27.69946
#
# Velocity S-wave (km/s) = 3.26787 3.69070 3.48570
# Velocity P-wave (km/s) = 5.02902 5.72325 5.38733
#
# Compressibility (1/GPa) = 0.03968705
#
# Stress axis : x y z
#
# Youngs Moduli (GPa) = 88.04482 35.08789 122.87963
#
# Poissons Ratio (x) = 0.14713 0.14607
# Poissons Ratio (y) = 0.36920 -0.15085
# Poissons Ratio (z) = 0.10466 -0.04308
#
# Static dielectric constant tensor:
#      x y z
#    x 1.918820 0.000000 0.000000 
#    y 0.000000 1.864990 0.000000 
#    z 0.000000 0.000000 1.926470 
# 
# From -- ./inp_files/12272.got.cif
#   From: 2010.05.17/outbox.cif.g08.bks.cpg/sg56_7_cif.got.tgz:12272.got - 2010.06.03 13:42:01.
