data_PCOD9433688
_publ_section_title
;
Structure prediction by ZEFSAII (Michael W. Deem and Ramdas Pophale) SiO2 
 PCOD9433688
Probable space group: P C C N
;
_chemical_formula_sum "Si O2"
_cell_formula_units_Z 60
_cell_length_a 17.944603
_cell_length_b 17.735473
_cell_length_c 8.055362
_cell_angle_alpha 90.000000
_cell_angle_beta 90.000000
_cell_angle_gamma 90.000000
_cell_volume 2563.667466
_symmetry_space_group_name_H-M "P C C N"
_symmetry_group_IT_number 56
_symmetry_cell_setting 'orthorhombic'
loop_
_space_group_symop_operation_xyz
x,y,z
1/2-x,1/2-y,z
1/2+x,-y,1/2-z
-x,1/2+y,1/2-z
-x,-y,-z
1/2+x,1/2+y,-z
1/2-x,y,1/2+z
x,1/2-y,1/2+z
loop_
_atom_site_type_symbol
_atom_site_label
_atom_site_fract_x
_atom_site_fract_y
_atom_site_fract_z
Si Si1 0.821035 0.102121 0.870120
Si Si2 0.699143 0.973526 0.949631
Si Si3 0.135994 0.265296 0.388339
Si Si4 0.404734 0.596689 0.491113
Si Si5 0.763077 0.861686 0.701973
Si Si6 0.750000 0.250000 0.762277
Si Si7 0.971499 0.689518 0.863061
Si Si8 0.601434 0.185725 0.660165
O O1 0.855592 0.098283 0.682606
O O2 0.764369 0.172808 0.860095
O O3 0.769215 0.031499 0.926000
O O4 0.881940 0.125589 0.011773
O O5 0.710920 0.900757 0.836469
O O6 0.624043 0.019832 0.926442
O O7 0.697560 0.934762 0.127816
O O8 0.176622 0.203589 0.268371
O O9 0.203258 0.322443 0.421659
O O10 0.096488 0.212778 0.520713
O O11 0.067337 0.312288 0.314368
O O12 0.486389 0.615237 0.421945
O O13 0.401011 0.652426 0.652453
O O14 0.674953 0.237493 0.659874
O O15 0.031808 0.758229 0.864112
#
# Coordination Sequence:
#
# PCOD9433688 Si02
#       8
#     8   8   8   8   8   4   8   8
#     4  12  24  38  64 103 146 195 245 293 353 431
#     4  12  23  44  71 106 148 186 244 308 379 444
#     4  11  25  48  78 105 134 186 257 324 377 438
#     4  12  24  41  65 104 150 192 230 295 371 456
#     4  11  25  48  78 105 134 186 257 324 377 438
#     4  12  22  36  62 102 140 198 254 288 334 434
#     4  12  23  44  71 106 148 186 244 308 379 444
#     4  12  24  38  64 103 146 195 245 293 353 431
#
# _framework density 23.403973000000001
#
# number of rings (size 3 to 8) (size 9 to 14) (size 15 to 20)
#    0.000    0.267    5.333    5.200    0.000    2.133 
#    0.000    2.667    0.000    3.200    0.000    0.000 
#    0.000    0.000    0.000    0.000    0.000    0.000 
#
# Total GULP energy -334395.013037 kJ/mol
# GULP energy per Si atom -5573.250217 kJ/mol
# Density = 2.335070 g / cm^3
# Si number density = 23.403973 Si / 1000 Ang^3
#
#
#
# Elastic Constant Matrix: (Units=GPa)
#
#
# Indices 1 2 3 4 5 6 
#
# 1 107.5263 53.8546 10.3533 0.0000 0.0000 0.0000
# 2 53.8546 96.6812 12.2101 0.0000 0.0000 0.0000
# 3 10.3533 12.2101 59.9562 0.0000 0.0000 0.0000
# 4 0.0000 0.0000 0.0000 31.6166 0.0000 0.0000
# 5 0.0000 0.0000 0.0000 0.0000 36.4721 0.0000
# 6 0.0000 0.0000 0.0000 0.0000 0.0000 49.1092
#
#
#
# Elastic Compliance Matrix: (Units=1/GPa)
#
#
# Indices 1 2 3 4 5 6 
#
# 1 0.012935 -0.007106 -0.000787 0.000000 0.000000 0.000000
# 2 -0.007106 0.014520 -0.001730 0.000000 0.000000 0.000000
# 3 -0.000787 -0.001730 0.017167 0.000000 0.000000 0.000000
# 4 0.000000 0.000000 0.000000 0.031629 0.000000 0.000000
# 5 0.000000 0.000000 0.000000 0.000000 0.027418 0.000000
# 6 0.000000 0.000000 0.000000 0.000000 0.000000 0.020363
#
#
# Mechanical properties :
#
#
# Convention : Reuss Voigt Hill
#
# Bulk Modulus (GPa) = 39.40546 46.33331 42.86938
# Shear Modulus (GPa) = 32.95220 35.95594 34.45407
#
# Velocity S-wave (km/s) = 3.75637 3.92384 3.84102
# Velocity P-wave (km/s) = 5.97389 6.35365 6.16670
#
# Compressibility (1/GPa) = 0.02537719
#
# Stress axis : x y z
#
# Youngs Moduli (GPa) = 77.31151 68.87110 58.25139
#
# Poissons Ratio (x) = 0.48938 0.04582
# Poissons Ratio (y) = 0.54935 0.10077
# Poissons Ratio (z) = 0.06081 0.11914
#
# Static dielectric constant tensor:
#      x y z
#    x 1.846150 0.000000 0.000000 
#    y 0.000000 1.862230 0.000000 
#    z 0.000000 0.000000 2.059340 
# 
# From -- ./inp_files/4148.got.cif
#   From: 2010.05.17/outbox.cif.g08.bks.cpg/sg56_3_cif.got.tgz:4148.got - 2010.06.03 13:42:01.
