data_PCOD9433686
_publ_section_title
;
Structure prediction by ZEFSAII (Michael W. Deem and Ramdas Pophale) SiO2 
 PCOD9433686
Probable space group: P C C N
;
_chemical_formula_sum "Si O2"
_cell_formula_units_Z 32
_cell_length_a 5.179276
_cell_length_b 17.233487
_cell_length_c 13.972300
_cell_angle_alpha 90.000000
_cell_angle_beta 90.000000
_cell_angle_gamma 90.000000
_cell_volume 1247.125380
_symmetry_space_group_name_H-M "P C C N"
_symmetry_group_IT_number 56
_symmetry_cell_setting 'orthorhombic'
loop_
_space_group_symop_operation_xyz
x,y,z
1/2-x,1/2-y,z
1/2+x,-y,1/2-z
-x,1/2+y,1/2-z
-x,-y,-z
1/2+x,1/2+y,-z
1/2-x,y,1/2+z
x,1/2-y,1/2+z
loop_
_atom_site_type_symbol
_atom_site_label
_atom_site_fract_x
_atom_site_fract_y
_atom_site_fract_z
Si Si1 0.250000 0.750000 0.073528
Si Si2 0.037935 0.898065 0.764052
Si Si3 0.783143 0.487113 0.403329
Si Si4 0.250000 0.250000 0.799267
Si Si5 0.356890 0.886520 0.939459
O O1 0.493983 0.726581 0.139536
O O2 0.380282 0.810653 0.001333
O O3 0.960580 0.976959 0.820336
O O4 0.836936 0.827459 0.757173
O O5 0.263544 0.868394 0.833246
O O6 0.113791 0.924817 0.658324
O O7 0.850886 0.437849 0.498390
O O8 0.603445 0.558801 0.433921
#
# Coordination Sequence:
#
# PCOD9433686 Si02
#       5
#     4   8   8   4   8
#     4  12  30  52  76 116 160 210 256 324 388 472
#     4  12  26  46  80 111 156 204 262 325 395 464
#     4  11  25  48  75 117 148 204 262 325 391 469
#     4  12  32  50  80 114 164 202 266 322 388 466
#     4  11  27  47  77 110 158 203 260 322 394 466
#
# _framework density 25.659011
#
# number of rings (size 3 to 8) (size 9 to 14) (size 15 to 20)
#    0.000    0.500    5.000    0.750   14.000    0.000 
#    0.000    0.000    0.000    0.000    0.000    0.000 
#    0.000    0.000    0.000    0.000    0.000    0.000 
#
# Total GULP energy -178939.232650 kJ/mol
# GULP energy per Si atom -5591.851020 kJ/mol
# Density = 2.560061 g / cm^3
# Si number density = 25.659011 Si / 1000 Ang^3
#
#
#
# Elastic Constant Matrix: (Units=GPa)
#
#
# Indices 1 2 3 4 5 6 
#
# 1 93.4016 4.7736 30.5275 0.0000 0.0000 0.0000
# 2 4.7736 78.6817 47.0196 0.0000 0.0000 0.0000
# 3 30.5275 47.0196 109.7337 0.0000 0.0000 0.0000
# 4 0.0000 0.0000 0.0000 -20.7728 0.0000 0.0000
# 5 0.0000 0.0000 0.0000 0.0000 15.0310 0.0000
# 6 0.0000 0.0000 0.0000 0.0000 0.0000 38.8477
#
#
#
# Elastic Compliance Matrix: (Units=1/GPa)
#
#
# Indices 1 2 3 4 5 6 
#
# 1 0.011943 0.001695 -0.004049 0.000000 0.000000 0.000000
# 2 0.001695 0.017325 -0.007895 0.000000 0.000000 0.000000
# 3 -0.004049 -0.007895 0.013622 0.000000 0.000000 0.000000
# 4 0.000000 0.000000 0.000000 -0.048140 0.000000 0.000000
# 5 0.000000 0.000000 0.000000 0.000000 0.066529 0.000000
# 6 0.000000 0.000000 0.000000 0.000000 0.000000 0.025742
#
#
# Mechanical properties :
#
#
# Convention : Reuss Voigt Hill
#
# Bulk Modulus (GPa) = 44.65802 49.60647 47.13224
# Shear Modulus (GPa) = 43.48504 19.92095 31.70299
#
# Velocity S-wave (km/s) = 4.12117 2.78937 3.51885
# Velocity P-wave (km/s) = 6.33148 5.45427 5.90917
#
# Compressibility (1/GPa) = 0.02239240
#
# Stress axis : x y z
#
# Youngs Moduli (GPa) = 83.73010 57.72162 73.40965
#
# Poissons Ratio (x) = -0.09783 0.29722
# Poissons Ratio (y) = -0.14192 0.57956
# Poissons Ratio (z) = 0.33901 0.45571
#
# Static dielectric constant tensor:
#      x y z
#    x 2.158680 0.000000 0.000000 
#    y 0.000000 2.083200 0.000000 
#    z 0.000000 0.000000 2.036170 
# 
# From -- ./inp_files/9399.got.cif
#   From: 2010.05.17/outbox.cif.g08.bks.cpg/sg56_5_cif.got.tgz:9399.got - 2010.06.03 13:42:01.
