data_PCOD9433117
_publ_section_title
;
Structure prediction by ZEFSAII (Michael W. Deem and Ramdas Pophale) SiO2 
 PCOD9433117
Probable space group: P C C N
;
_chemical_formula_sum "Si O2"
_cell_formula_units_Z 44
_cell_length_a 7.451817
_cell_length_b 9.499284
_cell_length_c 23.775707
_cell_angle_alpha 90.000000
_cell_angle_beta 90.000000
_cell_angle_gamma 90.000000
_cell_volume 1683.009212
_symmetry_space_group_name_H-M "P C C N"
_symmetry_group_IT_number 56
_symmetry_cell_setting 'orthorhombic'
loop_
_space_group_symop_operation_xyz
x,y,z
1/2-x,1/2-y,z
1/2+x,-y,1/2-z
-x,1/2+y,1/2-z
-x,-y,-z
1/2+x,1/2+y,-z
1/2-x,y,1/2+z
x,1/2-y,1/2+z
loop_
_atom_site_type_symbol
_atom_site_label
_atom_site_fract_x
_atom_site_fract_y
_atom_site_fract_z
Si Si1 0.250000 0.250000 0.572084
Si Si2 0.120963 0.445235 0.869064
Si Si3 0.500000 0.000000 0.000000
Si Si4 0.055928 0.743269 0.845359
Si Si5 0.250000 0.750000 0.239198
Si Si6 0.678063 0.454895 0.967373
Si Si7 0.979660 0.135777 0.850336
O O1 0.407339 0.200161 0.613076
O O2 0.298058 0.392591 0.537441
O O3 0.020900 0.576509 0.840701
O O4 0.040821 0.297961 0.849881
O O5 0.332331 0.447516 0.852808
O O6 0.090340 0.457205 0.935415
O O7 0.344586 0.875251 0.006461
O O8 0.250000 0.750000 0.874500
O O9 0.094373 0.799312 0.783003
O O10 0.341725 0.630062 0.201329
O O11 0.624392 0.398071 0.907457
O O12 0.500000 0.500000 0.000000
#
# Coordination Sequence:
#
# PCOD9433117 Si02
#       7
#     4   8   4   8   4   8   8
#     4  12  26  48  74 106 154 200 262 318 390 480
#     4  11  24  46  76 107 151 191 262 306 392 479
#     4  12  24  44  70 110 142 214 240 312 386 470
#     4  10  25  49  70 110 145 196 249 315 389 468
#     4  10  26  46  74 108 148 198 246 322 394 450
#     4  12  27  44  72 107 154 202 254 323 389 470
#     4  11  25  48  71 111 148 193 252 329 379 473
#
# _framework density 26.143647000000001
#
# number of rings (size 3 to 8) (size 9 to 14) (size 15 to 20)
#    0.545    0.364    3.636    2.182    2.545    2.909 
#    0.000    0.000    0.000    0.000    0.000    0.000 
#    0.000    0.000    0.000    0.000    0.000    0.000 
#
# Total GULP energy -245288.591479 kJ/mol
# GULP energy per Si atom -5574.740715 kJ/mol
# Density = 2.608414 g / cm^3
# Si number density = 26.143647 Si / 1000 Ang^3
#
#
#
# Elastic Constant Matrix: (Units=GPa)
#
#
# Indices 1 2 3 4 5 6 
#
# 1 170.8132 11.0779 65.1563 0.0000 0.0000 0.0000
# 2 11.0779 79.5024 18.4060 0.0000 0.0000 0.0000
# 3 65.1563 18.4060 164.9251 0.0000 0.0000 0.0000
# 4 0.0000 0.0000 0.0000 33.7944 0.0000 0.0000
# 5 0.0000 0.0000 0.0000 0.0000 53.1304 0.0000
# 6 0.0000 0.0000 0.0000 0.0000 0.0000 42.9108
#
#
#
# Elastic Compliance Matrix: (Units=1/GPa)
#
#
# Indices 1 2 3 4 5 6 
#
# 1 0.006902 -0.000339 -0.002689 0.000000 0.000000 0.000000
# 2 -0.000339 0.012929 -0.001309 0.000000 0.000000 0.000000
# 3 -0.002689 -0.001309 0.007272 0.000000 0.000000 0.000000
# 4 0.000000 0.000000 0.000000 0.029591 0.000000 0.000000
# 5 0.000000 0.000000 0.000000 0.000000 0.018822 0.000000
# 6 0.000000 0.000000 0.000000 0.000000 0.000000 0.023304
#
#
# Mechanical properties :
#
#
# Convention : Reuss Voigt Hill
#
# Bulk Modulus (GPa) = 54.26420 67.16903 60.71662
# Shear Modulus (GPa) = 44.00038 47.34049 45.67043
#
# Velocity S-wave (km/s) = 4.10692 4.25995 4.18413
# Velocity P-wave (km/s) = 6.57953 7.06713 6.82768
#
# Compressibility (1/GPa) = 0.01842836
#
# Stress axis : x y z
#
# Youngs Moduli (GPa) = 144.88504 77.34840 137.51900
#
# Poissons Ratio (x) = 0.02624 0.36977
# Poissons Ratio (y) = 0.04915 0.17999
# Poissons Ratio (z) = 0.38958 0.10124
#
# Static dielectric constant tensor:
#      x y z
#    x -7.474010 0.000000 0.000000 
#    y 0.000000 1.340060 0.000000 
#    z 0.000000 0.000000 2.305620 
# 
# From -- ./inp_files/20459.got.cif
#   From: 2010.05.17/outbox.cif.g08.bks.cpg/sg56_11_cif.got.tgz:20459.got - 2010.06.03 13:42:01.
