data_PCOD9433485
_publ_section_title
;
Structure prediction by ZEFSAII (Michael W. Deem and Ramdas Pophale) SiO2 
 PCOD9433485
Probable space group: P C C N
;
_chemical_formula_sum "Si O2"
_cell_formula_units_Z 40
_cell_length_a 8.885199
_cell_length_b 10.616330
_cell_length_c 19.663876
_cell_angle_alpha 90.000000
_cell_angle_beta 90.000000
_cell_angle_gamma 90.000000
_cell_volume 1854.858121
_symmetry_space_group_name_H-M "P C C N"
_symmetry_group_IT_number 56
_symmetry_cell_setting 'orthorhombic'
loop_
_space_group_symop_operation_xyz
x,y,z
1/2-x,1/2-y,z
1/2+x,-y,1/2-z
-x,1/2+y,1/2-z
-x,-y,-z
1/2+x,1/2+y,-z
1/2-x,y,1/2+z
x,1/2-y,1/2+z
loop_
_atom_site_type_symbol
_atom_site_label
_atom_site_fract_x
_atom_site_fract_y
_atom_site_fract_z
Si Si1 0.662038 0.955676 0.476208
Si Si2 0.915494 0.756846 0.877800
Si Si3 0.114137 0.998424 0.398839
Si Si4 0.673841 0.385942 0.362217
Si Si5 0.831291 0.386499 0.706706
O O1 0.621371 0.816733 0.450763
O O2 0.500000 0.000000 0.500000
O O3 0.787010 0.983767 0.533519
O O4 0.723140 0.026642 0.409248
O O5 0.750000 0.750000 0.844160
O O6 0.009437 0.628425 0.891934
O O7 0.016908 0.851759 0.833380
O O8 0.232018 0.981801 0.337518
O O9 0.994811 0.110433 0.391802
O O10 0.750000 0.250000 0.362703
O O11 0.655624 0.430458 0.284186
O O12 0.750000 0.250000 0.709049
#
# Coordination Sequence:
#
# PCOD9433485 Si02
#       5
#     8   8   8   8   8
#     4  12  26  42  71 102 133 183 226 282 344 401
#     4  11  23  43  72  98 133 179 234 270 347 415
#     4  11  24  44  71  97 141 179 223 284 337 406
#     4  11  26  44  68 101 143 175 229 285 338 394
#     4   9  22  44  68 100 132 181 220 281 337 402
#
# _framework density 21.564993000000001
#
# number of rings (size 3 to 8) (size 9 to 14) (size 15 to 20)
#    0.000    1.200    4.000    0.600    5.600    0.000 
#    0.000    4.000    0.000    0.000    0.000    0.000 
#    0.000    0.000    0.000    0.000    0.000    0.000 
#
# Total GULP energy -223227.464784 kJ/mol
# GULP energy per Si atom -5580.686620 kJ/mol
# Density = 2.151591 g / cm^3
# Si number density = 21.564993 Si / 1000 Ang^3
#
#
#
# Elastic Constant Matrix: (Units=GPa)
#
#
# Indices 1 2 3 4 5 6 
#
# 1 206.6638 46.3691 85.4831 0.0000 0.0000 0.0000
# 2 46.3691 29.4719 37.3740 0.0000 0.0000 0.0000
# 3 85.4831 37.3740 149.5632 0.0000 0.0000 0.0000
# 4 0.0000 0.0000 0.0000 23.7015 0.0000 0.0000
# 5 0.0000 0.0000 0.0000 0.0000 5.2304 0.0000
# 6 0.0000 0.0000 0.0000 0.0000 0.0000 32.0844
#
#
#
# Elastic Compliance Matrix: (Units=1/GPa)
#
#
# Indices 1 2 3 4 5 6 
#
# 1 0.007890 -0.009801 -0.002060 0.000000 0.000000 0.000000
# 2 -0.009801 0.061845 -0.009853 0.000000 0.000000 0.000000
# 3 -0.002060 -0.009853 0.010326 0.000000 0.000000 0.000000
# 4 0.000000 0.000000 0.000000 0.042191 0.000000 0.000000
# 5 0.000000 0.000000 0.000000 0.000000 0.191191 0.000000
# 6 0.000000 0.000000 0.000000 0.000000 0.000000 0.031168
#
#
# Mechanical properties :
#
#
# Convention : Reuss Voigt Hill
#
# Bulk Modulus (GPa) = 27.29774 80.46126 53.87950
# Shear Modulus (GPa) = 12.49220 26.63477 19.56348
#
# Velocity S-wave (km/s) = 2.40944 3.51820 3.01522
# Velocity P-wave (km/s) = 4.51955 7.34137 6.09598
#
# Compressibility (1/GPa) = 0.03663307
#
# Stress axis : x y z
#
# Youngs Moduli (GPa) = 126.74183 16.16949 96.84418
#
# Poissons Ratio (x) = 0.15847 0.19955
# Poissons Ratio (y) = 1.24216 0.95417
# Poissons Ratio (z) = 0.26115 0.15931
#
# Static dielectric constant tensor:
#      x y z
#    x 1.854990 0.000000 0.000000 
#    y 0.000000 1.925730 0.000000 
#    z 0.000000 0.000000 1.779760 
# 
# From -- ./inp_files/14425.got.cif
#   From: 2010.05.17/outbox.cif.g08.bks.cpg/sg56_8_cif.got.tgz:14425.got - 2010.06.03 13:42:01.
