data_PCOD9433785
_publ_section_title
;
Structure prediction by ZEFSAII (Michael W. Deem and Ramdas Pophale) SiO2 
 PCOD9433785
Probable space group: P C C N
;
_chemical_formula_sum "Si O2"
_cell_formula_units_Z 28
_cell_length_a 6.696535
_cell_length_b 7.452210
_cell_length_c 22.115666
_cell_angle_alpha 90.000000
_cell_angle_beta 90.000000
_cell_angle_gamma 90.000000
_cell_volume 1103.659866
_symmetry_space_group_name_H-M "P C C N"
_symmetry_group_IT_number 56
_symmetry_cell_setting 'orthorhombic'
loop_
_space_group_symop_operation_xyz
x,y,z
1/2-x,1/2-y,z
1/2+x,-y,1/2-z
-x,1/2+y,1/2-z
-x,-y,-z
1/2+x,1/2+y,-z
1/2-x,y,1/2+z
x,1/2-y,1/2+z
loop_
_atom_site_type_symbol
_atom_site_label
_atom_site_fract_x
_atom_site_fract_y
_atom_site_fract_z
Si Si1 0.624657 0.610574 0.706603
Si Si2 0.870105 0.391993 0.320829
Si Si3 0.908501 0.591007 0.440741
Si Si4 0.750000 0.250000 0.641732
O O1 0.875827 0.658471 0.690793
O O2 0.378658 0.658298 0.691990
O O3 0.624299 0.570834 0.778587
O O4 0.645818 0.407944 0.679530
O O5 0.843607 0.441132 0.391906
O O6 0.750000 0.750000 0.454197
O O7 0.000000 0.500000 0.500000
O O8 0.084917 0.677744 0.403116
#
# Coordination Sequence:
#
# PCOD9433785 Si02
#       4
#     8   8   8   4
#     4  12  23  45  76 112 154 199 249 331 410 472
#     4  12  24  44  74 112 155 196 262 324 396 479
#     4  12  30  51  79 114 157 214 273 322 391 476
#     4  12  26  52  80 114 160 202 262 332 404 476
#
# _framework density 25.370135000000001
#
# number of rings (size 3 to 8) (size 9 to 14) (size 15 to 20)
#    0.000    0.000    4.286    6.000    6.000    1.143 
#    0.000    0.000    0.000    0.000    0.000    0.000 
#    0.000    0.000    0.000    0.000    0.000    0.000 
#
# Total GULP energy -156380.927360 kJ/mol
# GULP energy per Si atom -5585.033120 kJ/mol
# Density = 2.531239 g / cm^3
# Si number density = 25.370135 Si / 1000 Ang^3
#
#
#
# Elastic Constant Matrix: (Units=GPa)
#
#
# Indices 1 2 3 4 5 6 
#
# 1 218.2093 119.4574 52.6164 0.0000 0.0000 0.0000
# 2 119.4574 238.4933 107.6107 0.0000 0.0000 0.0000
# 3 52.6164 107.6107 210.3797 0.0000 0.0000 0.0000
# 4 0.0000 0.0000 0.0000 -1.8169 0.0000 0.0000
# 5 0.0000 0.0000 0.0000 0.0000 -19.4367 0.0000
# 6 0.0000 0.0000 0.0000 0.0000 0.0000 104.2006
#
#
#
# Elastic Compliance Matrix: (Units=1/GPa)
#
#
# Indices 1 2 3 4 5 6 
#
# 1 0.006315 -0.003185 0.000050 0.000000 0.000000 0.000000
# 2 -0.003185 0.007058 -0.002814 0.000000 0.000000 0.000000
# 3 0.000050 -0.002814 0.006180 0.000000 0.000000 0.000000
# 4 0.000000 0.000000 0.000000 -0.550398 0.000000 0.000000
# 5 0.000000 0.000000 0.000000 0.000000 -0.051449 0.000000
# 6 0.000000 0.000000 0.000000 0.000000 0.000000 0.009597
#
#
# Mechanical properties :
#
#
# Convention : Reuss Voigt Hill
#
# Bulk Modulus (GPa) = 130.63864 136.27237 133.45551
# Shear Modulus (GPa) = -8.95659 42.41593 16.72967
#
# Velocity S-wave (km/s) = -1.88097 4.09330 2.57071
# Velocity P-wave (km/s) = 6.84744 8.72757 7.84404
#
# Compressibility (1/GPa) = 0.00765470
#
# Stress axis : x y z
#
# Youngs Moduli (GPa) = 158.36479 141.68247 161.81421
#
# Poissons Ratio (x) = 0.45132 -0.00811
# Poissons Ratio (y) = 0.50446 0.45527
# Poissons Ratio (z) = -0.00793 0.39863
#
# Static dielectric constant tensor:
#      x y z
#    x 2.451570 0.000000 0.000000 
#    y 0.000000 2.145440 0.000000 
#    z 0.000000 0.000000 1.971570 
# 
# From -- ./inp_files/14298.got.cif
#   From: 2010.05.17/outbox.cif.g08.bks.cpg/sg56_8_cif.got.tgz:14298.got - 2010.06.03 13:42:01.
