data_PCOD9433322
_publ_section_title
;
Structure prediction by ZEFSAII (Michael W. Deem and Ramdas Pophale) SiO2 
 PCOD9433322
Probable space group: P C C N
;
_chemical_formula_sum "Si O2"
_cell_formula_units_Z 64
_cell_length_a 17.482369
_cell_length_b 23.320324
_cell_length_c 9.475827
_cell_angle_alpha 90.000000
_cell_angle_beta 90.000000
_cell_angle_gamma 90.000000
_cell_volume 3863.242640
_symmetry_space_group_name_H-M "P C C N"
_symmetry_group_IT_number 56
_symmetry_cell_setting 'orthorhombic'
loop_
_space_group_symop_operation_xyz
x,y,z
1/2-x,1/2-y,z
1/2+x,-y,1/2-z
-x,1/2+y,1/2-z
-x,-y,-z
1/2+x,1/2+y,-z
1/2-x,y,1/2+z
x,1/2-y,1/2+z
loop_
_atom_site_type_symbol
_atom_site_label
_atom_site_fract_x
_atom_site_fract_y
_atom_site_fract_z
Si Si1 0.971014 0.894700 0.410173
Si Si2 0.082388 0.800083 0.424770
Si Si3 0.766684 0.368552 0.163050
Si Si4 0.551360 0.429398 0.295236
Si Si5 0.292684 0.949311 0.578424
Si Si6 0.067013 0.984336 0.234388
Si Si7 0.349872 0.481393 0.530001
Si Si8 0.378210 0.690078 0.750279
O O1 0.000419 0.829793 0.392973
O O2 0.008121 0.910788 0.561320
O O3 0.884904 0.919657 0.424891
O O4 0.014580 0.932554 0.292492
O O5 0.149954 0.842891 0.370603
O O6 0.099879 0.794327 0.590525
O O7 0.091221 0.739248 0.351061
O O8 0.772375 0.420037 0.273115
O O9 0.711966 0.319407 0.224977
O O10 0.727478 0.398095 0.028488
O O11 0.490388 0.463674 0.203432
O O12 0.613599 0.473436 0.358102
O O13 0.586468 0.373210 0.226239
O O14 0.379564 0.968065 0.604030
O O15 0.239387 0.003477 0.538995
O O16 0.117637 0.002905 0.373518
#
# Coordination Sequence:
#
# PCOD9433322 Si02
#       8
#     8   8   8   8   8   8   8   8
#     4   8  15  29  49  69  89 125 170 198 230 295
#     4  11  22  35  49  69  94 134 171 204 238 280
#     4  12  22  33  47  70 104 131 166 197 231 288
#     4   8  15  31  48  69  92 126 164 201 236 291
#     4  12  19  31  51  75 100 129 160 198 242 294
#     4   9  16  28  51  71  95 125 159 197 249 290
#     4   9  15  28  50  71  94 125 161 197 241 295
#     4  11  23  35  50  68  97 132 172 205 238 278
#
# _framework density 16.566393999999999
#
# number of rings (size 3 to 8) (size 9 to 14) (size 15 to 20)
#    0.000    2.000    5.000    2.625    1.750    1.000 
#    0.000    0.625    2.750    0.000    0.000    0.875 
#    0.000    6.000    0.000    0.000    0.000    0.000 
#
# Total GULP energy -356429.105164 kJ/mol
# GULP energy per Si atom -5569.204768 kJ/mol
# Density = 1.652869 g / cm^3
# Si number density = 16.566394 Si / 1000 Ang^3
#
#
#
# Elastic Constant Matrix: (Units=GPa)
#
#
# Indices 1 2 3 4 5 6 
#
# 1 30.2553 21.9539 12.4559 0.0000 0.0000 0.0000
# 2 21.9539 70.1343 19.2792 0.0000 0.0000 0.0000
# 3 12.4559 19.2792 36.2403 0.0000 0.0000 0.0000
# 4 0.0000 0.0000 0.0000 25.9644 0.0000 0.0000
# 5 0.0000 0.0000 0.0000 0.0000 8.3543 0.0000
# 6 0.0000 0.0000 0.0000 0.0000 0.0000 23.4846
#
#
#
# Elastic Compliance Matrix: (Units=1/GPa)
#
#
# Indices 1 2 3 4 5 6 
#
# 1 0.045350 -0.011609 -0.009411 0.000000 0.000000 0.000000
# 2 -0.011609 0.019672 -0.006475 0.000000 0.000000 0.000000
# 3 -0.009411 -0.006475 0.034273 0.000000 0.000000 0.000000
# 4 0.000000 0.000000 0.000000 0.038514 0.000000 0.000000
# 5 0.000000 0.000000 0.000000 0.000000 0.119699 0.000000
# 6 0.000000 0.000000 0.000000 0.000000 0.000000 0.042581
#
#
# Mechanical properties :
#
#
# Convention : Reuss Voigt Hill
#
# Bulk Modulus (GPa) = 22.57100 27.11200 24.84150
# Shear Modulus (GPa) = 13.51901 17.09002 15.30452
#
# Velocity S-wave (km/s) = 2.85976 3.21535 3.04275
# Velocity P-wave (km/s) = 4.95565 5.49416 5.23184
#
# Compressibility (1/GPa) = 0.04430464
#
# Stress axis : x y z
#
# Youngs Moduli (GPa) = 22.05054 50.83305 29.17736
#
# Poissons Ratio (x) = 0.59011 0.27460
# Poissons Ratio (y) = 0.25598 0.18893
# Poissons Ratio (z) = 0.20753 0.32916
#
# Static dielectric constant tensor:
#      x y z
#    x 1.618920 0.000000 0.000000 
#    y 0.000000 1.570250 0.000000 
#    z 0.000000 0.000000 1.582820 
# 
# From -- ./inp_files/4235.got.cif
#   From: 2010.05.17/outbox.cif.g08.bks.cpg/sg56_3_cif.got.tgz:4235.got - 2010.06.03 13:42:01.
