data_PCOD9433811
_publ_section_title
;
Structure prediction by ZEFSAII (Michael W. Deem and Ramdas Pophale) SiO2 
 PCOD9433811
Probable space group: P C C N
;
_chemical_formula_sum "Si O2"
_cell_formula_units_Z 28
_cell_length_a 8.380378
_cell_length_b 4.899304
_cell_length_c 25.158554
_cell_angle_alpha 90.000000
_cell_angle_beta 90.000000
_cell_angle_gamma 90.000000
_cell_volume 1032.960400
_symmetry_space_group_name_H-M "P C C N"
_symmetry_group_IT_number 56
_symmetry_cell_setting 'orthorhombic'
loop_
_space_group_symop_operation_xyz
x,y,z
1/2-x,1/2-y,z
1/2+x,-y,1/2-z
-x,1/2+y,1/2-z
-x,-y,-z
1/2+x,1/2+y,-z
1/2-x,y,1/2+z
x,1/2-y,1/2+z
loop_
_atom_site_type_symbol
_atom_site_label
_atom_site_fract_x
_atom_site_fract_y
_atom_site_fract_z
Si Si1 0.750000 0.250000 0.351598
Si Si2 0.250000 0.250000 0.581960
Si Si3 0.485319 0.958109 0.284184
Si Si4 0.750000 0.750000 0.637719
Si Si5 0.076042 0.632134 0.947965
O O1 0.685104 0.484687 0.388907
O O2 0.634023 0.080883 0.314601
O O3 0.429602 0.154685 0.563243
O O4 0.484744 0.145199 0.230900
O O5 0.339782 0.039278 0.322509
O O6 0.635342 0.573838 0.599190
O O7 0.250000 0.750000 0.963591
O O8 0.000000 0.500000 0.000000
#
# Coordination Sequence:
#
# PCOD9433811 Si02
#       5
#     4   4   8   4   8
#     4  12  24  48  74 110 154 216 268 342 416 502
#     4  12  27  51  82 114 168 214 281 343 434 496
#     4  12  26  45  76 119 162 217 284 348 430 519
#     4  12  27  51  82 118 176 222 281 369 432 512
#     4  12  30  52  87 123 170 226 290 354 438 520
#
# _framework density 27.106558
#
# number of rings (size 3 to 8) (size 9 to 14) (size 15 to 20)
#    0.000    0.000    2.857    6.000    6.000    2.286 
#    0.000    0.000    0.000    0.000    0.000    0.000 
#    0.000    0.000    0.000    0.000    0.000    0.000 
#
# Total GULP energy -156421.613101 kJ/mol
# GULP energy per Si atom -5586.486182 kJ/mol
# Density = 2.704486 g / cm^3
# Si number density = 27.106558 Si / 1000 Ang^3
#
#
#
# Elastic Constant Matrix: (Units=GPa)
#
#
# Indices 1 2 3 4 5 6 
#
# 1 263.3720 30.1416 53.9209 0.0000 0.0000 0.0000
# 2 30.1416 83.9177 25.4418 0.0000 0.0000 0.0000
# 3 53.9209 25.4418 109.0970 0.0000 0.0000 0.0000
# 4 0.0000 0.0000 0.0000 36.5974 0.0000 0.0000
# 5 0.0000 0.0000 0.0000 0.0000 129.3503 0.0000
# 6 0.0000 0.0000 0.0000 0.0000 0.0000 30.4649
#
#
#
# Elastic Compliance Matrix: (Units=1/GPa)
#
#
# Indices 1 2 3 4 5 6 
#
# 1 0.004296 -0.000968 -0.001898 0.000000 0.000000 0.000000
# 2 -0.000968 0.013041 -0.002563 0.000000 0.000000 0.000000
# 3 -0.001898 -0.002563 0.010702 0.000000 0.000000 0.000000
# 4 0.000000 0.000000 0.000000 0.027324 0.000000 0.000000
# 5 0.000000 0.000000 0.000000 0.000000 0.007731 0.000000
# 6 0.000000 0.000000 0.000000 0.000000 0.000000 0.032825
#
#
# Mechanical properties :
#
#
# Convention : Reuss Voigt Hill
#
# Bulk Modulus (GPa) = 58.19954 75.04392 66.62173
# Shear Modulus (GPa) = 44.44324 62.40802 53.42563
#
# Velocity S-wave (km/s) = 4.05356 4.80346 4.44435
# Velocity P-wave (km/s) = 6.58982 7.64913 7.13915
#
# Compressibility (1/GPa) = 0.01718227
#
# Stress axis : x y z
#
# Youngs Moduli (GPa) = 232.76454 76.68097 93.44261
#
# Poissons Ratio (x) = 0.07421 0.17733
# Poissons Ratio (y) = 0.22526 0.23948
# Poissons Ratio (z) = 0.44171 0.19653
#
# Static dielectric constant tensor:
#      x y z
#    x 2.440700 0.000000 0.000000 
#    y 0.000000 1.482190 0.000000 
#    z 0.000000 0.000000 5.059340 
# 
# From -- ./inp_files/21906.got.cif
#   From: 2010.05.17/outbox.cif.g08.bks.cpg/sg56_11_cif.got.tgz:21906.got - 2010.06.03 13:42:01.
