data_PCOD9433833
_publ_section_title
;
Structure prediction by ZEFSAII (Michael W. Deem and Ramdas Pophale) SiO2 
 PCOD9433833
Probable space group: P C C N
;
_chemical_formula_sum "Si O2"
_cell_formula_units_Z 28
_cell_length_a 9.473558
_cell_length_b 4.959990
_cell_length_c 25.332464
_cell_angle_alpha 90.000000
_cell_angle_beta 90.000000
_cell_angle_gamma 90.000000
_cell_volume 1190.340892
_symmetry_space_group_name_H-M "P C C N"
_symmetry_group_IT_number 56
_symmetry_cell_setting 'orthorhombic'
loop_
_space_group_symop_operation_xyz
x,y,z
1/2-x,1/2-y,z
1/2+x,-y,1/2-z
-x,1/2+y,1/2-z
-x,-y,-z
1/2+x,1/2+y,-z
1/2-x,y,1/2+z
x,1/2-y,1/2+z
loop_
_atom_site_type_symbol
_atom_site_label
_atom_site_fract_x
_atom_site_fract_y
_atom_site_fract_z
Si Si1 0.750000 0.250000 0.835271
Si Si2 0.250000 0.250000 0.026500
Si Si3 0.250000 0.750000 0.952825
Si Si4 0.451183 0.111502 0.718194
Si Si5 0.483163 0.086872 0.110643
O O1 0.700047 0.488541 0.797533
O O2 0.887418 0.333922 0.869216
O O3 0.380216 0.198863 0.065502
O O4 0.294714 0.506395 0.991384
O O5 0.365877 0.902967 0.917112
O O6 0.464868 0.348725 0.760918
O O7 0.503615 0.237586 0.663359
#
# Coordination Sequence:
#
# PCOD9433833 Si02
#       5
#     4   4   4   8   8
#     4  12  25  53  78 116 160 222 257 327 422 480
#     4  12  26  50  82 112 156 214 262 328 410 480
#     4  12  31  47  78 124 154 202 277 335 392 476
#     4  12  27  48  79 113 154 210 268 321 402 488
#     4  12  27  52  82 113 166 205 268 331 406 484
#
# _framework density 23.522673000000001
#
# number of rings (size 3 to 8) (size 9 to 14) (size 15 to 20)
#    0.000    0.000    5.714    2.571    4.000    1.143 
#    5.143    0.000    0.000    0.000    0.000    0.000 
#    0.000    0.000    0.000    0.000    0.000    0.000 
#
# Total GULP energy -156334.432493 kJ/mol
# GULP energy per Si atom -5583.372589 kJ/mol
# Density = 2.346913 g / cm^3
# Si number density = 23.522673 Si / 1000 Ang^3
#
#
#
# Elastic Constant Matrix: (Units=GPa)
#
#
# Indices 1 2 3 4 5 6 
#
# 1 105.6067 24.5025 46.0967 0.0000 0.0000 0.0000
# 2 24.5025 159.6154 56.6000 0.0000 0.0000 0.0000
# 3 46.0967 56.6000 124.0592 0.0000 0.0000 0.0000
# 4 0.0000 0.0000 0.0000 15.1197 0.0000 0.0000
# 5 0.0000 0.0000 0.0000 0.0000 -108.7152 0.0000
# 6 0.0000 0.0000 0.0000 0.0000 0.0000 39.4655
#
#
#
# Elastic Compliance Matrix: (Units=1/GPa)
#
#
# Indices 1 2 3 4 5 6 
#
# 1 0.011314 -0.000294 -0.004070 0.000000 0.000000 0.000000
# 2 -0.000294 0.007482 -0.003304 0.000000 0.000000 0.000000
# 3 -0.004070 -0.003304 0.011080 0.000000 0.000000 0.000000
# 4 0.000000 0.000000 0.000000 0.066139 0.000000 0.000000
# 5 0.000000 0.000000 0.000000 0.000000 -0.009198 0.000000
# 6 0.000000 0.000000 0.000000 0.000000 0.000000 0.025339
#
#
# Mechanical properties :
#
#
# Convention : Reuss Voigt Hill
#
# Bulk Modulus (GPa) = 68.77419 71.51996 70.14707
# Shear Modulus (GPa) = 37.78213 6.64616 22.21414
#
# Velocity S-wave (km/s) = 4.01209 1.68272 3.07640
# Velocity P-wave (km/s) = 7.12484 5.85202 6.51957
#
# Compressibility (1/GPa) = 0.01454034
#
# Stress axis : x y z
#
# Youngs Moduli (GPa) = 88.38845 133.65643 90.24867
#
# Poissons Ratio (x) = 0.03924 0.36730
# Poissons Ratio (y) = 0.02595 0.29822
# Poissons Ratio (z) = 0.35973 0.44165
#
# Static dielectric constant tensor:
#      x y z
#    x 1.939120 0.000000 0.000000 
#    y 0.000000 1.961760 0.000000 
#    z 0.000000 0.000000 1.875600 
# 
# From -- ./inp_files/18488.got.cif
#   From: 2010.05.17/outbox.cif.g08.bks.cpg/sg56_10_cif.got.tgz:18488.got - 2010.06.03 13:42:01.
