data_PCOD9433500
_publ_section_title
;
Structure prediction by ZEFSAII (Michael W. Deem and Ramdas Pophale) SiO2 
 PCOD9433500
Probable space group: P C C N
;
_chemical_formula_sum "Si O2"
_cell_formula_units_Z 28
_cell_length_a 5.071173
_cell_length_b 11.298008
_cell_length_c 18.975460
_cell_angle_alpha 90.000000
_cell_angle_beta 90.000000
_cell_angle_gamma 90.000000
_cell_volume 1087.182911
_symmetry_space_group_name_H-M "P C C N"
_symmetry_group_IT_number 56
_symmetry_cell_setting 'orthorhombic'
loop_
_space_group_symop_operation_xyz
x,y,z
1/2-x,1/2-y,z
1/2+x,-y,1/2-z
-x,1/2+y,1/2-z
-x,-y,-z
1/2+x,1/2+y,-z
1/2-x,y,1/2+z
x,1/2-y,1/2+z
loop_
_atom_site_type_symbol
_atom_site_label
_atom_site_fract_x
_atom_site_fract_y
_atom_site_fract_z
Si Si1 0.250000 0.750000 0.515986
Si Si2 0.250000 0.250000 0.650166
Si Si3 0.424577 0.146882 0.856085
Si Si4 0.594228 0.443979 0.074292
Si Si5 0.750000 0.250000 0.246645
O O1 0.468648 0.708809 0.572576
O O2 0.295168 0.647801 0.458854
O O3 0.361082 0.134360 0.608297
O O4 0.507375 0.283670 0.696240
O O5 0.250000 0.250000 0.823336
O O6 0.660996 0.142133 0.799202
O O7 0.243421 0.036320 0.876031
O O8 0.500000 0.500000 0.000000
#
# Coordination Sequence:
#
# PCOD9433500 Si02
#       5
#     4   4   8   8   4
#     4  11  23  44  80 122 165 205 274 342 432 499
#     4  12  28  54  80 120 168 222 280 358 414 518
#     4  11  23  49  82 117 163 222 273 348 412 503
#     4  12  25  48  84 122 162 210 275 350 431 495
#     4  11  27  56  78 116 171 221 298 328 418 507
#
# _framework density 25.754633999999999
#
# number of rings (size 3 to 8) (size 9 to 14) (size 15 to 20)
#    0.000    0.571    4.286    3.429    0.000    2.286 
#    5.143    0.000    0.000    0.000    0.000    0.000 
#    0.000    0.000    0.000    0.000    0.000    0.000 
#
# Total GULP energy -156057.035662 kJ/mol
# GULP energy per Si atom -5573.465559 kJ/mol
# Density = 2.569602 g / cm^3
# Si number density = 25.754634 Si / 1000 Ang^3
#
#
#
# Elastic Constant Matrix: (Units=GPa)
#
#
# Indices 1 2 3 4 5 6 
#
# 1 179.9347 69.0439 107.1119 0.0000 0.0000 0.0000
# 2 69.0439 128.5688 79.2614 0.0000 0.0000 0.0000
# 3 107.1119 79.2614 186.3834 0.0000 0.0000 0.0000
# 4 0.0000 0.0000 0.0000 3.2281 0.0000 0.0000
# 5 0.0000 0.0000 0.0000 0.0000 39.4429 0.0000
# 6 0.0000 0.0000 0.0000 0.0000 0.0000 45.3655
#
#
#
# Elastic Compliance Matrix: (Units=1/GPa)
#
#
# Indices 1 2 3 4 5 6 
#
# 1 0.008884 -0.002200 -0.004170 0.000000 0.000000 0.000000
# 2 -0.002200 0.011087 -0.003450 0.000000 0.000000 0.000000
# 3 -0.004170 -0.003450 0.009229 0.000000 0.000000 0.000000
# 4 0.000000 0.000000 0.000000 0.309776 0.000000 0.000000
# 5 0.000000 0.000000 0.000000 0.000000 0.025353 0.000000
# 6 0.000000 0.000000 0.000000 0.000000 0.000000 0.022043
#
#
# Mechanical properties :
#
#
# Convention : Reuss Voigt Hill
#
# Bulk Modulus (GPa) = 104.61512 111.74680 108.18096
# Shear Modulus (GPa) = 12.21899 33.57196 22.89548
#
# Velocity S-wave (km/s) = 2.18052 3.61436 2.98482
# Velocity P-wave (km/s) = 6.85913 7.80393 7.34673
#
# Compressibility (1/GPa) = 0.00955885
#
# Stress axis : x y z
#
# Youngs Moduli (GPa) = 112.56066 90.19956 108.35531
#
# Poissons Ratio (x) = 0.19846 0.45183
# Poissons Ratio (y) = 0.24766 0.37385
# Poissons Ratio (z) = 0.46937 0.31121
#
# Static dielectric constant tensor:
#      x y z
#    x 2.512650 0.000000 0.000000 
#    y 0.000000 1.828480 0.000000 
#    z 0.000000 0.000000 1.963690 
# 
# From -- ./inp_files/17233.got.cif
#   From: 2010.05.17/outbox.cif.g08.bks.cpg/sg56_9_cif.got.tgz:17233.got - 2010.06.03 13:42:01.
