data_PCOD9433824
_publ_section_title
;
Structure prediction by ZEFSAII (Michael W. Deem and Ramdas Pophale) SiO2 
 PCOD9433824
Probable space group: P C C N
;
_chemical_formula_sum "Si O2"
_cell_formula_units_Z 36
_cell_length_a 6.575918
_cell_length_b 10.732889
_cell_length_c 22.832362
_cell_angle_alpha 90.000000
_cell_angle_beta 90.000000
_cell_angle_gamma 90.000000
_cell_volume 1611.476098
_symmetry_space_group_name_H-M "P C C N"
_symmetry_group_IT_number 56
_symmetry_cell_setting 'orthorhombic'
loop_
_space_group_symop_operation_xyz
x,y,z
1/2-x,1/2-y,z
1/2+x,-y,1/2-z
-x,1/2+y,1/2-z
-x,-y,-z
1/2+x,1/2+y,-z
1/2-x,y,1/2+z
x,1/2-y,1/2+z
loop_
_atom_site_type_symbol
_atom_site_label
_atom_site_fract_x
_atom_site_fract_y
_atom_site_fract_z
Si Si1 0.484278 0.061894 0.834653
Si Si2 0.750000 0.250000 0.909433
Si Si3 0.691088 0.882947 0.284539
Si Si4 0.048143 0.152805 0.007930
Si Si5 0.340036 0.623811 0.868640
O O1 0.637371 0.147831 0.870185
O O2 0.361075 0.130231 0.783568
O O3 0.618905 0.968659 0.796445
O O4 0.334692 0.980297 0.875518
O O5 0.576557 0.299399 0.952533
O O6 0.750000 0.750000 0.309980
O O7 0.504475 0.929986 0.323831
O O8 0.250000 0.250000 0.008976
O O9 0.945683 0.168044 0.071589
O O10 0.000000 0.000000 0.000000
O O11 0.250000 0.750000 0.840541
#
# Coordination Sequence:
#
# PCOD9433824 Si02
#       5
#     8   4   8   8   8
#     4  12  28  46  75 109 154 199 254 323 393 469
#     4  12  30  48  74 112 156 198 264 324 390 464
#     4  12  26  45  72 109 149 195 254 313 389 470
#     4  12  28  50  78 111 154 205 261 324 396 469
#     4  12  25  45  75 108 146 199 254 309 385 470
#
# _framework density 22.339766999999998
#
# number of rings (size 3 to 8) (size 9 to 14) (size 15 to 20)
#    0.000    0.000    5.556    3.333    7.778    4.444 
#    0.000    0.000    0.000    0.000    0.000    0.000 
#    0.000    0.000    0.000    0.000    0.000    0.000 
#
# Total GULP energy -200634.700729 kJ/mol
# GULP energy per Si atom -5573.186131 kJ/mol
# Density = 2.228892 g / cm^3
# Si number density = 22.339767 Si / 1000 Ang^3
#
#
#
# Elastic Constant Matrix: (Units=GPa)
#
#
# Indices 1 2 3 4 5 6 
#
# 1 133.6360 73.9281 53.6750 0.0000 0.0000 0.0000
# 2 73.9281 107.6514 34.0637 0.0000 0.0000 0.0000
# 3 53.6750 34.0637 120.7900 0.0000 0.0000 0.0000
# 4 0.0000 0.0000 0.0000 84.4809 0.0000 0.0000
# 5 0.0000 0.0000 0.0000 0.0000 163.9049 0.0000
# 6 0.0000 0.0000 0.0000 0.0000 0.0000 57.6151
#
#
#
# Elastic Compliance Matrix: (Units=1/GPa)
#
#
# Indices 1 2 3 4 5 6 
#
# 1 0.013417 -0.008045 -0.003693 0.000000 0.000000 0.000000
# 2 -0.008045 0.015024 -0.000662 0.000000 0.000000 0.000000
# 3 -0.003693 -0.000662 0.010107 0.000000 0.000000 0.000000
# 4 0.000000 0.000000 0.000000 0.011837 0.000000 0.000000
# 5 0.000000 0.000000 0.000000 0.000000 0.006101 0.000000
# 6 0.000000 0.000000 0.000000 0.000000 0.000000 0.017357
#
#
# Mechanical properties :
#
#
# Convention : Reuss Voigt Hill
#
# Bulk Modulus (GPa) = 72.74462 76.15679 74.45070
# Shear Modulus (GPa) = 48.43782 74.56088 61.49935
#
# Velocity S-wave (km/s) = 4.66148 5.78345 5.25251
# Velocity P-wave (km/s) = 7.84895 8.87480 8.37759
#
# Compressibility (1/GPa) = 0.01374672
#
# Stress axis : x y z
#
# Youngs Moduli (GPa) = 74.53130 66.56155 98.94530
#
# Poissons Ratio (x) = 0.53552 0.36543
# Poissons Ratio (y) = 0.59964 0.06547
# Poissons Ratio (z) = 0.27526 0.04404
#
# Static dielectric constant tensor:
#      x y z
#    x 2.028290 0.000000 0.000000 
#    y 0.000000 1.901010 0.000000 
#    z 0.000000 0.000000 1.781970 
# 
# From -- ./inp_files/19857.got.cif
#   From: 2010.05.17/outbox.cif.g08.bks.cpg/sg56_10_cif.got.tgz:19857.got - 2010.06.03 13:42:01.
