data_PCOD9433008
_publ_section_title
;
Structure prediction by ZEFSAII (Michael W. Deem and Ramdas Pophale) SiO2 
 PCOD9433008
Probable space group: P C C N
;
_chemical_formula_sum "Si O2"
_cell_formula_units_Z 60
_cell_length_a 22.687134
_cell_length_b 11.660014
_cell_length_c 8.989920
_cell_angle_alpha 90.000000
_cell_angle_beta 90.000000
_cell_angle_gamma 90.000000
_cell_volume 2378.124215
_symmetry_space_group_name_H-M "P C C N"
_symmetry_group_IT_number 56
_symmetry_cell_setting 'orthorhombic'
loop_
_space_group_symop_operation_xyz
x,y,z
1/2-x,1/2-y,z
1/2+x,-y,1/2-z
-x,1/2+y,1/2-z
-x,-y,-z
1/2+x,1/2+y,-z
1/2-x,y,1/2+z
x,1/2-y,1/2+z
loop_
_atom_site_type_symbol
_atom_site_label
_atom_site_fract_x
_atom_site_fract_y
_atom_site_fract_z
Si Si1 0.196500 0.579203 0.137800
Si Si2 0.596241 0.495533 0.136281
Si Si3 0.320787 0.551920 0.305052
Si Si4 0.115909 0.704277 0.613776
Si Si5 0.005238 0.847897 0.713132
Si Si6 0.671786 0.680133 0.810261
Si Si7 0.750000 0.750000 0.044910
Si Si8 0.431321 0.259082 0.017630
O O1 0.151716 0.517572 0.252481
O O2 0.260304 0.580715 0.216136
O O3 0.169449 0.704998 0.097831
O O4 0.195393 0.525602 0.973576
O O5 0.537368 0.462333 0.230049
O O6 0.585020 0.621083 0.066829
O O7 0.607941 0.395022 0.011117
O O8 0.367776 0.650252 0.274382
O O9 0.351633 0.443628 0.227807
O O10 0.056430 0.774232 0.635624
O O11 0.952593 0.839368 0.593511
O O12 0.980720 0.787724 0.860890
O O13 0.698184 0.724148 0.658034
O O14 0.724117 0.659980 0.928241
O O15 0.626319 0.765584 0.884493
#
# Coordination Sequence:
#
# PCOD9433008 Si02
#       8
#     8   8   8   8   8   8   4   8
#     4  11  25  41  69 110 148 187 234 287 352 435
#     4  11  24  47  73 100 146 194 237 297 361 428
#     4  12  24  42  70 107 146 185 235 284 353 429
#     4  11  23  45  70 102 146 190 233 289 356 423
#     4  11  25  44  72 101 137 184 243 296 358 419
#     4  11  24  45  72 103 139 188 237 289 353 425
#     4  10  24  46  72 100 146 184 232 300 348 410
#     4  12  25  48  73 104 141 189 241 298 362 424
#
# _framework density 25.229970999999999
#
# number of rings (size 3 to 8) (size 9 to 14) (size 15 to 20)
#    0.000    0.800    2.667    4.800    3.733    1.067 
#    4.800    0.667    0.000    0.000    0.000    0.000 
#    0.000    0.000    0.000    0.000    0.000    0.000 
#
# Total GULP energy -335588.850185 kJ/mol
# GULP energy per Si atom -5593.147503 kJ/mol
# Density = 2.517255 g / cm^3
# Si number density = 25.229971 Si / 1000 Ang^3
#
#
#
# Elastic Constant Matrix: (Units=GPa)
#
#
# Indices 1 2 3 4 5 6 
#
# 1 86.6110 8.2126 28.3871 0.0000 0.0000 0.0000
# 2 8.2126 46.3529 15.4073 0.0000 0.0000 0.0000
# 3 28.3871 15.4073 139.8091 0.0000 0.0000 0.0000
# 4 0.0000 0.0000 0.0000 9.8182 0.0000 0.0000
# 5 0.0000 0.0000 0.0000 0.0000 54.1908 0.0000
# 6 0.0000 0.0000 0.0000 0.0000 0.0000 11.8088
#
#
#
# Elastic Compliance Matrix: (Units=1/GPa)
#
#
# Indices 1 2 3 4 5 6 
#
# 1 0.012458 -0.001418 -0.002373 0.000000 0.000000 0.000000
# 2 -0.001418 0.022555 -0.002198 0.000000 0.000000 0.000000
# 3 -0.002373 -0.002198 0.007877 0.000000 0.000000 0.000000
# 4 0.000000 0.000000 0.000000 0.101851 0.000000 0.000000
# 5 0.000000 0.000000 0.000000 0.000000 0.018453 0.000000
# 6 0.000000 0.000000 0.000000 0.000000 0.000000 0.084683
#
#
# Mechanical properties :
#
#
# Convention : Reuss Voigt Hill
#
# Bulk Modulus (GPa) = 32.35028 41.86521 37.10775
# Shear Modulus (GPa) = 18.50752 29.88129 24.19441
#
# Velocity S-wave (km/s) = 2.71136 3.44518 3.10006
# Velocity P-wave (km/s) = 4.75941 5.69694 5.24915
#
# Compressibility (1/GPa) = 0.03091164
#
# Stress axis : x y z
#
# Youngs Moduli (GPa) = 80.26830 44.33525 126.95734
#
# Poissons Ratio (x) = 0.06289 0.30130
# Poissons Ratio (y) = 0.11386 0.27901
# Poissons Ratio (z) = 0.19049 0.09743
#
# Static dielectric constant tensor:
#      x y z
#    x 2.037750 0.000000 0.000000 
#    y 0.000000 2.061980 0.000000 
#    z 0.000000 0.000000 1.973120 
# 
# From -- ./inp_files/4795.got.cif
#   From: 2010.05.17/outbox.cif.g08.bks.cpg/sg56_3_cif.got.tgz:4795.got - 2010.06.03 13:42:01.
