data_PCOD9433411
_publ_section_title
;
Structure prediction by ZEFSAII (Michael W. Deem and Ramdas Pophale) SiO2 
 PCOD9433411
Probable space group: P C C N
;
_chemical_formula_sum "Si O2"
_cell_formula_units_Z 44
_cell_length_a 8.134951
_cell_length_b 10.658268
_cell_length_c 22.624260
_cell_angle_alpha 90.000000
_cell_angle_beta 90.000000
_cell_angle_gamma 90.000000
_cell_volume 1961.624878
_symmetry_space_group_name_H-M "P C C N"
_symmetry_group_IT_number 56
_symmetry_cell_setting 'orthorhombic'
loop_
_space_group_symop_operation_xyz
x,y,z
1/2-x,1/2-y,z
1/2+x,-y,1/2-z
-x,1/2+y,1/2-z
-x,-y,-z
1/2+x,1/2+y,-z
1/2-x,y,1/2+z
x,1/2-y,1/2+z
loop_
_atom_site_type_symbol
_atom_site_label
_atom_site_fract_x
_atom_site_fract_y
_atom_site_fract_z
Si Si1 0.607936 0.427332 0.255495
Si Si2 0.410030 0.596172 0.334851
Si Si3 0.750000 0.250000 0.343225
Si Si4 0.353388 0.987481 0.576963
Si Si5 0.222807 0.596226 0.449951
Si Si6 0.618660 0.830746 0.331043
O O1 0.564746 0.529490 0.304469
O O2 0.763333 0.423096 0.212091
O O3 0.615544 0.304489 0.297263
O O4 0.457789 0.435347 0.209782
O O5 0.347327 0.551087 0.398781
O O6 0.464909 0.739933 0.343687
O O7 0.675321 0.137245 0.383036
O O8 0.250000 0.750000 0.453670
O O9 0.260658 0.958430 0.516033
O O10 0.543228 0.034935 0.567105
O O11 0.794202 0.610417 0.387799
O O12 0.750000 0.750000 0.295875
#
# Coordination Sequence:
#
# PCOD9433411 Si02
#       6
#     8   8   4   8   8   8
#     4  12  25  42  71 103 148 186 233 308 378 440
#     4  12  23  45  72 106 144 193 250 305 373 450
#     4  12  24  44  64 106 148 182 234 308 364 446
#     4  11  24  43  72 102 140 195 243 302 377 440
#     4  11  22  46  73 100 141 193 249 304 371 445
#     4  12  24  43  70 106 144 192 245 300 371 457
#
# _framework density 22.430385000000001
#
# number of rings (size 3 to 8) (size 9 to 14) (size 15 to 20)
#    0.000    0.364    6.364    3.273    0.000    1.455 
#    0.000    7.273    0.000    0.000    0.000    0.000 
#    0.000    0.000    0.000    0.000    0.000    0.000 
#
# Total GULP energy -244974.000828 kJ/mol
# GULP energy per Si atom -5567.590928 kJ/mol
# Density = 2.237933 g / cm^3
# Si number density = 22.430385 Si / 1000 Ang^3
#
#
#
# Elastic Constant Matrix: (Units=GPa)
#
#
# Indices 1 2 3 4 5 6 
#
# 1 70.7877 34.6149 51.0499 0.0000 0.0000 0.0000
# 2 34.6149 107.7728 59.9471 0.0000 0.0000 0.0000
# 3 51.0499 59.9471 171.7542 0.0000 0.0000 0.0000
# 4 0.0000 0.0000 0.0000 38.0548 0.0000 0.0000
# 5 0.0000 0.0000 0.0000 0.0000 34.4671 0.0000
# 6 0.0000 0.0000 0.0000 0.0000 0.0000 36.2731
#
#
#
# Elastic Compliance Matrix: (Units=1/GPa)
#
#
# Indices 1 2 3 4 5 6 
#
# 1 0.019096 -0.003693 -0.004387 0.000000 0.000000 0.000000
# 2 -0.003693 0.012228 -0.003170 0.000000 0.000000 0.000000
# 3 -0.004387 -0.003170 0.008233 0.000000 0.000000 0.000000
# 4 0.000000 0.000000 0.000000 0.026278 0.000000 0.000000
# 5 0.000000 0.000000 0.000000 0.000000 0.029013 0.000000
# 6 0.000000 0.000000 0.000000 0.000000 0.000000 0.027569
#
#
# Mechanical properties :
#
#
# Convention : Reuss Voigt Hill
#
# Bulk Modulus (GPa) = 58.62856 71.28204 64.95530
# Shear Modulus (GPa) = 33.19964 35.40584 34.30274
#
# Velocity S-wave (km/s) = 3.85141 3.97731 3.91487
# Velocity P-wave (km/s) = 6.78030 7.27601 7.03252
#
# Compressibility (1/GPa) = 0.01705653
#
# Stress axis : x y z
#
# Youngs Moduli (GPa) = 52.36567 81.77635 121.46671
#
# Poissons Ratio (x) = 0.30203 0.53286
# Poissons Ratio (y) = 0.19340 0.38509
# Poissons Ratio (z) = 0.22972 0.25926
#
# Static dielectric constant tensor:
#      x y z
#    x 1.900470 0.000000 0.000000 
#    y 0.000000 1.915900 0.000000 
#    z 0.000000 0.000000 1.867650 
# 
# From -- ./inp_files/20440.got.cif
#   From: 2010.05.17/outbox.cif.g08.bks.cpg/sg56_11_cif.got.tgz:20440.got - 2010.06.03 13:42:01.
