data_PCOD9433729
_publ_section_title
;
Structure prediction by ZEFSAII (Michael W. Deem and Ramdas Pophale) SiO2 
 PCOD9433729
Probable space group: P C C N
;
_chemical_formula_sum "Si O2"
_cell_formula_units_Z 32
_cell_length_a 8.835807
_cell_length_b 4.991364
_cell_length_c 29.873013
_cell_angle_alpha 90.000000
_cell_angle_beta 90.000000
_cell_angle_gamma 90.000000
_cell_volume 1317.481396
_symmetry_space_group_name_H-M "P C C N"
_symmetry_group_IT_number 56
_symmetry_cell_setting 'orthorhombic'
loop_
_space_group_symop_operation_xyz
x,y,z
1/2-x,1/2-y,z
1/2+x,-y,1/2-z
-x,1/2+y,1/2-z
-x,-y,-z
1/2+x,1/2+y,-z
1/2-x,y,1/2+z
x,1/2-y,1/2+z
loop_
_atom_site_type_symbol
_atom_site_label
_atom_site_fract_x
_atom_site_fract_y
_atom_site_fract_z
Si Si1 0.355149 0.496758 0.912677
Si Si2 0.425453 0.316154 0.537563
Si Si3 0.581138 0.374752 0.269054
Si Si4 0.918646 0.141642 0.369566
O O1 0.250000 0.750000 0.901575
O O2 0.465063 0.565940 0.953611
O O3 0.462151 0.383824 0.873871
O O4 0.250000 0.250000 0.925149
O O5 0.250000 0.250000 0.530057
O O6 0.500000 0.500000 0.500000
O O7 0.436553 0.457110 0.586817
O O8 0.750000 0.250000 0.262281
O O9 0.534545 0.628662 0.239210
O O10 0.567101 0.478472 0.320315
O O11 0.750000 0.250000 0.373003
#
# Coordination Sequence:
#
# PCOD9433729 Si02
#       4
#     8   8   8   8
#     4  12  27  49  77 116 154 201 264 329 388 459
#     4  12  29  52  83 115 162 215 274 326 393 472
#     4  11  27  49  80 118 157 203 260 323 401 475
#     4  11  26  51  81 110 159 216 259 321 399 480
#
# _framework density 24.288771000000001
#
# number of rings (size 3 to 8) (size 9 to 14) (size 15 to 20)
#    0.000    0.500    5.000    0.750    7.000    5.000 
#    0.000    1.250    0.000    0.000    0.000    0.000 
#    0.000    0.000    0.000    0.000    0.000    0.000 
#
# Total GULP energy -179279.703579 kJ/mol
# GULP energy per Si atom -5602.490737 kJ/mol
# Density = 2.423349 g / cm^3
# Si number density = 24.288771 Si / 1000 Ang^3
#
#
#
# Elastic Constant Matrix: (Units=GPa)
#
#
# Indices 1 2 3 4 5 6 
#
# 1 192.0397 59.6881 50.1573 0.0000 0.0000 0.0000
# 2 59.6881 119.6636 32.7085 0.0000 0.0000 0.0000
# 3 50.1573 32.7085 141.9284 0.0000 0.0000 0.0000
# 4 0.0000 0.0000 0.0000 72.7073 0.0000 0.0000
# 5 0.0000 0.0000 0.0000 0.0000 -9.2548 0.0000
# 6 0.0000 0.0000 0.0000 0.0000 0.0000 41.9136
#
#
#
# Elastic Compliance Matrix: (Units=1/GPa)
#
#
# Indices 1 2 3 4 5 6 
#
# 1 0.006508 -0.002794 -0.001656 0.000000 0.000000 0.000000
# 2 -0.002794 0.010118 -0.001344 0.000000 0.000000 0.000000
# 3 -0.001656 -0.001344 0.007941 0.000000 0.000000 0.000000
# 4 0.000000 0.000000 0.000000 0.013754 0.000000 0.000000
# 5 0.000000 0.000000 0.000000 0.000000 -0.108052 0.000000
# 6 0.000000 0.000000 0.000000 0.000000 0.000000 0.023859
#
#
# Mechanical properties :
#
#
# Convention : Reuss Voigt Hill
#
# Bulk Modulus (GPa) = 77.05130 82.08217 79.56673
# Shear Modulus (GPa) = -166.89859 41.81174 -62.54343
#
# Velocity S-wave (km/s) = -8.29840 4.15353 -5.07994
# Velocity P-wave (km/s) = 7.74765 7.54122 1.25619
#
# Compressibility (1/GPa) = 0.01297837
#
# Stress axis : x y z
#
# Youngs Moduli (GPa) = 153.65526 98.83704 125.92985
#
# Poissons Ratio (x) = 0.27610 0.20856
# Poissons Ratio (y) = 0.42924 0.16931
# Poissons Ratio (z) = 0.25448 0.13288
#
# Static dielectric constant tensor:
#      x y z
#    x 1.943530 0.000000 0.000000 
#    y 0.000000 2.042620 0.000000 
#    z 0.000000 0.000000 1.978170 
# 
# From -- ./inp_files/22662.got.cif
#   From: 2010.05.17/outbox.cif.g08.bks.cpg/sg56_12_cif.got.tgz:22662.got - 2010.06.03 13:42:01.
