data_PCOD9433709
_publ_section_title
;
Structure prediction by ZEFSAII (Michael W. Deem and Ramdas Pophale) SiO2 
 PCOD9433709
Probable space group: P C C N
;
_chemical_formula_sum "Si O2"
_cell_formula_units_Z 40
_cell_length_a 17.921219
_cell_length_b 4.938718
_cell_length_c 18.555747
_cell_angle_alpha 90.000000
_cell_angle_beta 90.000000
_cell_angle_gamma 90.000000
_cell_volume 1642.329214
_symmetry_space_group_name_H-M "P C C N"
_symmetry_group_IT_number 56
_symmetry_cell_setting 'orthorhombic'
loop_
_space_group_symop_operation_xyz
x,y,z
1/2-x,1/2-y,z
1/2+x,-y,1/2-z
-x,1/2+y,1/2-z
-x,-y,-z
1/2+x,1/2+y,-z
1/2-x,y,1/2+z
x,1/2-y,1/2+z
loop_
_atom_site_type_symbol
_atom_site_label
_atom_site_fract_x
_atom_site_fract_y
_atom_site_fract_z
Si Si1 0.615794 0.505829 0.539788
Si Si2 0.301107 0.015463 0.824771
Si Si3 0.607940 0.473063 0.811570
Si Si4 0.250000 0.750000 0.008920
Si Si5 0.250000 0.250000 0.111540
Si Si6 0.455391 0.064142 0.111257
O O1 0.669437 0.637646 0.599727
O O2 0.667527 0.235789 0.527360
O O3 0.589541 0.628187 0.463360
O O4 0.538702 0.472331 0.582512
O O5 0.250000 0.750000 0.833484
O O6 0.250000 0.250000 0.792102
O O7 0.368720 0.939248 0.771183
O O8 0.681461 0.622178 0.844379
O O9 0.583211 0.198093 0.851666
O O10 0.546097 0.694665 0.831014
O O11 0.234500 0.495032 0.058216
#
# Coordination Sequence:
#
# PCOD9433709 Si02
#       6
#     8   8   8   4   4   8
#     4  11  26  47  69 108 141 185 236 295 363 417
#     4  12  28  44  71 105 142 178 234 295 350 419
#     4  12  24  46  70 102 138 187 236 289 353 429
#     4  12  24  42  72 102 138 184 236 292 348 418
#     4  12  22  40  70 102 132 184 236 286 346 420
#     4  11  27  45  74 101 143 185 237 292 353 437
#
# _framework density 24.355653
#
# number of rings (size 3 to 8) (size 9 to 14) (size 15 to 20)
#    0.000    0.400    6.000    1.200    2.800    9.600 
#    0.000    0.000    0.000    0.000    0.000    0.000 
#    0.000    0.000    0.000    0.000    0.000    0.000 
#
# Total GULP energy -223055.359468 kJ/mol
# GULP energy per Si atom -5576.383987 kJ/mol
# Density = 2.430022 g / cm^3
# Si number density = 24.355653 Si / 1000 Ang^3
#
#
#
# Elastic Constant Matrix: (Units=GPa)
#
#
# Indices 1 2 3 4 5 6 
#
# 1 102.1966 -0.0805 36.0166 0.0000 0.0000 0.0000
# 2 -0.0805 110.5144 32.7442 0.0000 0.0000 0.0000
# 3 36.0166 32.7442 114.7947 0.0000 0.0000 0.0000
# 4 0.0000 0.0000 0.0000 563.4856 0.0000 0.0000
# 5 0.0000 0.0000 0.0000 0.0000 88.7126 0.0000
# 6 0.0000 0.0000 0.0000 0.0000 0.0000 18.5486
#
#
#
# Elastic Compliance Matrix: (Units=1/GPa)
#
#
# Indices 1 2 3 4 5 6 
#
# 1 0.011131 0.001139 -0.003817 0.000000 0.000000 0.000000
# 2 0.001139 0.010000 -0.003210 0.000000 0.000000 0.000000
# 3 -0.003817 -0.003210 0.010824 0.000000 0.000000 0.000000
# 4 0.000000 0.000000 0.000000 0.001775 0.000000 0.000000
# 5 0.000000 0.000000 0.000000 0.000000 0.011272 0.000000
# 6 0.000000 0.000000 0.000000 0.000000 0.000000 0.053912
#
#
# Mechanical properties :
#
#
# Convention : Reuss Voigt Hill
#
# Bulk Modulus (GPa) = 49.55411 51.65181 50.60296
# Shear Modulus (GPa) = 42.58267 151.40438 96.99353
#
# Velocity S-wave (km/s) = 4.18589 7.89297 6.31746
# Velocity P-wave (km/s) = 6.61456 10.21365 8.60439
#
# Compressibility (1/GPa) = 0.02017996
#
# Stress axis : x y z
#
# Youngs Moduli (GPa) = 89.83685 99.99504 92.38304
#
# Poissons Ratio (x) = -0.11391 0.35266
# Poissons Ratio (y) = -0.10234 0.29655
# Poissons Ratio (z) = 0.34294 0.32098
#
# Static dielectric constant tensor:
#      x y z
#    x 2.005850 0.000000 0.000000 
#    y 0.000000 1.891060 0.000000 
#    z 0.000000 0.000000 2.019090 
# 
# From -- ./inp_files/16492.got.cif
#   From: 2010.05.17/outbox.cif.g08.bks.cpg/sg56_9_cif.got.tgz:16492.got - 2010.06.03 13:42:01.
