data_PCOD9433507
_publ_section_title
;
Structure prediction by ZEFSAII (Michael W. Deem and Ramdas Pophale) SiO2 
 PCOD9433507
Probable space group: P C C N
;
_chemical_formula_sum "Si O2"
_cell_formula_units_Z 60
_cell_length_a 24.135518
_cell_length_b 9.579926
_cell_length_c 10.176549
_cell_angle_alpha 90.000000
_cell_angle_beta 90.000000
_cell_angle_gamma 90.000000
_cell_volume 2352.985802
_symmetry_space_group_name_H-M "P C C N"
_symmetry_group_IT_number 56
_symmetry_cell_setting 'orthorhombic'
loop_
_space_group_symop_operation_xyz
x,y,z
1/2-x,1/2-y,z
1/2+x,-y,1/2-z
-x,1/2+y,1/2-z
-x,-y,-z
1/2+x,1/2+y,-z
1/2-x,y,1/2+z
x,1/2-y,1/2+z
loop_
_atom_site_type_symbol
_atom_site_label
_atom_site_fract_x
_atom_site_fract_y
_atom_site_fract_z
Si Si1 0.809402 0.320905 0.738105
Si Si2 0.498959 0.169150 0.996472
Si Si3 0.159430 0.420002 0.596474
Si Si4 0.467594 0.363778 0.822760
Si Si5 0.158137 0.118249 0.822376
Si Si6 0.127770 0.761432 0.013605
Si Si7 0.959453 0.637734 0.328984
Si Si8 0.750000 0.750000 0.842386
O O1 0.750000 0.250000 0.749197
O O2 0.807103 0.475990 0.681003
O O3 0.847525 0.239637 0.631887
O O4 0.840037 0.327106 0.877365
O O5 0.465393 0.339905 0.996742
O O6 0.563002 0.225452 0.985616
O O7 0.481194 0.193365 0.157435
O O8 0.500000 0.000000 0.000000
O O9 0.154876 0.320303 0.467973
O O10 0.141923 0.578612 0.556926
O O11 0.107032 0.379727 0.686612
O O12 0.226400 0.400894 0.609229
O O13 0.405074 0.415020 0.791079
O O14 0.474891 0.187043 0.837950
O O15 0.509590 0.491271 0.824436
O O16 0.193720 0.217260 0.732575
#
# Coordination Sequence:
#
# PCOD9433507 Si02
#       8
#     8   8   8   8   8   8   8   4
#     4  11  25  48  73 105 147 198 250 313 383 459
#     4  12  27  44  69 111 145 195 255 314 394 477
#     4  11  23  45  71 102 146 196 246 313 391 454
#     4  12  25  44  75 104 147 192 248 317 396 471
#     4  11  25  44  69 103 139 191 247 311 380 454
#     4  11  26  46  76 110 150 197 255 318 389 465
#     4  12  24  44  71 103 147 194 242 315 389 473
#     4  12  24  44  70 102 140 192 256 314 370 470
#
# _framework density 25.499517000000001
#
# number of rings (size 3 to 8) (size 9 to 14) (size 15 to 20)
#    0.000    0.533    4.000    4.400    5.600    2.133 
#    2.400    0.000    0.000    0.000    0.000    0.000 
#    0.000    0.000    0.000    0.000    0.000    0.000 
#
# Total GULP energy -334223.560449 kJ/mol
# GULP energy per Si atom -5570.392674 kJ/mol
# Density = 2.544148 g / cm^3
# Si number density = 25.499517 Si / 1000 Ang^3
#
#
#
# Elastic Constant Matrix: (Units=GPa)
#
#
# Indices 1 2 3 4 5 6 
#
# 1 204.2971 30.0982 22.3771 0.0000 0.0000 0.0000
# 2 30.0982 117.9499 20.4334 0.0000 0.0000 0.0000
# 3 22.3771 20.4334 128.7666 0.0000 0.0000 0.0000
# 4 0.0000 0.0000 0.0000 14.5305 0.0000 0.0000
# 5 0.0000 0.0000 0.0000 0.0000 36.6803 0.0000
# 6 0.0000 0.0000 0.0000 0.0000 0.0000 48.2129
#
#
#
# Elastic Compliance Matrix: (Units=1/GPa)
#
#
# Indices 1 2 3 4 5 6 
#
# 1 0.005148 -0.001191 -0.000706 0.000000 0.000000 0.000000
# 2 -0.001191 0.008994 -0.001220 0.000000 0.000000 0.000000
# 3 -0.000706 -0.001220 0.008082 0.000000 0.000000 0.000000
# 4 0.000000 0.000000 0.000000 0.068821 0.000000 0.000000
# 5 0.000000 0.000000 0.000000 0.000000 0.027263 0.000000
# 6 0.000000 0.000000 0.000000 0.000000 0.000000 0.020741
#
#
# Mechanical properties :
#
#
# Convention : Reuss Voigt Hill
#
# Bulk Modulus (GPa) = 62.54122 66.31457 64.42789
# Shear Modulus (GPa) = 33.19792 45.09173 39.14483
#
# Velocity S-wave (km/s) = 3.61210 4.20972 3.92231
# Velocity P-wave (km/s) = 6.47890 7.04923 6.77007
#
# Compressibility (1/GPa) = 0.01598945
#
# Stress axis : x y z
#
# Youngs Moduli (GPa) = 194.26442 111.19080 123.72854
#
# Poissons Ratio (x) = 0.13247 0.08729
# Poissons Ratio (y) = 0.23143 0.15096
# Poissons Ratio (z) = 0.13706 0.13567
#
# Static dielectric constant tensor:
#      x y z
#    x 2.189980 0.000000 0.000000 
#    y 0.000000 2.210620 0.000000 
#    z 0.000000 0.000000 2.580770 
# 
# From -- ./inp_files/9086.got.cif
#   From: 2010.05.17/outbox.cif.g08.bks.cpg/sg56_5_cif.got.tgz:9086.got - 2010.06.03 13:42:01.
