data_PCOD9433255
_publ_section_title
;
Structure prediction by ZEFSAII (Michael W. Deem and Ramdas Pophale) SiO2 
 PCOD9433255
Probable space group: P C C N
;
_chemical_formula_sum "Si O2"
_cell_formula_units_Z 48
_cell_length_a 8.867653
_cell_length_b 15.693912
_cell_length_c 18.924545
_cell_angle_alpha 90.000000
_cell_angle_beta 90.000000
_cell_angle_gamma 90.000000
_cell_volume 2633.694217
_symmetry_space_group_name_H-M "P C C N"
_symmetry_group_IT_number 56
_symmetry_cell_setting 'orthorhombic'
loop_
_space_group_symop_operation_xyz
x,y,z
1/2-x,1/2-y,z
1/2+x,-y,1/2-z
-x,1/2+y,1/2-z
-x,-y,-z
1/2+x,1/2+y,-z
1/2-x,y,1/2+z
x,1/2-y,1/2+z
loop_
_atom_site_type_symbol
_atom_site_label
_atom_site_fract_x
_atom_site_fract_y
_atom_site_fract_z
Si Si1 0.575888 0.347766 0.325349
Si Si2 0.568833 0.580517 0.039713
Si Si3 0.424112 0.847766 0.674651
Si Si4 0.430727 0.250000 0.206996
Si Si5 0.068832 0.080517 0.460287
Si Si6 0.566982 0.750000 0.455168
O O1 0.572130 0.250000 0.354953
O O2 0.750000 0.372016 0.316167
O O3 0.494143 0.331509 0.250436
O O4 0.492853 0.407458 0.380893
O O5 0.507147 0.592542 0.119107
O O6 0.750000 0.575824 0.040882
O O7 0.500000 0.500000 0.000000
O O8 0.521674 0.664840 0.996104
O O9 0.505858 0.831509 0.749564
O O10 0.250000 0.250000 0.210634
O O11 0.482226 0.250000 0.126280
O O12 0.021674 0.164840 0.503896
O O13 0.000000 0.000000 0.500000
O O14 0.750000 0.750000 0.454333
#
# Coordination Sequence:
#
# PCOD9433255 Si02
#       6
#     8   8   8   8   8   8
#     4   9  18  33  53  78 106 139 177 218 264 318
#     4  11  21  36  57  83 110 144 183 226 272 324
#     4   9  18  33  53  78 106 139 177 218 264 318
#     4   9  16  31  56  80 102 141 180 217 272 326
#     4  11  21  36  57  83 110 144 183 226 272 324
#     4   9  19  35  56  80 110 141 178 223 272 324
#
# _framework density 18.225349999999999
#
# number of rings (size 3 to 8) (size 9 to 14) (size 15 to 20)
#    1.000    1.333    1.667    2.000    0.000    0.000 
#    0.000    8.333    0.000    0.000    0.000    0.000 
#    0.000    0.000    0.000    0.000    0.000    0.000 
#
# Total GULP energy -267296.562407 kJ/mol
# GULP energy per Si atom -5568.678383 kJ/mol
# Density = 1.818387 g / cm^3
# Si number density = 18.225350 Si / 1000 Ang^3
#
#
#
# Elastic Constant Matrix: (Units=GPa)
#
#
# Indices 1 2 3 4 5 6 
#
# 1 82.6133 17.6809 27.2685 0.0000 0.0000 0.0000
# 2 17.6809 67.7740 17.9652 0.0000 0.0000 0.0000
# 3 27.2685 17.9652 102.1619 0.0000 0.0000 0.0000
# 4 0.0000 0.0000 0.0000 -2.4528 0.0000 0.0000
# 5 0.0000 0.0000 0.0000 0.0000 12.0491 0.0000
# 6 0.0000 0.0000 0.0000 0.0000 0.0000 26.2354
#
#
#
# Elastic Compliance Matrix: (Units=1/GPa)
#
#
# Indices 1 2 3 4 5 6 
#
# 1 0.013743 -0.002741 -0.003186 0.000000 0.000000 0.000000
# 2 -0.002741 0.016023 -0.002086 0.000000 0.000000 0.000000
# 3 -0.003186 -0.002086 0.011006 0.000000 0.000000 0.000000
# 4 0.000000 0.000000 0.000000 -0.407699 0.000000 0.000000
# 5 0.000000 0.000000 0.000000 0.000000 0.082994 0.000000
# 6 0.000000 0.000000 0.000000 0.000000 0.000000 0.038116
#
#
# Mechanical properties :
#
#
# Convention : Reuss Voigt Hill
#
# Bulk Modulus (GPa) = 40.41149 42.04204 41.22676
# Shear Modulus (GPa) = -22.56901 19.80866 -1.38017
#
# Velocity S-wave (km/s) = -3.52281 3.30035 -0.87116
# Velocity P-wave (km/s) = 2.38211 6.13523 4.65379
#
# Compressibility (1/GPa) = 0.02474544
#
# Stress axis : x y z
#
# Youngs Moduli (GPa) = 72.76526 62.41080 90.86227
#
# Poissons Ratio (x) = 0.17105 0.28951
# Poissons Ratio (y) = 0.19942 0.18955
# Poissons Ratio (z) = 0.23185 0.13020
#
# Static dielectric constant tensor:
#      x y z
#    x 1.614480 0.000000 0.000000 
#    y 0.000000 1.619750 0.000000 
#    z 0.000000 0.000000 1.621630 
# 
# From -- ./inp_files/18071.got.cif
#   From: 2010.05.17/outbox.cif.g08.bks.cpg/sg56_10_cif.got.tgz:18071.got - 2010.06.03 13:42:01.
