data_PCOD9433132
_publ_section_title
;
Structure prediction by ZEFSAII (Michael W. Deem and Ramdas Pophale) SiO2 
 PCOD9433132
Probable space group: P C C N
;
_chemical_formula_sum "Si O2"
_cell_formula_units_Z 36
_cell_length_a 10.280244
_cell_length_b 16.002889
_cell_length_c 9.590885
_cell_angle_alpha 90.000000
_cell_angle_beta 90.000000
_cell_angle_gamma 90.000000
_cell_volume 1577.831053
_symmetry_space_group_name_H-M "P C C N"
_symmetry_group_IT_number 56
_symmetry_cell_setting 'orthorhombic'
loop_
_space_group_symop_operation_xyz
x,y,z
1/2-x,1/2-y,z
1/2+x,-y,1/2-z
-x,1/2+y,1/2-z
-x,-y,-z
1/2+x,1/2+y,-z
1/2-x,y,1/2+z
x,1/2-y,1/2+z
loop_
_atom_site_type_symbol
_atom_site_label
_atom_site_fract_x
_atom_site_fract_y
_atom_site_fract_z
Si Si1 0.750000 0.750000 0.374821
Si Si2 0.488331 0.460441 0.850145
Si Si3 0.666057 0.333361 0.422427
Si Si4 0.229241 0.949041 0.316772
Si Si5 0.068622 0.216877 0.883433
O O1 0.666539 0.802233 0.488266
O O2 0.856815 0.780707 0.263938
O O3 0.791779 0.375062 0.777086
O O4 0.598139 0.489900 0.744205
O O5 0.340667 0.480533 0.811479
O O6 0.807711 0.404519 0.038020
O O7 0.750000 0.250000 0.453189
O O8 0.517350 0.298824 0.413788
O O9 0.979402 0.363334 0.368119
O O10 0.500000 0.000000 0.500000
#
# Coordination Sequence:
#
# PCOD9433132 Si02
#       5
#     4   8   8   8   8
#     4  10  26  44  70 106 140 186 234 308 364 434
#     4  12  27  47  71 110 151 193 242 308 381 449
#     4  12  25  46  78 107 137 193 259 304 357 441
#     4  12  27  47  77 109 151 196 246 314 379 451
#     4  11  25  45  74 102 144 188 247 297 368 442
#
# _framework density 22.816130999999999
#
# number of rings (size 3 to 8) (size 9 to 14) (size 15 to 20)
#    0.000    0.444    4.444    2.000    9.333    2.667 
#    0.000    0.000    0.000    0.000    0.000    0.000 
#    0.000    0.000    0.000    0.000    0.000    0.000 
#
# Total GULP energy -200951.499277 kJ/mol
# GULP energy per Si atom -5581.986091 kJ/mol
# Density = 2.276420 g / cm^3
# Si number density = 22.816131 Si / 1000 Ang^3
#
#
#
# Elastic Constant Matrix: (Units=GPa)
#
#
# Indices 1 2 3 4 5 6 
#
# 1 106.9895 24.0226 24.7230 0.0000 0.0000 0.0000
# 2 24.0226 48.9692 5.8754 0.0000 0.0000 0.0000
# 3 24.7230 5.8754 109.2649 0.0000 0.0000 0.0000
# 4 0.0000 0.0000 0.0000 4.9641 0.0000 0.0000
# 5 0.0000 0.0000 0.0000 0.0000 37.6079 0.0000
# 6 0.0000 0.0000 0.0000 0.0000 0.0000 30.8112
#
#
#
# Elastic Compliance Matrix: (Units=1/GPa)
#
#
# Indices 1 2 3 4 5 6 
#
# 1 0.011012 -0.005136 -0.002215 0.000000 0.000000 0.000000
# 2 -0.005136 0.022949 -0.000072 0.000000 0.000000 0.000000
# 3 -0.002215 -0.000072 0.009657 0.000000 0.000000 0.000000
# 4 0.000000 0.000000 0.000000 0.201445 0.000000 0.000000
# 5 0.000000 0.000000 0.000000 0.000000 0.026590 0.000000
# 6 0.000000 0.000000 0.000000 0.000000 0.000000 0.032456
#
#
# Mechanical properties :
#
#
# Convention : Reuss Voigt Hill
#
# Bulk Modulus (GPa) = 34.75685 41.60728 38.18206
# Shear Modulus (GPa) = 15.21854 28.71681 21.96767
#
# Velocity S-wave (km/s) = 2.58545 3.55155 3.10629
# Velocity P-wave (km/s) = 4.91724 5.92398 5.44393
#
# Compressibility (1/GPa) = 0.02877131
#
# Stress axis : x y z
#
# Youngs Moduli (GPa) = 90.81078 43.57430 103.54950
#
# Poissons Ratio (x) = 0.22381 0.22941
# Poissons Ratio (y) = 0.46643 0.00744
# Poissons Ratio (z) = 0.20119 0.00313
#
# Static dielectric constant tensor:
#      x y z
#    x 1.932960 0.000000 0.000000 
#    y 0.000000 1.808940 0.000000 
#    z 0.000000 0.000000 1.743360 
# 
# From -- ./inp_files/2102.got.cif
#   From: 2010.05.17/outbox.cif.g08.bks.cpg/sg56_2_cif.got.tgz:2102.got - 2010.06.03 13:42:01.
