data_PCOD9433329
_publ_section_title
;
Structure prediction by ZEFSAII (Michael W. Deem and Ramdas Pophale) SiO2 
 PCOD9433329
Probable space group: P C C N
;
_chemical_formula_sum "Si O2"
_cell_formula_units_Z 32
_cell_length_a 5.194628
_cell_length_b 14.245237
_cell_length_c 20.599878
_cell_angle_alpha 90.000000
_cell_angle_beta 90.000000
_cell_angle_gamma 90.000000
_cell_volume 1524.364336
_symmetry_space_group_name_H-M "P C C N"
_symmetry_group_IT_number 56
_symmetry_cell_setting 'orthorhombic'
loop_
_space_group_symop_operation_xyz
x,y,z
1/2-x,1/2-y,z
1/2+x,-y,1/2-z
-x,1/2+y,1/2-z
-x,-y,-z
1/2+x,1/2+y,-z
1/2-x,y,1/2+z
x,1/2-y,1/2+z
loop_
_atom_site_type_symbol
_atom_site_label
_atom_site_fract_x
_atom_site_fract_y
_atom_site_fract_z
Si Si1 0.793483 0.849476 0.747779
Si Si2 0.972539 0.016715 0.836997
Si Si3 0.574884 0.338327 0.387793
Si Si4 0.753132 0.968398 0.540366
O O1 0.750000 0.750000 0.781149
O O2 0.556403 0.904303 0.714816
O O3 0.965696 0.824164 0.684730
O O4 0.902816 0.925125 0.797242
O O5 0.753644 0.069092 0.878883
O O6 0.198148 0.991115 0.887549
O O7 0.750000 0.250000 0.407010
O O8 0.340462 0.362859 0.436848
O O9 0.500000 0.000000 0.500000
O O10 0.000000 0.000000 0.500000
#
# Coordination Sequence:
#
# PCOD9433329 Si02
#       4
#     8   8   8   8
#     4  11  22  37  65 105 144 180 231 294 369 438
#     4  11  22  39  68  99 143 184 225 296 358 423
#     4  11  22  40  69 102 136 183 242 292 359 433
#     4  11  24  45  68  94 136 187 240 296 347 414
#
# _framework density 20.992353999999999
#
# number of rings (size 3 to 8) (size 9 to 14) (size 15 to 20)
#    0.000    1.000    7.500    0.000    0.000    0.000 
#    0.000    2.500    0.000    0.000    0.000    0.000 
#    0.000    0.000    0.000    0.000    0.000    0.000 
#
# Total GULP energy -178234.564337 kJ/mol
# GULP energy per Si atom -5569.830136 kJ/mol
# Density = 2.094457 g / cm^3
# Si number density = 20.992354 Si / 1000 Ang^3
#
#
#
# Elastic Constant Matrix: (Units=GPa)
#
#
# Indices 1 2 3 4 5 6 
#
# 1 127.2357 61.0948 45.3628 0.0000 0.0000 0.0000
# 2 61.0948 162.1622 61.7485 0.0000 0.0000 0.0000
# 3 45.3628 61.7485 71.6094 0.0000 0.0000 0.0000
# 4 0.0000 0.0000 0.0000 15.1070 0.0000 0.0000
# 5 0.0000 0.0000 0.0000 0.0000 38.2129 0.0000
# 6 0.0000 0.0000 0.0000 0.0000 0.0000 48.0701
#
#
#
# Elastic Compliance Matrix: (Units=1/GPa)
#
#
# Indices 1 2 3 4 5 6 
#
# 1 0.010631 -0.002145 -0.004885 0.000000 0.000000 0.000000
# 2 -0.002145 0.009614 -0.006931 0.000000 0.000000 0.000000
# 3 -0.004885 -0.006931 0.023036 0.000000 0.000000 0.000000
# 4 0.000000 0.000000 0.000000 0.066195 0.000000 0.000000
# 5 0.000000 0.000000 0.000000 0.000000 0.026169 0.000000
# 6 0.000000 0.000000 0.000000 0.000000 0.000000 0.020803
#
#
# Mechanical properties :
#
#
# Convention : Reuss Voigt Hill
#
# Bulk Modulus (GPa) = 65.11017 77.49103 71.30060
# Shear Modulus (GPa) = 26.38666 33.13141 29.75903
#
# Velocity S-wave (km/s) = 3.54922 3.97704 3.76920
# Velocity P-wave (km/s) = 6.91949 7.62124 7.27883
#
# Compressibility (1/GPa) = 0.01535858
#
# Stress axis : x y z
#
# Youngs Moduli (GPa) = 94.06439 104.01249 43.41069
#
# Poissons Ratio (x) = 0.22313 0.21204
# Poissons Ratio (y) = 0.20179 0.30089
# Poissons Ratio (z) = 0.45947 0.72095
#
# Static dielectric constant tensor:
#      x y z
#    x 1.930400 0.000000 0.000000 
#    y 0.000000 1.747880 0.000000 
#    z 0.000000 0.000000 1.762700 
# 
# From -- ./inp_files/15950.got.cif
#   From: 2010.05.17/outbox.cif.g08.bks.cpg/sg56_8_cif.got.tgz:15950.got - 2010.06.03 13:42:01.
