data_PCOD9433567
_publ_section_title
;
Structure prediction by ZEFSAII (Michael W. Deem and Ramdas Pophale) SiO2 
 PCOD9433567
Probable space group: P C C N
;
_chemical_formula_sum "Si O2"
_cell_formula_units_Z 36
_cell_length_a 16.782210
_cell_length_b 7.923474
_cell_length_c 9.383921
_cell_angle_alpha 90.000000
_cell_angle_beta 90.000000
_cell_angle_gamma 90.000000
_cell_volume 1247.811924
_symmetry_space_group_name_H-M "P C C N"
_symmetry_group_IT_number 56
_symmetry_cell_setting 'orthorhombic'
loop_
_space_group_symop_operation_xyz
x,y,z
1/2-x,1/2-y,z
1/2+x,-y,1/2-z
-x,1/2+y,1/2-z
-x,-y,-z
1/2+x,1/2+y,-z
1/2-x,y,1/2+z
x,1/2-y,1/2+z
loop_
_atom_site_type_symbol
_atom_site_label
_atom_site_fract_x
_atom_site_fract_y
_atom_site_fract_z
Si Si1 0.483916 0.580165 0.284410
Si Si2 0.811370 0.551433 0.579444
Si Si3 0.250000 0.750000 0.240708
Si Si4 0.372558 0.219013 0.688300
Si Si5 0.904206 0.263228 0.465031
O O1 0.573134 0.613560 0.344872
O O2 0.439518 0.420359 0.217026
O O3 0.473474 0.703735 0.147238
O O4 0.428570 0.629707 0.417538
O O5 0.752284 0.416667 0.656736
O O6 0.828875 0.713668 0.673368
O O7 0.811080 0.630681 0.420873
O O8 0.887806 0.428425 0.561928
O O9 0.325681 0.759482 0.134151
#
# Coordination Sequence:
#
# PCOD9433567 Si02
#       5
#     8   8   4   8   8
#     4  11  24  43  77 126 163 211 263 345 426 503
#     4  11  26  51  79 117 163 220 278 342 414 492
#     4  12  26  50  80 104 162 232 290 330 400 500
#     4  11  26  47  84 128 173 208 275 349 434 509
#     4  11  24  45  76 112 161 219 278 333 412 491
#
# _framework density 28.850503
#
# number of rings (size 3 to 8) (size 9 to 14) (size 15 to 20)
#    0.000    0.889    2.222    3.333    3.111    5.333 
#    0.000    8.889    0.000    0.000    0.000    0.000 
#    0.000    0.000    0.000    0.000    0.000    0.000 
#
# Total GULP energy -201222.048087 kJ/mol
# GULP energy per Si atom -5589.501336 kJ/mol
# Density = 2.878484 g / cm^3
# Si number density = 28.850503 Si / 1000 Ang^3
#
#
#
# Elastic Constant Matrix: (Units=GPa)
#
#
# Indices 1 2 3 4 5 6 
#
# 1 78.8906 -9.4609 -9.0846 0.0000 0.0000 0.0000
# 2 -9.4609 46.7688 21.8265 0.0000 0.0000 0.0000
# 3 -9.0846 21.8265 138.4161 0.0000 0.0000 0.0000
# 4 0.0000 0.0000 0.0000 64.0816 0.0000 0.0000
# 5 0.0000 0.0000 0.0000 0.0000 28.2035 0.0000
# 6 0.0000 0.0000 0.0000 0.0000 0.0000 52.4152
#
#
#
# Elastic Compliance Matrix: (Units=1/GPa)
#
#
# Indices 1 2 3 4 5 6 
#
# 1 0.013020 0.002412 0.000474 0.000000 0.000000 0.000000
# 2 0.002412 0.023527 -0.003552 0.000000 0.000000 0.000000
# 3 0.000474 -0.003552 0.007816 0.000000 0.000000 0.000000
# 4 0.000000 0.000000 0.000000 0.015605 0.000000 0.000000
# 5 0.000000 0.000000 0.000000 0.000000 0.035457 0.000000
# 6 0.000000 0.000000 0.000000 0.000000 0.000000 0.019078
#
#
# Mechanical properties :
#
#
# Convention : Reuss Voigt Hill
#
# Bulk Modulus (GPa) = 23.23815 30.07084 26.65449
# Shear Modulus (GPa) = 38.40918 46.32635 42.36777
#
# Velocity S-wave (km/s) = 3.65268 4.01151 3.83629
# Velocity P-wave (km/s) = 5.08543 5.64818 5.37418
#
# Compressibility (1/GPa) = 0.04303269
#
# Stress axis : x y z
#
# Youngs Moduli (GPa) = 76.80671 42.50383 127.94669
#
# Poissons Ratio (x) = -0.10254 -0.06066
# Poissons Ratio (y) = -0.18530 0.45442
# Poissons Ratio (z) = -0.03641 0.15096
#
# Static dielectric constant tensor:
#      x y z
#    x 2.436170 0.000000 0.000000 
#    y 0.000000 2.355090 0.000000 
#    z 0.000000 0.000000 2.172510 
# 
# From -- ./inp_files/1963.got.cif
#   From: 2010.05.17/outbox.cif.g08.bks.cpg/sg56_1_cif.got.tgz:1963.got - 2010.06.03 13:42:01.
