data_PCOD9433084
_publ_section_title
;
Structure prediction by ZEFSAII (Michael W. Deem and Ramdas Pophale) SiO2 
 PCOD9433084
Probable space group: P C C N
;
_chemical_formula_sum "Si O2"
_cell_formula_units_Z 40
_cell_length_a 19.427663
_cell_length_b 9.257002
_cell_length_c 8.867047
_cell_angle_alpha 90.000000
_cell_angle_beta 90.000000
_cell_angle_gamma 90.000000
_cell_volume 1594.666715
_symmetry_space_group_name_H-M "P C C N"
_symmetry_group_IT_number 56
_symmetry_cell_setting 'orthorhombic'
loop_
_space_group_symop_operation_xyz
x,y,z
1/2-x,1/2-y,z
1/2+x,-y,1/2-z
-x,1/2+y,1/2-z
-x,-y,-z
1/2+x,1/2+y,-z
1/2-x,y,1/2+z
x,1/2-y,1/2+z
loop_
_atom_site_type_symbol
_atom_site_label
_atom_site_fract_x
_atom_site_fract_y
_atom_site_fract_z
Si Si1 0.569732 0.679600 0.309437
Si Si2 0.469006 0.786625 0.544932
Si Si3 0.694572 0.615910 0.751624
Si Si4 0.256389 0.909729 0.480157
Si Si5 0.381741 0.611670 0.769055
O O1 0.525402 0.687888 0.460547
O O2 0.514194 0.648897 0.178827
O O3 0.618368 0.816940 0.276872
O O4 0.619632 0.545120 0.303477
O O5 0.406946 0.713460 0.635428
O O6 0.436025 0.873729 0.407263
O O7 0.750000 0.750000 0.731691
O O8 0.699276 0.504001 0.611147
O O9 0.712583 0.522799 0.900032
O O10 0.250000 0.750000 0.551985
O O11 0.309928 0.869509 0.348109
#
# Coordination Sequence:
#
# PCOD9433084 Si02
#       5
#     8   8   8   8   8
#     4  11  23  46  75 109 146 192 256 314 378 458
#     4  10  25  44  71 112 146 196 247 317 391 454
#     4  12  27  48  78 110 150 201 258 315 375 454
#     4  12  29  49  75 111 154 205 253 314 385 457
#     4  11  24  46  72 105 153 194 252 311 384 456
#
# _framework density 25.08361
#
# number of rings (size 3 to 8) (size 9 to 14) (size 15 to 20)
#    0.000    0.800    2.000    3.600    8.400    1.600 
#    7.200    0.000    0.000    0.000    0.000    0.000 
#    0.000    0.000    0.000    0.000    0.000    0.000 
#
# Total GULP energy -223579.661497 kJ/mol
# GULP energy per Si atom -5589.491537 kJ/mol
# Density = 2.502652 g / cm^3
# Si number density = 25.083610 Si / 1000 Ang^3
#
#
#
# Elastic Constant Matrix: (Units=GPa)
#
#
# Indices 1 2 3 4 5 6 
#
# 1 91.8810 24.4449 29.3322 0.0000 0.0000 0.0000
# 2 24.4449 113.5712 27.2167 0.0000 0.0000 0.0000
# 3 29.3322 27.2167 123.4412 0.0000 0.0000 0.0000
# 4 0.0000 0.0000 0.0000 169.2299 0.0000 0.0000
# 5 0.0000 0.0000 0.0000 0.0000 51.7051 0.0000
# 6 0.0000 0.0000 0.0000 0.0000 0.0000 -103.0575
#
#
#
# Elastic Compliance Matrix: (Units=1/GPa)
#
#
# Indices 1 2 3 4 5 6 
#
# 1 0.012209 -0.002040 -0.002451 0.000000 0.000000 0.000000
# 2 -0.002040 0.009637 -0.001640 0.000000 0.000000 0.000000
# 3 -0.002451 -0.001640 0.009045 0.000000 0.000000 0.000000
# 4 0.000000 0.000000 0.000000 0.005909 0.000000 0.000000
# 5 0.000000 0.000000 0.000000 0.000000 0.019340 0.000000
# 6 0.000000 0.000000 0.000000 0.000000 0.000000 -0.009703
#
#
# Mechanical properties :
#
#
# Convention : Reuss Voigt Hill
#
# Bulk Modulus (GPa) = 53.68257 54.54233 54.11245
# Shear Modulus (GPa) = 77.02940 40.10215 58.56577
#
# Velocity S-wave (km/s) = 5.54759 4.00276 4.83724
# Velocity P-wave (km/s) = 7.90457 6.56919 7.26761
#
# Compressibility (1/GPa) = 0.01862802
#
# Stress axis : x y z
#
# Youngs Moduli (GPa) = 81.90657 103.76412 110.55725
#
# Poissons Ratio (x) = 0.21172 0.27100
# Poissons Ratio (y) = 0.16712 0.18131
# Poissons Ratio (z) = 0.20077 0.17017
#
# Static dielectric constant tensor:
#      x y z
#    x 2.023720 0.000000 0.000000 
#    y 0.000000 1.976260 0.000000 
#    z 0.000000 0.000000 1.956690 
# 
# From -- ./inp_files/4681.got.cif
#   From: 2010.05.17/outbox.cif.g08.bks.cpg/sg56_3_cif.got.tgz:4681.got - 2010.06.03 13:42:01.
