data_PCOD9433499
_publ_section_title
;
Structure prediction by ZEFSAII (Michael W. Deem and Ramdas Pophale) SiO2 
 PCOD9433499
Probable space group: P C C N
;
_chemical_formula_sum "Si O2"
_cell_formula_units_Z 40
_cell_length_a 8.900213
_cell_length_b 24.017892
_cell_length_c 7.483485
_cell_angle_alpha 90.000000
_cell_angle_beta 90.000000
_cell_angle_gamma 90.000000
_cell_volume 1599.702341
_symmetry_space_group_name_H-M "P C C N"
_symmetry_group_IT_number 56
_symmetry_cell_setting 'orthorhombic'
loop_
_space_group_symop_operation_xyz
x,y,z
1/2-x,1/2-y,z
1/2+x,-y,1/2-z
-x,1/2+y,1/2-z
-x,-y,-z
1/2+x,1/2+y,-z
1/2-x,y,1/2+z
x,1/2-y,1/2+z
loop_
_atom_site_type_symbol
_atom_site_label
_atom_site_fract_x
_atom_site_fract_y
_atom_site_fract_z
Si Si1 0.539848 0.794128 0.354634
Si Si2 0.419283 0.594168 0.754278
Si Si3 0.129859 0.181505 0.748777
Si Si4 0.109687 0.060056 0.586118
Si Si5 0.365116 0.533327 0.120158
O O1 0.426613 0.839250 0.277337
O O2 0.569153 0.815746 0.552697
O O3 0.695271 0.801962 0.247943
O O4 0.528219 0.727177 0.356074
O O5 0.540547 0.575045 0.606616
O O6 0.436373 0.558807 0.938868
O O7 0.256708 0.578578 0.681966
O O8 0.135614 0.120142 0.671390
O O9 0.985318 0.032875 0.718444
O O10 0.255969 0.020136 0.581662
#
# Coordination Sequence:
#
# PCOD9433499 Si02
#       5
#     8   8   8   8   8
#     4  11  23  44  80 115 159 198 275 334 402 482
#     4  12  26  50  76 115 157 210 268 329 399 478
#     4  11  23  46  77 120 152 211 262 338 406 473
#     4  12  28  51  79 115 168 211 272 335 399 490
#     4  12  29  49  77 115 162 217 266 327 407 480
#
# _framework density 25.004650000000002
#
# number of rings (size 3 to 8) (size 9 to 14) (size 15 to 20)
#    0.000    0.400    4.000    5.400    2.800    4.000 
#    0.000    1.000    0.000    0.000    0.000    0.000 
#    0.000    0.000    0.000    0.000    0.000    0.000 
#
# Total GULP energy -223999.621665 kJ/mol
# GULP energy per Si atom -5599.990542 kJ/mol
# Density = 2.494774 g / cm^3
# Si number density = 25.004650 Si / 1000 Ang^3
#
#
#
# Elastic Constant Matrix: (Units=GPa)
#
#
# Indices 1 2 3 4 5 6 
#
# 1 101.4118 43.6245 32.7947 0.0000 0.0000 0.0000
# 2 43.6245 186.4383 19.7824 0.0000 0.0000 0.0000
# 3 32.7947 19.7824 118.1529 0.0000 0.0000 0.0000
# 4 0.0000 0.0000 0.0000 45.4673 0.0000 0.0000
# 5 0.0000 0.0000 0.0000 0.0000 42.5021 0.0000
# 6 0.0000 0.0000 0.0000 0.0000 0.0000 48.0443
#
#
#
# Elastic Compliance Matrix: (Units=1/GPa)
#
#
# Indices 1 2 3 4 5 6 
#
# 1 0.011853 -0.002468 -0.002877 0.000000 0.000000 0.000000
# 2 -0.002468 0.005975 -0.000315 0.000000 0.000000 0.000000
# 3 -0.002877 -0.000315 0.009315 0.000000 0.000000 0.000000
# 4 0.000000 0.000000 0.000000 0.021994 0.000000 0.000000
# 5 0.000000 0.000000 0.000000 0.000000 0.023528 0.000000
# 6 0.000000 0.000000 0.000000 0.000000 0.000000 0.020814
#
#
# Mechanical properties :
#
#
# Convention : Reuss Voigt Hill
#
# Bulk Modulus (GPa) = 63.20262 66.48959 64.84611
# Shear Modulus (GPa) = 45.42452 47.85616 46.64034
#
# Velocity S-wave (km/s) = 4.26683 4.37955 4.32356
# Velocity P-wave (km/s) = 7.04313 7.22652 7.13541
#
# Compressibility (1/GPa) = 0.01582213
#
# Stress axis : x y z
#
# Youngs Moduli (GPa) = 84.36844 167.37286 107.35564
#
# Poissons Ratio (x) = 0.41311 0.30882
# Poissons Ratio (y) = 0.20824 0.03385
# Poissons Ratio (z) = 0.24270 0.05277
#
# Static dielectric constant tensor:
#      x y z
#    x 1.952640 0.000000 0.000000 
#    y 0.000000 2.131570 0.000000 
#    z 0.000000 0.000000 2.008980 
# 
# From -- ./inp_files/2040.got.cif
#   From: 2010.05.17/outbox.cif.g08.bks.cpg/sg56_2_cif.got.tgz:2040.got - 2010.06.03 13:42:01.
