data_PCOD9433423
_publ_section_title
;
Structure prediction by ZEFSAII (Michael W. Deem and Ramdas Pophale) SiO2 
 PCOD9433423
Probable space group: P C C N
;
_chemical_formula_sum "Si O2"
_cell_formula_units_Z 60
_cell_length_a 20.239000
_cell_length_b 13.255134
_cell_length_c 11.730926
_cell_angle_alpha 90.000000
_cell_angle_beta 90.000000
_cell_angle_gamma 90.000000
_cell_volume 3147.063226
_symmetry_space_group_name_H-M "P C C N"
_symmetry_group_IT_number 56
_symmetry_cell_setting 'orthorhombic'
loop_
_space_group_symop_operation_xyz
x,y,z
1/2-x,1/2-y,z
1/2+x,-y,1/2-z
-x,1/2+y,1/2-z
-x,-y,-z
1/2+x,1/2+y,-z
1/2-x,y,1/2+z
x,1/2-y,1/2+z
loop_
_atom_site_type_symbol
_atom_site_label
_atom_site_fract_x
_atom_site_fract_y
_atom_site_fract_z
Si Si1 0.750000 0.750000 0.996160
Si Si2 0.638019 0.912405 0.770475
Si Si3 0.001350 0.123447 0.595287
Si Si4 0.524415 0.923048 0.162801
Si Si5 0.890302 0.512289 0.510521
Si Si6 0.773547 0.949506 0.856662
Si Si7 0.492496 0.637724 0.900421
Si Si8 0.156823 0.190510 0.307625
O O1 0.688929 0.782193 0.073546
O O2 0.769688 0.847489 0.928787
O O3 0.572879 0.907000 0.850071
O O4 0.626220 0.947512 0.638875
O O5 0.697903 0.976609 0.826636
O O6 0.661421 0.794730 0.762694
O O7 0.995665 0.102010 0.460688
O O8 0.990728 0.242027 0.609115
O O9 0.954637 0.040785 0.656677
O O10 0.480937 0.907021 0.274313
O O11 0.582257 0.843010 0.180172
O O12 0.826024 0.489009 0.432739
O O13 0.936753 0.413882 0.521834
O O14 0.936683 0.596459 0.447462
O O15 0.806211 0.907354 0.741341
#
# Coordination Sequence:
#
# PCOD9433423 Si02
#       8
#     4   8   8   8   8   8   8   8
#     4  12  20  32  52  84 120 164 196 240 318 376
#     4  12  20  34  58  86 129 159 198 255 312 375
#     4  11  24  39  59  92 125 165 206 259 316 368
#     4  11  23  38  59  90 124 164 206 255 320 368
#     4  11  23  38  58  91 124 168 214 250 318 379
#     4  12  21  33  51  86 122 160 198 245 310 375
#     4  11  23  40  64  85 128 171 212 264 308 383
#     4  12  20  32  52  84 122 158 194 244 306 376
#
# _framework density 19.065394000000001
#
# number of rings (size 3 to 8) (size 9 to 14) (size 15 to 20)
#    0.000    0.533    8.000    1.600    0.000    0.000 
#    0.000    0.000    0.000    0.000    0.000   20.533 
#    0.000    0.000    0.000    0.000    0.000    0.000 
#
# Total GULP energy -334432.868086 kJ/mol
# GULP energy per Si atom -5573.881135 kJ/mol
# Density = 1.902200 g / cm^3
# Si number density = 19.065394 Si / 1000 Ang^3
#
#
#
# Elastic Constant Matrix: (Units=GPa)
#
#
# Indices 1 2 3 4 5 6 
#
# 1 56.4903 14.8752 13.1450 0.0000 0.0000 0.0000
# 2 14.8752 90.5264 25.1701 0.0000 0.0000 0.0000
# 3 13.1450 25.1701 87.1424 0.0000 0.0000 0.0000
# 4 0.0000 0.0000 0.0000 35.2345 0.0000 0.0000
# 5 0.0000 0.0000 0.0000 0.0000 28.5228 0.0000
# 6 0.0000 0.0000 0.0000 0.0000 0.0000 24.1123
#
#
#
# Elastic Compliance Matrix: (Units=1/GPa)
#
#
# Indices 1 2 3 4 5 6 
#
# 1 0.018856 -0.002509 -0.002120 0.000000 0.000000 0.000000
# 2 -0.002509 0.012345 -0.003187 0.000000 0.000000 0.000000
# 3 -0.002120 -0.003187 0.012716 0.000000 0.000000 0.000000
# 4 0.000000 0.000000 0.000000 0.028381 0.000000 0.000000
# 5 0.000000 0.000000 0.000000 0.000000 0.035060 0.000000
# 6 0.000000 0.000000 0.000000 0.000000 0.000000 0.041473
#
#
# Mechanical properties :
#
#
# Convention : Reuss Voigt Hill
#
# Bulk Modulus (GPa) = 35.35443 37.83774 36.59609
# Shear Modulus (GPa) = 28.75374 29.63853 29.19613
#
# Velocity S-wave (km/s) = 3.88772 3.94708 3.91752
# Velocity P-wave (km/s) = 6.22387 6.37668 6.30074
#
# Compressibility (1/GPa) = 0.02828500
#
# Stress axis : x y z
#
# Youngs Moduli (GPa) = 53.03332 81.00468 78.64235
#
# Poissons Ratio (x) = 0.20325 0.16669
# Poissons Ratio (y) = 0.13306 0.25065
# Poissons Ratio (z) = 0.11241 0.25818
#
# Static dielectric constant tensor:
#      x y z
#    x 1.747730 0.000000 0.000000 
#    y 0.000000 1.663220 0.000000 
#    z 0.000000 0.000000 1.728620 
# 
# From -- ./inp_files/8682.got.cif
#   From: 2010.05.17/outbox.cif.g08.bks.cpg/sg56_5_cif.got.tgz:8682.got - 2010.06.03 13:42:01.
