data_PCOD9433594
_publ_section_title
;
Structure prediction by ZEFSAII (Michael W. Deem and Ramdas Pophale) SiO2 
 PCOD9433594
Probable space group: P C C N
;
_chemical_formula_sum "Si O2"
_cell_formula_units_Z 56
_cell_length_a 13.312274
_cell_length_b 19.657293
_cell_length_c 9.220630
_cell_angle_alpha 90.000000
_cell_angle_beta 90.000000
_cell_angle_gamma 90.000000
_cell_volume 2412.884615
_symmetry_space_group_name_H-M "P C C N"
_symmetry_group_IT_number 56
_symmetry_cell_setting 'orthorhombic'
loop_
_space_group_symop_operation_xyz
x,y,z
1/2-x,1/2-y,z
1/2+x,-y,1/2-z
-x,1/2+y,1/2-z
-x,-y,-z
1/2+x,1/2+y,-z
1/2-x,y,1/2+z
x,1/2-y,1/2+z
loop_
_atom_site_type_symbol
_atom_site_label
_atom_site_fract_x
_atom_site_fract_y
_atom_site_fract_z
Si Si1 0.134652 0.769000 0.768048
Si Si2 0.665987 0.799254 0.581476
Si Si3 0.986702 0.199108 0.507798
Si Si4 0.436989 0.435752 0.363309
Si Si5 0.208561 0.977203 0.523424
Si Si6 0.247693 0.117610 0.686861
Si Si7 0.867457 0.080320 0.197723
O O1 0.250000 0.750000 0.781287
O O2 0.117142 0.841610 0.847085
O O3 0.060227 0.713584 0.836438
O O4 0.101823 0.782830 0.604342
O O5 0.750000 0.750000 0.648305
O O6 0.574017 0.753110 0.531012
O O7 0.658507 0.854870 0.709792
O O8 0.716144 0.832637 0.440058
O O9 0.023548 0.122904 0.472949
O O10 0.391354 0.504511 0.431251
O O11 0.342984 0.398820 0.287249
O O12 0.524379 0.448991 0.245415
O O13 0.222893 0.047199 0.609457
O O14 0.301179 0.958915 0.420003
O O15 0.193088 0.922200 0.649384
#
# Coordination Sequence:
#
# PCOD9433594 Si02
#       7
#     8   8   8   8   8   8   8
#     4  11  27  49  73 103 139 184 246 300 355 421
#     4  12  23  37  68 101 149 184 225 288 362 427
#     4  11  25  44  72 107 142 184 235 295 367 426
#     4  11  24  46  70 107 143 183 245 290 356 433
#     4  12  24  49  70 101 144 193 235 298 351 419
#     4  12  23  42  66 104 150 181 233 290 356 431
#     4  11  27  46  74  99 142 188 246 292 353 427
#
# _framework density 23.208735999999998
#
# number of rings (size 3 to 8) (size 9 to 14) (size 15 to 20)
#    0.000    0.571    4.286    3.000   10.000    0.571 
#    0.000    1.429    0.000    0.000    0.000    0.000 
#    0.000    0.000    0.000    0.000    0.000    0.000 
#
# Total GULP energy -313269.837306 kJ/mol
# GULP energy per Si atom -5594.104238 kJ/mol
# Density = 2.315591 g / cm^3
# Si number density = 23.208736 Si / 1000 Ang^3
#
#
#
# Elastic Constant Matrix: (Units=GPa)
#
#
# Indices 1 2 3 4 5 6 
#
# 1 91.3378 24.5517 5.7251 0.0000 0.0000 0.0000
# 2 24.5517 64.0486 23.0158 0.0000 0.0000 0.0000
# 3 5.7251 23.0158 64.6550 0.0000 0.0000 0.0000
# 4 0.0000 0.0000 0.0000 54.1889 0.0000 0.0000
# 5 0.0000 0.0000 0.0000 0.0000 24.9056 0.0000
# 6 0.0000 0.0000 0.0000 0.0000 0.0000 48.8773
#
#
#
# Elastic Compliance Matrix: (Units=1/GPa)
#
#
# Indices 1 2 3 4 5 6 
#
# 1 0.012231 -0.004930 0.000672 0.000000 0.000000 0.000000
# 2 -0.004930 0.019891 -0.006644 0.000000 0.000000 0.000000
# 3 0.000672 -0.006644 0.017772 0.000000 0.000000 0.000000
# 4 0.000000 0.000000 0.000000 0.018454 0.000000 0.000000
# 5 0.000000 0.000000 0.000000 0.000000 0.040152 0.000000
# 6 0.000000 0.000000 0.000000 0.000000 0.000000 0.020459
#
#
# Mechanical properties :
#
#
# Convention : Reuss Voigt Hill
#
# Bulk Modulus (GPa) = 35.60002 36.29185 35.94594
# Shear Modulus (GPa) = 31.22520 36.71096 33.96808
#
# Velocity S-wave (km/s) = 3.67196 3.98147 3.82984
# Velocity P-wave (km/s) = 5.77495 6.06689 5.92272
#
# Compressibility (1/GPa) = 0.02808987
#
# Stress axis : x y z
#
# Youngs Moduli (GPa) = 81.75632 50.27517 56.26722
#
# Poissons Ratio (x) = 0.24786 -0.03781
# Poissons Ratio (y) = 0.40307 0.37384
# Poissons Ratio (z) = -0.05494 0.33403
#
# Static dielectric constant tensor:
#      x y z
#    x 1.885970 0.000000 0.000000 
#    y 0.000000 1.948500 0.000000 
#    z 0.000000 0.000000 1.892170 
# 
# From -- ./inp_files/3554.got.cif
#   From: 2010.05.17/outbox.cif.g08.bks.cpg/sg56_2_cif.got.tgz:3554.got - 2010.06.03 13:42:01.
