data_PCOD9433156
_publ_section_title
;
Structure prediction by ZEFSAII (Michael W. Deem and Ramdas Pophale) SiO2 
 PCOD9433156
Probable space group: P C C N
;
_chemical_formula_sum "Si O2"
_cell_formula_units_Z 24
_cell_length_a 7.176029
_cell_length_b 13.115107
_cell_length_c 9.225834
_cell_angle_alpha 90.000000
_cell_angle_beta 90.000000
_cell_angle_gamma 90.000000
_cell_volume 868.283722
_symmetry_space_group_name_H-M "P C C N"
_symmetry_group_IT_number 56
_symmetry_cell_setting 'orthorhombic'
loop_
_space_group_symop_operation_xyz
x,y,z
1/2-x,1/2-y,z
1/2+x,-y,1/2-z
-x,1/2+y,1/2-z
-x,-y,-z
1/2+x,1/2+y,-z
1/2-x,y,1/2+z
x,1/2-y,1/2+z
loop_
_atom_site_type_symbol
_atom_site_label
_atom_site_fract_x
_atom_site_fract_y
_atom_site_fract_z
Si Si1 0.658118 0.945689 0.294968
Si Si2 0.118635 0.636664 0.524633
Si Si3 0.449692 0.342679 0.498249
O O1 0.478090 0.915115 0.388438
O O2 0.619132 0.916041 0.130533
O O3 0.827035 0.879653 0.365429
O O4 0.661943 0.063941 0.339214
O O5 0.329690 0.654703 0.472292
O O6 0.964077 0.725005 0.558229
#
# Coordination Sequence:
#
# PCOD9433156 Si02
#       3
#     8   8   8
#     4  11  26  48  78 115 153 206 260 325 398 468
#     4  10  26  47  73 114 154 204 255 322 395 474
#     4  11  26  50  79 110 157 201 263 326 397 468
#
# _framework density 27.640737000000001
#
# number of rings (size 3 to 8) (size 9 to 14) (size 15 to 20)
#    0.000    1.333    0.000    2.000    9.333   13.333 
#    6.000    0.000    0.000    8.000    0.000    0.000 
#    0.000    0.000    0.000    0.000    0.000    0.000 
#
# Total GULP energy -134104.579544 kJ/mol
# GULP energy per Si atom -5587.690814 kJ/mol
# Density = 2.757783 g / cm^3
# Si number density = 27.640737 Si / 1000 Ang^3
#
#
#
# Elastic Constant Matrix: (Units=GPa)
#
#
# Indices 1 2 3 4 5 6 
#
# 1 174.4976 19.1288 52.3439 0.0000 0.0000 0.0000
# 2 19.1288 83.1401 10.5218 0.0000 0.0000 0.0000
# 3 52.3439 10.5218 120.7394 0.0000 0.0000 0.0000
# 4 0.0000 0.0000 0.0000 4.8050 0.0000 0.0000
# 5 0.0000 0.0000 0.0000 0.0000 56.7731 0.0000
# 6 0.0000 0.0000 0.0000 0.0000 0.0000 40.7415
#
#
#
# Elastic Compliance Matrix: (Units=1/GPa)
#
#
# Indices 1 2 3 4 5 6 
#
# 1 0.006701 -0.001187 -0.002802 0.000000 0.000000 0.000000
# 2 -0.001187 0.012372 -0.000563 0.000000 0.000000 0.000000
# 3 -0.002802 -0.000563 0.009546 0.000000 0.000000 0.000000
# 4 0.000000 0.000000 0.000000 0.208116 0.000000 0.000000
# 5 0.000000 0.000000 0.000000 0.000000 0.017614 0.000000
# 6 0.000000 0.000000 0.000000 0.000000 0.000000 0.024545
#
#
# Mechanical properties :
#
#
# Convention : Reuss Voigt Hill
#
# Bulk Modulus (GPa) = 51.24327 60.26291 55.75309
# Shear Modulus (GPa) = 16.97764 40.22275 28.60019
#
# Velocity S-wave (km/s) = 2.48105 3.81884 3.22018
# Velocity P-wave (km/s) = 5.17559 6.42606 5.83443
#
# Compressibility (1/GPa) = 0.01951476
#
# Stress axis : x y z
#
# Youngs Moduli (GPa) = 149.22416 80.82533 104.75545
#
# Poissons Ratio (x) = 0.09596 0.29350
# Poissons Ratio (y) = 0.17717 0.05903
# Poissons Ratio (z) = 0.41809 0.04554
#
# Static dielectric constant tensor:
#      x y z
#    x 2.229210 0.000000 0.000000 
#    y 0.000000 3.033990 0.000000 
#    z 0.000000 0.000000 2.002410 
# 
# From -- ./inp_files/1790.got.cif
#   From: 2010.05.17/outbox.cif.g08.bks.cpg/sg56_1_cif.got.tgz:1790.got - 2010.06.03 13:42:01.
