data_PCOD9433208
_publ_section_title
;
Structure prediction by ZEFSAII (Michael W. Deem and Ramdas Pophale) SiO2 
 PCOD9433208
Probable space group: P C C N
;
_chemical_formula_sum "Si O2"
_cell_formula_units_Z 32
_cell_length_a 6.388478
_cell_length_b 11.927757
_cell_length_c 17.954137
_cell_angle_alpha 90.000000
_cell_angle_beta 90.000000
_cell_angle_gamma 90.000000
_cell_volume 1368.109067
_symmetry_space_group_name_H-M "P C C N"
_symmetry_group_IT_number 56
_symmetry_cell_setting 'orthorhombic'
loop_
_space_group_symop_operation_xyz
x,y,z
1/2-x,1/2-y,z
1/2+x,-y,1/2-z
-x,1/2+y,1/2-z
-x,-y,-z
1/2+x,1/2+y,-z
1/2-x,y,1/2+z
x,1/2-y,1/2+z
loop_
_atom_site_type_symbol
_atom_site_label
_atom_site_fract_x
_atom_site_fract_y
_atom_site_fract_z
Si Si1 0.327027 0.469836 0.362419
Si Si2 0.250000 0.250000 0.670258
Si Si3 0.380544 0.863502 0.243152
Si Si4 0.750000 0.750000 0.576015
Si Si5 0.560851 0.164215 0.048563
O O1 0.233782 0.552502 0.299945
O O2 0.549520 0.424992 0.332057
O O3 0.188909 0.358478 0.375860
O O4 0.346708 0.540689 0.438582
O O5 0.401434 0.173816 0.718997
O O6 0.397805 0.321521 0.616190
O O7 0.250000 0.750000 0.231637
O O8 0.563562 0.703549 0.524249
O O9 0.750000 0.250000 0.060301
#
# Coordination Sequence:
#
# PCOD9433208 Si02
#       5
#     8   4   8   4   8
#     4  12  25  48  71 109 146 193 243 307 370 433
#     4  11  19  46  72 104 141 183 248 296 372 443
#     4  12  26  46  77 108 149 192 243 313 374 442
#     4  11  29  44  72 106 147 193 254 292 364 447
#     4  11  23  49  72 101 141 194 245 302 366 436
#
# _framework density 23.389948
#
# number of rings (size 3 to 8) (size 9 to 14) (size 15 to 20)
#    0.000    0.500    5.000    3.000    3.500    2.000 
#    4.500    0.000    0.000    0.000    0.000    0.000 
#    0.000    0.000    0.000    0.000    0.000    0.000 
#
# Total GULP energy -179104.591058 kJ/mol
# GULP energy per Si atom -5597.018471 kJ/mol
# Density = 2.333671 g / cm^3
# Si number density = 23.389948 Si / 1000 Ang^3
#
#
#
# Elastic Constant Matrix: (Units=GPa)
#
#
# Indices 1 2 3 4 5 6 
#
# 1 95.4539 54.2802 24.7548 0.0000 0.0000 0.0000
# 2 54.2802 212.3675 54.8788 0.0000 0.0000 0.0000
# 3 24.7548 54.8788 80.0244 0.0000 0.0000 0.0000
# 4 0.0000 0.0000 0.0000 32.2737 0.0000 0.0000
# 5 0.0000 0.0000 0.0000 0.0000 33.0181 0.0000
# 6 0.0000 0.0000 0.0000 0.0000 0.0000 38.7891
#
#
#
# Elastic Compliance Matrix: (Units=1/GPa)
#
#
# Indices 1 2 3 4 5 6 
#
# 1 0.012526 -0.002674 -0.002041 0.000000 0.000000 0.000000
# 2 -0.002674 0.006294 -0.003489 0.000000 0.000000 0.000000
# 3 -0.002041 -0.003489 0.015520 0.000000 0.000000 0.000000
# 4 0.000000 0.000000 0.000000 0.030985 0.000000 0.000000
# 5 0.000000 0.000000 0.000000 0.000000 0.030286 0.000000
# 6 0.000000 0.000000 0.000000 0.000000 0.000000 0.025780
#
#
# Mechanical properties :
#
#
# Convention : Reuss Voigt Hill
#
# Bulk Modulus (GPa) = 55.76608 72.85259 64.30934
# Shear Modulus (GPa) = 34.77586 37.74500 36.26043
#
# Velocity S-wave (km/s) = 3.86007 4.02148 3.94160
# Velocity P-wave (km/s) = 6.61517 7.26482 6.94760
#
# Compressibility (1/GPa) = 0.01793205
#
# Stress axis : x y z
#
# Youngs Moduli (GPa) = 79.83220 158.88282 64.43220
#
# Poissons Ratio (x) = 0.42489 0.13150
# Poissons Ratio (y) = 0.21349 0.22480
# Poissons Ratio (z) = 0.16293 0.55434
#
# Static dielectric constant tensor:
#      x y z
#    x 1.861490 0.000000 0.000000 
#    y 0.000000 1.930540 0.000000 
#    z 0.000000 0.000000 1.921480 
# 
# From -- ./inp_files/17279.got.cif
#   From: 2010.05.17/outbox.cif.g08.bks.cpg/sg56_9_cif.got.tgz:17279.got - 2010.06.03 13:42:01.
