data_PCOD9433792
_publ_section_title
;
Structure prediction by ZEFSAII (Michael W. Deem and Ramdas Pophale) SiO2 
 PCOD9433792
Probable space group: P C C N
;
_chemical_formula_sum "Si O2"
_cell_formula_units_Z 36
_cell_length_a 6.805520
_cell_length_b 24.109724
_cell_length_c 10.179365
_cell_angle_alpha 90.000000
_cell_angle_beta 90.000000
_cell_angle_gamma 90.000000
_cell_volume 1670.222156
_symmetry_space_group_name_H-M "P C C N"
_symmetry_group_IT_number 56
_symmetry_cell_setting 'orthorhombic'
loop_
_space_group_symop_operation_xyz
x,y,z
1/2-x,1/2-y,z
1/2+x,-y,1/2-z
-x,1/2+y,1/2-z
-x,-y,-z
1/2+x,1/2+y,-z
1/2-x,y,1/2+z
x,1/2-y,1/2+z
loop_
_atom_site_type_symbol
_atom_site_label
_atom_site_fract_x
_atom_site_fract_y
_atom_site_fract_z
Si Si1 0.039156 0.565112 0.005514
Si Si2 0.750000 0.750000 0.204753
Si Si3 0.310647 0.889123 0.734377
Si Si4 0.835387 0.639997 0.556634
Si Si5 0.399194 0.708885 0.862278
O O1 0.161334 0.580404 0.136247
O O2 0.834549 0.599289 0.008296
O O3 0.160384 0.583470 0.876677
O O4 0.000000 0.500000 0.000000
O O5 0.759978 0.694866 0.119016
O O6 0.558933 0.751847 0.294871
O O7 0.522883 0.887156 0.664927
O O8 0.224725 0.827533 0.759191
O O9 0.980286 0.664395 0.446299
O O10 0.250000 0.750000 0.937372
#
# Coordination Sequence:
#
# PCOD9433792 Si02
#       5
#     8   4   8   8   8
#     4  12  31  52  81 109 152 208 265 328 390 453
#     4  12  24  42  72 106 156 200 250 312 386 470
#     4  12  27  51  75 113 154 197 257 322 380 471
#     4  12  27  45  74 112 156 195 261 313 387 461
#     4  12  26  43  71 114 154 205 245 312 395 467
#
# _framework density 21.554020000000001
#
# number of rings (size 3 to 8) (size 9 to 14) (size 15 to 20)
#    0.000    0.000    6.667    2.000    9.333    0.889 
#    0.000    0.000    0.000    0.000    0.000    0.000 
#    0.000    0.000    0.000    0.000    0.000    0.000 
#
# Total GULP energy -201498.715403 kJ/mol
# GULP energy per Si atom -5597.186539 kJ/mol
# Density = 2.150496 g / cm^3
# Si number density = 21.554020 Si / 1000 Ang^3
#
#
#
# Elastic Constant Matrix: (Units=GPa)
#
#
# Indices 1 2 3 4 5 6 
#
# 1 137.8936 73.3460 65.7026 0.0000 0.0000 0.0000
# 2 73.3460 131.5380 37.6014 0.0000 0.0000 0.0000
# 3 65.7026 37.6014 98.1583 0.0000 0.0000 0.0000
# 4 0.0000 0.0000 0.0000 18.1150 0.0000 0.0000
# 5 0.0000 0.0000 0.0000 0.0000 41.0768 0.0000
# 6 0.0000 0.0000 0.0000 0.0000 0.0000 36.9964
#
#
#
# Elastic Compliance Matrix: (Units=1/GPa)
#
#
# Indices 1 2 3 4 5 6 
#
# 1 0.013495 -0.005551 -0.006907 0.000000 0.000000 0.000000
# 2 -0.005551 0.010820 -0.000430 0.000000 0.000000 0.000000
# 3 -0.006907 -0.000430 0.014975 0.000000 0.000000 0.000000
# 4 0.000000 0.000000 0.000000 0.055203 0.000000 0.000000
# 5 0.000000 0.000000 0.000000 0.000000 0.024345 0.000000
# 6 0.000000 0.000000 0.000000 0.000000 0.000000 0.027030
#
#
# Mechanical properties :
#
#
# Convention : Reuss Voigt Hill
#
# Bulk Modulus (GPa) = 73.98236 80.09890 77.04063
# Shear Modulus (GPa) = 28.38528 31.96697 30.17613
#
# Velocity S-wave (km/s) = 3.63290 3.85529 3.74575
# Velocity P-wave (km/s) = 7.21082 7.55383 7.38432
#
# Compressibility (1/GPa) = 0.01351674
#
# Stress axis : x y z
#
# Youngs Moduli (GPa) = 74.09985 92.41969 66.77659
#
# Poissons Ratio (x) = 0.51299 0.46122
# Poissons Ratio (y) = 0.41130 0.02868
# Poissons Ratio (z) = 0.51180 0.03970
#
# Static dielectric constant tensor:
#      x y z
#    x -2.023150 0.000000 0.000000 
#    y 0.000000 1.758790 0.000000 
#    z 0.000000 0.000000 1.830180 
# 
# From -- ./inp_files/5553.got.cif
#   From: 2010.05.17/outbox.cif.g08.bks.cpg/sg56_3_cif.got.tgz:5553.got - 2010.06.03 13:42:01.
