data_PCOD9433288
_publ_section_title
;
Structure prediction by ZEFSAII (Michael W. Deem and Ramdas Pophale) SiO2 
 PCOD9433288
Probable space group: P C C N
;
_chemical_formula_sum "Si O2"
_cell_formula_units_Z 60
_cell_length_a 5.601688
_cell_length_b 18.102899
_cell_length_c 28.290133
_cell_angle_alpha 90.000000
_cell_angle_beta 90.000000
_cell_angle_gamma 90.000000
_cell_volume 2868.811635
_symmetry_space_group_name_H-M "P C C N"
_symmetry_group_IT_number 56
_symmetry_cell_setting 'orthorhombic'
loop_
_space_group_symop_operation_xyz
x,y,z
1/2-x,1/2-y,z
1/2+x,-y,1/2-z
-x,1/2+y,1/2-z
-x,-y,-z
1/2+x,1/2+y,-z
1/2-x,y,1/2+z
x,1/2-y,1/2+z
loop_
_atom_site_type_symbol
_atom_site_label
_atom_site_fract_x
_atom_site_fract_y
_atom_site_fract_z
Si Si1 0.399086 0.101483 0.774275
Si Si2 0.224786 0.381166 0.463080
Si Si3 0.274127 0.839138 0.984343
Si Si4 0.457607 0.699727 0.108927
Si Si5 0.796442 0.051938 0.360551
Si Si6 0.165526 0.967447 0.411398
Si Si7 0.103359 0.969268 0.807942
Si Si8 0.250000 0.250000 0.306437
O O1 0.517654 0.091934 0.825839
O O2 0.568100 0.096386 0.728904
O O3 0.268863 0.178366 0.775063
O O4 0.220189 0.032882 0.775864
O O5 0.478993 0.360830 0.487490
O O6 0.224333 0.465051 0.442630
O O7 0.979423 0.365512 0.492391
O O8 0.192277 0.323592 0.420052
O O9 0.250000 0.750000 0.976924
O O10 0.304999 0.890385 0.937857
O O11 0.250000 0.750000 0.085915
O O12 0.351218 0.618775 0.118297
O O13 0.530016 0.736969 0.158009
O O14 0.646939 0.999793 0.326448
O O15 0.902915 0.000885 0.401671
O O16 0.260099 0.958946 0.357494
#
# Coordination Sequence:
#
# PCOD9433288 Si02
#       8
#     8   8   8   8   8   8   8   4
#     4  11  22  39  64  99 135 179 232 283 354 416
#     4  12  26  46  72 107 139 183 237 298 362 439
#     4  12  29  49  73 102 145 188 236 305 360 421
#     4  12  24  38  66 104 148 179 218 291 375 438
#     4  11  21  41  66  95 135 183 226 284 342 425
#     4  11  26  45  71 101 132 190 243 288 354 421
#     4  11  22  40  68  95 133 183 237 284 336 427
#     4  12  24  36  62 104 144 176 218 292 368 430
#
# _framework density 20.914584999999999
#
# number of rings (size 3 to 8) (size 9 to 14) (size 15 to 20)
#    0.000    0.533    5.333    3.200    5.600    0.000 
#    0.000    1.333    0.000    0.000    0.000    0.000 
#    0.000    0.000    0.000    0.000    0.000    0.000 
#
# Total GULP energy -334718.143542 kJ/mol
# GULP energy per Si atom -5578.635726 kJ/mol
# Density = 2.086698 g / cm^3
# Si number density = 20.914585 Si / 1000 Ang^3
#
#
#
# Elastic Constant Matrix: (Units=GPa)
#
#
# Indices 1 2 3 4 5 6 
#
# 1 85.4348 26.0588 34.2845 0.0000 0.0000 0.0000
# 2 26.0588 98.4724 69.0904 0.0000 0.0000 0.0000
# 3 34.2845 69.0904 100.1452 0.0000 0.0000 0.0000
# 4 0.0000 0.0000 0.0000 48.7263 0.0000 0.0000
# 5 0.0000 0.0000 0.0000 0.0000 25.5114 0.0000
# 6 0.0000 0.0000 0.0000 0.0000 0.0000 28.4742
#
#
#
# Elastic Compliance Matrix: (Units=1/GPa)
#
#
# Indices 1 2 3 4 5 6 
#
# 1 0.013590 -0.000644 -0.004209 0.000000 0.000000 0.000000
# 2 -0.000644 0.019713 -0.013380 0.000000 0.000000 0.000000
# 3 -0.004209 -0.013380 0.020657 0.000000 0.000000 0.000000
# 4 0.000000 0.000000 0.000000 0.020523 0.000000 0.000000
# 5 0.000000 0.000000 0.000000 0.000000 0.039198 0.000000
# 6 0.000000 0.000000 0.000000 0.000000 0.000000 0.035119
#
#
# Mechanical properties :
#
#
# Convention : Reuss Voigt Hill
#
# Bulk Modulus (GPa) = 57.15469 60.32443 58.73956
# Shear Modulus (GPa) = 26.16488 30.85030 28.50759
#
# Velocity S-wave (km/s) = 3.54083 3.84482 3.69595
# Velocity P-wave (km/s) = 6.64106 6.97252 6.80881
#
# Compressibility (1/GPa) = 0.01749638
#
# Stress axis : x y z
#
# Youngs Moduli (GPa) = 73.58359 50.72826 48.40986
#
# Poissons Ratio (x) = 0.03264 0.20374
# Poissons Ratio (y) = 0.04735 0.64771
# Poissons Ratio (z) = 0.30968 0.67873
#
# Static dielectric constant tensor:
#      x y z
#    x 1.877020 0.000000 0.000000 
#    y 0.000000 1.734920 0.000000 
#    z 0.000000 0.000000 1.784600 
# 
# From -- ./inp_files/21809.got.cif
#   From: 2010.05.17/outbox.cif.g08.bks.cpg/sg56_11_cif.got.tgz:21809.got - 2010.06.03 13:42:01.
