data_PCOD9433947
_publ_section_title
;
Structure prediction by ZEFSAII (Michael W. Deem and Ramdas Pophale) SiO2 
 PCOD9433947
Probable space group: P C C N
;
_chemical_formula_sum "Si O2"
_cell_formula_units_Z 56
_cell_length_a 6.000000
_cell_length_b 30.000000
_cell_length_c 15.000000
_cell_angle_alpha 90.000000
_cell_angle_beta 90.000000
_cell_angle_gamma 90.000000
_cell_volume 2700.000000
_symmetry_space_group_name_H-M "P C C N"
_symmetry_group_IT_number 56
_symmetry_cell_setting 'orthorhombic'
loop_
_space_group_symop_operation_xyz
x,y,z
1/2-x,1/2-y,z
1/2+x,-y,1/2-z
-x,1/2+y,1/2-z
-x,-y,-z
1/2+x,1/2+y,-z
1/2-x,y,1/2+z
x,1/2-y,1/2+z
loop_
_atom_site_type_symbol
_atom_site_label
_atom_site_fract_x
_atom_site_fract_y
_atom_site_fract_z
Si Si1 0.758685 0.445747 0.495304
Si Si2 0.564988 0.874169 0.912826
Si Si3 0.063315 0.494313 0.643740
Si Si4 0.902780 0.870882 0.071646
Si Si5 0.696800 0.925423 0.736054
Si Si6 0.500086 0.772551 0.646065
Si Si7 0.496467 0.727322 0.362218
O O1 0.568066 0.415164 0.539554
O O2 0.737044 0.484102 0.417888
O O3 0.889062 0.472448 0.573694
O O4 0.907849 0.407373 0.448649
O O5 0.607417 0.892786 0.813430
O O6 0.478135 0.823242 0.900901
O O7 0.774417 0.867443 0.978276
O O8 0.120716 0.454953 0.712313
O O9 0.965870 0.535682 0.699567
O O10 0.754257 0.893939 0.150532
O O11 0.987874 0.822536 0.104622
O O12 0.750000 0.750000 0.622572
O O13 0.500758 0.774542 0.754061
O O14 0.250000 0.750000 0.622869
O O15 0.250000 0.750000 0.385333
O O16 0.750000 0.750000 0.385821
#
# Coordination Sequence:
#
# PCOD9433947 Si02
#       7
#     8   8   8   8   8   8   8
#     4  10  24  43  65 100 141 181 239 305 345 442
#     4  12  25  44  71 104 139 189 237 295 370 430
#     4  10  22  43  65  99 140 184 241 292 363 429
#     4  11  25  45  66 107 141 179 249 294 360 438
#     4  11  23  43  69 100 138 190 231 293 364 429
#     4  10  23  47  74 105 145 190 237 298 365 439
#     4  10  24  47  75 107 144 191 241 295 365 445
#
# _framework density 20.740741
#
# number of rings (size 3 to 8) (size 9 to 14) (size 15 to 20)
#    0.000    1.429    2.857    0.857    6.000    1.143 
#    2.571    0.000    0.000    0.000    0.000    0.000 
#    0.000    0.000    0.000    0.000    0.000    0.000 
#
# Total GULP energy -311910.595764 kJ/mol
# GULP energy per Si atom -5569.832067 kJ/mol
# Density = 2.069353 g / cm^3
# Si number density = 20.740741 Si / 1000 Ang^3
#
#
#
# Elastic Constant Matrix: (Units=GPa)
#
#
# Indices 1 2 3 4 5 6 
#
# 1 65.5237 31.2789 -1.9401 0.0000 0.0000 0.0000
# 2 31.2789 140.7657 11.9357 0.0000 0.0000 0.0000
# 3 -1.9401 11.9357 60.8004 0.0000 0.0000 0.0000
# 4 0.0000 0.0000 0.0000 34.2112 0.0000 0.0000
# 5 0.0000 0.0000 0.0000 0.0000 22.1712 0.0000
# 6 0.0000 0.0000 0.0000 0.0000 0.0000 44.6699
#
#
#
# Elastic Compliance Matrix: (Units=1/GPa)
#
#
# Indices 1 2 3 4 5 6 
#
# 1 0.017176 -0.003928 0.001319 0.000000 0.000000 0.000000
# 2 -0.003928 0.008123 -0.001720 0.000000 0.000000 0.000000
# 3 0.001319 -0.001720 0.016827 0.000000 0.000000 0.000000
# 4 0.000000 0.000000 0.000000 0.029230 0.000000 0.000000
# 5 0.000000 0.000000 0.000000 0.000000 0.045104 0.000000
# 6 0.000000 0.000000 0.000000 0.000000 0.000000 0.022386
#
#
# Mechanical properties :
#
#
# Convention : Reuss Voigt Hill
#
# Bulk Modulus (GPa) = 29.87969 38.84875 34.36422
# Shear Modulus (GPa) = 31.51392 35.26482 33.38937
#
# Velocity S-wave (km/s) = 3.90220 4.12790 4.01664
# Velocity P-wave (km/s) = 5.89411 6.44133 6.17378
#
# Compressibility (1/GPa) = 0.03346755
#
# Stress axis : x y z
#
# Youngs Moduli (GPa) = 58.22066 123.11083 59.42830
#
# Poissons Ratio (x) = 0.48364 -0.07840
# Poissons Ratio (y) = 0.22872 0.10221
# Poissons Ratio (z) = -0.07681 0.21174
#
# Static dielectric constant tensor:
#      x y z
#    x 1.830260 0.000000 0.000000 
#    y 0.000000 1.730150 0.000000 
#    z 0.000000 0.000000 1.766190 
# 
# From -- ./inp_files/9838.got.cif
#   From: 2010.05.17/outbox.ucp.g08.bks.cvg/sg56_5_cif.got.tgz:9838.got - 2010.06.11 16:37:52.
