data_PCOD9433380
_publ_section_title
;
Structure prediction by ZEFSAII (Michael W. Deem and Ramdas Pophale) SiO2 
 PCOD9433380
Probable space group: P C C N
;
_chemical_formula_sum "Si O2"
_cell_formula_units_Z 40
_cell_length_a 11.278011
_cell_length_b 5.382359
_cell_length_c 25.910673
_cell_angle_alpha 90.000000
_cell_angle_beta 90.000000
_cell_angle_gamma 90.000000
_cell_volume 1572.837549
_symmetry_space_group_name_H-M "P C C N"
_symmetry_group_IT_number 56
_symmetry_cell_setting 'orthorhombic'
loop_
_space_group_symop_operation_xyz
x,y,z
1/2-x,1/2-y,z
1/2+x,-y,1/2-z
-x,1/2+y,1/2-z
-x,-y,-z
1/2+x,1/2+y,-z
1/2-x,y,1/2+z
x,1/2-y,1/2+z
loop_
_atom_site_type_symbol
_atom_site_label
_atom_site_fract_x
_atom_site_fract_y
_atom_site_fract_z
Si Si1 0.926406 0.554723 0.916174
Si Si2 0.114267 0.287459 0.474498
Si Si3 0.873932 0.381434 0.604863
Si Si4 0.078790 0.042052 0.245079
Si Si5 0.250000 0.250000 0.157964
Si Si6 0.750000 0.750000 0.674834
O O1 0.812967 0.544793 0.879195
O O2 0.009265 0.341510 0.941360
O O3 0.018041 0.709787 0.881114
O O4 0.884794 0.700417 0.967390
O O5 0.250000 0.250000 0.455371
O O6 0.101244 0.570061 0.456452
O O7 0.750000 0.250000 0.607496
O O8 0.851767 0.616343 0.641095
O O9 0.155166 0.109176 0.194152
O O10 0.179461 0.056064 0.289586
O O11 0.988586 0.276670 0.254645
#
# Coordination Sequence:
#
# PCOD9433380 Si02
#       6
#     8   8   8   8   4   4
#     4  11  24  44  70 103 154 188 256 310 376 458
#     4  11  22  43  67 106 147 198 248 309 376 454
#     4  12  23  41  71 103 143 197 247 303 378 460
#     4  11  28  52  78 107 155 194 251 323 388 458
#     4  11  26  47  76 112 146 205 254 319 402 464
#     4  11  26  41  72 106 134 189 250 297 380 448
#
# _framework density 25.431742
#
# number of rings (size 3 to 8) (size 9 to 14) (size 15 to 20)
#    0.000    0.800    4.000    1.800    8.400    2.400 
#    3.600    0.000    0.000    0.000    0.000    0.000 
#    0.000    0.000    0.000    0.000    0.000    0.000 
#
# Total GULP energy -223278.722311 kJ/mol
# GULP energy per Si atom -5581.968058 kJ/mol
# Density = 2.537386 g / cm^3
# Si number density = 25.431742 Si / 1000 Ang^3
#
#
#
# Elastic Constant Matrix: (Units=GPa)
#
#
# Indices 1 2 3 4 5 6 
#
# 1 124.9305 29.0303 53.0161 0.0000 0.0000 0.0000
# 2 29.0303 47.7760 16.7407 0.0000 0.0000 0.0000
# 3 53.0161 16.7407 140.9060 0.0000 0.0000 0.0000
# 4 0.0000 0.0000 0.0000 -31.1418 0.0000 0.0000
# 5 0.0000 0.0000 0.0000 0.0000 259.5422 0.0000
# 6 0.0000 0.0000 0.0000 0.0000 0.0000 27.7969
#
#
#
# Elastic Compliance Matrix: (Units=1/GPa)
#
#
# Indices 1 2 3 4 5 6 
#
# 1 0.010673 -0.005299 -0.003386 0.000000 0.000000 0.000000
# 2 -0.005299 0.024471 -0.000914 0.000000 0.000000 0.000000
# 3 -0.003386 -0.000914 0.008480 0.000000 0.000000 0.000000
# 4 0.000000 0.000000 0.000000 -0.032111 0.000000 0.000000
# 5 0.000000 0.000000 0.000000 0.000000 0.003853 0.000000
# 6 0.000000 0.000000 0.000000 0.000000 0.000000 0.035975
#
#
# Mechanical properties :
#
#
# Convention : Reuss Voigt Hill
#
# Bulk Modulus (GPa) = 40.93970 56.79853 48.86911
# Shear Modulus (GPa) = 63.54963 65.56116 64.55539
#
# Velocity S-wave (km/s) = 5.00425 5.08284 5.04370
# Velocity P-wave (km/s) = 7.03725 7.53851 7.29219
#
# Compressibility (1/GPa) = 0.02442617
#
# Stress axis : x y z
#
# Youngs Moduli (GPa) = 93.69770 40.86508 117.93141
#
# Poissons Ratio (x) = 0.21653 0.39933
# Poissons Ratio (y) = 0.49646 0.10776
# Poissons Ratio (z) = 0.31727 0.03734
#
# Static dielectric constant tensor:
#      x y z
#    x 2.352910 0.000000 0.000000 
#    y 0.000000 2.124650 0.000000 
#    z 0.000000 0.000000 2.047320 
# 
# From -- ./inp_files/22226.got.cif
#   From: 2010.05.17/outbox.cif.g08.bks.cpg/sg56_12_cif.got.tgz:22226.got - 2010.06.03 13:42:01.
