data_PCOD9433358
_publ_section_title
;
Structure prediction by ZEFSAII (Michael W. Deem and Ramdas Pophale) SiO2 
 PCOD9433358
Probable space group: P C C N
;
_chemical_formula_sum "Si O2"
_cell_formula_units_Z 60
_cell_length_a 6.484303
_cell_length_b 26.083709
_cell_length_c 17.690729
_cell_angle_alpha 90.000000
_cell_angle_beta 90.000000
_cell_angle_gamma 90.000000
_cell_volume 2992.115656
_symmetry_space_group_name_H-M "P C C N"
_symmetry_group_IT_number 56
_symmetry_cell_setting 'orthorhombic'
loop_
_space_group_symop_operation_xyz
x,y,z
1/2-x,1/2-y,z
1/2+x,-y,1/2-z
-x,1/2+y,1/2-z
-x,-y,-z
1/2+x,1/2+y,-z
1/2-x,y,1/2+z
x,1/2-y,1/2+z
loop_
_atom_site_type_symbol
_atom_site_label
_atom_site_fract_x
_atom_site_fract_y
_atom_site_fract_z
Si Si1 0.184793 0.459980 0.001955
Si Si2 0.119506 0.801235 0.405599
Si Si3 0.839808 0.655012 0.206470
Si Si4 0.344611 0.610828 0.808900
Si Si5 0.575666 0.097568 0.337284
Si Si6 0.750000 0.750000 0.809897
Si Si7 0.988608 0.011136 0.117655
Si Si8 0.923947 0.135612 0.443370
O O1 0.309399 0.462565 0.080549
O O2 0.354229 0.479872 0.943204
O O3 0.081246 0.407350 0.975382
O O4 0.000000 0.500000 0.000000
O O5 0.250000 0.750000 0.410194
O O6 0.254304 0.844519 0.361950
O O7 0.912336 0.782525 0.361299
O O8 0.090433 0.823923 0.489253
O O9 0.631512 0.630603 0.172378
O O10 0.839205 0.708084 0.251877
O O11 0.984282 0.659169 0.133192
O O12 0.929613 0.617936 0.271844
O O13 0.204944 0.612819 0.735417
O O14 0.348953 0.556268 0.849597
O O15 0.707606 0.110229 0.413765
O O16 0.549395 0.036174 0.329422
#
# Coordination Sequence:
#
# PCOD9433358 Si02
#       8
#     8   8   8   8   8   4   8   8
#     4  11  22  41  63  99 142 186 223 279 341 406
#     4  12  27  49  71 103 137 178 238 298 357 419
#     4  11  25  47  71 100 138 184 233 293 354 424
#     4  11  26  43  69 103 140 184 232 293 344 419
#     4  11  24  45  66 103 144 185 229 285 348 424
#     4  12  26  48  76  98 134 186 234 294 370 420
#     4  11  25  39  68 102 143 187 231 279 342 419
#     4  11  26  44  72 103 142 181 238 287 349 422
#
# _framework density 20.052700999999999
#
# number of rings (size 3 to 8) (size 9 to 14) (size 15 to 20)
#    0.000    0.800    5.333    0.800    5.600    3.733 
#    0.000    0.000    0.000    0.000    0.000    0.000 
#    0.000    0.000    0.000    0.000    0.000    0.000 
#
# Total GULP energy -334556.224861 kJ/mol
# GULP energy per Si atom -5575.937081 kJ/mol
# Density = 2.000706 g / cm^3
# Si number density = 20.052701 Si / 1000 Ang^3
#
#
#
# Elastic Constant Matrix: (Units=GPa)
#
#
# Indices 1 2 3 4 5 6 
#
# 1 80.9791 15.9291 26.7235 0.0000 0.0000 0.0000
# 2 15.9291 88.3291 47.6120 0.0000 0.0000 0.0000
# 3 26.7235 47.6120 92.2191 0.0000 0.0000 0.0000
# 4 0.0000 0.0000 0.0000 31.2221 0.0000 0.0000
# 5 0.0000 0.0000 0.0000 0.0000 26.8505 0.0000
# 6 0.0000 0.0000 0.0000 0.0000 0.0000 32.7985
#
#
#
# Elastic Compliance Matrix: (Units=1/GPa)
#
#
# Indices 1 2 3 4 5 6 
#
# 1 0.013668 -0.000457 -0.003725 0.000000 0.000000 0.000000
# 2 -0.000457 0.015702 -0.007974 0.000000 0.000000 0.000000
# 3 -0.003725 -0.007974 0.016040 0.000000 0.000000 0.000000
# 4 0.000000 0.000000 0.000000 0.032029 0.000000 0.000000
# 5 0.000000 0.000000 0.000000 0.000000 0.037243 0.000000
# 6 0.000000 0.000000 0.000000 0.000000 0.000000 0.030489
#
#
# Mechanical properties :
#
#
# Convention : Reuss Voigt Hill
#
# Bulk Modulus (GPa) = 47.39829 49.11739 48.25784
# Shear Modulus (GPa) = 28.32594 29.59175 28.95885
#
# Velocity S-wave (km/s) = 3.76250 3.84565 3.80430
# Velocity P-wave (km/s) = 6.52406 6.65327 6.58898
#
# Compressibility (1/GPa) = 0.02109781
#
# Stress axis : x y z
#
# Youngs Moduli (GPa) = 73.16379 63.68526 62.34307
#
# Poissons Ratio (x) = 0.02911 0.23221
# Poissons Ratio (y) = 0.03344 0.49715
# Poissons Ratio (z) = 0.27252 0.50786
#
# Static dielectric constant tensor:
#      x y z
#    x 1.809120 0.000000 0.000000 
#    y 0.000000 1.656840 0.000000 
#    z 0.000000 0.000000 1.675810 
# 
# From -- ./inp_files/14095.got.cif
#   From: 2010.05.17/outbox.cif.g08.bks.cpg/sg56_8_cif.got.tgz:14095.got - 2010.06.03 13:42:01.
