data_PCOD9433244
_publ_section_title
;
Structure prediction by ZEFSAII (Michael W. Deem and Ramdas Pophale) SiO2 
 PCOD9433244
Probable space group: P C C N
;
_chemical_formula_sum "Si O2"
_cell_formula_units_Z 48
_cell_length_a 11.109587
_cell_length_b 8.486782
_cell_length_c 24.838797
_cell_angle_alpha 90.000000
_cell_angle_beta 90.000000
_cell_angle_gamma 90.000000
_cell_volume 2341.917107
_symmetry_space_group_name_H-M "P C C N"
_symmetry_group_IT_number 56
_symmetry_cell_setting 'orthorhombic'
loop_
_space_group_symop_operation_xyz
x,y,z
1/2-x,1/2-y,z
1/2+x,-y,1/2-z
-x,1/2+y,1/2-z
-x,-y,-z
1/2+x,1/2+y,-z
1/2-x,y,1/2+z
x,1/2-y,1/2+z
loop_
_atom_site_type_symbol
_atom_site_label
_atom_site_fract_x
_atom_site_fract_y
_atom_site_fract_z
Si Si1 0.021401 0.402172 0.178733
Si Si2 0.392202 0.744815 0.410017
Si Si3 0.456852 0.556177 0.116746
Si Si4 0.891181 0.197029 0.467939
Si Si5 0.703673 0.902840 0.910867
Si Si6 0.397803 0.743225 0.720339
O O1 0.135562 0.346605 0.143254
O O2 0.060219 0.569170 0.202826
O O3 0.923557 0.395107 0.131249
O O4 0.964739 0.293402 0.224900
O O5 0.250000 0.750000 0.411318
O O6 0.434129 0.714890 0.471039
O O7 0.451821 0.910000 0.390095
O O8 0.469052 0.691745 0.071293
O O9 0.322581 0.493455 0.106518
O O10 0.448559 0.638715 0.174642
O O11 0.750000 0.250000 0.467570
O O12 0.879453 0.022535 0.443713
O O13 0.750000 0.750000 0.942366
O O14 0.250000 0.750000 0.723424
#
# Coordination Sequence:
#
# PCOD9433244 Si02
#       6
#     8   8   8   8   8   8
#     4  12  25  42  67  99 130 175 221 279 343 391
#     4  11  24  43  63  99 142 176 220 276 344 402
#     4  11  20  43  71  96 129 181 224 276 335 404
#     4   9  20  40  68  98 135 174 221 280 338 402
#     4  11  21  41  68 103 127 169 234 276 330 407
#     4  12  25  46  70  97 136 172 228 280 335 406
#
# _framework density 20.496027999999999
#
# number of rings (size 3 to 8) (size 9 to 14) (size 15 to 20)
#    0.000    1.000    5.000    2.500    0.000    0.667 
#    0.000    2.500    0.000    0.000    0.000    0.000 
#    0.000    0.000    0.000    0.000    0.000    0.000 
#
# Total GULP energy -267682.565417 kJ/mol
# GULP energy per Si atom -5576.720113 kJ/mol
# Density = 2.044938 g / cm^3
# Si number density = 20.496028 Si / 1000 Ang^3
#
#
#
# Elastic Constant Matrix: (Units=GPa)
#
#
# Indices 1 2 3 4 5 6 
#
# 1 95.3876 46.1877 35.3075 0.0000 0.0000 0.0000
# 2 46.1877 127.6728 57.2362 0.0000 0.0000 0.0000
# 3 35.3075 57.2362 127.0919 0.0000 0.0000 0.0000
# 4 0.0000 0.0000 0.0000 15.6796 0.0000 0.0000
# 5 0.0000 0.0000 0.0000 0.0000 27.6448 0.0000
# 6 0.0000 0.0000 0.0000 0.0000 0.0000 31.3352
#
#
#
# Elastic Compliance Matrix: (Units=1/GPa)
#
#
# Indices 1 2 3 4 5 6 
#
# 1 0.013059 -0.003882 -0.001880 0.000000 0.000000 0.000000
# 2 -0.003882 0.010968 -0.003861 0.000000 0.000000 0.000000
# 3 -0.001880 -0.003861 0.010129 0.000000 0.000000 0.000000
# 4 0.000000 0.000000 0.000000 0.063777 0.000000 0.000000
# 5 0.000000 0.000000 0.000000 0.000000 0.036173 0.000000
# 6 0.000000 0.000000 0.000000 0.000000 0.000000 0.031913
#
#
# Mechanical properties :
#
#
# Convention : Reuss Voigt Hill
#
# Bulk Modulus (GPa) = 67.06381 69.73503 68.39942
# Shear Modulus (GPa) = 26.28340 29.02664 27.65502
#
# Velocity S-wave (km/s) = 3.58490 3.76734 3.67725
# Velocity P-wave (km/s) = 7.06589 7.28157 7.17454
#
# Compressibility (1/GPa) = 0.01491117
#
# Stress axis : x y z
#
# Youngs Moduli (GPa) = 76.57653 91.17756 98.72296
#
# Poissons Ratio (x) = 0.35391 0.18558
# Poissons Ratio (y) = 0.29723 0.38117
# Poissons Ratio (z) = 0.14395 0.35203
#
# Static dielectric constant tensor:
#      x y z
#    x 1.740770 0.000000 0.000000 
#    y 0.000000 1.789960 0.000000 
#    z 0.000000 0.000000 1.734460 
# 
# From -- ./inp_files/20899.got.cif
#   From: 2010.05.17/outbox.cif.g08.bks.cpg/sg56_11_cif.got.tgz:20899.got - 2010.06.03 13:42:01.
