data_PCOD9433050
_publ_section_title
;
Structure prediction by ZEFSAII (Michael W. Deem and Ramdas Pophale) SiO2 
 PCOD9433050
Probable space group: P C C N
;
_chemical_formula_sum "Si O2"
_cell_formula_units_Z 40
_cell_length_a 8.920616
_cell_length_b 8.281897
_cell_length_c 25.436956
_cell_angle_alpha 90.000000
_cell_angle_beta 90.000000
_cell_angle_gamma 90.000000
_cell_volume 1879.272717
_symmetry_space_group_name_H-M "P C C N"
_symmetry_group_IT_number 56
_symmetry_cell_setting 'orthorhombic'
loop_
_space_group_symop_operation_xyz
x,y,z
1/2-x,1/2-y,z
1/2+x,-y,1/2-z
-x,1/2+y,1/2-z
-x,-y,-z
1/2+x,1/2+y,-z
1/2-x,y,1/2+z
x,1/2-y,1/2+z
loop_
_atom_site_type_symbol
_atom_site_label
_atom_site_fract_x
_atom_site_fract_y
_atom_site_fract_z
Si Si1 0.391609 0.641506 0.707455
Si Si2 0.905783 0.796038 0.282828
Si Si3 0.088607 0.577446 0.083325
Si Si4 0.072258 0.752310 0.388950
Si Si5 0.935931 0.058074 0.944684
O O1 0.250000 0.750000 0.719473
O O2 0.374485 0.474296 0.736227
O O3 0.545132 0.706153 0.730735
O O4 0.392874 0.609005 0.645677
O O5 0.750000 0.750000 0.309594
O O6 0.031173 0.781379 0.327577
O O7 0.024336 0.750979 0.063564
O O8 0.254644 0.553499 0.059350
O O9 0.996902 0.408599 0.079897
O O10 0.250000 0.750000 0.397275
O O11 0.000845 0.578665 0.404897
O O12 0.000000 0.000000 0.000000
#
# Coordination Sequence:
#
# PCOD9433050 Si02
#       5
#     8   8   8   8   8
#     4  11  21  41  67  98 136 181 226 284 351 418
#     4  11  24  39  67  99 136 189 227 279 345 420
#     4  10  24  48  70 103 142 184 231 300 357 424
#     4  11  25  45  68 104 145 182 237 290 353 424
#     4  11  24  45  78 101 136 189 240 299 370 423
#
# _framework density 21.284829999999999
#
# number of rings (size 3 to 8) (size 9 to 14) (size 15 to 20)
#    0.000    1.200    2.000    4.800    5.600    3.200 
#    3.600    0.000    0.000    0.000    0.000    0.000 
#    0.000    0.000    0.000    0.000    0.000    0.000 
#
# Total GULP energy -223071.061339 kJ/mol
# GULP energy per Si atom -5576.776533 kJ/mol
# Density = 2.123638 g / cm^3
# Si number density = 21.284830 Si / 1000 Ang^3
#
#
#
# Elastic Constant Matrix: (Units=GPa)
#
#
# Indices 1 2 3 4 5 6 
#
# 1 112.7484 70.9282 35.6682 0.0000 0.0000 0.0000
# 2 70.9282 155.8777 14.2216 0.0000 0.0000 0.0000
# 3 35.6682 14.2216 51.2025 0.0000 0.0000 0.0000
# 4 0.0000 0.0000 0.0000 42.0300 0.0000 0.0000
# 5 0.0000 0.0000 0.0000 0.0000 32.3228 0.0000
# 6 0.0000 0.0000 0.0000 0.0000 0.0000 28.4430
#
#
#
# Elastic Compliance Matrix: (Units=1/GPa)
#
#
# Indices 1 2 3 4 5 6 
#
# 1 0.015775 -0.006336 -0.009229 0.000000 0.000000 0.000000
# 2 -0.006336 0.009127 0.001879 0.000000 0.000000 0.000000
# 3 -0.009229 0.001879 0.025438 0.000000 0.000000 0.000000
# 4 0.000000 0.000000 0.000000 0.023793 0.000000 0.000000
# 5 0.000000 0.000000 0.000000 0.000000 0.030938 0.000000
# 6 0.000000 0.000000 0.000000 0.000000 0.000000 0.035158
#
#
# Mechanical properties :
#
#
# Convention : Reuss Voigt Hill
#
# Bulk Modulus (GPa) = 43.54152 62.38494 52.96323
# Shear Modulus (GPa) = 28.52975 33.82655 31.17815
#
# Velocity S-wave (km/s) = 3.66509 3.99084 3.83143
# Velocity P-wave (km/s) = 6.19770 7.11400 6.67160
#
# Compressibility (1/GPa) = 0.02296658
#
# Stress axis : x y z
#
# Youngs Moduli (GPa) = 63.39252 109.56668 39.31194
#
# Poissons Ratio (x) = 0.69420 0.36281
# Poissons Ratio (y) = 0.40165 -0.07385
# Poissons Ratio (z) = 0.58505 -0.20584
#
# Static dielectric constant tensor:
#      x y z
#    x 1.753450 0.000000 0.000000 
#    y 0.000000 1.935250 0.000000 
#    z 0.000000 0.000000 1.771630 
# 
# From -- ./inp_files/21963.got.cif
#   From: 2010.05.17/outbox.cif.g08.bks.cpg/sg56_11_cif.got.tgz:21963.got - 2010.06.03 13:42:01.
