data_PCOD9433335
_publ_section_title
;
Structure prediction by ZEFSAII (Michael W. Deem and Ramdas Pophale) SiO2 
 PCOD9433335
Probable space group: P C C N
;
_chemical_formula_sum "Si O2"
_cell_formula_units_Z 36
_cell_length_a 4.743655
_cell_length_b 13.015632
_cell_length_c 23.997849
_cell_angle_alpha 90.000000
_cell_angle_beta 90.000000
_cell_angle_gamma 90.000000
_cell_volume 1481.667221
_symmetry_space_group_name_H-M "P C C N"
_symmetry_group_IT_number 56
_symmetry_cell_setting 'orthorhombic'
loop_
_space_group_symop_operation_xyz
x,y,z
1/2-x,1/2-y,z
1/2+x,-y,1/2-z
-x,1/2+y,1/2-z
-x,-y,-z
1/2+x,1/2+y,-z
1/2-x,y,1/2+z
x,1/2-y,1/2+z
loop_
_atom_site_type_symbol
_atom_site_label
_atom_site_fract_x
_atom_site_fract_y
_atom_site_fract_z
Si Si1 0.750000 0.750000 0.327325
Si Si2 0.457518 0.346181 0.948300
Si Si3 0.448348 0.958948 0.094211
Si Si4 0.990018 0.041419 0.715848
Si Si5 0.426196 0.347373 0.066121
O O1 0.895061 0.842338 0.293432
O O2 0.972892 0.691506 0.370095
O O3 0.250000 0.250000 0.935588
O O4 0.717454 0.368024 0.907205
O O5 0.227158 0.436026 0.940564
O O6 0.605728 0.356482 0.009674
O O7 0.548628 0.991287 0.155306
O O8 0.274416 0.055927 0.072075
O O9 0.208925 0.969679 0.748942
O O10 0.250000 0.250000 0.045758
#
# Coordination Sequence:
#
# PCOD9433335 Si02
#       5
#     4   8   8   8   8
#     4   8  20  44  68  92 122 168 214 264 314 382
#     4  11  22  39  60  96 132 167 200 250 319 383
#     4  11  22  41  63  92 128 163 211 262 314 368
#     4  11  24  46  67  94 123 168 220 269 315 367
#     4   8  18  38  66  91 124 164 210 253 309 386
#
# _framework density 24.296952000000001
#
# number of rings (size 3 to 8) (size 9 to 14) (size 15 to 20)
#    0.667    1.333    0.000    3.333    0.000    0.889 
#   12.000   10.000    0.000    0.000    0.000    0.000 
#    0.000    0.000    0.000    0.000    0.000    0.000 
#
# Total GULP energy -200540.359123 kJ/mol
# GULP energy per Si atom -5570.565531 kJ/mol
# Density = 2.424165 g / cm^3
# Si number density = 24.296952 Si / 1000 Ang^3
#
#
#
# Elastic Constant Matrix: (Units=GPa)
#
#
# Indices 1 2 3 4 5 6 
#
# 1 92.7697 28.9276 -0.6591 0.0000 0.0000 0.0000
# 2 28.9276 106.4448 27.0221 0.0000 0.0000 0.0000
# 3 -0.6591 27.0221 74.7232 0.0000 0.0000 0.0000
# 4 0.0000 0.0000 0.0000 26.7425 0.0000 0.0000
# 5 0.0000 0.0000 0.0000 0.0000 0.9480 0.0000
# 6 0.0000 0.0000 0.0000 0.0000 0.0000 31.6376
#
#
#
# Elastic Compliance Matrix: (Units=1/GPa)
#
#
# Indices 1 2 3 4 5 6 
#
# 1 0.011910 -0.003593 0.001404 0.000000 0.000000 0.000000
# 2 -0.003593 0.011428 -0.004164 0.000000 0.000000 0.000000
# 3 0.001404 -0.004164 0.014901 0.000000 0.000000 0.000000
# 4 0.000000 0.000000 0.000000 0.037394 0.000000 0.000000
# 5 0.000000 0.000000 0.000000 0.000000 1.054872 0.000000
# 6 0.000000 0.000000 0.000000 0.000000 0.000000 0.031608
#
#
# Mechanical properties :
#
#
# Convention : Reuss Voigt Hill
#
# Bulk Modulus (GPa) = 39.16541 42.72432 40.94486
# Shear Modulus (GPa) = 4.22536 26.44208 15.33372
#
# Velocity S-wave (km/s) = 1.32016 3.30250 2.51489
# Velocity P-wave (km/s) = 4.29863 5.67137 5.03203
#
# Compressibility (1/GPa) = 0.02553274
#
# Stress axis : x y z
#
# Youngs Moduli (GPa) = 83.96457 87.50274 67.10908
#
# Poissons Ratio (x) = 0.31441 -0.09425
# Poissons Ratio (y) = 0.30170 0.27947
# Poissons Ratio (z) = -0.11792 0.36440
#
# Static dielectric constant tensor:
#      x y z
#    x 2.214860 0.000000 0.000000 
#    y 0.000000 2.007700 0.000000 
#    z 0.000000 0.000000 1.968070 
# 
# From -- ./inp_files/19877.got.cif
#   From: 2010.05.17/outbox.cif.g08.bks.cpg/sg56_10_cif.got.tgz:19877.got - 2010.06.03 13:42:01.
