data_PCOD9433040
_publ_section_title
;
Structure prediction by ZEFSAII (Michael W. Deem and Ramdas Pophale) SiO2 
 PCOD9433040
Probable space group: P C C N
;
_chemical_formula_sum "Si O2"
_cell_formula_units_Z 48
_cell_length_a 20.530365
_cell_length_b 4.820662
_cell_length_c 18.669231
_cell_angle_alpha 90.000000
_cell_angle_beta 90.000000
_cell_angle_gamma 90.000000
_cell_volume 1847.692866
_symmetry_space_group_name_H-M "P C C N"
_symmetry_group_IT_number 56
_symmetry_cell_setting 'orthorhombic'
loop_
_space_group_symop_operation_xyz
x,y,z
1/2-x,1/2-y,z
1/2+x,-y,1/2-z
-x,1/2+y,1/2-z
-x,-y,-z
1/2+x,1/2+y,-z
1/2-x,y,1/2+z
x,1/2-y,1/2+z
loop_
_atom_site_type_symbol
_atom_site_label
_atom_site_fract_x
_atom_site_fract_y
_atom_site_fract_z
Si Si1 0.750000 0.250000 0.051512
Si Si2 0.121349 0.016306 0.507342
Si Si3 0.472300 0.855904 0.424725
Si Si4 0.453998 0.050096 0.273754
Si Si5 0.177149 0.176271 0.226947
Si Si6 0.606266 0.479564 0.900840
Si Si7 0.250000 0.250000 0.858050
O O1 0.720336 0.501535 0.097379
O O2 0.691880 0.103624 0.009982
O O3 0.068239 0.916695 0.447850
O O4 0.096562 0.830284 0.573352
O O5 0.130368 0.332236 0.531765
O O6 0.541158 0.849883 0.384072
O O7 0.500000 0.000000 0.500000
O O8 0.436177 0.006615 0.358776
O O9 0.507917 0.293457 0.263288
O O10 0.383661 0.116361 0.238130
O O11 0.250000 0.250000 0.199626
O O12 0.151857 0.971302 0.167158
O O13 0.196920 0.097481 0.307719
#
# Coordination Sequence:
#
# PCOD9433040 Si02
#       7
#     4   8   8   8   8   8   4
#     4  12  24  46  68 102 138 192 240 296 374 436
#     4  11  26  41  74 100 147 181 246 300 370 438
#     4  10  24  47  74 108 145 189 244 307 368 440
#     4  12  27  47  77 112 151 199 256 309 380 454
#     4  10  26  49  74 106 152 194 248 312 372 451
#     4  11  24  46  68 109 134 194 235 306 369 438
#     4  10  26  44  68  98 142 186 242 296 374 430
#
# _framework density 25.978342000000001
#
# number of rings (size 3 to 8) (size 9 to 14) (size 15 to 20)
#    0.500    0.667    1.667    2.500    7.000    8.000 
#    0.000    0.000    0.000    0.000    0.000    0.000 
#    0.000    0.000    0.000    0.000    0.000    0.000 
#
# Total GULP energy -267381.436727 kJ/mol
# GULP energy per Si atom -5570.446598 kJ/mol
# Density = 2.591921 g / cm^3
# Si number density = 25.978342 Si / 1000 Ang^3
#
#
#
# Elastic Constant Matrix: (Units=GPa)
#
#
# Indices 1 2 3 4 5 6 
#
# 1 130.2482 4.9251 19.0420 0.0000 0.0000 0.0000
# 2 4.9251 97.9027 17.5025 0.0000 0.0000 0.0000
# 3 19.0420 17.5025 89.7553 0.0000 0.0000 0.0000
# 4 0.0000 0.0000 0.0000 -13.2065 0.0000 0.0000
# 5 0.0000 0.0000 0.0000 0.0000 26.6003 0.0000
# 6 0.0000 0.0000 0.0000 0.0000 0.0000 27.6072
#
#
#
# Elastic Compliance Matrix: (Units=1/GPa)
#
#
# Indices 1 2 3 4 5 6 
#
# 1 0.007924 -0.000102 -0.001661 0.000000 0.000000 0.000000
# 2 -0.000102 0.010584 -0.002042 0.000000 0.000000 0.000000
# 3 -0.001661 -0.002042 0.011892 0.000000 0.000000 0.000000
# 4 0.000000 0.000000 0.000000 -0.075720 0.000000 0.000000
# 5 0.000000 0.000000 0.000000 0.000000 0.037594 0.000000
# 6 0.000000 0.000000 0.000000 0.000000 0.000000 0.036222
#
#
# Mechanical properties :
#
#
# Convention : Reuss Voigt Hill
#
# Bulk Modulus (GPa) = 43.87868 44.53839 44.20853
# Shear Modulus (GPa) = 114.40565 26.62932 70.51749
#
# Velocity S-wave (km/s) = 6.64338 3.20513 5.21571
# Velocity P-wave (km/s) = 8.70477 5.55687 7.30246
#
# Compressibility (1/GPa) = 0.02279011
#
# Stress axis : x y z
#
# Youngs Moduli (GPa) = 126.19284 94.47807 84.08913
#
# Poissons Ratio (x) = 0.00960 0.13970
# Poissons Ratio (y) = 0.01283 0.17175
# Poissons Ratio (z) = 0.20965 0.19296
#
# Static dielectric constant tensor:
#      x y z
#    x 2.194260 0.000000 0.000000 
#    y 0.000000 2.056990 0.000000 
#    z 0.000000 0.000000 2.167220 
# 
# From -- ./inp_files/19443.got.cif
#   From: 2010.05.17/outbox.cif.g08.bks.cpg/sg56_10_cif.got.tgz:19443.got - 2010.06.03 13:42:01.
