data_PCOD9433530
_publ_section_title
;
Structure prediction by ZEFSAII (Michael W. Deem and Ramdas Pophale) SiO2 
 PCOD9433530
Probable space group: P C C N
;
_chemical_formula_sum "Si O2"
_cell_formula_units_Z 24
_cell_length_a 8.933898
_cell_length_b 7.187707
_cell_length_c 16.954644
_cell_angle_alpha 90.000000
_cell_angle_beta 90.000000
_cell_angle_gamma 90.000000
_cell_volume 1088.729599
_symmetry_space_group_name_H-M "P C C N"
_symmetry_group_IT_number 56
_symmetry_cell_setting 'orthorhombic'
loop_
_space_group_symop_operation_xyz
x,y,z
1/2-x,1/2-y,z
1/2+x,-y,1/2-z
-x,1/2+y,1/2-z
-x,-y,-z
1/2+x,1/2+y,-z
1/2-x,y,1/2+z
x,1/2-y,1/2+z
loop_
_atom_site_type_symbol
_atom_site_label
_atom_site_fract_x
_atom_site_fract_y
_atom_site_fract_z
Si Si1 0.449653 0.905120 0.080276
Si Si2 0.110018 0.537403 0.637573
Si Si3 0.912965 0.313060 0.186022
O O1 0.464540 0.682256 0.076571
O O2 0.281540 0.965318 0.107545
O O3 0.553444 0.990259 0.147310
O O4 0.500000 0.000000 0.000000
O O5 0.094884 0.649410 0.720550
O O6 0.031935 0.340581 0.655291
O O7 0.750000 0.250000 0.159682
#
# Coordination Sequence:
#
# PCOD9433530 Si02
#       3
#     8   8   8
#     4  11  26  46  69 106 150 186 239 301 374 438
#     4  11  23  47  73 101 141 192 243 297 363 437
#     4  12  23  43  74 104 137 187 246 304 356 438
#
# _framework density 22.044041
#
# number of rings (size 3 to 8) (size 9 to 14) (size 15 to 20)
#    0.000    0.667    6.667    1.000    4.667    2.667 
#    6.000    0.000    0.000    0.000    0.000    0.000 
#    0.000    0.000    0.000    0.000    0.000    0.000 
#
# Total GULP energy -133995.314043 kJ/mol
# GULP energy per Si atom -5583.138085 kJ/mol
# Density = 2.199387 g / cm^3
# Si number density = 22.044041 Si / 1000 Ang^3
#
#
#
# Elastic Constant Matrix: (Units=GPa)
#
#
# Indices 1 2 3 4 5 6 
#
# 1 63.4275 20.0243 17.3229 0.0000 0.0000 0.0000
# 2 20.0243 78.3360 12.5497 0.0000 0.0000 0.0000
# 3 17.3229 12.5497 99.1121 0.0000 0.0000 0.0000
# 4 0.0000 0.0000 0.0000 -3.1948 0.0000 0.0000
# 5 0.0000 0.0000 0.0000 0.0000 24.0153 0.0000
# 6 0.0000 0.0000 0.0000 0.0000 0.0000 42.1413
#
#
#
# Elastic Compliance Matrix: (Units=1/GPa)
#
#
# Indices 1 2 3 4 5 6 
#
# 1 0.017776 -0.004130 -0.002584 0.000000 0.000000 0.000000
# 2 -0.004130 0.013989 -0.001050 0.000000 0.000000 0.000000
# 3 -0.002584 -0.001050 0.010674 0.000000 0.000000 0.000000
# 4 0.000000 0.000000 0.000000 -0.313009 0.000000 0.000000
# 5 0.000000 0.000000 0.000000 0.000000 0.041640 0.000000
# 6 0.000000 0.000000 0.000000 0.000000 0.000000 0.023730
#
#
# Mechanical properties :
#
#
# Convention : Reuss Voigt Hill
#
# Bulk Modulus (GPa) = 37.15758 37.85217 37.50487
# Shear Modulus (GPa) = -27.66971 25.32427 -1.17272
#
# Velocity S-wave (km/s) = -3.54673 3.39308 -0.73017
# Velocity P-wave (km/s) = 0.34686 5.70606 4.04224
#
# Compressibility (1/GPa) = 0.02691241
#
# Stress axis : x y z
#
# Youngs Moduli (GPa) = 56.25712 71.48305 93.68476
#
# Poissons Ratio (x) = 0.29521 0.24207
# Poissons Ratio (y) = 0.23233 0.09832
# Poissons Ratio (z) = 0.14536 0.07502
#
# Static dielectric constant tensor:
#      x y z
#    x 1.572220 0.000000 0.000000 
#    y 0.000000 1.869770 0.000000 
#    z 0.000000 0.000000 1.919690 
# 
# From -- ./inp_files/9921.got.cif
#   From: 2010.05.17/outbox.cif.g08.bks.cpg/sg56_5_cif.got.tgz:9921.got - 2010.06.03 13:42:01.
