data_PCOD9433986
_publ_section_title
;
Structure prediction by ZEFSAII (Michael W. Deem and Ramdas Pophale) SiO2 
 PCOD9433986
Probable space group: P B C M
;
_chemical_formula_sum "Si O2"
_cell_formula_units_Z 64
_cell_length_a 22.096547
_cell_length_b 18.702675
_cell_length_c 8.615259
_cell_angle_alpha 90.000000
_cell_angle_beta 90.000000
_cell_angle_gamma 90.000000
_cell_volume 3560.381023
_symmetry_space_group_name_H-M "P B C M"
_symmetry_group_IT_number 57
_symmetry_cell_setting 'orthorhombic'
loop_
_space_group_symop_operation_xyz
x,y,z
-x,-y,1/2+z
x,1/2-y,-z
-x,1/2+y,1/2-z
-x,-y,-z
x,y,1/2-z
-x,1/2+y,z
x,1/2-y,1/2+z
loop_
_atom_site_type_symbol
_atom_site_label
_atom_site_fract_x
_atom_site_fract_y
_atom_site_fract_z
Si Si1 0.255194 0.669634 0.435482
Si Si2 0.632629 0.081811 0.935894
Si Si3 0.500908 0.419003 0.437053
Si Si4 0.747849 0.830487 0.063402
Si Si5 0.122212 0.831336 0.936209
Si Si6 0.873499 0.668419 0.064697
Si Si7 0.998090 0.668314 0.935020
Si Si8 0.630682 0.579245 0.937764
O O1 0.259361 0.750000 0.500000
O O2 0.257193 0.672898 0.250000
O O3 0.311125 0.624313 0.496143
O O4 0.188527 0.638592 0.477858
O O5 0.635522 0.084470 0.750000
O O6 0.566136 0.111542 0.986679
O O7 0.635381 0.999739 0.991341
O O8 0.500000 0.500000 0.500000
O O9 0.501974 0.420882 0.250000
O O10 0.435226 0.388428 0.483156
O O11 0.752122 0.828529 0.250000
O O12 0.810287 0.862906 0.996469
O O13 0.688325 0.874099 0.016464
O O14 0.742315 0.750000 0.000000
O O15 0.116034 0.829677 0.750000
O O16 0.124426 0.750000 0.000000
O O17 0.061490 0.864819 0.007874
O O18 0.003968 0.170775 0.750000
O O19 0.935929 0.635524 0.000761
O O20 0.872747 0.750000 0.000000
O O21 0.874566 0.829782 0.750000
O O22 0.998973 0.750000 0.000000
O O23 0.631563 0.572961 0.750000
#
# Coordination Sequence:
#
# PCOD9433986 Si02
#       8
#     8   8   8   8   8   8   8   8
#     4  10  20  33  49  69  98 131 162 196 239 286
#     4  10  19  31  51  75  98 123 158 199 238 283
#     4   8  15  29  48  70  93 120 154 195 237 278
#     4  10  19  31  47  68  95 127 158 194 238 285
#     4   9  16  26  40  60  86 118 153 190 231 275
#     4  10  17  26  40  59  87 120 153 191 231 276
#     4  10  16  23  37  58  85 116 151 190 229 273
#     4   9  18  33  52  71  95 125 159 197 239 284
#
# _framework density 17.975605000000002
#
# number of rings (size 3 to 8) (size 9 to 14) (size 15 to 20)
#    0.000    2.500    0.000    6.000    0.000    3.000 
#    0.000    0.625    0.000    1.500    0.000    0.875 
#    0.000    0.000    0.000    0.000    0.000    0.000 
#
# Total GULP energy -356372.455931 kJ/mol
# GULP energy per Si atom -5568.319624 kJ/mol
# Density = 1.793469 g / cm^3
# Si number density = 17.975605 Si / 1000 Ang^3
#
#
#
# Elastic Constant Matrix: (Units=GPa)
#
#
# Indices 1 2 3 4 5 6 
#
# 1 248.7375 44.9907 65.0388 0.0000 0.0000 0.0000
# 2 44.9907 19.2272 13.2663 0.0000 0.0000 0.0000
# 3 65.0388 13.2663 77.9902 0.0000 0.0000 0.0000
# 4 0.0000 0.0000 0.0000 15.9230 0.0000 0.0000
# 5 0.0000 0.0000 0.0000 0.0000 32.7826 0.0000
# 6 0.0000 0.0000 0.0000 0.0000 0.0000 177.4633
#
#
#
# Elastic Compliance Matrix: (Units=1/GPa)
#
#
# Indices 1 2 3 4 5 6 
#
# 1 0.007894 -0.015782 -0.003899 0.000000 0.000000 0.000000
# 2 -0.015782 0.090478 -0.002229 0.000000 0.000000 0.000000
# 3 -0.003899 -0.002229 0.016453 0.000000 0.000000 0.000000
# 4 0.000000 0.000000 0.000000 0.062802 0.000000 0.000000
# 5 0.000000 0.000000 0.000000 0.000000 0.030504 0.000000
# 6 0.000000 0.000000 0.000000 0.000000 0.000000 0.005635
#
#
# Mechanical properties :
#
#
# Convention : Reuss Voigt Hill
#
# Bulk Modulus (GPa) = 14.08364 65.83848 39.96106
# Shear Modulus (GPa) = 17.77751 60.07771 38.92761
#
# Velocity S-wave (km/s) = 3.14822 5.78743 4.65863
# Velocity P-wave (km/s) = 4.58987 9.02027 7.15654
#
# Compressibility (1/GPa) = 0.07100435
#
# Stress axis : x y z
#
# Youngs Moduli (GPa) = 126.67191 11.05247 60.78060
#
# Poissons Ratio (x) = 0.17443 0.23697
# Poissons Ratio (y) = 1.99919 0.13547
# Poissons Ratio (z) = 0.49387 0.02463
#
# Static dielectric constant tensor:
#      x y z
#    x 1.718650 0.000000 0.000000 
#    y 0.000000 1.573360 0.000000 
#    z 0.000000 0.000000 1.603530 
# 
# From -- ./inp_files/8689.got.cif
#   From: 2010.05.17/outbox.cif.g08.bks.cpg/sg57_5_cif.got.tgz:8689.got - 2010.06.03 13:58:18.
