data_PCOD9433619
_publ_section_title
;
Structure prediction by ZEFSAII (Michael W. Deem and Ramdas Pophale) SiO2 
 PCOD9433619
Probable space group: P C C N
;
_chemical_formula_sum "Si O2"
_cell_formula_units_Z 48
_cell_length_a 16.750265
_cell_length_b 8.546137
_cell_length_c 14.298419
_cell_angle_alpha 90.000000
_cell_angle_beta 90.000000
_cell_angle_gamma 90.000000
_cell_volume 2046.819530
_symmetry_space_group_name_H-M "P C C N"
_symmetry_group_IT_number 56
_symmetry_cell_setting 'orthorhombic'
loop_
_space_group_symop_operation_xyz
x,y,z
1/2-x,1/2-y,z
1/2+x,-y,1/2-z
-x,1/2+y,1/2-z
-x,-y,-z
1/2+x,1/2+y,-z
1/2-x,y,1/2+z
x,1/2-y,1/2+z
loop_
_atom_site_type_symbol
_atom_site_label
_atom_site_fract_x
_atom_site_fract_y
_atom_site_fract_z
Si Si1 0.066227 0.624927 0.960706
Si Si2 0.721062 0.076533 0.148750
Si Si3 0.501088 0.685319 0.113097
Si Si4 0.674998 0.867899 0.537271
Si Si5 0.493844 0.166342 0.696511
Si Si6 0.180299 0.125485 0.174807
O O1 0.154089 0.562644 0.933705
O O2 0.040535 0.708627 0.864814
O O3 0.000000 0.500000 0.000000
O O4 0.062902 0.767433 0.034787
O O5 0.750000 0.250000 0.165659
O O6 0.801205 0.991672 0.114955
O O7 0.688330 0.000740 0.243660
O O8 0.588265 0.699223 0.063904
O O9 0.486524 0.810238 0.195372
O O10 0.497594 0.509889 0.155522
O O11 0.750000 0.750000 0.542259
O O12 0.676723 0.932722 0.431833
O O13 0.401809 0.215454 0.690170
O O14 0.250000 0.250000 0.184247
#
# Coordination Sequence:
#
# PCOD9433619 Si02
#       6
#     8   8   8   8   8   8
#     4  12  26  47  71 106 148 195 247 303 366 435
#     4  12  27  46  70 108 149 185 238 309 370 422
#     4  12  25  47  76 107 151 187 252 299 368 433
#     4  11  24  47  77 101 139 195 243 294 353 444
#     4  12  25  45  74 109 143 197 237 307 362 433
#     4  11  25  46  74 102 138 193 247 288 359 440
#
# _framework density 23.451018000000001
#
# number of rings (size 3 to 8) (size 9 to 14) (size 15 to 20)
#    0.000    0.333    1.667    8.000    4.667    0.667 
#    6.000    0.000    0.000    0.000    0.000    0.000 
#    0.000    0.000    0.000    0.000    0.000    0.000 
#
# Total GULP energy -268587.927784 kJ/mol
# GULP energy per Si atom -5595.581829 kJ/mol
# Density = 2.339764 g / cm^3
# Si number density = 23.451018 Si / 1000 Ang^3
#
#
#
# Elastic Constant Matrix: (Units=GPa)
#
#
# Indices 1 2 3 4 5 6 
#
# 1 76.5196 29.4504 26.7042 0.0000 0.0000 0.0000
# 2 29.4504 90.7653 29.5782 0.0000 0.0000 0.0000
# 3 26.7042 29.5782 145.5809 0.0000 0.0000 0.0000
# 4 0.0000 0.0000 0.0000 36.8528 0.0000 0.0000
# 5 0.0000 0.0000 0.0000 0.0000 18.8435 0.0000
# 6 0.0000 0.0000 0.0000 0.0000 0.0000 37.8877
#
#
#
# Elastic Compliance Matrix: (Units=1/GPa)
#
#
# Indices 1 2 3 4 5 6 
#
# 1 0.015429 -0.004374 -0.001942 0.000000 0.000000 0.000000
# 2 -0.004374 0.013038 -0.001847 0.000000 0.000000 0.000000
# 3 -0.001942 -0.001847 0.007600 0.000000 0.000000 0.000000
# 4 0.000000 0.000000 0.000000 0.027135 0.000000 0.000000
# 5 0.000000 0.000000 0.000000 0.000000 0.053069 0.000000
# 6 0.000000 0.000000 0.000000 0.000000 0.000000 0.026394
#
#
# Mechanical properties :
#
#
# Convention : Reuss Voigt Hill
#
# Bulk Modulus (GPa) = 50.64806 53.81460 52.23133
# Shear Modulus (GPa) = 30.19847 33.85899 32.02873
#
# Velocity S-wave (km/s) = 3.59238 3.80388 3.69964
# Velocity P-wave (km/s) = 6.23307 6.50309 6.36951
#
# Compressibility (1/GPa) = 0.01974409
#
# Stress axis : x y z
#
# Youngs Moduli (GPa) = 64.81111 76.69678 131.57183
#
# Poissons Ratio (x) = 0.33544 0.25547
# Poissons Ratio (y) = 0.28346 0.24299
# Poissons Ratio (z) = 0.12584 0.14164
#
# Static dielectric constant tensor:
#      x y z
#    x 1.943620 0.000000 0.000000 
#    y 0.000000 1.910590 0.000000 
#    z 0.000000 0.000000 1.990730 
# 
# From -- ./inp_files/12708.got.cif
#   From: 2010.05.17/outbox.cif.g08.bks.cpg/sg56_7_cif.got.tgz:12708.got - 2010.06.03 13:42:01.
