data_PCOD9433482
_publ_section_title
;
Structure prediction by ZEFSAII (Michael W. Deem and Ramdas Pophale) SiO2 
 PCOD9433482
Probable space group: P C C N
;
_chemical_formula_sum "Si O2"
_cell_formula_units_Z 56
_cell_length_a 20.241357
_cell_length_b 13.183914
_cell_length_c 9.689911
_cell_angle_alpha 90.000000
_cell_angle_beta 90.000000
_cell_angle_gamma 90.000000
_cell_volume 2585.852653
_symmetry_space_group_name_H-M "P C C N"
_symmetry_group_IT_number 56
_symmetry_cell_setting 'orthorhombic'
loop_
_space_group_symop_operation_xyz
x,y,z
1/2-x,1/2-y,z
1/2+x,-y,1/2-z
-x,1/2+y,1/2-z
-x,-y,-z
1/2+x,1/2+y,-z
1/2-x,y,1/2+z
x,1/2-y,1/2+z
loop_
_atom_site_type_symbol
_atom_site_label
_atom_site_fract_x
_atom_site_fract_y
_atom_site_fract_z
Si Si1 0.687000 0.321263 0.378743
Si Si2 0.300274 0.468020 0.993239
Si Si3 0.844618 0.953763 0.469594
Si Si4 0.880444 0.894272 0.753733
Si Si5 0.136649 0.820679 0.905722
Si Si6 0.612018 0.832929 0.707610
Si Si7 0.008910 0.119760 0.014448
O O1 0.750000 0.250000 0.339050
O O2 0.681954 0.442224 0.398258
O O3 0.665774 0.277619 0.523954
O O4 0.635713 0.304513 0.256325
O O5 0.228047 0.418850 0.982675
O O6 0.328916 0.451458 0.146830
O O7 0.314758 0.584886 0.947689
O O8 0.344879 0.403953 0.890144
O O9 0.887019 0.956511 0.610887
O O10 0.882486 0.884547 0.358310
O O11 0.860032 0.780256 0.713716
O O12 0.944157 0.871839 0.850788
O O13 0.063734 0.838439 0.961127
O O14 0.542792 0.834675 0.623395
O O15 0.000000 0.000000 0.000000
#
# Coordination Sequence:
#
# PCOD9433482 Si02
#       7
#     8   8   8   8   8   8   8
#     4  12  27  44  73 108 144 177 232 290 351 425
#     4  11  23  43  71  96 144 181 222 289 356 409
#     4  12  24  44  72 111 137 179 241 283 346 423
#     4  11  26  42  72 102 137 186 231 290 341 415
#     4  12  26  46  69 103 138 189 227 283 356 417
#     4  11  24  46  68 103 142 182 233 294 342 412
#     4  11  23  49  71  90 141 190 229 285 359 403
#
# _framework density 21.656300000000002
#
# number of rings (size 3 to 8) (size 9 to 14) (size 15 to 20)
#    0.000    0.571    5.714    3.000    4.000    3.429 
#    0.000    1.429    0.000    0.000    0.000    0.000 
#    0.000    0.000    0.000    0.000    0.000    0.000 
#
# Total GULP energy -312311.284592 kJ/mol
# GULP energy per Si atom -5576.987225 kJ/mol
# Density = 2.160701 g / cm^3
# Si number density = 21.656300 Si / 1000 Ang^3
#
#
#
# Elastic Constant Matrix: (Units=GPa)
#
#
# Indices 1 2 3 4 5 6 
#
# 1 61.1083 -11.1799 5.8627 0.0000 0.0000 0.0000
# 2 -11.1799 65.1631 -3.3228 0.0000 0.0000 0.0000
# 3 5.8627 -3.3228 112.3936 0.0000 0.0000 0.0000
# 4 0.0000 0.0000 0.0000 29.3025 0.0000 0.0000
# 5 0.0000 0.0000 0.0000 0.0000 16.1926 0.0000
# 6 0.0000 0.0000 0.0000 0.0000 0.0000 8.1040
#
#
#
# Elastic Compliance Matrix: (Units=1/GPa)
#
#
# Indices 1 2 3 4 5 6 
#
# 1 0.016966 0.002870 -0.000800 0.000000 0.000000 0.000000
# 2 0.002870 0.015855 0.000319 0.000000 0.000000 0.000000
# 3 -0.000800 0.000319 0.008948 0.000000 0.000000 0.000000
# 4 0.000000 0.000000 0.000000 0.034127 0.000000 0.000000
# 5 0.000000 0.000000 0.000000 0.000000 0.061756 0.000000
# 6 0.000000 0.000000 0.000000 0.000000 0.000000 0.123395
#
#
# Mechanical properties :
#
#
# Convention : Reuss Voigt Hill
#
# Bulk Modulus (GPa) = 21.48350 24.59834 23.04092
# Shear Modulus (GPa) = 18.39682 27.20683 22.80183
#
# Velocity S-wave (km/s) = 2.91776 3.54828 3.24836
# Velocity P-wave (km/s) = 4.61442 5.30756 4.97308
#
# Compressibility (1/GPa) = 0.04654735
#
# Stress axis : x y z
#
# Youngs Moduli (GPa) = 58.94060 63.07244 111.75089
#
# Poissons Ratio (x) = -0.18102 0.08942
# Poissons Ratio (y) = -0.16916 -0.03565
# Poissons Ratio (z) = 0.04716 -0.02012
#
# Static dielectric constant tensor:
#      x y z
#    x 1.846810 0.000000 0.000000 
#    y 0.000000 1.805050 0.000000 
#    z 0.000000 0.000000 1.772200 
# 
# From -- ./inp_files/4472.got.cif
#   From: 2010.05.17/outbox.cif.g08.bks.cpg/sg56_3_cif.got.tgz:4472.got - 2010.06.03 13:42:01.
