data_PCOD9433463
_publ_section_title
;
Structure prediction by ZEFSAII (Michael W. Deem and Ramdas Pophale) SiO2 
 PCOD9433463
Probable space group: P C C N
;
_chemical_formula_sum "Si O2"
_cell_formula_units_Z 32
_cell_length_a 16.312540
_cell_length_b 4.791835
_cell_length_c 18.058941
_cell_angle_alpha 90.000000
_cell_angle_beta 90.000000
_cell_angle_gamma 90.000000
_cell_volume 1411.613243
_symmetry_space_group_name_H-M "P C C N"
_symmetry_group_IT_number 56
_symmetry_cell_setting 'orthorhombic'
loop_
_space_group_symop_operation_xyz
x,y,z
1/2-x,1/2-y,z
1/2+x,-y,1/2-z
-x,1/2+y,1/2-z
-x,-y,-z
1/2+x,1/2+y,-z
1/2-x,y,1/2+z
x,1/2-y,1/2+z
loop_
_atom_site_type_symbol
_atom_site_label
_atom_site_fract_x
_atom_site_fract_y
_atom_site_fract_z
Si Si1 0.023264 0.115653 0.296660
Si Si2 0.333823 0.405377 0.537557
Si Si3 0.938481 0.072618 0.932769
Si Si4 0.191735 0.483356 0.867002
O O1 0.110228 0.981254 0.319375
O O2 0.030107 0.365891 0.237348
O O3 0.985602 0.274385 0.367332
O O4 0.250000 0.250000 0.559635
O O5 0.360902 0.726551 0.547670
O O6 0.336330 0.374433 0.448124
O O7 0.401312 0.229548 0.581460
O O8 0.000000 0.000000 0.000000
O O9 0.250000 0.250000 0.832033
O O10 0.250000 0.750000 0.877381
#
# Coordination Sequence:
#
# PCOD9433463 Si02
#       4
#     8   8   8   8
#     4  12  27  46  68 104 144 191 239 287 354 432
#     4  11  23  42  70 108 140 176 234 304 361 414
#     4  12  24  43  73 103 138 181 237 299 357 414
#     4  11  23  42  71 101 138 182 238 293 351 429
#
# _framework density 22.669101999999999
#
# number of rings (size 3 to 8) (size 9 to 14) (size 15 to 20)
#    0.000    0.500    2.500    7.500    3.500    0.000 
#    0.000   12.500    0.000    0.000    0.000    0.000 
#    0.000    0.000    0.000    0.000    0.000    0.000 
#
# Total GULP energy -178642.833442 kJ/mol
# GULP energy per Si atom -5582.588545 kJ/mol
# Density = 2.261751 g / cm^3
# Si number density = 22.669102 Si / 1000 Ang^3
#
#
#
# Elastic Constant Matrix: (Units=GPa)
#
#
# Indices 1 2 3 4 5 6 
#
# 1 92.5821 38.6761 58.4974 0.0000 0.0000 0.0000
# 2 38.6761 128.2129 29.8221 0.0000 0.0000 0.0000
# 3 58.4974 29.8221 94.7094 0.0000 0.0000 0.0000
# 4 0.0000 0.0000 0.0000 26.6140 0.0000 0.0000
# 5 0.0000 0.0000 0.0000 0.0000 23.9984 0.0000
# 6 0.0000 0.0000 0.0000 0.0000 0.0000 47.5718
#
#
#
# Elastic Compliance Matrix: (Units=1/GPa)
#
#
# Indices 1 2 3 4 5 6 
#
# 1 0.018869 -0.003217 -0.010641 0.000000 0.000000 0.000000
# 2 -0.003217 0.008964 -0.000836 0.000000 0.000000 0.000000
# 3 -0.010641 -0.000836 0.017394 0.000000 0.000000 0.000000
# 4 0.000000 0.000000 0.000000 0.037574 0.000000 0.000000
# 5 0.000000 0.000000 0.000000 0.000000 0.041669 0.000000
# 6 0.000000 0.000000 0.000000 0.000000 0.000000 0.021021
#
#
# Mechanical properties :
#
#
# Convention : Reuss Voigt Hill
#
# Bulk Modulus (GPa) = 63.13319 63.27730 63.20525
# Shear Modulus (GPa) = 27.75314 32.20410 29.97862
#
# Velocity S-wave (km/s) = 3.50276 3.77320 3.64049
# Velocity P-wave (km/s) = 6.65353 6.85250 6.75374
#
# Compressibility (1/GPa) = 0.01583953
#
# Stress axis : x y z
#
# Youngs Moduli (GPa) = 52.99784 111.55384 57.48948
#
# Poissons Ratio (x) = 0.35883 0.61177
# Poissons Ratio (y) = 0.17048 0.04806
# Poissons Ratio (z) = 0.56397 0.09325
#
# Static dielectric constant tensor:
#      x y z
#    x 1.889070 0.000000 0.000000 
#    y 0.000000 1.870170 0.000000 
#    z 0.000000 0.000000 1.826480 
# 
# From -- ./inp_files/15990.got.cif
#   From: 2010.05.17/outbox.cif.g08.bks.cpg/sg56_8_cif.got.tgz:15990.got - 2010.06.03 13:42:01.
