data_PCOD9433991
_publ_section_title
;
Structure prediction by ZEFSAII (Michael W. Deem and Ramdas Pophale) SiO2 
 PCOD9433991
Probable space group: P B C M
;
_chemical_formula_sum "Si O2"
_cell_formula_units_Z 56
_cell_length_a 11.915887
_cell_length_b 5.320380
_cell_length_c 34.748661
_cell_angle_alpha 90.000000
_cell_angle_beta 90.000000
_cell_angle_gamma 90.000000
_cell_volume 2202.962490
_symmetry_space_group_name_H-M "P B C M"
_symmetry_group_IT_number 57
_symmetry_cell_setting 'orthorhombic'
loop_
_space_group_symop_operation_xyz
x,y,z
-x,-y,1/2+z
x,1/2-y,-z
-x,1/2+y,1/2-z
-x,-y,-z
x,y,1/2-z
-x,1/2+y,z
x,1/2-y,1/2+z
loop_
_atom_site_type_symbol
_atom_site_label
_atom_site_fract_x
_atom_site_fract_y
_atom_site_fract_z
Si Si1 0.661851 0.924665 0.209036
Si Si2 0.071023 0.887463 0.375047
Si Si3 0.931579 0.268185 0.545062
Si Si4 0.628510 0.499934 0.015988
Si Si5 0.388376 0.302794 0.371390
Si Si6 0.359543 0.689409 0.899216
Si Si7 0.189939 0.577434 0.707033
O O1 0.603055 0.893645 0.250000
O O2 0.587745 0.892184 0.171604
O O3 0.754614 0.701051 0.206190
O O4 0.718900 0.197359 0.207467
O O5 0.136868 0.819929 0.415937
O O6 0.120143 0.869088 0.331814
O O7 0.976246 0.669724 0.377287
O O8 0.897971 0.250000 0.500000
O O9 0.969186 0.558162 0.548375
O O10 0.636733 0.454995 0.060560
O O11 0.682825 0.750000 0.000000
O O12 0.500000 0.500000 0.000000
O O13 0.679787 0.250000 0.000000
O O14 0.507455 0.259535 0.391197
O O15 0.319350 0.525399 0.392259
O O16 0.324794 0.035555 0.370837
O O17 0.133283 0.595435 0.750000
#
# Coordination Sequence:
#
# PCOD9433991 Si02
#       7
#     8   8   8   8   8   8   8
#     4  10  21  37  54  70  93 132 174 202 237 297
#     4  10  19  31  51  79 105 129 161 202 251 294
#     4   8  14  25  42  68 100 126 152 189 232 280
#     4  10  16  25  41  65  97 128 154 189 246 298
#     4  10  18  32  49  69  97 125 157 206 252 293
#     4  10  19  30  47  76 101 120 158 209 261 295
#     4  10  21  36  52  73 101 132 170 207 240 296
#
# _framework density 25.420317000000001
#
# number of rings (size 3 to 8) (size 9 to 14) (size 15 to 20)
#    0.000    2.286    0.000    6.000    0.000    0.571 
#    0.000    2.857    0.000    0.000    0.000   19.000 
#    0.000    1.143    0.000    0.000    0.000    0.000 
#
# Total GULP energy -312196.434884 kJ/mol
# GULP energy per Si atom -5574.936337 kJ/mol
# Density = 2.536246 g / cm^3
# Si number density = 25.420317 Si / 1000 Ang^3
#
#
#
# Elastic Constant Matrix: (Units=GPa)
#
#
# Indices 1 2 3 4 5 6 
#
# 1 28.4400 11.6039 21.1424 0.0000 0.0000 0.0000
# 2 11.6039 192.5689 10.2146 0.0000 0.0000 0.0000
# 3 21.1424 10.2146 181.8623 0.0000 0.0000 0.0000
# 4 0.0000 0.0000 0.0000 46.5201 0.0000 0.0000
# 5 0.0000 0.0000 0.0000 0.0000 22.1830 0.0000
# 6 0.0000 0.0000 0.0000 0.0000 0.0000 15.2875
#
#
#
# Elastic Compliance Matrix: (Units=1/GPa)
#
#
# Indices 1 2 3 4 5 6 
#
# 1 0.039344 -0.002135 -0.004454 0.000000 0.000000 0.000000
# 2 -0.002135 0.005324 -0.000051 0.000000 0.000000 0.000000
# 3 -0.004454 -0.000051 0.006019 0.000000 0.000000 0.000000
# 4 0.000000 0.000000 0.000000 0.021496 0.000000 0.000000
# 5 0.000000 0.000000 0.000000 0.000000 0.045080 0.000000
# 6 0.000000 0.000000 0.000000 0.000000 0.000000 0.065413
#
#
# Mechanical properties :
#
#
# Convention : Reuss Voigt Hill
#
# Bulk Modulus (GPa) = 26.73190 54.31034 40.52112
# Shear Modulus (GPa) = 23.98951 40.79213 32.39082
#
# Velocity S-wave (km/s) = 3.07533 4.01022 3.57348
# Velocity P-wave (km/s) = 4.81134 6.54628 5.74468
#
# Compressibility (1/GPa) = 0.03740849
#
# Stress axis : x y z
#
# Youngs Moduli (GPa) = 25.41695 187.81912 166.13150
#
# Poissons Ratio (x) = 0.40091 0.73995
# Poissons Ratio (y) = 0.05425 0.00846
# Poissons Ratio (z) = 0.11321 0.00956
#
# Static dielectric constant tensor:
#      x y z
#    x 2.055390 0.000000 0.000000 
#    y 0.000000 2.051450 0.000000 
#    z 0.000000 0.000000 2.173560 
# 
# From -- ./inp_files/29861.got.cif
#   From: 2010.05.17/outbox.cif.g08.bks.cpg/sg57_15_cif.got.tgz:29861.got - 2010.06.03 13:58:18.
