data_PCOD9433203
_publ_section_title
;
Structure prediction by ZEFSAII (Michael W. Deem and Ramdas Pophale) SiO2 
 PCOD9433203
Probable space group: P C C N
;
_chemical_formula_sum "Si O2"
_cell_formula_units_Z 44
_cell_length_a 17.510890
_cell_length_b 8.127052
_cell_length_c 13.832199
_cell_angle_alpha 90.000000
_cell_angle_beta 90.000000
_cell_angle_gamma 90.000000
_cell_volume 1968.486709
_symmetry_space_group_name_H-M "P C C N"
_symmetry_group_IT_number 56
_symmetry_cell_setting 'orthorhombic'
loop_
_space_group_symop_operation_xyz
x,y,z
1/2-x,1/2-y,z
1/2+x,-y,1/2-z
-x,1/2+y,1/2-z
-x,-y,-z
1/2+x,1/2+y,-z
1/2-x,y,1/2+z
x,1/2-y,1/2+z
loop_
_atom_site_type_symbol
_atom_site_label
_atom_site_fract_x
_atom_site_fract_y
_atom_site_fract_z
Si Si1 0.421534 0.560730 0.275882
Si Si2 0.034699 0.308766 0.635635
Si Si3 0.750000 0.750000 0.963550
Si Si4 0.597504 0.774727 0.066849
Si Si5 0.768329 0.423198 0.341834
Si Si6 0.830644 0.642979 0.738149
O O1 0.462276 0.716656 0.320673
O O2 0.463274 0.491481 0.179410
O O3 0.427272 0.419939 0.359895
O O4 0.336740 0.588063 0.235485
O O5 0.043588 0.279240 0.521086
O O6 0.109199 0.224168 0.687493
O O7 0.720314 0.585106 0.908205
O O8 0.678337 0.823963 0.019773
O O9 0.626492 0.631074 0.137370
O O10 0.750000 0.250000 0.391892
O O11 0.693819 0.471217 0.280999
O O12 0.750000 0.750000 0.728977
#
# Coordination Sequence:
#
# PCOD9433203 Si02
#       6
#     8   8   4   8   8   8
#     4  11  24  42  62  97 133 180 218 274 336 391
#     4  11  23  39  67  92 134 178 219 270 331 399
#     4  12  18  42  72  98 128 176 218 282 326 392
#     4  11  19  39  73  91 129 177 223 265 342 387
#     4  12  23  41  70  99 130 175 223 271 336 389
#     4  11  19  41  68  91 122 178 215 266 334 381
#
# _framework density 22.352195999999999
#
# number of rings (size 3 to 8) (size 9 to 14) (size 15 to 20)
#    0.000    0.727    9.091    0.545    2.545    0.000 
#    0.000    7.273    4.000    0.000    0.000    0.000 
#    0.000    0.000    0.000    0.000    0.000    0.000 
#
# Total GULP energy -245216.194487 kJ/mol
# GULP energy per Si atom -5573.095329 kJ/mol
# Density = 2.230132 g / cm^3
# Si number density = 22.352196 Si / 1000 Ang^3
#
#
#
# Elastic Constant Matrix: (Units=GPa)
#
#
# Indices 1 2 3 4 5 6 
#
# 1 44.7024 -8.2700 1.3762 0.0000 0.0000 0.0000
# 2 -8.2700 60.3264 0.2732 0.0000 0.0000 0.0000
# 3 1.3762 0.2732 90.3685 0.0000 0.0000 0.0000
# 4 0.0000 0.0000 0.0000 17.8208 0.0000 0.0000
# 5 0.0000 0.0000 0.0000 0.0000 29.9885 0.0000
# 6 0.0000 0.0000 0.0000 0.0000 0.0000 26.0793
#
#
#
# Elastic Compliance Matrix: (Units=1/GPa)
#
#
# Indices 1 2 3 4 5 6 
#
# 1 0.022964 0.003150 -0.000359 0.000000 0.000000 0.000000
# 2 0.003150 0.017009 -0.000099 0.000000 0.000000 0.000000
# 3 -0.000359 -0.000099 0.011072 0.000000 0.000000 0.000000
# 4 0.000000 0.000000 0.000000 0.056114 0.000000 0.000000
# 5 0.000000 0.000000 0.000000 0.000000 0.033346 0.000000
# 6 0.000000 0.000000 0.000000 0.000000 0.000000 0.038345
#
#
# Mechanical properties :
#
#
# Convention : Reuss Voigt Hill
#
# Bulk Modulus (GPa) = 17.72220 20.23956 18.98088
# Shear Modulus (GPa) = 26.00431 28.24558 27.12495
#
# Velocity S-wave (km/s) = 3.41455 3.55866 3.48735
# Velocity P-wave (km/s) = 4.84679 5.09508 4.97249
#
# Compressibility (1/GPa) = 0.05642641
#
# Stress axis : x y z
#
# Youngs Moduli (GPa) = 43.54654 58.79334 90.32142
#
# Poissons Ratio (x) = -0.18518 0.03245
# Poissons Ratio (y) = -0.13716 0.00898
# Poissons Ratio (z) = 0.01564 0.00584
#
# Static dielectric constant tensor:
#      x y z
#    x 1.868090 0.000000 0.000000 
#    y 0.000000 1.878750 0.000000 
#    z 0.000000 0.000000 1.907520 
# 
# From -- ./inp_files/12628.got.cif
#   From: 2010.05.17/outbox.cif.g08.bks.cpg/sg56_7_cif.got.tgz:12628.got - 2010.06.03 13:42:01.
