data_PCOD9433641
_publ_section_title
;
Structure prediction by ZEFSAII (Michael W. Deem and Ramdas Pophale) SiO2 
 PCOD9433641
Probable space group: P C C N
;
_chemical_formula_sum "Si O2"
_cell_formula_units_Z 40
_cell_length_a 11.821496
_cell_length_b 5.823193
_cell_length_c 25.161875
_cell_angle_alpha 90.000000
_cell_angle_beta 90.000000
_cell_angle_gamma 90.000000
_cell_volume 1732.114608
_symmetry_space_group_name_H-M "P C C N"
_symmetry_group_IT_number 56
_symmetry_cell_setting 'orthorhombic'
loop_
_space_group_symop_operation_xyz
x,y,z
1/2-x,1/2-y,z
1/2+x,-y,1/2-z
-x,1/2+y,1/2-z
-x,-y,-z
1/2+x,1/2+y,-z
1/2-x,y,1/2+z
x,1/2-y,1/2+z
loop_
_atom_site_type_symbol
_atom_site_label
_atom_site_fract_x
_atom_site_fract_y
_atom_site_fract_z
Si Si1 0.068360 0.839853 0.407090
Si Si2 0.549813 0.237725 0.837417
Si Si3 0.177379 0.048952 0.831571
Si Si4 0.750000 0.250000 0.513923
Si Si5 0.852506 0.922692 0.926769
Si Si6 0.250000 0.750000 0.242898
O O1 0.133019 0.653640 0.369850
O O2 0.163269 0.897368 0.450249
O O3 0.965213 0.720239 0.437703
O O4 0.006483 0.031453 0.371300
O O5 0.441423 0.355410 0.810479
O O6 0.612392 0.409827 0.878419
O O7 0.643515 0.190418 0.793490
O O8 0.250000 0.250000 0.859247
O O9 0.257178 0.960142 0.784296
O O10 0.816635 0.423315 0.476116
O O11 0.750000 0.750000 0.912576
#
# Coordination Sequence:
#
# PCOD9433641 Si02
#       6
#     8   8   8   4   8   4
#     4  11  25  47  70 103 145 185 241 299 358 432
#     4  11  26  47  71 101 147 190 236 303 360 430
#     4  11  26  44  71 103 141 184 239 299 363 427
#     4  12  24  42  72 102 140 190 240 300 360 434
#     4  11  25  44  68 104 142 189 240 293 364 428
#     4  12  26  42  72 102 138 186 240 294 358 440
#
# _framework density 23.093157999999999
#
# number of rings (size 3 to 8) (size 9 to 14) (size 15 to 20)
#    0.000    0.800    0.000    6.600    5.600    9.600 
#    0.000    0.000    0.000    0.000    0.000    0.000 
#    0.000    0.000    0.000    0.000    0.000    0.000 
#
# Total GULP energy -223593.439400 kJ/mol
# GULP energy per Si atom -5589.835985 kJ/mol
# Density = 2.304060 g / cm^3
# Si number density = 23.093158 Si / 1000 Ang^3
#
#
#
# Elastic Constant Matrix: (Units=GPa)
#
#
# Indices 1 2 3 4 5 6 
#
# 1 160.3859 52.4159 62.4776 0.0000 0.0000 0.0000
# 2 52.4159 93.8987 44.8805 0.0000 0.0000 0.0000
# 3 62.4776 44.8805 87.4832 0.0000 0.0000 0.0000
# 4 0.0000 0.0000 0.0000 24.4488 0.0000 0.0000
# 5 0.0000 0.0000 0.0000 0.0000 -100.7160 0.0000
# 6 0.0000 0.0000 0.0000 0.0000 0.0000 64.6633
#
#
#
# Elastic Compliance Matrix: (Units=1/GPa)
#
#
# Indices 1 2 3 4 5 6 
#
# 1 0.009098 -0.002614 -0.005156 0.000000 0.000000 0.000000
# 2 -0.002614 0.014861 -0.005757 0.000000 0.000000 0.000000
# 3 -0.005156 -0.005757 0.018067 0.000000 0.000000 0.000000
# 4 0.000000 0.000000 0.000000 0.040902 0.000000 0.000000
# 5 0.000000 0.000000 0.000000 0.000000 -0.009929 0.000000
# 6 0.000000 0.000000 0.000000 0.000000 0.000000 0.015465
#
#
# Mechanical properties :
#
#
# Convention : Reuss Voigt Hill
#
# Bulk Modulus (GPa) = 66.79780 73.47953 70.13866
# Shear Modulus (GPa) = 41.49117 9.81213 25.65165
#
# Velocity S-wave (km/s) = 4.24333 2.06353 3.33647
# Velocity P-wave (km/s) = 7.27983 6.12906 6.72909
#
# Compressibility (1/GPa) = 0.01497055
#
# Stress axis : x y z
#
# Youngs Moduli (GPa) = 109.91551 67.29213 55.35054
#
# Poissons Ratio (x) = 0.17590 0.28541
# Poissons Ratio (y) = 0.28732 0.31865
# Poissons Ratio (z) = 0.56677 0.38739
#
# Static dielectric constant tensor:
#      x y z
#    x 1.855220 0.000000 0.000000 
#    y 0.000000 1.948230 0.000000 
#    z 0.000000 0.000000 1.827730 
# 
# From -- ./inp_files/22207.got.cif
#   From: 2010.05.17/outbox.cif.g08.bks.cpg/sg56_12_cif.got.tgz:22207.got - 2010.06.03 13:42:01.
