data_PCOD9433578
_publ_section_title
;
Structure prediction by ZEFSAII (Michael W. Deem and Ramdas Pophale) SiO2 
 PCOD9433578
Probable space group: P C C N
;
_chemical_formula_sum "Si O2"
_cell_formula_units_Z 36
_cell_length_a 6.355417
_cell_length_b 11.849214
_cell_length_c 20.761436
_cell_angle_alpha 90.000000
_cell_angle_beta 90.000000
_cell_angle_gamma 90.000000
_cell_volume 1563.475151
_symmetry_space_group_name_H-M "P C C N"
_symmetry_group_IT_number 56
_symmetry_cell_setting 'orthorhombic'
loop_
_space_group_symop_operation_xyz
x,y,z
1/2-x,1/2-y,z
1/2+x,-y,1/2-z
-x,1/2+y,1/2-z
-x,-y,-z
1/2+x,1/2+y,-z
1/2-x,y,1/2+z
x,1/2-y,1/2+z
loop_
_atom_site_type_symbol
_atom_site_label
_atom_site_fract_x
_atom_site_fract_y
_atom_site_fract_z
Si Si1 0.446114 0.819595 0.006638
Si Si2 0.946366 0.557875 0.673898
Si Si3 0.848603 0.367997 0.203837
Si Si4 0.750000 0.750000 0.105134
Si Si5 0.833582 0.962980 0.405378
O O1 0.250000 0.750000 0.978001
O O2 0.548914 0.739973 0.059790
O O3 0.384430 0.928785 0.049429
O O4 0.619346 0.861387 0.955551
O O5 0.054095 0.641045 0.725093
O O6 0.109210 0.497267 0.625283
O O7 0.839626 0.456273 0.711483
O O8 0.762369 0.633975 0.643321
O O9 0.750000 0.250000 0.181804
O O10 0.013977 0.422917 0.153423
#
# Coordination Sequence:
#
# PCOD9433578 Si02
#       5
#     8   8   8   4   8
#     4  11  24  44  73 105 145 195 239 305 362 442
#     4  12  27  46  74 108 143 193 248 306 376 447
#     4  12  28  46  74 106 146 190 244 311 372 442
#     4  12  26  44  76 104 144 192 250 296 374 448
#     4  11  25  46  70 106 147 184 250 299 369 442
#
# _framework density 23.02563
#
# number of rings (size 3 to 8) (size 9 to 14) (size 15 to 20)
#    0.000    0.444    6.667    0.667    6.222    5.333 
#    0.000    0.000    0.000    0.000    0.000    0.000 
#    0.000    0.000    0.000    0.000    0.000    0.000 
#
# Total GULP energy -200776.897956 kJ/mol
# GULP energy per Si atom -5577.136054 kJ/mol
# Density = 2.297322 g / cm^3
# Si number density = 23.025630 Si / 1000 Ang^3
#
#
#
# Elastic Constant Matrix: (Units=GPa)
#
#
# Indices 1 2 3 4 5 6 
#
# 1 59.5580 31.8016 19.8490 0.0000 0.0000 0.0000
# 2 31.8016 105.3325 17.0960 0.0000 0.0000 0.0000
# 3 19.8490 17.0960 77.9758 0.0000 0.0000 0.0000
# 4 0.0000 0.0000 0.0000 50.5547 0.0000 0.0000
# 5 0.0000 0.0000 0.0000 0.0000 14.8585 0.0000
# 6 0.0000 0.0000 0.0000 0.0000 0.0000 44.4855
#
#
#
# Elastic Compliance Matrix: (Units=1/GPa)
#
#
# Indices 1 2 3 4 5 6 
#
# 1 0.021237 -0.005739 -0.004148 0.000000 0.000000 0.000000
# 2 -0.005739 0.011395 -0.001038 0.000000 0.000000 0.000000
# 3 -0.004148 -0.001038 0.014108 0.000000 0.000000 0.000000
# 4 0.000000 0.000000 0.000000 0.019781 0.000000 0.000000
# 5 0.000000 0.000000 0.000000 0.000000 0.067302 0.000000
# 6 0.000000 0.000000 0.000000 0.000000 0.000000 0.022479
#
#
# Mechanical properties :
#
#
# Convention : Reuss Voigt Hill
#
# Bulk Modulus (GPa) = 40.17397 42.26218 41.21808
# Shear Modulus (GPa) = 26.81747 33.58770 30.20259
#
# Velocity S-wave (km/s) = 3.41644 3.82345 3.62566
# Velocity P-wave (km/s) = 5.74875 6.15515 5.95542
#
# Compressibility (1/GPa) = 0.02489174
#
# Stress axis : x y z
#
# Youngs Moduli (GPa) = 47.08802 87.76010 70.88283
#
# Poissons Ratio (x) = 0.50362 0.29400
# Poissons Ratio (y) = 0.27022 0.07354
# Poissons Ratio (z) = 0.19531 0.09105
#
# Static dielectric constant tensor:
#      x y z
#    x 1.888210 0.000000 0.000000 
#    y 0.000000 1.856440 0.000000 
#    z 0.000000 0.000000 1.847930 
# 
# From -- ./inp_files/19897.got.cif
#   From: 2010.05.17/outbox.cif.g08.bks.cpg/sg56_10_cif.got.tgz:19897.got - 2010.06.03 13:42:01.
