data_PCOD9433511
_publ_section_title
;
Structure prediction by ZEFSAII (Michael W. Deem and Ramdas Pophale) SiO2 
 PCOD9433511
Probable space group: P C C N
;
_chemical_formula_sum "Si O2"
_cell_formula_units_Z 64
_cell_length_a 11.263715
_cell_length_b 28.625415
_cell_length_c 8.934836
_cell_angle_alpha 90.000000
_cell_angle_beta 90.000000
_cell_angle_gamma 90.000000
_cell_volume 2880.845915
_symmetry_space_group_name_H-M "P C C N"
_symmetry_group_IT_number 56
_symmetry_cell_setting 'orthorhombic'
loop_
_space_group_symop_operation_xyz
x,y,z
1/2-x,1/2-y,z
1/2+x,-y,1/2-z
-x,1/2+y,1/2-z
-x,-y,-z
1/2+x,1/2+y,-z
1/2-x,y,1/2+z
x,1/2-y,1/2+z
loop_
_atom_site_type_symbol
_atom_site_label
_atom_site_fract_x
_atom_site_fract_y
_atom_site_fract_z
Si Si1 0.179372 0.809160 0.610652
Si Si2 0.496459 0.430629 0.555085
Si Si3 0.881354 0.843884 0.273971
Si Si4 0.558029 0.396313 0.251409
Si Si5 0.262121 0.535701 0.914478
Si Si6 0.901330 0.219168 0.724083
Si Si7 0.158232 0.372609 0.565868
Si Si8 0.736381 0.527192 0.342140
O O1 0.133656 0.860178 0.650099
O O2 0.318062 0.806822 0.653388
O O3 0.117675 0.772567 0.725825
O O4 0.148631 0.793148 0.441860
O O5 0.457026 0.382831 0.636176
O O6 0.485413 0.424557 0.376805
O O7 0.631892 0.442320 0.590654
O O8 0.401521 0.468370 0.611156
O O9 0.758062 0.839175 0.362737
O O10 0.964554 0.798672 0.266138
O O11 0.852545 0.863591 0.109686
O O12 0.641523 0.430161 0.156013
O O13 0.468573 0.368714 0.144799
O O14 0.260752 0.485811 0.830505
O O15 0.290233 0.519316 0.082224
O O16 0.202148 0.425027 0.608448
#
# Coordination Sequence:
#
# PCOD9433511 Si02
#       8
#     8   8   8   8   8   8   8   8
#     4  11  25  44  73 110 140 176 222 291 355 421
#     4  11  23  46  62  94 136 184 226 298 351 422
#     4  11  24  46  75  98 139 187 232 281 352 425
#     4  12  26  42  69  97 138 179 233 293 346 423
#     4  12  25  38  66  98 131 180 239 291 355 415
#     4  11  24  45  78 106 146 176 229 283 363 423
#     4  11  26  44  71  98 138 188 238 285 351 408
#     4  11  24  43  64  90 135 181 238 293 348 413
#
# _framework density 22.215695
#
# number of rings (size 3 to 8) (size 9 to 14) (size 15 to 20)
#    0.000    0.750    2.500    6.375    7.000    0.500 
#    0.000    0.625    0.000    0.000    0.000    0.000 
#    0.000    0.000    0.000    0.000    0.000    0.000 
#
# Total GULP energy -358017.123289 kJ/mol
# GULP energy per Si atom -5594.017551 kJ/mol
# Density = 2.216513 g / cm^3
# Si number density = 22.215695 Si / 1000 Ang^3
#
#
#
# Elastic Constant Matrix: (Units=GPa)
#
#
# Indices 1 2 3 4 5 6 
#
# 1 84.6629 14.4515 32.5142 0.0000 0.0000 0.0000
# 2 14.4515 37.7732 -8.8414 0.0000 0.0000 0.0000
# 3 32.5142 -8.8414 88.3506 0.0000 0.0000 0.0000
# 4 0.0000 0.0000 0.0000 27.9430 0.0000 0.0000
# 5 0.0000 0.0000 0.0000 0.0000 38.6097 0.0000
# 6 0.0000 0.0000 0.0000 0.0000 0.0000 40.5929
#
#
#
# Elastic Compliance Matrix: (Units=1/GPa)
#
#
# Indices 1 2 3 4 5 6 
#
# 1 0.015577 -0.007476 -0.006481 0.000000 0.000000 0.000000
# 2 -0.007476 0.030697 0.005823 0.000000 0.000000 0.000000
# 3 -0.006481 0.005823 0.014286 0.000000 0.000000 0.000000
# 4 0.000000 0.000000 0.000000 0.035787 0.000000 0.000000
# 5 0.000000 0.000000 0.000000 0.000000 0.025900 0.000000
# 6 0.000000 0.000000 0.000000 0.000000 0.000000 0.024635
#
#
# Mechanical properties :
#
#
# Convention : Reuss Voigt Hill
#
# Bulk Modulus (GPa) = 22.57701 31.89282 27.23491
# Shear Modulus (GPa) = 28.10359 32.93996 30.52178
#
# Velocity S-wave (km/s) = 3.56059 3.85481 3.71061
# Velocity P-wave (km/s) = 5.20465 5.84806 5.53571
#
# Compressibility (1/GPa) = 0.04429285
#
# Stress axis : x y z
#
# Youngs Moduli (GPa) = 64.19927 32.57636 69.99761
#
# Poissons Ratio (x) = 0.24355 0.45362
# Poissons Ratio (y) = 0.47997 -0.40761
# Poissons Ratio (z) = 0.41604 -0.18970
#
# Static dielectric constant tensor:
#      x y z
#    x 1.819730 0.000000 0.000000 
#    y 0.000000 1.850550 0.000000 
#    z 0.000000 0.000000 1.798320 
# 
# From -- ./inp_files/2986.got.cif
#   From: 2010.05.17/outbox.cif.g08.bks.cpg/sg56_2_cif.got.tgz:2986.got - 2010.06.03 13:42:01.
