data_PCOD9433700
_publ_section_title
;
Structure prediction by ZEFSAII (Michael W. Deem and Ramdas Pophale) SiO2 
 PCOD9433700
Probable space group: P C C N
;
_chemical_formula_sum "Si O2"
_cell_formula_units_Z 36
_cell_length_a 20.879489
_cell_length_b 6.194781
_cell_length_c 11.756978
_cell_angle_alpha 90.000000
_cell_angle_beta 90.000000
_cell_angle_gamma 90.000000
_cell_volume 1520.692937
_symmetry_space_group_name_H-M "P C C N"
_symmetry_group_IT_number 56
_symmetry_cell_setting 'orthorhombic'
loop_
_space_group_symop_operation_xyz
x,y,z
1/2-x,1/2-y,z
1/2+x,-y,1/2-z
-x,1/2+y,1/2-z
-x,-y,-z
1/2+x,1/2+y,-z
1/2-x,y,1/2+z
x,1/2-y,1/2+z
loop_
_atom_site_type_symbol
_atom_site_label
_atom_site_fract_x
_atom_site_fract_y
_atom_site_fract_z
Si Si1 0.023861 0.796786 0.577574
Si Si2 0.750000 0.250000 0.933521
Si Si3 0.691911 0.885274 0.093620
Si Si4 0.399415 0.455985 0.923873
Si Si5 0.863105 0.269898 0.255779
O O1 0.066528 0.640381 0.497445
O O2 0.070528 0.805215 0.686004
O O3 0.960133 0.677758 0.619903
O O4 0.000000 0.000000 0.500000
O O5 0.690334 0.293386 0.851417
O O6 0.774065 0.443299 0.012510
O O7 0.750000 0.750000 0.148943
O O8 0.646685 0.723504 0.021307
O O9 0.645978 0.012551 0.181550
O O10 0.354712 0.576256 0.833525
#
# Coordination Sequence:
#
# PCOD9433700 Si02
#       5
#     8   4   8   8   8
#     4  11  26  47  72 106 152 196 247 307 372 441
#     4  12  26  48  72 108 152 196 246 316 376 440
#     4  12  26  47  72 107 149 192 251 308 376 449
#     4  11  26  44  72 108 145 194 250 305 366 445
#     4  12  26  44  75 107 144 196 247 303 375 440
#
# _framework density 23.67342
#
# number of rings (size 3 to 8) (size 9 to 14) (size 15 to 20)
#    0.000    0.444    0.000    8.667    6.222    8.000 
#    0.000    0.000    0.000    0.000    0.000    0.000 
#    0.000    0.000    0.000    0.000    0.000    0.000 
#
# Total GULP energy -200972.226449 kJ/mol
# GULP energy per Si atom -5582.561846 kJ/mol
# Density = 2.361954 g / cm^3
# Si number density = 23.673420 Si / 1000 Ang^3
#
#
#
# Elastic Constant Matrix: (Units=GPa)
#
#
# Indices 1 2 3 4 5 6 
#
# 1 133.7979 79.5895 38.0903 0.0000 0.0000 0.0000
# 2 79.5895 152.7123 61.0254 0.0000 0.0000 0.0000
# 3 38.0903 61.0254 72.6678 0.0000 0.0000 0.0000
# 4 0.0000 0.0000 0.0000 9.3299 0.0000 0.0000
# 5 0.0000 0.0000 0.0000 0.0000 41.2404 0.0000
# 6 0.0000 0.0000 0.0000 0.0000 0.0000 71.7039
#
#
#
# Elastic Compliance Matrix: (Units=1/GPa)
#
#
# Indices 1 2 3 4 5 6 
#
# 1 0.010929 -0.005127 -0.001423 0.000000 0.000000 0.000000
# 2 -0.005127 0.012261 -0.007609 0.000000 0.000000 0.000000
# 3 -0.001423 -0.007609 0.020897 0.000000 0.000000 0.000000
# 4 0.000000 0.000000 0.000000 0.107183 0.000000 0.000000
# 5 0.000000 0.000000 0.000000 0.000000 0.024248 0.000000
# 6 0.000000 0.000000 0.000000 0.000000 0.000000 0.013946
#
#
# Mechanical properties :
#
#
# Convention : Reuss Voigt Hill
#
# Bulk Modulus (GPa) = 63.41676 79.62094 71.51885
# Shear Modulus (GPa) = 22.41758 36.48634 29.45196
#
# Velocity S-wave (km/s) = 3.08060 3.93012 3.53100
# Velocity P-wave (km/s) = 6.28488 7.36889 6.84837
#
# Compressibility (1/GPa) = 0.01576870
#
# Stress axis : x y z
#
# Youngs Moduli (GPa) = 91.49974 81.55801 47.85346
#
# Poissons Ratio (x) = 0.41818 0.06808
# Poissons Ratio (y) = 0.46915 0.36413
# Poissons Ratio (z) = 0.13018 0.62059
#
# Static dielectric constant tensor:
#      x y z
#    x 1.927090 0.000000 0.000000 
#    y 0.000000 1.946140 0.000000 
#    z 0.000000 0.000000 1.922740 
# 
# From -- ./inp_files/8813.got.cif
#   From: 2010.05.17/outbox.cif.g08.bks.cpg/sg56_5_cif.got.tgz:8813.got - 2010.06.03 13:42:01.
