data_PCOD9433962
_publ_section_title
;
Structure prediction by ZEFSAII (Michael W. Deem and Ramdas Pophale) SiO2 
 PCOD9433962
Probable space group: P C C N
;
_chemical_formula_sum "Si O2"
_cell_formula_units_Z 48
_cell_length_a 9.000000
_cell_length_b 30.000000
_cell_length_c 9.000000
_cell_angle_alpha 90.000000
_cell_angle_beta 90.000000
_cell_angle_gamma 90.000000
_cell_volume 2430.000000
_symmetry_space_group_name_H-M "P C C N"
_symmetry_group_IT_number 56
_symmetry_cell_setting 'orthorhombic'
loop_
_space_group_symop_operation_xyz
x,y,z
1/2-x,1/2-y,z
1/2+x,-y,1/2-z
-x,1/2+y,1/2-z
-x,-y,-z
1/2+x,1/2+y,-z
1/2-x,y,1/2+z
x,1/2-y,1/2+z
loop_
_atom_site_type_symbol
_atom_site_label
_atom_site_fract_x
_atom_site_fract_y
_atom_site_fract_z
Si Si1 0.940583 0.100608 0.444909
Si Si2 0.927237 0.797540 0.604537
Si Si3 0.594734 0.699001 0.968618
Si Si4 0.436337 0.406843 0.961461
Si Si5 0.815559 0.550315 0.228336
Si Si6 0.314338 0.940733 0.744522
O O1 0.877472 0.083471 0.605302
O O2 0.829905 0.087043 0.309554
O O3 0.987004 0.154395 0.436894
O O4 0.074323 0.066870 0.402719
O O5 0.916997 0.796583 0.786995
O O6 0.972071 0.746233 0.543117
O O7 0.764818 0.802069 0.528365
O O8 0.542841 0.647445 0.013648
O O9 0.327666 0.421107 0.824477
O O10 0.582894 0.431404 0.900567
O O11 0.374867 0.429894 0.113551
O O12 0.797361 0.495487 0.234427
#
# Coordination Sequence:
#
# PCOD9433962 Si02
#       6
#     8   8   8   8   8   8
#     4  12  25  45  66  99 137 182 224 280 339 405
#     4  11  24  41  74  99 136 164 228 280 347 394
#     4  11  22  41  68 104 125 168 220 284 333 392
#     4  12  23  41  71  96 137 172 228 283 337 395
#     4  12  23  44  68 103 131 183 231 276 332 404
#     4  12  27  42  67  96 145 181 224 274 338 406
#
# _framework density 19.753086
#
# number of rings (size 3 to 8) (size 9 to 14) (size 15 to 20)
#    0.000    0.333    3.333    7.000    4.667    0.000 
#    0.000    0.833    0.000    0.000    0.000    0.000 
#    0.000    0.000    0.000    0.000    0.000    0.000 
#
# Total GULP energy -267255.236553 kJ/mol
# GULP energy per Si atom -5567.817428 kJ/mol
# Density = 1.970813 g / cm^3
# Si number density = 19.753086 Si / 1000 Ang^3
#
#
#
# Elastic Constant Matrix: (Units=GPa)
#
#
# Indices 1 2 3 4 5 6 
#
# 1 51.0469 16.0391 8.4620 0.0000 0.0000 0.0000
# 2 16.0391 232.7302 55.1577 0.0000 0.0000 0.0000
# 3 8.4620 55.1577 137.0644 0.0000 0.0000 0.0000
# 4 0.0000 0.0000 0.0000 54.3366 0.0000 0.0000
# 5 0.0000 0.0000 0.0000 0.0000 43.7613 0.0000
# 6 0.0000 0.0000 0.0000 0.0000 0.0000 34.8244
#
#
#
# Elastic Compliance Matrix: (Units=1/GPa)
#
#
# Indices 1 2 3 4 5 6 
#
# 1 0.020094 -0.001206 -0.000755 0.000000 0.000000 0.000000
# 2 -0.001206 0.004822 -0.001866 0.000000 0.000000 0.000000
# 3 -0.000755 -0.001866 0.008093 0.000000 0.000000 0.000000
# 4 0.000000 0.000000 0.000000 0.018404 0.000000 0.000000
# 5 0.000000 0.000000 0.000000 0.000000 0.022851 0.000000
# 6 0.000000 0.000000 0.000000 0.000000 0.000000 0.028716
#
#
# Mechanical properties :
#
#
# Convention : Reuss Voigt Hill
#
# Bulk Modulus (GPa) = 39.43984 64.46213 51.95098
# Shear Modulus (GPa) = 41.98641 49.32999 45.65820
#
# Velocity S-wave (km/s) = 4.61538 5.00275 4.81297
# Velocity P-wave (km/s) = 6.95788 8.12864 7.56594
#
# Compressibility (1/GPa) = 0.02535508
#
# Stress axis : x y z
#
# Youngs Moduli (GPa) = 49.76639 207.37442 123.55695
#
# Poissons Ratio (x) = 0.25005 0.09332
# Poissons Ratio (y) = 0.06001 0.23057
# Poissons Ratio (z) = 0.03759 0.38698
#
# Static dielectric constant tensor:
#      x y z
#    x 1.948800 0.000000 0.000000 
#    y 0.000000 1.717580 0.000000 
#    z 0.000000 0.000000 1.700100 
# 
# From -- ./inp_files/2214.got.cif
#   From: 2010.05.17/outbox.ucp.g08.bks.cvg/sg56_2_cif.got.tgz:2214.got - 2010.06.11 16:37:52.
