data_PCOD9433845
_publ_section_title
;
Structure prediction by ZEFSAII (Michael W. Deem and Ramdas Pophale) SiO2 
 PCOD9433845
Probable space group: P C C N
;
_chemical_formula_sum "Si O2"
_cell_formula_units_Z 32
_cell_length_a 7.809698
_cell_length_b 19.817609
_cell_length_c 7.633124
_cell_angle_alpha 90.000000
_cell_angle_beta 90.000000
_cell_angle_gamma 90.000000
_cell_volume 1181.375101
_symmetry_space_group_name_H-M "P C C N"
_symmetry_group_IT_number 56
_symmetry_cell_setting 'orthorhombic'
loop_
_space_group_symop_operation_xyz
x,y,z
1/2-x,1/2-y,z
1/2+x,-y,1/2-z
-x,1/2+y,1/2-z
-x,-y,-z
1/2+x,1/2+y,-z
1/2-x,y,1/2+z
x,1/2-y,1/2+z
loop_
_atom_site_type_symbol
_atom_site_label
_atom_site_fract_x
_atom_site_fract_y
_atom_site_fract_z
Si Si1 0.413285 0.014159 0.310766
Si Si2 0.080974 0.113252 0.294561
Si Si3 0.105935 0.689804 0.496900
Si Si4 0.928689 0.135461 0.632125
O O1 0.247939 0.064516 0.306288
O O2 0.538701 0.061940 0.202949
O O3 0.500000 0.000000 0.500000
O O4 0.429775 0.942778 0.214492
O O5 0.060049 0.152873 0.476907
O O6 0.044839 0.167158 0.137351
O O7 0.250000 0.750000 0.474241
O O8 0.244805 0.633059 0.456327
O O9 0.054072 0.684315 0.699169
#
# Coordination Sequence:
#
# PCOD9433845 Si02
#       4
#     8   8   8   8
#     4  12  26  49  81 125 179 216 275 351 441 525
#     4  12  27  49  78 122 168 223 276 352 434 518
#     4  12  27  50  80 113 153 220 291 349 422 505
#     4  12  26  47  79 114 160 216 280 342 429 504
#
# _framework density 27.087078000000002
#
# number of rings (size 3 to 8) (size 9 to 14) (size 15 to 20)
#    0.000    0.000    5.000    4.500    0.000    1.000 
#    4.500    1.250    0.000    0.000    0.000    0.000 
#    0.000    0.000    0.000    0.000    0.000    0.000 
#
# Total GULP energy -178413.317757 kJ/mol
# GULP energy per Si atom -5575.416180 kJ/mol
# Density = 2.702543 g / cm^3
# Si number density = 27.087078 Si / 1000 Ang^3
#
#
#
# Elastic Constant Matrix: (Units=GPa)
#
#
# Indices 1 2 3 4 5 6 
#
# 1 129.4983 44.8323 61.0006 0.0000 0.0000 0.0000
# 2 44.8323 86.4613 58.6308 0.0000 0.0000 0.0000
# 3 61.0006 58.6308 237.6342 0.0000 0.0000 0.0000
# 4 0.0000 0.0000 0.0000 37.3183 0.0000 0.0000
# 5 0.0000 0.0000 0.0000 0.0000 27.7511 0.0000
# 6 0.0000 0.0000 0.0000 0.0000 0.0000 54.0166
#
#
#
# Elastic Compliance Matrix: (Units=1/GPa)
#
#
# Indices 1 2 3 4 5 6 
#
# 1 0.009850 -0.004075 -0.001523 0.000000 0.000000 0.000000
# 2 -0.004075 0.015575 -0.002797 0.000000 0.000000 0.000000
# 3 -0.001523 -0.002797 0.005289 0.000000 0.000000 0.000000
# 4 0.000000 0.000000 0.000000 0.026797 0.000000 0.000000
# 5 0.000000 0.000000 0.000000 0.000000 0.036035 0.000000
# 6 0.000000 0.000000 0.000000 0.000000 0.000000 0.018513
#
#
# Mechanical properties :
#
#
# Convention : Reuss Voigt Hill
#
# Bulk Modulus (GPa) = 71.81210 86.94677 79.37944
# Shear Modulus (GPa) = 37.45597 43.09254 40.27425
#
# Velocity S-wave (km/s) = 3.72263 3.99292 3.86014
# Velocity P-wave (km/s) = 6.71167 7.30935 7.01687
#
# Compressibility (1/GPa) = 0.01392523
#
# Stress axis : x y z
#
# Youngs Moduli (GPa) = 101.51988 64.20423 189.06362
#
# Poissons Ratio (x) = 0.26161 0.28799
# Poissons Ratio (y) = 0.41366 0.52879
# Poissons Ratio (z) = 0.15464 0.17957
#
# Static dielectric constant tensor:
#      x y z
#    x 2.312080 0.000000 0.000000 
#    y 0.000000 2.286270 0.000000 
#    z 0.000000 0.000000 2.201620 
# 
# From -- ./inp_files/1926.got.cif
#   From: 2010.05.17/outbox.cif.g08.bks.cpg/sg56_1_cif.got.tgz:1926.got - 2010.06.03 13:42:01.
