data_PCOD9433447
_publ_section_title
;
Structure prediction by ZEFSAII (Michael W. Deem and Ramdas Pophale) SiO2 
 PCOD9433447
Probable space group: P C C N
;
_chemical_formula_sum "Si O2"
_cell_formula_units_Z 32
_cell_length_a 4.752118
_cell_length_b 12.578808
_cell_length_c 23.499839
_cell_angle_alpha 90.000000
_cell_angle_beta 90.000000
_cell_angle_gamma 90.000000
_cell_volume 1404.725904
_symmetry_space_group_name_H-M "P C C N"
_symmetry_group_IT_number 56
_symmetry_cell_setting 'orthorhombic'
loop_
_space_group_symop_operation_xyz
x,y,z
1/2-x,1/2-y,z
1/2+x,-y,1/2-z
-x,1/2+y,1/2-z
-x,-y,-z
1/2+x,1/2+y,-z
1/2-x,y,1/2+z
x,1/2-y,1/2+z
loop_
_atom_site_type_symbol
_atom_site_label
_atom_site_fract_x
_atom_site_fract_y
_atom_site_fract_z
Si Si1 0.004775 0.675873 0.878047
Si Si2 0.486881 0.997181 0.210447
Si Si3 0.173939 0.871870 0.606070
Si Si4 0.684498 0.509131 0.056658
O O1 0.250000 0.750000 0.854603
O O2 0.163625 0.599533 0.923497
O O3 0.750000 0.750000 0.899694
O O4 0.903549 0.598235 0.828116
O O5 0.798114 0.011315 0.233879
O O6 0.455058 0.898270 0.167773
O O7 0.250000 0.750000 0.599131
O O8 0.942709 0.907965 0.559346
O O9 0.451181 0.944882 0.599927
O O10 0.500000 0.500000 0.000000
#
# Coordination Sequence:
#
# PCOD9433447 Si02
#       4
#     8   8   8   8
#     4  11  23  42  67  99 135 175 224 279 335 401
#     4  11  23  41  65  97 135 176 223 275 332 397
#     4  11  24  44  68  99 137 178 225 281 336 401
#     4  11  24  45  70  99 134 175 227 283 339 403
#
# _framework density 22.780244
#
# number of rings (size 3 to 8) (size 9 to 14) (size 15 to 20)
#    0.000    1.000    0.000    9.000    0.000    4.000 
#    0.000    7.500    0.000    0.000    0.000    0.000 
#    0.000    0.000    0.000    0.000    0.000    0.000 
#
# Total GULP energy -178914.102485 kJ/mol
# GULP energy per Si atom -5591.065703 kJ/mol
# Density = 2.272839 g / cm^3
# Si number density = 22.780244 Si / 1000 Ang^3
#
#
#
# Elastic Constant Matrix: (Units=GPa)
#
#
# Indices 1 2 3 4 5 6 
#
# 1 147.7289 63.3007 44.1865 0.0000 0.0000 0.0000
# 2 63.3007 147.8844 57.2837 0.0000 0.0000 0.0000
# 3 44.1865 57.2837 98.8548 0.0000 0.0000 0.0000
# 4 0.0000 0.0000 0.0000 -3.2397 0.0000 0.0000
# 5 0.0000 0.0000 0.0000 0.0000 52.1814 0.0000
# 6 0.0000 0.0000 0.0000 0.0000 0.0000 57.6945
#
#
#
# Elastic Compliance Matrix: (Units=1/GPa)
#
#
# Indices 1 2 3 4 5 6 
#
# 1 0.008651 -0.002843 -0.002219 0.000000 0.000000 0.000000
# 2 -0.002843 0.009654 -0.004323 0.000000 0.000000 0.000000
# 3 -0.002219 -0.004323 0.013613 0.000000 0.000000 0.000000
# 4 0.000000 0.000000 0.000000 -0.308668 0.000000 0.000000
# 5 0.000000 0.000000 0.000000 0.000000 0.019164 0.000000
# 6 0.000000 0.000000 0.000000 0.000000 0.000000 0.017333
#
#
# Mechanical properties :
#
#
# Convention : Reuss Voigt Hill
#
# Bulk Modulus (GPa) = 76.06698 80.44555 78.25627
# Shear Modulus (GPa) = -23.03086 36.64038 6.80476
#
# Velocity S-wave (km/s) = -3.18307 4.01487 1.73021
# Velocity P-wave (km/s) = 4.46709 7.54206 6.19829
#
# Compressibility (1/GPa) = 0.01314631
#
# Stress axis : x y z
#
# Youngs Moduli (GPa) = 115.58854 103.58677 73.45943
#
# Poissons Ratio (x) = 0.29455 0.16303
# Poissons Ratio (y) = 0.32868 0.31757
# Poissons Ratio (z) = 0.25653 0.44781
#
# Static dielectric constant tensor:
#      x y z
#    x 1.850020 0.000000 0.000000 
#    y 0.000000 1.847610 0.000000 
#    z 0.000000 0.000000 1.829810 
# 
# From -- ./inp_files/19813.got.cif
#   From: 2010.05.17/outbox.cif.g08.bks.cpg/sg56_10_cif.got.tgz:19813.got - 2010.06.03 13:42:01.
