data_PCOD9433926
_publ_section_title
;
Structure prediction by ZEFSAII (Michael W. Deem and Ramdas Pophale) SiO2 
 PCOD9433926
Probable space group: P C C N
;
_chemical_formula_sum "Si O2"
_cell_formula_units_Z 64
_cell_length_a 18.000000
_cell_length_b 9.000000
_cell_length_c 21.000000
_cell_angle_alpha 90.000000
_cell_angle_beta 90.000000
_cell_angle_gamma 90.000000
_cell_volume 3402.000000
_symmetry_space_group_name_H-M "P C C N"
_symmetry_group_IT_number 56
_symmetry_cell_setting 'orthorhombic'
loop_
_space_group_symop_operation_xyz
x,y,z
1/2-x,1/2-y,z
1/2+x,-y,1/2-z
-x,1/2+y,1/2-z
-x,-y,-z
1/2+x,1/2+y,-z
1/2-x,y,1/2+z
x,1/2-y,1/2+z
loop_
_atom_site_type_symbol
_atom_site_label
_atom_site_fract_x
_atom_site_fract_y
_atom_site_fract_z
Si Si1 0.287383 0.088416 0.581933
Si Si2 0.685410 0.036137 0.656286
Si Si3 0.415779 0.693598 0.391242
Si Si4 0.718648 0.920018 0.270104
Si Si5 0.967331 0.880120 0.174727
Si Si6 0.051554 0.452142 0.784484
Si Si7 0.282612 0.585561 0.465004
Si Si8 0.535309 0.937267 0.435058
O O1 0.250000 0.250000 0.581133
O O2 0.279003 0.034375 0.655377
O O3 0.375813 0.091434 0.564075
O O4 0.241700 0.997514 0.528868
O O5 0.643025 0.192798 0.643061
O O6 0.741243 0.013995 0.596688
O O7 0.731809 0.018494 0.721468
O O8 0.618162 0.917981 0.657901
O O9 0.440589 0.570353 0.341111
O O10 0.368895 0.611198 0.446889
O O11 0.485153 0.793965 0.414738
O O12 0.750000 0.750000 0.265238
O O13 0.632863 0.928892 0.247522
O O14 0.974753 0.707951 0.191100
O O15 0.993741 0.979877 0.234159
O O16 0.018262 0.936360 0.117183
O O17 0.250000 0.750000 0.471343
O O18 0.500000 0.000000 0.500000
#
# Coordination Sequence:
#
# PCOD9433926 Si02
#       8
#     8   8   8   8   8   8   8   8
#     4  11  25  43  66  94 133 178 217 270 339 411
#     4  10  20  40  66  93 127 167 216 278 326 387
#     4  10  23  40  69  96 130 169 225 278 325 397
#     4  11  22  40  66  97 134 165 219 276 338 390
#     4  11  23  39  65  94 128 174 214 271 335 395
#     4  12  23  41  65  97 131 166 223 273 330 398
#     4  10  21  42  63  96 128 165 217 271 324 393
#     4  11  23  46  68  94 137 180 221 274 347 400
#
# _framework density 18.812463000000001
#
# number of rings (size 3 to 8) (size 9 to 14) (size 15 to 20)
#    0.000    1.250    3.750    3.750    0.000    2.500 
#    2.250    5.000    0.000    0.000    0.000    0.000 
#    0.000    0.000    0.000    0.000    0.000    0.000 
#
# Total GULP energy -357467.695247 kJ/mol
# GULP energy per Si atom -5585.432738 kJ/mol
# Density = 1.876965 g / cm^3
# Si number density = 18.812463 Si / 1000 Ang^3
#
#
#
# Elastic Constant Matrix: (Units=GPa)
#
#
# Indices 1 2 3 4 5 6 
#
# 1 65.5045 21.4844 35.3533 0.0000 0.0000 0.0000
# 2 21.4844 100.4039 64.9444 0.0000 0.0000 0.0000
# 3 35.3533 64.9444 145.2893 0.0000 0.0000 0.0000
# 4 0.0000 0.0000 0.0000 33.2916 0.0000 0.0000
# 5 0.0000 0.0000 0.0000 0.0000 30.3866 0.0000
# 6 0.0000 0.0000 0.0000 0.0000 0.0000 26.0399
#
#
#
# Elastic Compliance Matrix: (Units=1/GPa)
#
#
# Indices 1 2 3 4 5 6 
#
# 1 0.017715 -0.001410 -0.003680 0.000000 0.000000 0.000000
# 2 -0.001410 0.014123 -0.005970 0.000000 0.000000 0.000000
# 3 -0.003680 -0.005970 0.010447 0.000000 0.000000 0.000000
# 4 0.000000 0.000000 0.000000 0.030038 0.000000 0.000000
# 5 0.000000 0.000000 0.000000 0.000000 0.032909 0.000000
# 6 0.000000 0.000000 0.000000 0.000000 0.000000 0.038403
#
#
# Mechanical properties :
#
#
# Convention : Reuss Voigt Hill
#
# Bulk Modulus (GPa) = 49.59265 61.64022 55.61643
# Shear Modulus (GPa) = 28.98950 30.57131 29.78041
#
# Velocity S-wave (km/s) = 3.92978 4.03557 3.98303
# Velocity P-wave (km/s) = 6.85636 7.38588 7.12604
#
# Compressibility (1/GPa) = 0.02016428
#
# Stress axis : x y z
#
# Youngs Moduli (GPa) = 56.44975 70.80638 95.72241
#
# Poissons Ratio (x) = 0.09985 0.35228
# Poissons Ratio (y) = 0.07960 0.57145
# Poissons Ratio (z) = 0.20775 0.42271
#
# Static dielectric constant tensor:
#      x y z
#    x 1.649630 0.000000 0.000000 
#    y 0.000000 1.647490 0.000000 
#    z 0.000000 0.000000 1.671880 
# 
# From -- ./inp_files/19323.got.cif
#   From: 2010.05.17/outbox.ucp.g08.bks.cvg/sg56_10_cif.got.tgz:19323.got - 2010.06.11 16:37:52.
