data_PCOD9433512
_publ_section_title
;
Structure prediction by ZEFSAII (Michael W. Deem and Ramdas Pophale) SiO2 
 PCOD9433512
Probable space group: P C C N
;
_chemical_formula_sum "Si O2"
_cell_formula_units_Z 64
_cell_length_a 17.015475
_cell_length_b 6.667955
_cell_length_c 27.885638
_cell_angle_alpha 90.000000
_cell_angle_beta 90.000000
_cell_angle_gamma 90.000000
_cell_volume 3163.860473
_symmetry_space_group_name_H-M "P C C N"
_symmetry_group_IT_number 56
_symmetry_cell_setting 'orthorhombic'
loop_
_space_group_symop_operation_xyz
x,y,z
1/2-x,1/2-y,z
1/2+x,-y,1/2-z
-x,1/2+y,1/2-z
-x,-y,-z
1/2+x,1/2+y,-z
1/2-x,y,1/2+z
x,1/2-y,1/2+z
loop_
_atom_site_type_symbol
_atom_site_label
_atom_site_fract_x
_atom_site_fract_y
_atom_site_fract_z
Si Si1 0.339409 0.302287 0.738070
Si Si2 0.665646 0.151579 0.832800
Si Si3 0.439514 0.461376 0.170104
Si Si4 0.840011 0.699904 0.509867
Si Si5 0.392926 0.135465 0.342805
Si Si6 0.441837 0.461440 0.418192
Si Si7 0.891262 0.638950 0.909472
Si Si8 0.335533 0.651735 0.924585
O O1 0.250000 0.250000 0.723740
O O2 0.357368 0.513429 0.712368
O O3 0.346368 0.313024 0.794967
O O4 0.399790 0.140204 0.716525
O O5 0.750000 0.250000 0.825091
O O6 0.603895 0.329246 0.839425
O O7 0.665569 0.004748 0.878781
O O8 0.531522 0.505307 0.172953
O O9 0.422355 0.308141 0.126956
O O10 0.750000 0.750000 0.523824
O O11 0.852397 0.754117 0.454689
O O12 0.852691 0.471734 0.526746
O O13 0.901501 0.834520 0.539492
O O14 0.424435 0.332288 0.370450
O O15 0.343230 0.008009 0.381365
O O16 0.533700 0.505186 0.424649
O O17 0.398065 0.673709 0.416538
O O18 0.250000 0.750000 0.926459
#
# Coordination Sequence:
#
# PCOD9433512 Si02
#       8
#     8   8   8   8   8   8   8   8
#     4  11  26  42  66 100 133 172 220 272 327 396
#     4  11  24  45  66  94 137 172 214 276 328 386
#     4  11  24  45  64  96 136 168 218 272 326 389
#     4  11  25  42  66  98 130 169 225 272 329 394
#     4  11  26  42  69  99 129 179 223 267 333 400
#     4  11  23  46  65  95 134 169 219 276 327 386
#     4  11  25  43  69  96 129 176 221 266 333 401
#     4  11  24  45  66  94 139 173 214 281 328 385
#
# _framework density 20.228452999999998
#
# number of rings (size 3 to 8) (size 9 to 14) (size 15 to 20)
#    0.000    1.000    5.000    0.375    5.250    3.000 
#    0.000    0.000    0.000    0.000    0.000    0.000 
#    0.000    0.000    0.000    0.000    0.000    0.000 
#
# Total GULP energy -357854.083201 kJ/mol
# GULP energy per Si atom -5591.470050 kJ/mol
# Density = 2.018241 g / cm^3
# Si number density = 20.228453 Si / 1000 Ang^3
#
#
#
# Elastic Constant Matrix: (Units=GPa)
#
#
# Indices 1 2 3 4 5 6 
#
# 1 39.9576 22.5487 14.5798 0.0000 0.0000 0.0000
# 2 22.5487 106.2199 31.0145 0.0000 0.0000 0.0000
# 3 14.5798 31.0145 84.7971 0.0000 0.0000 0.0000
# 4 0.0000 0.0000 0.0000 5.7189 0.0000 0.0000
# 5 0.0000 0.0000 0.0000 0.0000 24.6519 0.0000
# 6 0.0000 0.0000 0.0000 0.0000 0.0000 40.9731
#
#
#
# Elastic Compliance Matrix: (Units=1/GPa)
#
#
# Indices 1 2 3 4 5 6 
#
# 1 0.029132 -0.005286 -0.003075 0.000000 0.000000 0.000000
# 2 -0.005286 0.011499 -0.003297 0.000000 0.000000 0.000000
# 3 -0.003075 -0.003297 0.013527 0.000000 0.000000 0.000000
# 4 0.000000 0.000000 0.000000 0.174859 0.000000 0.000000
# 5 0.000000 0.000000 0.000000 0.000000 0.040565 0.000000
# 6 0.000000 0.000000 0.000000 0.000000 0.000000 0.024406
#
#
# Mechanical properties :
#
#
# Convention : Reuss Voigt Hill
#
# Bulk Modulus (GPa) = 32.42398 40.80674 36.61536
# Shear Modulus (GPa) = 15.26314 25.12421 20.19367
#
# Velocity S-wave (km/s) = 2.74987 3.52806 3.16299
# Velocity P-wave (km/s) = 5.11332 6.06737 5.61066
#
# Compressibility (1/GPa) = 0.03084137
#
# Stress axis : x y z
#
# Youngs Moduli (GPa) = 34.32675 86.96207 73.92349
#
# Poissons Ratio (x) = 0.45970 0.22735
# Poissons Ratio (y) = 0.18146 0.24372
# Poissons Ratio (z) = 0.10557 0.28671
#
# Static dielectric constant tensor:
#      x y z
#    x 1.710690 0.000000 0.000000 
#    y 0.000000 1.704940 0.000000 
#    z 0.000000 0.000000 1.694230 
# 
# From -- ./inp_files/23711.got.cif
#   From: 2010.05.17/outbox.cif.g08.bks.cpg/sg56_12_cif.got.tgz:23711.got - 2010.06.03 13:42:01.
