data_PCOD9433648
_publ_section_title
;
Structure prediction by ZEFSAII (Michael W. Deem and Ramdas Pophale) SiO2 
 PCOD9433648
Probable space group: P C C N
;
_chemical_formula_sum "Si O2"
_cell_formula_units_Z 40
_cell_length_a 18.598456
_cell_length_b 10.205467
_cell_length_c 9.378216
_cell_angle_alpha 90.000000
_cell_angle_beta 90.000000
_cell_angle_gamma 90.000000
_cell_volume 1780.041000
_symmetry_space_group_name_H-M "P C C N"
_symmetry_group_IT_number 56
_symmetry_cell_setting 'orthorhombic'
loop_
_space_group_symop_operation_xyz
x,y,z
1/2-x,1/2-y,z
1/2+x,-y,1/2-z
-x,1/2+y,1/2-z
-x,-y,-z
1/2+x,1/2+y,-z
1/2-x,y,1/2+z
x,1/2-y,1/2+z
loop_
_atom_site_type_symbol
_atom_site_label
_atom_site_fract_x
_atom_site_fract_y
_atom_site_fract_z
Si Si1 0.836190 0.343052 0.190501
Si Si2 0.980421 0.506416 0.166509
Si Si3 0.076187 0.272165 0.224370
Si Si4 0.691284 0.106931 0.516996
Si Si5 0.329208 0.198576 0.474588
O O1 0.902389 0.440423 0.181180
O O2 0.812812 0.338861 0.355722
O O3 0.853775 0.201109 0.122542
O O4 0.770357 0.390466 0.089951
O O5 0.974523 0.651827 0.229843
O O6 0.036143 0.409586 0.244780
O O7 0.000000 0.500000 0.000000
O O8 0.149502 0.265362 0.314543
O O9 0.105388 0.257944 0.065140
O O10 0.668229 0.957261 0.508954
O O11 0.250000 0.250000 0.511022
#
# Coordination Sequence:
#
# PCOD9433648 Si02
#       5
#     8   8   8   8   8
#     4  11  25  46  70 112 141 195 235 306 365 438
#     4  12  28  48  74 108 153 191 248 301 365 447
#     4  12  28  49  76 110 147 201 246 300 381 434
#     4  11  25  44  76 103 146 183 251 297 380 425
#     4  12  27  48  76 109 145 190 251 313 367 439
#
# _framework density 22.471392999999999
#
# number of rings (size 3 to 8) (size 9 to 14) (size 15 to 20)
#    0.000    0.400    4.000    4.200    8.400    0.800 
#    0.000    0.000    0.000    0.000    0.000    0.000 
#    0.000    0.000    0.000    0.000    0.000    0.000 
#
# Total GULP energy -223744.694050 kJ/mol
# GULP energy per Si atom -5593.617351 kJ/mol
# Density = 2.242025 g / cm^3
# Si number density = 22.471393 Si / 1000 Ang^3
#
#
#
# Elastic Constant Matrix: (Units=GPa)
#
#
# Indices 1 2 3 4 5 6 
#
# 1 65.0065 23.9332 35.2045 0.0000 0.0000 0.0000
# 2 23.9332 109.9124 36.6456 0.0000 0.0000 0.0000
# 3 35.2045 36.6456 98.7354 0.0000 0.0000 0.0000
# 4 0.0000 0.0000 0.0000 27.4608 0.0000 0.0000
# 5 0.0000 0.0000 0.0000 0.0000 14.8813 0.0000
# 6 0.0000 0.0000 0.0000 0.0000 0.0000 41.0470
#
#
#
# Elastic Compliance Matrix: (Units=1/GPa)
#
#
# Indices 1 2 3 4 5 6 
#
# 1 0.019521 -0.002203 -0.006143 0.000000 0.000000 0.000000
# 2 -0.002203 0.010632 -0.003161 0.000000 0.000000 0.000000
# 3 -0.006143 -0.003161 0.013491 0.000000 0.000000 0.000000
# 4 0.000000 0.000000 0.000000 0.036416 0.000000 0.000000
# 5 0.000000 0.000000 0.000000 0.000000 0.067198 0.000000
# 6 0.000000 0.000000 0.000000 0.000000 0.000000 0.024362
#
#
# Mechanical properties :
#
#
# Convention : Reuss Voigt Hill
#
# Bulk Modulus (GPa) = 48.46873 51.69120 50.07996
# Shear Modulus (GPa) = 24.81285 28.53588 26.67436
#
# Velocity S-wave (km/s) = 3.32655 3.56740 3.44908
# Velocity P-wave (km/s) = 6.03080 6.32625 6.18029
#
# Compressibility (1/GPa) = 0.02063186
#
# Stress axis : x y z
#
# Youngs Moduli (GPa) = 51.22802 94.06002 74.12178
#
# Poissons Ratio (x) = 0.20717 0.45530
# Poissons Ratio (y) = 0.11283 0.23427
# Poissons Ratio (z) = 0.31468 0.29728
#
# Static dielectric constant tensor:
#      x y z
#    x 1.832180 0.000000 0.000000 
#    y 0.000000 1.847970 0.000000 
#    z 0.000000 0.000000 2.000950 
# 
# From -- ./inp_files/3894.got.cif
#   From: 2010.05.17/outbox.cif.g08.bks.cpg/sg56_2_cif.got.tgz:3894.got - 2010.06.03 13:42:01.
