data_PCOD9433734
_publ_section_title
;
Structure prediction by ZEFSAII (Michael W. Deem and Ramdas Pophale) SiO2 
 PCOD9433734
Probable space group: P C C N
;
_chemical_formula_sum "Si O2"
_cell_formula_units_Z 32
_cell_length_a 12.278338
_cell_length_b 6.533167
_cell_length_c 12.160112
_cell_angle_alpha 90.000000
_cell_angle_beta 90.000000
_cell_angle_gamma 90.000000
_cell_volume 975.440805
_symmetry_space_group_name_H-M "P C C N"
_symmetry_group_IT_number 56
_symmetry_cell_setting 'orthorhombic'
loop_
_space_group_symop_operation_xyz
x,y,z
1/2-x,1/2-y,z
1/2+x,-y,1/2-z
-x,1/2+y,1/2-z
-x,-y,-z
1/2+x,1/2+y,-z
1/2-x,y,1/2+z
x,1/2-y,1/2+z
loop_
_atom_site_type_symbol
_atom_site_label
_atom_site_fract_x
_atom_site_fract_y
_atom_site_fract_z
Si Si1 0.651300 0.097652 0.718990
Si Si2 0.904878 0.179212 0.969979
Si Si3 0.644909 0.614640 0.521149
Si Si4 0.900133 0.861688 0.768008
O O1 0.750000 0.250000 0.746832
O O2 0.650513 0.099070 0.956112
O O3 0.639489 0.091213 0.585555
O O4 0.529333 0.173849 0.748361
O O5 0.029629 0.263770 0.991964
O O6 0.891823 0.016084 0.871306
O O7 0.750000 0.750000 0.498767
O O8 0.641006 0.556054 0.650477
O O9 0.652334 0.633593 0.268689
#
# Coordination Sequence:
#
# PCOD9433734 Si02
#       4
#     8   8   8   8
#     4  12  28  57  99 145 207 264 333 422 507 610
#     4  11  27  54  94 146 205 263 337 423 497 616
#     4  11  26  57  97 144 210 264 340 422 511 609
#     4  12  26  54  95 145 201 257 344 419 498 613
#
# _framework density 32.805681999999997
#
# number of rings (size 3 to 8) (size 9 to 14) (size 15 to 20)
#    0.000    0.500    2.500    3.750    0.000    0.000 
#    0.000   15.000    5.500    0.000    0.000    7.000 
#    0.000    0.000    0.000    0.000    0.000    0.000 
#
# Total GULP energy -179937.925271 kJ/mol
# GULP energy per Si atom -5623.060165 kJ/mol
# Density = 3.273101 g / cm^3
# Si number density = 32.805682 Si / 1000 Ang^3
#
#
#
# Elastic Constant Matrix: (Units=GPa)
#
#
# Indices 1 2 3 4 5 6 
#
# 1 278.6539 186.6146 96.3355 0.0000 0.0000 0.0000
# 2 186.6146 340.6162 197.0569 0.0000 0.0000 0.0000
# 3 96.3355 197.0569 226.8620 0.0000 0.0000 0.0000
# 4 0.0000 0.0000 0.0000 120.0270 0.0000 0.0000
# 5 0.0000 0.0000 0.0000 0.0000 76.9943 0.0000
# 6 0.0000 0.0000 0.0000 0.0000 0.0000 103.4019
#
#
#
# Elastic Compliance Matrix: (Units=1/GPa)
#
#
# Indices 1 2 3 4 5 6 
#
# 1 0.005707 -0.003467 0.000588 0.000000 0.000000 0.000000
# 2 -0.003467 0.008008 -0.005483 0.000000 0.000000 0.000000
# 3 0.000588 -0.005483 0.008921 0.000000 0.000000 0.000000
# 4 0.000000 0.000000 0.000000 0.008331 0.000000 0.000000
# 5 0.000000 0.000000 0.000000 0.000000 0.012988 0.000000
# 6 0.000000 0.000000 0.000000 0.000000 0.000000 0.009671
#
#
# Mechanical properties :
#
#
# Convention : Reuss Voigt Hill
#
# Bulk Modulus (GPa) = 169.16622 200.68290 184.92456
# Shear Modulus (GPa) = 69.13546 84.49298 76.81422
#
# Velocity S-wave (km/s) = 4.59565 5.08050 4.84415
# Velocity P-wave (km/s) = 8.93521 9.78373 9.36908
#
# Compressibility (1/GPa) = 0.00591135
#
# Stress axis : x y z
#
# Youngs Moduli (GPa) = 175.21492 124.88105 112.09226
#
# Poissons Ratio (x) = 0.43297 -0.06591
# Poissons Ratio (y) = 0.60747 0.61464
# Poissons Ratio (z) = -0.10302 0.68476
#
# Static dielectric constant tensor:
#      x y z
#    x 2.638800 0.000000 0.000000 
#    y 0.000000 2.740650 0.000000 
#    z 0.000000 0.000000 2.647100 
# 
# From -- ./inp_files/7589.got.cif
#   From: 2010.05.17/outbox.cif.g08.bks.cpg/sg56_4_cif.got.tgz:7589.got - 2010.06.03 13:42:01.
