data_PCOD9433441
_publ_section_title
;
Structure prediction by ZEFSAII (Michael W. Deem and Ramdas Pophale) SiO2 
 PCOD9433441
Probable space group: P C C N
;
_chemical_formula_sum "Si O2"
_cell_formula_units_Z 36
_cell_length_a 5.280500
_cell_length_b 13.413871
_cell_length_c 20.455671
_cell_angle_alpha 90.000000
_cell_angle_beta 90.000000
_cell_angle_gamma 90.000000
_cell_volume 1448.914980
_symmetry_space_group_name_H-M "P C C N"
_symmetry_group_IT_number 56
_symmetry_cell_setting 'orthorhombic'
loop_
_space_group_symop_operation_xyz
x,y,z
1/2-x,1/2-y,z
1/2+x,-y,1/2-z
-x,1/2+y,1/2-z
-x,-y,-z
1/2+x,1/2+y,-z
1/2-x,y,1/2+z
x,1/2-y,1/2+z
loop_
_atom_site_type_symbol
_atom_site_label
_atom_site_fract_x
_atom_site_fract_y
_atom_site_fract_z
Si Si1 0.119372 0.035206 0.067676
Si Si2 0.559771 0.130262 0.219975
Si Si3 0.411078 0.588114 0.670236
Si Si4 0.750000 0.750000 0.177028
Si Si5 0.125889 0.842969 0.417937
O O1 0.379857 0.098680 0.055099
O O2 0.877114 0.092202 0.097030
O O3 0.202341 0.949295 0.118218
O O4 0.000000 0.000000 0.000000
O O5 0.813405 0.136017 0.262138
O O6 0.366457 0.167455 0.274400
O O7 0.531339 0.191472 0.153613
O O8 0.525572 0.016745 0.195182
O O9 0.565372 0.677991 0.636968
O O10 0.250000 0.750000 0.456030
#
# Coordination Sequence:
#
# PCOD9433441 Si02
#       5
#     8   8   8   4   8
#     4  11  26  47  75 104 150 202 256 316 373 448
#     4  11  23  40  69 108 149 192 244 310 389 462
#     4  11  23  41  71 104 158 198 252 307 390 455
#     4  12  24  40  68 112 152 198 244 308 392 472
#     4  11  24  43  77 110 142 188 256 317 380 453
#
# _framework density 24.84618
#
# number of rings (size 3 to 8) (size 9 to 14) (size 15 to 20)
#    0.000    0.889    2.222    4.667   12.444    0.000 
#    0.000    2.222    0.000    0.000    0.000    0.000 
#    0.000    0.000    0.000    0.000    0.000    0.000 
#
# Total GULP energy -200742.516822 kJ/mol
# GULP energy per Si atom -5576.181023 kJ/mol
# Density = 2.478963 g / cm^3
# Si number density = 24.846180 Si / 1000 Ang^3
#
#
#
# Elastic Constant Matrix: (Units=GPa)
#
#
# Indices 1 2 3 4 5 6 
#
# 1 171.0243 76.0935 29.2930 0.0000 0.0000 0.0000
# 2 76.0935 114.0579 36.5303 0.0000 0.0000 0.0000
# 3 29.2930 36.5303 72.1162 0.0000 0.0000 0.0000
# 4 0.0000 0.0000 0.0000 0.5784 0.0000 0.0000
# 5 0.0000 0.0000 0.0000 0.0000 1.5102 0.0000
# 6 0.0000 0.0000 0.0000 0.0000 0.0000 58.9781
#
#
#
# Elastic Compliance Matrix: (Units=1/GPa)
#
#
# Indices 1 2 3 4 5 6 
#
# 1 0.008343 -0.005348 -0.000680 0.000000 0.000000 0.000000
# 2 -0.005348 0.013894 -0.004865 0.000000 0.000000 0.000000
# 3 -0.000680 -0.004865 0.016607 0.000000 0.000000 0.000000
# 4 0.000000 0.000000 0.000000 1.728858 0.000000 0.000000
# 5 0.000000 0.000000 0.000000 0.000000 0.662182 0.000000
# 6 0.000000 0.000000 0.000000 0.000000 0.000000 0.016955
#
#
# Mechanical properties :
#
#
# Convention : Reuss Voigt Hill
#
# Bulk Modulus (GPa) = 58.62647 71.22578 64.92613
# Shear Modulus (GPa) = 2.02076 26.56543 14.29310
#
# Velocity S-wave (km/s) = 0.90281 3.27340 2.40107
# Velocity P-wave (km/s) = 4.97330 6.55864 5.82021
#
# Compressibility (1/GPa) = 0.01705714
#
# Stress axis : x y z
#
# Youngs Moduli (GPa) = 119.85765 71.97342 60.21489
#
# Poissons Ratio (x) = 0.38495 0.04093
# Poissons Ratio (y) = 0.64106 0.29297
# Poissons Ratio (z) = 0.08147 0.35019
#
# Static dielectric constant tensor:
#      x y z
#    x 2.380410 0.000000 0.000000 
#    y 0.000000 2.385170 0.000000 
#    z 0.000000 0.000000 1.952350 
# 
# From -- ./inp_files/19964.got.cif
#   From: 2010.05.17/outbox.cif.g08.bks.cpg/sg56_10_cif.got.tgz:19964.got - 2010.06.03 13:42:01.
