data_PCOD9433250
_publ_section_title
;
Structure prediction by ZEFSAII (Michael W. Deem and Ramdas Pophale) SiO2 
 PCOD9433250
Probable space group: P C C N
;
_chemical_formula_sum "Si O2"
_cell_formula_units_Z 56
_cell_length_a 20.855642
_cell_length_b 5.903000
_cell_length_c 20.187428
_cell_angle_alpha 90.000000
_cell_angle_beta 90.000000
_cell_angle_gamma 90.000000
_cell_volume 2485.291516
_symmetry_space_group_name_H-M "P C C N"
_symmetry_group_IT_number 56
_symmetry_cell_setting 'orthorhombic'
loop_
_space_group_symop_operation_xyz
x,y,z
1/2-x,1/2-y,z
1/2+x,-y,1/2-z
-x,1/2+y,1/2-z
-x,-y,-z
1/2+x,1/2+y,-z
1/2-x,y,1/2+z
x,1/2-y,1/2+z
loop_
_atom_site_type_symbol
_atom_site_label
_atom_site_fract_x
_atom_site_fract_y
_atom_site_fract_z
Si Si1 0.750000 0.750000 0.142291
Si Si2 0.359250 0.953468 0.083208
Si Si3 0.679639 0.138735 0.686826
Si Si4 0.503940 0.990520 0.683497
Si Si5 0.684849 0.366383 0.555651
Si Si6 0.489658 0.481939 0.661277
Si Si7 0.750000 0.750000 0.350747
Si Si8 0.645819 0.414269 0.812003
O O1 0.695590 0.624597 0.185022
O O2 0.789087 0.583439 0.094686
O O3 0.426859 0.022858 0.115340
O O4 0.343502 0.718245 0.119629
O O5 0.302151 0.120352 0.104514
O O6 0.360624 0.924464 0.004764
O O7 0.750000 0.250000 0.689560
O O8 0.656756 0.207118 0.613427
O O9 0.646420 0.241450 0.750392
O O10 0.523770 0.235341 0.653077
O O11 0.526089 0.981294 0.759924
O O12 0.519341 0.739493 0.652555
O O13 0.426122 0.007989 0.685476
O O14 0.750000 0.250000 0.528031
O O15 0.794409 0.582522 0.307962
#
# Coordination Sequence:
#
# PCOD9433250 Si02
#       8
#     4   8   8   8   8   8   4   8
#     4   8  17  35  50  64  95 155 182 218 253 341
#     4  11  21  32  50  82 112 141 177 232 278 335
#     4   9  19  34  49  69 103 144 184 214 261 338
#     4   9  18  36  54  78 106 148 186 231 273 334
#     4   9  18  32  48  70 103 143 185 210 265 332
#     4   9  18  35  56  76 109 144 190 227 278 327
#     4  12  21  31  48  80 119 135 168 228 301 327
#     4  11  22  33  50  81 112 140 178 229 283 331
#
# _framework density 22.532568999999999
#
# number of rings (size 3 to 8) (size 9 to 14) (size 15 to 20)
#    0.000    2.571    1.429    2.571    0.000    6.286 
#    0.000    0.000    0.000    0.857    0.000    1.000 
#    0.000    0.000    0.000    0.000    0.000    1.143 
#
# Total GULP energy -312265.101793 kJ/mol
# GULP energy per Si atom -5576.162532 kJ/mol
# Density = 2.248128 g / cm^3
# Si number density = 22.532569 Si / 1000 Ang^3
#
#
#
# Elastic Constant Matrix: (Units=GPa)
#
#
# Indices 1 2 3 4 5 6 
#
# 1 65.2353 14.7666 13.4667 0.0000 0.0000 0.0000
# 2 14.7666 140.3935 32.1853 0.0000 0.0000 0.0000
# 3 13.4667 32.1853 67.8566 0.0000 0.0000 0.0000
# 4 0.0000 0.0000 0.0000 15.2069 0.0000 0.0000
# 5 0.0000 0.0000 0.0000 0.0000 -60.6899 0.0000
# 6 0.0000 0.0000 0.0000 0.0000 0.0000 18.5859
#
#
#
# Elastic Compliance Matrix: (Units=1/GPa)
#
#
# Indices 1 2 3 4 5 6 
#
# 1 0.016129 -0.001080 -0.002689 0.000000 0.000000 0.000000
# 2 -0.001080 0.008064 -0.003611 0.000000 0.000000 0.000000
# 3 -0.002689 -0.003611 0.016983 0.000000 0.000000 0.000000
# 4 0.000000 0.000000 0.000000 0.065760 0.000000 0.000000
# 5 0.000000 0.000000 0.000000 0.000000 -0.016477 0.000000
# 6 0.000000 0.000000 0.000000 0.000000 0.000000 0.053804
#
#
# Mechanical properties :
#
#
# Convention : Reuss Voigt Hill
#
# Bulk Modulus (GPa) = 37.85380 43.81362 40.83371
# Shear Modulus (GPa) = 29.79259 8.82502 19.30880
#
# Velocity S-wave (km/s) = 3.64015 1.98118 2.93051
# Velocity P-wave (km/s) = 5.87398 4.97194 5.44169
#
# Compressibility (1/GPa) = 0.02641743
#
# Stress axis : x y z
#
# Youngs Moduli (GPa) = 62.00160 124.00537 58.88211
#
# Poissons Ratio (x) = 0.13393 0.15831
# Poissons Ratio (y) = 0.06697 0.21260
# Poissons Ratio (z) = 0.16670 0.44773
#
# Static dielectric constant tensor:
#      x y z
#    x 1.852590 0.000000 0.000000 
#    y 0.000000 2.021270 0.000000 
#    z 0.000000 0.000000 1.781300 
# 
# From -- ./inp_files/17697.got.cif
#   From: 2010.05.17/outbox.cif.g08.bks.cpg/sg56_9_cif.got.tgz:17697.got - 2010.06.03 13:42:01.
