data_PCOD9433636
_publ_section_title
;
Structure prediction by ZEFSAII (Michael W. Deem and Ramdas Pophale) SiO2 
 PCOD9433636
Probable space group: P C C N
;
_chemical_formula_sum "Si O2"
_cell_formula_units_Z 40
_cell_length_a 8.110480
_cell_length_b 8.482319
_cell_length_c 26.218732
_cell_angle_alpha 90.000000
_cell_angle_beta 90.000000
_cell_angle_gamma 90.000000
_cell_volume 1803.735460
_symmetry_space_group_name_H-M "P C C N"
_symmetry_group_IT_number 56
_symmetry_cell_setting 'orthorhombic'
loop_
_space_group_symop_operation_xyz
x,y,z
1/2-x,1/2-y,z
1/2+x,-y,1/2-z
-x,1/2+y,1/2-z
-x,-y,-z
1/2+x,1/2+y,-z
1/2-x,y,1/2+z
x,1/2-y,1/2+z
loop_
_atom_site_type_symbol
_atom_site_label
_atom_site_fract_x
_atom_site_fract_y
_atom_site_fract_z
Si Si1 0.253046 0.936859 0.620251
Si Si2 0.155840 0.392298 0.720445
Si Si3 0.086241 0.922138 0.413848
Si Si4 0.396642 0.648592 0.299515
Si Si5 0.060361 0.944231 0.945131
O O1 0.250000 0.750000 0.624985
O O2 0.245875 0.014985 0.676689
O O3 0.425608 0.987065 0.594369
O O4 0.092105 0.994104 0.588467
O O5 0.250000 0.250000 0.749893
O O6 0.071076 0.511243 0.759250
O O7 0.029354 0.283094 0.690391
O O8 0.145471 0.916425 0.354776
O O9 0.247339 0.995792 0.440351
O O10 0.062103 0.745454 0.435960
O O11 0.250000 0.750000 0.275775
O O12 0.000000 0.000000 0.000000
#
# Coordination Sequence:
#
# PCOD9433636 Si02
#       5
#     8   8   8   8   8
#     4  12  26  47  74 109 154 198 252 314 379 455
#     4  12  24  43  69 105 148 203 250 305 376 452
#     4  11  24  51  75 105 154 195 247 327 379 451
#     4  12  23  42  70 104 148 200 247 306 376 446
#     4  11  25  49  80 107 141 196 255 314 399 454
#
# _framework density 22.176200999999999
#
# number of rings (size 3 to 8) (size 9 to 14) (size 15 to 20)
#    0.000    0.400    6.000    2.400    5.600    1.600 
#    3.600    0.000    0.000    0.000    0.000    0.000 
#    0.000    0.000    0.000    0.000    0.000    0.000 
#
# Total GULP energy -223221.982262 kJ/mol
# GULP energy per Si atom -5580.549557 kJ/mol
# Density = 2.212573 g / cm^3
# Si number density = 22.176201 Si / 1000 Ang^3
#
#
#
# Elastic Constant Matrix: (Units=GPa)
#
#
# Indices 1 2 3 4 5 6 
#
# 1 128.8518 64.1363 26.2707 0.0000 0.0000 0.0000
# 2 64.1363 134.1310 45.6957 0.0000 0.0000 0.0000
# 3 26.2707 45.6957 113.8983 0.0000 0.0000 0.0000
# 4 0.0000 0.0000 0.0000 3.1914 0.0000 0.0000
# 5 0.0000 0.0000 0.0000 0.0000 30.1524 0.0000
# 6 0.0000 0.0000 0.0000 0.0000 0.0000 30.7540
#
#
#
# Elastic Compliance Matrix: (Units=1/GPa)
#
#
# Indices 1 2 3 4 5 6 
#
# 1 0.010206 -0.004724 -0.000459 0.000000 0.000000 0.000000
# 2 -0.004724 0.010822 -0.003252 0.000000 0.000000 0.000000
# 3 -0.000459 -0.003252 0.010190 0.000000 0.000000 0.000000
# 4 0.000000 0.000000 0.000000 0.313345 0.000000 0.000000
# 5 0.000000 0.000000 0.000000 0.000000 0.033165 0.000000
# 6 0.000000 0.000000 0.000000 0.000000 0.000000 0.032516
#
#
# Mechanical properties :
#
#
# Convention : Reuss Voigt Hill
#
# Bulk Modulus (GPa) = 69.69318 72.12073 70.90695
# Shear Modulus (GPa) = 11.57686 28.87145 20.22415
#
# Velocity S-wave (km/s) = 2.28730 3.61212 3.02317
# Velocity P-wave (km/s) = 6.20249 7.07027 6.65055
#
# Compressibility (1/GPa) = 0.01434861
#
# Stress axis : x y z
#
# Youngs Moduli (GPa) = 97.98559 92.40415 98.13168
#
# Poissons Ratio (x) = 0.43648 0.04502
# Poissons Ratio (y) = 0.46285 0.31915
# Poissons Ratio (z) = 0.04496 0.30052
#
# Static dielectric constant tensor:
#      x y z
#    x 2.060070 0.000000 0.000000 
#    y 0.000000 1.826270 0.000000 
#    z 0.000000 0.000000 1.757810 
# 
# From -- ./inp_files/20345.got.cif
#   From: 2010.05.17/outbox.cif.g08.bks.cpg/sg56_11_cif.got.tgz:20345.got - 2010.06.03 13:42:01.
