data_PCOD9433354
_publ_section_title
;
Structure prediction by ZEFSAII (Michael W. Deem and Ramdas Pophale) SiO2 
 PCOD9433354
Probable space group: P C C N
;
_chemical_formula_sum "Si O2"
_cell_formula_units_Z 64
_cell_length_a 17.753079
_cell_length_b 6.546670
_cell_length_c 27.975817
_cell_angle_alpha 90.000000
_cell_angle_beta 90.000000
_cell_angle_gamma 90.000000
_cell_volume 3251.448757
_symmetry_space_group_name_H-M "P C C N"
_symmetry_group_IT_number 56
_symmetry_cell_setting 'orthorhombic'
loop_
_space_group_symop_operation_xyz
x,y,z
1/2-x,1/2-y,z
1/2+x,-y,1/2-z
-x,1/2+y,1/2-z
-x,-y,-z
1/2+x,1/2+y,-z
1/2-x,y,1/2+z
x,1/2-y,1/2+z
loop_
_atom_site_type_symbol
_atom_site_label
_atom_site_fract_x
_atom_site_fract_y
_atom_site_fract_z
Si Si1 0.335582 0.298079 0.736329
Si Si2 0.674465 0.120369 0.849717
Si Si3 0.418542 0.490344 0.166480
Si Si4 0.077266 0.384176 0.485938
Si Si5 0.411240 0.092785 0.334739
Si Si6 0.447881 0.449360 0.404270
Si Si7 0.892280 0.674630 0.915617
Si Si8 0.335690 0.673965 0.915950
O O1 0.250000 0.250000 0.750159
O O2 0.330373 0.462054 0.693733
O O3 0.379231 0.104982 0.713251
O O4 0.378223 0.382239 0.782250
O O5 0.750000 0.250000 0.847612
O O6 0.606732 0.279073 0.842662
O O7 0.668387 0.991582 0.898578
O O8 0.508589 0.477811 0.167706
O O9 0.389436 0.360799 0.121497
O O10 0.055935 0.215317 0.446720
O O11 0.110032 0.266789 0.531762
O O12 0.135147 0.542455 0.461409
O O13 0.000000 0.500000 0.500000
O O14 0.428769 0.315284 0.357556
O O15 0.355573 0.969447 0.370187
O O16 0.528161 0.560894 0.406457
O O17 0.386754 0.625071 0.411678
O O18 0.250000 0.750000 0.918320
#
# Coordination Sequence:
#
# PCOD9433354 Si02
#       8
#     8   8   8   8   8   8   8   8
#     4  11  26  42  65  98 135 175 220 274 338 396
#     4  11  24  44  65  92 138 176 214 281 332 385
#     4  11  23  43  64  97 136 165 226 273 324 393
#     4  11  23  41  72  98 127 170 227 269 325 401
#     4  11  25  41  67 101 127 178 227 270 328 408
#     4  11  22  42  69  97 131 171 220 272 324 394
#     4  11  22  40  71  97 126 175 223 267 330 397
#     4  11  26  45  66  97 141 172 214 281 335 390
#
# _framework density 19.683534000000002
#
# number of rings (size 3 to 8) (size 9 to 14) (size 15 to 20)
#    0.000    1.000    5.000    1.125    3.500    3.000 
#    0.000    3.750    0.000    0.000    0.000    0.000 
#    0.000    0.000    0.000    0.000    0.000    0.000 
#
# Total GULP energy -357730.386153 kJ/mol
# GULP energy per Si atom -5589.537284 kJ/mol
# Density = 1.963873 g / cm^3
# Si number density = 19.683534 Si / 1000 Ang^3
#
#
#
# Elastic Constant Matrix: (Units=GPa)
#
#
# Indices 1 2 3 4 5 6 
#
# 1 67.6194 21.9511 26.4310 0.0000 0.0000 0.0000
# 2 21.9511 76.8123 12.7361 0.0000 0.0000 0.0000
# 3 26.4310 12.7361 82.4401 0.0000 0.0000 0.0000
# 4 0.0000 0.0000 0.0000 18.4481 0.0000 0.0000
# 5 0.0000 0.0000 0.0000 0.0000 16.0616 0.0000
# 6 0.0000 0.0000 0.0000 0.0000 0.0000 26.9538
#
#
#
# Elastic Compliance Matrix: (Units=1/GPa)
#
#
# Indices 1 2 3 4 5 6 
#
# 1 0.018222 -0.004350 -0.005170 0.000000 0.000000 0.000000
# 2 -0.004350 0.014400 -0.000830 0.000000 0.000000 0.000000
# 3 -0.005170 -0.000830 0.013916 0.000000 0.000000 0.000000
# 4 0.000000 0.000000 0.000000 0.054206 0.000000 0.000000
# 5 0.000000 0.000000 0.000000 0.000000 0.062260 0.000000
# 6 0.000000 0.000000 0.000000 0.000000 0.000000 0.037101
#
#
# Mechanical properties :
#
#
# Convention : Reuss Voigt Hill
#
# Bulk Modulus (GPa) = 38.70417 38.78981 38.74699
# Shear Modulus (GPa) = 21.79445 23.34293 22.56869
#
# Velocity S-wave (km/s) = 3.33114 3.44744 3.38979
# Velocity P-wave (km/s) = 5.87377 5.96624 5.92019
#
# Compressibility (1/GPa) = 0.02583701
#
# Stress axis : x y z
#
# Youngs Moduli (GPa) = 54.87975 69.44683 71.86094
#
# Poissons Ratio (x) = 0.30210 0.37152
# Poissons Ratio (y) = 0.23873 0.05964
# Poissons Ratio (z) = 0.28373 0.05763
#
# Static dielectric constant tensor:
#      x y z
#    x 1.700170 0.000000 0.000000 
#    y 0.000000 1.681960 0.000000 
#    z 0.000000 0.000000 1.673280 
# 
# From -- ./inp_files/23710.got.cif
#   From: 2010.05.17/outbox.cif.g08.bks.cpg/sg56_12_cif.got.tgz:23710.got - 2010.06.03 13:42:01.
