data_PCOD9433649
_publ_section_title
;
Structure prediction by ZEFSAII (Michael W. Deem and Ramdas Pophale) SiO2 
 PCOD9433649
Probable space group: P C C N
;
_chemical_formula_sum "Si O2"
_cell_formula_units_Z 48
_cell_length_a 14.231365
_cell_length_b 13.677946
_cell_length_c 8.780339
_cell_angle_alpha 90.000000
_cell_angle_beta 90.000000
_cell_angle_gamma 90.000000
_cell_volume 1709.144281
_symmetry_space_group_name_H-M "P C C N"
_symmetry_group_IT_number 56
_symmetry_cell_setting 'orthorhombic'
loop_
_space_group_symop_operation_xyz
x,y,z
1/2-x,1/2-y,z
1/2+x,-y,1/2-z
-x,1/2+y,1/2-z
-x,-y,-z
1/2+x,1/2+y,-z
1/2-x,y,1/2+z
x,1/2-y,1/2+z
loop_
_atom_site_type_symbol
_atom_site_label
_atom_site_fract_x
_atom_site_fract_y
_atom_site_fract_z
Si Si1 0.121429 0.408875 0.136574
Si Si2 0.643813 0.345121 0.562251
Si Si3 0.085478 0.846589 0.084697
Si Si4 0.803425 0.992254 0.067227
Si Si5 0.103812 0.316068 0.569003
Si Si6 0.519372 0.569775 0.654422
O O1 0.190718 0.462422 0.254459
O O2 0.024551 0.464120 0.191719
O O3 0.127464 0.291780 0.130395
O O4 0.109753 0.431589 0.955969
O O5 0.853534 0.267139 0.510243
O O6 0.620795 0.341926 0.741988
O O7 0.727212 0.422766 0.543127
O O8 0.562748 0.380510 0.443831
O O9 0.106774 0.950889 0.005638
O O10 0.975958 0.815799 0.062696
O O11 0.810664 0.885194 0.986025
O O12 0.049088 0.369463 0.703260
#
# Coordination Sequence:
#
# PCOD9433649 Si02
#       6
#     8   8   8   8   8   8
#     4  11  25  46  78 121 161 222 293 353 433 535
#     4  12  29  50  81 126 175 221 289 375 463 526
#     4  12  27  49  84 121 169 227 286 364 449 541
#     4  12  29  48  78 123 178 222 282 372 458 519
#     4  12  25  49  87 125 164 229 301 364 435 537
#     4  11  25  44  80 118 160 220 294 364 425 528
#
# _framework density 28.084230999999999
#
# number of rings (size 3 to 8) (size 9 to 14) (size 15 to 20)
#    0.000    0.333    3.333    4.000    7.000    1.333 
#    0.000    4.167    0.000    0.000    0.000    0.000 
#    0.000    0.000    0.000    0.000    0.000    0.000 
#
# Total GULP energy -268606.702510 kJ/mol
# GULP energy per Si atom -5595.972969 kJ/mol
# Density = 2.802031 g / cm^3
# Si number density = 28.084231 Si / 1000 Ang^3
#
#
#
# Elastic Constant Matrix: (Units=GPa)
#
#
# Indices 1 2 3 4 5 6 
#
# 1 109.4717 71.3232 55.0838 0.0000 0.0000 0.0000
# 2 71.3232 240.9410 67.1963 0.0000 0.0000 0.0000
# 3 55.0838 67.1963 180.5385 0.0000 0.0000 0.0000
# 4 0.0000 0.0000 0.0000 67.3647 0.0000 0.0000
# 5 0.0000 0.0000 0.0000 0.0000 39.1888 0.0000
# 6 0.0000 0.0000 0.0000 0.0000 0.0000 58.6024
#
#
#
# Elastic Compliance Matrix: (Units=1/GPa)
#
#
# Indices 1 2 3 4 5 6 
#
# 1 0.012391 -0.002916 -0.002695 0.000000 0.000000 0.000000
# 2 -0.002916 0.005317 -0.001089 0.000000 0.000000 0.000000
# 3 -0.002695 -0.001089 0.006767 0.000000 0.000000 0.000000
# 4 0.000000 0.000000 0.000000 0.014845 0.000000 0.000000
# 5 0.000000 0.000000 0.000000 0.000000 0.025518 0.000000
# 6 0.000000 0.000000 0.000000 0.000000 0.000000 0.017064
#
#
# Mechanical properties :
#
#
# Convention : Reuss Voigt Hill
#
# Bulk Modulus (GPa) = 90.30518 102.01754 96.16136
# Shear Modulus (GPa) = 50.50796 55.52103 53.01450
#
# Velocity S-wave (km/s) = 4.24541 4.45111 4.34948
# Velocity P-wave (km/s) = 7.50042 7.92597 7.71613
#
# Compressibility (1/GPa) = 0.01107356
#
# Stress axis : x y z
#
# Youngs Moduli (GPa) = 80.70395 188.05838 147.78127
#
# Poissons Ratio (x) = 0.54844 0.39829
# Poissons Ratio (y) = 0.23536 0.16099
# Poissons Ratio (z) = 0.21751 0.20487
#
# Static dielectric constant tensor:
#      x y z
#    x 2.473840 0.000000 0.000000 
#    y 0.000000 2.241200 0.000000 
#    z 0.000000 0.000000 2.141110 
# 
# From -- ./inp_files/4000.got.cif
#   From: 2010.05.17/outbox.cif.g08.bks.cpg/sg56_2_cif.got.tgz:4000.got - 2010.06.03 13:42:01.
