data_PCOD9433977
_publ_section_title
;
Structure prediction by ZEFSAII (Michael W. Deem and Ramdas Pophale) SiO2 
 PCOD9433977
Probable space group: P B C M
;
_chemical_formula_sum "Si O2"
_cell_formula_units_Z 48
_cell_length_a 27.933740
_cell_length_b 5.185567
_cell_length_c 16.122665
_cell_angle_alpha 90.000000
_cell_angle_beta 90.000000
_cell_angle_gamma 90.000000
_cell_volume 2335.404790
_symmetry_space_group_name_H-M "P B C M"
_symmetry_group_IT_number 57
_symmetry_cell_setting 'orthorhombic'
loop_
_space_group_symop_operation_xyz
x,y,z
-x,-y,1/2+z
x,1/2-y,-z
-x,1/2+y,1/2-z
-x,-y,-z
x,y,1/2-z
-x,1/2+y,z
x,1/2-y,1/2+z
loop_
_atom_site_type_symbol
_atom_site_label
_atom_site_fract_x
_atom_site_fract_y
_atom_site_fract_z
Si Si1 0.873902 0.001996 0.554895
Si Si2 0.726507 0.164342 0.403836
Si Si3 0.520781 0.523819 0.904698
Si Si4 0.628064 0.504627 0.944418
Si Si5 0.220016 0.159280 0.346048
Si Si6 0.029783 0.854773 0.150286
O O1 0.860023 0.250000 0.500000
O O2 0.884815 0.750000 0.500000
O O3 0.829593 0.926384 0.612808
O O4 0.920565 0.083509 0.606328
O O5 0.727306 0.250000 0.500000
O O6 0.672117 0.074514 0.386124
O O7 0.744463 0.415130 0.355268
O O8 0.759540 0.915301 0.389671
O O9 0.508641 0.253001 0.864891
O O10 0.577012 0.577338 0.906225
O O11 0.500000 0.500000 0.000000
O O12 0.618249 0.250000 0.000000
O O13 0.643723 0.750000 0.000000
O O14 0.213135 0.221343 0.250000
O O15 0.036156 0.863493 0.250000
O O16 0.991388 0.076020 0.127900
#
# Coordination Sequence:
#
# PCOD9433977 Si02
#       6
#     8   8   8   8   8   8
#     4  12  25  40  65  93 123 158 203 255 310 362
#     4  11  23  39  61  89 121 155 197 254 313 362
#     4  10  15  24  39  65 108 152 176 219 279 362
#     4  11  18  28  47  75 111 156 181 227 299 359
#     4  12  25  44  64  86 119 162 210 252 305 373
#     4  10  22  41  63  90 127 166 203 244 295 356
#
# _framework density 20.553184000000002
#
# number of rings (size 3 to 8) (size 9 to 14) (size 15 to 20)
#    0.000    1.000    3.333    7.000    0.000    2.000 
#    0.000    5.000    0.000    0.000    0.000    0.000 
#    0.000   13.333    0.000    0.000    0.000    0.000 
#
# Total GULP energy -268294.941610 kJ/mol
# GULP energy per Si atom -5589.477950 kJ/mol
# Density = 2.050640 g / cm^3
# Si number density = 20.553184 Si / 1000 Ang^3
#
#
#
# Elastic Constant Matrix: (Units=GPa)
#
#
# Indices 1 2 3 4 5 6 
#
# 1 104.9143 1.1698 34.6857 0.0000 0.0000 0.0000
# 2 1.1698 115.5203 12.2690 0.0000 0.0000 0.0000
# 3 34.6857 12.2690 43.2555 0.0000 0.0000 0.0000
# 4 0.0000 0.0000 0.0000 13.7045 0.0000 0.0000
# 5 0.0000 0.0000 0.0000 0.0000 31.9208 0.0000
# 6 0.0000 0.0000 0.0000 0.0000 0.0000 50.3526
#
#
#
# Elastic Compliance Matrix: (Units=1/GPa)
#
#
# Indices 1 2 3 4 5 6 
#
# 1 0.013084 0.001012 -0.010779 0.000000 0.000000 0.000000
# 2 0.001012 0.009004 -0.003366 0.000000 0.000000 0.000000
# 3 -0.010779 -0.003366 0.032716 0.000000 0.000000 0.000000
# 4 0.000000 0.000000 0.000000 0.072969 0.000000 0.000000
# 5 0.000000 0.000000 0.000000 0.000000 0.031328 0.000000
# 6 0.000000 0.000000 0.000000 0.000000 0.000000 0.019860
#
#
# Mechanical properties :
#
#
# Convention : Reuss Voigt Hill
#
# Bulk Modulus (GPa) = 35.03884 39.99324 37.51604
# Shear Modulus (GPa) = 23.28425 33.56661 28.42543
#
# Velocity S-wave (km/s) = 3.36948 4.04562 3.72293
# Velocity P-wave (km/s) = 5.67651 6.42833 6.06408
#
# Compressibility (1/GPa) = 0.02853976
#
# Stress axis : x y z
#
# Youngs Moduli (GPa) = 76.42990 111.06565 30.56578
#
# Poissons Ratio (x) = -0.11243 0.32946
# Poissons Ratio (y) = -0.07737 0.10287
# Poissons Ratio (z) = 0.82382 0.37380
#
# Static dielectric constant tensor:
#      x y z
#    x 1.726920 0.000000 0.000000 
#    y 0.000000 1.798470 0.000000 
#    z 0.000000 0.000000 1.701670 
# 
# From -- ./inp_files/19580.got.cif
#   From: 2010.05.17/outbox.cif.g08.bks.cpg/sg57_10_cif.got.tgz:19580.got - 2010.06.03 13:58:18.
