data_PCOD9433602
_publ_section_title
;
Structure prediction by ZEFSAII (Michael W. Deem and Ramdas Pophale) SiO2 
 PCOD9433602
Probable space group: P C C N
;
_chemical_formula_sum "Si O2"
_cell_formula_units_Z 36
_cell_length_a 11.562764
_cell_length_b 5.737644
_cell_length_c 22.704255
_cell_angle_alpha 90.000000
_cell_angle_beta 90.000000
_cell_angle_gamma 90.000000
_cell_volume 1506.268923
_symmetry_space_group_name_H-M "P C C N"
_symmetry_group_IT_number 56
_symmetry_cell_setting 'orthorhombic'
loop_
_space_group_symop_operation_xyz
x,y,z
1/2-x,1/2-y,z
1/2+x,-y,1/2-z
-x,1/2+y,1/2-z
-x,-y,-z
1/2+x,1/2+y,-z
1/2-x,y,1/2+z
x,1/2-y,1/2+z
loop_
_atom_site_type_symbol
_atom_site_label
_atom_site_fract_x
_atom_site_fract_y
_atom_site_fract_z
Si Si1 0.654327 0.553058 0.582935
Si Si2 0.750000 0.250000 0.479207
Si Si3 0.351752 0.438727 0.711303
Si Si4 0.429336 0.697865 0.112332
Si Si5 0.421324 0.811876 0.320051
O O1 0.750000 0.750000 0.597417
O O2 0.689286 0.429719 0.522760
O O3 0.527927 0.661500 0.578098
O O4 0.638704 0.364116 0.634803
O O5 0.837562 0.382295 0.435800
O O6 0.250000 0.250000 0.700295
O O7 0.368006 0.630424 0.659767
O O8 0.478921 0.323456 0.715934
O O9 0.337517 0.560884 0.774269
O O10 0.501099 0.496183 0.143897
#
# Coordination Sequence:
#
# PCOD9433602 Si02
#       5
#     8   4   8   8   8
#     4  11  27  47  72 107 146 201 254 318 377 456
#     4  12  26  48  74 104 148 204 254 314 382 454
#     4  11  24  46  76 110 152 195 248 313 386 469
#     4  11  25  48  74 109 150 195 253 313 388 455
#     4  11  24  49  74 113 150 196 251 316 385 466
#
# _framework density 23.900115
#
# number of rings (size 3 to 8) (size 9 to 14) (size 15 to 20)
#    0.000    0.889    2.222    3.333    0.000   10.667 
#    4.000    0.000    0.000    0.000    0.000    0.000 
#    0.000    0.000    0.000    0.000    0.000    0.000 
#
# Total GULP energy -201704.289254 kJ/mol
# GULP energy per Si atom -5602.896924 kJ/mol
# Density = 2.384572 g / cm^3
# Si number density = 23.900115 Si / 1000 Ang^3
#
#
#
# Elastic Constant Matrix: (Units=GPa)
#
#
# Indices 1 2 3 4 5 6 
#
# 1 97.7962 32.9600 61.7803 0.0000 0.0000 0.0000
# 2 32.9600 103.7365 64.5221 0.0000 0.0000 0.0000
# 3 61.7803 64.5221 153.4807 0.0000 0.0000 0.0000
# 4 0.0000 0.0000 0.0000 -14.5248 0.0000 0.0000
# 5 0.0000 0.0000 0.0000 0.0000 53.8719 0.0000
# 6 0.0000 0.0000 0.0000 0.0000 0.0000 72.3203
#
#
#
# Elastic Compliance Matrix: (Units=1/GPa)
#
#
# Indices 1 2 3 4 5 6 
#
# 1 0.013833 -0.001262 -0.005038 0.000000 0.000000 0.000000
# 2 -0.001262 0.013168 -0.005028 0.000000 0.000000 0.000000
# 3 -0.005038 -0.005028 0.010657 0.000000 0.000000 0.000000
# 4 0.000000 0.000000 0.000000 -0.068848 0.000000 0.000000
# 5 0.000000 0.000000 0.000000 0.000000 0.018563 0.000000
# 6 0.000000 0.000000 0.000000 0.000000 0.000000 0.013827
#
#
# Mechanical properties :
#
#
# Convention : Reuss Voigt Hill
#
# Bulk Modulus (GPa) = 66.65201 74.83758 70.74480
# Shear Modulus (GPa) = 173.27458 35.38355 104.32907
#
# Velocity S-wave (km/s) = 8.52390 3.85187 6.61414
# Velocity P-wave (km/s) = 11.17247 7.15284 9.38049
#
# Compressibility (1/GPa) = 0.01500330
#
# Stress axis : x y z
#
# Youngs Moduli (GPa) = 72.29050 75.94232 93.83534
#
# Poissons Ratio (x) = 0.09582 0.47272
# Poissons Ratio (y) = 0.09121 0.47178
# Poissons Ratio (z) = 0.36418 0.38182
#
# Static dielectric constant tensor:
#      x y z
#    x 1.925070 0.000000 0.000000 
#    y 0.000000 1.963390 0.000000 
#    z 0.000000 0.000000 1.862620 
# 
# From -- ./inp_files/20802.got.cif
#   From: 2010.05.17/outbox.cif.g08.bks.cpg/sg56_11_cif.got.tgz:20802.got - 2010.06.03 13:42:01.
