data_PCOD9433657
_publ_section_title
;
Structure prediction by ZEFSAII (Michael W. Deem and Ramdas Pophale) SiO2 
 PCOD9433657
Probable space group: P C C N
;
_chemical_formula_sum "Si O2"
_cell_formula_units_Z 32
_cell_length_a 16.191195
_cell_length_b 10.400468
_cell_length_c 7.946459
_cell_angle_alpha 90.000000
_cell_angle_beta 90.000000
_cell_angle_gamma 90.000000
_cell_volume 1338.151953
_symmetry_space_group_name_H-M "P C C N"
_symmetry_group_IT_number 56
_symmetry_cell_setting 'orthorhombic'
loop_
_space_group_symop_operation_xyz
x,y,z
1/2-x,1/2-y,z
1/2+x,-y,1/2-z
-x,1/2+y,1/2-z
-x,-y,-z
1/2+x,1/2+y,-z
1/2-x,y,1/2+z
x,1/2-y,1/2+z
loop_
_atom_site_type_symbol
_atom_site_label
_atom_site_fract_x
_atom_site_fract_y
_atom_site_fract_z
Si Si1 0.783109 0.606408 0.565618
Si Si2 0.124454 0.434465 0.084653
Si Si3 0.079847 0.935708 0.083058
Si Si4 0.456751 0.831409 0.954736
O O1 0.750000 0.750000 0.526988
O O2 0.695605 0.535373 0.550305
O O3 0.829493 0.600912 0.743423
O O4 0.845383 0.535067 0.439486
O O5 0.057088 0.326589 0.033108
O O6 0.072531 0.565848 0.093694
O O7 0.061054 0.890720 0.272084
O O8 0.089427 0.801646 0.982743
O O9 0.000000 0.000000 0.000000
#
# Coordination Sequence:
#
# PCOD9433657 Si02
#       4
#     8   8   8   8
#     4  12  25  46  73 115 154 205 255 329 393 465
#     4  11  25  45  73 111 156 203 265 322 397 466
#     4  12  25  47  78 110 159 210 262 327 393 470
#     4  11  26  47  77 112 158 209 268 321 397 472
#
# _framework density 23.913574000000001
#
# number of rings (size 3 to 8) (size 9 to 14) (size 15 to 20)
#    0.000    0.500    2.500    5.250    3.500    1.000 
#    0.000    6.250    0.000    0.000    0.000    0.000 
#    0.000    0.000    0.000    0.000    0.000    0.000 
#
# Total GULP energy -178979.778016 kJ/mol
# GULP energy per Si atom -5593.118063 kJ/mol
# Density = 2.385915 g / cm^3
# Si number density = 23.913574 Si / 1000 Ang^3
#
#
#
# Elastic Constant Matrix: (Units=GPa)
#
#
# Indices 1 2 3 4 5 6 
#
# 1 167.6896 41.7535 45.1315 0.0000 0.0000 0.0000
# 2 41.7535 137.4492 50.3746 0.0000 0.0000 0.0000
# 3 45.1315 50.3746 123.5941 0.0000 0.0000 0.0000
# 4 0.0000 0.0000 0.0000 29.9527 0.0000 0.0000
# 5 0.0000 0.0000 0.0000 0.0000 44.7324 0.0000
# 6 0.0000 0.0000 0.0000 0.0000 0.0000 37.2682
#
#
#
# Elastic Compliance Matrix: (Units=1/GPa)
#
#
# Indices 1 2 3 4 5 6 
#
# 1 0.006824 -0.001363 -0.001936 0.000000 0.000000 0.000000
# 2 -0.001363 0.008825 -0.003099 0.000000 0.000000 0.000000
# 3 -0.001936 -0.003099 0.010061 0.000000 0.000000 0.000000
# 4 0.000000 0.000000 0.000000 0.033386 0.000000 0.000000
# 5 0.000000 0.000000 0.000000 0.000000 0.022355 0.000000
# 6 0.000000 0.000000 0.000000 0.000000 0.000000 0.026833
#
#
# Mechanical properties :
#
#
# Convention : Reuss Voigt Hill
#
# Bulk Modulus (GPa) = 77.44075 78.13912 77.78994
# Shear Modulus (GPa) = 39.87684 41.82221 40.84953
#
# Velocity S-wave (km/s) = 4.08798 4.18651 4.13754
# Velocity P-wave (km/s) = 7.39838 7.49104 7.44486
#
# Compressibility (1/GPa) = 0.01291310
#
# Stress axis : x y z
#
# Youngs Moduli (GPa) = 146.54261 113.30910 99.39184
#
# Poissons Ratio (x) = 0.15448 0.19244
# Poissons Ratio (y) = 0.19979 0.30804
# Poissons Ratio (z) = 0.28373 0.35117
#
# Static dielectric constant tensor:
#      x y z
#    x 1.993500 0.000000 0.000000 
#    y 0.000000 1.994790 0.000000 
#    z 0.000000 0.000000 1.951180 
# 
# From -- ./inp_files/2444.got.cif
#   From: 2010.05.17/outbox.cif.g08.bks.cpg/sg56_2_cif.got.tgz:2444.got - 2010.06.03 13:42:01.
