data_PCOD9433063
_publ_section_title
;
Structure prediction by ZEFSAII (Michael W. Deem and Ramdas Pophale) SiO2 
 PCOD9433063
Probable space group: P C C N
;
_chemical_formula_sum "Si O2"
_cell_formula_units_Z 56
_cell_length_a 8.960147
_cell_length_b 19.200834
_cell_length_c 13.610439
_cell_angle_alpha 90.000000
_cell_angle_beta 90.000000
_cell_angle_gamma 90.000000
_cell_volume 2341.571164
_symmetry_space_group_name_H-M "P C C N"
_symmetry_group_IT_number 56
_symmetry_cell_setting 'orthorhombic'
loop_
_space_group_symop_operation_xyz
x,y,z
1/2-x,1/2-y,z
1/2+x,-y,1/2-z
-x,1/2+y,1/2-z
-x,-y,-z
1/2+x,1/2+y,-z
1/2-x,y,1/2+z
x,1/2-y,1/2+z
loop_
_atom_site_type_symbol
_atom_site_label
_atom_site_fract_x
_atom_site_fract_y
_atom_site_fract_z
Si Si1 0.213484 0.122089 0.374531
Si Si2 0.750000 0.750000 0.774994
Si Si3 0.570143 0.056641 0.929615
Si Si4 0.573288 0.926702 0.459931
Si Si5 0.779962 0.144494 0.032458
Si Si6 0.037394 0.685091 0.808952
Si Si7 0.172713 0.450159 0.205504
Si Si8 0.250000 0.750000 0.146584
O O1 0.223995 0.185423 0.298743
O O2 0.342602 0.116205 0.454130
O O3 0.243298 0.053602 0.308353
O O4 0.049967 0.117961 0.420961
O O5 0.605993 0.769101 0.838551
O O6 0.716108 0.073333 0.989874
O O7 0.605700 0.024203 0.824215
O O8 0.500000 0.000000 0.000000
O O9 0.440490 0.875196 0.426043
O O10 0.700862 0.936045 0.377205
O O11 0.500000 0.000000 0.500000
O O12 0.763259 0.188265 0.932638
O O13 0.666745 0.174987 0.112037
O O14 0.113665 0.727478 0.718922
O O15 0.960064 0.608466 0.791459
#
# Coordination Sequence:
#
# PCOD9433063 Si02
#       8
#     8   4   8   8   8   8   8   4
#     4  11  25  44  74 102 145 198 240 313 359 437
#     4  10  24  50  70 104 142 194 260 284 370 450
#     4  12  22  45  70 103 140 188 244 296 371 436
#     4  12  25  47  72 116 150 188 249 298 374 452
#     4  12  25  45  76 103 149 192 234 313 364 429
#     4  11  25  47  73 103 144 188 244 306 357 436
#     4  11  25  44  71 108 144 191 240 301 375 434
#     4  12  28  46  68 108 140 190 254 286 368 438
#
# _framework density 23.915566999999999
#
# number of rings (size 3 to 8) (size 9 to 14) (size 15 to 20)
#    0.000    0.571    4.286    3.000    2.000    6.857 
#    0.000    8.571    0.000    0.000    0.000    0.000 
#    0.000    0.000    0.000    0.000    0.000    0.000 
#
# Total GULP energy -312592.592363 kJ/mol
# GULP energy per Si atom -5582.010578 kJ/mol
# Density = 2.386113 g / cm^3
# Si number density = 23.915567 Si / 1000 Ang^3
#
#
#
# Elastic Constant Matrix: (Units=GPa)
#
#
# Indices 1 2 3 4 5 6 
#
# 1 148.1285 35.8760 25.0825 0.0000 0.0000 0.0000
# 2 35.8760 49.2065 -0.1480 0.0000 0.0000 0.0000
# 3 25.0825 -0.1480 49.6929 0.0000 0.0000 0.0000
# 4 0.0000 0.0000 0.0000 38.3249 0.0000 0.0000
# 5 0.0000 0.0000 0.0000 0.0000 38.2099 0.0000
# 6 0.0000 0.0000 0.0000 0.0000 0.0000 45.6073
#
#
#
# Elastic Compliance Matrix: (Units=1/GPa)
#
#
# Indices 1 2 3 4 5 6 
#
# 1 0.009157 -0.006691 -0.004642 0.000000 0.000000 0.000000
# 2 -0.006691 0.025211 0.003452 0.000000 0.000000 0.000000
# 3 -0.004642 0.003452 0.022477 0.000000 0.000000 0.000000
# 4 0.000000 0.000000 0.000000 0.026093 0.000000 0.000000
# 5 0.000000 0.000000 0.000000 0.000000 0.026171 0.000000
# 6 0.000000 0.000000 0.000000 0.000000 0.000000 0.021926
#
#
# Mechanical properties :
#
#
# Convention : Reuss Voigt Hill
#
# Bulk Modulus (GPa) = 24.34020 40.96098 32.65059
# Shear Modulus (GPa) = 31.15436 36.84292 33.99864
#
# Velocity S-wave (km/s) = 3.61318 3.92923 3.77452
# Velocity P-wave (km/s) = 5.25418 6.14407 5.71647
#
# Compressibility (1/GPa) = 0.04108430
#
# Stress axis : x y z
#
# Youngs Moduli (GPa) = 109.20194 39.66538 44.48994
#
# Poissons Ratio (x) = 0.26538 0.20653
# Poissons Ratio (y) = 0.73062 -0.15359
# Poissons Ratio (z) = 0.50693 -0.13693
#
# Static dielectric constant tensor:
#      x y z
#    x 1.970840 0.000000 0.000000 
#    y 0.000000 1.994400 0.000000 
#    z 0.000000 0.000000 1.886880 
# 
# From -- ./inp_files/10918.got.cif
#   From: 2010.05.17/outbox.cif.g08.bks.cpg/sg56_6_cif.got.tgz:10918.got - 2010.06.03 13:42:01.
