data_PCOD9433625
_publ_section_title
;
Structure prediction by ZEFSAII (Michael W. Deem and Ramdas Pophale) SiO2 
 PCOD9433625
Probable space group: P C C N
;
_chemical_formula_sum "Si O2"
_cell_formula_units_Z 40
_cell_length_a 13.383046
_cell_length_b 8.742607
_cell_length_c 14.736558
_cell_angle_alpha 90.000000
_cell_angle_beta 90.000000
_cell_angle_gamma 90.000000
_cell_volume 1724.217246
_symmetry_space_group_name_H-M "P C C N"
_symmetry_group_IT_number 56
_symmetry_cell_setting 'orthorhombic'
loop_
_space_group_symop_operation_xyz
x,y,z
1/2-x,1/2-y,z
1/2+x,-y,1/2-z
-x,1/2+y,1/2-z
-x,-y,-z
1/2+x,1/2+y,-z
1/2-x,y,1/2+z
x,1/2-y,1/2+z
loop_
_atom_site_type_symbol
_atom_site_label
_atom_site_fract_x
_atom_site_fract_y
_atom_site_fract_z
Si Si1 0.461500 0.967206 0.219535
Si Si2 0.342660 0.358995 0.000433
Si Si3 0.965013 0.164171 0.464961
Si Si4 0.341926 0.840523 0.388407
Si Si5 0.862544 0.699914 0.288264
O O1 0.421599 0.870754 0.133901
O O2 0.414168 0.903014 0.311210
O O3 0.579389 0.924804 0.227227
O O4 0.428719 0.143702 0.209921
O O5 0.250000 0.250000 0.983909
O O6 0.355951 0.366316 0.109413
O O7 0.443517 0.284042 0.960761
O O8 0.317143 0.515522 0.951581
O O9 0.892530 0.226288 0.541049
O O10 0.000000 0.000000 0.500000
O O11 0.250000 0.750000 0.346144
O O12 0.750000 0.750000 0.260052
#
# Coordination Sequence:
#
# PCOD9433625 Si02
#       5
#     8   8   8   8   8
#     4  12  26  48  75 112 152 201 254 323 389 467
#     4  11  24  48  75 106 150 201 254 313 388 459
#     4  12  24  46  76 108 147 199 252 314 391 461
#     4  12  28  46  74 111 153 202 259 320 386 465
#     4  11  27  47  76 112 152 200 259 319 387 463
#
# _framework density 23.198931999999999
#
# number of rings (size 3 to 8) (size 9 to 14) (size 15 to 20)
#    0.000    0.400    4.000    3.000    5.600    7.200 
#    0.000    0.000    0.000    0.000    0.000    0.000 
#    0.000    0.000    0.000    0.000    0.000    0.000 
#
# Total GULP energy -224053.895246 kJ/mol
# GULP energy per Si atom -5601.347381 kJ/mol
# Density = 2.314613 g / cm^3
# Si number density = 23.198932 Si / 1000 Ang^3
#
#
#
# Elastic Constant Matrix: (Units=GPa)
#
#
# Indices 1 2 3 4 5 6 
#
# 1 66.2337 4.5952 0.1489 0.0000 0.0000 0.0000
# 2 4.5952 60.2973 17.8429 0.0000 0.0000 0.0000
# 3 0.1489 17.8429 114.0780 0.0000 0.0000 0.0000
# 4 0.0000 0.0000 0.0000 20.4459 0.0000 0.0000
# 5 0.0000 0.0000 0.0000 0.0000 14.1072 0.0000
# 6 0.0000 0.0000 0.0000 0.0000 0.0000 38.9065
#
#
#
# Elastic Compliance Matrix: (Units=1/GPa)
#
#
# Indices 1 2 3 4 5 6 
#
# 1 0.015181 -0.001207 0.000169 0.000000 0.000000 0.000000
# 2 -0.001207 0.017485 -0.002733 0.000000 0.000000 0.000000
# 3 0.000169 -0.002733 0.009193 0.000000 0.000000 0.000000
# 4 0.000000 0.000000 0.000000 0.048909 0.000000 0.000000
# 5 0.000000 0.000000 0.000000 0.000000 0.070886 0.000000
# 6 0.000000 0.000000 0.000000 0.000000 0.000000 0.025703
#
#
# Mechanical properties :
#
#
# Convention : Reuss Voigt Hill
#
# Bulk Modulus (GPa) = 29.13977 31.75366 30.44671
# Shear Modulus (GPa) = 24.23193 29.22674 26.72934
#
# Velocity S-wave (km/s) = 3.23542 3.55326 3.39806
# Velocity P-wave (km/s) = 5.15222 5.52734 5.34307
#
# Compressibility (1/GPa) = 0.03431736
#
# Stress axis : x y z
#
# Youngs Moduli (GPa) = 65.86998 57.19089 108.77574
#
# Poissons Ratio (x) = 0.06903 -0.01838
# Poissons Ratio (y) = 0.07950 0.29732
# Poissons Ratio (z) = -0.01113 0.15632
#
# Static dielectric constant tensor:
#      x y z
#    x 1.982880 0.000000 0.000000 
#    y 0.000000 1.804230 0.000000 
#    z 0.000000 0.000000 1.896300 
# 
# From -- ./inp_files/10360.got.cif
#   From: 2010.05.17/outbox.cif.g08.bks.cpg/sg56_6_cif.got.tgz:10360.got - 2010.06.03 13:42:01.
