data_PCOD9433884
_publ_section_title
;
Structure prediction by ZEFSAII (Michael W. Deem and Ramdas Pophale) SiO2 
 PCOD9433884
Probable space group: P C C N
;
_chemical_formula_sum "Si O2"
_cell_formula_units_Z 32
_cell_length_a 13.127031
_cell_length_b 12.223504
_cell_length_c 6.907283
_cell_angle_alpha 90.000000
_cell_angle_beta 90.000000
_cell_angle_gamma 90.000000
_cell_volume 1108.330998
_symmetry_space_group_name_H-M "P C C N"
_symmetry_group_IT_number 56
_symmetry_cell_setting 'orthorhombic'
loop_
_space_group_symop_operation_xyz
x,y,z
1/2-x,1/2-y,z
1/2+x,-y,1/2-z
-x,1/2+y,1/2-z
-x,-y,-z
1/2+x,1/2+y,-z
1/2-x,y,1/2+z
x,1/2-y,1/2+z
loop_
_atom_site_type_symbol
_atom_site_label
_atom_site_fract_x
_atom_site_fract_y
_atom_site_fract_z
Si Si1 0.316570 0.140079 0.267441
Si Si2 0.852816 0.176227 0.253758
Si Si3 0.527430 0.377925 0.885356
Si Si4 0.637799 0.992257 0.077893
O O1 0.250000 0.250000 0.260604
O O2 0.407413 0.134093 0.422440
O O3 0.237681 0.041898 0.304467
O O4 0.372175 0.388531 0.564852
O O5 0.750000 0.250000 0.234256
O O6 0.893990 0.115092 0.063353
O O7 0.940792 0.264744 0.287638
O O8 0.848768 0.097206 0.439148
O O9 0.446953 0.524605 0.265833
#
# Coordination Sequence:
#
# PCOD9433884 Si02
#       4
#     8   8   8   8
#     4  12  32  57  87 122 176 227 288 351 421 509
#     4  12  28  52  88 129 172 219 283 358 427 511
#     4  12  29  55  89 126 169 226 281 354 434 506
#     4  12  30  54  85 126 172 223 284 349 428 509
#
# _framework density 28.872243000000001
#
# number of rings (size 3 to 8) (size 9 to 14) (size 15 to 20)
#    0.000    0.000    2.500    3.750   17.500    4.000 
#    0.000    0.000    0.000    0.000    0.000    0.000 
#    0.000    0.000    0.000    0.000    0.000    0.000 
#
# Total GULP energy -179634.485059 kJ/mol
# GULP energy per Si atom -5613.577658 kJ/mol
# Density = 2.880653 g / cm^3
# Si number density = 28.872243 Si / 1000 Ang^3
#
#
#
# Elastic Constant Matrix: (Units=GPa)
#
#
# Indices 1 2 3 4 5 6 
#
# 1 215.7292 79.4015 45.8273 0.0000 0.0000 0.0000
# 2 79.4015 166.8830 73.0546 0.0000 0.0000 0.0000
# 3 45.8273 73.0546 134.1780 0.0000 0.0000 0.0000
# 4 0.0000 0.0000 0.0000 50.9925 0.0000 0.0000
# 5 0.0000 0.0000 0.0000 0.0000 28.8239 0.0000
# 6 0.0000 0.0000 0.0000 0.0000 0.0000 58.0976
#
#
#
# Elastic Compliance Matrix: (Units=1/GPa)
#
#
# Indices 1 2 3 4 5 6 
#
# 1 0.005658 -0.002424 -0.000613 0.000000 0.000000 0.000000
# 2 -0.002424 0.008906 -0.004021 0.000000 0.000000 0.000000
# 3 -0.000613 -0.004021 0.009851 0.000000 0.000000 0.000000
# 4 0.000000 0.000000 0.000000 0.019611 0.000000 0.000000
# 5 0.000000 0.000000 0.000000 0.000000 0.034693 0.000000
# 6 0.000000 0.000000 0.000000 0.000000 0.000000 0.017212
#
#
# Mechanical properties :
#
#
# Convention : Reuss Voigt Hill
#
# Bulk Modulus (GPa) = 97.08866 101.48412 99.28639
# Shear Modulus (GPa) = 44.06098 48.81659 46.43878
#
# Velocity S-wave (km/s) = 3.91073 4.11637 4.01487
# Velocity P-wave (km/s) = 7.35471 7.60384 7.48031
#
# Compressibility (1/GPa) = 0.01029986
#
# Stress axis : x y z
#
# Youngs Moduli (GPa) = 176.75186 112.28917 101.50922
#
# Poissons Ratio (x) = 0.27215 0.06220
# Poissons Ratio (y) = 0.42838 0.40817
# Poissons Ratio (z) = 0.10830 0.45151
#
# Static dielectric constant tensor:
#      x y z
#    x 2.222440 0.000000 0.000000 
#    y 0.000000 2.220210 0.000000 
#    z 0.000000 0.000000 2.312550 
# 
# From -- ./inp_files/3064.got.cif
#   From: 2010.05.17/outbox.cif.g08.bks.cpg/sg56_2_cif.got.tgz:3064.got - 2010.06.03 13:42:01.
