data_PCOD9433542
_publ_section_title
;
Structure prediction by ZEFSAII (Michael W. Deem and Ramdas Pophale) SiO2 
 PCOD9433542
Probable space group: P C C N
;
_chemical_formula_sum "Si O2"
_cell_formula_units_Z 40
_cell_length_a 9.246479
_cell_length_b 11.282322
_cell_length_c 17.922830
_cell_angle_alpha 90.000000
_cell_angle_beta 90.000000
_cell_angle_gamma 90.000000
_cell_volume 1869.741052
_symmetry_space_group_name_H-M "P C C N"
_symmetry_group_IT_number 56
_symmetry_cell_setting 'orthorhombic'
loop_
_space_group_symop_operation_xyz
x,y,z
1/2-x,1/2-y,z
1/2+x,-y,1/2-z
-x,1/2+y,1/2-z
-x,-y,-z
1/2+x,1/2+y,-z
1/2-x,y,1/2+z
x,1/2-y,1/2+z
loop_
_atom_site_type_symbol
_atom_site_label
_atom_site_fract_x
_atom_site_fract_y
_atom_site_fract_z
Si Si1 0.622599 0.094089 0.019303
Si Si2 0.942322 0.994882 0.670478
Si Si3 0.745435 0.888614 0.299636
Si Si4 0.582055 0.245148 0.892349
Si Si5 0.902027 0.013077 0.928504
O O1 0.639257 0.073077 0.106873
O O2 0.578257 0.218902 0.982442
O O3 0.754309 0.057504 0.966889
O O4 0.500000 0.000000 0.000000
O O5 0.834577 0.967504 0.737626
O O6 0.994381 0.863366 0.642594
O O7 0.092124 0.062700 0.688170
O O8 0.750000 0.750000 0.280495
O O9 0.648205 0.908239 0.374497
O O10 0.750000 0.250000 0.866044
O O11 0.529124 0.378625 0.880801
O O12 0.000000 0.000000 0.000000
#
# Coordination Sequence:
#
# PCOD9433542 Si02
#       5
#     8   8   8   8   8
#     4   9  18  41  67  88 125 179 221 278 338 400
#     4  11  25  45  68  95 144 181 227 284 355 411
#     4  12  29  45  67 106 144 183 239 290 349 429
#     4   9  18  41  69  92 127 178 223 275 339 409
#     4  11  24  40  70 103 135 172 238 287 343 416
#
# _framework density 21.393336999999999
#
# number of rings (size 3 to 8) (size 9 to 14) (size 15 to 20)
#    0.000    1.600    6.000    0.000    8.400    0.000 
#    0.000    0.000    0.000    0.000    0.000    0.000 
#    0.000    0.000    0.000    0.000    0.000    0.000 
#
# Total GULP energy -222815.710552 kJ/mol
# GULP energy per Si atom -5570.392764 kJ/mol
# Density = 2.134465 g / cm^3
# Si number density = 21.393337 Si / 1000 Ang^3
#
#
#
# Elastic Constant Matrix: (Units=GPa)
#
#
# Indices 1 2 3 4 5 6 
#
# 1 9.7684 -5.4853 2.6650 0.0000 0.0000 0.0000
# 2 -5.4853 62.2366 -5.9502 0.0000 0.0000 0.0000
# 3 2.6650 -5.9502 83.6690 0.0000 0.0000 0.0000
# 4 0.0000 0.0000 0.0000 31.9459 0.0000 0.0000
# 5 0.0000 0.0000 0.0000 0.0000 36.1804 0.0000
# 6 0.0000 0.0000 0.0000 0.0000 0.0000 25.4501
#
#
#
# Elastic Compliance Matrix: (Units=1/GPa)
#
#
# Indices 1 2 3 4 5 6 
#
# 1 0.108345 0.009282 -0.002791 0.000000 0.000000 0.000000
# 2 0.009282 0.016973 0.000911 0.000000 0.000000 0.000000
# 3 -0.002791 0.000911 0.012106 0.000000 0.000000 0.000000
# 4 0.000000 0.000000 0.000000 0.031303 0.000000 0.000000
# 5 0.000000 0.000000 0.000000 0.000000 0.027639 0.000000
# 6 0.000000 0.000000 0.000000 0.000000 0.000000 0.039293
#
#
# Mechanical properties :
#
#
# Convention : Reuss Voigt Hill
#
# Bulk Modulus (GPa) = 6.56905 15.34811 10.95858
# Shear Modulus (GPa) = 18.40970 29.67824 24.04397
#
# Velocity S-wave (km/s) = 2.93667 3.72864 3.35610
# Velocity P-wave (km/s) = 3.81785 5.07216 4.48903
#
# Compressibility (1/GPa) = 0.15222903
#
# Stress axis : x y z
#
# Youngs Moduli (GPa) = 9.22977 58.91732 82.60658
#
# Poissons Ratio (x) = -0.54688 0.23055
# Poissons Ratio (y) = -0.08567 -0.07529
# Poissons Ratio (z) = 0.02576 -0.05370
#
# Static dielectric constant tensor:
#      x y z
#    x 1.705840 0.000000 0.000000 
#    y 0.000000 1.798470 0.000000 
#    z 0.000000 0.000000 1.863180 
# 
# From -- ./inp_files/14448.got.cif
#   From: 2010.05.17/outbox.cif.g08.bks.cpg/sg56_8_cif.got.tgz:14448.got - 2010.06.03 13:42:01.
