data_PCOD9433766
_publ_section_title
;
Structure prediction by ZEFSAII (Michael W. Deem and Ramdas Pophale) SiO2 
 PCOD9433766
Probable space group: P C C N
;
_chemical_formula_sum "Si O2"
_cell_formula_units_Z 32
_cell_length_a 4.796627
_cell_length_b 8.992590
_cell_length_c 31.589745
_cell_angle_alpha 90.000000
_cell_angle_beta 90.000000
_cell_angle_gamma 90.000000
_cell_volume 1362.595220
_symmetry_space_group_name_H-M "P C C N"
_symmetry_group_IT_number 56
_symmetry_cell_setting 'orthorhombic'
loop_
_space_group_symop_operation_xyz
x,y,z
1/2-x,1/2-y,z
1/2+x,-y,1/2-z
-x,1/2+y,1/2-z
-x,-y,-z
1/2+x,1/2+y,-z
1/2-x,y,1/2+z
x,1/2-y,1/2+z
loop_
_atom_site_type_symbol
_atom_site_label
_atom_site_fract_x
_atom_site_fract_y
_atom_site_fract_z
Si Si1 0.665845 0.925450 0.771852
Si Si2 0.250000 0.250000 0.541853
Si Si3 0.750000 0.250000 0.982083
Si Si4 0.361051 0.090923 0.847585
Si Si5 0.138339 0.542456 0.592057
O O1 0.750000 0.750000 0.772627
O O2 0.441471 0.973742 0.735735
O O3 0.504428 0.983515 0.813507
O O4 0.505834 0.305362 0.512807
O O5 0.173836 0.381696 0.572834
O O6 0.594584 0.361767 0.950266
O O7 0.250000 0.250000 0.830017
O O8 0.592475 0.108825 0.884095
O O9 0.098306 0.030578 0.872816
#
# Coordination Sequence:
#
# PCOD9433766 Si02
#       5
#     8   4   4   8   8
#     4  12  28  52  84 119 158 199 254 314 384 465
#     4  12  26  42  70 108 152 194 258 328 384 444
#     4  12  22  46  70 106 144 206 256 316 382 454
#     4  12  25  49  79 108 152 203 253 307 378 456
#     4  12  25  45  73 108 150 199 255 315 381 452
#
# _framework density 23.484594999999999
#
# number of rings (size 3 to 8) (size 9 to 14) (size 15 to 20)
#    0.000    0.000    2.500    7.500    1.750    2.000 
#    0.000    0.000    0.000    0.000    0.000    0.000 
#    0.000    0.000    0.000    0.000    0.000    0.000 
#
# Total GULP energy -179003.342503 kJ/mol
# GULP energy per Si atom -5593.854453 kJ/mol
# Density = 2.343114 g / cm^3
# Si number density = 23.484595 Si / 1000 Ang^3
#
#
#
# Elastic Constant Matrix: (Units=GPa)
#
#
# Indices 1 2 3 4 5 6 
#
# 1 137.8299 53.3360 64.6580 0.0000 0.0000 0.0000
# 2 53.3360 197.9582 88.1391 0.0000 0.0000 0.0000
# 3 64.6580 88.1391 126.2578 0.0000 0.0000 0.0000
# 4 0.0000 0.0000 0.0000 43.7933 0.0000 0.0000
# 5 0.0000 0.0000 0.0000 0.0000 86.8736 0.0000
# 6 0.0000 0.0000 0.0000 0.0000 0.0000 34.4003
#
#
#
# Elastic Compliance Matrix: (Units=1/GPa)
#
#
# Indices 1 2 3 4 5 6 
#
# 1 0.009595 -0.000577 -0.004511 0.000000 0.000000 0.000000
# 2 -0.000577 0.007364 -0.004846 0.000000 0.000000 0.000000
# 3 -0.004511 -0.004846 0.013613 0.000000 0.000000 0.000000
# 4 0.000000 0.000000 0.000000 0.022835 0.000000 0.000000
# 5 0.000000 0.000000 0.000000 0.000000 0.011511 0.000000
# 6 0.000000 0.000000 0.000000 0.000000 0.000000 0.029069
#
#
# Mechanical properties :
#
#
# Convention : Reuss Voigt Hill
#
# Bulk Modulus (GPa) = 93.40927 97.14577 95.27752
# Shear Modulus (GPa) = 42.58129 50.07430 46.32780
#
# Velocity S-wave (km/s) = 4.26274 4.62261 4.44631
# Velocity P-wave (km/s) = 8.00556 8.36342 8.18645
#
# Compressibility (1/GPa) = 0.01070558
#
# Stress axis : x y z
#
# Youngs Moduli (GPa) = 104.22508 135.78743 73.45818
#
# Poissons Ratio (x) = 0.07830 0.33137
# Poissons Ratio (y) = 0.06010 0.35596
# Poissons Ratio (z) = 0.47016 0.65799
#
# Static dielectric constant tensor:
#      x y z
#    x 1.881550 0.000000 0.000000 
#    y 0.000000 2.062980 0.000000 
#    z 0.000000 0.000000 1.875850 
# 
# From -- ./inp_files/22725.got.cif
#   From: 2010.05.17/outbox.cif.g08.bks.cpg/sg56_12_cif.got.tgz:22725.got - 2010.06.03 13:42:01.
