data_PCOD9433469
_publ_section_title
;
Structure prediction by ZEFSAII (Michael W. Deem and Ramdas Pophale) SiO2 
 PCOD9433469
Probable space group: P C C N
;
_chemical_formula_sum "Si O2"
_cell_formula_units_Z 32
_cell_length_a 8.078002
_cell_length_b 5.000938
_cell_length_c 37.266014
_cell_angle_alpha 90.000000
_cell_angle_beta 90.000000
_cell_angle_gamma 90.000000
_cell_volume 1505.457049
_symmetry_space_group_name_H-M "P C C N"
_symmetry_group_IT_number 56
_symmetry_cell_setting 'orthorhombic'
loop_
_space_group_symop_operation_xyz
x,y,z
1/2-x,1/2-y,z
1/2+x,-y,1/2-z
-x,1/2+y,1/2-z
-x,-y,-z
1/2+x,1/2+y,-z
1/2-x,y,1/2+z
x,1/2-y,1/2+z
loop_
_atom_site_type_symbol
_atom_site_label
_atom_site_fract_x
_atom_site_fract_y
_atom_site_fract_z
Si Si1 0.128460 0.996164 0.467630
Si Si2 0.433722 0.869253 0.651183
Si Si3 0.935553 0.134397 0.611596
Si Si4 0.936437 0.640379 0.729647
O O1 0.250000 0.250000 0.465245
O O2 0.250000 0.750000 0.473426
O O3 0.037486 0.950685 0.429586
O O4 0.000000 0.000000 0.500000
O O5 0.250000 0.750000 0.653053
O O6 0.543825 0.628384 0.635507
O O7 0.499260 0.942649 0.690524
O O8 0.448349 0.127959 0.625876
O O9 0.750000 0.250000 0.614066
O O10 0.750000 0.750000 0.728052
O O11 0.953979 0.385432 0.755408
#
# Coordination Sequence:
#
# PCOD9433469 Si02
#       4
#     8   8   8   8
#     4  11  24  43  67  97 132 172 215 266 322 385
#     4  12  25  42  65  96 128 167 216 268 320 382
#     4  11  23  43  65  92 128 171 214 262 321 383
#     4  12  25  44  67  95 130 170 213 266 323 384
#
# _framework density 21.256004000000001
#
# number of rings (size 3 to 8) (size 9 to 14) (size 15 to 20)
#    0.000    0.500    0.000   10.500    0.000    3.000 
#    0.000    0.000    0.000    0.000    0.000    0.000 
#    0.000    0.000    0.000    0.000    0.000    0.000 
#
# Total GULP energy -179255.824003 kJ/mol
# GULP energy per Si atom -5601.744500 kJ/mol
# Density = 2.120762 g / cm^3
# Si number density = 21.256004 Si / 1000 Ang^3
#
#
#
# Elastic Constant Matrix: (Units=GPa)
#
#
# Indices 1 2 3 4 5 6 
#
# 1 69.7073 12.2112 46.2570 0.0000 0.0000 0.0000
# 2 12.2112 134.7625 39.2921 0.0000 0.0000 0.0000
# 3 46.2570 39.2921 138.3262 0.0000 0.0000 0.0000
# 4 0.0000 0.0000 0.0000 35.9875 0.0000 0.0000
# 5 0.0000 0.0000 0.0000 0.0000 31.3913 0.0000
# 6 0.0000 0.0000 0.0000 0.0000 0.0000 24.6085
#
#
#
# Elastic Compliance Matrix: (Units=1/GPa)
#
#
# Indices 1 2 3 4 5 6 
#
# 1 0.018439 0.000138 -0.006206 0.000000 0.000000 0.000000
# 2 0.000138 0.008092 -0.002345 0.000000 0.000000 0.000000
# 3 -0.006206 -0.002345 0.009970 0.000000 0.000000 0.000000
# 4 0.000000 0.000000 0.000000 0.027787 0.000000 0.000000
# 5 0.000000 0.000000 0.000000 0.000000 0.031856 0.000000
# 6 0.000000 0.000000 0.000000 0.000000 0.000000 0.040636
#
#
# Mechanical properties :
#
#
# Convention : Reuss Voigt Hill
#
# Bulk Modulus (GPa) = 50.81872 59.81295 55.31583
# Shear Modulus (GPa) = 31.21798 34.73317 32.97557
#
# Velocity S-wave (km/s) = 3.83648 4.04671 3.94300
# Velocity P-wave (km/s) = 6.60186 7.07354 6.84176
#
# Compressibility (1/GPa) = 0.01967779
#
# Stress axis : x y z
#
# Youngs Moduli (GPa) = 54.23174 123.58552 100.29601
#
# Poissons Ratio (x) = -0.01711 0.62239
# Poissons Ratio (y) = -0.00751 0.23517
# Poissons Ratio (z) = 0.33654 0.28978
#
# Static dielectric constant tensor:
#      x y z
#    x 1.743300 0.000000 0.000000 
#    y 0.000000 1.735100 0.000000 
#    z 0.000000 0.000000 1.771700 
# 
# From -- ./inp_files/22660.got.cif
#   From: 2010.05.17/outbox.cif.g08.bks.cpg/sg56_12_cif.got.tgz:22660.got - 2010.06.03 13:42:01.
