data_PCOD9433571
_publ_section_title
;
Structure prediction by ZEFSAII (Michael W. Deem and Ramdas Pophale) SiO2 
 PCOD9433571
Probable space group: P C C N
;
_chemical_formula_sum "Si O2"
_cell_formula_units_Z 32
_cell_length_a 22.902218
_cell_length_b 5.507392
_cell_length_c 8.534067
_cell_angle_alpha 90.000000
_cell_angle_beta 90.000000
_cell_angle_gamma 90.000000
_cell_volume 1076.414605
_symmetry_space_group_name_H-M "P C C N"
_symmetry_group_IT_number 56
_symmetry_cell_setting 'orthorhombic'
loop_
_space_group_symop_operation_xyz
x,y,z
1/2-x,1/2-y,z
1/2+x,-y,1/2-z
-x,1/2+y,1/2-z
-x,-y,-z
1/2+x,1/2+y,-z
1/2-x,y,1/2+z
x,1/2-y,1/2+z
loop_
_atom_site_type_symbol
_atom_site_label
_atom_site_fract_x
_atom_site_fract_y
_atom_site_fract_z
Si Si1 0.435701 0.217740 0.844285
Si Si2 0.060493 0.784333 0.650412
Si Si3 0.685541 0.273802 0.829002
Si Si4 0.687946 0.620793 0.049749
O O1 0.440423 0.461535 0.741249
O O2 0.498151 0.233486 0.936000
O O3 0.373823 0.247969 0.926372
O O4 0.435973 0.958890 0.756646
O O5 0.125524 0.788509 0.579472
O O6 0.750000 0.250000 0.902851
O O7 0.687226 0.107457 0.674961
O O8 0.683960 0.562677 0.860820
O O9 0.750000 0.750000 0.071566
#
# Coordination Sequence:
#
# PCOD9433571 Si02
#       4
#     8   8   8   8
#     4   9  19  39  66 101 144 187 237 299 367 436
#     4   9  19  38  67 102 142 188 238 298 366 439
#     4  11  24  44  69 101 142 188 243 301 365 435
#     4  11  25  45  72 104 145 193 246 306 372 443
#
# _framework density 29.728318999999999
#
# number of rings (size 3 to 8) (size 9 to 14) (size 15 to 20)
#    0.000    2.000    0.000    2.250    0.000    8.000 
#    0.000    1.250    0.000   42.000    0.000    0.000 
#    0.000    0.000    0.000    0.000    0.000    0.000 
#
# Total GULP energy -178300.222644 kJ/mol
# GULP energy per Si atom -5571.881958 kJ/mol
# Density = 2.966066 g / cm^3
# Si number density = 29.728319 Si / 1000 Ang^3
#
#
#
# Elastic Constant Matrix: (Units=GPa)
#
#
# Indices 1 2 3 4 5 6 
#
# 1 380.7564 41.3720 76.1410 0.0000 0.0000 0.0000
# 2 41.3720 211.1226 93.7764 0.0000 0.0000 0.0000
# 3 76.1410 93.7764 75.5781 0.0000 0.0000 0.0000
# 4 0.0000 0.0000 0.0000 83.9858 0.0000 0.0000
# 5 0.0000 0.0000 0.0000 0.0000 -18.3740 0.0000
# 6 0.0000 0.0000 0.0000 0.0000 0.0000 39.2951
#
#
#
# Elastic Compliance Matrix: (Units=1/GPa)
#
#
# Indices 1 2 3 4 5 6 
#
# 1 0.003646 0.002043 -0.006208 0.000000 0.000000 0.000000
# 2 0.002043 0.011697 -0.016572 0.000000 0.000000 0.000000
# 3 -0.006208 -0.016572 0.040047 0.000000 0.000000 0.000000
# 4 0.000000 0.000000 0.000000 0.011907 0.000000 0.000000
# 5 0.000000 0.000000 0.000000 0.000000 -0.054425 0.000000
# 6 0.000000 0.000000 0.000000 0.000000 0.000000 0.025448
#
#
# Mechanical properties :
#
#
# Convention : Reuss Voigt Hill
#
# Bulk Modulus (GPa) = 71.85421 121.11508 96.48465
# Shear Modulus (GPa) = 59.21869 51.39257 55.30563
#
# Velocity S-wave (km/s) = 4.46802 4.16232 4.31788
# Velocity P-wave (km/s) = 7.13024 7.99556 7.57527
#
# Compressibility (1/GPa) = 0.01391707
#
# Stress axis : x y z
#
# Youngs Moduli (GPa) = 274.29172 85.49144 24.97044
#
# Poissons Ratio (x) = -0.17465 0.15501
# Poissons Ratio (y) = -0.56036 0.41380
# Poissons Ratio (z) = 1.70273 1.41674
#
# Static dielectric constant tensor:
#      x y z
#    x 2.285180 0.000000 0.000000 
#    y 0.000000 2.491450 0.000000 
#    z 0.000000 0.000000 2.329050 
# 
# From -- ./inp_files/5495.got.cif
#   From: 2010.05.17/outbox.cif.g08.bks.cpg/sg56_3_cif.got.tgz:5495.got - 2010.06.03 13:42:01.
