data_PCOD9433451
_publ_section_title
;
Structure prediction by ZEFSAII (Michael W. Deem and Ramdas Pophale) SiO2 
 PCOD9433451
Probable space group: P C C N
;
_chemical_formula_sum "Si O2"
_cell_formula_units_Z 32
_cell_length_a 7.880396
_cell_length_b 15.498328
_cell_length_c 11.501221
_cell_angle_alpha 90.000000
_cell_angle_beta 90.000000
_cell_angle_gamma 90.000000
_cell_volume 1404.678187
_symmetry_space_group_name_H-M "P C C N"
_symmetry_group_IT_number 56
_symmetry_cell_setting 'orthorhombic'
loop_
_space_group_symop_operation_xyz
x,y,z
1/2-x,1/2-y,z
1/2+x,-y,1/2-z
-x,1/2+y,1/2-z
-x,-y,-z
1/2+x,1/2+y,-z
1/2-x,y,1/2+z
x,1/2-y,1/2+z
loop_
_atom_site_type_symbol
_atom_site_label
_atom_site_fract_x
_atom_site_fract_y
_atom_site_fract_z
Si Si1 0.308338 0.846876 0.426259
Si Si2 0.568267 0.072018 0.248770
Si Si3 0.209674 0.007074 0.573854
Si Si4 0.351924 0.339359 0.940923
O O1 0.250000 0.750000 0.441877
O O2 0.234949 0.882130 0.304556
O O3 0.221979 0.912620 0.517592
O O4 0.506100 0.841348 0.457559
O O5 0.632606 0.998458 0.336205
O O6 0.453252 0.032018 0.148018
O O7 0.452415 0.138525 0.322287
O O8 0.236843 0.078804 0.475089
O O9 0.250000 0.250000 0.936750
#
# Coordination Sequence:
#
# PCOD9433451 Si02
#       4
#     8   8   8   8
#     4  11  24  42  65  97 133 174 224 280 337 401
#     4  11  23  41  71 100 134 183 227 279 343 403
#     4  11  23  44  67  97 137 177 224 280 338 404
#     4  11  25  45  67  98 136 178 227 281 340 406
#
# _framework density 22.781018
#
# number of rings (size 3 to 8) (size 9 to 14) (size 15 to 20)
#    0.000    1.000    0.000    8.250    0.000    9.000 
#    0.000    5.000    0.000    0.000    0.000    0.000 
#    0.000    0.000    0.000    0.000    0.000    0.000 
#
# Total GULP energy -178901.504902 kJ/mol
# GULP energy per Si atom -5590.672028 kJ/mol
# Density = 2.272917 g / cm^3
# Si number density = 22.781018 Si / 1000 Ang^3
#
#
#
# Elastic Constant Matrix: (Units=GPa)
#
#
# Indices 1 2 3 4 5 6 
#
# 1 97.3665 41.0091 38.5491 0.0000 0.0000 0.0000
# 2 41.0091 130.6753 25.6071 0.0000 0.0000 0.0000
# 3 38.5491 25.6071 79.3259 0.0000 0.0000 0.0000
# 4 0.0000 0.0000 0.0000 35.2326 0.0000 0.0000
# 5 0.0000 0.0000 0.0000 0.0000 42.6922 0.0000
# 6 0.0000 0.0000 0.0000 0.0000 0.0000 22.6361
#
#
#
# Elastic Compliance Matrix: (Units=1/GPa)
#
#
# Indices 1 2 3 4 5 6 
#
# 1 0.013895 -0.003243 -0.005706 0.000000 0.000000 0.000000
# 2 -0.003243 0.008926 -0.001306 0.000000 0.000000 0.000000
# 3 -0.005706 -0.001306 0.015800 0.000000 0.000000 0.000000
# 4 0.000000 0.000000 0.000000 0.028383 0.000000 0.000000
# 5 0.000000 0.000000 0.000000 0.000000 0.023423 0.000000
# 6 0.000000 0.000000 0.000000 0.000000 0.000000 0.044177
#
#
# Mechanical properties :
#
#
# Convention : Reuss Voigt Hill
#
# Bulk Modulus (GPa) = 55.20675 57.52205 56.36440
# Shear Modulus (GPa) = 31.02681 33.59235 32.30958
#
# Velocity S-wave (km/s) = 3.69448 3.84419 3.77007
# Velocity P-wave (km/s) = 6.51806 6.70884 6.61414
#
# Compressibility (1/GPa) = 0.01811373
#
# Stress axis : x y z
#
# Youngs Moduli (GPa) = 71.96727 112.03225 63.28928
#
# Poissons Ratio (x) = 0.36327 0.36111
# Poissons Ratio (y) = 0.23336 0.08263
# Poissons Ratio (z) = 0.41063 0.14627
#
# Static dielectric constant tensor:
#      x y z
#    x 1.950560 0.000000 0.000000 
#    y 0.000000 1.793940 0.000000 
#    z 0.000000 0.000000 1.917660 
# 
# From -- ./inp_files/10145.got.cif
#   From: 2010.05.17/outbox.cif.g08.bks.cpg/sg56_6_cif.got.tgz:10145.got - 2010.06.03 13:42:01.
