data_PCOD9433948
_publ_section_title
;
Structure prediction by ZEFSAII (Michael W. Deem and Ramdas Pophale) SiO2 
 PCOD9433948
Probable space group: P C C N
;
_chemical_formula_sum "Si O2"
_cell_formula_units_Z 48
_cell_length_a 9.000000
_cell_length_b 30.000000
_cell_length_c 9.000000
_cell_angle_alpha 90.000000
_cell_angle_beta 90.000000
_cell_angle_gamma 90.000000
_cell_volume 2430.000000
_symmetry_space_group_name_H-M "P C C N"
_symmetry_group_IT_number 56
_symmetry_cell_setting 'orthorhombic'
loop_
_space_group_symop_operation_xyz
x,y,z
1/2-x,1/2-y,z
1/2+x,-y,1/2-z
-x,1/2+y,1/2-z
-x,-y,-z
1/2+x,1/2+y,-z
1/2-x,y,1/2+z
x,1/2-y,1/2+z
loop_
_atom_site_type_symbol
_atom_site_label
_atom_site_fract_x
_atom_site_fract_y
_atom_site_fract_z
Si Si1 0.154169 0.373918 0.629179
Si Si2 0.607731 0.037796 0.930170
Si Si3 0.097494 0.224962 0.112285
Si Si4 0.046291 0.131045 0.463724
Si Si5 0.429416 0.542254 0.919853
Si Si6 0.404458 0.722476 0.603532
O O1 0.115753 0.325839 0.561258
O O2 0.328015 0.375905 0.588837
O O3 0.131442 0.366920 0.805348
O O4 0.044682 0.414871 0.579504
O O5 0.538622 0.085308 0.962963
O O6 0.605536 0.031978 0.752434
O O7 0.771936 0.043835 0.996328
O O8 0.500000 0.000000 0.000000
O O9 0.250000 0.250000 0.164406
O O10 0.959837 0.223362 0.227216
O O11 0.038714 0.252718 0.976224
O O12 0.928372 0.172237 0.461921
O O13 0.500000 0.500000 0.000000
O O14 0.250000 0.750000 0.585782
#
# Coordination Sequence:
#
# PCOD9433948 Si02
#       6
#     8   8   8   8   8   8
#     4  10  23  40  63  93 126 164 218 263 320 390
#     4  11  24  43  66  96 132 169 217 269 333 397
#     4  11  22  41  64  92 125 172 219 267 326 392
#     4  10  23  42  62  94 128 167 214 269 324 393
#     4  11  24  43  67  96 129 172 216 271 330 396
#     4  11  24  40  62  93 130 169 216 269 332 391
#
# _framework density 19.753086
#
# number of rings (size 3 to 8) (size 9 to 14) (size 15 to 20)
#    0.000    1.333    1.667    3.000    4.667    5.333 
#    3.000    0.000    0.000    0.000    0.000    0.000 
#    0.000    0.000    0.000    0.000    0.000    0.000 
#
# Total GULP energy -267208.565800 kJ/mol
# GULP energy per Si atom -5566.845121 kJ/mol
# Density = 1.970813 g / cm^3
# Si number density = 19.753086 Si / 1000 Ang^3
#
#
#
# Elastic Constant Matrix: (Units=GPa)
#
#
# Indices 1 2 3 4 5 6 
#
# 1 117.5841 56.4025 39.7951 0.0000 0.0000 0.0000
# 2 56.4025 122.9109 64.2618 0.0000 0.0000 0.0000
# 3 39.7951 64.2618 29.6143 0.0000 0.0000 0.0000
# 4 0.0000 0.0000 0.0000 24.1600 0.0000 0.0000
# 5 0.0000 0.0000 0.0000 0.0000 24.3837 0.0000
# 6 0.0000 0.0000 0.0000 0.0000 0.0000 19.8174
#
#
#
# Elastic Compliance Matrix: (Units=1/GPa)
#
#
# Indices 1 2 3 4 5 6 
#
# 1 0.008449 -0.015304 0.021856 0.000000 0.000000 0.000000
# 2 -0.015304 -0.032757 0.091646 0.000000 0.000000 0.000000
# 3 0.021856 0.091646 -0.194471 0.000000 0.000000 0.000000
# 4 0.000000 0.000000 0.000000 0.041391 0.000000 0.000000
# 5 0.000000 0.000000 0.000000 0.000000 0.041011 0.000000
# 6 0.000000 0.000000 0.000000 0.000000 0.000000 0.050461
#
#
# Mechanical properties :
#
#
# Convention : Reuss Voigt Hill
#
# Bulk Modulus (GPa) = -44.67755 65.66979 10.49612
# Shear Modulus (GPa) = -17.25485 20.98221 1.86368
#
# Velocity S-wave (km/s) = -2.95876 3.26271 0.97239
# Velocity P-wave (km/s) = 5.85998 6.89284 2.56630
#
# Compressibility (1/GPa) = -0.02238260
#
# Stress axis : x y z
#
# Youngs Moduli (GPa) = 118.36294 -30.52807 -5.14216
#
# Poissons Ratio (x) = -0.46720 0.11239
# Poissons Ratio (y) = 1.81143 0.47126
# Poissons Ratio (z) = -2.58695 2.79778
#
# Static dielectric constant tensor:
#      x y z
#    x 1.877970 0.000000 0.000000 
#    y 0.000000 1.744790 0.000000 
#    z 0.000000 0.000000 1.620170 
# 
# From -- ./inp_files/2216.got.cif
#   From: 2010.05.17/outbox.ucp.g08.bks.cvg/sg56_2_cif.got.tgz:2216.got - 2010.06.11 16:37:52.
