data_PCOD9433290
_publ_section_title
;
Structure prediction by ZEFSAII (Michael W. Deem and Ramdas Pophale) SiO2 
 PCOD9433290
Probable space group: P C C N
;
_chemical_formula_sum "Si O2"
_cell_formula_units_Z 48
_cell_length_a 7.600126
_cell_length_b 18.164886
_cell_length_c 14.903303
_cell_angle_alpha 90.000000
_cell_angle_beta 90.000000
_cell_angle_gamma 90.000000
_cell_volume 2057.481790
_symmetry_space_group_name_H-M "P C C N"
_symmetry_group_IT_number 56
_symmetry_cell_setting 'orthorhombic'
loop_
_space_group_symop_operation_xyz
x,y,z
1/2-x,1/2-y,z
1/2+x,-y,1/2-z
-x,1/2+y,1/2-z
-x,-y,-z
1/2+x,1/2+y,-z
1/2-x,y,1/2+z
x,1/2-y,1/2+z
loop_
_atom_site_type_symbol
_atom_site_label
_atom_site_fract_x
_atom_site_fract_y
_atom_site_fract_z
Si Si1 0.031326 0.723984 0.002697
Si Si2 0.831382 0.631935 0.490357
Si Si3 0.752886 0.832306 0.803711
Si Si4 0.119501 0.483405 0.913448
Si Si5 0.637983 0.140124 0.173263
Si Si6 0.434054 0.647257 0.679137
O O1 0.848039 0.678358 0.004969
O O2 0.988055 0.810592 0.007692
O O3 0.120617 0.695557 0.911180
O O4 0.120739 0.691537 0.091092
O O5 0.829200 0.616192 0.383164
O O6 0.791673 0.561823 0.552521
O O7 0.750000 0.750000 0.843897
O O8 0.556071 0.856599 0.781971
O O9 0.883145 0.824193 0.721211
O O10 0.167891 0.559330 0.866917
O O11 0.992727 0.434692 0.849876
O O12 0.000000 0.500000 0.000000
O O13 0.711864 0.344558 0.244779
#
# Coordination Sequence:
#
# PCOD9433290 Si02
#       6
#     8   8   8   8   8   8
#     4   9  18  42  69  96 146 188 241 298 367 431
#     4   9  17  38  72  97 132 198 233 292 373 432
#     4  11  22  42  73  98 141 193 241 302 373 432
#     4  11  21  41  73 101 151 193 239 301 372 439
#     4  11  23  45  70 106 147 189 241 313 361 442
#     4  11  26  39  71 107 141 191 248 299 368 443
#
# _framework density 23.329491000000001
#
# number of rings (size 3 to 8) (size 9 to 14) (size 15 to 20)
#    0.000    1.667    8.333    0.000    7.000    0.667 
#    0.000    5.833    3.667    0.000    0.000    0.000 
#    0.000    0.000    0.000    0.000    0.000    0.000 
#
# Total GULP energy -268289.717613 kJ/mol
# GULP energy per Si atom -5589.369117 kJ/mol
# Density = 2.327639 g / cm^3
# Si number density = 23.329491 Si / 1000 Ang^3
#
#
#
# Elastic Constant Matrix: (Units=GPa)
#
#
# Indices 1 2 3 4 5 6 
#
# 1 100.4133 44.3760 69.3202 0.0000 0.0000 0.0000
# 2 44.3760 103.6864 32.6652 0.0000 0.0000 0.0000
# 3 69.3202 32.6652 138.8301 0.0000 0.0000 0.0000
# 4 0.0000 0.0000 0.0000 61.1835 0.0000 0.0000
# 5 0.0000 0.0000 0.0000 0.0000 37.7056 0.0000
# 6 0.0000 0.0000 0.0000 0.0000 0.0000 25.4830
#
#
#
# Elastic Compliance Matrix: (Units=1/GPa)
#
#
# Indices 1 2 3 4 5 6 
#
# 1 0.017362 -0.005076 -0.007475 0.000000 0.000000 0.000000
# 2 -0.005076 0.011901 -0.000266 0.000000 0.000000 0.000000
# 3 -0.007475 -0.000266 0.010998 0.000000 0.000000 0.000000
# 4 0.000000 0.000000 0.000000 0.016344 0.000000 0.000000
# 5 0.000000 0.000000 0.000000 0.000000 0.026521 0.000000
# 6 0.000000 0.000000 0.000000 0.000000 0.000000 0.039242
#
#
# Mechanical properties :
#
#
# Convention : Reuss Voigt Hill
#
# Bulk Modulus (GPa) = 68.36269 70.62805 69.49537
# Shear Modulus (GPa) = 32.70597 37.97900 35.34248
#
# Velocity S-wave (km/s) = 3.74828 4.03915 3.89643
# Velocity P-wave (km/s) = 6.93538 7.21754 7.07787
#
# Compressibility (1/GPa) = 0.01462786
#
# Stress axis : x y z
#
# Youngs Moduli (GPa) = 57.59558 84.02992 90.92592
#
# Poissons Ratio (x) = 0.42653 0.67968
# Poissons Ratio (y) = 0.29235 0.02415
# Poissons Ratio (z) = 0.43053 0.02232
#
# Static dielectric constant tensor:
#      x y z
#    x 1.952620 0.000000 0.000000 
#    y 0.000000 1.933480 0.000000 
#    z 0.000000 0.000000 1.987300 
# 
# From -- ./inp_files/11750.got.cif
#   From: 2010.05.17/outbox.cif.g08.bks.cpg/sg56_6_cif.got.tgz:11750.got - 2010.06.03 13:42:01.
