data_PCOD9433323
_publ_section_title
;
Structure prediction by ZEFSAII (Michael W. Deem and Ramdas Pophale) SiO2 
 PCOD9433323
Probable space group: P C C N
;
_chemical_formula_sum "Si O2"
_cell_formula_units_Z 48
_cell_length_a 19.241208
_cell_length_b 8.732854
_cell_length_c 14.101911
_cell_angle_alpha 90.000000
_cell_angle_beta 90.000000
_cell_angle_gamma 90.000000
_cell_volume 2369.553416
_symmetry_space_group_name_H-M "P C C N"
_symmetry_group_IT_number 56
_symmetry_cell_setting 'orthorhombic'
loop_
_space_group_symop_operation_xyz
x,y,z
1/2-x,1/2-y,z
1/2+x,-y,1/2-z
-x,1/2+y,1/2-z
-x,-y,-z
1/2+x,1/2+y,-z
1/2-x,y,1/2+z
x,1/2-y,1/2+z
loop_
_atom_site_type_symbol
_atom_site_label
_atom_site_fract_x
_atom_site_fract_y
_atom_site_fract_z
Si Si1 0.598012 0.408604 0.694775
Si Si2 0.791926 0.884844 0.721437
Si Si3 0.029170 0.557840 0.099342
Si Si4 0.851149 0.907456 0.286875
Si Si5 0.431994 0.588978 0.096027
Si Si6 0.422626 0.570356 0.887118
O O1 0.664356 0.501448 0.657843
O O2 0.528504 0.504198 0.674742
O O3 0.611214 0.405270 0.807427
O O4 0.588462 0.241470 0.651952
O O5 0.750000 0.750000 0.666129
O O6 0.729432 0.960682 0.781291
O O7 0.842784 0.777117 0.785290
O O8 0.101251 0.479140 0.131672
O O9 0.036343 0.739530 0.092533
O O10 0.000000 0.500000 0.000000
O O11 0.886755 0.958712 0.188208
O O12 0.495800 0.470836 0.106874
O O13 0.396124 0.558282 0.995262
#
# Coordination Sequence:
#
# PCOD9433323 Si02
#       6
#     8   8   8   8   8   8
#     4  12  21  39  67  91 124 176 209 275 320 393
#     4   8  23  42  70  86 128 180 216 264 339 397
#     4  12  23  38  66  97 132 167 226 272 332 394
#     4   9  20  43  63  92 125 172 214 273 326 390
#     4  11  23  36  57 100 126 165 205 274 326 382
#     4  11  22  35  62  93 128 158 211 260 331 380
#
# _framework density 20.256981
#
# number of rings (size 3 to 8) (size 9 to 14) (size 15 to 20)
#    1.000    0.333    5.000    1.000    2.333    0.667 
#    0.000    1.667   11.000    0.000    0.000    0.000 
#    0.000    0.000    0.000    0.000    0.000    0.000 
#
# Total GULP energy -267342.757613 kJ/mol
# GULP energy per Si atom -5569.640784 kJ/mol
# Density = 2.021088 g / cm^3
# Si number density = 20.256981 Si / 1000 Ang^3
#
#
#
# Elastic Constant Matrix: (Units=GPa)
#
#
# Indices 1 2 3 4 5 6 
#
# 1 95.4226 48.8925 14.9591 0.0000 0.0000 0.0000
# 2 48.8925 79.0653 18.3153 0.0000 0.0000 0.0000
# 3 14.9591 18.3153 111.0522 0.0000 0.0000 0.0000
# 4 0.0000 0.0000 0.0000 22.2956 0.0000 0.0000
# 5 0.0000 0.0000 0.0000 0.0000 7.2408 0.0000
# 6 0.0000 0.0000 0.0000 0.0000 0.0000 40.4268
#
#
#
# Elastic Compliance Matrix: (Units=1/GPa)
#
#
# Indices 1 2 3 4 5 6 
#
# 1 0.015369 -0.009383 -0.000523 0.000000 0.000000 0.000000
# 2 -0.009383 0.018879 -0.001850 0.000000 0.000000 0.000000
# 3 -0.000523 -0.001850 0.009380 0.000000 0.000000 0.000000
# 4 0.000000 0.000000 0.000000 0.044852 0.000000 0.000000
# 5 0.000000 0.000000 0.000000 0.000000 0.138106 0.000000
# 6 0.000000 0.000000 0.000000 0.000000 0.000000 0.024736
#
#
# Mechanical properties :
#
#
# Convention : Reuss Voigt Hill
#
# Bulk Modulus (GPa) = 49.70864 49.98599 49.84732
# Shear Modulus (GPa) = 17.75955 27.55087 22.65521
#
# Velocity S-wave (km/s) = 2.96415 3.69191 3.34786
# Velocity P-wave (km/s) = 6.02554 6.55005 6.29326
#
# Compressibility (1/GPa) = 0.02011723
#
# Stress axis : x y z
#
# Youngs Moduli (GPa) = 65.06481 52.97030 106.60703
#
# Poissons Ratio (x) = 0.49702 0.05573
# Poissons Ratio (y) = 0.61050 0.19718
# Poissons Ratio (z) = 0.03402 0.09798
#
# Static dielectric constant tensor:
#      x y z
#    x 1.776070 0.000000 0.000000 
#    y 0.000000 1.763720 0.000000 
#    z 0.000000 0.000000 1.758930 
# 
# From -- ./inp_files/10766.got.cif
#   From: 2010.05.17/outbox.cif.g08.bks.cpg/sg56_6_cif.got.tgz:10766.got - 2010.06.03 13:42:01.
