data_PCOD9433630
_publ_section_title
;
Structure prediction by ZEFSAII (Michael W. Deem and Ramdas Pophale) SiO2 
 PCOD9433630
Probable space group: P C C N
;
_chemical_formula_sum "Si O2"
_cell_formula_units_Z 16
_cell_length_a 9.636771
_cell_length_b 6.660166
_cell_length_c 8.835020
_cell_angle_alpha 90.000000
_cell_angle_beta 90.000000
_cell_angle_gamma 90.000000
_cell_volume 567.053623
_symmetry_space_group_name_H-M "P C C N"
_symmetry_group_IT_number 56
_symmetry_cell_setting 'orthorhombic'
loop_
_space_group_symop_operation_xyz
x,y,z
1/2-x,1/2-y,z
1/2+x,-y,1/2-z
-x,1/2+y,1/2-z
-x,-y,-z
1/2+x,1/2+y,-z
1/2-x,y,1/2+z
x,1/2-y,1/2+z
loop_
_atom_site_type_symbol
_atom_site_label
_atom_site_fract_x
_atom_site_fract_y
_atom_site_fract_z
Si Si1 0.051599 0.146556 0.631252
Si Si2 0.176103 0.561019 0.627159
O O1 0.095993 0.363446 0.565107
O O2 0.931051 0.153840 0.754005
O O3 0.190233 0.048403 0.700911
O O4 0.000000 0.000000 0.500000
O O5 0.250000 0.750000 0.541778
#
# Coordination Sequence:
#
# PCOD9433630 Si02
#       2
#     8   8
#     4  11  26  47  77 114 156 209 259 328 405 476
#     4  11  24  49  74 112 157 197 269 330 384 488
#
# _framework density 28.216024000000001
#
# number of rings (size 3 to 8) (size 9 to 14) (size 15 to 20)
#    0.000    1.000    5.000    0.000    0.000   12.000 
#    0.000    0.000    0.000    0.000    0.000    0.000 
#    0.000    0.000    0.000    0.000    0.000    0.000 
#
# Total GULP energy -89436.885627 kJ/mol
# GULP energy per Si atom -5589.805352 kJ/mol
# Density = 2.815180 g / cm^3
# Si number density = 28.216024 Si / 1000 Ang^3
#
#
#
# Elastic Constant Matrix: (Units=GPa)
#
#
# Indices 1 2 3 4 5 6 
#
# 1 187.1618 94.0220 51.8607 0.0000 0.0000 0.0000
# 2 94.0220 300.3484 47.4224 0.0000 0.0000 0.0000
# 3 51.8607 47.4224 64.9188 0.0000 0.0000 0.0000
# 4 0.0000 0.0000 0.0000 27.5289 0.0000 0.0000
# 5 0.0000 0.0000 0.0000 0.0000 25.5269 0.0000
# 6 0.0000 0.0000 0.0000 0.0000 0.0000 113.4820
#
#
#
# Elastic Compliance Matrix: (Units=1/GPa)
#
#
# Indices 1 2 3 4 5 6 
#
# 1 0.007470 -0.001578 -0.004814 0.000000 0.000000 0.000000
# 2 -0.001578 0.004097 -0.001732 0.000000 0.000000 0.000000
# 3 -0.004814 -0.001732 0.020515 0.000000 0.000000 0.000000
# 4 0.000000 0.000000 0.000000 0.036326 0.000000 0.000000
# 5 0.000000 0.000000 0.000000 0.000000 0.039174 0.000000
# 6 0.000000 0.000000 0.000000 0.000000 0.000000 0.008812
#
#
# Mechanical properties :
#
#
# Convention : Reuss Voigt Hill
#
# Bulk Modulus (GPa) = 63.16094 104.33768 83.74931
# Shear Modulus (GPa) = 36.25269 57.24913 46.75091
#
# Velocity S-wave (km/s) = 3.58834 4.50928 4.07491
# Velocity P-wave (km/s) = 6.29298 8.01061 7.20318
#
# Compressibility (1/GPa) = 0.01583257
#
# Stress axis : x y z
#
# Youngs Moduli (GPa) = 133.87174 244.08163 48.74447
#
# Poissons Ratio (x) = 0.38521 0.23468
# Poissons Ratio (y) = 0.21128 0.08443
# Poissons Ratio (z) = 0.64452 0.42276
#
# Static dielectric constant tensor:
#      x y z
#    x 2.191520 0.000000 0.000000 
#    y 0.000000 2.270200 0.000000 
#    z 0.000000 0.000000 2.133030 
# 
# From -- ./inp_files/5275.got.cif
#   From: 2010.05.17/outbox.cif.g08.bks.cpg/sg56_3_cif.got.tgz:5275.got - 2010.06.03 13:42:01.
