data_PCOD9433162
_publ_section_title
;
Structure prediction by ZEFSAII (Michael W. Deem and Ramdas Pophale) SiO2 
 PCOD9433162
Probable space group: P C C N
;
_chemical_formula_sum "Si O2"
_cell_formula_units_Z 36
_cell_length_a 16.711188
_cell_length_b 8.713124
_cell_length_c 9.431951
_cell_angle_alpha 90.000000
_cell_angle_beta 90.000000
_cell_angle_gamma 90.000000
_cell_volume 1373.354819
_symmetry_space_group_name_H-M "P C C N"
_symmetry_group_IT_number 56
_symmetry_cell_setting 'orthorhombic'
loop_
_space_group_symop_operation_xyz
x,y,z
1/2-x,1/2-y,z
1/2+x,-y,1/2-z
-x,1/2+y,1/2-z
-x,-y,-z
1/2+x,1/2+y,-z
1/2-x,y,1/2+z
x,1/2-y,1/2+z
loop_
_atom_site_type_symbol
_atom_site_label
_atom_site_fract_x
_atom_site_fract_y
_atom_site_fract_z
Si Si1 0.088095 0.181866 0.496930
Si Si2 0.750000 0.750000 0.409190
Si Si3 0.832742 0.061026 0.833754
Si Si4 0.750000 0.250000 0.584626
Si Si5 0.000000 0.500000 0.500000
Si Si6 0.496067 0.488809 0.735933
O O1 0.182652 0.170252 0.496845
O O2 0.060321 0.352656 0.468488
O O3 0.061021 0.121684 0.651324
O O4 0.045530 0.077503 0.381532
O O5 0.797758 0.612488 0.330685
O O6 0.804594 0.150846 0.693270
O O7 0.931336 0.067685 0.844389
O O8 0.798311 0.142929 0.973651
O O9 0.957422 0.406804 0.644769
#
# Coordination Sequence:
#
# PCOD9433162 Si02
#       6
#     8   4   8   4   4   8
#     4  11  27  51  78 111 160 204 271 318 407 465
#     4  12  26  52  82 120 156 214 270 344 390 472
#     4  11  25  49  77 111 159 209 268 328 404 470
#     4  10  26  48  72 114 156 212 262 334 396 484
#     4  12  24  48  72 114 146 208 248 336 376 492
#     4  11  26  48  74 112 151 213 252 328 386 491
#
# _framework density 26.213182
#
# number of rings (size 3 to 8) (size 9 to 14) (size 15 to 20)
#    0.000    0.889    2.222    2.667    3.111    5.333 
#    8.000    0.000    0.000    0.000    0.000    0.000 
#    0.000    0.000    0.000    0.000    0.000    0.000 
#
# Total GULP energy -200918.453356 kJ/mol
# GULP energy per Si atom -5581.068149 kJ/mol
# Density = 2.615352 g / cm^3
# Si number density = 26.213182 Si / 1000 Ang^3
#
#
#
# Elastic Constant Matrix: (Units=GPa)
#
#
# Indices 1 2 3 4 5 6 
#
# 1 152.7164 57.2415 46.9338 0.0000 0.0000 0.0000
# 2 57.2415 62.6839 32.6073 0.0000 0.0000 0.0000
# 3 46.9338 32.6073 221.9651 0.0000 0.0000 0.0000
# 4 0.0000 0.0000 0.0000 33.0759 0.0000 0.0000
# 5 0.0000 0.0000 0.0000 0.0000 30.4091 0.0000
# 6 0.0000 0.0000 0.0000 0.0000 0.0000 43.1934
#
#
#
# Elastic Compliance Matrix: (Units=1/GPa)
#
#
# Indices 1 2 3 4 5 6 
#
# 1 0.010100 -0.008783 -0.000845 0.000000 0.000000 0.000000
# 2 -0.008783 0.024911 -0.001802 0.000000 0.000000 0.000000
# 3 -0.000845 -0.001802 0.004949 0.000000 0.000000 0.000000
# 4 0.000000 0.000000 0.000000 0.030234 0.000000 0.000000
# 5 0.000000 0.000000 0.000000 0.000000 0.032885 0.000000
# 6 0.000000 0.000000 0.000000 0.000000 0.000000 0.023152
#
#
# Mechanical properties :
#
#
# Convention : Reuss Voigt Hill
#
# Bulk Modulus (GPa) = 58.48615 78.99228 68.73921
# Shear Modulus (GPa) = 32.30142 41.37453 36.83797
#
# Velocity S-wave (km/s) = 3.51416 3.97720 3.75283
# Velocity P-wave (km/s) = 6.23105 7.16176 6.71255
#
# Compressibility (1/GPa) = 0.01709807
#
# Stress axis : x y z
#
# Youngs Moduli (GPa) = 99.00883 40.14218 202.07241
#
# Poissons Ratio (x) = 0.35259 0.17082
# Poissons Ratio (y) = 0.86964 0.36420
# Poissons Ratio (z) = 0.08369 0.07235
#
# Static dielectric constant tensor:
#      x y z
#    x 2.222430 0.000000 0.000000 
#    y 0.000000 2.157830 0.000000 
#    z 0.000000 0.000000 2.488780 
# 
# From -- ./inp_files/4348.got.cif
#   From: 2010.05.17/outbox.cif.g08.bks.cpg/sg56_3_cif.got.tgz:4348.got - 2010.06.03 13:42:01.
