data_PCOD9433984
_publ_section_title
;
Structure prediction by ZEFSAII (Michael W. Deem and Ramdas Pophale) SiO2 
 PCOD9433984
Probable space group: P B C M
;
_chemical_formula_sum "Si O2"
_cell_formula_units_Z 56
_cell_length_a 19.182641
_cell_length_b 19.057659
_cell_length_c 8.528453
_cell_angle_alpha 90.000000
_cell_angle_beta 90.000000
_cell_angle_gamma 90.000000
_cell_volume 3117.799703
_symmetry_space_group_name_H-M "P B C M"
_symmetry_group_IT_number 57
_symmetry_cell_setting 'orthorhombic'
loop_
_space_group_symop_operation_xyz
x,y,z
-x,-y,1/2+z
x,1/2-y,-z
-x,1/2+y,1/2-z
-x,-y,-z
x,y,1/2-z
-x,1/2+y,z
x,1/2-y,1/2+z
loop_
_atom_site_type_symbol
_atom_site_label
_atom_site_fract_x
_atom_site_fract_y
_atom_site_fract_z
Si Si1 0.294273 0.418759 0.940777
Si Si2 0.854920 0.075388 0.435908
Si Si3 0.425158 0.670866 0.561958
Si Si4 0.709679 0.418161 0.060476
Si Si5 0.573473 0.670722 0.061612
Si Si6 0.997204 0.419715 0.063955
Si Si7 0.141918 0.083565 0.063363
O O1 0.294227 0.418022 0.750000
O O2 0.299645 0.500359 0.987608
O O3 0.360644 0.374652 0.993816
O O4 0.218112 0.389669 0.989189
O O5 0.857138 0.064396 0.250000
O O6 0.781848 0.109189 0.486542
O O7 0.926675 0.111651 0.490453
O O8 0.854644 0.999494 0.521974
O O9 0.417474 0.750000 0.500000
O O10 0.428784 0.672142 0.750000
O O11 0.358291 0.625489 0.514590
O O12 0.498845 0.643003 0.497470
O O13 0.716284 0.416203 0.250000
O O14 0.572743 0.671649 0.250000
O O15 0.580152 0.750000 0.000000
O O16 0.991214 0.421479 0.250000
O O17 0.000000 0.500000 0.000000
O O18 0.071644 0.387668 0.015009
O O19 0.135403 0.091048 0.250000
#
# Coordination Sequence:
#
# PCOD9433984 Si02
#       7
#     8   8   8   8   8   8   8
#     4   8  16  30  48  68  93 124 155 190 233 276
#     4  10  17  25  39  62  90 120 153 189 230 273
#     4  10  20  34  52  71  93 121 154 191 231 276
#     4   9  18  33  49  67  93 124 155 190 233 277
#     4  10  19  33  51  70  93 122 156 192 230 275
#     4  10  16  23  36  57  87 122 156 188 226 271
#     4   9  15  26  41  59  87 121 155 190 230 274
#
# _framework density 17.961383000000001
#
# number of rings (size 3 to 8) (size 9 to 14) (size 15 to 20)
#    0.000    2.571    0.000    7.286    0.000    1.714 
#    0.000    7.143    0.000    0.000    0.000    1.000 
#    0.000    4.571    0.000    0.000    0.000    0.000 
#
# Total GULP energy -311968.494373 kJ/mol
# GULP energy per Si atom -5570.865971 kJ/mol
# Density = 1.792050 g / cm^3
# Si number density = 17.961383 Si / 1000 Ang^3
#
#
#
# Elastic Constant Matrix: (Units=GPa)
#
#
# Indices 1 2 3 4 5 6 
#
# 1 223.7306 48.8013 39.4129 0.0000 0.0000 0.0000
# 2 48.8013 20.9445 8.8059 0.0000 0.0000 0.0000
# 3 39.4129 8.8059 55.5586 0.0000 0.0000 0.0000
# 4 0.0000 0.0000 0.0000 8.9926 0.0000 0.0000
# 5 0.0000 0.0000 0.0000 0.0000 30.7247 0.0000
# 6 0.0000 0.0000 0.0000 0.0000 0.0000 -35.1884
#
#
#
# Elastic Compliance Matrix: (Units=1/GPa)
#
#
# Indices 1 2 3 4 5 6 
#
# 1 0.009696 -0.021106 -0.003533 0.000000 0.000000 0.000000
# 2 -0.021106 0.097099 -0.000417 0.000000 0.000000 0.000000
# 3 -0.003533 -0.000417 0.020571 0.000000 0.000000 0.000000
# 4 0.000000 0.000000 0.000000 0.111203 0.000000 0.000000
# 5 0.000000 0.000000 0.000000 0.000000 0.032547 0.000000
# 6 0.000000 0.000000 0.000000 0.000000 0.000000 -0.028418
#
#
# Mechanical properties :
#
#
# Convention : Reuss Voigt Hill
#
# Bulk Modulus (GPa) = 12.94443 54.91931 33.93187
# Shear Modulus (GPa) = 15.69557 14.45336 15.07447
#
# Velocity S-wave (km/s) = 2.95930 2.83978 2.90016
# Velocity P-wave (km/s) = 4.34731 6.43391 5.49064
#
# Compressibility (1/GPa) = 0.07725332
#
# Stress axis : x y z
#
# Youngs Moduli (GPa) = 103.13721 10.29878 48.61132
#
# Poissons Ratio (x) = 0.21737 0.17174
# Poissons Ratio (y) = 2.17684 0.02028
# Poissons Ratio (z) = 0.36437 0.00430
#
# Static dielectric constant tensor:
#      x y z
#    x 1.694260 0.000000 0.000000 
#    y 0.000000 1.585370 0.000000 
#    z 0.000000 0.000000 1.604440 
# 
# From -- ./inp_files/7042.got.cif
#   From: 2010.05.17/outbox.cif.g08.bks.cpg/sg57_4_cif.got.tgz:7042.got - 2010.06.03 13:58:18.
