data_PCOD9433039
_publ_section_title
;
Structure prediction by ZEFSAII (Michael W. Deem and Ramdas Pophale) SiO2 
 PCOD9433039
Probable space group: P C C N
;
_chemical_formula_sum "Si O2"
_cell_formula_units_Z 28
_cell_length_a 16.977657
_cell_length_b 4.771272
_cell_length_c 14.149859
_cell_angle_alpha 90.000000
_cell_angle_beta 90.000000
_cell_angle_gamma 90.000000
_cell_volume 1146.209604
_symmetry_space_group_name_H-M "P C C N"
_symmetry_group_IT_number 56
_symmetry_cell_setting 'orthorhombic'
loop_
_space_group_symop_operation_xyz
x,y,z
1/2-x,1/2-y,z
1/2+x,-y,1/2-z
-x,1/2+y,1/2-z
-x,-y,-z
1/2+x,1/2+y,-z
1/2-x,y,1/2+z
x,1/2-y,1/2+z
loop_
_atom_site_type_symbol
_atom_site_label
_atom_site_fract_x
_atom_site_fract_y
_atom_site_fract_z
Si Si1 0.406585 0.772250 0.142470
Si Si2 0.563386 0.418149 0.152729
Si Si3 0.880084 0.584057 0.041018
Si Si4 0.750000 0.250000 0.452888
O O1 0.475481 0.542974 0.148813
O O2 0.321252 0.645965 0.114572
O O3 0.405686 0.939460 0.240612
O O4 0.421707 0.985589 0.055733
O O5 0.581201 0.100296 0.124063
O O6 0.609252 0.600541 0.074016
O O7 0.792215 0.478075 0.018847
#
# Coordination Sequence:
#
# PCOD9433039 Si02
#       4
#     8   8   8   4
#     4  10  24  47  73 111 140 186 239 309 336 441
#     4  12  23  44  78 103 140 191 246 278 376 408
#     4  10  25  46  71 104 143 189 232 300 346 443
#     4   8  24  50  68 104 152 186 234 306 358 408
#
# _framework density 24.428343999999999
#
# number of rings (size 3 to 8) (size 9 to 14) (size 15 to 20)
#    1.714    0.000    0.000    3.429    0.000    6.857 
#    0.000    2.857    0.000    0.000    0.000    0.000 
#    0.000    0.000    0.000    0.000    0.000    0.000 
#
# Total GULP energy -156533.284782 kJ/mol
# GULP energy per Si atom -5590.474456 kJ/mol
# Density = 2.437274 g / cm^3
# Si number density = 24.428344 Si / 1000 Ang^3
#
#
#
# Elastic Constant Matrix: (Units=GPa)
#
#
# Indices 1 2 3 4 5 6 
#
# 1 184.5510 13.8765 31.5277 0.0000 0.0000 0.0000
# 2 13.8765 68.4222 0.8029 0.0000 0.0000 0.0000
# 3 31.5277 0.8029 151.3013 0.0000 0.0000 0.0000
# 4 0.0000 0.0000 0.0000 33.4536 0.0000 0.0000
# 5 0.0000 0.0000 0.0000 0.0000 33.6410 0.0000
# 6 0.0000 0.0000 0.0000 0.0000 0.0000 28.7322
#
#
#
# Elastic Compliance Matrix: (Units=1/GPa)
#
#
# Indices 1 2 3 4 5 6 
#
# 1 0.005707 -0.001143 -0.001183 0.000000 0.000000 0.000000
# 2 -0.001143 0.014845 0.000159 0.000000 0.000000 0.000000
# 3 -0.001183 0.000159 0.006855 0.000000 0.000000 0.000000
# 4 0.000000 0.000000 0.000000 0.029892 0.000000 0.000000
# 5 0.000000 0.000000 0.000000 0.000000 0.029726 0.000000
# 6 0.000000 0.000000 0.000000 0.000000 0.000000 0.034804
#
#
# Mechanical properties :
#
#
# Convention : Reuss Voigt Hill
#
# Bulk Modulus (GPa) = 43.34117 55.18763 49.26440
# Shear Modulus (GPa) = 37.35419 43.03651 40.19535
#
# Velocity S-wave (km/s) = 3.91466 4.20187 4.06080
# Velocity P-wave (km/s) = 6.18170 6.79571 6.49596
#
# Compressibility (1/GPa) = 0.02307275
#
# Stress axis : x y z
#
# Youngs Moduli (GPa) = 175.23441 67.36198 145.87875
#
# Poissons Ratio (x) = 0.07703 0.17258
# Poissons Ratio (y) = 0.20037 -0.02327
# Poissons Ratio (z) = 0.20731 -0.01074
#
# Static dielectric constant tensor:
#      x y z
#    x 2.000170 0.000000 0.000000 
#    y 0.000000 1.933420 0.000000 
#    z 0.000000 0.000000 1.896930 
# 
# From -- ./inp_files/12456.got.cif
#   From: 2010.05.17/outbox.cif.g08.bks.cpg/sg56_7_cif.got.tgz:12456.got - 2010.06.03 13:42:01.
