data_PCOD9433653
_publ_section_title
;
Structure prediction by ZEFSAII (Michael W. Deem and Ramdas Pophale) SiO2 
 PCOD9433653
Probable space group: P C C N
;
_chemical_formula_sum "Si O2"
_cell_formula_units_Z 48
_cell_length_a 29.180084
_cell_length_b 8.421967
_cell_length_c 8.888750
_cell_angle_alpha 90.000000
_cell_angle_beta 90.000000
_cell_angle_gamma 90.000000
_cell_volume 2184.443241
_symmetry_space_group_name_H-M "P C C N"
_symmetry_group_IT_number 56
_symmetry_cell_setting 'orthorhombic'
loop_
_space_group_symop_operation_xyz
x,y,z
1/2-x,1/2-y,z
1/2+x,-y,1/2-z
-x,1/2+y,1/2-z
-x,-y,-z
1/2+x,1/2+y,-z
1/2-x,y,1/2+z
x,1/2-y,1/2+z
loop_
_atom_site_type_symbol
_atom_site_label
_atom_site_fract_x
_atom_site_fract_y
_atom_site_fract_z
Si Si1 0.540943 0.905577 0.422054
Si Si2 0.046065 0.069022 0.426238
Si Si3 0.861575 0.459035 0.464046
Si Si4 0.640499 0.131098 0.117755
Si Si5 0.285152 0.393620 0.895959
Si Si6 0.725851 0.408819 0.394779
O O1 0.533213 0.892032 0.245128
O O2 0.553054 0.734674 0.489435
O O3 0.500000 0.000000 0.500000
O O4 0.585487 0.010109 0.443966
O O5 0.091915 0.956213 0.423429
O O6 0.000000 0.000000 0.500000
O O7 0.846987 0.411647 0.291719
O O8 0.860235 0.320586 0.590042
O O9 0.835496 0.613872 0.531323
O O10 0.680704 0.091979 0.998990
O O11 0.250000 0.250000 0.912770
O O12 0.265723 0.536938 0.994302
O O13 0.283653 0.456643 0.727813
O O14 0.750000 0.250000 0.326905
#
# Coordination Sequence:
#
# PCOD9433653 Si02
#       6
#     8   8   8   8   8   8
#     4  11  25  45  72 106 146 184 234 290 361 433
#     4  11  25  45  73 106 143 186 236 291 356 431
#     4  11  25  46  70 105 140 186 237 293 360 424
#     4  11  25  45  73 103 139 186 240 294 352 432
#     4  12  27  45  69 101 143 186 239 297 362 429
#     4  12  25  45  71 101 137 189 242 293 360 427
#
# _framework density 21.973564
#
# number of rings (size 3 to 8) (size 9 to 14) (size 15 to 20)
#    0.000    0.667    1.667    5.000    2.333    8.000 
#    0.000    0.833    0.000    0.000    0.000    0.000 
#    0.000    0.000    0.000    0.000    0.000    0.000 
#
# Total GULP energy -267900.583753 kJ/mol
# GULP energy per Si atom -5581.262162 kJ/mol
# Density = 2.192355 g / cm^3
# Si number density = 21.973564 Si / 1000 Ang^3
#
#
#
# Elastic Constant Matrix: (Units=GPa)
#
#
# Indices 1 2 3 4 5 6 
#
# 1 116.7170 20.5691 52.8772 0.0000 0.0000 0.0000
# 2 20.5691 74.6487 32.0153 0.0000 0.0000 0.0000
# 3 52.8772 32.0153 129.4803 0.0000 0.0000 0.0000
# 4 0.0000 0.0000 0.0000 28.6547 0.0000 0.0000
# 5 0.0000 0.0000 0.0000 0.0000 33.5096 0.0000
# 6 0.0000 0.0000 0.0000 0.0000 0.0000 41.1642
#
#
#
# Elastic Compliance Matrix: (Units=1/GPa)
#
#
# Indices 1 2 3 4 5 6 
#
# 1 0.010607 -0.001191 -0.004037 0.000000 0.000000 0.000000
# 2 -0.001191 0.015119 -0.003252 0.000000 0.000000 0.000000
# 3 -0.004037 -0.003252 0.010176 0.000000 0.000000 0.000000
# 4 0.000000 0.000000 0.000000 0.034898 0.000000 0.000000
# 5 0.000000 0.000000 0.000000 0.000000 0.029842 0.000000
# 6 0.000000 0.000000 0.000000 0.000000 0.000000 0.024293
#
#
# Mechanical properties :
#
#
# Convention : Reuss Voigt Hill
#
# Bulk Modulus (GPa) = 52.79463 59.08545 55.94004
# Shear Modulus (GPa) = 33.73622 35.02465 34.38043
#
# Velocity S-wave (km/s) = 3.92255 3.99676 3.95983
# Velocity P-wave (km/s) = 6.67786 6.94597 6.81323
#
# Compressibility (1/GPa) = 0.01894132
#
# Stress axis : x y z
#
# Youngs Moduli (GPa) = 94.28127 66.14205 98.27191
#
# Poissons Ratio (x) = 0.07879 0.39672
# Poissons Ratio (y) = 0.11231 0.31956
# Poissons Ratio (z) = 0.38061 0.21508
#
# Static dielectric constant tensor:
#      x y z
#    x 1.925610 0.000000 0.000000 
#    y 0.000000 1.876920 0.000000 
#    z 0.000000 0.000000 1.796880 
# 
# From -- ./inp_files/5121.got.cif
#   From: 2010.05.17/outbox.cif.g08.bks.cpg/sg56_3_cif.got.tgz:5121.got - 2010.06.03 13:42:01.
