data_PCOD9433732
_publ_section_title
;
Structure prediction by ZEFSAII (Michael W. Deem and Ramdas Pophale) SiO2 
 PCOD9433732
Probable space group: P C C N
;
_chemical_formula_sum "Si O2"
_cell_formula_units_Z 32
_cell_length_a 24.548266
_cell_length_b 5.070595
_cell_length_c 9.570302
_cell_angle_alpha 90.000000
_cell_angle_beta 90.000000
_cell_angle_gamma 90.000000
_cell_volume 1191.256784
_symmetry_space_group_name_H-M "P C C N"
_symmetry_group_IT_number 56
_symmetry_cell_setting 'orthorhombic'
loop_
_space_group_symop_operation_xyz
x,y,z
1/2-x,1/2-y,z
1/2+x,-y,1/2-z
-x,1/2+y,1/2-z
-x,-y,-z
1/2+x,1/2+y,-z
1/2-x,y,1/2+z
x,1/2-y,1/2+z
loop_
_atom_site_type_symbol
_atom_site_label
_atom_site_fract_x
_atom_site_fract_y
_atom_site_fract_z
Si Si1 0.250000 0.750000 0.125817
Si Si2 0.587831 0.800397 0.022029
Si Si3 0.986924 0.183107 0.662425
Si Si4 0.157701 0.081475 0.749315
Si Si5 0.750000 0.750000 0.074015
O O1 0.197177 0.664252 0.215804
O O2 0.260054 0.500509 0.024373
O O3 0.611416 0.594014 0.132485
O O4 0.569464 0.066283 0.103084
O O5 0.531169 0.720572 0.950268
O O6 0.630487 0.843046 0.897324
O O7 0.985655 0.417174 0.773146
O O8 0.199613 0.285752 0.821343
#
# Coordination Sequence:
#
# PCOD9433732 Si02
#       5
#     4   8   8   8   4
#     4  12  28  54  86 120 174 224 296 360 436 530
#     4  11  26  52  90 127 174 234 289 361 451 522
#     4  11  26  55  83 132 176 229 296 365 433 547
#     4  12  26  57  82 129 169 234 286 368 439 524
#     4  12  28  54  80 122 170 222 294 362 432 530
#
# _framework density 26.862389
#
# number of rings (size 3 to 8) (size 9 to 14) (size 15 to 20)
#    0.000    0.500    5.000    1.500    0.000    6.000 
#   13.500    0.000    0.000    0.000    0.000    0.000 
#    0.000    0.000    0.000    0.000    0.000    0.000 
#
# Total GULP energy -179231.282651 kJ/mol
# GULP energy per Si atom -5600.977583 kJ/mol
# Density = 2.680125 g / cm^3
# Si number density = 26.862389 Si / 1000 Ang^3
#
#
#
# Elastic Constant Matrix: (Units=GPa)
#
#
# Indices 1 2 3 4 5 6 
#
# 1 144.9000 92.4500 96.8722 0.0000 0.0000 0.0000
# 2 92.4500 178.9239 111.6213 0.0000 0.0000 0.0000
# 3 96.8722 111.6213 206.4572 0.0000 0.0000 0.0000
# 4 0.0000 0.0000 0.0000 69.1982 0.0000 0.0000
# 5 0.0000 0.0000 0.0000 0.0000 81.7542 0.0000
# 6 0.0000 0.0000 0.0000 0.0000 0.0000 51.4608
#
#
#
# Elastic Compliance Matrix: (Units=1/GPa)
#
#
# Indices 1 2 3 4 5 6 
#
# 1 0.011641 -0.003934 -0.003335 0.000000 0.000000 0.000000
# 2 -0.003934 0.009763 -0.003432 0.000000 0.000000 0.000000
# 3 -0.003335 -0.003432 0.008264 0.000000 0.000000 0.000000
# 4 0.000000 0.000000 0.000000 0.014451 0.000000 0.000000
# 5 0.000000 0.000000 0.000000 0.000000 0.012232 0.000000
# 6 0.000000 0.000000 0.000000 0.000000 0.000000 0.019432
#
#
# Mechanical properties :
#
#
# Convention : Reuss Voigt Hill
#
# Bulk Modulus (GPa) = 120.99454 125.79646 123.39550
# Shear Modulus (GPa) = 50.02874 55.77182 52.90028
#
# Velocity S-wave (km/s) = 4.32024 4.56148 4.44250
# Velocity P-wave (km/s) = 8.36816 8.64144 8.50590
#
# Compressibility (1/GPa) = 0.00826484
#
# Stress axis : x y z
#
# Youngs Moduli (GPa) = 85.90169 102.42554 121.00425
#
# Poissons Ratio (x) = 0.40299 0.40355
# Poissons Ratio (y) = 0.33798 0.41533
# Poissons Ratio (z) = 0.28648 0.35156
#
# Static dielectric constant tensor:
#      x y z
#    x 2.227090 0.000000 0.000000 
#    y 0.000000 2.106860 0.000000 
#    z 0.000000 0.000000 2.152800 
# 
# From -- ./inp_files/5065.got.cif
#   From: 2010.05.17/outbox.cif.g08.bks.cpg/sg56_3_cif.got.tgz:5065.got - 2010.06.03 13:42:01.
