data_PCOD9433623
_publ_section_title
;
Structure prediction by ZEFSAII (Michael W. Deem and Ramdas Pophale) SiO2 
 PCOD9433623
Probable space group: P C C N
;
_chemical_formula_sum "Si O2"
_cell_formula_units_Z 40
_cell_length_a 11.186134
_cell_length_b 9.292265
_cell_length_c 16.214711
_cell_angle_alpha 90.000000
_cell_angle_beta 90.000000
_cell_angle_gamma 90.000000
_cell_volume 1685.430375
_symmetry_space_group_name_H-M "P C C N"
_symmetry_group_IT_number 56
_symmetry_cell_setting 'orthorhombic'
loop_
_space_group_symop_operation_xyz
x,y,z
1/2-x,1/2-y,z
1/2+x,-y,1/2-z
-x,1/2+y,1/2-z
-x,-y,-z
1/2+x,1/2+y,-z
1/2-x,y,1/2+z
x,1/2-y,1/2+z
loop_
_atom_site_type_symbol
_atom_site_label
_atom_site_fract_x
_atom_site_fract_y
_atom_site_fract_z
Si Si1 0.121676 0.684727 0.683951
Si Si2 0.951755 0.431820 0.084406
Si Si3 0.504158 0.667962 0.014927
Si Si4 0.287405 0.395757 0.870066
Si Si5 0.521051 0.451323 0.245988
O O1 0.250000 0.750000 0.700241
O O2 0.086810 0.703584 0.589010
O O3 0.100553 0.520128 0.709700
O O4 0.032646 0.782295 0.738815
O O5 0.820119 0.499134 0.101689
O O6 0.029624 0.483604 0.161776
O O7 0.967459 0.263333 0.063274
O O8 0.000000 0.500000 0.000000
O O9 0.635796 0.678496 0.055319
O O10 0.500000 0.500000 0.000000
O O11 0.250000 0.250000 0.822581
O O12 0.377770 0.488794 0.814801
#
# Coordination Sequence:
#
# PCOD9433623 Si02
#       5
#     8   8   8   8   8
#     4  11  25  46  71 108 149 198 253 307 381 466
#     4  12  23  47  77 105 151 198 253 320 381 455
#     4  11  27  45  71 108 150 193 259 316 380 456
#     4  11  24  48  74 107 154 197 249 318 387 469
#     4  11  25  46  72 106 147 196 248 305 380 462
#
# _framework density 23.732809
#
# number of rings (size 3 to 8) (size 9 to 14) (size 15 to 20)
#    0.000    0.800    4.000    2.400    8.400    0.000 
#    3.600    0.000    0.000    0.000    0.000    0.000 
#    0.000    0.000    0.000    0.000    0.000    0.000 
#
# Total GULP energy -223540.928701 kJ/mol
# GULP energy per Si atom -5588.523218 kJ/mol
# Density = 2.367879 g / cm^3
# Si number density = 23.732809 Si / 1000 Ang^3
#
#
#
# Elastic Constant Matrix: (Units=GPa)
#
#
# Indices 1 2 3 4 5 6 
#
# 1 121.7514 27.7857 28.1509 0.0000 0.0000 0.0000
# 2 27.7857 123.1345 8.3200 0.0000 0.0000 0.0000
# 3 28.1509 8.3200 106.4344 0.0000 0.0000 0.0000
# 4 0.0000 0.0000 0.0000 36.3369 0.0000 0.0000
# 5 0.0000 0.0000 0.0000 0.0000 24.1848 0.0000
# 6 0.0000 0.0000 0.0000 0.0000 0.0000 37.6090
#
#
#
# Elastic Compliance Matrix: (Units=1/GPa)
#
#
# Indices 1 2 3 4 5 6 
#
# 1 0.009178 -0.001917 -0.002278 0.000000 0.000000 0.000000
# 2 -0.001917 0.008565 -0.000162 0.000000 0.000000 0.000000
# 3 -0.002278 -0.000162 0.010011 0.000000 0.000000 0.000000
# 4 0.000000 0.000000 0.000000 0.027520 0.000000 0.000000
# 5 0.000000 0.000000 0.000000 0.000000 0.041348 0.000000
# 6 0.000000 0.000000 0.000000 0.000000 0.000000 0.026589
#
#
# Mechanical properties :
#
#
# Convention : Reuss Voigt Hill
#
# Bulk Modulus (GPa) = 52.52438 53.31484 52.91961
# Shear Modulus (GPa) = 36.16082 38.76371 37.46226
#
# Velocity S-wave (km/s) = 3.90765 4.04584 3.97735
# Velocity P-wave (km/s) = 6.52221 6.65872 6.59082
#
# Compressibility (1/GPa) = 0.01903878
#
# Stress axis : x y z
#
# Youngs Moduli (GPa) = 108.96140 116.75739 99.89466
#
# Poissons Ratio (x) = 0.22383 0.22751
# Poissons Ratio (y) = 0.20889 0.01623
# Poissons Ratio (z) = 0.24816 0.01897
#
# Static dielectric constant tensor:
#      x y z
#    x 2.435780 0.000000 0.000000 
#    y 0.000000 2.087170 0.000000 
#    z 0.000000 0.000000 1.948610 
# 
# From -- ./inp_files/15389.got.cif
#   From: 2010.05.17/outbox.cif.g08.bks.cpg/sg56_8_cif.got.tgz:15389.got - 2010.06.03 13:42:01.
