data_PCOD9433324
_publ_section_title
;
Structure prediction by ZEFSAII (Michael W. Deem and Ramdas Pophale) SiO2 
 PCOD9433324
Probable space group: P C C N
;
_chemical_formula_sum "Si O2"
_cell_formula_units_Z 64
_cell_length_a 19.188402
_cell_length_b 19.188402
_cell_length_c 8.983915
_cell_angle_alpha 90.000000
_cell_angle_beta 90.000000
_cell_angle_gamma 90.000000
_cell_volume 3307.830529
_symmetry_space_group_name_H-M "P C C N"
_symmetry_group_IT_number 56
_symmetry_cell_setting 'orthorhombic'
loop_
_space_group_symop_operation_xyz
x,y,z
1/2-x,1/2-y,z
1/2+x,-y,1/2-z
-x,1/2+y,1/2-z
-x,-y,-z
1/2+x,1/2+y,-z
1/2-x,y,1/2+z
x,1/2-y,1/2+z
loop_
_atom_site_type_symbol
_atom_site_label
_atom_site_fract_x
_atom_site_fract_y
_atom_site_fract_z
Si Si1 0.115364 0.989729 0.314775
Si Si2 0.766592 0.357762 0.462722
Si Si3 0.642238 0.266592 0.537278
Si Si4 0.775473 0.043948 0.208251
Si Si5 0.909955 0.512889 0.837327
Si Si6 0.989728 0.384636 0.314775
Si Si7 0.956052 0.224527 0.291749
Si Si8 0.487111 0.409955 0.162673
O O1 0.082718 0.050456 0.212602
O O2 0.198417 0.986649 0.310272
O O3 0.090859 0.000764 0.485561
O O4 0.081102 0.918898 0.250000
O O5 0.703141 0.322500 0.555138
O O6 0.822500 0.296859 0.444862
O O7 0.731435 0.390231 0.318814
O O8 0.798333 0.422561 0.552166
O O9 0.577439 0.298333 0.447834
O O10 0.609769 0.231435 0.681186
O O11 0.831565 0.992146 0.276463
O O12 0.949544 0.582718 0.787398
O O13 0.952498 0.452498 0.750000
O O14 0.986649 0.301583 0.310272
O O15 0.000764 0.409141 0.485561
O O16 0.007854 0.168435 0.223537
#
# Coordination Sequence:
#
# PCOD9433324 Si02
#       8
#     8   8   8   8   8   8   8   8
#     4  11  24  40  63  89 121 161 207 260 305 362
#     4  11  22  36  54  84 124 163 200 238 290 363
#     4  11  22  36  54  84 124 163 200 238 290 363
#     4  12  24  37  60  87 120 164 204 250 304 358
#     4  11  24  40  63  89 121 161 207 260 305 362
#     4  11  24  40  63  89 121 161 207 260 305 362
#     4  12  24  37  60  87 120 164 204 250 304 358
#     4  11  24  40  63  89 121 161 207 260 305 362
#
# _framework density 19.348027999999999
#
# number of rings (size 3 to 8) (size 9 to 14) (size 15 to 20)
#    0.000    0.750    2.500    7.500    7.000    2.000 
#    0.000    0.000    0.000    0.750    0.000    3.500 
#    0.000    0.000    0.000    0.000    0.000    0.000 
#
# Total GULP energy -357919.814888 kJ/mol
# GULP energy per Si atom -5592.497108 kJ/mol
# Density = 1.930399 g / cm^3
# Si number density = 19.348028 Si / 1000 Ang^3
#
#
#
# Elastic Constant Matrix: (Units=GPa)
#
#
# Indices 1 2 3 4 5 6 
#
# 1 72.1406 18.3155 -1.1384 0.0000 0.0000 0.0000
# 2 18.3155 72.1406 -1.1384 0.0000 0.0000 0.0000
# 3 -1.1384 -1.1384 49.8819 0.0000 0.0000 0.0000
# 4 0.0000 0.0000 0.0000 29.6884 0.0000 0.0000
# 5 0.0000 0.0000 0.0000 0.0000 29.6884 0.0000
# 6 0.0000 0.0000 0.0000 0.0000 0.0000 23.5216
#
#
#
# Elastic Compliance Matrix: (Units=1/GPa)
#
#
# Indices 1 2 3 4 5 6 
#
# 1 0.014820 -0.003759 0.000252 0.000000 0.000000 0.000000
# 2 -0.003759 0.014820 0.000252 0.000000 0.000000 0.000000
# 3 0.000252 0.000252 0.020059 0.000000 0.000000 0.000000
# 4 0.000000 0.000000 0.000000 0.033683 0.000000 0.000000
# 5 0.000000 0.000000 0.000000 0.000000 0.033683 0.000000
# 6 0.000000 0.000000 0.000000 0.000000 0.000000 0.042514
#
#
# Mechanical properties :
#
#
# Convention : Reuss Voigt Hill
#
# Bulk Modulus (GPa) = 23.15269 25.13782 24.14525
# Shear Modulus (GPa) = 27.70324 28.45462 28.07893
#
# Velocity S-wave (km/s) = 3.78807 3.83910 3.81367
# Velocity P-wave (km/s) = 5.57898 5.71596 5.64789
#
# Compressibility (1/GPa) = 0.04319153
#
# Stress axis : x y z
#
# Youngs Moduli (GPa) = 67.47606 67.47607 49.85328
#
# Poissons Ratio (x) = 0.25362 -0.01259
# Poissons Ratio (y) = 0.25362 -0.01259
# Poissons Ratio (z) = -0.01703 -0.01703
#
# Static dielectric constant tensor:
#      x y z
#    x 1.673660 0.000000 0.000000 
#    y 0.000000 1.673660 0.000000 
#    z 0.000000 0.000000 1.718850 
# 
# From -- ./inp_files/4225.got.cif
#   From: 2010.05.17/outbox.cif.g08.bks.cpg/sg56_3_cif.got.tgz:4225.got - 2010.06.03 13:42:01.
