data_PCOD9433147
_publ_section_title
;
Structure prediction by ZEFSAII (Michael W. Deem and Ramdas Pophale) SiO2 
 PCOD9433147
Probable space group: P C C N
;
_chemical_formula_sum "Si O2"
_cell_formula_units_Z 36
_cell_length_a 22.143548
_cell_length_b 4.959677
_cell_length_c 13.316217
_cell_angle_alpha 90.000000
_cell_angle_beta 90.000000
_cell_angle_gamma 90.000000
_cell_volume 1462.451478
_symmetry_space_group_name_H-M "P C C N"
_symmetry_group_IT_number 56
_symmetry_cell_setting 'orthorhombic'
loop_
_space_group_symop_operation_xyz
x,y,z
1/2-x,1/2-y,z
1/2+x,-y,1/2-z
-x,1/2+y,1/2-z
-x,-y,-z
1/2+x,1/2+y,-z
1/2-x,y,1/2+z
x,1/2-y,1/2+z
loop_
_atom_site_type_symbol
_atom_site_label
_atom_site_fract_x
_atom_site_fract_y
_atom_site_fract_z
Si Si1 0.862737 0.607459 0.354826
Si Si2 0.582163 0.471811 0.046436
Si Si3 0.250000 0.250000 0.508594
Si Si4 0.651329 0.507971 0.623900
Si Si5 0.483580 0.219292 0.183433
O O1 0.903469 0.423298 0.429216
O O2 0.802555 0.646247 0.418430
O O3 0.844376 0.537609 0.242840
O O4 0.913545 0.840156 0.339502
O O5 0.601894 0.777575 0.076669
O O6 0.520236 0.342436 0.088697
O O7 0.630492 0.292916 0.104898
O O8 0.286551 0.445012 0.434625
O O9 0.486817 0.458349 0.266283
#
# Coordination Sequence:
#
# PCOD9433147 Si02
#       5
#     8   8   4   8   8
#     4  11  24  45  76  99 147 187 231 294 354 414
#     4  11  24  44  70 109 137 182 231 282 360 421
#     4  10  26  46  70 108 132 196 242 284 350 422
#     4  11  24  46  69  99 146 176 238 291 338 426
#     4  12  23  44  73 107 143 181 228 295 358 417
#
# _framework density 24.616202999999999
#
# number of rings (size 3 to 8) (size 9 to 14) (size 15 to 20)
#    0.000    0.889    4.444    1.333    0.000   10.667 
#    0.000   12.222    0.000    0.000    0.000    0.000 
#    0.000    0.000    0.000    0.000    0.000    0.000 
#
# Total GULP energy -201029.823956 kJ/mol
# GULP energy per Si atom -5584.161777 kJ/mol
# Density = 2.456018 g / cm^3
# Si number density = 24.616203 Si / 1000 Ang^3
#
#
#
# Elastic Constant Matrix: (Units=GPa)
#
#
# Indices 1 2 3 4 5 6 
#
# 1 143.3901 0.2854 25.4605 0.0000 0.0000 0.0000
# 2 0.2854 74.7908 15.4856 0.0000 0.0000 0.0000
# 3 25.4605 15.4856 180.4140 0.0000 0.0000 0.0000
# 4 0.0000 0.0000 0.0000 -63.5442 0.0000 0.0000
# 5 0.0000 0.0000 0.0000 0.0000 10.6057 0.0000
# 6 0.0000 0.0000 0.0000 0.0000 0.0000 -6.8370
#
#
#
# Elastic Compliance Matrix: (Units=1/GPa)
#
#
# Indices 1 2 3 4 5 6 
#
# 1 0.007156 0.000185 -0.001026 0.000000 0.000000 0.000000
# 2 0.000185 0.013617 -0.001195 0.000000 0.000000 0.000000
# 3 -0.001026 -0.001195 0.005790 0.000000 0.000000 0.000000
# 4 0.000000 0.000000 0.000000 -0.015737 0.000000 0.000000
# 5 0.000000 0.000000 0.000000 0.000000 0.094289 0.000000
# 6 0.000000 0.000000 0.000000 0.000000 0.000000 -0.146262
#
#
# Mechanical properties :
#
#
# Convention : Reuss Voigt Hill
#
# Bulk Modulus (GPa) = 44.46025 53.45089 48.95557
# Shear Modulus (GPa) = -169.04044 11.86911 -78.58566
#
# Velocity S-wave (km/s) = -8.29575 2.19821 -5.65629
# Velocity P-wave (km/s) = 8.58247 5.31071 4.76734
#
# Compressibility (1/GPa) = 0.02249200
#
# Stress axis : x y z
#
# Youngs Moduli (GPa) = 139.74795 73.43584 172.70778
#
# Poissons Ratio (x) = -0.01359 0.17715
# Poissons Ratio (y) = -0.02586 0.20638
# Poissons Ratio (z) = 0.14334 0.08775
#
# Static dielectric constant tensor:
#      x y z
#    x 2.054750 0.000000 0.000000 
#    y 0.000000 2.144020 0.000000 
#    z 0.000000 0.000000 1.981740 
# 
# From -- ./inp_files/5538.got.cif
#   From: 2010.05.17/outbox.cif.g08.bks.cpg/sg56_3_cif.got.tgz:5538.got - 2010.06.03 13:42:01.
