data_PCOD9433481
_publ_section_title
;
Structure prediction by ZEFSAII (Michael W. Deem and Ramdas Pophale) SiO2 
 PCOD9433481
Probable space group: P C C N
;
_chemical_formula_sum "Si O2"
_cell_formula_units_Z 36
_cell_length_a 7.028998
_cell_length_b 9.414731
_cell_length_c 21.139067
_cell_angle_alpha 90.000000
_cell_angle_beta 90.000000
_cell_angle_gamma 90.000000
_cell_volume 1398.901548
_symmetry_space_group_name_H-M "P C C N"
_symmetry_group_IT_number 56
_symmetry_cell_setting 'orthorhombic'
loop_
_space_group_symop_operation_xyz
x,y,z
1/2-x,1/2-y,z
1/2+x,-y,1/2-z
-x,1/2+y,1/2-z
-x,-y,-z
1/2+x,1/2+y,-z
1/2-x,y,1/2+z
x,1/2-y,1/2+z
loop_
_atom_site_type_symbol
_atom_site_label
_atom_site_fract_x
_atom_site_fract_y
_atom_site_fract_z
Si Si1 0.033422 0.211373 0.320170
Si Si2 0.750000 0.250000 0.502171
Si Si3 0.890362 0.457137 0.401581
Si Si4 0.471217 0.943773 0.901037
Si Si5 0.024985 0.201805 0.181698
O O1 0.250000 0.250000 0.307792
O O2 0.967588 0.153377 0.251883
O O3 0.908660 0.345132 0.343477
O O4 0.059750 0.103274 0.378280
O O5 0.895299 0.348516 0.460660
O O6 0.867851 0.135142 0.542247
O O7 0.696008 0.542352 0.414294
O O8 0.015807 0.585507 0.373285
O O9 0.429839 0.847558 0.839689
O O10 0.250000 0.250000 0.181040
#
# Coordination Sequence:
#
# PCOD9433481 Si02
#       5
#     8   4   8   8   8
#     4  11  23  43  71 107 140 178 245 308 380 441
#     4  12  26  44  70 102 150 198 254 290 354 466
#     4  11  23  46  71  98 143 195 235 305 368 437
#     4  11  24  46  68 104 141 193 246 298 367 438
#     4   9  22  43  70 105 137 179 238 303 375 436
#
# _framework density 25.734479
#
# number of rings (size 3 to 8) (size 9 to 14) (size 15 to 20)
#    0.000    1.333    2.222    2.000    3.111    0.889 
#    4.000    0.000    0.000    0.000    0.000    0.000 
#    0.000    0.000    0.000    0.000    0.000    0.000 
#
# Total GULP energy -200622.097093 kJ/mol
# GULP energy per Si atom -5572.836030 kJ/mol
# Density = 2.567591 g / cm^3
# Si number density = 25.734479 Si / 1000 Ang^3
#
#
#
# Elastic Constant Matrix: (Units=GPa)
#
#
# Indices 1 2 3 4 5 6 
#
# 1 67.2241 22.9308 33.5698 0.0000 0.0000 0.0000
# 2 22.9308 140.4606 57.3915 0.0000 0.0000 0.0000
# 3 33.5698 57.3915 142.1984 0.0000 0.0000 0.0000
# 4 0.0000 0.0000 0.0000 44.8596 0.0000 0.0000
# 5 0.0000 0.0000 0.0000 0.0000 41.9333 0.0000
# 6 0.0000 0.0000 0.0000 0.0000 0.0000 35.9014
#
#
#
# Elastic Compliance Matrix: (Units=1/GPa)
#
#
# Indices 1 2 3 4 5 6 
#
# 1 0.017080 -0.001366 -0.003481 0.000000 0.000000 0.000000
# 2 -0.001366 0.008635 -0.003162 0.000000 0.000000 0.000000
# 3 -0.003481 -0.003162 0.009131 0.000000 0.000000 0.000000
# 4 0.000000 0.000000 0.000000 0.022292 0.000000 0.000000
# 5 0.000000 0.000000 0.000000 0.000000 0.023847 0.000000
# 6 0.000000 0.000000 0.000000 0.000000 0.000000 0.027854
#
#
# Mechanical properties :
#
#
# Convention : Reuss Voigt Hill
#
# Bulk Modulus (GPa) = 53.11728 64.18527 58.65127
# Shear Modulus (GPa) = 38.12942 40.27158 39.20050
#
# Velocity S-wave (km/s) = 3.85339 3.96016 3.90714
# Velocity P-wave (km/s) = 6.36266 6.77539 6.57227
#
# Compressibility (1/GPa) = 0.01882627
#
# Stress axis : x y z
#
# Youngs Moduli (GPa) = 58.54863 115.81296 109.52276
#
# Poissons Ratio (x) = 0.15822 0.38123
# Poissons Ratio (y) = 0.07998 0.34636
# Poissons Ratio (z) = 0.20380 0.36625
#
# Static dielectric constant tensor:
#      x y z
#    x 2.108510 0.000000 0.000000 
#    y 0.000000 1.912550 0.000000 
#    z 0.000000 0.000000 2.160810 
# 
# From -- ./inp_files/17876.got.cif
#   From: 2010.05.17/outbox.cif.g08.bks.cpg/sg56_9_cif.got.tgz:17876.got - 2010.06.03 13:42:01.
