data_PCOD9433613
_publ_section_title
;
Structure prediction by ZEFSAII (Michael W. Deem and Ramdas Pophale) SiO2 
 PCOD9433613
Probable space group: P C C N
;
_chemical_formula_sum "Si O2"
_cell_formula_units_Z 32
_cell_length_a 16.239374
_cell_length_b 9.262772
_cell_length_c 8.134495
_cell_angle_alpha 90.000000
_cell_angle_beta 90.000000
_cell_angle_gamma 90.000000
_cell_volume 1223.603906
_symmetry_space_group_name_H-M "P C C N"
_symmetry_group_IT_number 56
_symmetry_cell_setting 'orthorhombic'
loop_
_space_group_symop_operation_xyz
x,y,z
1/2-x,1/2-y,z
1/2+x,-y,1/2-z
-x,1/2+y,1/2-z
-x,-y,-z
1/2+x,1/2+y,-z
1/2-x,y,1/2+z
x,1/2-y,1/2+z
loop_
_atom_site_type_symbol
_atom_site_label
_atom_site_fract_x
_atom_site_fract_y
_atom_site_fract_z
Si Si1 0.378196 0.215196 0.399225
Si Si2 0.327843 0.477812 0.193572
Si Si3 0.143166 0.552676 0.200441
Si Si4 0.431957 0.707471 0.016405
O O1 0.345662 0.369613 0.342626
O O2 0.325486 0.126396 0.532416
O O3 0.471006 0.220905 0.464550
O O4 0.377911 0.113598 0.235652
O O5 0.241619 0.559495 0.211252
O O6 0.398321 0.592940 0.151279
O O7 0.111039 0.638542 0.043401
O O8 0.096701 0.636563 0.347141
#
# Coordination Sequence:
#
# PCOD9433613 Si02
#       4
#     8   8   8   8
#     4  11  24  47  72 102 140 187 237 290 351 424
#     4  11  25  43  69 104 142 184 233 296 358 419
#     4  11  25  43  69 104 142 184 233 296 358 419
#     4  11  24  47  72 102 140 187 237 290 351 424
#
# _framework density 26.152252000000001
#
# number of rings (size 3 to 8) (size 9 to 14) (size 15 to 20)
#    0.000    1.000    0.000    7.500    0.000   18.000 
#    0.000    5.000    0.000    0.000    0.000    0.000 
#    0.000    0.000    0.000    0.000    0.000    0.000 
#
# Total GULP energy -179650.264329 kJ/mol
# GULP energy per Si atom -5614.070760 kJ/mol
# Density = 2.609273 g / cm^3
# Si number density = 26.152252 Si / 1000 Ang^3
#
#
#
# Elastic Constant Matrix: (Units=GPa)
#
#
# Indices 1 2 3 4 5 6 
#
# 1 143.4307 10.4736 10.3511 0.0000 0.0000 0.0000
# 2 10.4736 124.2288 22.0274 0.0000 0.0000 0.0000
# 3 10.3511 22.0274 57.6233 0.0000 0.0000 0.0000
# 4 0.0000 0.0000 0.0000 36.9915 0.0000 0.0000
# 5 0.0000 0.0000 0.0000 0.0000 30.5443 0.0000
# 6 0.0000 0.0000 0.0000 0.0000 0.0000 46.7315
#
#
#
# Elastic Compliance Matrix: (Units=1/GPa)
#
#
# Indices 1 2 3 4 5 6 
#
# 1 0.007082 -0.000399 -0.001120 0.000000 0.000000 0.000000
# 2 -0.000399 0.008657 -0.003238 0.000000 0.000000 0.000000
# 3 -0.001120 -0.003238 0.018793 0.000000 0.000000 0.000000
# 4 0.000000 0.000000 0.000000 0.027033 0.000000 0.000000
# 5 0.000000 0.000000 0.000000 0.000000 0.032739 0.000000
# 6 0.000000 0.000000 0.000000 0.000000 0.000000 0.021399
#
#
# Mechanical properties :
#
#
# Convention : Reuss Voigt Hill
#
# Bulk Modulus (GPa) = 39.96812 45.66522 42.81667
# Shear Modulus (GPa) = 37.43750 41.68219 39.55984
#
# Velocity S-wave (km/s) = 3.78765 3.99661 3.89353
# Velocity P-wave (km/s) = 5.86894 6.22867 6.05148
#
# Compressibility (1/GPa) = 0.02501994
#
# Stress axis : x y z
#
# Youngs Moduli (GPa) = 141.20459 115.50852 53.21141
#
# Poissons Ratio (x) = 0.04603 0.05959
# Poissons Ratio (y) = 0.05627 0.17229
# Poissons Ratio (z) = 0.15812 0.37400
#
# Static dielectric constant tensor:
#      x y z
#    x 1.932040 0.000000 0.000000 
#    y 0.000000 2.026140 0.000000 
#    z 0.000000 0.000000 2.182930 
# 
# From -- ./inp_files/3067.got.cif
#   From: 2010.05.17/outbox.cif.g08.bks.cpg/sg56_2_cif.got.tgz:3067.got - 2010.06.03 13:42:01.
