data_PCOD9433562
_publ_section_title
;
Structure prediction by ZEFSAII (Michael W. Deem and Ramdas Pophale) SiO2 
 PCOD9433562
Probable space group: P C C N
;
_chemical_formula_sum "Si O2"
_cell_formula_units_Z 32
_cell_length_a 18.783436
_cell_length_b 8.614434
_cell_length_c 9.461295
_cell_angle_alpha 90.000000
_cell_angle_beta 90.000000
_cell_angle_gamma 90.000000
_cell_volume 1530.919558
_symmetry_space_group_name_H-M "P C C N"
_symmetry_group_IT_number 56
_symmetry_cell_setting 'orthorhombic'
loop_
_space_group_symop_operation_xyz
x,y,z
1/2-x,1/2-y,z
1/2+x,-y,1/2-z
-x,1/2+y,1/2-z
-x,-y,-z
1/2+x,1/2+y,-z
1/2-x,y,1/2+z
x,1/2-y,1/2+z
loop_
_atom_site_type_symbol
_atom_site_label
_atom_site_fract_x
_atom_site_fract_y
_atom_site_fract_z
Si Si1 0.055311 0.924592 0.108904
Si Si2 0.805622 0.571969 0.472838
Si Si3 0.171550 0.391237 0.196208
Si Si4 0.023588 0.935001 0.648770
O O1 0.037287 0.747323 0.140716
O O2 0.134236 0.943809 0.050358
O O3 0.041040 0.024472 0.248036
O O4 0.000000 0.000000 0.000000
O O5 0.730727 0.524867 0.402380
O O6 0.830378 0.723015 0.380969
O O7 0.803584 0.612633 0.639687
O O8 0.095408 0.475072 0.193819
O O9 0.000000 0.000000 0.500000
#
# Coordination Sequence:
#
# PCOD9433562 Si02
#       4
#     8   8   8   8
#     4  12  25  47  66 103 134 177 224 279 335 404
#     4  11  24  43  70  98 141 174 230 271 343 404
#     4  11  24  44  68 103 134 183 220 279 337 406
#     4  12  27  43  72  99 139 176 224 279 339 397
#
# _framework density 20.902470000000001
#
# number of rings (size 3 to 8) (size 9 to 14) (size 15 to 20)
#    0.000    0.500    2.500    7.500    7.000    1.000 
#    0.000    2.500    0.000    0.000    0.000    0.000 
#    0.000    0.000    0.000    0.000    0.000    0.000 
#
# Total GULP energy -178901.870285 kJ/mol
# GULP energy per Si atom -5590.683446 kJ/mol
# Density = 2.085489 g / cm^3
# Si number density = 20.902470 Si / 1000 Ang^3
#
#
#
# Elastic Constant Matrix: (Units=GPa)
#
#
# Indices 1 2 3 4 5 6 
#
# 1 86.6625 1.8078 21.0082 0.0000 0.0000 0.0000
# 2 1.8078 74.8377 6.6207 0.0000 0.0000 0.0000
# 3 21.0082 6.6207 178.4665 0.0000 0.0000 0.0000
# 4 0.0000 0.0000 0.0000 24.4320 0.0000 0.0000
# 5 0.0000 0.0000 0.0000 0.0000 43.7372 0.0000
# 6 0.0000 0.0000 0.0000 0.0000 0.0000 40.1519
#
#
#
# Elastic Compliance Matrix: (Units=1/GPa)
#
#
# Indices 1 2 3 4 5 6 
#
# 1 0.011880 -0.000164 -0.001392 0.000000 0.000000 0.000000
# 2 -0.000164 0.013409 -0.000478 0.000000 0.000000 0.000000
# 3 -0.001392 -0.000478 0.005785 0.000000 0.000000 0.000000
# 4 0.000000 0.000000 0.000000 0.040930 0.000000 0.000000
# 5 0.000000 0.000000 0.000000 0.000000 0.022864 0.000000
# 6 0.000000 0.000000 0.000000 0.000000 0.000000 0.024905
#
#
# Mechanical properties :
#
#
# Convention : Reuss Voigt Hill
#
# Bulk Modulus (GPa) = 37.03049 44.31558 40.67303
# Shear Modulus (GPa) = 37.63847 42.36622 40.00235
#
# Velocity S-wave (km/s) = 4.24803 4.50694 4.37940
# Velocity P-wave (km/s) = 6.46648 6.95201 6.71364
#
# Compressibility (1/GPa) = 0.02700477
#
# Stress axis : x y z
#
# Youngs Moduli (GPa) = 84.17534 74.57950 172.86283
#
# Poissons Ratio (x) = 0.01222 0.24069
# Poissons Ratio (y) = 0.01379 0.08265
# Poissons Ratio (z) = 0.11720 0.03566
#
# Static dielectric constant tensor:
#      x y z
#    x 1.728980 0.000000 0.000000 
#    y 0.000000 1.752960 0.000000 
#    z 0.000000 0.000000 1.659660 
# 
# From -- ./inp_files/1916.got.cif
#   From: 2010.05.17/outbox.cif.g08.bks.cpg/sg56_1_cif.got.tgz:1916.got - 2010.06.03 13:42:01.
