data_PCOD9433124
_publ_section_title
;
Structure prediction by ZEFSAII (Michael W. Deem and Ramdas Pophale) SiO2 
 PCOD9433124
Probable space group: P C C N
;
_chemical_formula_sum "Si O2"
_cell_formula_units_Z 32
_cell_length_a 5.117336
_cell_length_b 26.976131
_cell_length_c 8.931713
_cell_angle_alpha 90.000000
_cell_angle_beta 90.000000
_cell_angle_gamma 90.000000
_cell_volume 1232.986595
_symmetry_space_group_name_H-M "P C C N"
_symmetry_group_IT_number 56
_symmetry_cell_setting 'orthorhombic'
loop_
_space_group_symop_operation_xyz
x,y,z
1/2-x,1/2-y,z
1/2+x,-y,1/2-z
-x,1/2+y,1/2-z
-x,-y,-z
1/2+x,1/2+y,-z
1/2-x,y,1/2+z
x,1/2-y,1/2+z
loop_
_atom_site_type_symbol
_atom_site_label
_atom_site_fract_x
_atom_site_fract_y
_atom_site_fract_z
Si Si1 0.036213 0.086331 0.271846
Si Si2 0.995699 0.715948 0.757131
Si Si3 0.172461 0.152936 0.008156
Si Si4 0.247770 0.504398 0.603406
O O1 0.010119 0.125207 0.137325
O O2 0.163396 0.113991 0.410993
O O3 0.775827 0.057266 0.316302
O O4 0.220405 0.041483 0.215295
O O5 0.750000 0.750000 0.714927
O O6 0.013500 0.680640 0.611397
O O7 0.882957 0.686818 0.901845
O O8 0.250000 0.750000 0.783069
O O9 0.500000 0.500000 0.500000
O O10 0.000000 0.500000 0.500000
#
# Coordination Sequence:
#
# PCOD9433124 Si02
#       4
#     8   8   8   8
#     4  11  24  52  80 126 166 221 283 334 414 484
#     4  11  26  54  81 119 165 212 271 347 436 495
#     4  10  25  51  86 125 160 221 280 347 405 522
#     4  12  26  49  79 116 173 220 268 338 411 483
#
# _framework density 25.953241999999999
#
# number of rings (size 3 to 8) (size 9 to 14) (size 15 to 20)
#    0.000    1.000    2.500    2.250    0.000    4.000 
#   18.000    3.750    0.000    0.000    0.000    0.000 
#    0.000    0.000    0.000    0.000    0.000    0.000 
#
# Total GULP energy -179631.802565 kJ/mol
# GULP energy per Si atom -5613.493830 kJ/mol
# Density = 2.589417 g / cm^3
# Si number density = 25.953242 Si / 1000 Ang^3
#
#
#
# Elastic Constant Matrix: (Units=GPa)
#
#
# Indices 1 2 3 4 5 6 
#
# 1 156.8620 53.2952 62.7300 0.0000 0.0000 0.0000
# 2 53.2952 145.0277 84.9228 0.0000 0.0000 0.0000
# 3 62.7300 84.9228 188.2624 0.0000 0.0000 0.0000
# 4 0.0000 0.0000 0.0000 68.5920 0.0000 0.0000
# 5 0.0000 0.0000 0.0000 0.0000 34.8686 0.0000
# 6 0.0000 0.0000 0.0000 0.0000 0.0000 53.4034
#
#
#
# Elastic Compliance Matrix: (Units=1/GPa)
#
#
# Indices 1 2 3 4 5 6 
#
# 1 0.007686 -0.001800 -0.001749 0.000000 0.000000 0.000000
# 2 -0.001800 0.009792 -0.003817 0.000000 0.000000 0.000000
# 3 -0.001749 -0.003817 0.007616 0.000000 0.000000 0.000000
# 4 0.000000 0.000000 0.000000 0.014579 0.000000 0.000000
# 5 0.000000 0.000000 0.000000 0.000000 0.028679 0.000000
# 6 0.000000 0.000000 0.000000 0.000000 0.000000 0.018725
#
#
# Mechanical properties :
#
#
# Convention : Reuss Voigt Hill
#
# Bulk Modulus (GPa) = 96.51067 99.11644 97.81356
# Shear Modulus (GPa) = 47.49922 50.65305 49.07613
#
# Velocity S-wave (km/s) = 4.28271 4.42260 4.35322
# Velocity P-wave (km/s) = 7.85637 8.02200 7.93962
#
# Compressibility (1/GPa) = 0.01036155
#
# Stress axis : x y z
#
# Youngs Moduli (GPa) = 130.10433 102.12363 131.29636
#
# Poissons Ratio (x) = 0.18387 0.22963
# Poissons Ratio (y) = 0.23424 0.50118
# Poissons Ratio (z) = 0.22754 0.38982
#
# Static dielectric constant tensor:
#      x y z
#    x 2.416420 0.000000 0.000000 
#    y 0.000000 2.189700 0.000000 
#    z 0.000000 0.000000 2.070350 
# 
# From -- ./inp_files/1591.got.cif
#   From: 2010.05.17/outbox.cif.g08.bks.cpg/sg56_1_cif.got.tgz:1591.got - 2010.06.03 13:42:01.
