data_PCOD9433128
_publ_section_title
;
Structure prediction by ZEFSAII (Michael W. Deem and Ramdas Pophale) SiO2 
 PCOD9433128
Probable space group: P C C N
;
_chemical_formula_sum "Si O2"
_cell_formula_units_Z 60
_cell_length_a 17.012844
_cell_length_b 18.495510
_cell_length_c 8.883753
_cell_angle_alpha 90.000000
_cell_angle_beta 90.000000
_cell_angle_gamma 90.000000
_cell_volume 2795.372613
_symmetry_space_group_name_H-M "P C C N"
_symmetry_group_IT_number 56
_symmetry_cell_setting 'orthorhombic'
loop_
_space_group_symop_operation_xyz
x,y,z
1/2-x,1/2-y,z
1/2+x,-y,1/2-z
-x,1/2+y,1/2-z
-x,-y,-z
1/2+x,1/2+y,-z
1/2-x,y,1/2+z
x,1/2-y,1/2+z
loop_
_atom_site_type_symbol
_atom_site_label
_atom_site_fract_x
_atom_site_fract_y
_atom_site_fract_z
Si Si1 0.658703 0.821049 0.961151
Si Si2 0.985971 0.207242 0.551608
Si Si3 0.500714 0.350220 0.209374
Si Si4 0.750000 0.750000 0.713095
Si Si5 0.926341 0.995318 0.240343
Si Si6 0.802700 0.523508 0.973800
Si Si7 0.417357 0.932716 0.825651
Si Si8 0.118623 0.044962 0.074765
O O1 0.722087 0.812080 0.827399
O O2 0.662385 0.900508 0.027878
O O3 0.574947 0.804592 0.890863
O O4 0.680381 0.768584 0.098150
O O5 0.992435 0.185555 0.375402
O O6 0.971032 0.290675 0.589477
O O7 0.928931 0.151801 0.639396
O O8 0.554599 0.421253 0.213546
O O9 0.415842 0.385303 0.163693
O O10 0.840602 0.987378 0.310262
O O11 0.993772 0.964116 0.350918
O O12 0.926549 0.953955 0.083333
O O13 0.710434 0.536412 0.961496
O O14 0.845657 0.462614 0.072938
O O15 0.401037 0.971409 0.666232
#
# Coordination Sequence:
#
# PCOD9433128 Si02
#       8
#     8   8   8   4   8   8   8   8
#     4  11  24  38  60  88 132 179 217 263 331 416
#     4  12  25  41  71  93 140 175 232 272 346 406
#     4  11  26  43  67 102 132 181 227 288 338 424
#     4  10  26  40  52  92 144 178 208 262 348 422
#     4  11  23  45  68 100 137 179 237 292 339 414
#     4  12  24  42  69  98 134 185 229 289 347 411
#     4  11  23  45  67  98 131 185 231 286 344 412
#     4  11  27  41  70 102 140 172 239 290 354 411
#
# _framework density 21.464044999999999
#
# number of rings (size 3 to 8) (size 9 to 14) (size 15 to 20)
#    0.000    0.800    2.667    5.200   13.067    0.000 
#    0.000    0.000    0.000    4.800    0.000    0.000 
#    0.000    0.000    0.000    0.000    0.000    0.000 
#
# Total GULP energy -334855.153551 kJ/mol
# GULP energy per Si atom -5580.919226 kJ/mol
# Density = 2.141519 g / cm^3
# Si number density = 21.464045 Si / 1000 Ang^3
#
#
#
# Elastic Constant Matrix: (Units=GPa)
#
#
# Indices 1 2 3 4 5 6 
#
# 1 54.3021 31.1099 12.2052 0.0000 0.0000 0.0000
# 2 31.1099 117.2001 27.1142 0.0000 0.0000 0.0000
# 3 12.2052 27.1142 90.8933 0.0000 0.0000 0.0000
# 4 0.0000 0.0000 0.0000 30.9016 0.0000 0.0000
# 5 0.0000 0.0000 0.0000 0.0000 18.0462 0.0000
# 6 0.0000 0.0000 0.0000 0.0000 0.0000 26.3128
#
#
#
# Elastic Compliance Matrix: (Units=1/GPa)
#
#
# Indices 1 2 3 4 5 6 
#
# 1 0.021859 -0.005503 -0.001294 0.000000 0.000000 0.000000
# 2 -0.005503 0.010550 -0.002408 0.000000 0.000000 0.000000
# 3 -0.001294 -0.002408 0.011894 0.000000 0.000000 0.000000
# 4 0.000000 0.000000 0.000000 0.032361 0.000000 0.000000
# 5 0.000000 0.000000 0.000000 0.000000 0.055413 0.000000
# 6 0.000000 0.000000 0.000000 0.000000 0.000000 0.038004
#
#
# Mechanical properties :
#
#
# Convention : Reuss Voigt Hill
#
# Bulk Modulus (GPa) = 38.61989 44.80603 41.71296
# Shear Modulus (GPa) = 25.36491 27.84987 26.60739
#
# Velocity S-wave (km/s) = 3.44137 3.60601 3.52465
# Velocity P-wave (km/s) = 5.81572 6.18530 6.00336
#
# Compressibility (1/GPa) = 0.02589339
#
# Stress axis : x y z
#
# Youngs Moduli (GPa) = 45.74782 94.78396 84.07573
#
# Poissons Ratio (x) = 0.52160 0.10876
# Poissons Ratio (y) = 0.25175 0.20248
# Poissons Ratio (z) = 0.05918 0.22827
#
# Static dielectric constant tensor:
#      x y z
#    x 1.809160 0.000000 0.000000 
#    y 0.000000 1.767960 0.000000 
#    z 0.000000 0.000000 1.836560 
# 
# From -- ./inp_files/4136.got.cif
#   From: 2010.05.17/outbox.cif.g08.bks.cpg/sg56_3_cif.got.tgz:4136.got - 2010.06.03 13:42:01.
