data_PCOD9433873
_publ_section_title
;
Structure prediction by ZEFSAII (Michael W. Deem and Ramdas Pophale) SiO2 
 PCOD9433873
Probable space group: P C C N
;
_chemical_formula_sum "Si O2"
_cell_formula_units_Z 40
_cell_length_a 18.199686
_cell_length_b 8.942741
_cell_length_c 10.148936
_cell_angle_alpha 90.000000
_cell_angle_beta 90.000000
_cell_angle_gamma 90.000000
_cell_volume 1651.790872
_symmetry_space_group_name_H-M "P C C N"
_symmetry_group_IT_number 56
_symmetry_cell_setting 'orthorhombic'
loop_
_space_group_symop_operation_xyz
x,y,z
1/2-x,1/2-y,z
1/2+x,-y,1/2-z
-x,1/2+y,1/2-z
-x,-y,-z
1/2+x,1/2+y,-z
1/2-x,y,1/2+z
x,1/2-y,1/2+z
loop_
_atom_site_type_symbol
_atom_site_label
_atom_site_fract_x
_atom_site_fract_y
_atom_site_fract_z
Si Si1 0.786244 0.912516 0.363854
Si Si2 0.347523 0.636733 0.097780
Si Si3 0.462908 0.393338 0.183338
Si Si4 0.366524 0.892986 0.306978
Si Si5 0.435393 0.376298 0.482399
O O1 0.750000 0.750000 0.366215
O O2 0.855253 0.924404 0.463776
O O3 0.722293 0.029975 0.391666
O O4 0.819234 0.959507 0.221559
O O5 0.417714 0.536681 0.136303
O O6 0.346318 0.775146 0.194815
O O7 0.352916 0.682327 0.946614
O O8 0.548018 0.431370 0.201135
O O9 0.433172 0.343556 0.326497
O O10 0.455334 0.265257 0.073506
O O11 0.500000 0.500000 0.500000
#
# Coordination Sequence:
#
# PCOD9433873 Si02
#       5
#     8   8   8   8   8
#     4  12  29  52  83 120 165 215 274 342 413 492
#     4  12  30  51  83 119 170 212 275 337 423 490
#     4  12  27  51  86 117 158 215 277 342 414 494
#     4  12  29  52  81 121 163 215 268 338 411 499
#     4  12  27  52  81 122 163 212 276 344 411 497
#
# _framework density 24.216139999999999
#
# number of rings (size 3 to 8) (size 9 to 14) (size 15 to 20)
#    0.000    0.000    4.000    3.600    8.400    2.400 
#    0.000    0.000    0.000    0.000    0.000    0.000 
#    0.000    0.000    0.000    0.000    0.000    0.000 
#
# Total GULP energy -224554.666309 kJ/mol
# GULP energy per Si atom -5613.866658 kJ/mol
# Density = 2.416102 g / cm^3
# Si number density = 24.216140 Si / 1000 Ang^3
#
#
#
# Elastic Constant Matrix: (Units=GPa)
#
#
# Indices 1 2 3 4 5 6 
#
# 1 167.9038 67.3628 27.6555 0.0000 0.0000 0.0000
# 2 67.3628 122.7983 50.2677 0.0000 0.0000 0.0000
# 3 27.6555 50.2677 194.6025 0.0000 0.0000 0.0000
# 4 0.0000 0.0000 0.0000 34.0974 0.0000 0.0000
# 5 0.0000 0.0000 0.0000 0.0000 5.2346 0.0000
# 6 0.0000 0.0000 0.0000 0.0000 0.0000 46.7947
#
#
#
# Elastic Compliance Matrix: (Units=1/GPa)
#
#
# Indices 1 2 3 4 5 6 
#
# 1 0.007636 -0.004188 -0.000004 0.000000 0.000000 0.000000
# 2 -0.004188 0.011403 -0.002350 0.000000 0.000000 0.000000
# 3 -0.000004 -0.002350 0.005746 0.000000 0.000000 0.000000
# 4 0.000000 0.000000 0.000000 0.029328 0.000000 0.000000
# 5 0.000000 0.000000 0.000000 0.000000 0.191037 0.000000
# 6 0.000000 0.000000 0.000000 0.000000 0.000000 0.021370
#
#
# Mechanical properties :
#
#
# Convention : Reuss Voigt Hill
#
# Bulk Modulus (GPa) = 85.45184 86.20850 85.83017
# Shear Modulus (GPa) = 17.63641 39.89324 28.76483
#
# Velocity S-wave (km/s) = 2.70162 4.06320 3.45024
# Velocity P-wave (km/s) = 6.71531 7.59537 7.16886
#
# Compressibility (1/GPa) = 0.01170250
#
# Stress axis : x y z
#
# Youngs Moduli (GPa) = 130.95097 87.69831 174.02525
#
# Poissons Ratio (x) = 0.36725 0.00061
# Poissons Ratio (y) = 0.54838 0.40901
# Poissons Ratio (z) = 0.00046 0.20612
#
# Static dielectric constant tensor:
#      x y z
#    x 1.923450 0.000000 0.000000 
#    y 0.000000 1.908120 0.000000 
#    z 0.000000 0.000000 1.926820 
# 
# From -- ./inp_files/8166.got.cif
#   From: 2010.05.17/outbox.cif.g08.bks.cpg/sg56_5_cif.got.tgz:8166.got - 2010.06.03 13:42:01.
