data_PCOD9433599
_publ_section_title
;
Structure prediction by ZEFSAII (Michael W. Deem and Ramdas Pophale) SiO2 
 PCOD9433599
Probable space group: P C C N
;
_chemical_formula_sum "Si O2"
_cell_formula_units_Z 36
_cell_length_a 5.839263
_cell_length_b 12.012403
_cell_length_c 22.409101
_cell_angle_alpha 90.000000
_cell_angle_beta 90.000000
_cell_angle_gamma 90.000000
_cell_volume 1571.854577
_symmetry_space_group_name_H-M "P C C N"
_symmetry_group_IT_number 56
_symmetry_cell_setting 'orthorhombic'
loop_
_space_group_symop_operation_xyz
x,y,z
1/2-x,1/2-y,z
1/2+x,-y,1/2-z
-x,1/2+y,1/2-z
-x,-y,-z
1/2+x,1/2+y,-z
1/2-x,y,1/2+z
x,1/2-y,1/2+z
loop_
_atom_site_type_symbol
_atom_site_label
_atom_site_fract_x
_atom_site_fract_y
_atom_site_fract_z
Si Si1 0.457466 0.421691 0.173133
Si Si2 0.185244 0.904375 0.988047
Si Si3 0.075950 0.985249 0.596073
Si Si4 0.250000 0.750000 0.897908
Si Si5 0.222344 0.376911 0.804015
O O1 0.261918 0.430479 0.123004
O O2 0.660063 0.341363 0.150573
O O3 0.558424 0.544935 0.184583
O O4 0.350648 0.382039 0.235132
O O5 0.084224 0.798780 0.952760
O O6 0.381077 0.949993 0.941935
O O7 0.309048 0.896212 0.051650
O O8 0.000000 0.000000 0.000000
O O9 0.968967 0.928376 0.653445
O O10 0.250000 0.250000 0.821679
#
# Coordination Sequence:
#
# PCOD9433599 Si02
#       5
#     8   8   8   4   8
#     4  12  27  48  74 116 149 207 269 318 406 475
#     4  11  24  46  73 112 148 199 258 320 385 479
#     4  11  24  48  73 105 157 194 261 315 394 474
#     4  12  26  46  80 104 160 198 260 328 388 482
#     4  12  28  47  77 109 155 202 258 332 388 476
#
# _framework density 22.902881000000001
#
# number of rings (size 3 to 8) (size 9 to 14) (size 15 to 20)
#    0.000    0.444    6.667    0.000    6.222    4.444 
#    0.000    0.000    0.000    0.000    0.000    0.000 
#    0.000    0.000    0.000    0.000    0.000    0.000 
#
# Total GULP energy -200421.623692 kJ/mol
# GULP energy per Si atom -5567.267325 kJ/mol
# Density = 2.285075 g / cm^3
# Si number density = 22.902881 Si / 1000 Ang^3
#
#
#
# Elastic Constant Matrix: (Units=GPa)
#
#
# Indices 1 2 3 4 5 6 
#
# 1 73.4145 50.1969 33.2737 0.0000 0.0000 0.0000
# 2 50.1969 103.3193 14.8284 0.0000 0.0000 0.0000
# 3 33.2737 14.8284 144.9041 0.0000 0.0000 0.0000
# 4 0.0000 0.0000 0.0000 41.3954 0.0000 0.0000
# 5 0.0000 0.0000 0.0000 0.0000 57.6556 0.0000
# 6 0.0000 0.0000 0.0000 0.0000 0.0000 25.0863
#
#
#
# Elastic Compliance Matrix: (Units=1/GPa)
#
#
# Indices 1 2 3 4 5 6 
#
# 1 0.022590 -0.010383 -0.004125 0.000000 0.000000 0.000000
# 2 -0.010383 0.014596 0.000891 0.000000 0.000000 0.000000
# 3 -0.004125 0.000891 0.007757 0.000000 0.000000 0.000000
# 4 0.000000 0.000000 0.000000 0.024157 0.000000 0.000000
# 5 0.000000 0.000000 0.000000 0.000000 0.017344 0.000000
# 6 0.000000 0.000000 0.000000 0.000000 0.000000 0.039862
#
#
# Mechanical properties :
#
#
# Convention : Reuss Voigt Hill
#
# Bulk Modulus (GPa) = 56.47114 57.58175 57.02644
# Shear Modulus (GPa) = 31.35886 39.71673 35.53780
#
# Velocity S-wave (km/s) = 3.70430 4.16881 3.94340
# Velocity P-wave (km/s) = 6.55790 6.95473 6.75923
#
# Compressibility (1/GPa) = 0.01770816
#
# Stress axis : x y z
#
# Youngs Moduli (GPa) = 44.26675 68.51393 128.91371
#
# Poissons Ratio (x) = 0.71140 0.53174
# Poissons Ratio (y) = 0.45964 -0.11482
# Poissons Ratio (z) = 0.18259 -0.06102
#
# Static dielectric constant tensor:
#      x y z
#    x 2.281000 0.000000 0.000000 
#    y 0.000000 2.264270 0.000000 
#    z 0.000000 0.000000 1.826840 
# 
# From -- ./inp_files/19907.got.cif
#   From: 2010.05.17/outbox.cif.g08.bks.cpg/sg56_10_cif.got.tgz:19907.got - 2010.06.03 13:42:01.
