data_PCOD9433217
_publ_section_title
;
Structure prediction by ZEFSAII (Michael W. Deem and Ramdas Pophale) SiO2 
 PCOD9433217
Probable space group: P C C N
;
_chemical_formula_sum "Si O2"
_cell_formula_units_Z 56
_cell_length_a 8.758328
_cell_length_b 12.819554
_cell_length_c 22.098853
_cell_angle_alpha 90.000000
_cell_angle_beta 90.000000
_cell_angle_gamma 90.000000
_cell_volume 2481.211896
_symmetry_space_group_name_H-M "P C C N"
_symmetry_group_IT_number 56
_symmetry_cell_setting 'orthorhombic'
loop_
_space_group_symop_operation_xyz
x,y,z
1/2-x,1/2-y,z
1/2+x,-y,1/2-z
-x,1/2+y,1/2-z
-x,-y,-z
1/2+x,1/2+y,-z
1/2-x,y,1/2+z
x,1/2-y,1/2+z
loop_
_atom_site_type_symbol
_atom_site_label
_atom_site_fract_x
_atom_site_fract_y
_atom_site_fract_z
Si Si1 0.225528 0.633632 0.209657
Si Si2 0.786714 0.102578 0.153097
Si Si3 0.418839 0.280767 0.437598
Si Si4 0.920890 0.158924 0.034230
Si Si5 0.202666 0.491562 0.543901
Si Si6 0.012627 0.504706 0.117562
Si Si7 0.496914 0.096015 0.353838
O O1 0.250000 0.750000 0.182667
O O2 0.181023 0.641459 0.279389
O O3 0.108240 0.562200 0.171736
O O4 0.399376 0.591582 0.205698
O O5 0.871464 0.173800 0.103140
O O6 0.609508 0.078893 0.140169
O O7 0.864567 0.988114 0.148842
O O8 0.250000 0.250000 0.459598
O O9 0.549066 0.251703 0.487155
O O10 0.432519 0.400076 0.418244
O O11 0.441565 0.207274 0.378245
O O12 0.083334 0.099517 0.031283
O O13 0.798501 0.072714 0.011091
O O14 0.362894 0.457829 0.571033
O O15 0.116844 0.558394 0.595487
#
# Coordination Sequence:
#
# PCOD9433217 Si02
#       7
#     8   8   8   8   8   8   8
#     4  11  22  39  59  87 124 160 204 260 312 361
#     4  11  22  39  60  90 125 162 201 253 317 373
#     4  11  20  37  64  93 119 156 209 262 298 356
#     4   9  20  39  58  83 128 162 187 250 322 359
#     4   8  18  35  59  83 115 156 194 246 300 356
#     4  11  22  37  67  95 113 160 222 254 290 376
#     4   9  18  36  60  81 116 155 199 252 305 352
#
# _framework density 22.569616
#
# number of rings (size 3 to 8) (size 9 to 14) (size 15 to 20)
#    0.000    2.000    2.857    1.714    0.000    0.571 
#    2.571    0.000    0.000    0.857    0.000    0.000 
#    0.000    0.000    0.000    0.000    0.000    0.000 
#
# Total GULP energy -312699.799975 kJ/mol
# GULP energy per Si atom -5583.925000 kJ/mol
# Density = 2.251825 g / cm^3
# Si number density = 22.569616 Si / 1000 Ang^3
#
#
#
# Elastic Constant Matrix: (Units=GPa)
#
#
# Indices 1 2 3 4 5 6 
#
# 1 104.8843 19.1406 19.3462 0.0000 0.0000 0.0000
# 2 19.1406 62.1896 4.2849 0.0000 0.0000 0.0000
# 3 19.3462 4.2849 103.9532 0.0000 0.0000 0.0000
# 4 0.0000 0.0000 0.0000 13.2845 0.0000 0.0000
# 5 0.0000 0.0000 0.0000 0.0000 36.0209 0.0000
# 6 0.0000 0.0000 0.0000 0.0000 0.0000 35.1114
#
#
#
# Elastic Compliance Matrix: (Units=1/GPa)
#
#
# Indices 1 2 3 4 5 6 
#
# 1 0.010432 -0.003086 -0.001814 0.000000 0.000000 0.000000
# 2 -0.003086 0.017038 -0.000128 0.000000 0.000000 0.000000
# 3 -0.001814 -0.000128 0.009963 0.000000 0.000000 0.000000
# 4 0.000000 0.000000 0.000000 0.075276 0.000000 0.000000
# 5 0.000000 0.000000 0.000000 0.000000 0.027762 0.000000
# 6 0.000000 0.000000 0.000000 0.000000 0.000000 0.028481
#
#
# Mechanical properties :
#
#
# Convention : Reuss Voigt Hill
#
# Bulk Modulus (GPa) = 36.52702 39.61894 38.07298
# Shear Modulus (GPa) = 26.57696 32.10041 29.33868
#
# Velocity S-wave (km/s) = 3.43527 3.77541 3.60935
# Velocity P-wave (km/s) = 5.65280 6.04956 5.85454
#
# Compressibility (1/GPa) = 0.02737699
#
# Stress axis : x y z
#
# Youngs Moduli (GPa) = 95.85807 58.69096 100.37506
#
# Poissons Ratio (x) = 0.18111 0.18211
# Poissons Ratio (y) = 0.29579 0.01285
# Poissons Ratio (z) = 0.17391 0.00751
#
# Static dielectric constant tensor:
#      x y z
#    x 1.854710 0.000000 0.000000 
#    y 0.000000 1.866720 0.000000 
#    z 0.000000 0.000000 1.905570 
# 
# From -- ./inp_files/18206.got.cif
#   From: 2010.05.17/outbox.cif.g08.bks.cpg/sg56_10_cif.got.tgz:18206.got - 2010.06.03 13:42:01.
