data_PCOD9433204
_publ_section_title
;
Structure prediction by ZEFSAII (Michael W. Deem and Ramdas Pophale) SiO2 
 PCOD9433204
Probable space group: P C C N
;
_chemical_formula_sum "Si O2"
_cell_formula_units_Z 64
_cell_length_a 8.758015
_cell_length_b 19.969259
_cell_length_c 17.794086
_cell_angle_alpha 90.000000
_cell_angle_beta 90.000000
_cell_angle_gamma 90.000000
_cell_volume 3112.026738
_symmetry_space_group_name_H-M "P C C N"
_symmetry_group_IT_number 56
_symmetry_cell_setting 'orthorhombic'
loop_
_space_group_symop_operation_xyz
x,y,z
1/2-x,1/2-y,z
1/2+x,-y,1/2-z
-x,1/2+y,1/2-z
-x,-y,-z
1/2+x,1/2+y,-z
1/2-x,y,1/2+z
x,1/2-y,1/2+z
loop_
_atom_site_type_symbol
_atom_site_label
_atom_site_fract_x
_atom_site_fract_y
_atom_site_fract_z
Si Si1 0.626090 0.807102 0.226260
Si Si2 0.309373 0.565225 0.319235
Si Si3 0.403858 0.710002 0.275784
Si Si4 0.049045 0.815658 0.570071
Si Si5 0.382975 0.558822 0.489973
Si Si6 0.042118 0.052257 0.223637
Si Si7 0.580022 0.030368 0.427619
Si Si8 0.587763 0.177670 0.400330
O O1 0.750000 0.750000 0.204171
O O2 0.534192 0.764443 0.289286
O O3 0.536926 0.827140 0.149043
O O4 0.643935 0.881015 0.262360
O O5 0.394404 0.636242 0.308729
O O6 0.301590 0.557093 0.408990
O O7 0.405941 0.504173 0.283651
O O8 0.141552 0.568343 0.278911
O O9 0.250000 0.750000 0.292020
O O10 0.421890 0.697503 0.186585
O O11 0.028047 0.871986 0.507609
O O12 0.231359 0.820803 0.583763
O O13 0.016814 0.738035 0.551210
O O14 0.500000 0.500000 0.500000
O O15 0.254590 0.544504 0.551832
O O16 0.069212 0.017694 0.143281
O O17 0.516442 0.104928 0.410935
O O18 0.500000 0.000000 0.500000
#
# Coordination Sequence:
#
# PCOD9433204 Si02
#       8
#     8   8   8   8   8   8   8   8
#     4  11  24  40  66 103 138 177 225 287 343 410
#     4  12  26  43  70 103 135 180 234 291 350 420
#     4  11  19  40  65  92 130 167 226 273 333 412
#     4   9  18  39  63  91 127 170 224 265 324 412
#     4  11  25  43  65  96 137 182 222 279 346 413
#     4  12  26  43  70 103 135 183 234 290 360 419
#     4  11  23  43  65  94 135 171 226 285 341 416
#     4   9  16  35  68  89 118 172 214 266 327 398
#
# _framework density 20.565377000000002
#
# number of rings (size 3 to 8) (size 9 to 14) (size 15 to 20)
#    0.000    1.250    6.250    0.750    5.250    0.000 
#   11.250    0.000    0.000    0.750    0.000    0.000 
#    0.000    0.000    0.000    0.000    0.000    0.000 
#
# Total GULP energy -356445.092272 kJ/mol
# GULP energy per Si atom -5569.454567 kJ/mol
# Density = 2.051857 g / cm^3
# Si number density = 20.565377 Si / 1000 Ang^3
#
#
#
# Elastic Constant Matrix: (Units=GPa)
#
#
# Indices 1 2 3 4 5 6 
#
# 1 26.7069 16.8834 -4.5075 0.0000 0.0000 0.0000
# 2 16.8834 182.8225 45.7836 0.0000 0.0000 0.0000
# 3 -4.5075 45.7836 51.7769 0.0000 0.0000 0.0000
# 4 0.0000 0.0000 0.0000 28.7574 0.0000 0.0000
# 5 0.0000 0.0000 0.0000 0.0000 17.0726 0.0000
# 6 0.0000 0.0000 0.0000 0.0000 0.0000 25.9181
#
#
#
# Elastic Compliance Matrix: (Units=1/GPa)
#
#
# Indices 1 2 3 4 5 6 
#
# 1 0.043002 -0.006305 0.009319 0.000000 0.000000 0.000000
# 2 -0.006305 0.007950 -0.007579 0.000000 0.000000 0.000000
# 3 0.009319 -0.007579 0.026826 0.000000 0.000000 0.000000
# 4 0.000000 0.000000 0.000000 0.034774 0.000000 0.000000
# 5 0.000000 0.000000 0.000000 0.000000 0.058573 0.000000
# 6 0.000000 0.000000 0.000000 0.000000 0.000000 0.038583
#
#
# Mechanical properties :
#
#
# Convention : Reuss Voigt Hill
#
# Bulk Modulus (GPa) = 14.56693 41.95838 28.26265
# Shear Modulus (GPa) = 20.68505 27.89275 24.28890
#
# Velocity S-wave (km/s) = 3.17491 3.68679 3.44038
# Velocity P-wave (km/s) = 4.53196 6.21047 5.43639
#
# Compressibility (1/GPa) = 0.06864864
#
# Stress axis : x y z
#
# Youngs Moduli (GPa) = 23.25472 125.78771 37.27696
#
# Poissons Ratio (x) = 0.79307 -0.34737
# Poissons Ratio (y) = 0.14662 0.28251
# Poissons Ratio (z) = -0.21670 0.95329
#
# Static dielectric constant tensor:
#      x y z
#    x 2.096330 0.000000 0.000000 
#    y 0.000000 1.809570 0.000000 
#    z 0.000000 0.000000 1.758820 
# 
# From -- ./inp_files/18399.got.cif
#   From: 2010.05.17/outbox.cif.g08.bks.cpg/sg56_10_cif.got.tgz:18399.got - 2010.06.03 13:42:01.
