data_PCOD9433419
_publ_section_title
;
Structure prediction by ZEFSAII (Michael W. Deem and Ramdas Pophale) SiO2 
 PCOD9433419
Probable space group: P C C N
;
_chemical_formula_sum "Si O2"
_cell_formula_units_Z 60
_cell_length_a 9.707915
_cell_length_b 10.554271
_cell_length_c 25.939939
_cell_angle_alpha 90.000000
_cell_angle_beta 90.000000
_cell_angle_gamma 90.000000
_cell_volume 2657.805262
_symmetry_space_group_name_H-M "P C C N"
_symmetry_group_IT_number 56
_symmetry_cell_setting 'orthorhombic'
loop_
_space_group_symop_operation_xyz
x,y,z
1/2-x,1/2-y,z
1/2+x,-y,1/2-z
-x,1/2+y,1/2-z
-x,-y,-z
1/2+x,1/2+y,-z
1/2-x,y,1/2+z
x,1/2-y,1/2+z
loop_
_atom_site_type_symbol
_atom_site_label
_atom_site_fract_x
_atom_site_fract_y
_atom_site_fract_z
Si Si1 0.516466 0.132936 0.150797
Si Si2 0.232668 0.536179 0.278956
Si Si3 0.527664 0.914977 0.348318
Si Si4 0.793232 0.085908 0.334459
Si Si5 0.750000 0.750000 0.704815
Si Si6 0.026056 0.262837 0.883787
Si Si7 0.595060 0.009346 0.050211
Si Si8 0.412889 0.489044 0.948871
O O1 0.449092 0.267683 0.164045
O O2 0.653995 0.098563 0.183208
O O3 0.408243 0.024193 0.163473
O O4 0.552156 0.119271 0.090079
O O5 0.229564 0.610566 0.225697
O O6 0.263212 0.386714 0.268012
O O7 0.085208 0.539974 0.306954
O O8 0.654299 0.013286 0.352400
O O9 0.455943 0.914883 0.404131
O O10 0.873247 0.198825 0.364596
O O11 0.618455 0.756346 0.666806
O O12 0.078485 0.383511 0.915449
O O13 0.054432 0.145104 0.921241
O O14 0.754985 0.012915 0.036724
O O15 0.500000 0.000000 0.000000
O O16 0.500000 0.500000 0.000000
#
# Coordination Sequence:
#
# PCOD9433419 Si02
#       8
#     8   8   8   8   4   8   8   8
#     4  11  24  48  71 100 151 197 244 313 379 460
#     4  12  24  46  75 106 145 205 254 306 392 457
#     4  12  26  47  66 109 156 182 251 321 375 454
#     4  11  27  45  73 111 143 197 255 306 381 458
#     4  12  20  46  78  94 150 200 252 306 368 466
#     4  11  22  51  73 101 149 193 252 310 378 467
#     4  11  24  46  75 104 134 197 251 298 386 466
#     4  12  27  47  72 110 144 189 245 320 391 445
#
# _framework density 22.575018
#
# number of rings (size 3 to 8) (size 9 to 14) (size 15 to 20)
#    0.000    0.533    6.667    1.600    7.467    0.533 
#    4.800    0.000    0.000    0.000    0.000    0.000 
#    0.000    0.000    0.000    0.000    0.000    0.000 
#
# Total GULP energy -335557.814886 kJ/mol
# GULP energy per Si atom -5592.630248 kJ/mol
# Density = 2.252364 g / cm^3
# Si number density = 22.575018 Si / 1000 Ang^3
#
#
#
# Elastic Constant Matrix: (Units=GPa)
#
#
# Indices 1 2 3 4 5 6 
#
# 1 164.9235 8.6450 41.0106 0.0000 0.0000 0.0000
# 2 8.6450 126.7914 -0.5269 0.0000 0.0000 0.0000
# 3 41.0106 -0.5269 94.6339 0.0000 0.0000 0.0000
# 4 0.0000 0.0000 0.0000 33.6334 0.0000 0.0000
# 5 0.0000 0.0000 0.0000 0.0000 38.2039 0.0000
# 6 0.0000 0.0000 0.0000 0.0000 0.0000 31.2745
#
#
#
# Elastic Compliance Matrix: (Units=1/GPa)
#
#
# Indices 1 2 3 4 5 6 
#
# 1 0.006825 -0.000478 -0.002960 0.000000 0.000000 0.000000
# 2 -0.000478 0.007921 0.000251 0.000000 0.000000 0.000000
# 3 -0.002960 0.000251 0.011851 0.000000 0.000000 0.000000
# 4 0.000000 0.000000 0.000000 0.029732 0.000000 0.000000
# 5 0.000000 0.000000 0.000000 0.000000 0.026175 0.000000
# 6 0.000000 0.000000 0.000000 0.000000 0.000000 0.031975
#
#
# Mechanical properties :
#
#
# Convention : Reuss Voigt Hill
#
# Bulk Modulus (GPa) = 49.44867 53.84515 51.64691
# Shear Modulus (GPa) = 39.18700 43.10370 41.14535
#
# Velocity S-wave (km/s) = 4.17088 4.37436 4.27383
# Velocity P-wave (km/s) = 6.71913 7.02971 6.87617
#
# Compressibility (1/GPa) = 0.02022299
#
# Stress axis : x y z
#
# Youngs Moduli (GPa) = 146.53020 126.25342 84.37939
#
# Poissons Ratio (x) = 0.06030 0.24977
# Poissons Ratio (y) = 0.06999 -0.02119
# Poissons Ratio (z) = 0.43375 -0.03170
#
# Static dielectric constant tensor:
#      x y z
#    x 1.672410 0.000000 0.000000 
#    y 0.000000 1.919780 0.000000 
#    z 0.000000 0.000000 1.784180 
# 
# From -- ./inp_files/22130.got.cif
#   From: 2010.05.17/outbox.cif.g08.bks.cpg/sg56_12_cif.got.tgz:22130.got - 2010.06.03 13:42:01.
