data_PCOD9433726
_publ_section_title
;
Structure prediction by ZEFSAII (Michael W. Deem and Ramdas Pophale) SiO2 
 PCOD9433726
Probable space group: P C C N
;
_chemical_formula_sum "Si O2"
_cell_formula_units_Z 40
_cell_length_a 9.929888
_cell_length_b 9.383660
_cell_length_c 15.540167
_cell_angle_alpha 90.000000
_cell_angle_beta 90.000000
_cell_angle_gamma 90.000000
_cell_volume 1448.012447
_symmetry_space_group_name_H-M "P C C N"
_symmetry_group_IT_number 56
_symmetry_cell_setting 'orthorhombic'
loop_
_space_group_symop_operation_xyz
x,y,z
1/2-x,1/2-y,z
1/2+x,-y,1/2-z
-x,1/2+y,1/2-z
-x,-y,-z
1/2+x,1/2+y,-z
1/2-x,y,1/2+z
x,1/2-y,1/2+z
loop_
_atom_site_type_symbol
_atom_site_label
_atom_site_fract_x
_atom_site_fract_y
_atom_site_fract_z
Si Si1 0.485988 0.400905 0.800574
Si Si2 0.248659 0.079638 0.691651
Si Si3 0.278497 0.919406 0.025339
Si Si4 0.095197 0.804758 0.379388
Si Si5 0.395560 0.329091 0.981827
O O1 0.601914 0.517788 0.807307
O O2 0.646376 0.507360 0.001623
O O3 0.534442 0.319558 0.714862
O O4 0.466051 0.315380 0.888762
O O5 0.250000 0.250000 0.683872
O O6 0.178337 0.996808 0.612698
O O7 0.162137 0.042780 0.775950
O O8 0.250000 0.750000 0.040595
O O9 0.489321 0.276977 0.059373
O O10 0.250000 0.750000 0.369500
O O11 0.123958 0.937590 0.443666
O O12 0.250000 0.250000 0.981792
#
# Coordination Sequence:
#
# PCOD9433726 Si02
#       5
#     8   8   8   8   8
#     4  12  28  50  80 122 166 219 283 347 422 509
#     4  12  29  52  83 122 170 223 282 352 429 511
#     4  11  26  50  81 116 160 216 275 341 416 499
#     4  11  27  51  84 124 169 221 282 354 428 508
#     4  12  28  54  87 123 171 226 283 354 433 511
#
# _framework density 27.624072999999999
#
# number of rings (size 3 to 8) (size 9 to 14) (size 15 to 20)
#    0.000    0.400    0.000    7.200    0.000   25.600 
#    0.000    2.000    0.000    0.000    0.000    0.000 
#    0.000    0.000    0.000    0.000    0.000    0.000 
#
# Total GULP energy -224125.167359 kJ/mol
# GULP energy per Si atom -5603.129184 kJ/mol
# Density = 2.756120 g / cm^3
# Si number density = 27.624073 Si / 1000 Ang^3
#
#
#
# Elastic Constant Matrix: (Units=GPa)
#
#
# Indices 1 2 3 4 5 6 
#
# 1 201.7893 87.3536 95.8114 0.0000 0.0000 0.0000
# 2 87.3536 152.0585 71.1907 0.0000 0.0000 0.0000
# 3 95.8114 71.1907 250.4250 0.0000 0.0000 0.0000
# 4 0.0000 0.0000 0.0000 44.9981 0.0000 0.0000
# 5 0.0000 0.0000 0.0000 0.0000 74.5145 0.0000
# 6 0.0000 0.0000 0.0000 0.0000 0.0000 60.9108
#
#
#
# Elastic Compliance Matrix: (Units=1/GPa)
#
#
# Indices 1 2 3 4 5 6 
#
# 1 0.007261 -0.003311 -0.001837 0.000000 0.000000 0.000000
# 2 -0.003311 0.009096 -0.001319 0.000000 0.000000 0.000000
# 3 -0.001837 -0.001319 0.005071 0.000000 0.000000 0.000000
# 4 0.000000 0.000000 0.000000 0.022223 0.000000 0.000000
# 5 0.000000 0.000000 0.000000 0.000000 0.013420 0.000000
# 6 0.000000 0.000000 0.000000 0.000000 0.000000 0.016417
#
#
# Mechanical properties :
#
#
# Convention : Reuss Voigt Hill
#
# Bulk Modulus (GPa) = 117.72840 123.66490 120.69665
# Shear Modulus (GPa) = 56.01928 59.41249 57.71588
#
# Velocity S-wave (km/s) = 4.50812 4.64265 4.57588
# Velocity P-wave (km/s) = 8.35513 8.57923 8.46792
#
# Compressibility (1/GPa) = 0.00849413
#
# Stress axis : x y z
#
# Youngs Moduli (GPa) = 137.71636 109.93508 197.20423
#
# Poissons Ratio (x) = 0.36405 0.36221
# Poissons Ratio (y) = 0.45605 0.26010
# Poissons Ratio (z) = 0.25295 0.14500
#
# Static dielectric constant tensor:
#      x y z
#    x 2.244560 0.000000 0.000000 
#    y 0.000000 2.212370 0.000000 
#    z 0.000000 0.000000 2.162520 
# 
# From -- ./inp_files/14451.got.cif
#   From: 2010.05.17/outbox.cif.g08.bks.cpg/sg56_8_cif.got.tgz:14451.got - 2010.06.03 13:42:01.
