data_PCOD9433897
_publ_section_title
;
Structure prediction by ZEFSAII (Michael W. Deem and Ramdas Pophale) SiO2 
 PCOD9433897
Probable space group: P C C N
;
_chemical_formula_sum "Si O2"
_cell_formula_units_Z 32
_cell_length_a 7.255022
_cell_length_b 14.220705
_cell_length_c 12.915461
_cell_angle_alpha 90.000000
_cell_angle_beta 90.000000
_cell_angle_gamma 90.000000
_cell_volume 1332.507841
_symmetry_space_group_name_H-M "P C C N"
_symmetry_group_IT_number 56
_symmetry_cell_setting 'orthorhombic'
loop_
_space_group_symop_operation_xyz
x,y,z
1/2-x,1/2-y,z
1/2+x,-y,1/2-z
-x,1/2+y,1/2-z
-x,-y,-z
1/2+x,1/2+y,-z
1/2-x,y,1/2+z
x,1/2-y,1/2+z
loop_
_atom_site_type_symbol
_atom_site_label
_atom_site_fract_x
_atom_site_fract_y
_atom_site_fract_z
Si Si1 0.165955 0.082467 0.119723
Si Si2 0.556574 0.084272 0.245826
Si Si3 0.041233 0.215998 0.279377
Si Si4 0.363649 0.049194 0.921283
O O1 0.358955 0.087164 0.185900
O O2 0.048605 0.168538 0.165797
O O3 0.078310 0.984077 0.156099
O O4 0.208558 0.088863 0.998347
O O5 0.583852 0.191578 0.279176
O O6 0.684573 0.032669 0.160733
O O7 0.250000 0.250000 0.303167
O O8 0.024373 0.129363 0.358814
O O9 0.500000 0.000000 0.000000
#
# Coordination Sequence:
#
# PCOD9433897 Si02
#       4
#     8   8   8   8
#     4   9  18  35  58  84 114 148 190 238 283 338
#     4   9  18  35  57  84 114 148 188 238 286 336
#     4   9  18  33  56  82 110 149 191 229 280 344
#     4   9  18  33  56  82 111 149 188 233 284 338
#
# _framework density 24.014866000000001
#
# number of rings (size 3 to 8) (size 9 to 14) (size 15 to 20)
#    0.000    3.000    0.000    0.000    0.000    5.000 
#    0.000   22.500    0.000   51.000    0.000    0.000 
#    0.000    0.000    0.000    0.000    0.000    0.000 
#
# Total GULP energy -178432.657688 kJ/mol
# GULP energy per Si atom -5576.020553 kJ/mol
# Density = 2.396021 g / cm^3
# Si number density = 24.014866 Si / 1000 Ang^3
#
#
#
# Elastic Constant Matrix: (Units=GPa)
#
#
# Indices 1 2 3 4 5 6 
#
# 1 37.7974 26.4996 7.9063 0.0000 0.0000 0.0000
# 2 26.4996 190.3606 56.4326 0.0000 0.0000 0.0000
# 3 7.9063 56.4326 117.0667 0.0000 0.0000 0.0000
# 4 0.0000 0.0000 0.0000 22.4985 0.0000 0.0000
# 5 0.0000 0.0000 0.0000 0.0000 24.6317 0.0000
# 6 0.0000 0.0000 0.0000 0.0000 0.0000 42.4178
#
#
#
# Elastic Compliance Matrix: (Units=1/GPa)
#
#
# Indices 1 2 3 4 5 6 
#
# 1 0.029318 -0.004077 -0.000015 0.000000 0.000000 0.000000
# 2 -0.004077 0.006696 -0.002952 0.000000 0.000000 0.000000
# 3 -0.000015 -0.002952 0.009966 0.000000 0.000000 0.000000
# 4 0.000000 0.000000 0.000000 0.044447 0.000000 0.000000
# 5 0.000000 0.000000 0.000000 0.000000 0.040598 0.000000
# 6 0.000000 0.000000 0.000000 0.000000 0.000000 0.023575
#
#
# Mechanical properties :
#
#
# Convention : Reuss Voigt Hill
#
# Bulk Modulus (GPa) = 31.35556 58.54463 44.95010
# Shear Modulus (GPa) = 27.88305 34.86867 31.37586
#
# Velocity S-wave (km/s) = 3.41115 3.81460 3.61850
# Velocity P-wave (km/s) = 5.34787 6.62064 6.01800
#
# Compressibility (1/GPa) = 0.03189227
#
# Stress axis : x y z
#
# Youngs Moduli (GPa) = 34.10846 149.34300 100.33712
#
# Poissons Ratio (x) = 0.60886 0.00148
# Poissons Ratio (y) = 0.13906 0.29624
# Poissons Ratio (z) = 0.00050 0.44093
#
# Static dielectric constant tensor:
#      x y z
#    x 2.109780 0.000000 0.000000 
#    y 0.000000 1.964960 0.000000 
#    z 0.000000 0.000000 1.920010 
# 
# From -- ./inp_files/6784.got.cif
#   From: 2010.05.17/outbox.cif.g08.bks.cpg/sg56_4_cif.got.tgz:6784.got - 2010.06.03 13:42:01.
